0:0
     RDKit          3D

 37 39  0  0  0  0  0  0  0  0999 V2000
   57.7660   26.6110   42.9920 N   0  0  0  0  0  0  0  0  0  0  0  0
   57.9860   27.5710   43.8390 C   0  0  0  0  0  0  0  0  0  0  0  0
   57.1240   28.5910   43.9020 N   0  0  0  0  0  0  0  0  0  0  0  0
   57.2780   29.6410   44.7630 C   0  0  0  0  0  0  0  0  0  0  0  0
   56.4000   30.5340   44.7230 N   0  0  0  0  0  0  0  0  0  0  0  0
   58.3860   29.5920   45.5770 C   0  0  0  0  0  0  0  0  0  0  0  0
   58.6310   30.6010   46.4780 C   0  0  0  0  0  0  0  0  0  0  0  0
   57.7700   31.6620   46.5710 O   0  0  0  0  0  0  0  0  0  0  0  0
   57.9930   33.0090   46.3760 C   0  0  0  0  0  0  0  0  0  0  0  0
   58.5370   33.3480   45.0060 C   0  0  0  0  0  0  0  0  0  0  0  0
   58.8400   34.8230   44.9640 C   0  0  0  0  0  0  0  0  0  0  0  0
   59.8880   35.2000   46.0070 C   0  0  0  0  0  0  0  0  0  0  0  0
   59.2460   34.9500   47.3520 C   0  0  0  0  0  0  0  0  0  0  0  0
   58.9350   33.4890   47.4630 C   0  0  0  0  0  0  0  0  0  0  0  0
   59.7570   30.4890   47.2610 C   0  0  0  0  0  0  0  0  0  0  0  0
   60.6400   29.4280   47.1850 C   0  0  0  0  0  0  0  0  0  0  0  0
   60.3940   28.4180   46.2820 C   0  0  0  0  0  0  0  0  0  0  0  0
   59.2650   28.5280   45.4950 C   0  0  0  0  0  0  0  0  0  0  0  0
   59.0630   27.5080   44.6190 N   0  0  0  0  0  0  0  0  0  0  0  0
   56.8300   26.3580   42.6440 H   0  0  0  0  0  0  0  0  0  0  0  0
   56.2910   28.5670   43.2460 H   0  0  0  0  0  0  0  0  0  0  0  0
   56.0830   31.3220   45.2440 H   0  0  0  0  0  0  0  0  0  0  0  0
   57.0232   33.5251   46.4323 H   0  0  0  0  0  0  0  0  0  0  0  0
   59.4571   32.7747   44.8198 H   0  0  0  0  0  0  0  0  0  0  0  0
   57.7973   33.0929   44.2329 H   0  0  0  0  0  0  0  0  0  0  0  0
   59.2184   35.0834   43.9645 H   0  0  0  0  0  0  0  0  0  0  0  0
   57.9146   35.3755   45.1840 H   0  0  0  0  0  0  0  0  0  0  0  0
   60.7857   34.5752   45.8900 H   0  0  0  0  0  0  0  0  0  0  0  0
   60.2039   36.2482   45.9000 H   0  0  0  0  0  0  0  0  0  0  0  0
   59.9382   35.2445   48.1546 H   0  0  0  0  0  0  0  0  0  0  0  0
   58.3231   35.5411   47.4461 H   0  0  0  0  0  0  0  0  0  0  0  0
   59.8749   32.9222   47.3902 H   0  0  0  0  0  0  0  0  0  0  0  0
   58.4374   33.3269   48.4305 H   0  0  0  0  0  0  0  0  0  0  0  0
   59.9661   31.2879   47.9876 H   0  0  0  0  0  0  0  0  0  0  0  0
   61.5258   29.3912   47.8361 H   0  0  0  0  0  0  0  0  0  0  0  0
   61.0714   27.5561   46.1911 H   0  0  0  0  0  0  0  0  0  0  0  0
   59.7160   26.6990   44.5450 H   0  0  0  0  0  0  0  0  0  0  0  0
  1  2  2  3
  2  3  1  0
  3  4  1  0
  4  5  2  3
  4  6  1  0
  6  7  2  0
  7  8  1  0
  8  9  1  0
  9 10  1  0
 10 11  1  0
 11 12  1  0
 12 13  1  0
 13 14  1  0
  7 15  1  0
 15 16  2  0
 16 17  1  0
 17 18  2  0
 18 19  1  0
 19  2  1  0
 18  6  1  0
 14  9  1  0
  1 20  1  0
  3 21  1  0
  5 22  1  0
  9 23  1  0
 10 24  1  0
 10 25  1  0
 11 26  1  0
 11 27  1  0
 12 28  1  0
 12 29  1  0
 13 30  1  0
 13 31  1  0
 14 32  1  0
 14 33  1  0
 15 34  1  0
 16 35  1  0
 17 36  1  0
 19 37  1  0
M  END
>  <smiles>  (1) 
N=c1[nH]c(=N)c2c(OC3CCCCC3)cccc2[nH]1

>  <score_type>  (1) 
oracle

>  <origin>  (1) 
adg

>  <m_score__min__energy>  (1) 
-7.2999999999999998

>  <m_primary>  (1) 
energy

$$$$
1:0
     RDKit          3D

 38 40  0  0  0  0  0  0  0  0999 V2000
   56.8312   27.8875   45.8331 H   0  0  0  0  0  0  0  0  0  0  0  0
   57.8140   28.3800   45.8710 C   0  0  0  0  0  0  0  0  0  0  0  0
   58.1580   29.1280   46.9540 N   0  0  0  0  0  0  0  0  0  0  0  0
   59.3580   29.7630   47.0470 C   0  0  0  0  0  0  0  0  0  0  0  0
   59.6120   30.4560   48.1210 N   0  0  0  0  0  0  0  0  0  0  0  0
   60.2440   31.7410   48.1830 C   0  0  0  0  0  0  0  0  0  0  0  0
   60.6050   32.1910   49.3030 O   0  0  0  0  0  0  0  0  0  0  0  0
   60.2720   32.6360   46.9710 C   0  0  0  0  0  0  0  0  0  0  0  0
   60.3158   32.0136   46.0651 H   0  0  0  0  0  0  0  0  0  0  0  0
   61.1574   33.2856   47.0353 H   0  0  0  0  0  0  0  0  0  0  0  0
   59.0630   33.4900   46.9140 N   0  0  0  0  0  0  0  0  0  0  0  0
   57.8330   32.7210   46.6390 C   0  0  0  0  0  0  0  0  0  0  0  0
   57.8295   31.8219   47.2727 H   0  0  0  0  0  0  0  0  0  0  0  0
   56.9743   33.3725   46.8585 H   0  0  0  0  0  0  0  0  0  0  0  0
   57.7310   32.2980   45.2010 C   0  0  0  0  0  0  0  0  0  0  0  0
   56.9550   31.2320   44.8740 N   0  0  0  0  0  0  0  0  0  0  0  0
   56.7880   30.8500   43.5800 C   0  0  0  0  0  0  0  0  0  0  0  0
   55.9180   29.6780   43.2570 C   0  0  0  0  0  0  0  0  0  0  0  0
   55.5711   29.2106   44.1904 H   0  0  0  0  0  0  0  0  0  0  0  0
   55.0502   30.0158   42.6715 H   0  0  0  0  0  0  0  0  0  0  0  0
   56.4926   28.9452   42.6715 H   0  0  0  0  0  0  0  0  0  0  0  0
   57.3850   31.5590   42.5810 N   0  0  0  0  0  0  0  0  0  0  0  0
   57.2540   31.2740   41.5850 H   0  0  0  0  0  0  0  0  0  0  0  0
   58.1580   32.6410   42.8640 C   0  0  0  0  0  0  0  0  0  0  0  0
   58.6410   33.1973   42.0472 H   0  0  0  0  0  0  0  0  0  0  0  0
   58.3420   33.0500   44.1880 C   0  0  0  0  0  0  0  0  0  0  0  0
   59.2450   34.2110   44.5020 C   0  0  0  0  0  0  0  0  0  0  0  0
   60.2787   33.9274   44.2549 H   0  0  0  0  0  0  0  0  0  0  0  0
   58.8988   35.0670   43.9042 H   0  0  0  0  0  0  0  0  0  0  0  0
   59.1930   34.6340   45.9840 C   0  0  0  0  0  0  0  0  0  0  0  0
   60.1189   35.1767   46.2251 H   0  0  0  0  0  0  0  0  0  0  0  0
   58.2994   35.2624   46.1128 H   0  0  0  0  0  0  0  0  0  0  0  0
   60.2900   29.6210   45.9990 C   0  0  0  0  0  0  0  0  0  0  0  0
   61.2747   30.1071   46.0634 H   0  0  0  0  0  0  0  0  0  0  0  0
   59.9540   28.8590   44.8790 C   0  0  0  0  0  0  0  0  0  0  0  0
   60.6718   28.7489   44.0528 H   0  0  0  0  0  0  0  0  0  0  0  0
   58.7070   28.2370   44.8080 C   0  0  0  0  0  0  0  0  0  0  0  0
   58.2740   27.2740   43.4080 Cl  0  0  0  0  0  0  0  0  0  0  0  0
  1  2  1  0
  2  3  1  0
  3  4  1  0
  4  5  2  0
  5  6  1  0
  6  7  2  0
  6  8  1  0
  8  9  1  0
  8 10  1  0
  8 11  1  0
 11 12  1  0
 12 13  1  0
 12 14  1  0
 12 15  1  0
 15 16  2  0
 16 17  1  0
 17 18  1  0
 18 19  1  0
 18 20  1  0
 18 21  1  0
 17 22  2  0
 22 23  1  0
 22 24  1  0
 24 25  1  0
 24 26  2  0
 26 27  1  0
 27 28  1  0
 27 29  1  0
 27 30  1  0
 30 31  1  0
 30 32  1  0
  4 33  1  0
 33 34  1  0
 33 35  2  0
 35 36  1  0
 35 37  1  0
 37 38  1  0
 37  2  2  0
 30 11  1  0
 26 15  1  0
M  CHG  2   3  -1  22   1
M  END
>  <UniqueID>  (2) 
1

>  <SMILES>  (2) 
Cc1nc2c(c[nH+]1)CCN(CC(=O)/N=c1\ccc(Cl)c[n-]1)C2

>  <Energy>  (2) 
55.23535076563687

>  <Genealogy>  (2) 
Cc1nc2c(c[nH+]1)CCN(CC(=O)N=c1ccc(Cl)c[n-]1)C2 (protonated)
Cc1nc2c(c[nH+]1)CCN(CC(=O)/N=c1\ccc(Cl)c[n-]1)C2 (cis-trans isomerization)
Cc1nc2c(c[nH+]1)CCN(CC(=O)/N=c1\ccc(Cl)c[n-]1)C2 (3D coordinates assigned)
Cc1nc2c(c[nH+]1)CCN(CC(=O)/N=c1\ccc(Cl)c[n-]1)C2 (nonaromatic ring conformer: 55.23535076563687 kcal/mol)

>  <smiles>  (2) 
Cc1ncc2c(n1)CN(CC(=O)N=c1ccc(Cl)c[nH]1)CC2

>  <score_type>  (2) 
oracle

>  <origin>  (2) 
adg

>  <m_score__min__energy>  (2) 
-8.1600000000000001

>  <m_primary>  (2) 
energy

$$$$
2:0
     RDKit          3D

 54 57  0  0  1  0  0  0  0  0999 V2000
   59.3350   35.6670   46.0720 O   0  0  0  0  0  0  0  0  0  0  0  0
   59.0730   34.4350   46.2760 C   0  0  0  0  0  0  0  0  0  0  0  0
   58.5650   33.7590   45.2530 N   0  0  0  0  0  0  0  0  0  0  0  0
   58.2630   32.4490   45.3980 C   0  0  0  0  0  0  0  0  0  0  0  0
   57.7190   31.7220   44.3040 N   0  0  0  0  0  0  0  0  0  0  0  0
   57.7520   32.3340   43.0090 C   0  0  0  0  0  0  0  0  0  0  0  0
   57.1640   31.5350   41.9030 C   0  0  0  0  0  0  0  0  0  0  0  0
   56.6960   30.2800   42.2500 O   0  0  0  0  0  0  0  0  0  0  0  0
   56.0360   30.2910   43.4740 C   0  0  0  0  0  0  0  0  0  0  0  0
   57.1550   30.4080   44.5180 C   0  0  0  0  0  0  0  0  0  0  0  0
   58.4950   31.8940   46.5840 N   0  0  0  0  0  0  0  0  0  0  0  0
   59.0050   32.5300   47.6480 C   0  0  0  0  0  0  0  0  0  0  0  0
   59.2330   31.8900   48.8950 N   0  0  0  0  0  0  0  0  0  0  0  0
   59.3610   30.4830   49.0740 C   0  0  0  0  0  0  0  0  0  0  0  0
   59.2930   29.7740   47.8090 N   0  0  0  0  0  0  0  0  0  0  0  0
   58.7250   28.4560   47.9480 C   0  0  0  0  0  0  0  0  0  0  0  0
   58.3720   27.9090   46.5910 C   0  0  0  0  0  0  0  0  0  0  0  0
   59.1330   28.5290   45.5970 O   0  0  0  0  0  0  0  0  0  0  0  0
   60.4480   28.6010   46.0820 C   0  0  0  0  0  0  0  0  0  0  0  0
   60.5450   29.7230   47.1160 C   0  0  0  0  0  0  0  0  0  0  0  0
   59.3170   33.8680   47.5090 C   0  0  0  0  0  0  0  0  0  0  0  0
   59.8590   34.6610   48.5450 N   0  0  0  0  0  0  0  0  0  0  0  0
   60.6570   34.2170   49.4230 N   0  0  0  0  0  0  0  0  0  0  0  0
   61.9680   33.7710   49.2180 C   0  0  0  0  0  0  0  0  0  0  0  0
   62.4390   33.2490   48.0440 C   0  0  0  0  0  0  0  0  0  0  0  0
   63.7620   32.8390   47.9560 C   0  0  0  0  0  0  0  0  0  0  0  0
   64.6400   32.9360   49.0190 C   0  0  0  0  0  0  0  0  0  0  0  0
   64.1520   33.4650   50.1960 C   0  0  0  0  0  0  0  0  0  0  0  0
   62.8500   33.8740   50.2990 C   0  0  0  0  0  0  0  0  0  0  0  0
   57.2004   33.2837   43.0700 H   0  0  0  0  0  0  0  0  0  0  0  0
   58.8170   32.4515   42.7603 H   0  0  0  0  0  0  0  0  0  0  0  0
   56.3216   32.1057   41.4851 H   0  0  0  0  0  0  0  0  0  0  0  0
   57.9841   31.3618   41.1906 H   0  0  0  0  0  0  0  0  0  0  0  0
   55.3532   31.1510   43.5390 H   0  0  0  0  0  0  0  0  0  0  0  0
   55.4197   29.3922   43.6230 H   0  0  0  0  0  0  0  0  0  0  0  0
   56.7468   30.3219   45.5358 H   0  0  0  0  0  0  0  0  0  0  0  0
   57.9057   29.6106   44.4154 H   0  0  0  0  0  0  0  0  0  0  0  0
   58.2670   30.8720   46.7210 H   0  0  0  0  0  0  0  0  0  0  0  0
   59.3120   32.5150   49.7410 H   0  0  0  0  0  0  0  0  0  0  0  0
   60.3294   30.2706   49.5504 H   0  0  0  0  0  0  0  0  0  0  0  0
   58.5283   30.1398   49.7055 H   0  0  0  0  0  0  0  0  0  0  0  0
   59.4569   27.7917   48.4308 H   0  0  0  0  0  0  0  0  0  0  0  0
   57.8158   28.5147   48.5644 H   0  0  0  0  0  0  0  0  0  0  0  0
   58.5693   26.8270   46.5750 H   0  0  0  0  0  0  0  0  0  0  0  0
   57.3073   28.1049   46.3960 H   0  0  0  0  0  0  0  0  0  0  0  0
   60.7192   27.6440   46.5518 H   0  0  0  0  0  0  0  0  0  0  0  0
   61.1368   28.8069   45.2495 H   0  0  0  0  0  0  0  0  0  0  0  0
   61.3591   29.5120   47.8250 H   0  0  0  0  0  0  0  0  0  0  0  0
   60.7586   30.6850   46.6273 H   0  0  0  0  0  0  0  0  0  0  0  0
   61.7722   33.1548   47.1742 H   0  0  0  0  0  0  0  0  0  0  0  0
   64.1252   32.4215   47.0053 H   0  0  0  0  0  0  0  0  0  0  0  0
   65.6852   32.6049   48.9302 H   0  0  0  0  0  0  0  0  0  0  0  0
   64.8197   33.5595   51.0651 H   0  0  0  0  0  0  0  0  0  0  0  0
   62.4899   34.2920   51.2506 H   0  0  0  0  0  0  0  0  0  0  0  0
  1  2  2  0
  2  3  1  0
  3  4  2  0
  4  5  1  0
  5  6  1  0
  6  7  1  0
  7  8  1  0
  8  9  1  0
  9 10  1  0
  4 11  1  0
 11 12  1  0
 12 13  1  0
 13 14  1  0
 14 15  1  0
 15 16  1  0
 16 17  1  0
 17 18  1  0
 18 19  1  0
 19 20  1  0
 12 21  2  0
 21 22  1  0
 22 23  2  0
 23 24  1  0
 24 25  2  0
 25 26  1  0
 26 27  2  0
 27 28  1  0
 28 29  2  0
 21  2  1  0
 29 24  1  0
 10  5  1  0
 20 15  1  0
  6 30  1  0
  6 31  1  0
  7 32  1  0
  7 33  1  0
  9 34  1  0
  9 35  1  0
 10 36  1  0
 10 37  1  0
 11 38  1  0
 13 39  1  0
 14 40  1  0
 14 41  1  0
 16 42  1  0
 16 43  1  0
 17 44  1  0
 17 45  1  0
 19 46  1  0
 19 47  1  0
 20 48  1  0
 20 49  1  0
 25 50  1  0
 26 51  1  0
 27 52  1  0
 28 53  1  0
 29 54  1  0
M  END
>  <smiles>  (3) 
O=c1nc(N2CCOCC2)[nH]c(NCN2CCOCC2)c1N=Nc1ccccc1

>  <score_type>  (3) 
oracle

>  <origin>  (3) 
adg

>  <m_score__min__energy>  (3) 
-7.7300000000000004

>  <m_primary>  (3) 
energy

$$$$
3:0
     RDKit          3D

 60 63  0  0  0  0  0  0  0  0999 V2000
   57.7430   26.9900   44.1900 O   0  0  0  0  0  0  0  0  0  0  0  0
   57.6350   27.2930   45.4140 C   0  0  0  0  0  0  0  0  0  0  0  0
   56.5660   26.7240   46.1900 N   0  0  0  0  0  0  0  0  0  0  0  0
   55.8280   25.5440   45.7380 C   0  0  0  0  0  0  0  0  0  0  0  0
   56.7870   24.4780   45.2760 C   0  0  0  0  0  0  0  0  0  0  0  0
   57.9850   24.2460   45.9730 C   0  0  0  0  0  0  0  0  0  0  0  0
   58.8530   23.2300   45.5610 C   0  0  0  0  0  0  0  0  0  0  0  0
   58.5310   22.4350   44.4550 C   0  0  0  0  0  0  0  0  0  0  0  0
   57.3320   22.6500   43.7670 C   0  0  0  0  0  0  0  0  0  0  0  0
   56.4600   23.6650   44.1770 C   0  0  0  0  0  0  0  0  0  0  0  0
   58.6190   28.2280   46.0220 C   0  0  0  0  0  0  0  0  0  0  0  0
   59.2950   27.8610   47.1980 C   0  0  0  0  0  0  0  0  0  0  0  0
   60.1650   28.7540   47.8270 C   0  0  0  0  0  0  0  0  0  0  0  0
   60.3700   30.0350   47.3010 C   0  0  0  0  0  0  0  0  0  0  0  0
   61.2450   31.0180   48.0290 C   0  0  0  0  0  0  0  0  0  0  0  0
   61.4230   32.2560   47.2390 N   0  0  0  0  0  0  0  0  0  0  0  0
   60.5840   33.3400   47.7910 C   0  0  0  0  0  0  0  0  0  0  0  0
   59.4150   33.6220   46.8840 C   0  0  0  0  0  0  0  0  0  0  0  0
   58.1330   33.1650   47.2260 C   0  0  0  0  0  0  0  0  0  0  0  0
   57.0420   33.4400   46.3960 C   0  0  0  0  0  0  0  0  0  0  0  0
   57.2230   34.1820   45.2240 C   0  0  0  0  0  0  0  0  0  0  0  0
   58.4940   34.6480   44.8810 C   0  0  0  0  0  0  0  0  0  0  0  0
   59.5870   34.3740   45.7100 C   0  0  0  0  0  0  0  0  0  0  0  0
   63.1130   32.7530   47.2300 S   0  0  0  0  0  0  0  0  0  0  0  0
   63.2940   33.9360   46.3110 O   0  0  0  0  0  0  0  0  0  0  0  0
   63.9860   31.6310   46.7380 O   0  0  0  0  0  0  0  0  0  0  0  0
   63.6500   33.1670   48.8600 C   0  0  0  0  0  0  0  0  0  0  0  0
   64.7270   32.4770   49.4340 C   0  0  0  0  0  0  0  0  0  0  0  0
   65.1300   32.7660   50.7420 C   0  0  0  0  0  0  0  0  0  0  0  0
   64.4680   33.7510   51.4790 C   0  0  0  0  0  0  0  0  0  0  0  0
   63.4070   34.4570   50.9040 C   0  0  0  0  0  0  0  0  0  0  0  0
   62.9980   34.1670   49.5970 C   0  0  0  0  0  0  0  0  0  0  0  0
   59.7320   30.3930   46.1060 C   0  0  0  0  0  0  0  0  0  0  0  0
   58.8540   29.5050   45.4780 C   0  0  0  0  0  0  0  0  0  0  0  0
   56.2690   27.1710   47.0830 H   0  0  0  0  0  0  0  0  0  0  0  0
   55.2228   25.1532   46.5692 H   0  0  0  0  0  0  0  0  0  0  0  0
   55.1747   25.8277   44.8998 H   0  0  0  0  0  0  0  0  0  0  0  0
   58.2407   24.8655   46.8453 H   0  0  0  0  0  0  0  0  0  0  0  0
   59.7914   23.0551   46.1076 H   0  0  0  0  0  0  0  0  0  0  0  0
   59.2196   21.6423   44.1272 H   0  0  0  0  0  0  0  0  0  0  0  0
   57.0743   22.0204   42.9026 H   0  0  0  0  0  0  0  0  0  0  0  0
   55.5153   23.8271   43.6372 H   0  0  0  0  0  0  0  0  0  0  0  0
   59.1373   26.8606   47.6273 H   0  0  0  0  0  0  0  0  0  0  0  0
   60.6930   28.4487   48.7424 H   0  0  0  0  0  0  0  0  0  0  0  0
   60.7782   31.2702   48.9926 H   0  0  0  0  0  0  0  0  0  0  0  0
   62.2318   30.5585   48.1873 H   0  0  0  0  0  0  0  0  0  0  0  0
   60.2091   33.0385   48.7802 H   0  0  0  0  0  0  0  0  0  0  0  0
   61.1940   34.2514   47.8759 H   0  0  0  0  0  0  0  0  0  0  0  0
   57.9858   32.5880   48.1509 H   0  0  0  0  0  0  0  0  0  0  0  0
   56.0406   33.0726   46.6648 H   0  0  0  0  0  0  0  0  0  0  0  0
   56.3637   34.3985   44.5722 H   0  0  0  0  0  0  0  0  0  0  0  0
   58.6357   35.2306   43.9588 H   0  0  0  0  0  0  0  0  0  0  0  0
   60.5856   34.7491   45.4414 H   0  0  0  0  0  0  0  0  0  0  0  0
   65.2564   31.7065   48.8544 H   0  0  0  0  0  0  0  0  0  0  0  0
   65.9702   32.2163   51.1913 H   0  0  0  0  0  0  0  0  0  0  0  0
   64.7811   33.9708   52.5103 H   0  0  0  0  0  0  0  0  0  0  0  0
   62.8931   35.2412   51.4793 H   0  0  0  0  0  0  0  0  0  0  0  0
   62.1634   34.7245   49.1468 H   0  0  0  0  0  0  0  0  0  0  0  0
   59.9234   31.3797   45.6590 H   0  0  0  0  0  0  0  0  0  0  0  0
   58.3428   29.8063   44.5517 H   0  0  0  0  0  0  0  0  0  0  0  0
  1  2  2  0
  2  3  1  0
  3  4  1  0
  4  5  1  0
  5  6  2  0
  6  7  1  0
  7  8  2  0
  8  9  1  0
  9 10  2  0
  2 11  1  0
 11 12  2  0
 12 13  1  0
 13 14  2  0
 14 15  1  0
 15 16  1  0
 16 17  1  0
 17 18  1  0
 18 19  2  0
 19 20  1  0
 20 21  2  0
 21 22  1  0
 22 23  2  0
 16 24  1  0
 24 25  2  0
 24 26  2  0
 24 27  1  0
 27 28  2  0
 28 29  1  0
 29 30  2  0
 30 31  1  0
 31 32  2  0
 14 33  1  0
 33 34  2  0
 10  5  1  0
 34 11  1  0
 23 18  1  0
 32 27  1  0
  3 35  1  0
  4 36  1  0
  4 37  1  0
  6 38  1  0
  7 39  1  0
  8 40  1  0
  9 41  1  0
 10 42  1  0
 12 43  1  0
 13 44  1  0
 15 45  1  0
 15 46  1  0
 17 47  1  0
 17 48  1  0
 19 49  1  0
 20 50  1  0
 21 51  1  0
 22 52  1  0
 23 53  1  0
 28 54  1  0
 29 55  1  0
 30 56  1  0
 31 57  1  0
 32 58  1  0
 33 59  1  0
 34 60  1  0
M  END
>  <UniqueID>  (4) 
2

>  <SMILES>  (4) 
O=C(NCc1ccccc1)c1ccc(CN(Cc2ccccc2)S(=O)(=O)c2ccccc2)cc1

>  <Energy>  (4) 
58.949582151045

>  <Genealogy>  (4) 
O=C(NCc1ccccc1)c1ccc(CN(Cc2ccccc2)S(=O)(=O)c2ccccc2)cc1 (3D coordinates assigned)
O=C(NCc1ccccc1)c1ccc(CN(Cc2ccccc2)S(=O)(=O)c2ccccc2)cc1 (optimized conformer: 58.949582151045 kcal/mol)

>  <smiles>  (4) 
O=C(NCc1ccccc1)c1ccc(CN(Cc2ccccc2)S(=O)(=O)c2ccccc2)cc1

>  <score_type>  (4) 
oracle

>  <origin>  (4) 
adg

>  <m_score__min__energy>  (4) 
-10.52

>  <m_primary>  (4) 
energy

$$$$
4:0
     RDKit          3D

 41 43  0  0  0  0  0  0  0  0999 V2000
   55.5190   25.4930   46.6840 O   0  0  0  0  0  0  0  0  0  0  0  0
   56.3170   26.3790   46.2820 C   0  0  0  0  0  0  0  0  0  0  0  0
   57.6440   26.3160   46.4990 N   0  0  0  0  0  0  0  0  0  0  0  0
   58.1160   27.4320   45.9150 C   0  0  0  0  0  0  0  0  0  0  0  0
   59.5690   27.8050   45.9610 C   0  0  0  0  0  0  0  0  0  0  0  0
   59.8640   28.6870   47.1810 C   0  0  0  0  0  0  0  0  0  0  0  0
   60.0060   30.1590   46.7950 C   0  0  0  0  0  0  0  0  0  0  0  0
   59.0140   30.9210   47.4270 O   0  0  0  0  0  0  0  0  0  0  0  0
   57.0520   28.1470   45.3720 C   0  0  0  0  0  0  0  0  0  0  0  0
   57.0520   29.4480   44.6760 C   0  0  0  0  0  0  0  0  0  0  0  0
   57.3690   30.6000   45.3090 N   0  0  0  0  0  0  0  0  0  0  0  0
   57.3550   31.6740   44.4730 C   0  0  0  0  0  0  0  0  0  0  0  0
   57.7370   33.0420   44.9440 C   0  0  0  0  0  0  0  0  0  0  0  0
   59.1650   33.1020   45.2600 N   0  0  0  0  0  0  0  0  0  0  0  0
   59.4530   33.9300   46.7650 S   0  0  0  0  0  0  0  0  0  0  0  0
   58.4720   33.4550   47.8020 O   0  0  0  0  0  0  0  0  0  0  0  0
   59.2520   35.4050   46.5580 O   0  0  0  0  0  0  0  0  0  0  0  0
   61.1060   33.6610   47.3140 C   0  0  0  0  0  0  0  0  0  0  0  0
   61.3720   33.2900   48.6410 C   0  0  0  0  0  0  0  0  0  0  0  0
   62.6870   33.0510   49.0540 C   0  0  0  0  0  0  0  0  0  0  0  0
   63.7410   33.1850   48.1450 C   0  0  0  0  0  0  0  0  0  0  0  0
   63.4810   33.5620   46.8240 C   0  0  0  0  0  0  0  0  0  0  0  0
   62.1670   33.7990   46.4090 C   0  0  0  0  0  0  0  0  0  0  0  0
   57.0210   31.3910   43.1520 C   0  0  0  0  0  0  0  0  0  0  0  0
   56.7420   29.7380   43.0460 S   0  0  0  0  0  0  0  0  0  0  0  0
   55.9120   27.4700   45.6050 N   0  0  0  0  0  0  0  0  0  0  0  0
   60.1751   26.8891   46.0225 H   0  0  0  0  0  0  0  0  0  0  0  0
   59.8188   28.3675   45.0493 H   0  0  0  0  0  0  0  0  0  0  0  0
   59.0391   28.5857   47.9016 H   0  0  0  0  0  0  0  0  0  0  0  0
   60.8159   28.3552   47.6212 H   0  0  0  0  0  0  0  0  0  0  0  0
   60.9968   30.5225   47.1053 H   0  0  0  0  0  0  0  0  0  0  0  0
   59.8955   30.2574   45.7050 H   0  0  0  0  0  0  0  0  0  0  0  0
   58.6960   31.5740   46.7510 H   0  0  0  0  0  0  0  0  0  0  0  0
   57.5116   33.7721   44.1527 H   0  0  0  0  0  0  0  0  0  0  0  0
   57.1641   33.2749   45.8537 H   0  0  0  0  0  0  0  0  0  0  0  0
   60.5444   33.1869   49.3582 H   0  0  0  0  0  0  0  0  0  0  0  0
   62.8919   32.7576   50.0941 H   0  0  0  0  0  0  0  0  0  0  0  0
   64.7746   32.9938   48.4692 H   0  0  0  0  0  0  0  0  0  0  0  0
   64.3109   33.6723   46.1105 H   0  0  0  0  0  0  0  0  0  0  0  0
   61.9655   34.0947   45.3688 H   0  0  0  0  0  0  0  0  0  0  0  0
   56.9523   32.1168   42.3283 H   0  0  0  0  0  0  0  0  0  0  0  0
  1  2  2  0
  2  3  1  0
  3  4  1  0
  4  5  1  0
  5  6  1  0
  6  7  1  0
  7  8  1  0
  4  9  2  0
  9 10  1  0
 10 11  2  0
 11 12  1  0
 12 13  1  0
 13 14  1  0
 14 15  1  0
 15 16  2  0
 15 17  2  0
 15 18  1  0
 18 19  2  0
 19 20  1  0
 20 21  2  0
 21 22  1  0
 22 23  2  0
 12 24  2  0
 24 25  1  0
  9 26  1  0
 26  2  1  0
 25 10  1  0
 23 18  1  0
  5 27  1  0
  5 28  1  0
  6 29  1  0
  6 30  1  0
  7 31  1  0
  7 32  1  0
  8 33  1  0
 13 34  1  0
 13 35  1  0
 19 36  1  0
 20 37  1  0
 21 38  1  0
 22 39  1  0
 23 40  1  0
 24 41  1  0
M  CHG  3   3  -1  14  -1  26  -1
M  END
>  <UniqueID>  (5) 
3

>  <SMILES>  (5) 
O=c1[n-]c(CCCO)c(-c2nc(C[N-]S(=O)(=O)c3ccccc3)cs2)[n-]1

>  <Energy>  (5) 
89.63100552503937

>  <Genealogy>  (5) 
O=c1[n-]c(CCCO)c(-c2nc(C[N-]S(=O)(=O)c3ccccc3)cs2)[n-]1 (protonated)
O=c1[n-]c(CCCO)c(-c2nc(C[N-]S(=O)(=O)c3ccccc3)cs2)[n-]1 (3D coordinates assigned)
O=c1[n-]c(CCCO)c(-c2nc(C[N-]S(=O)(=O)c3ccccc3)cs2)[n-]1 (optimized conformer: 89.63100552503937 kcal/mol)

>  <smiles>  (5) 
O=c1[nH]c(CCCO)c(-c2nc(CNS(=O)(=O)c3ccccc3)cs2)[nH]1

>  <score_type>  (5) 
oracle

>  <origin>  (5) 
adg

>  <m_score__min__energy>  (5) 
-13.82

>  <m_primary>  (5) 
energy

$$$$
5:0
     RDKit          3D

 54 56  0  0  0  0  0  0  0  0999 V2000
   56.6410   23.6010   42.9960 C   0  0  0  0  0  0  0  0  0  0  0  0
   56.7760   24.2270   44.3530 C   0  0  0  0  0  0  0  0  0  0  0  0
   56.2550   23.5800   45.4830 C   0  0  0  0  0  0  0  0  0  0  0  0
   56.3540   24.1740   46.7490 C   0  0  0  0  0  0  0  0  0  0  0  0
   55.8490   23.4520   47.9640 C   0  0  0  0  0  0  0  0  0  0  0  0
   56.9880   25.4170   46.8830 C   0  0  0  0  0  0  0  0  0  0  0  0
   57.4770   26.0950   45.7560 C   0  0  0  0  0  0  0  0  0  0  0  0
   58.1240   27.3680   45.9240 N   0  0  0  0  0  0  0  0  0  0  0  0
   59.4650   27.5230   46.4220 C   0  0  0  0  0  0  0  0  0  0  0  0
   60.2730   26.5570   46.3490 O   0  0  0  0  0  0  0  0  0  0  0  0
   59.9260   28.8210   46.9720 C   0  0  0  0  0  0  0  0  0  0  0  0
   59.5160   29.2530   48.2450 C   0  0  0  0  0  0  0  0  0  0  0  0
   59.9590   30.4750   48.7580 C   0  0  0  0  0  0  0  0  0  0  0  0
   60.8290   31.2910   48.0100 C   0  0  0  0  0  0  0  0  0  0  0  0
   61.3030   32.5580   48.5080 N   0  0  0  0  0  0  0  0  0  0  0  0
   61.4330   33.7670   47.6950 C   0  0  0  0  0  0  0  0  0  0  0  0
   60.0850   34.3980   47.4810 C   0  0  0  0  0  0  0  0  0  0  0  0
   59.4960   34.9270   48.4600 O   0  0  0  0  0  0  0  0  0  0  0  0
   59.4190   34.3620   46.2120 N   0  0  0  0  0  0  0  0  0  0  0  0
   58.7820   33.2230   45.6180 C   0  0  0  0  0  0  0  0  0  0  0  0
   58.4040   32.1540   46.4380 C   0  0  0  0  0  0  0  0  0  0  0  0
   57.7590   31.0390   45.8940 C   0  0  0  0  0  0  0  0  0  0  0  0
   57.4640   30.9940   44.5250 C   0  0  0  0  0  0  0  0  0  0  0  0
   56.6640   29.5840   43.8380 S   0  0  0  0  0  0  0  0  0  0  0  0
   55.5870   28.9050   45.0070 N   0  0  0  0  0  0  0  0  0  0  0  0
   55.8860   29.9850   42.6160 O   0  0  0  0  0  0  0  0  0  0  0  0
   57.6880   28.5580   43.4430 O   0  0  0  0  0  0  0  0  0  0  0  0
   57.8220   32.0720   43.7040 C   0  0  0  0  0  0  0  0  0  0  0  0
   58.4670   33.1870   44.2490 C   0  0  0  0  0  0  0  0  0  0  0  0
   61.2430   30.8550   46.7440 C   0  0  0  0  0  0  0  0  0  0  0  0
   60.8010   29.6330   46.2310 C   0  0  0  0  0  0  0  0  0  0  0  0
   57.3730   25.4880   44.4910 C   0  0  0  0  0  0  0  0  0  0  0  0
   56.4103   22.5312   43.1070 H   0  0  0  0  0  0  0  0  0  0  0  0
   55.8289   24.0958   42.4431 H   0  0  0  0  0  0  0  0  0  0  0  0
   57.5848   23.7171   42.4431 H   0  0  0  0  0  0  0  0  0  0  0  0
   55.7658   22.6007   45.3753 H   0  0  0  0  0  0  0  0  0  0  0  0
   56.2068   23.9636   48.8697 H   0  0  0  0  0  0  0  0  0  0  0  0
   54.7490   23.4464   47.9564 H   0  0  0  0  0  0  0  0  0  0  0  0
   56.2210   22.4168   47.9564 H   0  0  0  0  0  0  0  0  0  0  0  0
   57.1032   25.8651   47.8810 H   0  0  0  0  0  0  0  0  0  0  0  0
   57.6360   28.2160   45.5570 H   0  0  0  0  0  0  0  0  0  0  0  0
   58.8404   28.6236   48.8428 H   0  0  0  0  0  0  0  0  0  0  0  0
   59.6254   30.8019   49.7539 H   0  0  0  0  0  0  0  0  0  0  0  0
   61.5700   32.6300   49.5160 H   0  0  0  0  0  0  0  0  0  0  0  0
   62.0910   34.4821   48.2104 H   0  0  0  0  0  0  0  0  0  0  0  0
   61.8617   33.4977   46.7184 H   0  0  0  0  0  0  0  0  0  0  0  0
   58.6155   32.1910   47.5168 H   0  0  0  0  0  0  0  0  0  0  0  0
   57.4824   30.1948   46.5427 H   0  0  0  0  0  0  0  0  0  0  0  0
   54.6530   29.3460   44.8520 H   0  0  0  0  0  0  0  0  0  0  0  0
   57.5951   32.0411   42.6281 H   0  0  0  0  0  0  0  0  0  0  0  0
   58.7286   34.0386   43.6038 H   0  0  0  0  0  0  0  0  0  0  0  0
   61.9230   31.4815   46.1481 H   0  0  0  0  0  0  0  0  0  0  0  0
   61.1411   29.3036   45.2381 H   0  0  0  0  0  0  0  0  0  0  0  0
   57.7632   26.0070   43.6031 H   0  0  0  0  0  0  0  0  0  0  0  0
  1  2  1  0
  2  3  2  0
  3  4  1  0
  4  5  1  0
  4  6  2  0
  6  7  1  0
  7  8  1  0
  8  9  1  0
  9 10  2  0
  9 11  1  0
 11 12  2  0
 12 13  1  0
 13 14  2  0
 14 15  1  0
 15 16  1  0
 16 17  1  0
 17 18  2  0
 17 19  1  0
 19 20  1  0
 20 21  2  0
 21 22  1  0
 22 23  2  0
 23 24  1  0
 24 25  1  0
 24 26  2  0
 24 27  2  0
 23 28  1  0
 28 29  2  0
 14 30  1  0
 30 31  2  0
  7 32  2  0
 32  2  1  0
 31 11  1  0
 29 20  1  0
  1 33  1  0
  1 34  1  0
  1 35  1  0
  3 36  1  0
  5 37  1  0
  5 38  1  0
  5 39  1  0
  6 40  1  0
  8 41  1  0
 12 42  1  0
 13 43  1  0
 15 44  1  0
 16 45  1  0
 16 46  1  0
 21 47  1  0
 22 48  1  0
 25 49  1  0
 28 50  1  0
 29 51  1  0
 30 52  1  0
 31 53  1  0
 32 54  1  0
M  CHG  2  19  -1  25  -1
M  END
>  <UniqueID>  (6) 
4

>  <SMILES>  (6) 
Cc1cc(C)cc(NC(=O)c2ccc(NCC(=O)[N-]c3ccc(S([NH-])(=O)=O)cc3)cc2)c1

>  <Energy>  (6) 
63.373803695056374

>  <Genealogy>  (6) 
Cc1cc(C)cc(NC(=O)c2ccc(NCC(=O)[N-]c3ccc(S([NH-])(=O)=O)cc3)cc2)c1 (protonated)
Cc1cc(C)cc(NC(=O)c2ccc(NCC(=O)[N-]c3ccc(S([NH-])(=O)=O)cc3)cc2)c1 (3D coordinates assigned)
Cc1cc(C)cc(NC(=O)c2ccc(NCC(=O)[N-]c3ccc(S([NH-])(=O)=O)cc3)cc2)c1 (optimized conformer: 63.373803695056374 kcal/mol)

>  <smiles>  (6) 
Cc1cc(C)cc(NC(=O)c2ccc(NCC(=O)Nc3ccc(S(N)(=O)=O)cc3)cc2)c1

>  <score_type>  (6) 
oracle

>  <origin>  (6) 
adg

>  <m_score__min__energy>  (6) 
-13.130000000000001

>  <m_primary>  (6) 
energy

$$$$
6:0
     RDKit          3D

 47 50  0  0  0  0  0  0  0  0999 V2000
   54.6460   26.1660   45.9340 N   0  0  0  0  0  0  0  0  0  0  0  0
   56.2070   25.4240   45.8450 S   0  0  0  0  0  0  0  0  0  0  0  0
   56.3580   24.7490   44.5110 O   0  0  0  0  0  0  0  0  0  0  0  0
   56.3190   24.4010   46.9410 O   0  0  0  0  0  0  0  0  0  0  0  0
   57.4750   26.6290   46.0380 C   0  0  0  0  0  0  0  0  0  0  0  0
   58.0250   27.2760   44.9220 C   0  0  0  0  0  0  0  0  0  0  0  0
   59.0260   28.2360   45.0890 C   0  0  0  0  0  0  0  0  0  0  0  0
   59.5140   28.5360   46.3660 C   0  0  0  0  0  0  0  0  0  0  0  0
   60.5510   29.5190   46.4980 N   0  0  0  0  0  0  0  0  0  0  0  0
   60.7840   30.3260   47.6590 C   0  0  0  0  0  0  0  0  0  0  0  0
   61.8160   31.0480   47.7420 O   0  0  0  0  0  0  0  0  0  0  0  0
   59.7560   30.3770   48.7410 C   0  0  0  0  0  0  0  0  0  0  0  0
   59.0060   32.0410   48.8480 S   0  0  0  0  0  0  0  0  0  0  0  0
   58.5220   32.1040   47.1200 C   0  0  0  0  0  0  0  0  0  0  0  0
   57.7880   31.0720   46.6060 N   0  0  0  0  0  0  0  0  0  0  0  0
   57.3880   31.0510   45.3000 C   0  0  0  0  0  0  0  0  0  0  0  0
   56.7250   30.0740   44.8650 O   0  0  0  0  0  0  0  0  0  0  0  0
   57.7030   32.0840   44.4650 N   0  0  0  0  0  0  0  0  0  0  0  0
   58.4170   33.1190   44.9640 C   0  0  0  0  0  0  0  0  0  0  0  0
   58.7950   34.2160   44.2880 N   0  0  0  0  0  0  0  0  0  0  0  0
   59.4590   34.9280   45.2280 C   0  0  0  0  0  0  0  0  0  0  0  0
   59.5020   34.3210   46.4430 N   0  0  0  0  0  0  0  0  0  0  0  0
   60.1770   34.8530   47.6320 C   0  0  0  0  0  0  0  0  0  0  0  0
   61.5270   34.2120   47.8430 C   0  0  0  0  0  0  0  0  0  0  0  0
   62.3390   33.8470   46.7500 C   0  0  0  0  0  0  0  0  0  0  0  0
   63.5960   33.2760   46.9650 C   0  0  0  0  0  0  0  0  0  0  0  0
   64.0680   33.0870   48.2670 C   0  0  0  0  0  0  0  0  0  0  0  0
   63.2850   33.4760   49.3580 C   0  0  0  0  0  0  0  0  0  0  0  0
   62.0240   34.0430   49.1480 C   0  0  0  0  0  0  0  0  0  0  0  0
   58.8370   33.1620   46.2560 C   0  0  0  0  0  0  0  0  0  0  0  0
   58.9550   27.8950   47.4870 C   0  0  0  0  0  0  0  0  0  0  0  0
   57.9440   26.9450   47.3200 C   0  0  0  0  0  0  0  0  0  0  0  0
   54.7720   27.0860   46.4090 H   0  0  0  0  0  0  0  0  0  0  0  0
   57.6672   27.0268   43.9121 H   0  0  0  0  0  0  0  0  0  0  0  0
   59.4332   28.7594   44.2114 H   0  0  0  0  0  0  0  0  0  0  0  0
   58.9685   29.6399   48.5250 H   0  0  0  0  0  0  0  0  0  0  0  0
   60.2429   30.1479   49.7004 H   0  0  0  0  0  0  0  0  0  0  0  0
   59.9205   35.9061   45.0274 H   0  0  0  0  0  0  0  0  0  0  0  0
   60.3130   35.9376   47.5090 H   0  0  0  0  0  0  0  0  0  0  0  0
   59.5515   34.6303   48.5090 H   0  0  0  0  0  0  0  0  0  0  0  0
   61.9813   34.0125   45.7230 H   0  0  0  0  0  0  0  0  0  0  0  0
   64.2156   32.9745   46.1076 H   0  0  0  0  0  0  0  0  0  0  0  0
   65.0556   32.6321   48.4333 H   0  0  0  0  0  0  0  0  0  0  0  0
   63.6611   33.3360   50.3822 H   0  0  0  0  0  0  0  0  0  0  0  0
   61.4167   34.3589   50.0091 H   0  0  0  0  0  0  0  0  0  0  0  0
   59.3146   28.1422   48.4967 H   0  0  0  0  0  0  0  0  0  0  0  0
   57.5142   26.4428   48.1992 H   0  0  0  0  0  0  0  0  0  0  0  0
  1  2  1  0
  2  3  2  0
  2  4  2  0
  2  5  1  0
  5  6  2  0
  6  7  1  0
  7  8  2  0
  8  9  1  0
  9 10  1  0
 10 11  2  0
 10 12  1  0
 12 13  1  0
 13 14  1  0
 14 15  1  0
 15 16  1  0
 16 17  2  0
 16 18  1  0
 18 19  2  0
 19 20  1  0
 20 21  2  0
 21 22  1  0
 22 23  1  0
 23 24  1  0
 24 25  2  0
 25 26  1  0
 26 27  2  0
 27 28  1  0
 28 29  2  0
 22 30  1  0
  8 31  1  0
 31 32  2  0
 32  5  1  0
 30 14  2  0
 30 19  1  0
 29 24  1  0
  1 33  1  0
  6 34  1  0
  7 35  1  0
 12 36  1  0
 12 37  1  0
 21 38  1  0
 23 39  1  0
 23 40  1  0
 25 41  1  0
 26 42  1  0
 27 43  1  0
 28 44  1  0
 29 45  1  0
 31 46  1  0
 32 47  1  0
M  CHG  3   1  -1   9  -1  15  -1
M  END
>  <UniqueID>  (7) 
5

>  <SMILES>  (7) 
[NH-]S(=O)(=O)c1ccc([N-]C(=O)CSc2[n-]c(=O)nc3ncn(Cc4ccccc4)c23)cc1

>  <Energy>  (7) 
90.5778978749232

>  <Genealogy>  (7) 
[NH-]S(=O)(=O)c1ccc([N-]C(=O)CSc2[n-]c(=O)nc3ncn(Cc4ccccc4)c23)cc1 (protonated)
[NH-]S(=O)(=O)c1ccc([N-]C(=O)CSc2[n-]c(=O)nc3ncn(Cc4ccccc4)c23)cc1 (3D coordinates assigned)
[NH-]S(=O)(=O)c1ccc([N-]C(=O)CSc2[n-]c(=O)nc3ncn(Cc4ccccc4)c23)cc1 (optimized conformer: 90.5778978749232 kcal/mol)

>  <smiles>  (7) 
NS(=O)(=O)c1ccc(NC(=O)CSc2[nH]c(=O)nc3ncn(Cc4ccccc4)c23)cc1

>  <score_type>  (7) 
oracle

>  <origin>  (7) 
adg

>  <m_score__min__energy>  (7) 
-14.18

>  <m_primary>  (7) 
energy

$$$$
7:0
     RDKit          3D

 44 46  0  0  0  0  0  0  0  0999 V2000
   59.3466   27.2010   46.2593 H   0  0  0  0  0  0  0  0  0  0  0  0
   58.3920   27.6280   45.9180 C   0  0  0  0  0  0  0  0  0  0  0  0
   57.2010   26.7690   45.9950 C   0  0  0  0  0  0  0  0  0  0  0  0
   57.1850   25.5230   46.5040 N   0  0  0  0  0  0  0  0  0  0  0  0
   55.8750   25.1920   46.4770 C   0  0  0  0  0  0  0  0  0  0  0  0
   55.4500   24.0740   46.8680 O   0  0  0  0  0  0  0  0  0  0  0  0
   55.0560   26.1580   46.0060 N   0  0  0  0  0  0  0  0  0  0  0  0
   55.9120   27.1520   45.7180 C   0  0  0  0  0  0  0  0  0  0  0  0
   55.5200   28.3870   45.2170 O   0  0  0  0  0  0  0  0  0  0  0  0
   58.4080   28.8960   45.4630 C   0  0  0  0  0  0  0  0  0  0  0  0
   58.4640   29.2080   44.1200 C   0  0  0  0  0  0  0  0  0  0  0  0
   58.5784   28.4855   43.2984 H   0  0  0  0  0  0  0  0  0  0  0  0
   58.3560   30.5370   43.9820 N   0  0  0  0  0  0  0  0  0  0  0  0
   58.3530   31.0540   43.0750 H   0  0  0  0  0  0  0  0  0  0  0  0
   58.2700   31.0330   45.2370 C   0  0  0  0  0  0  0  0  0  0  0  0
   58.1590   32.3470   45.5130 C   0  0  0  0  0  0  0  0  0  0  0  0
   58.0442   32.6476   46.5649 H   0  0  0  0  0  0  0  0  0  0  0  0
   58.1830   33.4280   44.4650 C   0  0  0  0  0  0  0  0  0  0  0  0
   57.1480   33.7200   44.2336 H   0  0  0  0  0  0  0  0  0  0  0  0
   58.6938   33.0264   43.5774 H   0  0  0  0  0  0  0  0  0  0  0  0
   58.9550   34.6710   44.9310 C   0  0  0  0  0  0  0  0  0  0  0  0
   58.3502   35.5645   44.7169 H   0  0  0  0  0  0  0  0  0  0  0  0
   59.9123   34.6965   44.3898 H   0  0  0  0  0  0  0  0  0  0  0  0
   59.2630   34.6320   46.4280 C   0  0  0  0  0  0  0  0  0  0  0  0
   58.3294   34.7502   46.9976 H   0  0  0  0  0  0  0  0  0  0  0  0
   59.7278   33.6678   46.6817 H   0  0  0  0  0  0  0  0  0  0  0  0
   59.9534   35.4499   46.6817 H   0  0  0  0  0  0  0  0  0  0  0  0
   58.3300   30.0530   46.1820 N   0  0  0  0  0  0  0  0  0  0  0  0
   58.6640   30.2670   47.6060 C   0  0  0  0  0  0  0  0  0  0  0  0
   57.8431   30.8157   48.0907 H   0  0  0  0  0  0  0  0  0  0  0  0
   58.8053   29.2877   48.0867 H   0  0  0  0  0  0  0  0  0  0  0  0
   59.9390   31.0620   47.7420 C   0  0  0  0  0  0  0  0  0  0  0  0
   59.9830   32.2140   48.5420 C   0  0  0  0  0  0  0  0  0  0  0  0
   59.0794   32.5441   49.0755 H   0  0  0  0  0  0  0  0  0  0  0  0
   61.1690   32.9450   48.6650 C   0  0  0  0  0  0  0  0  0  0  0  0
   61.1896   33.8515   49.2878 H   0  0  0  0  0  0  0  0  0  0  0  0
   62.3340   32.5300   47.9990 C   0  0  0  0  0  0  0  0  0  0  0  0
   63.5870   33.3070   48.1300 C   0  0  0  0  0  0  0  0  0  0  0  0
   63.7820   34.3320   47.4240 O   0  0  0  0  0  0  0  0  0  0  0  0
   64.5650   32.9170   49.0370 O   0  0  0  0  0  0  0  0  0  0  0  0
   62.2920   31.3670   47.2100 C   0  0  0  0  0  0  0  0  0  0  0  0
   63.1986   31.0286   46.6869 H   0  0  0  0  0  0  0  0  0  0  0  0
   61.1060   30.6380   47.0860 C   0  0  0  0  0  0  0  0  0  0  0  0
   61.0866   29.7264   46.4707 H   0  0  0  0  0  0  0  0  0  0  0  0
  1  2  1  0
  2  3  1  0
  3  4  1  0
  4  5  1  0
  5  6  2  0
  5  7  1  0
  7  8  1  0
  8  9  1  0
  2 10  2  3
 10 11  1  0
 11 12  1  0
 11 13  2  0
 13 14  1  0
 13 15  1  0
 15 16  2  0
 16 17  1  0
 16 18  1  0
 18 19  1  0
 18 20  1  0
 18 21  1  0
 21 22  1  0
 21 23  1  0
 21 24  1  0
 24 25  1  0
 24 26  1  0
 24 27  1  0
 15 28  1  0
 28 29  1  0
 29 30  1  0
 29 31  1  0
 29 32  1  0
 32 33  2  0
 33 34  1  0
 33 35  1  0
 35 36  1  0
 35 37  2  0
 37 38  1  0
 38 39  2  0
 38 40  1  0
 37 41  1  0
 41 42  1  0
 41 43  2  0
 43 44  1  0
  8  3  2  0
 28 10  1  0
 43 32  1  0
M  CHG  5   4  -1   7  -1   9  -1  13   1  40  -1
M  END
>  <UniqueID>  (8) 
6

>  <SMILES>  (8) 
CCC/C=c1\[nH+]cc(=Cc2[n-]c(=O)[n-]c2[O-])n1Cc1ccc(C(=O)[O-])cc1

>  <Energy>  (8) 
116.15991170948125

>  <Genealogy>  (8) 
CCCC=c1[nH+]cc(=Cc2[n-]c(=O)[n-]c2[O-])n1Cc1ccc(C(=O)[O-])cc1 (protonated)
CCC/C=c1\[nH+]cc(=Cc2[n-]c(=O)[n-]c2[O-])n1Cc1ccc(C(=O)[O-])cc1 (cis-trans isomerization)
CCC/C=c1\[nH+]cc(=Cc2[n-]c(=O)[n-]c2[O-])n1Cc1ccc(C(=O)[O-])cc1 (3D coordinates assigned)
CCC/C=c1\[nH+]cc(=Cc2[n-]c(=O)[n-]c2[O-])n1Cc1ccc(C(=O)[O-])cc1 (optimized conformer: 116.15991170948125 kcal/mol)

>  <smiles>  (8) 
CCCC=c1ncc(=Cc2[nH]c(=O)[nH]c2O)n1Cc1ccc(C(=O)O)cc1

>  <score_type>  (8) 
oracle

>  <origin>  (8) 
adg

>  <m_score__min__energy>  (8) 
-14.44

>  <m_primary>  (8) 
energy

$$$$
8:0
     RDKit          3D

 39 41  0  0  0  0  0  0  0  0999 V2000
   65.0100   34.5560   52.5070 C   0  0  0  0  0  0  0  0  0  0  0  0
   64.4010   34.0840   51.2120 C   0  0  0  0  0  0  0  0  0  0  0  0
   63.0460   34.3520   50.9490 C   0  0  0  0  0  0  0  0  0  0  0  0
   62.4450   33.9260   49.7610 C   0  0  0  0  0  0  0  0  0  0  0  0
   63.2110   33.2280   48.8170 C   0  0  0  0  0  0  0  0  0  0  0  0
   64.5590   32.9550   49.0630 C   0  0  0  0  0  0  0  0  0  0  0  0
   65.1660   33.3710   50.2580 C   0  0  0  0  0  0  0  0  0  0  0  0
   66.6210   33.0630   50.4950 C   0  0  0  0  0  0  0  0  0  0  0  0
   62.4720   32.7310   47.3220 S   0  0  0  0  0  0  0  0  0  0  0  0
   63.0190   33.5530   46.1890 O   0  0  0  0  0  0  0  0  0  0  0  0
   62.7320   31.2700   47.0870 O   0  0  0  0  0  0  0  0  0  0  0  0
   60.7700   33.0030   47.4930 N   0  0  0  0  0  0  0  0  0  0  0  0
   59.8350   32.3600   46.6050 C   0  0  0  0  0  0  0  0  0  0  0  0
   58.9000   33.1230   45.8810 C   0  0  0  0  0  0  0  0  0  0  0  0
   57.9850   32.5020   45.0260 C   0  0  0  0  0  0  0  0  0  0  0  0
   57.9920   31.1090   44.8770 C   0  0  0  0  0  0  0  0  0  0  0  0
   56.8310   30.3240   43.8120 S   0  0  0  0  0  0  0  0  0  0  0  0
   57.4000   28.7420   43.4100 N   0  0  0  0  0  0  0  0  0  0  0  0
   55.4990   30.2180   44.5000 O   0  0  0  0  0  0  0  0  0  0  0  0
   56.6630   31.1350   42.5580 O   0  0  0  0  0  0  0  0  0  0  0  0
   58.9130   30.3420   45.6010 C   0  0  0  0  0  0  0  0  0  0  0  0
   59.8270   30.9610   46.4580 C   0  0  0  0  0  0  0  0  0  0  0  0
   60.2980   33.8470   48.5580 C   0  0  0  0  0  0  0  0  0  0  0  0
   61.0570   34.2320   49.5450 N   0  0  0  0  0  0  0  0  0  0  0  0
   64.4537   34.1249   53.3524 H   0  0  0  0  0  0  0  0  0  0  0  0
   66.0606   34.2339   52.5570 H   0  0  0  0  0  0  0  0  0  0  0  0
   64.9602   35.6537   52.5570 H   0  0  0  0  0  0  0  0  0  0  0  0
   62.4498   34.9054   51.6895 H   0  0  0  0  0  0  0  0  0  0  0  0
   65.1500   32.4089   48.3130 H   0  0  0  0  0  0  0  0  0  0  0  0
   66.8156   33.0218   51.5769 H   0  0  0  0  0  0  0  0  0  0  0  0
   66.8691   32.0924   50.0406 H   0  0  0  0  0  0  0  0  0  0  0  0
   67.2411   33.8498   50.0406 H   0  0  0  0  0  0  0  0  0  0  0  0
   58.8891   34.2176   45.9889 H   0  0  0  0  0  0  0  0  0  0  0  0
   57.2569   33.1092   44.4682 H   0  0  0  0  0  0  0  0  0  0  0  0
   56.5880   28.2180   43.0110 H   0  0  0  0  0  0  0  0  0  0  0  0
   58.0960   28.8540   42.6390 H   0  0  0  0  0  0  0  0  0  0  0  0
   58.9171   29.2472   45.4947 H   0  0  0  0  0  0  0  0  0  0  0  0
   60.5462   30.3492   47.0223 H   0  0  0  0  0  0  0  0  0  0  0  0
   59.2505   34.1821   48.5384 H   0  0  0  0  0  0  0  0  0  0  0  0
  1  2  1  0
  2  3  2  0
  3  4  1  0
  4  5  2  0
  5  6  1  0
  6  7  2  0
  7  8  1  0
  5  9  1  0
  9 10  2  0
  9 11  2  0
  9 12  1  0
 12 13  1  0
 13 14  2  0
 14 15  1  0
 15 16  2  0
 16 17  1  0
 17 18  1  0
 17 19  2  0
 17 20  2  0
 16 21  1  0
 21 22  2  0
 12 23  1  0
 23 24  2  0
  7  2  1  0
 22 13  1  0
 24  4  1  0
  1 25  1  0
  1 26  1  0
  1 27  1  0
  3 28  1  0
  6 29  1  0
  8 30  1  0
  8 31  1  0
  8 32  1  0
 14 33  1  0
 15 34  1  0
 18 35  1  0
 18 36  1  0
 21 37  1  0
 22 38  1  0
 23 39  1  0
M  END
>  <UniqueID>  (9) 
7

>  <SMILES>  (9) 
Cc1cc2c(cc1C)S(=O)(=O)N(c1ccc(S(N)(=O)=O)cc1)C=N2

>  <Energy>  (9) 
50.40881196441717

>  <Genealogy>  (9) 
Cc1cc2c(cc1C)S(=O)(=O)N(c1ccc(S(N)(=O)=O)cc1)C=N2 (3D coordinates assigned)
Cc1cc2c(cc1C)S(=O)(=O)N(c1ccc(S(N)(=O)=O)cc1)C=N2 (nonaromatic ring conformer: 50.40881196441717 kcal/mol)

>  <smiles>  (9) 
Cc1cc2c(cc1C)S(=O)(=O)N(c1ccc(S(N)(=O)=O)cc1)C=N2

>  <score_type>  (9) 
oracle

>  <origin>  (9) 
adg

>  <m_score__min__energy>  (9) 
-9.3800000000000008

>  <m_primary>  (9) 
energy

$$$$
9:0
     RDKit          3D

 73 77  0  0  0  0  0  0  0  0999 V2000
   57.1990   20.8780   42.8910 N   0  0  0  0  0  0  0  0  0  0  0  0
   57.1010   22.1220   43.5870 C   0  0  0  0  0  0  0  0  0  0  0  0
   55.9700   22.9330   43.4210 C   0  0  0  0  0  0  0  0  0  0  0  0
   55.8520   24.1350   44.1250 C   0  0  0  0  0  0  0  0  0  0  0  0
   56.8660   24.5380   45.0060 C   0  0  0  0  0  0  0  0  0  0  0  0
   56.6700   26.0250   45.9320 S   0  0  0  0  0  0  0  0  0  0  0  0
   55.2160   26.4130   45.9770 O   0  0  0  0  0  0  0  0  0  0  0  0
   57.1500   25.7410   47.3320 O   0  0  0  0  0  0  0  0  0  0  0  0
   57.6140   27.3220   45.2150 N   0  0  0  0  0  0  0  0  0  0  0  0
   57.1530   28.6570   45.6570 C   0  0  0  0  0  0  0  0  0  0  0  0
   57.2530   29.6570   44.5340 C   0  0  0  0  0  0  0  0  0  0  0  0
   56.6190   29.3970   43.3080 C   0  0  0  0  0  0  0  0  0  0  0  0
   56.6360   30.3580   42.2920 C   0  0  0  0  0  0  0  0  0  0  0  0
   57.2950   31.5800   42.4890 C   0  0  0  0  0  0  0  0  0  0  0  0
   57.9510   31.8320   43.6970 C   0  0  0  0  0  0  0  0  0  0  0  0
   57.9380   30.8730   44.7150 C   0  0  0  0  0  0  0  0  0  0  0  0
   59.0710   27.1220   45.4050 C   0  0  0  0  0  0  0  0  0  0  0  0
   59.7380   28.1970   46.2480 C   0  0  0  0  0  0  0  0  0  0  0  0
   60.3980   29.2700   45.6210 C   0  0  0  0  0  0  0  0  0  0  0  0
   60.9580   30.2990   46.3790 C   0  0  0  0  0  0  0  0  0  0  0  0
   60.8710   30.2790   47.7780 C   0  0  0  0  0  0  0  0  0  0  0  0
   61.3230   31.4100   48.5520 N   0  0  0  0  0  0  0  0  0  0  0  0
   61.3910   31.3220   50.0190 C   0  0  0  0  0  0  0  0  0  0  0  0
   60.1200   31.8330   50.6450 C   0  0  0  0  0  0  0  0  0  0  0  0
   58.9930   30.9990   50.7630 C   0  0  0  0  0  0  0  0  0  0  0  0
   57.8220   31.4750   51.3630 C   0  0  0  0  0  0  0  0  0  0  0  0
   57.7670   32.7840   51.8520 C   0  0  0  0  0  0  0  0  0  0  0  0
   58.8840   33.6160   51.7440 C   0  0  0  0  0  0  0  0  0  0  0  0
   60.0590   33.1450   51.1460 C   0  0  0  0  0  0  0  0  0  0  0  0
   61.5880   32.6940   47.8830 C   0  0  0  0  0  0  0  0  0  0  0  0
   60.3390   33.2240   47.2320 C   0  0  0  0  0  0  0  0  0  0  0  0
   60.4200   34.0660   46.1100 C   0  0  0  0  0  0  0  0  0  0  0  0
   59.2550   34.5370   45.4940 C   0  0  0  0  0  0  0  0  0  0  0  0
   58.0010   34.1690   45.9910 C   0  0  0  0  0  0  0  0  0  0  0  0
   57.9100   33.3270   47.1030 C   0  0  0  0  0  0  0  0  0  0  0  0
   59.0740   32.8480   47.7160 C   0  0  0  0  0  0  0  0  0  0  0  0
   60.2650   29.1830   48.4110 C   0  0  0  0  0  0  0  0  0  0  0  0
   59.7210   28.1400   47.6570 C   0  0  0  0  0  0  0  0  0  0  0  0
   59.1800   27.0800   48.3080 F   0  0  0  0  0  0  0  0  0  0  0  0
   58.0140   23.7390   45.1530 C   0  0  0  0  0  0  0  0  0  0  0  0
   58.1270   22.5340   44.4500 C   0  0  0  0  0  0  0  0  0  0  0  0
   57.3220   19.9830   43.4140 H   0  0  0  0  0  0  0  0  0  0  0  0
   57.1770   20.8380   41.8500 H   0  0  0  0  0  0  0  0  0  0  0  0
   55.1704   22.6218   42.7326 H   0  0  0  0  0  0  0  0  0  0  0  0
   54.9617   24.7662   43.9876 H   0  0  0  0  0  0  0  0  0  0  0  0
   56.1053   28.5864   45.9847 H   0  0  0  0  0  0  0  0  0  0  0  0
   57.7920   28.9937   46.4866 H   0  0  0  0  0  0  0  0  0  0  0  0
   56.1084   28.4362   43.1467 H   0  0  0  0  0  0  0  0  0  0  0  0
   56.1312   30.1547   41.3360 H   0  0  0  0  0  0  0  0  0  0  0  0
   57.2956   32.3396   41.6934 H   0  0  0  0  0  0  0  0  0  0  0  0
   58.4782   32.7857   43.8473 H   0  0  0  0  0  0  0  0  0  0  0  0
   58.4649   31.0699   45.6603 H   0  0  0  0  0  0  0  0  0  0  0  0
   59.2255   26.1507   45.8976 H   0  0  0  0  0  0  0  0  0  0  0  0
   59.5314   27.1688   44.4071 H   0  0  0  0  0  0  0  0  0  0  0  0
   60.4731   29.2978   44.5239 H   0  0  0  0  0  0  0  0  0  0  0  0
   61.4712   31.1315   45.8754 H   0  0  0  0  0  0  0  0  0  0  0  0
   61.5398   30.2719   50.3108 H   0  0  0  0  0  0  0  0  0  0  0  0
   62.2304   31.9398   50.3707 H   0  0  0  0  0  0  0  0  0  0  0  0
   59.0327   29.9679   50.3818 H   0  0  0  0  0  0  0  0  0  0  0  0
   56.9435   30.8187   51.4502 H   0  0  0  0  0  0  0  0  0  0  0  0
   56.8451   33.1582   52.3212 H   0  0  0  0  0  0  0  0  0  0  0  0
   58.8402   34.6450   52.1302 H   0  0  0  0  0  0  0  0  0  0  0  0
   60.9368   33.8033   51.0680 H   0  0  0  0  0  0  0  0  0  0  0  0
   61.9438   33.4219   48.6271 H   0  0  0  0  0  0  0  0  0  0  0  0
   62.3512   32.5367   47.1067 H   0  0  0  0  0  0  0  0  0  0  0  0
   61.4042   34.3565   45.7138 H   0  0  0  0  0  0  0  0  0  0  0  0
   59.3260   35.1978   44.6174 H   0  0  0  0  0  0  0  0  0  0  0  0
   57.0863   34.5420   45.5070 H   0  0  0  0  0  0  0  0  0  0  0  0
   56.9235   33.0406   47.4966 H   0  0  0  0  0  0  0  0  0  0  0  0
   58.9982   32.1734   48.5815 H   0  0  0  0  0  0  0  0  0  0  0  0
   60.2179   29.1447   49.5093 H   0  0  0  0  0  0  0  0  0  0  0  0
   58.8251   24.0619   45.8222 H   0  0  0  0  0  0  0  0  0  0  0  0
   59.0231   21.9083   44.5747 H   0  0  0  0  0  0  0  0  0  0  0  0
  1  2  1  0
  2  3  2  0
  3  4  1  0
  4  5  2  0
  5  6  1  0
  6  7  2  0
  6  8  2  0
  6  9  1  0
  9 10  1  0
 10 11  1  0
 11 12  2  0
 12 13  1  0
 13 14  2  0
 14 15  1  0
 15 16  2  0
  9 17  1  0
 17 18  1  0
 18 19  2  0
 19 20  1  0
 20 21  2  0
 21 22  1  0
 22 23  1  0
 23 24  1  0
 24 25  2  0
 25 26  1  0
 26 27  2  0
 27 28  1  0
 28 29  2  0
 22 30  1  0
 30 31  1  0
 31 32  2  0
 32 33  1  0
 33 34  2  0
 34 35  1  0
 35 36  2  0
 21 37  1  0
 37 38  2  0
 38 39  1  0
  5 40  1  0
 40 41  2  0
 41  2  1  0
 16 11  1  0
 38 18  1  0
 29 24  1  0
 36 31  1  0
  1 42  1  0
  1 43  1  0
  3 44  1  0
  4 45  1  0
 10 46  1  0
 10 47  1  0
 12 48  1  0
 13 49  1  0
 14 50  1  0
 15 51  1  0
 16 52  1  0
 17 53  1  0
 17 54  1  0
 19 55  1  0
 20 56  1  0
 23 57  1  0
 23 58  1  0
 25 59  1  0
 26 60  1  0
 27 61  1  0
 28 62  1  0
 29 63  1  0
 30 64  1  0
 30 65  1  0
 32 66  1  0
 33 67  1  0
 34 68  1  0
 35 69  1  0
 36 70  1  0
 37 71  1  0
 40 72  1  0
 41 73  1  0
M  END
>  <UniqueID>  (10) 
8

>  <SMILES>  (10) 
Nc1ccc(S(=O)(=O)N(Cc2ccccc2)Cc2ccc(N(Cc3ccccc3)Cc3ccccc3)cc2F)cc1

>  <Energy>  (10) 
79.41633027993437

>  <Genealogy>  (10) 
Nc1ccc(S(=O)(=O)N(Cc2ccccc2)Cc2ccc(N(Cc3ccccc3)Cc3ccccc3)cc2F)cc1 (3D coordinates assigned)
Nc1ccc(S(=O)(=O)N(Cc2ccccc2)Cc2ccc(N(Cc3ccccc3)Cc3ccccc3)cc2F)cc1 (optimized conformer: 79.41633027993437 kcal/mol)

>  <smiles>  (10) 
Nc1ccc(S(=O)(=O)N(Cc2ccccc2)Cc2ccc(N(Cc3ccccc3)Cc3ccccc3)cc2F)cc1

>  <score_type>  (10) 
oracle

>  <origin>  (10) 
adg

>  <m_score__min__energy>  (10) 
-11.720000000000001

>  <m_primary>  (10) 
energy

$$$$
10:0
     RDKit          3D

 23 24  0  0  0  0  0  0  0  0999 V2000
   52.8904   31.7559   53.2637 H   0  0  0  0  0  0  0  0  0  0  0  0
   53.1530   31.2110   52.3450 C   0  0  0  0  0  0  0  0  0  0  0  0
   54.2900   30.5070   52.3320 C   0  0  0  0  0  0  0  0  0  0  0  0
   54.2599   29.4311   52.5592 H   0  0  0  0  0  0  0  0  0  0  0  0
   55.6100   31.1560   52.0130 C   0  0  0  0  0  0  0  0  0  0  0  0
   55.5999   31.4824   50.9626 H   0  0  0  0  0  0  0  0  0  0  0  0
   55.7413   32.0088   52.6952 H   0  0  0  0  0  0  0  0  0  0  0  0
   56.7910   30.1980   52.2220 C   0  0  0  0  0  0  0  0  0  0  0  0
   57.2430   30.3963   53.2050 H   0  0  0  0  0  0  0  0  0  0  0  0
   56.4137   29.1662   52.1668 H   0  0  0  0  0  0  0  0  0  0  0  0
   57.8340   30.3760   51.1610 C   0  0  0  0  0  0  0  0  0  0  0  0
   58.1360   31.5640   50.6050 N   0  0  0  0  0  0  0  0  0  0  0  0
   59.0440   31.3250   49.6740 N   0  0  0  0  0  0  0  0  0  0  0  0
   59.2590   29.9980   49.6900 C   0  0  0  0  0  0  0  0  0  0  0  0
   60.3040   29.2440   48.6880 S   0  0  0  0  0  0  0  0  0  0  0  0
   58.5130   29.3520   50.6060 N   0  0  0  0  0  0  0  0  0  0  0  0
   52.2300   31.2980   51.1950 C   0  0  0  0  0  0  0  0  0  0  0  0
   52.2260   30.3900   50.2030 N   0  0  0  0  0  0  0  0  0  0  0  0
   51.2760   30.8440   49.3590 C   0  0  0  0  0  0  0  0  0  0  0  0
   50.9730   30.2450   48.2940 O   0  0  0  0  0  0  0  0  0  0  0  0
   50.6790   31.9910   49.7420 N   0  0  0  0  0  0  0  0  0  0  0  0
   51.2950   32.2740   50.9020 C   0  0  0  0  0  0  0  0  0  0  0  0
   51.0220   33.4120   51.6500 O   0  0  0  0  0  0  0  0  0  0  0  0
  1  2  1  0
  2  3  2  0
  3  4  1  0
  3  5  1  0
  5  6  1  0
  5  7  1  0
  5  8  1  0
  8  9  1  0
  8 10  1  0
  8 11  1  0
 11 12  2  0
 12 13  1  0
 13 14  1  0
 14 15  2  0
 14 16  1  0
  2 17  1  0
 17 18  1  0
 18 19  1  0
 19 20  2  0
 19 21  1  0
 21 22  1  0
 22 23  1  0
 16 11  1  0
 22 17  2  0
M  CHG  5  13  -1  16  -1  18  -1  21  -1  23  -1
M  END
>  <UniqueID>  (11) 
9

>  <SMILES>  (11) 
O=c1[n-]c([O-])c(/C=C/CCc2n[n-]c(=S)[n-]2)[n-]1

>  <Energy>  (11) 
80.67831128186603

>  <Genealogy>  (11) 
O=c1[n-]c([O-])c(C=CCCc2n[n-]c(=S)[n-]2)[n-]1 (protonated)
O=c1[n-]c([O-])c(/C=C/CCc2n[n-]c(=S)[n-]2)[n-]1 (cis-trans isomerization)
O=c1[n-]c([O-])c(/C=C/CCc2n[n-]c(=S)[n-]2)[n-]1 (3D coordinates assigned)
O=c1[n-]c([O-])c(/C=C/CCc2n[n-]c(=S)[n-]2)[n-]1 (optimized conformer: 80.67831128186603 kcal/mol)

>  <smiles>  (11) 
O=c1[nH]c(O)c(C=CCCc2n[nH]c(=S)[nH]2)[nH]1

>  <score_type>  (11) 
oracle

>  <origin>  (11) 
adg

>  <m_score__min__energy>  (11) 
-16.890000000000001

>  <m_primary>  (11) 
energy

$$$$
11:0
     RDKit          3D

 50 53  0  0  0  0  0  0  0  0999 V2000
   58.2560   34.3570   52.6170 C   0  0  0  0  0  0  0  0  0  0  0  0
   58.1490   33.0190   51.9550 C   0  0  0  0  0  0  0  0  0  0  0  0
   57.2840   32.0780   52.4210 N   0  0  0  0  0  0  0  0  0  0  0  0
   57.3420   30.9400   51.6930 C   0  0  0  0  0  0  0  0  0  0  0  0
   56.5950   29.8990   51.9060 N   0  0  0  0  0  0  0  0  0  0  0  0
   55.1910   29.9290   52.2110 C   0  0  0  0  0  0  0  0  0  0  0  0
   54.3880   30.8970   51.5950 C   0  0  0  0  0  0  0  0  0  0  0  0
   53.0140   30.9450   51.8510 C   0  0  0  0  0  0  0  0  0  0  0  0
   52.4290   30.0100   52.7090 C   0  0  0  0  0  0  0  0  0  0  0  0
   53.2150   29.0190   53.3010 C   0  0  0  0  0  0  0  0  0  0  0  0
   54.5920   28.9660   53.0490 C   0  0  0  0  0  0  0  0  0  0  0  0
   55.3190   27.9500   53.5780 F   0  0  0  0  0  0  0  0  0  0  0  0
   58.4420   31.0510   50.4340 S   0  0  0  0  0  0  0  0  0  0  0  0
   58.8950   32.6260   50.8330 C   0  0  0  0  0  0  0  0  0  0  0  0
   59.9050   33.4060   50.0950 C   0  0  0  0  0  0  0  0  0  0  0  0
   61.0410   33.6160   50.5990 O   0  0  0  0  0  0  0  0  0  0  0  0
   59.5640   33.9680   48.8200 N   0  0  0  0  0  0  0  0  0  0  0  0
   58.9920   33.2700   47.7050 C   0  0  0  0  0  0  0  0  0  0  0  0
   58.1400   33.9680   46.8400 C   0  0  0  0  0  0  0  0  0  0  0  0
   57.5490   33.3210   45.7510 C   0  0  0  0  0  0  0  0  0  0  0  0
   57.7970   31.9620   45.5250 C   0  0  0  0  0  0  0  0  0  0  0  0
   57.0460   31.1340   44.1230 S   0  0  0  0  0  0  0  0  0  0  0  0
   57.6730   29.5290   44.6200 C   0  0  0  0  0  0  0  0  0  0  0  0
   59.0150   29.2050   44.3980 C   0  0  0  0  0  0  0  0  0  0  0  0
   59.5000   27.9490   44.7640 C   0  0  0  0  0  0  0  0  0  0  0  0
   58.6480   27.0140   45.3610 C   0  0  0  0  0  0  0  0  0  0  0  0
   57.2990   27.3310   45.6060 C   0  0  0  0  0  0  0  0  0  0  0  0
   56.4050   26.3270   46.2340 C   0  0  0  0  0  0  0  0  0  0  0  0
   56.9200   25.2840   47.0670 N   0  0  0  0  0  0  0  0  0  0  0  0
   55.1640   26.3790   46.0220 O   0  0  0  0  0  0  0  0  0  0  0  0
   56.8180   28.5980   45.2230 C   0  0  0  0  0  0  0  0  0  0  0  0
   58.6220   31.2500   46.4010 C   0  0  0  0  0  0  0  0  0  0  0  0
   59.2150   31.8960   47.4890 C   0  0  0  0  0  0  0  0  0  0  0  0
   58.2456   34.2275   53.7093 H   0  0  0  0  0  0  0  0  0  0  0  0
   59.1958   34.8418   52.3141 H   0  0  0  0  0  0  0  0  0  0  0  0
   57.4052   34.9850   52.3141 H   0  0  0  0  0  0  0  0  0  0  0  0
   54.8410   31.6244   50.9053 H   0  0  0  0  0  0  0  0  0  0  0  0
   52.3933   31.7194   51.3766 H   0  0  0  0  0  0  0  0  0  0  0  0
   51.3500   30.0545   52.9180 H   0  0  0  0  0  0  0  0  0  0  0  0
   52.7511   28.2772   53.9677 H   0  0  0  0  0  0  0  0  0  0  0  0
   57.9343   35.0337   47.0190 H   0  0  0  0  0  0  0  0  0  0  0  0
   56.8889   33.8799   45.0714 H   0  0  0  0  0  0  0  0  0  0  0  0
   59.6887   29.9407   43.9345 H   0  0  0  0  0  0  0  0  0  0  0  0
   60.5545   27.6936   44.5827 H   0  0  0  0  0  0  0  0  0  0  0  0
   59.0354   26.0233   45.6411 H   0  0  0  0  0  0  0  0  0  0  0  0
   57.9430   25.0990   47.1480 H   0  0  0  0  0  0  0  0  0  0  0  0
   56.2620   24.6270   47.5420 H   0  0  0  0  0  0  0  0  0  0  0  0
   55.7637   28.8581   45.3986 H   0  0  0  0  0  0  0  0  0  0  0  0
   58.8048   30.1783   46.2333 H   0  0  0  0  0  0  0  0  0  0  0  0
   59.8580   31.3298   48.1789 H   0  0  0  0  0  0  0  0  0  0  0  0
  1  2  1  0
  2  3  1  0
  3  4  1  0
  4  5  2  3
  5  6  1  0
  6  7  2  0
  7  8  1  0
  8  9  2  0
  9 10  1  0
 10 11  2  0
 11 12  1  0
  4 13  1  0
 13 14  1  0
 14 15  1  0
 15 16  2  0
 15 17  1  0
 17 18  1  0
 18 19  2  0
 19 20  1  0
 20 21  2  0
 21 22  1  0
 22 23  1  0
 23 24  2  0
 24 25  1  0
 25 26  2  0
 26 27  1  0
 27 28  1  0
 28 29  1  0
 28 30  2  0
 27 31  2  0
 21 32  1  0
 32 33  2  0
 14  2  2  0
 33 18  1  0
 11  6  1  0
 31 23  1  0
  1 34  1  0
  1 35  1  0
  1 36  1  0
  7 37  1  0
  8 38  1  0
  9 39  1  0
 10 40  1  0
 19 41  1  0
 20 42  1  0
 24 43  1  0
 25 44  1  0
 26 45  1  0
 29 46  1  0
 29 47  1  0
 31 48  1  0
 32 49  1  0
 33 50  1  0
M  CHG  2   3  -1  17  -1
M  END
>  <UniqueID>  (12) 
10

>  <SMILES>  (12) 
Cc1[n-]c(=Nc2ccccc2F)sc1C(=O)[N-]c1ccc(Sc2cccc(C(N)=O)c2)cc1

>  <Energy>  (12) 
91.14743798148719

>  <Genealogy>  (12) 
Cc1[n-]c(=Nc2ccccc2F)sc1C(=O)[N-]c1ccc(Sc2cccc(C(N)=O)c2)cc1 (protonated)
Cc1[n-]c(=Nc2ccccc2F)sc1C(=O)[N-]c1ccc(Sc2cccc(C(N)=O)c2)cc1 (3D coordinates assigned)
Cc1[n-]c(=Nc2ccccc2F)sc1C(=O)[N-]c1ccc(Sc2cccc(C(N)=O)c2)cc1 (optimized conformer: 91.14743798148719 kcal/mol)

>  <smiles>  (12) 
Cc1[nH]c(=Nc2ccccc2F)sc1C(=O)Nc1ccc(Sc2cccc(C(N)=O)c2)cc1

>  <score_type>  (12) 
oracle

>  <origin>  (12) 
adg

>  <m_score__min__energy>  (12) 
-12.81

>  <m_primary>  (12) 
energy

$$$$
12:0
     RDKit          3D

 52 55  0  0  0  0  0  0  0  0999 V2000
   59.1232   32.1851   49.1883 H   0  0  0  0  0  0  0  0  0  0  0  0
   59.1930   31.1760   48.7560 C   0  0  0  0  0  0  0  0  0  0  0  0
   59.6050   30.0930   49.5380 C   0  0  0  0  0  0  0  0  0  0  0  0
   59.9710   30.2920   50.9750 C   0  0  0  0  0  0  0  0  0  0  0  0
   59.1856   29.8650   51.6159 H   0  0  0  0  0  0  0  0  0  0  0  0
   60.9273   29.7896   51.1828 H   0  0  0  0  0  0  0  0  0  0  0  0
   60.0692   31.3677   51.1828 H   0  0  0  0  0  0  0  0  0  0  0  0
   59.6790   28.8530   48.9860 N   0  0  0  0  0  0  0  0  0  0  0  0
   59.3550   28.6400   47.6840 C   0  0  0  0  0  0  0  0  0  0  0  0
   59.4680   27.4420   47.1890 N   0  0  0  0  0  0  0  0  0  0  0  0
   58.4360   26.6830   46.5350 C   0  0  0  0  0  0  0  0  0  0  0  0
   58.7860   25.4900   45.8910 C   0  0  0  0  0  0  0  0  0  0  0  0
   59.8347   25.1581   45.8889 H   0  0  0  0  0  0  0  0  0  0  0  0
   57.8130   24.7180   45.2510 C   0  0  0  0  0  0  0  0  0  0  0  0
   58.1002   23.7849   44.7442 H   0  0  0  0  0  0  0  0  0  0  0  0
   56.4710   25.1280   45.2520 C   0  0  0  0  0  0  0  0  0  0  0  0
   55.4570   24.3270   44.6330 N   0  0  0  0  0  0  0  0  0  0  0  0
   55.6140   22.9610   44.2200 C   0  0  0  0  0  0  0  0  0  0  0  0
   55.5080   22.6800   42.9970 O   0  0  0  0  0  0  0  0  0  0  0  0
   56.0410   21.8880   45.1830 C   0  0  0  0  0  0  0  0  0  0  0  0
   55.7882   20.9016   44.7670 H   0  0  0  0  0  0  0  0  0  0  0  0
   57.1272   21.9536   45.3435 H   0  0  0  0  0  0  0  0  0  0  0  0
   55.3310   22.0740   46.4960 C   0  0  0  0  0  0  0  0  0  0  0  0
   53.9250   22.0600   46.5560 C   0  0  0  0  0  0  0  0  0  0  0  0
   53.3401   21.8683   45.6443 H   0  0  0  0  0  0  0  0  0  0  0  0
   53.2670   22.2890   47.7710 C   0  0  0  0  0  0  0  0  0  0  0  0
   52.1681   22.2670   47.8143 H   0  0  0  0  0  0  0  0  0  0  0  0
   54.0090   22.5460   48.9310 C   0  0  0  0  0  0  0  0  0  0  0  0
   53.3550   22.7800   50.1380 O   0  0  0  0  0  0  0  0  0  0  0  0
   55.4090   22.5680   48.8780 C   0  0  0  0  0  0  0  0  0  0  0  0
   55.9903   22.7646   49.7909 H   0  0  0  0  0  0  0  0  0  0  0  0
   56.0690   22.3400   47.6640 C   0  0  0  0  0  0  0  0  0  0  0  0
   57.1679   22.3690   47.6235 H   0  0  0  0  0  0  0  0  0  0  0  0
   56.1060   26.2890   45.9470 C   0  0  0  0  0  0  0  0  0  0  0  0
   54.7730   26.6810   46.0030 O   0  0  0  0  0  0  0  0  0  0  0  0
   57.0810   27.0640   46.5850 C   0  0  0  0  0  0  0  0  0  0  0  0
   56.7879   27.9747   47.1279 H   0  0  0  0  0  0  0  0  0  0  0  0
   58.9660   29.6890   46.9100 N   0  0  0  0  0  0  0  0  0  0  0  0
   58.8700   30.9510   47.4080 C   0  0  0  0  0  0  0  0  0  0  0  0
   58.4410   32.0240   46.5470 N   0  0  0  0  0  0  0  0  0  0  0  0
   57.8850   31.8430   45.2160 C   0  0  0  0  0  0  0  0  0  0  0  0
   58.6419   31.4214   44.5383 H   0  0  0  0  0  0  0  0  0  0  0  0
   57.0339   31.1462   45.2229 H   0  0  0  0  0  0  0  0  0  0  0  0
   57.4700   33.2330   44.7500 C   0  0  0  0  0  0  0  0  0  0  0  0
   57.7796   33.3954   43.7070 H   0  0  0  0  0  0  0  0  0  0  0  0
   56.3784   33.3631   44.7886 H   0  0  0  0  0  0  0  0  0  0  0  0
   58.1840   34.2130   45.6740 C   0  0  0  0  0  0  0  0  0  0  0  0
   59.0977   34.5947   45.1950 H   0  0  0  0  0  0  0  0  0  0  0  0
   57.5525   35.0830   45.9069 H   0  0  0  0  0  0  0  0  0  0  0  0
   58.5330   33.4230   46.9270 C   0  0  0  0  0  0  0  0  0  0  0  0
   59.5532   33.6637   47.2606 H   0  0  0  0  0  0  0  0  0  0  0  0
   57.8563   33.6630   47.7603 H   0  0  0  0  0  0  0  0  0  0  0  0
  1  2  1  0
  2  3  1  0
  3  4  1  0
  4  5  1  0
  4  6  1  0
  4  7  1  0
  3  8  2  0
  8  9  1  0
  9 10  2  0
 10 11  1  0
 11 12  2  0
 12 13  1  0
 12 14  1  0
 14 15  1  0
 14 16  2  0
 16 17  1  0
 17 18  1  0
 18 19  2  0
 18 20  1  0
 20 21  1  0
 20 22  1  0
 20 23  1  0
 23 24  2  0
 24 25  1  0
 24 26  1  0
 26 27  1  0
 26 28  2  0
 28 29  1  0
 28 30  1  0
 30 31  1  0
 30 32  2  0
 32 33  1  0
 16 34  1  0
 34 35  1  0
 34 36  2  0
 36 37  1  0
  9 38  1  0
 38 39  1  0
 39 40  1  0
 40 41  1  0
 41 42  1  0
 41 43  1  0
 41 44  1  0
 44 45  1  0
 44 46  1  0
 44 47  1  0
 47 48  1  0
 47 49  1  0
 47 50  1  0
 50 51  1  0
 50 52  1  0
 39  2  2  0
 50 40  1  0
 36 11  1  0
 32 23  1  0
M  CHG  4  17  -1  29  -1  35  -1  38  -1
M  END
>  <UniqueID>  (13) 
11

>  <SMILES>  (13) 
Cc1cc(N2CCCC2)[n-]/c(=N\c2ccc([N-]C(=O)Cc3ccc([O-])cc3)c([O-])c2)n1

>  <Energy>  (13) 
64.02962455489825

>  <Genealogy>  (13) 
Cc1cc(N2CCCC2)[n-]c(=Nc2ccc([N-]C(=O)Cc3ccc([O-])cc3)c([O-])c2)n1 (protonated)
Cc1cc(N2CCCC2)[n-]/c(=N\c2ccc([N-]C(=O)Cc3ccc([O-])cc3)c([O-])c2)n1 (cis-trans isomerization)
Cc1cc(N2CCCC2)[n-]/c(=N\c2ccc([N-]C(=O)Cc3ccc([O-])cc3)c([O-])c2)n1 (3D coordinates assigned)
Cc1cc(N2CCCC2)[n-]/c(=N\c2ccc([N-]C(=O)Cc3ccc([O-])cc3)c([O-])c2)n1 (nonaromatic ring conformer: 64.02962455489825 kcal/mol)

>  <smiles>  (13) 
Cc1cc(N2CCCC2)[nH]c(=Nc2ccc(NC(=O)Cc3ccc(O)cc3)c(O)c2)n1

>  <score_type>  (13) 
oracle

>  <origin>  (13) 
adg

>  <m_score__min__energy>  (13) 
-16.670000000000002

>  <m_primary>  (13) 
energy

$$$$
13:0
     RDKit          3D

 46 47  0  0  0  0  0  0  0  0999 V2000
   60.7610   28.6010   45.1000 C   0  0  0  0  0  0  0  0  0  0  0  0
   60.4130   27.2820   45.7800 C   0  0  0  0  0  0  0  0  0  0  0  0
   58.9160   27.1020   45.8670 C   0  0  0  0  0  0  0  0  0  0  0  0
   58.0710   28.1250   45.4250 C   0  0  0  0  0  0  0  0  0  0  0  0
   56.6820   27.9710   45.4920 C   0  0  0  0  0  0  0  0  0  0  0  0
   55.7830   28.9990   45.0500 N   0  0  0  0  0  0  0  0  0  0  0  0
   56.0650   30.0360   44.1020 C   0  0  0  0  0  0  0  0  0  0  0  0
   55.4250   30.0940   43.0180 O   0  0  0  0  0  0  0  0  0  0  0  0
   57.1450   31.0140   44.3550 C   0  0  0  0  0  0  0  0  0  0  0  0
   57.7560   31.2110   45.5790 C   0  0  0  0  0  0  0  0  0  0  0  0
   58.6830   32.2090   45.3420 C   0  0  0  0  0  0  0  0  0  0  0  0
   59.5950   32.8250   46.3640 C   0  0  0  0  0  0  0  0  0  0  0  0
   59.1780   34.2540   46.7750 C   0  0  0  0  0  0  0  0  0  0  0  0
   59.6430   35.3070   45.7610 C   0  0  0  0  0  0  0  0  0  0  0  0
   59.6570   34.6110   48.1900 C   0  0  0  0  0  0  0  0  0  0  0  0
   58.6300   32.5910   44.0520 N   0  0  0  0  0  0  0  0  0  0  0  0
   57.6990   31.8630   43.4560 N   0  0  0  0  0  0  0  0  0  0  0  0
   57.3670   32.0120   42.0430 C   0  0  0  0  0  0  0  0  0  0  0  0
   56.1550   26.7570   45.9460 C   0  0  0  0  0  0  0  0  0  0  0  0
   54.7710   26.6060   46.0040 O   0  0  0  0  0  0  0  0  0  0  0  0
   56.9820   25.7340   46.3370 N   0  0  0  0  0  0  0  0  0  0  0  0
   56.3930   24.4820   46.8390 C   0  0  0  0  0  0  0  0  0  0  0  0
   58.3460   25.9000   46.3270 C   0  0  0  0  0  0  0  0  0  0  0  0
   59.1030   24.9700   46.7270 O   0  0  0  0  0  0  0  0  0  0  0  0
   60.9627   29.3657   45.8646 H   0  0  0  0  0  0  0  0  0  0  0  0
   61.6541   28.4655   44.4723 H   0  0  0  0  0  0  0  0  0  0  0  0
   59.9173   28.9237   44.4723 H   0  0  0  0  0  0  0  0  0  0  0  0
   60.8428   26.4525   45.1993 H   0  0  0  0  0  0  0  0  0  0  0  0
   60.8269   27.2908   46.7991 H   0  0  0  0  0  0  0  0  0  0  0  0
   58.5002   29.0546   45.0230 H   0  0  0  0  0  0  0  0  0  0  0  0
   57.5512   30.6916   46.5268 H   0  0  0  0  0  0  0  0  0  0  0  0
   59.5929   32.1892   47.2617 H   0  0  0  0  0  0  0  0  0  0  0  0
   60.5934   32.8963   45.9078 H   0  0  0  0  0  0  0  0  0  0  0  0
   58.0781   34.2621   46.7823 H   0  0  0  0  0  0  0  0  0  0  0  0
   60.0311   36.1858   46.2968 H   0  0  0  0  0  0  0  0  0  0  0  0
   60.4373   34.8823   45.1295 H   0  0  0  0  0  0  0  0  0  0  0  0
   58.7941   35.6080   45.1295 H   0  0  0  0  0  0  0  0  0  0  0  0
   59.0053   34.1253   48.9312 H   0  0  0  0  0  0  0  0  0  0  0  0
   60.6911   34.2616   48.3261 H   0  0  0  0  0  0  0  0  0  0  0  0
   59.6177   35.7018   48.3261 H   0  0  0  0  0  0  0  0  0  0  0  0
   56.3673   32.4607   41.9466 H   0  0  0  0  0  0  0  0  0  0  0  0
   58.1095   32.6632   41.5586 H   0  0  0  0  0  0  0  0  0  0  0  0
   57.3740   31.0244   41.5586 H   0  0  0  0  0  0  0  0  0  0  0  0
   56.3968   24.4902   47.9390 H   0  0  0  0  0  0  0  0  0  0  0  0
   55.3583   24.3924   46.4766 H   0  0  0  0  0  0  0  0  0  0  0  0
   56.9837   23.6277   46.4766 H   0  0  0  0  0  0  0  0  0  0  0  0
  1  2  1  0
  2  3  1  0
  3  4  2  0
  4  5  1  0
  5  6  1  0
  6  7  1  0
  7  8  2  0
  7  9  1  0
  9 10  2  0
 10 11  1  0
 11 12  1  0
 12 13  1  0
 13 14  1  0
 13 15  1  0
 11 16  2  0
 16 17  1  0
 17 18  1  0
  5 19  2  0
 19 20  1  0
 19 21  1  0
 21 22  1  0
 21 23  1  0
 23 24  2  0
 23  3  1  0
 17  9  1  0
  1 25  1  0
  1 26  1  0
  1 27  1  0
  2 28  1  0
  2 29  1  0
  4 30  1  0
 10 31  1  0
 12 32  1  0
 12 33  1  0
 13 34  1  0
 14 35  1  0
 14 36  1  0
 14 37  1  0
 15 38  1  0
 15 39  1  0
 15 40  1  0
 18 41  1  0
 18 42  1  0
 18 43  1  0
 22 44  1  0
 22 45  1  0
 22 46  1  0
M  CHG  2   6  -1  20  -1
M  END
>  <UniqueID>  (14) 
12

>  <SMILES>  (14) 
CCc1cc([N-]C(=O)c2cc(CC(C)C)nn2C)c([O-])n(C)c1=O

>  <Energy>  (14) 
74.05299291263212

>  <Genealogy>  (14) 
CCc1cc([N-]C(=O)c2cc(CC(C)C)nn2C)c([O-])n(C)c1=O (protonated)
CCc1cc([N-]C(=O)c2cc(CC(C)C)nn2C)c([O-])n(C)c1=O (3D coordinates assigned)
CCc1cc([N-]C(=O)c2cc(CC(C)C)nn2C)c([O-])n(C)c1=O (optimized conformer: 74.05299291263212 kcal/mol)

>  <smiles>  (14) 
CCc1cc(NC(=O)c2cc(CC(C)C)nn2C)c(O)n(C)c1=O

>  <score_type>  (14) 
oracle

>  <origin>  (14) 
adg

>  <m_score__min__energy>  (14) 
-13.960000000000001

>  <m_primary>  (14) 
energy

$$$$
14:0
     RDKit          3D

 58 60  0  0  0  0  0  0  0  0999 V2000
   56.9150   26.3720   45.9880 C   0  0  0  0  0  0  0  0  0  0  0  0
   57.3770   27.3070   44.8760 C   0  0  0  0  0  0  0  0  0  0  0  0
   57.2840   28.7130   45.3020 N   0  0  0  0  0  0  0  0  0  0  0  0
   56.2240   29.5600   44.7240 C   0  0  0  0  0  0  0  0  0  0  0  0
   56.7960   30.6770   43.8990 C   0  0  0  0  0  0  0  0  0  0  0  0
   56.8130   30.7220   42.5160 C   0  0  0  0  0  0  0  0  0  0  0  0
   57.3930   31.8670   42.1110 N   0  0  0  0  0  0  0  0  0  0  0  0
   57.5210   32.3200   40.7320 C   0  0  0  0  0  0  0  0  0  0  0  0
   57.7300   32.5700   43.2100 C   0  0  0  0  0  0  0  0  0  0  0  0
   57.3750   31.8610   44.3420 C   0  0  0  0  0  0  0  0  0  0  0  0
   57.5940   32.3100   45.7600 C   0  0  0  0  0  0  0  0  0  0  0  0
   57.2210   33.7800   45.9630 C   0  0  0  0  0  0  0  0  0  0  0  0
   58.1660   34.4370   46.8720 N   0  0  0  0  0  0  0  0  0  0  0  0
   59.6970   34.6580   46.0770 S   0  0  0  0  0  0  0  0  0  0  0  0
   59.6140   34.1720   44.6550 O   0  0  0  0  0  0  0  0  0  0  0  0
   60.0220   36.1240   46.0520 O   0  0  0  0  0  0  0  0  0  0  0  0
   60.9760   33.7830   46.9190 C   0  0  0  0  0  0  0  0  0  0  0  0
   60.6760   33.0260   48.0590 C   0  0  0  0  0  0  0  0  0  0  0  0
   61.6870   32.3290   48.7270 C   0  0  0  0  0  0  0  0  0  0  0  0
   63.0070   32.3660   48.2600 C   0  0  0  0  0  0  0  0  0  0  0  0
   63.9800   31.6340   48.9600 O   0  0  0  0  0  0  0  0  0  0  0  0
   64.8870   32.1780   49.9170 C   0  0  0  0  0  0  0  0  0  0  0  0
   65.3740   33.3960   49.4760 F   0  0  0  0  0  0  0  0  0  0  0  0
   64.2170   32.3740   51.1090 F   0  0  0  0  0  0  0  0  0  0  0  0
   65.9340   31.3010   50.1330 F   0  0  0  0  0  0  0  0  0  0  0  0
   63.3060   33.1290   47.1140 C   0  0  0  0  0  0  0  0  0  0  0  0
   62.2950   33.8350   46.4540 C   0  0  0  0  0  0  0  0  0  0  0  0
   58.3460   29.2660   46.1240 C   0  0  0  0  0  0  0  0  0  0  0  0
   58.1690   29.3840   47.3680 O   0  0  0  0  0  0  0  0  0  0  0  0
   59.6220   29.8120   45.5410 C   0  0  0  0  0  0  0  0  0  0  0  0
   60.7300   28.8040   45.2680 C   0  0  0  0  0  0  0  0  0  0  0  0
   60.8230   29.7140   46.4760 C   0  0  0  0  0  0  0  0  0  0  0  0
   57.1390   26.8253   46.9649 H   0  0  0  0  0  0  0  0  0  0  0  0
   55.8311   26.2059   45.9007 H   0  0  0  0  0  0  0  0  0  0  0  0
   57.4415   25.4102   45.9007 H   0  0  0  0  0  0  0  0  0  0  0  0
   58.4219   27.0758   44.6215 H   0  0  0  0  0  0  0  0  0  0  0  0
   56.7278   27.1606   44.0002 H   0  0  0  0  0  0  0  0  0  0  0  0
   55.5793   28.9385   44.0851 H   0  0  0  0  0  0  0  0  0  0  0  0
   55.6490   30.0029   45.5506 H   0  0  0  0  0  0  0  0  0  0  0  0
   56.4141   29.9423   41.8504 H   0  0  0  0  0  0  0  0  0  0  0  0
   57.8201   33.3785   40.7200 H   0  0  0  0  0  0  0  0  0  0  0  0
   58.2841   31.7175   40.2175 H   0  0  0  0  0  0  0  0  0  0  0  0
   56.5555   32.2060   40.2175 H   0  0  0  0  0  0  0  0  0  0  0  0
   58.2140   33.5578   43.2067 H   0  0  0  0  0  0  0  0  0  0  0  0
   56.9754   31.6918   46.4272 H   0  0  0  0  0  0  0  0  0  0  0  0
   58.6639   32.1975   45.9892 H   0  0  0  0  0  0  0  0  0  0  0  0
   57.2393   34.2942   44.9907 H   0  0  0  0  0  0  0  0  0  0  0  0
   56.2147   33.8304   46.4043 H   0  0  0  0  0  0  0  0  0  0  0  0
   58.3310   33.8040   47.6890 H   0  0  0  0  0  0  0  0  0  0  0  0
   59.6414   32.9799   48.4297 H   0  0  0  0  0  0  0  0  0  0  0  0
   61.4437   31.7462   49.6276 H   0  0  0  0  0  0  0  0  0  0  0  0
   64.3385   33.1696   46.7369 H   0  0  0  0  0  0  0  0  0  0  0  0
   62.5380   34.4346   45.5643 H   0  0  0  0  0  0  0  0  0  0  0  0
   59.1384   30.6009   44.9462 H   0  0  0  0  0  0  0  0  0  0  0  0
   60.5402   27.7290   45.4035 H   0  0  0  0  0  0  0  0  0  0  0  0
   61.3834   28.5818   44.4115 H   0  0  0  0  0  0  0  0  0  0  0  0
   60.6999   29.2993   47.4874 H   0  0  0  0  0  0  0  0  0  0  0  0
   61.5707   30.4247   46.8580 H   0  0  0  0  0  0  0  0  0  0  0  0
  1  2  1  0
  2  3  1  0
  3  4  1  0
  4  5  1  0
  5  6  2  0
  6  7  1  0
  7  8  1  0
  7  9  1  0
  9 10  2  0
 10 11  1  0
 11 12  1  0
 12 13  1  0
 13 14  1  0
 14 15  2  0
 14 16  2  0
 14 17  1  0
 17 18  2  0
 18 19  1  0
 19 20  2  0
 20 21  1  0
 21 22  1  0
 22 23  1  0
 22 24  1  0
 22 25  1  0
 20 26  1  0
 26 27  2  0
  3 28  1  0
 28 29  2  0
 28 30  1  0
 30 31  1  0
 31 32  1  0
 10  5  1  0
 27 17  1  0
 32 30  1  0
  1 33  1  0
  1 34  1  0
  1 35  1  0
  2 36  1  0
  2 37  1  0
  4 38  1  0
  4 39  1  0
  6 40  1  0
  8 41  1  0
  8 42  1  0
  8 43  1  0
  9 44  1  0
 11 45  1  0
 11 46  1  0
 12 47  1  0
 12 48  1  0
 13 49  1  0
 18 50  1  0
 19 51  1  0
 26 52  1  0
 27 53  1  0
 30 54  1  0
 31 55  1  0
 31 56  1  0
 32 57  1  0
 32 58  1  0
M  END
>  <UniqueID>  (15) 
13

>  <SMILES>  (15) 
CCN(Cc1cn(C)cc1CCNS(=O)(=O)c1ccc(OC(F)(F)F)cc1)C(=O)C1CC1

>  <Energy>  (15) 
337.7437809099803

>  <Genealogy>  (15) 
CCN(Cc1cn(C)cc1CCNS(=O)(=O)c1ccc(OC(F)(F)F)cc1)C(=O)C1CC1 (3D coordinates assigned)
CCN(Cc1cn(C)cc1CCNS(=O)(=O)c1ccc(OC(F)(F)F)cc1)C(=O)C1CC1 (nonaromatic ring conformer: 337.7437809099803 kcal/mol)

>  <smiles>  (15) 
CCN(Cc1cn(C)cc1CCNS(=O)(=O)c1ccc(OC(F)(F)F)cc1)C(=O)C1CC1

>  <score_type>  (15) 
oracle

>  <origin>  (15) 
adg

>  <m_score__min__energy>  (15) 
-8.0299999999999994

>  <m_primary>  (15) 
energy

$$$$
15:0
     RDKit          3D

 51 54  0  0  1  0  0  0  0  0999 V2000
   59.6470   36.0130   46.5930 O   0  0  0  0  0  0  0  0  0  0  0  0
   59.6730   34.8420   47.0940 C   0  0  0  0  0  0  0  0  0  0  0  0
   56.1660   29.7750   44.8810 N   0  0  0  0  0  0  0  0  0  0  0  0
   56.8900   28.6780   44.9090 C   0  0  0  0  0  0  0  0  0  0  0  0
   58.0750   28.6370   44.1710 C   0  0  0  0  0  0  0  0  0  0  0  0
   63.4020   33.3450   46.7460 C   0  0  0  0  0  0  0  0  0  0  0  0
   64.1590   33.1220   47.8310 N   0  0  0  0  0  0  0  0  0  0  0  0
   63.7030   33.3630   49.0710 C   0  0  0  0  0  0  0  0  0  0  0  0
   62.1000   33.8420   46.8920 C   0  0  0  0  0  0  0  0  0  0  0  0
   61.9950   34.0750   50.5010 F   0  0  0  0  0  0  0  0  0  0  0  0
   58.8690   33.8590   46.3410 C   0  0  0  0  0  0  0  0  0  0  0  0
   58.0170   34.2090   45.3290 C   0  0  0  0  0  0  0  0  0  0  0  0
   57.3140   33.2650   44.6090 C   0  0  0  0  0  0  0  0  0  0  0  0
   57.4250   31.8820   44.8600 C   0  0  0  0  0  0  0  0  0  0  0  0
   56.6640   30.8990   44.1040 C   0  0  0  0  0  0  0  0  0  0  0  0
   60.4120   34.5540   48.2510 N   0  0  0  0  0  0  0  0  0  0  0  0
   61.6060   34.1000   48.1750 C   0  0  0  0  0  0  0  0  0  0  0  0
   62.4320   33.8500   49.2400 C   0  0  0  0  0  0  0  0  0  0  0  0
   58.8760   27.5070   44.1270 C   0  0  0  0  0  0  0  0  0  0  0  0
   58.4500   26.4470   44.8350 N   0  0  0  0  0  0  0  0  0  0  0  0
   57.3090   26.4480   45.5580 C   0  0  0  0  0  0  0  0  0  0  0  0
   56.9990   25.2610   46.2410 N   0  0  0  0  0  0  0  0  0  0  0  0
   57.5180   25.0930   47.5990 C   0  0  0  0  0  0  0  0  0  0  0  0
   56.9880   23.7630   48.1030 C   0  0  0  0  0  0  0  0  0  0  0  0
   57.3260   22.7020   47.3000 O   0  0  0  0  0  0  0  0  0  0  0  0
   57.0690   22.8950   45.9490 C   0  0  0  0  0  0  0  0  0  0  0  0
   56.2300   24.1510   45.7240 C   0  0  0  0  0  0  0  0  0  0  0  0
   56.5530   27.5750   45.5770 N   0  0  0  0  0  0  0  0  0  0  0  0
   58.3060   31.5540   45.9020 C   0  0  0  0  0  0  0  0  0  0  0  0
   59.0000   32.4860   46.6160 C   0  0  0  0  0  0  0  0  0  0  0  0
   58.3822   29.5299   43.6068 H   0  0  0  0  0  0  0  0  0  0  0  0
   63.8030   33.1379   45.7429 H   0  0  0  0  0  0  0  0  0  0  0  0
   65.1510   32.7490   47.6980 H   0  0  0  0  0  0  0  0  0  0  0  0
   64.3438   33.1713   49.9443 H   0  0  0  0  0  0  0  0  0  0  0  0
   57.8889   35.2733   45.0825 H   0  0  0  0  0  0  0  0  0  0  0  0
   56.6408   33.6046   43.8081 H   0  0  0  0  0  0  0  0  0  0  0  0
   55.8011   31.4100   43.6520 H   0  0  0  0  0  0  0  0  0  0  0  0
   57.3592   30.4761   43.3638 H   0  0  0  0  0  0  0  0  0  0  0  0
   61.4732   34.0273   46.0073 H   0  0  0  0  0  0  0  0  0  0  0  0
   59.8089   27.4791   43.5448 H   0  0  0  0  0  0  0  0  0  0  0  0
   59.0870   25.5930   44.7780 H   0  0  0  0  0  0  0  0  0  0  0  0
   58.6179   25.0834   47.5867 H   0  0  0  0  0  0  0  0  0  0  0  0
   57.2001   25.9200   48.2509 H   0  0  0  0  0  0  0  0  0  0  0  0
   57.3963   23.5833   49.1085 H   0  0  0  0  0  0  0  0  0  0  0  0
   55.8901   23.8311   48.1063 H   0  0  0  0  0  0  0  0  0  0  0  0
   58.0238   22.9997   45.4128 H   0  0  0  0  0  0  0  0  0  0  0  0
   56.5077   22.0272   45.5722 H   0  0  0  0  0  0  0  0  0  0  0  0
   56.0369   24.2908   44.6502 H   0  0  0  0  0  0  0  0  0  0  0  0
   55.2567   24.0733   46.2305 H   0  0  0  0  0  0  0  0  0  0  0  0
   58.4436   30.4925   46.1554 H   0  0  0  0  0  0  0  0  0  0  0  0
   59.6740   32.1581   47.4211 H   0  0  0  0  0  0  0  0  0  0  0  0
  1  2  2  0
  2  3  1  0
  3  4  2  0
  4  5  1  0
  5  6  2  0
  6  7  1  0
  7  8  1  0
  8  9  2  0
  9 10  1  0
  2 11  1  0
 11 12  2  0
 12 13  1  0
 13 14  2  0
 14 15  1  0
 15 16  1  0
 16 17  2  0
 17 18  1  0
 18 19  2  0
 19 20  1  0
 20 21  1  0
 21 22  1  0
 22 23  1  0
 23 24  1  0
 24 25  1  0
 25 26  1  0
 26 27  1  0
 21 28  2  0
 14 29  1  0
 29 30  2  0
  9  4  1  0
 30 11  1  0
 28 17  1  0
 27 22  1  0
  5 31  1  0
  6 32  1  0
  7 33  1  0
  8 34  1  0
 12 35  1  0
 13 36  1  0
 15 37  1  0
 15 38  1  0
 18 39  1  0
 19 40  1  0
 20 41  1  0
 23 42  1  0
 23 43  1  0
 24 44  1  0
 24 45  1  0
 26 46  1  0
 26 47  1  0
 27 48  1  0
 27 49  1  0
 29 50  1  0
 30 51  1  0
M  END
>  <smiles>  (16) 
O=C(N=c1cc[nH]cc1F)c1ccc(CN=c2cc[nH]c(N3CCOCC3)n2)cc1

>  <score_type>  (16) 
oracle

>  <origin>  (16) 
adg

>  <m_score__min__energy>  (16) 
-9.1199999999999992

>  <m_primary>  (16) 
energy

$$$$
16:0
     RDKit          3D

 45 47  0  0  0  0  0  0  0  0999 V2000
   54.8810   26.3430   45.9950 N   0  0  0  0  0  0  0  0  0  0  0  0
   56.5560   25.9500   46.1600 S   0  0  0  0  0  0  0  0  0  0  0  0
   56.8100   25.3950   47.5340 O   0  0  0  0  0  0  0  0  0  0  0  0
   56.9310   24.9090   45.1430 O   0  0  0  0  0  0  0  0  0  0  0  0
   57.5220   27.4000   45.9140 C   0  0  0  0  0  0  0  0  0  0  0  0
   58.9110   27.3600   46.0900 C   0  0  0  0  0  0  0  0  0  0  0  0
   59.6760   28.5140   45.9040 C   0  0  0  0  0  0  0  0  0  0  0  0
   59.0590   29.7100   45.5260 C   0  0  0  0  0  0  0  0  0  0  0  0
   57.6760   29.7590   45.3140 C   0  0  0  0  0  0  0  0  0  0  0  0
   57.0830   31.0100   44.9400 N   0  0  0  0  0  0  0  0  0  0  0  0
   57.3300   31.7480   43.7360 C   0  0  0  0  0  0  0  0  0  0  0  0
   57.0920   31.2390   42.6070 O   0  0  0  0  0  0  0  0  0  0  0  0
   57.9710   33.0960   43.8170 C   0  0  0  0  0  0  0  0  0  0  0  0
   58.3150   33.4090   45.2010 N   0  0  0  0  0  0  0  0  0  0  0  0
   58.9300   34.6490   45.5790 C   0  0  0  0  0  0  0  0  0  0  0  0
   59.2180   35.5100   44.7050 O   0  0  0  0  0  0  0  0  0  0  0  0
   59.2830   34.9120   47.0130 C   0  0  0  0  0  0  0  0  0  0  0  0
   59.8330   33.6940   47.6300 N   0  0  0  0  0  0  0  0  0  0  0  0
   61.1920   33.5630   47.7220 C   0  0  0  0  0  0  0  0  0  0  0  0
   61.7670   32.4200   48.2720 C   0  0  0  0  0  0  0  0  0  0  0  0
   60.9490   31.3850   48.7270 C   0  0  0  0  0  0  0  0  0  0  0  0
   61.5090   30.2250   49.2830 C   0  0  0  0  0  0  0  0  0  0  0  0
   60.6820   29.1920   49.7330 C   0  0  0  0  0  0  0  0  0  0  0  0
   59.2950   29.3090   49.6300 C   0  0  0  0  0  0  0  0  0  0  0  0
   58.7240   30.4590   49.0780 C   0  0  0  0  0  0  0  0  0  0  0  0
   59.5450   31.5100   48.6220 C   0  0  0  0  0  0  0  0  0  0  0  0
   59.0030   32.6840   48.0590 C   0  0  0  0  0  0  0  0  0  0  0  0
   57.7500   32.8050   47.9490 O   0  0  0  0  0  0  0  0  0  0  0  0
   56.9060   28.6000   45.5260 C   0  0  0  0  0  0  0  0  0  0  0  0
   54.6660   27.0710   46.7110 H   0  0  0  0  0  0  0  0  0  0  0  0
   59.4008   26.4173   46.3755 H   0  0  0  0  0  0  0  0  0  0  0  0
   60.7651   28.4815   46.0552 H   0  0  0  0  0  0  0  0  0  0  0  0
   59.6643   30.6190   45.3942 H   0  0  0  0  0  0  0  0  0  0  0  0
   58.8853   33.1008   43.2055 H   0  0  0  0  0  0  0  0  0  0  0  0
   57.2648   33.8520   43.4431 H   0  0  0  0  0  0  0  0  0  0  0  0
   58.1160   32.6930   45.9360 H   0  0  0  0  0  0  0  0  0  0  0  0
   60.0331   35.7151   47.0617 H   0  0  0  0  0  0  0  0  0  0  0  0
   58.3761   35.2135   47.5576 H   0  0  0  0  0  0  0  0  0  0  0  0
   61.8402   34.3729   47.3560 H   0  0  0  0  0  0  0  0  0  0  0  0
   62.8610   32.3334   48.3474 H   0  0  0  0  0  0  0  0  0  0  0  0
   62.6017   30.1282   49.3650 H   0  0  0  0  0  0  0  0  0  0  0  0
   61.1253   28.2847   50.1693 H   0  0  0  0  0  0  0  0  0  0  0  0
   58.6486   28.4927   49.9848 H   0  0  0  0  0  0  0  0  0  0  0  0
   57.6301   30.5442   48.9991 H   0  0  0  0  0  0  0  0  0  0  0  0
   55.8154   28.6349   45.3868 H   0  0  0  0  0  0  0  0  0  0  0  0
  1  2  1  0
  2  3  2  0
  2  4  2  0
  2  5  1  0
  5  6  2  0
  6  7  1  0
  7  8  2  0
  8  9  1  0
  9 10  1  0
 10 11  1  0
 11 12  2  0
 11 13  1  0
 13 14  1  0
 14 15  1  0
 15 16  2  0
 15 17  1  0
 17 18  1  0
 18 19  1  0
 19 20  2  0
 20 21  1  0
 21 22  2  0
 22 23  1  0
 23 24  2  0
 24 25  1  0
 25 26  2  0
 26 27  1  0
 27 28  2  0
  9 29  2  0
 29  5  1  0
 27 18  1  0
 26 21  1  0
  1 30  1  0
  6 31  1  0
  7 32  1  0
  8 33  1  0
 13 34  1  0
 13 35  1  0
 14 36  1  0
 17 37  1  0
 17 38  1  0
 19 39  1  0
 20 40  1  0
 22 41  1  0
 23 42  1  0
 24 43  1  0
 25 44  1  0
 29 45  1  0
M  CHG  2   1  -1  10  -1
M  END
>  <UniqueID>  (17) 
14

>  <SMILES>  (17) 
[NH-]S(=O)(=O)c1cccc([N-]C(=O)CNC(=O)Cn2ccc3ccccc3c2=O)c1

>  <Energy>  (17) 
52.66861891019268

>  <Genealogy>  (17) 
[NH-]S(=O)(=O)c1cccc([N-]C(=O)CNC(=O)Cn2ccc3ccccc3c2=O)c1 (protonated)
[NH-]S(=O)(=O)c1cccc([N-]C(=O)CNC(=O)Cn2ccc3ccccc3c2=O)c1 (3D coordinates assigned)
[NH-]S(=O)(=O)c1cccc([N-]C(=O)CNC(=O)Cn2ccc3ccccc3c2=O)c1 (optimized conformer: 52.66861891019268 kcal/mol)

>  <smiles>  (17) 
NS(=O)(=O)c1cccc(NC(=O)CNC(=O)Cn2ccc3ccccc3c2=O)c1

>  <score_type>  (17) 
oracle

>  <origin>  (17) 
adg

>  <m_score__min__energy>  (17) 
-12.85

>  <m_primary>  (17) 
energy

$$$$
17:0
     RDKit          3D

 26 27  0  0  0  0  0  0  0  0999 V2000
   57.1990   29.4910   45.9790 O   0  0  0  0  0  0  0  0  0  0  0  0
   57.0160   29.9250   44.7900 C   0  0  0  0  0  0  0  0  0  0  0  0
   56.3560   29.2760   43.7930 N   0  0  0  0  0  0  0  0  0  0  0  0
   56.3960   30.0700   42.7250 N   0  0  0  0  0  0  0  0  0  0  0  0
   57.0560   31.2020   43.0040 C   0  0  0  0  0  0  0  0  0  0  0  0
   57.4700   31.1390   44.3290 C   0  0  0  0  0  0  0  0  0  0  0  0
   58.2380   32.1930   45.0200 C   0  0  0  0  0  0  0  0  0  0  0  0
   58.8590   31.7300   46.2420 N   0  0  0  0  0  0  0  0  0  0  0  0
   60.1960   32.1180   46.5750 C   0  0  0  0  0  0  0  0  0  0  0  0
   61.0920   31.2080   47.1150 C   0  0  0  0  0  0  0  0  0  0  0  0
   62.3770   31.6410   47.4350 C   0  0  0  0  0  0  0  0  0  0  0  0
   62.7770   32.9560   47.2260 C   0  0  0  0  0  0  0  0  0  0  0  0
   64.0520   33.3480   47.5550 O   0  0  0  0  0  0  0  0  0  0  0  0
   61.8780   33.8480   46.6900 C   0  0  0  0  0  0  0  0  0  0  0  0
   60.5930   33.4450   46.3630 C   0  0  0  0  0  0  0  0  0  0  0  0
   55.9130   28.3250   43.8800 H   0  0  0  0  0  0  0  0  0  0  0  0
   55.9400   29.7690   41.8120 H   0  0  0  0  0  0  0  0  0  0  0  0
   57.2379   32.0339   42.3077 H   0  0  0  0  0  0  0  0  0  0  0  0
   59.0250   32.5550   44.3421 H   0  0  0  0  0  0  0  0  0  0  0  0
   57.5313   32.9911   45.2915 H   0  0  0  0  0  0  0  0  0  0  0  0
   58.3350   31.1060   46.8880 H   0  0  0  0  0  0  0  0  0  0  0  0
   60.7938   30.1634   47.2876 H   0  0  0  0  0  0  0  0  0  0  0  0
   63.0930   30.9244   47.8638 H   0  0  0  0  0  0  0  0  0  0  0  0
   64.8940   32.8810   47.2620 H   0  0  0  0  0  0  0  0  0  0  0  0
   62.1818   34.8913   46.5192 H   0  0  0  0  0  0  0  0  0  0  0  0
   59.8830   34.1686   45.9360 H   0  0  0  0  0  0  0  0  0  0  0  0
  1  2  2  0
  2  3  1  0
  3  4  1  0
  4  5  1  0
  5  6  2  0
  6  7  1  0
  7  8  1  0
  8  9  1  0
  9 10  2  0
 10 11  1  0
 11 12  2  0
 12 13  1  0
 12 14  1  0
 14 15  2  0
  6  2  1  0
 15  9  1  0
  3 16  1  0
  4 17  1  0
  5 18  1  0
  7 19  1  0
  7 20  1  0
  8 21  1  0
 10 22  1  0
 11 23  1  0
 13 24  1  0
 14 25  1  0
 15 26  1  0
M  END
>  <smiles>  (18) 
O=c1[nH][nH]cc1CNc1ccc(O)cc1

>  <score_type>  (18) 
oracle

>  <origin>  (18) 
adg

>  <m_score__min__energy>  (18) 
-5.9800000000000004

>  <m_primary>  (18) 
energy

$$$$
18:0
     RDKit          3D

 63 66  0  0  0  0  0  0  0  0999 V2000
   56.2670   21.8290   42.4400 N   0  0  0  0  0  0  0  0  0  0  0  0
   55.8520   22.1880   44.0780 S   0  0  0  0  0  0  0  0  0  0  0  0
   55.6350   20.9080   44.8360 O   0  0  0  0  0  0  0  0  0  0  0  0
   54.5790   22.9870   44.1070 O   0  0  0  0  0  0  0  0  0  0  0  0
   57.1540   23.1070   44.8260 C   0  0  0  0  0  0  0  0  0  0  0  0
   58.4700   22.6310   44.7740 C   0  0  0  0  0  0  0  0  0  0  0  0
   59.5080   23.3690   45.3470 C   0  0  0  0  0  0  0  0  0  0  0  0
   59.2360   24.5840   45.9820 C   0  0  0  0  0  0  0  0  0  0  0  0
   57.9170   25.0610   46.0590 C   0  0  0  0  0  0  0  0  0  0  0  0
   57.6080   26.3160   46.6800 N   0  0  0  0  0  0  0  0  0  0  0  0
   57.0220   27.4580   46.0410 C   0  0  0  0  0  0  0  0  0  0  0  0
   55.8380   27.3760   45.6190 O   0  0  0  0  0  0  0  0  0  0  0  0
   57.7460   28.7710   45.9270 C   0  0  0  0  0  0  0  0  0  0  0  0
   56.8830   29.7660   45.3790 O   0  0  0  0  0  0  0  0  0  0  0  0
   57.1990   30.6180   44.3060 C   0  0  0  0  0  0  0  0  0  0  0  0
   56.7200   30.3840   43.0000 C   0  0  0  0  0  0  0  0  0  0  0  0
   57.0050   31.2810   41.9680 C   0  0  0  0  0  0  0  0  0  0  0  0
   57.7630   32.4230   42.2250 C   0  0  0  0  0  0  0  0  0  0  0  0
   58.2490   32.6660   43.5110 C   0  0  0  0  0  0  0  0  0  0  0  0
   57.9940   31.7590   44.5510 C   0  0  0  0  0  0  0  0  0  0  0  0
   58.5110   32.0390   45.8610 N   0  0  0  0  0  0  0  0  0  0  0  0
   58.9400   33.3500   46.2650 C   0  0  0  0  0  0  0  0  0  0  0  0
   58.5570   34.3600   45.6120 O   0  0  0  0  0  0  0  0  0  0  0  0
   59.7970   33.5360   47.4620 C   0  0  0  0  0  0  0  0  0  0  0  0
   61.1430   33.9190   47.3330 C   0  0  0  0  0  0  0  0  0  0  0  0
   61.9390   34.0980   48.4680 C   0  0  0  0  0  0  0  0  0  0  0  0
   61.4020   33.9020   49.7410 C   0  0  0  0  0  0  0  0  0  0  0  0
   60.0610   33.5270   49.8890 C   0  0  0  0  0  0  0  0  0  0  0  0
   59.3840   33.2750   51.5000 S   0  0  0  0  0  0  0  0  0  0  0  0
   60.5050   33.0370   52.4730 O   0  0  0  0  0  0  0  0  0  0  0  0
   58.6520   34.5170   51.9300 O   0  0  0  0  0  0  0  0  0  0  0  0
   58.2900   31.9140   51.5400 N   0  0  0  0  0  0  0  0  0  0  0  0
   57.0800   32.2480   52.3050 C   0  0  0  0  0  0  0  0  0  0  0  0
   56.1170   31.0410   52.3170 C   0  0  0  0  0  0  0  0  0  0  0  0
   56.6980   29.8850   51.7380 O   0  0  0  0  0  0  0  0  0  0  0  0
   57.9340   29.6030   52.3680 C   0  0  0  0  0  0  0  0  0  0  0  0
   58.9520   30.7370   52.1260 C   0  0  0  0  0  0  0  0  0  0  0  0
   59.2610   33.3520   48.7500 C   0  0  0  0  0  0  0  0  0  0  0  0
   56.8850   24.3310   45.4560 C   0  0  0  0  0  0  0  0  0  0  0  0
   56.2240   22.7300   41.9110 H   0  0  0  0  0  0  0  0  0  0  0  0
   58.6869   21.6724   44.2800 H   0  0  0  0  0  0  0  0  0  0  0  0
   60.5408   22.9936   45.2985 H   0  0  0  0  0  0  0  0  0  0  0  0
   60.0571   25.1684   46.4227 H   0  0  0  0  0  0  0  0  0  0  0  0
   58.0791   29.0897   46.9257 H   0  0  0  0  0  0  0  0  0  0  0  0
   58.6138   28.6448   45.2629 H   0  0  0  0  0  0  0  0  0  0  0  0
   56.1170   29.4877   42.7926 H   0  0  0  0  0  0  0  0  0  0  0  0
   56.6313   31.0865   40.9519 H   0  0  0  0  0  0  0  0  0  0  0  0
   57.9783   33.1334   41.4132 H   0  0  0  0  0  0  0  0  0  0  0  0
   58.8359   33.5747   43.7104 H   0  0  0  0  0  0  0  0  0  0  0  0
   58.3960   31.3090   46.6000 H   0  0  0  0  0  0  0  0  0  0  0  0
   61.5726   34.0788   46.3331 H   0  0  0  0  0  0  0  0  0  0  0  0
   62.9925   34.3944   48.3573 H   0  0  0  0  0  0  0  0  0  0  0  0
   62.0337   34.0424   50.6305 H   0  0  0  0  0  0  0  0  0  0  0  0
   57.3599   32.5018   53.3381 H   0  0  0  0  0  0  0  0  0  0  0  0
   56.5791   33.1068   51.8343 H   0  0  0  0  0  0  0  0  0  0  0  0
   55.8442   30.8162   53.3586 H   0  0  0  0  0  0  0  0  0  0  0  0
   55.2330   31.3091   51.7198 H   0  0  0  0  0  0  0  0  0  0  0  0
   57.7690   29.4931   53.4500 H   0  0  0  0  0  0  0  0  0  0  0  0
   58.3390   28.6730   51.9424 H   0  0  0  0  0  0  0  0  0  0  0  0
   59.4111   31.0208   53.0845 H   0  0  0  0  0  0  0  0  0  0  0  0
   59.7210   30.3786   51.4259 H   0  0  0  0  0  0  0  0  0  0  0  0
   58.2045   33.0682   48.8648 H   0  0  0  0  0  0  0  0  0  0  0  0
   55.8564   24.7202   45.4766 H   0  0  0  0  0  0  0  0  0  0  0  0
  1  2  1  0
  2  3  2  0
  2  4  2  0
  2  5  1  0
  5  6  2  0
  6  7  1  0
  7  8  2  0
  8  9  1  0
  9 10  1  0
 10 11  1  0
 11 12  2  0
 11 13  1  0
 13 14  1  0
 14 15  1  0
 15 16  2  0
 16 17  1  0
 17 18  2  0
 18 19  1  0
 19 20  2  0
 20 21  1  0
 21 22  1  0
 22 23  2  0
 22 24  1  0
 24 25  2  0
 25 26  1  0
 26 27  2  0
 27 28  1  0
 28 29  1  0
 29 30  2  0
 29 31  2  0
 29 32  1  0
 32 33  1  0
 33 34  1  0
 34 35  1  0
 35 36  1  0
 36 37  1  0
 28 38  2  0
  9 39  2  0
 39  5  1  0
 20 15  1  0
 38 24  1  0
 37 32  1  0
  1 40  1  0
  6 41  1  0
  7 42  1  0
  8 43  1  0
 13 44  1  0
 13 45  1  0
 16 46  1  0
 17 47  1  0
 18 48  1  0
 19 49  1  0
 21 50  1  0
 25 51  1  0
 26 52  1  0
 27 53  1  0
 33 54  1  0
 33 55  1  0
 34 56  1  0
 34 57  1  0
 36 58  1  0
 36 59  1  0
 37 60  1  0
 37 61  1  0
 38 62  1  0
 39 63  1  0
M  CHG  2   1  -1  10  -1
M  END
>  <UniqueID>  (19) 
15

>  <SMILES>  (19) 
[NH-]S(=O)(=O)c1cccc([N-]C(=O)COc2ccccc2NC(=O)c2cccc(S(=O)(=O)N3CCOCC3)c2)c1

>  <Energy>  (19) 
83.76440242596675

>  <Genealogy>  (19) 
[NH-]S(=O)(=O)c1cccc([N-]C(=O)COc2ccccc2NC(=O)c2cccc(S(=O)(=O)N3CCOCC3)c2)c1 (protonated)
[NH-]S(=O)(=O)c1cccc([N-]C(=O)COc2ccccc2NC(=O)c2cccc(S(=O)(=O)N3CCOCC3)c2)c1 (3D coordinates assigned)
[NH-]S(=O)(=O)c1cccc([N-]C(=O)COc2ccccc2NC(=O)c2cccc(S(=O)(=O)N3CCOCC3)c2)c1 (nonaromatic ring conformer: 83.76440242596675 kcal/mol)

>  <smiles>  (19) 
NS(=O)(=O)c1cccc(NC(=O)COc2ccccc2NC(=O)c2cccc(S(=O)(=O)N3CCOCC3)c2)c1

>  <score_type>  (19) 
oracle

>  <origin>  (19) 
adg

>  <m_score__min__energy>  (19) 
-15.27

>  <m_primary>  (19) 
energy

$$$$
19:0
     RDKit          3D

 57 59  0  0  0  0  0  0  0  0999 V2000
   55.6980   30.1230   44.1440 C   0  0  0  0  0  0  0  0  0  0  0  0
   57.0740   30.1660   43.4890 C   0  0  0  0  0  0  0  0  0  0  0  0
   57.4620   31.5520   43.1930 N   0  0  0  0  0  0  0  0  0  0  0  0
   57.4180   32.0470   41.8140 C   0  0  0  0  0  0  0  0  0  0  0  0
   57.8820   32.4380   44.2510 C   0  0  0  0  0  0  0  0  0  0  0  0
   57.4490   33.7270   44.2860 N   0  0  0  0  0  0  0  0  0  0  0  0
   57.8380   34.5720   45.2740 C   0  0  0  0  0  0  0  0  0  0  0  0
   58.6950   34.1280   46.2790 C   0  0  0  0  0  0  0  0  0  0  0  0
   59.0860   34.9980   47.2410 F   0  0  0  0  0  0  0  0  0  0  0  0
   59.1400   32.7930   46.2440 C   0  0  0  0  0  0  0  0  0  0  0  0
   60.0260   32.2460   47.2440 N   0  0  0  0  0  0  0  0  0  0  0  0
   61.4700   32.2380   47.0790 C   0  0  0  0  0  0  0  0  0  0  0  0
   62.0290   31.6710   48.3760 C   0  0  0  0  0  0  0  0  0  0  0  0
   60.8640   30.9390   49.0470 C   0  0  2  0  0  0  0  0  0  0  0  0
   60.8870   29.5480   48.7130 O   0  0  0  0  0  0  0  0  0  0  0  0
   60.0460   28.9230   47.7780 C   0  0  0  0  0  0  0  0  0  0  0  0
   58.9110   28.1800   48.1540 C   0  0  0  0  0  0  0  0  0  0  0  0
   58.1070   27.5800   47.1800 C   0  0  0  0  0  0  0  0  0  0  0  0
   58.4190   27.7160   45.8160 C   0  0  0  0  0  0  0  0  0  0  0  0
   57.5610   27.0570   44.7580 C   0  0  1  0  0  0  0  0  0  0  0  0
   58.2970   27.0380   43.4140 C   0  0  0  0  0  0  0  0  0  0  0  0
   57.1970   25.6950   45.1670 N   0  0  0  0  0  0  0  0  0  0  0  0
   55.9530   25.4050   45.8200 C   0  0  0  0  0  0  0  0  0  0  0  0
   55.6300   24.0030   46.2240 C   0  0  0  0  0  0  0  0  0  0  0  0
   55.1080   26.3180   46.0180 O   0  0  0  0  0  0  0  0  0  0  0  0
   59.5580   28.4500   45.4460 C   0  0  0  0  0  0  0  0  0  0  0  0
   60.3600   29.0500   46.4210 C   0  0  0  0  0  0  0  0  0  0  0  0
   59.6050   31.5770   48.4660 C   0  0  0  0  0  0  0  0  0  0  0  0
   58.7210   31.9910   45.2260 N   0  0  0  0  0  0  0  0  0  0  0  0
   55.8124   30.1266   45.2380 H   0  0  0  0  0  0  0  0  0  0  0  0
   55.1163   31.0034   43.8333 H   0  0  0  0  0  0  0  0  0  0  0  0
   55.1724   29.2080   43.8333 H   0  0  0  0  0  0  0  0  0  0  0  0
   57.8134   29.7213   44.1713 H   0  0  0  0  0  0  0  0  0  0  0  0
   57.0366   29.5990   42.5471 H   0  0  0  0  0  0  0  0  0  0  0  0
   57.3206   33.1427   41.8207 H   0  0  0  0  0  0  0  0  0  0  0  0
   58.3448   31.7644   41.2932 H   0  0  0  0  0  0  0  0  0  0  0  0
   56.5556   31.6054   41.2932 H   0  0  0  0  0  0  0  0  0  0  0  0
   57.4757   35.6106   45.2815 H   0  0  0  0  0  0  0  0  0  0  0  0
   61.7554   31.6022   46.2279 H   0  0  0  0  0  0  0  0  0  0  0  0
   61.8611   33.2455   46.8743 H   0  0  0  0  0  0  0  0  0  0  0  0
   62.8509   30.9709   48.1653 H   0  0  0  0  0  0  0  0  0  0  0  0
   62.4358   32.4629   49.0221 H   0  0  0  0  0  0  0  0  0  0  0  0
   60.9137   31.0182   50.1430 H   0  0  0  0  0  0  0  0  0  0  0  0
   58.6556   28.0710   49.2184 H   0  0  0  0  0  0  0  0  0  0  0  0
   57.2244   26.9976   47.4831 H   0  0  0  0  0  0  0  0  0  0  0  0
   56.6362   27.6410   44.6414 H   0  0  0  0  0  0  0  0  0  0  0  0
   59.3824   27.0100   43.5907 H   0  0  0  0  0  0  0  0  0  0  0  0
   57.9953   26.1473   42.8433 H   0  0  0  0  0  0  0  0  0  0  0  0
   58.0417   27.9430   42.8433 H   0  0  0  0  0  0  0  0  0  0  0  0
   57.8600   24.9070   44.9850 H   0  0  0  0  0  0  0  0  0  0  0  0
   55.6137   23.9322   47.3216 H   0  0  0  0  0  0  0  0  0  0  0  0
   54.6441   23.7240   45.8239 H   0  0  0  0  0  0  0  0  0  0  0  0
   56.3945   23.3208   45.8239 H   0  0  0  0  0  0  0  0  0  0  0  0
   59.8204   28.5532   44.3827 H   0  0  0  0  0  0  0  0  0  0  0  0
   61.2461   29.6273   46.1183 H   0  0  0  0  0  0  0  0  0  0  0  0
   58.8538   30.8056   48.2409 H   0  0  0  0  0  0  0  0  0  0  0  0
   59.1446   32.2812   49.1746 H   0  0  0  0  0  0  0  0  0  0  0  0
  1  2  1  0
  2  3  1  0
  3  4  1  0
  3  5  1  0
  5  6  2  0
  6  7  1  0
  7  8  2  0
  8  9  1  0
  8 10  1  0
 10 11  1  0
 11 12  1  0
 12 13  1  0
 13 14  1  0
 14 15  1  0
 15 16  1  0
 16 17  2  0
 17 18  1  0
 18 19  2  0
 19 20  1  0
 20 21  1  0
 20 22  1  0
 22 23  1  0
 23 24  1  0
 23 25  2  0
 19 26  1  0
 26 27  2  0
 14 28  1  0
 10 29  2  0
 29  5  1  0
 28 11  1  0
 27 16  1  0
  1 30  1  0
  1 31  1  0
  1 32  1  0
  2 33  1  0
  2 34  1  0
  4 35  1  0
  4 36  1  0
  4 37  1  0
  7 38  1  0
 12 39  1  0
 12 40  1  0
 13 41  1  0
 13 42  1  0
 14 43  1  1
 17 44  1  0
 18 45  1  0
 20 46  1  6
 21 47  1  0
 21 48  1  0
 21 49  1  0
 22 50  1  0
 24 51  1  0
 24 52  1  0
 24 53  1  0
 26 54  1  0
 27 55  1  0
 28 56  1  0
 28 57  1  0
M  END
>  <UniqueID>  (20) 
16

>  <SMILES>  (20) 
CCN(C)c1ncc(F)c(N2CC[C@H](Oc3ccc([C@@H](C)NC(C)=O)cc3)C2)n1

>  <Energy>  (20) 
50.50188520333769

>  <Genealogy>  (20) 
CCN(C)c1ncc(F)c(N2CC[C@H](Oc3ccc([C@@H](C)NC(C)=O)cc3)C2)n1 (chirality)
CCN(C)c1ncc(F)c(N2CC[C@H](Oc3ccc([C@@H](C)NC(C)=O)cc3)C2)n1 (3D coordinates assigned)
CCN(C)c1ncc(F)c(N2CC[C@H](Oc3ccc([C@@H](C)NC(C)=O)cc3)C2)n1 (nonaromatic ring conformer: 50.50188520333769 kcal/mol)

>  <smiles>  (20) 
CCN(C)c1ncc(F)c(N2CCC(Oc3ccc(C(C)NC(C)=O)cc3)C2)n1

>  <score_type>  (20) 
oracle

>  <origin>  (20) 
adg

>  <m_score__min__energy>  (20) 
-7.6200000000000001

>  <m_primary>  (20) 
energy

$$$$
20:0
     RDKit          3D

 46 48  0  0  0  0  0  0  0  0999 V2000
   55.4320   28.5790   44.4540 H   0  0  0  0  0  0  0  0  0  0  0  0
   55.9090   28.1820   45.2950 N   0  0  0  0  0  0  0  0  0  0  0  0
   57.5160   27.7610   44.8120 S   0  0  0  0  0  0  0  0  0  0  0  0
   57.8440   28.4350   43.5080 O   0  0  0  0  0  0  0  0  0  0  0  0
   57.5940   26.2700   44.6310 O   0  0  0  0  0  0  0  0  0  0  0  0
   58.6560   28.2880   46.0450 C   0  0  0  0  0  0  0  0  0  0  0  0
   58.6730   27.6820   47.3100 C   0  0  0  0  0  0  0  0  0  0  0  0
   57.9684   26.8687   47.5383 H   0  0  0  0  0  0  0  0  0  0  0  0
   59.5830   28.1090   48.2810 C   0  0  0  0  0  0  0  0  0  0  0  0
   59.6007   27.6202   49.2663 H   0  0  0  0  0  0  0  0  0  0  0  0
   60.4730   29.1560   48.0070 C   0  0  0  0  0  0  0  0  0  0  0  0
   61.4180   29.5500   49.0130 N   0  0  0  0  0  0  0  0  0  0  0  0
   61.6140   30.7510   49.4810 C   0  0  0  0  0  0  0  0  0  0  0  0
   61.8100   30.8598   50.5579 H   0  0  0  0  0  0  0  0  0  0  0  0
   61.5890   31.9760   48.6530 C   0  0  0  0  0  0  0  0  0  0  0  0
   62.5210   32.3250   47.6930 C   0  0  0  0  0  0  0  0  0  0  0  0
   63.4596   31.7987   47.4647 H   0  0  0  0  0  0  0  0  0  0  0  0
   62.0430   33.4610   47.0790 C   0  0  0  0  0  0  0  0  0  0  0  0
   62.5588   34.0027   46.2724 H   0  0  0  0  0  0  0  0  0  0  0  0
   60.8530   33.8160   47.6060 N   0  0  0  0  0  0  0  0  0  0  0  0
   60.0830   34.9840   47.1630 C   0  0  0  0  0  0  0  0  0  0  0  0
   59.1348   35.0205   47.7194 H   0  0  0  0  0  0  0  0  0  0  0  0
   60.6804   35.8876   47.3543 H   0  0  0  0  0  0  0  0  0  0  0  0
   59.7790   34.9120   45.6600 C   0  0  0  0  0  0  0  0  0  0  0  0
   59.2804   35.8432   45.3530 H   0  0  0  0  0  0  0  0  0  0  0  0
   60.7310   34.7771   45.1257 H   0  0  0  0  0  0  0  0  0  0  0  0
   58.8860   33.7480   45.3230 C   0  0  0  0  0  0  0  0  0  0  0  0
   58.2620   33.0130   46.3430 C   0  0  0  0  0  0  0  0  0  0  0  0
   58.4559   33.2651   47.3960 H   0  0  0  0  0  0  0  0  0  0  0  0
   57.3960   31.9630   46.0280 C   0  0  0  0  0  0  0  0  0  0  0  0
   56.9117   31.3916   46.8336 H   0  0  0  0  0  0  0  0  0  0  0  0
   57.1420   31.6350   44.6890 C   0  0  0  0  0  0  0  0  0  0  0  0
   56.2760   30.5900   44.3720 O   0  0  0  0  0  0  0  0  0  0  0  0
   56.4750   29.6350   44.6480 H   0  0  0  0  0  0  0  0  0  0  0  0
   57.7610   32.3660   43.6650 C   0  0  0  0  0  0  0  0  0  0  0  0
   57.4270   31.9480   41.8280 Br  0  0  0  0  0  0  0  0  0  0  0  0
   58.6280   33.4180   43.9810 C   0  0  0  0  0  0  0  0  0  0  0  0
   59.1104   33.9900   43.1747 H   0  0  0  0  0  0  0  0  0  0  0  0
   60.5560   32.9030   48.5680 C   0  0  0  0  0  0  0  0  0  0  0  0
   59.3450   32.9020   49.4240 C   0  0  0  0  0  0  0  0  0  0  0  0
   59.2160   33.7210   50.3680 O   0  0  0  0  0  0  0  0  0  0  0  0
   58.3210   31.9940   49.1800 O   0  0  0  0  0  0  0  0  0  0  0  0
   60.4820   29.7320   46.7250 C   0  0  0  0  0  0  0  0  0  0  0  0
   61.2096   30.5212   46.4847 H   0  0  0  0  0  0  0  0  0  0  0  0
   59.5710   29.3070   45.7540 C   0  0  0  0  0  0  0  0  0  0  0  0
   59.5729   29.7744   44.7583 H   0  0  0  0  0  0  0  0  0  0  0  0
  1  2  1  0
  2  3  1  0
  3  4  2  0
  3  5  2  0
  3  6  1  0
  6  7  2  0
  7  8  1  0
  7  9  1  0
  9 10  1  0
  9 11  2  0
 11 12  1  0
 12 13  2  0
 13 14  1  0
 13 15  1  0
 15 16  1  0
 16 17  1  0
 16 18  2  0
 18 19  1  0
 18 20  1  0
 20 21  1  0
 21 22  1  0
 21 23  1  0
 21 24  1  0
 24 25  1  0
 24 26  1  0
 24 27  1  0
 27 28  2  0
 28 29  1  0
 28 30  1  0
 30 31  1  0
 30 32  2  0
 32 33  1  0
 33 34  1  0
 32 35  1  0
 35 36  1  0
 35 37  2  0
 37 38  1  0
 20 39  1  0
 39 40  1  0
 40 41  2  0
 40 42  1  0
 11 43  1  0
 43 44  1  0
 43 45  2  0
 45 46  1  0
 45  6  1  0
 39 15  2  0
 37 27  1  0
M  CHG  2   2  -1  42  -1
M  END
>  <UniqueID>  (21) 
17

>  <SMILES>  (21) 
[NH-]S(=O)(=O)c1ccc(/N=C\c2ccn(CCc3ccc(O)c(Br)c3)c2C(=O)[O-])cc1

>  <Energy>  (21) 
83.20203830835695

>  <Genealogy>  (21) 
[NH-]S(=O)(=O)c1ccc(N=Cc2ccn(CCc3ccc(O)c(Br)c3)c2C(=O)[O-])cc1 (protonated)
[NH-]S(=O)(=O)c1ccc(/N=C\c2ccn(CCc3ccc(O)c(Br)c3)c2C(=O)[O-])cc1 (cis-trans isomerization)
[NH-]S(=O)(=O)c1ccc(/N=C\c2ccn(CCc3ccc(O)c(Br)c3)c2C(=O)[O-])cc1 (3D coordinates assigned)
[NH-]S(=O)(=O)c1ccc(/N=C\c2ccn(CCc3ccc(O)c(Br)c3)c2C(=O)[O-])cc1 (optimized conformer: 83.20203830835695 kcal/mol)

>  <smiles>  (21) 
NS(=O)(=O)c1ccc(N=Cc2ccn(CCc3ccc(O)c(Br)c3)c2C(=O)O)cc1

>  <score_type>  (21) 
oracle

>  <origin>  (21) 
adg

>  <m_score__min__energy>  (21) 
-12.81

>  <m_primary>  (21) 
energy

$$$$
21:0
     RDKit          3D

 28 30  0  0  0  0  0  0  0  0999 V2000
   58.4100   32.6170   42.0980 O   0  0  0  0  0  0  0  0  0  0  0  0
   57.8390   32.0040   43.0390 C   0  0  0  0  0  0  0  0  0  0  0  0
   57.4620   30.6430   43.0110 N   0  0  0  0  0  0  0  0  0  0  0  0
   56.9320   30.4290   44.1730 C   0  0  0  0  0  0  0  0  0  0  0  0
   56.9220   31.5840   45.0250 N   0  0  0  0  0  0  0  0  0  0  0  0
   57.4560   32.5340   44.3270 C   0  0  0  0  0  0  0  0  0  0  0  0
   57.7240   33.9100   44.8510 C   0  0  0  0  0  0  0  0  0  0  0  0
   58.7430   33.8510   45.9570 C   0  0  0  0  0  0  0  0  0  0  0  0
   58.3300   33.8460   47.2990 C   0  0  0  0  0  0  0  0  0  0  0  0
   59.2720   33.8270   48.3300 C   0  0  0  0  0  0  0  0  0  0  0  0
   60.6420   33.8230   48.0340 C   0  0  0  0  0  0  0  0  0  0  0  0
   61.5970   33.8050   49.0620 C   0  0  0  0  0  0  0  0  0  0  0  0
   62.9610   33.8050   48.7540 C   0  0  0  0  0  0  0  0  0  0  0  0
   63.3800   33.8240   47.4210 C   0  0  0  0  0  0  0  0  0  0  0  0
   62.4390   33.8420   46.3870 C   0  0  0  0  0  0  0  0  0  0  0  0
   61.0670   33.8400   46.6830 C   0  0  0  0  0  0  0  0  0  0  0  0
   60.1130   33.8590   45.6540 C   0  0  0  0  0  0  0  0  0  0  0  0
   57.5810   29.9530   42.2370 H   0  0  0  0  0  0  0  0  0  0  0  0
   56.5272   29.4529   44.4786 H   0  0  0  0  0  0  0  0  0  0  0  0
   58.1072   34.5417   44.0361 H   0  0  0  0  0  0  0  0  0  0  0  0
   56.7887   34.3347   45.2445 H   0  0  0  0  0  0  0  0  0  0  0  0
   57.2568   33.8571   47.5401 H   0  0  0  0  0  0  0  0  0  0  0  0
   58.9376   33.8151   49.3779 H   0  0  0  0  0  0  0  0  0  0  0  0
   61.2718   33.7909   50.1127 H   0  0  0  0  0  0  0  0  0  0  0  0
   63.7061   33.7900   49.5631 H   0  0  0  0  0  0  0  0  0  0  0  0
   64.4542   33.8248   47.1843 H   0  0  0  0  0  0  0  0  0  0  0  0
   62.7746   33.8578   45.3396 H   0  0  0  0  0  0  0  0  0  0  0  0
   60.4410   33.8803   44.6043 H   0  0  0  0  0  0  0  0  0  0  0  0
  1  2  2  0
  2  3  1  0
  3  4  2  0
  4  5  1  0
  5  6  2  0
  6  7  1  0
  7  8  1  0
  8  9  2  0
  9 10  1  0
 10 11  2  0
 11 12  1  0
 12 13  2  0
 13 14  1  0
 14 15  2  0
 15 16  1  0
 16 17  2  0
  6  2  1  0
 17  8  1  0
 16 11  1  0
  3 18  1  0
  4 19  1  0
  7 20  1  0
  7 21  1  0
  9 22  1  0
 10 23  1  0
 12 24  1  0
 13 25  1  0
 14 26  1  0
 15 27  1  0
 17 28  1  0
M  CHG  1   3   1
M  END
>  <UniqueID>  (22) 
18

>  <SMILES>  (22) 
O=C1[NH+]=CN=C1Cc1ccc2ccccc2c1

>  <Energy>  (22) 
61.38986166846421

>  <Genealogy>  (22) 
O=C1[NH+]=CN=C1Cc1ccc2ccccc2c1 (protonated)
O=C1[NH+]=CN=C1Cc1ccc2ccccc2c1 (3D coordinates assigned)
O=C1[NH+]=CN=C1Cc1ccc2ccccc2c1 (nonaromatic ring conformer: 61.38986166846421 kcal/mol)

>  <smiles>  (22) 
O=C1N=CN=C1Cc1ccc2ccccc2c1

>  <score_type>  (22) 
oracle

>  <origin>  (22) 
adg

>  <m_score__min__energy>  (22) 
-6.2699999999999996

>  <m_primary>  (22) 
energy

$$$$
22:0
     RDKit          3D

 32 33  0  0  0  0  0  0  0  0999 V2000
   62.4830   33.8690   46.4130 C   0  0  0  0  0  0  0  0  0  0  0  0
   61.0760   34.0770   46.7290 N   0  0  0  0  0  0  0  0  0  0  0  0
   60.0450   33.9000   45.8830 C   0  0  0  0  0  0  0  0  0  0  0  0
   58.8820   34.1220   46.5870 C   0  0  0  0  0  0  0  0  0  0  0  0
   57.4770   33.9720   46.0870 C   0  0  0  0  0  0  0  0  0  0  0  0
   57.3890   32.9540   44.9460 C   0  0  0  0  0  0  0  0  0  0  0  0
   57.1540   31.6010   45.4570 N   0  0  0  0  0  0  0  0  0  0  0  0
   58.4040   30.4990   44.9570 S   0  0  0  0  0  0  0  0  0  0  0  0
   58.6130   30.6080   43.4710 O   0  0  0  0  0  0  0  0  0  0  0  0
   59.6880   30.8820   45.6380 O   0  0  0  0  0  0  0  0  0  0  0  0
   57.9910   28.8450   45.4110 C   0  0  0  0  0  0  0  0  0  0  0  0
   59.0210   27.9470   45.7240 C   0  0  0  0  0  0  0  0  0  0  0  0
   58.7230   26.6420   46.1210 C   0  0  0  0  0  0  0  0  0  0  0  0
   57.3930   26.2220   46.2120 C   0  0  0  0  0  0  0  0  0  0  0  0
   57.0380   24.5770   46.7170 Cl  0  0  0  0  0  0  0  0  0  0  0  0
   56.3560   27.1140   45.9070 C   0  0  0  0  0  0  0  0  0  0  0  0
   55.0310   26.7050   46.0010 O   0  0  0  0  0  0  0  0  0  0  0  0
   56.6520   28.4240   45.5080 C   0  0  0  0  0  0  0  0  0  0  0  0
   55.6340   29.2780   45.2370 F   0  0  0  0  0  0  0  0  0  0  0  0
   59.2820   34.4060   47.8790 C   0  0  0  0  0  0  0  0  0  0  0  0
   60.6290   34.3670   47.9420 N   0  0  0  0  0  0  0  0  0  0  0  0
   63.0596   33.7838   47.3459 H   0  0  0  0  0  0  0  0  0  0  0  0
   62.5945   32.9446   45.8273 H   0  0  0  0  0  0  0  0  0  0  0  0
   62.8572   34.7216   45.8273 H   0  0  0  0  0  0  0  0  0  0  0  0
   60.1177   33.6270   44.8199 H   0  0  0  0  0  0  0  0  0  0  0  0
   56.8374   33.6349   46.9160 H   0  0  0  0  0  0  0  0  0  0  0  0
   57.1428   34.9474   45.7037 H   0  0  0  0  0  0  0  0  0  0  0  0
   56.5604   33.2341   44.2789 H   0  0  0  0  0  0  0  0  0  0  0  0
   58.3450   32.9586   44.4019 H   0  0  0  0  0  0  0  0  0  0  0  0
   60.0696   28.2723   45.6565 H   0  0  0  0  0  0  0  0  0  0  0  0
   59.5369   25.9427   46.3627 H   0  0  0  0  0  0  0  0  0  0  0  0
   58.6099   34.6282   48.7209 H   0  0  0  0  0  0  0  0  0  0  0  0
  1  2  1  0
  2  3  1  0
  3  4  2  0
  4  5  1  0
  5  6  1  0
  6  7  1  0
  7  8  1  0
  8  9  2  0
  8 10  2  0
  8 11  1  0
 11 12  2  0
 12 13  1  0
 13 14  2  0
 14 15  1  0
 14 16  1  0
 16 17  1  0
 16 18  2  0
 18 19  1  0
  4 20  1  0
 20 21  2  0
 21  2  1  0
 18 11  1  0
  1 22  1  0
  1 23  1  0
  1 24  1  0
  3 25  1  0
  5 26  1  0
  5 27  1  0
  6 28  1  0
  6 29  1  0
 12 30  1  0
 13 31  1  0
 20 32  1  0
M  CHG  2   7  -1  17  -1
M  END
>  <UniqueID>  (23) 
19

>  <SMILES>  (23) 
Cn1cc(CC[N-]S(=O)(=O)c2ccc(Cl)c([O-])c2F)cn1

>  <Energy>  (23) 
58.283480597046314

>  <Genealogy>  (23) 
Cn1cc(CC[N-]S(=O)(=O)c2ccc(Cl)c([O-])c2F)cn1 (protonated)
Cn1cc(CC[N-]S(=O)(=O)c2ccc(Cl)c([O-])c2F)cn1 (3D coordinates assigned)
Cn1cc(CC[N-]S(=O)(=O)c2ccc(Cl)c([O-])c2F)cn1 (optimized conformer: 58.283480597046314 kcal/mol)

>  <smiles>  (23) 
Cn1cc(CCNS(=O)(=O)c2ccc(Cl)c(O)c2F)cn1

>  <score_type>  (23) 
oracle

>  <origin>  (23) 
adg

>  <m_score__min__energy>  (23) 
-11.93

>  <m_primary>  (23) 
energy

$$$$
23:0
     RDKit          3D

 44 46  0  0  0  0  0  0  0  0999 V2000
   67.8980   33.1180   50.9200 C   0  0  0  0  0  0  0  0  0  0  0  0
   66.4150   33.2080   50.7710 C   0  0  0  0  0  0  0  0  0  0  0  0
   65.6950   33.3030   51.8030 O   0  0  0  0  0  0  0  0  0  0  0  0
   65.8200   33.0910   49.4690 N   0  0  0  0  0  0  0  0  0  0  0  0
   64.4320   33.3420   49.1920 C   0  0  0  0  0  0  0  0  0  0  0  0
   63.5440   33.7580   50.2000 C   0  0  0  0  0  0  0  0  0  0  0  0
   62.2030   34.0170   49.8970 C   0  0  0  0  0  0  0  0  0  0  0  0
   61.7360   33.8790   48.5840 C   0  0  0  0  0  0  0  0  0  0  0  0
   60.0420   34.1970   48.2250 S   0  0  0  0  0  0  0  0  0  0  0  0
   59.3770   34.7480   49.4570 O   0  0  0  0  0  0  0  0  0  0  0  0
   59.9340   35.1980   47.1090 O   0  0  0  0  0  0  0  0  0  0  0  0
   59.2870   32.7070   47.7530 N   0  0  0  0  0  0  0  0  0  0  0  0
   58.7090   32.4580   46.6110 C   0  0  0  0  0  0  0  0  0  0  0  0
   57.9940   33.4340   45.8910 C   0  0  0  0  0  0  0  0  0  0  0  0
   57.3880   33.0900   44.6820 C   0  0  0  0  0  0  0  0  0  0  0  0
   57.4990   31.8260   44.1970 N   0  0  0  0  0  0  0  0  0  0  0  0
   58.2010   30.8620   44.8510 C   0  0  0  0  0  0  0  0  0  0  0  0
   58.2520   29.5370   44.2960 N   0  0  0  0  0  0  0  0  0  0  0  0
   57.8770   28.3420   45.0010 C   0  0  0  0  0  0  0  0  0  0  0  0
   58.8330   27.3780   45.3660 C   0  0  0  0  0  0  0  0  0  0  0  0
   58.4400   26.2090   46.0260 C   0  0  0  0  0  0  0  0  0  0  0  0
   57.0910   25.9860   46.3110 C   0  0  0  0  0  0  0  0  0  0  0  0
   56.1300   26.9280   45.9290 C   0  0  0  0  0  0  0  0  0  0  0  0
   54.7870   26.7000   46.2030 O   0  0  0  0  0  0  0  0  0  0  0  0
   56.5210   28.0970   45.2690 C   0  0  0  0  0  0  0  0  0  0  0  0
   58.8020   31.1640   46.0850 C   0  0  0  0  0  0  0  0  0  0  0  0
   62.6200   33.4810   47.5740 C   0  0  0  0  0  0  0  0  0  0  0  0
   63.9610   33.2230   47.8750 C   0  0  0  0  0  0  0  0  0  0  0  0
   68.1589   33.1022   51.9885 H   0  0  0  0  0  0  0  0  0  0  0  0
   68.2594   32.1963   50.4406 H   0  0  0  0  0  0  0  0  0  0  0  0
   68.3682   33.9893   50.4406 H   0  0  0  0  0  0  0  0  0  0  0  0
   66.4170   32.7210   48.6960 H   0  0  0  0  0  0  0  0  0  0  0  0
   63.9055   33.8803   51.2317 H   0  0  0  0  0  0  0  0  0  0  0  0
   61.5123   34.3304   50.6937 H   0  0  0  0  0  0  0  0  0  0  0  0
   57.9136   34.4603   46.2787 H   0  0  0  0  0  0  0  0  0  0  0  0
   56.8186   33.8448   44.1199 H   0  0  0  0  0  0  0  0  0  0  0  0
   58.5940   29.4410   43.3130 H   0  0  0  0  0  0  0  0  0  0  0  0
   59.8949   27.5438   45.1315 H   0  0  0  0  0  0  0  0  0  0  0  0
   59.1942   25.4645   46.3209 H   0  0  0  0  0  0  0  0  0  0  0  0
   56.7842   25.0694   46.8360 H   0  0  0  0  0  0  0  0  0  0  0  0
   55.7613   28.8292   44.9579 H   0  0  0  0  0  0  0  0  0  0  0  0
   59.3455   30.3835   46.6376 H   0  0  0  0  0  0  0  0  0  0  0  0
   62.2587   33.3709   46.5409 H   0  0  0  0  0  0  0  0  0  0  0  0
   64.6524   32.9244   47.0732 H   0  0  0  0  0  0  0  0  0  0  0  0
  1  2  1  0
  2  3  2  0
  2  4  1  0
  4  5  1  0
  5  6  2  0
  6  7  1  0
  7  8  2  0
  8  9  1  0
  9 10  2  0
  9 11  2  0
  9 12  1  0
 12 13  2  3
 13 14  1  0
 14 15  2  0
 15 16  1  0
 16 17  1  0
 17 18  1  0
 18 19  1  0
 19 20  2  0
 20 21  1  0
 21 22  2  0
 22 23  1  0
 23 24  1  0
 23 25  2  0
 17 26  2  0
  8 27  1  0
 27 28  2  0
 28  5  1  0
 26 13  1  0
 25 19  1  0
  1 29  1  0
  1 30  1  0
  1 31  1  0
  4 32  1  0
  6 33  1  0
  7 34  1  0
 14 35  1  0
 15 36  1  0
 18 37  1  0
 20 38  1  0
 21 39  1  0
 22 40  1  0
 25 41  1  0
 26 42  1  0
 27 43  1  0
 28 44  1  0
M  CHG  2  16  -1  24  -1
M  END
>  <UniqueID>  (24) 
20

>  <SMILES>  (24) 
CC(=O)Nc1ccc(S(=O)(=O)N=c2cc[n-]c(Nc3cccc([O-])c3)c2)cc1

>  <Energy>  (24) 
60.58579446780219

>  <Genealogy>  (24) 
CC(=O)Nc1ccc(S(=O)(=O)N=c2cc[n-]c(Nc3cccc([O-])c3)c2)cc1 (protonated)
CC(=O)Nc1ccc(S(=O)(=O)N=c2cc[n-]c(Nc3cccc([O-])c3)c2)cc1 (3D coordinates assigned)
CC(=O)Nc1ccc(S(=O)(=O)N=c2cc[n-]c(Nc3cccc([O-])c3)c2)cc1 (optimized conformer: 60.58579446780219 kcal/mol)

>  <smiles>  (24) 
CC(=O)Nc1ccc(S(=O)(=O)N=c2cc[nH]c(Nc3cccc(O)c3)c2)cc1

>  <score_type>  (24) 
oracle

>  <origin>  (24) 
adg

>  <m_score__min__energy>  (24) 
-14.49

>  <m_primary>  (24) 
energy

$$$$
24:0
     RDKit          3D

 45 48  0  0  0  0  0  0  0  0999 V2000
   59.5360   28.4080   46.6990 O   0  0  0  0  0  0  0  0  0  0  0  0
   58.3120   28.6150   46.4850 C   0  0  0  0  0  0  0  0  0  0  0  0
   57.3620   27.6200   46.8910 N   0  0  0  0  0  0  0  0  0  0  0  0
   57.1730   26.3420   46.2620 C   0  0  0  0  0  0  0  0  0  0  0  0
   58.2960   25.5430   46.0090 C   0  0  0  0  0  0  0  0  0  0  0  0
   58.1510   24.2870   45.4150 C   0  0  0  0  0  0  0  0  0  0  0  0
   56.8830   23.8280   45.0490 C   0  0  0  0  0  0  0  0  0  0  0  0
   55.7610   24.6320   45.2620 C   0  0  0  0  0  0  0  0  0  0  0  0
   55.9000   25.8940   45.8520 C   0  0  0  0  0  0  0  0  0  0  0  0
   54.7780   26.7020   45.9960 O   0  0  0  0  0  0  0  0  0  0  0  0
   57.8950   29.8710   45.8220 C   0  0  0  0  0  0  0  0  0  0  0  0
   58.5510   31.0640   46.1670 C   0  0  0  0  0  0  0  0  0  0  0  0
   58.2500   32.2610   45.5060 C   0  0  0  0  0  0  0  0  0  0  0  0
   59.0950   33.7390   45.9530 S   0  0  0  0  0  0  0  0  0  0  0  0
   60.0470   34.1110   44.8520 O   0  0  0  0  0  0  0  0  0  0  0  0
   58.1200   34.8640   46.1610 O   0  0  0  0  0  0  0  0  0  0  0  0
   59.9710   33.4770   47.4250 N   0  0  0  0  0  0  0  0  0  0  0  0
   59.3620   33.3950   48.7500 C   0  0  0  0  0  0  0  0  0  0  0  0
   60.5410   33.2690   49.7480 C   0  0  0  0  0  0  0  0  0  0  0  0
   61.7460   33.3340   48.8720 C   0  0  0  0  0  0  0  0  0  0  0  0
   63.0910   33.2830   49.2460 C   0  0  0  0  0  0  0  0  0  0  0  0
   64.0700   33.3600   48.2410 C   0  0  0  0  0  0  0  0  0  0  0  0
   63.6910   33.4820   46.8890 C   0  0  0  0  0  0  0  0  0  0  0  0
   62.3310   33.5280   46.5370 C   0  0  0  0  0  0  0  0  0  0  0  0
   61.3790   33.4520   47.5590 C   0  0  0  0  0  0  0  0  0  0  0  0
   57.2850   32.2710   44.4940 C   0  0  0  0  0  0  0  0  0  0  0  0
   56.6020   31.0980   44.1660 C   0  0  0  0  0  0  0  0  0  0  0  0
   56.8810   29.9020   44.8350 C   0  0  0  0  0  0  0  0  0  0  0  0
   56.1140   28.7780   44.5220 O   0  0  0  0  0  0  0  0  0  0  0  0
   59.2980   25.9071   46.2798 H   0  0  0  0  0  0  0  0  0  0  0  0
   59.0358   23.6587   45.2352 H   0  0  0  0  0  0  0  0  0  0  0  0
   56.7685   22.8335   44.5931 H   0  0  0  0  0  0  0  0  0  0  0  0
   54.7647   24.2724   44.9652 H   0  0  0  0  0  0  0  0  0  0  0  0
   59.3087   31.0579   46.9644 H   0  0  0  0  0  0  0  0  0  0  0  0
   58.7774   34.3028   48.9600 H   0  0  0  0  0  0  0  0  0  0  0  0
   58.6725   32.5414   48.8272 H   0  0  0  0  0  0  0  0  0  0  0  0
   60.5349   34.0983   50.4707 H   0  0  0  0  0  0  0  0  0  0  0  0
   60.4972   32.3490   50.3494 H   0  0  0  0  0  0  0  0  0  0  0  0
   63.3773   33.1848   50.3035 H   0  0  0  0  0  0  0  0  0  0  0  0
   65.1359   33.3249   48.5104 H   0  0  0  0  0  0  0  0  0  0  0  0
   64.4621   33.5414   46.1067 H   0  0  0  0  0  0  0  0  0  0  0  0
   62.0233   33.6214   45.4850 H   0  0  0  0  0  0  0  0  0  0  0  0
   57.0636   33.2043   43.9555 H   0  0  0  0  0  0  0  0  0  0  0  0
   55.8381   31.1149   43.3747 H   0  0  0  0  0  0  0  0  0  0  0  0
   56.2850   27.8670   44.9250 H   0  0  0  0  0  0  0  0  0  0  0  0
  1  2  2  0
  2  3  1  0
  3  4  1  0
  4  5  2  0
  5  6  1  0
  6  7  2  0
  7  8  1  0
  8  9  2  0
  9 10  1  0
  2 11  1  0
 11 12  2  0
 12 13  1  0
 13 14  1  0
 14 15  2  0
 14 16  2  0
 14 17  1  0
 17 18  1  0
 18 19  1  0
 19 20  1  0
 20 21  2  0
 21 22  1  0
 22 23  2  0
 23 24  1  0
 24 25  2  0
 13 26  2  0
 26 27  1  0
 27 28  2  0
 28 29  1  0
  9  4  1  0
 28 11  1  0
 25 17  1  0
 25 20  1  0
  5 30  1  0
  6 31  1  0
  7 32  1  0
  8 33  1  0
 12 34  1  0
 18 35  1  0
 18 36  1  0
 19 37  1  0
 19 38  1  0
 21 39  1  0
 22 40  1  0
 23 41  1  0
 24 42  1  0
 26 43  1  0
 27 44  1  0
 29 45  1  0
M  CHG  2   3  -1  10  -1
M  END
>  <UniqueID>  (25) 
21

>  <SMILES>  (25) 
O=C([N-]c1ccccc1[O-])c1cc(S(=O)(=O)N2CCc3ccccc32)ccc1O

>  <Energy>  (25) 
75.81831825121947

>  <Genealogy>  (25) 
O=C([N-]c1ccccc1[O-])c1cc(S(=O)(=O)N2CCc3ccccc32)ccc1O (protonated)
O=C([N-]c1ccccc1[O-])c1cc(S(=O)(=O)N2CCc3ccccc32)ccc1O (3D coordinates assigned)
O=C([N-]c1ccccc1[O-])c1cc(S(=O)(=O)N2CCc3ccccc32)ccc1O (nonaromatic ring conformer: 75.81831825121947 kcal/mol)

>  <smiles>  (25) 
O=C(Nc1ccccc1O)c1cc(S(=O)(=O)N2CCc3ccccc32)ccc1O

>  <score_type>  (25) 
oracle

>  <origin>  (25) 
adg

>  <m_score__min__energy>  (25) 
-15.539999999999999

>  <m_primary>  (25) 
energy

$$$$
25:0
     RDKit          3D

 49 51  0  0  0  0  0  0  0  0999 V2000
   60.9600   26.3940   46.4890 C   0  0  0  0  0  0  0  0  0  0  0  0
   59.8500   27.2310   45.9260 C   0  0  0  0  0  0  0  0  0  0  0  0
   60.1420   28.4000   45.2060 C   0  0  0  0  0  0  0  0  0  0  0  0
   59.1080   29.2030   44.7140 C   0  0  0  0  0  0  0  0  0  0  0  0
   57.7690   28.8490   44.9440 C   0  0  0  0  0  0  0  0  0  0  0  0
   56.4570   29.8540   44.3400 S   0  0  0  0  0  0  0  0  0  0  0  0
   55.1430   29.3420   44.8630 O   0  0  0  0  0  0  0  0  0  0  0  0
   56.4160   29.8110   42.8380 O   0  0  0  0  0  0  0  0  0  0  0  0
   56.7080   31.4920   44.8420 N   0  0  0  0  0  0  0  0  0  0  0  0
   57.8020   32.2950   44.3900 C   0  0  0  0  0  0  0  0  0  0  0  0
   58.1680   32.2480   43.1850 O   0  0  0  0  0  0  0  0  0  0  0  0
   58.4740   33.2130   45.3340 C   0  0  0  0  0  0  0  0  0  0  0  0
   58.8250   34.4990   44.8830 C   0  0  0  0  0  0  0  0  0  0  0  0
   59.5190   35.3780   45.7130 C   0  0  0  0  0  0  0  0  0  0  0  0
   59.8670   34.9920   47.0050 C   0  0  0  0  0  0  0  0  0  0  0  0
   59.5160   33.7260   47.4760 C   0  0  0  0  0  0  0  0  0  0  0  0
   58.8120   32.8230   46.6560 C   0  0  0  0  0  0  0  0  0  0  0  0
   58.3710   31.5570   47.1850 N   0  0  0  0  0  0  0  0  0  0  0  0
   59.2090   30.7080   48.4470 S   0  0  0  0  0  0  0  0  0  0  0  0
   59.2550   29.2440   48.1050 O   0  0  0  0  0  0  0  0  0  0  0  0
   58.4620   30.8810   49.7380 O   0  0  0  0  0  0  0  0  0  0  0  0
   60.8410   31.3430   48.6280 C   0  0  0  0  0  0  0  0  0  0  0  0
   61.7550   31.2470   47.5720 C   0  0  0  0  0  0  0  0  0  0  0  0
   63.0550   31.7440   47.7190 C   0  0  0  0  0  0  0  0  0  0  0  0
   63.4530   32.3360   48.9290 C   0  0  0  0  0  0  0  0  0  0  0  0
   64.8340   32.9020   49.0790 C   0  0  0  0  0  0  0  0  0  0  0  0
   62.5270   32.4530   49.9760 C   0  0  0  0  0  0  0  0  0  0  0  0
   61.2290   31.9540   49.8280 C   0  0  0  0  0  0  0  0  0  0  0  0
   57.4780   27.6920   45.6780 C   0  0  0  0  0  0  0  0  0  0  0  0
   58.5110   26.8920   46.1750 C   0  0  0  0  0  0  0  0  0  0  0  0
   60.9205   26.4238   47.5879 H   0  0  0  0  0  0  0  0  0  0  0  0
   60.8460   25.3551   46.1460 H   0  0  0  0  0  0  0  0  0  0  0  0
   61.9275   26.7893   46.1460 H   0  0  0  0  0  0  0  0  0  0  0  0
   61.1891   28.6859   45.0279 H   0  0  0  0  0  0  0  0  0  0  0  0
   59.3445   30.1144   44.1453 H   0  0  0  0  0  0  0  0  0  0  0  0
   58.5491   34.8136   43.8657 H   0  0  0  0  0  0  0  0  0  0  0  0
   59.7923   36.3786   45.3467 H   0  0  0  0  0  0  0  0  0  0  0  0
   60.4195   35.6861   47.6554 H   0  0  0  0  0  0  0  0  0  0  0  0
   59.7922   33.4302   48.4989 H   0  0  0  0  0  0  0  0  0  0  0  0
   57.5100   31.1050   46.8050 H   0  0  0  0  0  0  0  0  0  0  0  0
   61.4505   30.7796   46.6239 H   0  0  0  0  0  0  0  0  0  0  0  0
   63.7675   31.6708   46.8841 H   0  0  0  0  0  0  0  0  0  0  0  0
   65.0756   33.0010   50.1476 H   0  0  0  0  0  0  0  0  0  0  0  0
   65.5602   32.2290   48.5997 H   0  0  0  0  0  0  0  0  0  0  0  0
   64.8790   33.8911   48.5997 H   0  0  0  0  0  0  0  0  0  0  0  0
   62.8230   32.9392   50.9173 H   0  0  0  0  0  0  0  0  0  0  0  0
   60.5103   32.0414   50.6561 H   0  0  0  0  0  0  0  0  0  0  0  0
   56.4308   27.4114   45.8643 H   0  0  0  0  0  0  0  0  0  0  0  0
   58.2736   25.9935   46.7634 H   0  0  0  0  0  0  0  0  0  0  0  0
  1  2  1  0
  2  3  2  0
  3  4  1  0
  4  5  2  0
  5  6  1  0
  6  7  2  0
  6  8  2  0
  6  9  1  0
  9 10  1  0
 10 11  2  0
 10 12  1  0
 12 13  2  0
 13 14  1  0
 14 15  2  0
 15 16  1  0
 16 17  2  0
 17 18  1  0
 18 19  1  0
 19 20  2  0
 19 21  2  0
 19 22  1  0
 22 23  2  0
 23 24  1  0
 24 25  2  0
 25 26  1  0
 25 27  1  0
 27 28  2  0
  5 29  1  0
 29 30  2  0
 30  2  1  0
 17 12  1  0
 28 22  1  0
  1 31  1  0
  1 32  1  0
  1 33  1  0
  3 34  1  0
  4 35  1  0
 13 36  1  0
 14 37  1  0
 15 38  1  0
 16 39  1  0
 18 40  1  0
 23 41  1  0
 24 42  1  0
 26 43  1  0
 26 44  1  0
 26 45  1  0
 27 46  1  0
 28 47  1  0
 29 48  1  0
 30 49  1  0
M  CHG  1   9  -1
M  END
>  <UniqueID>  (26) 
22

>  <SMILES>  (26) 
Cc1ccc(S(=O)(=O)[N-]C(=O)c2ccccc2NS(=O)(=O)c2ccc(C)cc2)cc1

>  <Energy>  (26) 
61.28226335779847

>  <Genealogy>  (26) 
Cc1ccc(S(=O)(=O)[N-]C(=O)c2ccccc2NS(=O)(=O)c2ccc(C)cc2)cc1 (protonated)
Cc1ccc(S(=O)(=O)[N-]C(=O)c2ccccc2NS(=O)(=O)c2ccc(C)cc2)cc1 (3D coordinates assigned)
Cc1ccc(S(=O)(=O)[N-]C(=O)c2ccccc2NS(=O)(=O)c2ccc(C)cc2)cc1 (optimized conformer: 61.28226335779847 kcal/mol)

>  <smiles>  (26) 
Cc1ccc(S(=O)(=O)NC(=O)c2ccccc2NS(=O)(=O)c2ccc(C)cc2)cc1

>  <score_type>  (26) 
oracle

>  <origin>  (26) 
adg

>  <m_score__min__energy>  (26) 
-11.74

>  <m_primary>  (26) 
energy

$$$$
26:0
     RDKit          3D

 55 56  0  0  0  0  0  0  0  0999 V2000
   57.7340   31.4500   43.9730 H   0  0  0  0  0  0  0  0  0  0  0  0
   57.2880   30.5980   43.7280 O   0  0  0  0  0  0  0  0  0  0  0  0
   57.3440   29.7400   44.8410 C   0  0  0  0  0  0  0  0  0  0  0  0
   57.9500   28.8678   44.5547 H   0  0  0  0  0  0  0  0  0  0  0  0
   56.0660   29.2680   45.1900 O   0  0  0  0  0  0  0  0  0  0  0  0
   55.7850   29.7240   46.0250 H   0  0  0  0  0  0  0  0  0  0  0  0
   58.0310   30.3990   46.0140 C   0  0  0  0  0  0  0  0  0  0  0  0
   58.5040   31.6310   45.8670 O   0  0  0  0  0  0  0  0  0  0  0  0
   59.1420   32.2930   46.8270 C   0  0  0  0  0  0  0  0  0  0  0  0
   59.6600   33.6760   46.4760 C   0  0  1  0  0  0  0  0  0  0  0  0
   59.5166   34.3159   47.3591 H   0  0  0  0  0  0  0  0  0  0  0  0
   61.0300   33.6320   46.1710 O   0  0  0  0  0  0  0  0  0  0  0  0
   61.2370   32.6950   45.9150 H   0  0  0  0  0  0  0  0  0  0  0  0
   58.8670   34.3000   45.3080 C   0  0  1  0  0  0  0  0  0  0  0  0
   59.1707   35.3535   45.2193 H   0  0  0  0  0  0  0  0  0  0  0  0
   59.1600   33.6090   44.1200 O   0  0  0  0  0  0  0  0  0  0  0  0
   58.7330   32.7150   44.1940 H   0  0  0  0  0  0  0  0  0  0  0  0
   57.3500   34.2710   45.5630 C   0  0  0  0  0  0  0  0  0  0  0  0
   57.1684   34.2236   46.6469 H   0  0  0  0  0  0  0  0  0  0  0  0
   56.9059   35.1827   45.1370 H   0  0  0  0  0  0  0  0  0  0  0  0
   56.7570   33.1560   44.9490 O   0  0  0  0  0  0  0  0  0  0  0  0
   57.4600   32.4610   44.8720 H   0  0  0  0  0  0  0  0  0  0  0  0
   59.3440   31.6850   48.0900 C   0  0  0  0  0  0  0  0  0  0  0  0
   60.2250   32.2980   49.0440 N   0  0  0  0  0  0  0  0  0  0  0  0
   59.8190   32.7580   49.8890 H   0  0  0  0  0  0  0  0  0  0  0  0
   61.6370   32.4070   48.8150 C   0  0  0  0  0  0  0  0  0  0  0  0
   62.1420   31.9960   47.7350 O   0  0  0  0  0  0  0  0  0  0  0  0
   62.5090   33.0580   49.8380 C   0  0  0  0  0  0  0  0  0  0  0  0
   62.1539   32.7929   50.8448 H   0  0  0  0  0  0  0  0  0  0  0  0
   63.5450   32.7106   49.7113 H   0  0  0  0  0  0  0  0  0  0  0  0
   62.4704   34.1500   49.7113 H   0  0  0  0  0  0  0  0  0  0  0  0
   58.7810   30.3970   48.3140 C   0  0  0  0  0  0  0  0  0  0  0  0
   58.7910   29.7720   49.4620 N   0  0  0  0  0  0  0  0  0  0  0  0
   58.4910   30.2720   50.7690 C   0  0  0  0  0  0  0  0  0  0  0  0
   59.2880   31.0810   51.3140 O   0  0  0  0  0  0  0  0  0  0  0  0
   57.3550   29.7780   51.4910 N   0  0  0  0  0  0  0  0  0  0  0  0
   56.3430   30.6300   52.1060 C   0  0  0  0  0  0  0  0  0  0  0  0
   56.7708   31.1088   52.9991 H   0  0  0  0  0  0  0  0  0  0  0  0
   56.0318   31.3886   51.3727 H   0  0  0  0  0  0  0  0  0  0  0  0
   55.1120   29.8150   52.5160 C   0  0  0  0  0  0  0  0  0  0  0  0
   55.0450   28.9251   51.8728 H   0  0  0  0  0  0  0  0  0  0  0  0
   55.2274   29.5343   53.5733 H   0  0  0  0  0  0  0  0  0  0  0  0
   53.8400   30.6080   52.3820 C   0  0  0  0  0  0  0  0  0  0  0  0
   52.9750   30.7480   53.4810 C   0  0  0  0  0  0  0  0  0  0  0  0
   53.2425   30.3000   54.4494 H   0  0  0  0  0  0  0  0  0  0  0  0
   51.7750   31.4550   53.3480 C   0  0  0  0  0  0  0  0  0  0  0  0
   51.1038   31.5658   54.2124 H   0  0  0  0  0  0  0  0  0  0  0  0
   51.4280   32.0210   52.1170 C   0  0  0  0  0  0  0  0  0  0  0  0
   50.2340   32.7200   51.9870 O   0  0  0  0  0  0  0  0  0  0  0  0
   52.2800   31.8800   51.0190 C   0  0  0  0  0  0  0  0  0  0  0  0
   52.0054   32.3239   50.0507 H   0  0  0  0  0  0  0  0  0  0  0  0
   53.4810   31.1760   51.1480 C   0  0  0  0  0  0  0  0  0  0  0  0
   54.1476   31.0663   50.2799 H   0  0  0  0  0  0  0  0  0  0  0  0
   58.1700   29.7440   47.2410 C   0  0  0  0  0  0  0  0  0  0  0  0
   57.7987   28.7156   47.3614 H   0  0  0  0  0  0  0  0  0  0  0  0
  1  2  1  0
  2  3  1  0
  3  4  1  0
  3  5  1  0
  5  6  1  0
  3  7  1  0
  7  8  1  0
  8  9  1  0
  9 10  1  0
 10 11  1  1
 10 12  1  0
 12 13  1  0
 10 14  1  0
 14 15  1  6
 14 16  1  0
 16 17  1  0
 14 18  1  0
 18 19  1  0
 18 20  1  0
 18 21  1  0
 21 22  1  0
  9 23  2  0
 23 24  1  0
 24 25  1  0
 24 26  1  0
 26 27  2  0
 26 28  1  0
 28 29  1  0
 28 30  1  0
 28 31  1  0
 23 32  1  0
 32 33  2  0
 33 34  1  0
 34 35  2  0
 34 36  1  0
 36 37  1  0
 37 38  1  0
 37 39  1  0
 37 40  1  0
 40 41  1  0
 40 42  1  0
 40 43  1  0
 43 44  2  0
 44 45  1  0
 44 46  1  0
 46 47  1  0
 46 48  2  0
 48 49  1  0
 48 50  1  0
 50 51  1  0
 50 52  2  0
 52 53  1  0
 32 54  1  0
 54 55  1  0
 54  7  2  0
 52 43  1  0
M  CHG  2  36  -1  49  -1
M  END
>  <UniqueID>  (27) 
23

>  <SMILES>  (27) 
CC(=O)Nc1c([C@@H](O)[C@@H](O)CO)oc(C(O)O)c/c1=N/C(=O)[N-]CCc1ccc([O-])cc1

>  <Energy>  (27) 
68.71485823837772

>  <Genealogy>  (27) 
CC(=O)Nc1c(C(O)C(O)CO)oc(C(O)O)cc1=NC(=O)[N-]CCc1ccc([O-])cc1 (protonated)
CC(=O)Nc1c([C@@H](O)[C@@H](O)CO)oc(C(O)O)cc1=NC(=O)[N-]CCc1ccc([O-])cc1 (chirality)
CC(=O)Nc1c([C@@H](O)[C@@H](O)CO)oc(C(O)O)c/c1=N/C(=O)[N-]CCc1ccc([O-])cc1 (cis-trans isomerization)
CC(=O)Nc1c([C@@H](O)[C@@H](O)CO)oc(C(O)O)c/c1=N/C(=O)[N-]CCc1ccc([O-])cc1 (3D coordinates assigned)
CC(=O)Nc1c([C@@H](O)[C@@H](O)CO)oc(C(O)O)c/c1=N/C(=O)[N-]CCc1ccc([O-])cc1 (optimized conformer: 68.71485823837772 kcal/mol)

>  <smiles>  (27) 
CC(=O)Nc1c(C(O)C(O)CO)oc(C(O)O)cc1=NC(=O)NCCc1ccc(O)cc1

>  <score_type>  (27) 
oracle

>  <origin>  (27) 
adg

>  <m_score__min__energy>  (27) 
-10.699999999999999

>  <m_primary>  (27) 
energy

$$$$
27:0
     RDKit          3D

 57 60  0  0  0  0  0  0  0  0999 V2000
   60.7760   33.9930   47.6290 O   0  0  0  0  0  0  0  0  0  0  0  0
   59.7800   33.7740   48.3680 C   0  0  0  0  0  0  0  0  0  0  0  0
   59.8830   34.0660   49.7660 N   0  0  0  0  0  0  0  0  0  0  0  0
   59.1330   33.4370   50.8140 C   0  0  0  0  0  0  0  0  0  0  0  0
   58.8570   34.1000   52.0210 C   0  0  0  0  0  0  0  0  0  0  0  0
   58.1480   33.4500   53.0350 C   0  0  0  0  0  0  0  0  0  0  0  0
   57.7210   32.1280   52.8710 C   0  0  0  0  0  0  0  0  0  0  0  0
   57.0050   31.5270   53.9180 O   0  0  0  0  0  0  0  0  0  0  0  0
   56.3740   30.2470   53.8590 C   0  0  0  0  0  0  0  0  0  0  0  0
   55.0150   30.3420   53.2140 C   0  0  0  0  0  0  0  0  0  0  0  0
   53.8660   29.9610   53.9260 C   0  0  0  0  0  0  0  0  0  0  0  0
   52.6070   30.0360   53.3210 C   0  0  0  0  0  0  0  0  0  0  0  0
   52.4880   30.4780   52.0010 C   0  0  0  0  0  0  0  0  0  0  0  0
   53.6280   30.8440   51.2810 C   0  0  0  0  0  0  0  0  0  0  0  0
   54.8900   30.7720   51.8810 C   0  0  0  0  0  0  0  0  0  0  0  0
   58.0290   31.4530   51.6730 C   0  0  0  0  0  0  0  0  0  0  0  0
   58.7360   32.1050   50.6590 C   0  0  0  0  0  0  0  0  0  0  0  0
   58.5740   33.2090   47.8210 N   0  0  0  0  0  0  0  0  0  0  0  0
   58.3670   32.9560   46.4210 C   0  0  0  0  0  0  0  0  0  0  0  0
   58.7070   33.9420   45.4900 C   0  0  0  0  0  0  0  0  0  0  0  0
   58.5070   33.7260   44.1280 C   0  0  0  0  0  0  0  0  0  0  0  0
   57.9500   32.5260   43.6720 C   0  0  0  0  0  0  0  0  0  0  0  0
   57.7610   32.3290   41.9340 Cl  0  0  0  0  0  0  0  0  0  0  0  0
   57.5710   31.5310   44.6030 C   0  0  0  0  0  0  0  0  0  0  0  0
   56.8530   29.9820   44.1100 S   0  0  0  0  0  0  0  0  0  0  0  0
   55.5190   29.8320   44.7870 O   0  0  0  0  0  0  0  0  0  0  0  0
   56.6090   29.9630   42.6270 O   0  0  0  0  0  0  0  0  0  0  0  0
   57.8660   28.6260   44.5460 N   0  0  0  0  0  0  0  0  0  0  0  0
   59.2390   29.0710   44.8230 C   0  0  0  0  0  0  0  0  0  0  0  0
   60.1080   27.8760   45.2710 C   0  0  0  0  0  0  0  0  0  0  0  0
   59.3710   26.6680   45.2890 O   0  0  0  0  0  0  0  0  0  0  0  0
   58.2660   26.7950   46.1630 C   0  0  0  0  0  0  0  0  0  0  0  0
   57.3170   27.9260   45.7180 C   0  0  0  0  0  0  0  0  0  0  0  0
   57.7750   31.7640   45.9720 C   0  0  0  0  0  0  0  0  0  0  0  0
   59.2001   35.1346   52.1688 H   0  0  0  0  0  0  0  0  0  0  0  0
   57.9237   33.9829   53.9708 H   0  0  0  0  0  0  0  0  0  0  0  0
   57.0036   29.5627   53.2714 H   0  0  0  0  0  0  0  0  0  0  0  0
   56.2485   29.8713   54.8852 H   0  0  0  0  0  0  0  0  0  0  0  0
   53.9563   29.6027   54.9621 H   0  0  0  0  0  0  0  0  0  0  0  0
   51.7086   29.7463   53.8858 H   0  0  0  0  0  0  0  0  0  0  0  0
   51.4965   30.5379   51.5285 H   0  0  0  0  0  0  0  0  0  0  0  0
   53.5333   31.1893   50.2409 H   0  0  0  0  0  0  0  0  0  0  0  0
   55.7865   31.0524   51.3086 H   0  0  0  0  0  0  0  0  0  0  0  0
   57.7117   30.4088   51.5354 H   0  0  0  0  0  0  0  0  0  0  0  0
   58.9821   31.5664   49.7320 H   0  0  0  0  0  0  0  0  0  0  0  0
   57.7630   33.0510   48.4600 H   0  0  0  0  0  0  0  0  0  0  0  0
   59.1353   34.8947   45.8350 H   0  0  0  0  0  0  0  0  0  0  0  0
   58.7894   34.5055   43.4051 H   0  0  0  0  0  0  0  0  0  0  0  0
   59.6690   29.5110   43.9112 H   0  0  0  0  0  0  0  0  0  0  0  0
   59.2174   29.8202   45.6281 H   0  0  0  0  0  0  0  0  0  0  0  0
   60.9517   27.7680   44.5735 H   0  0  0  0  0  0  0  0  0  0  0  0
   60.4629   28.0753   46.2929 H   0  0  0  0  0  0  0  0  0  0  0  0
   57.7095   25.8462   46.1750 H   0  0  0  0  0  0  0  0  0  0  0  0
   58.6468   27.0400   47.1655 H   0  0  0  0  0  0  0  0  0  0  0  0
   56.3384   27.4964   45.4578 H   0  0  0  0  0  0  0  0  0  0  0  0
   57.2074   28.6448   46.5434 H   0  0  0  0  0  0  0  0  0  0  0  0
   57.4669   31.0024   46.7035 H   0  0  0  0  0  0  0  0  0  0  0  0
  1  2  2  0
  2  3  1  0
  3  4  1  0
  4  5  2  0
  5  6  1  0
  6  7  2  0
  7  8  1  0
  8  9  1  0
  9 10  1  0
 10 11  2  0
 11 12  1  0
 12 13  2  0
 13 14  1  0
 14 15  2  0
  7 16  1  0
 16 17  2  0
  2 18  1  0
 18 19  1  0
 19 20  2  0
 20 21  1  0
 21 22  2  0
 22 23  1  0
 22 24  1  0
 24 25  1  0
 25 26  2  0
 25 27  2  0
 25 28  1  0
 28 29  1  0
 29 30  1  0
 30 31  1  0
 31 32  1  0
 32 33  1  0
 24 34  2  0
 17  4  1  0
 34 19  1  0
 15 10  1  0
 33 28  1  0
  5 35  1  0
  6 36  1  0
  9 37  1  0
  9 38  1  0
 11 39  1  0
 12 40  1  0
 13 41  1  0
 14 42  1  0
 15 43  1  0
 16 44  1  0
 17 45  1  0
 18 46  1  0
 20 47  1  0
 21 48  1  0
 29 49  1  0
 29 50  1  0
 30 51  1  0
 30 52  1  0
 32 53  1  0
 32 54  1  0
 33 55  1  0
 33 56  1  0
 34 57  1  0
M  CHG  1   3  -1
M  END
>  <UniqueID>  (28) 
24

>  <SMILES>  (28) 
O=C([N-]c1ccc(OCc2ccccc2)cc1)Nc1ccc(Cl)c(S(=O)(=O)N2CCOCC2)c1

>  <Energy>  (28) 
78.01614123310961

>  <Genealogy>  (28) 
O=C([N-]c1ccc(OCc2ccccc2)cc1)Nc1ccc(Cl)c(S(=O)(=O)N2CCOCC2)c1 (protonated)
O=C([N-]c1ccc(OCc2ccccc2)cc1)Nc1ccc(Cl)c(S(=O)(=O)N2CCOCC2)c1 (3D coordinates assigned)
O=C([N-]c1ccc(OCc2ccccc2)cc1)Nc1ccc(Cl)c(S(=O)(=O)N2CCOCC2)c1 (nonaromatic ring conformer: 78.01614123310961 kcal/mol)

>  <smiles>  (28) 
O=C(Nc1ccc(OCc2ccccc2)cc1)Nc1ccc(Cl)c(S(=O)(=O)N2CCOCC2)c1

>  <score_type>  (28) 
oracle

>  <origin>  (28) 
adg

>  <m_score__min__energy>  (28) 
-12.130000000000001

>  <m_primary>  (28) 
energy

$$$$
28:0
     RDKit          3D

 39 41  0  0  0  0  0  0  0  0999 V2000
   55.5180   28.8330   44.9050 N   0  0  0  0  0  0  0  0  0  0  0  0
   56.6780   29.9670   44.3100 S   0  0  0  0  0  0  0  0  0  0  0  0
   56.8790   29.7490   42.8370 O   0  0  0  0  0  0  0  0  0  0  0  0
   56.1720   31.3650   44.5260 O   0  0  0  0  0  0  0  0  0  0  0  0
   58.2040   29.7480   45.1610 C   0  0  0  0  0  0  0  0  0  0  0  0
   59.2900   29.1390   44.5190 C   0  0  0  0  0  0  0  0  0  0  0  0
   60.4990   28.9660   45.1960 C   0  0  0  0  0  0  0  0  0  0  0  0
   60.6270   29.3870   46.5230 C   0  0  0  0  0  0  0  0  0  0  0  0
   59.5350   29.9720   47.1890 C   0  0  0  0  0  0  0  0  0  0  0  0
   59.6450   30.4340   48.5460 N   0  0  0  0  0  0  0  0  0  0  0  0
   60.5320   29.8650   49.5210 C   0  0  0  0  0  0  0  0  0  0  0  0
   61.0520   28.7320   49.3320 O   0  0  0  0  0  0  0  0  0  0  0  0
   60.7960   30.5910   50.8050 C   0  0  0  0  0  0  0  0  0  0  0  0
   59.8920   31.6830   50.9540 O   0  0  0  0  0  0  0  0  0  0  0  0
   60.1520   32.9670   50.4610 C   0  0  0  0  0  0  0  0  0  0  0  0
   60.7670   33.8140   51.1660 O   0  0  0  0  0  0  0  0  0  0  0  0
   59.7040   33.3220   49.1120 C   0  0  0  0  0  0  0  0  0  0  0  0
   60.4560   34.0060   48.1580 C   0  0  0  0  0  0  0  0  0  0  0  0
   59.6190   34.0960   47.0700 C   0  0  0  0  0  0  0  0  0  0  0  0
   59.8110   34.6690   45.8150 C   0  0  0  0  0  0  0  0  0  0  0  0
   58.7490   34.6000   44.8950 C   0  0  0  0  0  0  0  0  0  0  0  0
   57.5360   33.9660   45.2480 C   0  0  0  0  0  0  0  0  0  0  0  0
   57.3750   33.3960   46.5240 C   0  0  0  0  0  0  0  0  0  0  0  0
   58.4440   33.4810   47.4140 C   0  0  0  0  0  0  0  0  0  0  0  0
   58.5070   33.0220   48.6390 O   0  0  0  0  0  0  0  0  0  0  0  0
   58.3320   30.1640   46.4940 C   0  0  0  0  0  0  0  0  0  0  0  0
   54.6260   29.3570   45.0480 H   0  0  0  0  0  0  0  0  0  0  0  0
   59.1901   28.7961   43.4786 H   0  0  0  0  0  0  0  0  0  0  0  0
   61.3525   28.4975   44.6841 H   0  0  0  0  0  0  0  0  0  0  0  0
   61.5852   29.2603   47.0481 H   0  0  0  0  0  0  0  0  0  0  0  0
   58.9990   31.1930   48.8640 H   0  0  0  0  0  0  0  0  0  0  0  0
   60.6664   29.8958   51.6476 H   0  0  0  0  0  0  0  0  0  0  0  0
   61.8250   30.9795   50.7899 H   0  0  0  0  0  0  0  0  0  0  0  0
   61.4836   34.3867   48.2534 H   0  0  0  0  0  0  0  0  0  0  0  0
   60.7604   35.1586   45.5523 H   0  0  0  0  0  0  0  0  0  0  0  0
   58.8633   35.0423   43.8944 H   0  0  0  0  0  0  0  0  0  0  0  0
   56.7126   33.9180   44.5202 H   0  0  0  0  0  0  0  0  0  0  0  0
   56.4360   32.8994   46.8099 H   0  0  0  0  0  0  0  0  0  0  0  0
   57.4814   30.6451   46.9990 H   0  0  0  0  0  0  0  0  0  0  0  0
  1  2  1  0
  2  3  2  0
  2  4  2  0
  2  5  1  0
  5  6  2  0
  6  7  1  0
  7  8  2  0
  8  9  1  0
  9 10  1  0
 10 11  1  0
 11 12  2  0
 11 13  1  0
 13 14  1  0
 14 15  1  0
 15 16  2  0
 15 17  1  0
 17 18  2  0
 18 19  1  0
 19 20  2  0
 20 21  1  0
 21 22  2  0
 22 23  1  0
 23 24  2  0
 24 25  1  0
  9 26  2  0
 26  5  1  0
 25 17  1  0
 24 19  1  0
  1 27  1  0
  6 28  1  0
  7 29  1  0
  8 30  1  0
 10 31  1  0
 13 32  1  0
 13 33  1  0
 18 34  1  0
 20 35  1  0
 21 36  1  0
 22 37  1  0
 23 38  1  0
 26 39  1  0
M  CHG  1   1  -1
M  END
>  <UniqueID>  (29) 
25

>  <SMILES>  (29) 
[NH-]S(=O)(=O)c1cccc(NC(=O)COC(=O)c2cc3ccccc3o2)c1

>  <Energy>  (29) 
74.3809493713321

>  <Genealogy>  (29) 
[NH-]S(=O)(=O)c1cccc(NC(=O)COC(=O)c2cc3ccccc3o2)c1 (protonated)
[NH-]S(=O)(=O)c1cccc(NC(=O)COC(=O)c2cc3ccccc3o2)c1 (3D coordinates assigned)
[NH-]S(=O)(=O)c1cccc(NC(=O)COC(=O)c2cc3ccccc3o2)c1 (optimized conformer: 74.3809493713321 kcal/mol)

>  <smiles>  (29) 
NS(=O)(=O)c1cccc(NC(=O)COC(=O)c2cc3ccccc3o2)c1

>  <score_type>  (29) 
oracle

>  <origin>  (29) 
adg

>  <m_score__min__energy>  (29) 
-12.08

>  <m_primary>  (29) 
energy

$$$$
29:0
     RDKit          3D

 54 57  0  0  0  0  0  0  0  0999 V2000
   60.9040   28.9310   45.4510 O   0  0  0  0  0  0  0  0  0  0  0  0
   59.9720   29.5150   46.0690 C   0  0  0  0  0  0  0  0  0  0  0  0
   60.2770   30.5260   47.0330 N   0  0  0  0  0  0  0  0  0  0  0  0
   61.6390   30.8580   47.4270 C   0  0  0  0  0  0  0  0  0  0  0  0
   61.7360   30.8910   48.9520 C   0  0  0  0  0  0  0  0  0  0  0  0
   63.1020   31.3910   49.4670 C   0  0  0  0  0  0  0  0  0  0  0  0
   62.9910   32.3060   50.6420 N   0  0  0  0  0  0  0  0  0  0  0  0
   61.6730   32.1800   51.3350 C   0  0  0  0  0  0  0  0  0  0  0  0
   60.6400   33.2490   50.9190 C   0  0  0  0  0  0  0  0  0  0  0  0
   60.9120   33.7210   49.5590 N   0  0  0  0  0  0  0  0  0  0  0  0
   59.9160   33.6400   48.5230 C   0  0  0  0  0  0  0  0  0  0  0  0
   58.7760   32.8340   48.6930 C   0  0  0  0  0  0  0  0  0  0  0  0
   57.8020   32.7680   47.6940 C   0  0  0  0  0  0  0  0  0  0  0  0
   57.9500   33.5110   46.5190 C   0  0  0  0  0  0  0  0  0  0  0  0
   59.0740   34.3250   46.3440 C   0  0  0  0  0  0  0  0  0  0  0  0
   59.2500   35.2710   44.8780 Cl  0  0  0  0  0  0  0  0  0  0  0  0
   60.0510   34.3920   47.3420 C   0  0  0  0  0  0  0  0  0  0  0  0
   62.2440   34.2600   49.2680 C   0  0  0  0  0  0  0  0  0  0  0  0
   63.2800   33.7120   50.2670 C   0  0  0  0  0  0  0  0  0  0  0  0
   58.5710   29.0990   45.8450 C   0  0  0  0  0  0  0  0  0  0  0  0
   57.6860   30.0370   45.2890 C   0  0  0  0  0  0  0  0  0  0  0  0
   56.3740   29.6690   44.9890 C   0  0  0  0  0  0  0  0  0  0  0  0
   55.5850   30.5060   44.4740 O   0  0  0  0  0  0  0  0  0  0  0  0
   55.9440   28.4090   45.2450 N   0  0  0  0  0  0  0  0  0  0  0  0
   56.7530   27.4720   45.8050 C   0  0  0  0  0  0  0  0  0  0  0  0
   56.2480   26.1930   46.0660 C   0  0  0  0  0  0  0  0  0  0  0  0
   57.0550   25.2310   46.6750 C   0  0  0  0  0  0  0  0  0  0  0  0
   58.3650   25.5440   47.0380 C   0  0  0  0  0  0  0  0  0  0  0  0
   58.8850   26.8170   46.7790 C   0  0  0  0  0  0  0  0  0  0  0  0
   58.0950   27.7950   46.1360 C   0  0  0  0  0  0  0  0  0  0  0  0
   62.3301   30.0987   47.0322 H   0  0  0  0  0  0  0  0  0  0  0  0
   61.9071   31.8448   47.0217 H   0  0  0  0  0  0  0  0  0  0  0  0
   60.9519   31.5595   49.3372 H   0  0  0  0  0  0  0  0  0  0  0  0
   61.6123   29.8577   49.3083 H   0  0  0  0  0  0  0  0  0  0  0  0
   63.7055   30.5190   49.7592 H   0  0  0  0  0  0  0  0  0  0  0  0
   63.5683   31.9630   48.6513 H   0  0  0  0  0  0  0  0  0  0  0  0
   63.7310   32.0440   51.3370 H   0  0  0  0  0  0  0  0  0  0  0  0
   61.2555   31.1883   51.1066 H   0  0  0  0  0  0  0  0  0  0  0  0
   61.8633   32.3224   52.4090 H   0  0  0  0  0  0  0  0  0  0  0  0
   59.6313   32.8118   50.9558 H   0  0  0  0  0  0  0  0  0  0  0  0
   60.7089   34.1002   51.6123 H   0  0  0  0  0  0  0  0  0  0  0  0
   58.6507   32.2522   49.6181 H   0  0  0  0  0  0  0  0  0  0  0  0
   56.9166   32.1300   47.8321 H   0  0  0  0  0  0  0  0  0  0  0  0
   57.1829   33.4555   45.7325 H   0  0  0  0  0  0  0  0  0  0  0  0
   60.9310   35.0371   47.2026 H   0  0  0  0  0  0  0  0  0  0  0  0
   62.5366   33.9699   48.2481 H   0  0  0  0  0  0  0  0  0  0  0  0
   62.2105   35.3559   49.3568 H   0  0  0  0  0  0  0  0  0  0  0  0
   64.2783   33.7603   49.8076 H   0  0  0  0  0  0  0  0  0  0  0  0
   63.2351   34.3260   51.1786 H   0  0  0  0  0  0  0  0  0  0  0  0
   58.0277   31.0634   45.0897 H   0  0  0  0  0  0  0  0  0  0  0  0
   55.2123   25.9454   45.7904 H   0  0  0  0  0  0  0  0  0  0  0  0
   56.6573   24.2240   46.8691 H   0  0  0  0  0  0  0  0  0  0  0  0
   58.9924   24.7863   47.5303 H   0  0  0  0  0  0  0  0  0  0  0  0
   59.9159   27.0574   47.0782 H   0  0  0  0  0  0  0  0  0  0  0  0
  1  2  2  0
  2  3  1  0
  3  4  1  0
  4  5  1  0
  5  6  1  0
  6  7  1  0
  7  8  1  0
  8  9  1  0
  9 10  1  0
 10 11  1  0
 11 12  2  0
 12 13  1  0
 13 14  2  0
 14 15  1  0
 15 16  1  0
 15 17  2  0
 10 18  1  0
 18 19  1  0
  2 20  1  0
 20 21  2  0
 21 22  1  0
 22 23  2  0
 22 24  1  0
 24 25  1  0
 25 26  2  0
 26 27  1  0
 27 28  2  0
 28 29  1  0
 29 30  2  0
 19  7  1  0
 30 20  1  0
 17 11  1  0
 30 25  1  0
  4 31  1  0
  4 32  1  0
  5 33  1  0
  5 34  1  0
  6 35  1  0
  6 36  1  0
  7 37  1  0
  8 38  1  0
  8 39  1  0
  9 40  1  0
  9 41  1  0
 12 42  1  0
 13 43  1  0
 14 44  1  0
 17 45  1  0
 18 46  1  0
 18 47  1  0
 19 48  1  0
 19 49  1  0
 21 50  1  0
 26 51  1  0
 27 52  1  0
 28 53  1  0
 29 54  1  0
M  CHG  3   3  -1   7   1  24  -1
M  END
>  <UniqueID>  (30) 
26

>  <SMILES>  (30) 
O=C([N-]CCC[NH+]1CCN(c2cccc(Cl)c2)CC1)c1cc(=O)[n-]c2ccccc12

>  <Energy>  (30) 
77.31917632582282

>  <Genealogy>  (30) 
O=C([N-]CCC[NH+]1CCN(c2cccc(Cl)c2)CC1)c1cc(=O)[n-]c2ccccc12 (protonated)
O=C([N-]CCC[NH+]1CCN(c2cccc(Cl)c2)CC1)c1cc(=O)[n-]c2ccccc12 (3D coordinates assigned)
O=C([N-]CCC[NH+]1CCN(c2cccc(Cl)c2)CC1)c1cc(=O)[n-]c2ccccc12 (nonaromatic ring conformer: 77.31917632582282 kcal/mol)

>  <smiles>  (30) 
O=C(NCCCN1CCN(c2cccc(Cl)c2)CC1)c1cc(=O)[nH]c2ccccc12

>  <score_type>  (30) 
oracle

>  <origin>  (30) 
adg

>  <m_score__min__energy>  (30) 
-11.07

>  <m_primary>  (30) 
energy

$$$$
30:0
     RDKit          3D

 37 38  0  0  0  0  0  0  0  0999 V2000
   60.3710   29.3190   46.2710 C   0  0  0  0  0  0  0  0  0  0  0  0
   60.2710   28.1890   45.2250 C   0  0  0  0  0  0  0  0  0  0  0  0
   59.9460   26.9640   45.9830 C   0  0  0  0  0  0  0  0  0  0  0  0
   58.5740   26.4840   45.9790 C   0  0  0  0  0  0  0  0  0  0  0  0
   58.2460   25.1550   45.9780 N   0  0  0  0  0  0  0  0  0  0  0  0
   56.9620   24.9800   45.9860 N   0  0  0  0  0  0  0  0  0  0  0  0
   56.4030   26.1990   45.9940 C   0  0  0  0  0  0  0  0  0  0  0  0
   55.1570   26.3770   46.0040 O   0  0  0  0  0  0  0  0  0  0  0  0
   57.4080   27.1730   45.9900 C   0  0  0  0  0  0  0  0  0  0  0  0
   57.0930   28.5460   45.9810 N   0  0  0  0  0  0  0  0  0  0  0  0
   56.6270   29.4650   44.6120 S   0  0  0  0  0  0  0  0  0  0  0  0
   55.1780   29.6790   44.4460 O   0  0  0  0  0  0  0  0  0  0  0  0
   57.1040   28.7780   43.3340 O   0  0  0  0  0  0  0  0  0  0  0  0
   57.3990   31.0620   44.7180 C   0  0  0  0  0  0  0  0  0  0  0  0
   57.5910   31.8360   43.6080 C   0  0  0  0  0  0  0  0  0  0  0  0
   58.2030   33.0830   43.7540 C   0  0  0  0  0  0  0  0  0  0  0  0
   58.6000   33.5010   45.0210 C   0  0  0  0  0  0  0  0  0  0  0  0
   59.2570   34.8130   45.2530 C   0  0  0  0  0  0  0  0  0  0  0  0
   58.3930   32.6980   46.1240 C   0  0  0  0  0  0  0  0  0  0  0  0
   57.7910   31.4630   45.9990 C   0  0  0  0  0  0  0  0  0  0  0  0
   60.3328   28.8872   47.2820 H   0  0  0  0  0  0  0  0  0  0  0  0
   61.3204   29.8585   46.1383 H   0  0  0  0  0  0  0  0  0  0  0  0
   59.5311   30.0168   46.1383 H   0  0  0  0  0  0  0  0  0  0  0  0
   59.4767   28.4106   44.4970 H   0  0  0  0  0  0  0  0  0  0  0  0
   61.2080   28.0777   44.6597 H   0  0  0  0  0  0  0  0  0  0  0  0
   60.5728   26.1563   45.5771 H   0  0  0  0  0  0  0  0  0  0  0  0
   60.1285   27.2424   47.0314 H   0  0  0  0  0  0  0  0  0  0  0  0
   58.9370   24.3530   45.9700 H   0  0  0  0  0  0  0  0  0  0  0  0
   56.4550   24.0480   45.9870 H   0  0  0  0  0  0  0  0  0  0  0  0
   57.1560   29.0400   46.9230 H   0  0  0  0  0  0  0  0  0  0  0  0
   57.2692   31.4831   42.6171 H   0  0  0  0  0  0  0  0  0  0  0  0
   58.3693   33.7272   42.8780 H   0  0  0  0  0  0  0  0  0  0  0  0
   59.3466   34.9920   46.3346 H   0  0  0  0  0  0  0  0  0  0  0  0
   60.2585   34.8071   44.7981 H   0  0  0  0  0  0  0  0  0  0  0  0
   58.6523   35.6114   44.7981 H   0  0  0  0  0  0  0  0  0  0  0  0
   58.7125   33.0475   47.1169 H   0  0  0  0  0  0  0  0  0  0  0  0
   57.6255   30.8178   46.8744 H   0  0  0  0  0  0  0  0  0  0  0  0
  1  2  1  0
  2  3  1  0
  3  4  1  0
  4  5  1  0
  5  6  1  0
  6  7  1  0
  7  8  2  0
  7  9  1  0
  9 10  1  0
 10 11  1  0
 11 12  2  0
 11 13  2  0
 11 14  1  0
 14 15  2  0
 15 16  1  0
 16 17  2  0
 17 18  1  0
 17 19  1  0
 19 20  2  0
  9  4  2  0
 20 14  1  0
  1 21  1  0
  1 22  1  0
  1 23  1  0
  2 24  1  0
  2 25  1  0
  3 26  1  0
  3 27  1  0
  5 28  1  0
  6 29  1  0
 10 30  1  0
 15 31  1  0
 16 32  1  0
 18 33  1  0
 18 34  1  0
 18 35  1  0
 19 36  1  0
 20 37  1  0
M  END
>  <smiles>  (31) 
CCCc1[nH][nH]c(=O)c1NS(=O)(=O)c1ccc(C)cc1

>  <score_type>  (31) 
oracle

>  <origin>  (31) 
adg

>  <m_score__min__energy>  (31) 
-7.3200000000000003

>  <m_primary>  (31) 
energy

$$$$
31:0
     RDKit          3D

 39 40  0  0  0  0  0  0  0  0999 V2000
   60.3970   31.0810   46.6070 C   0  0  0  0  0  0  0  0  0  0  0  0
   60.2620   29.9550   45.7810 O   0  0  0  0  0  0  0  0  0  0  0  0
   59.6810   28.7600   46.1540 C   0  0  0  0  0  0  0  0  0  0  0  0
   60.0880   28.0870   47.2870 C   0  0  0  0  0  0  0  0  0  0  0  0
   59.4520   26.9000   47.5850 C   0  0  0  0  0  0  0  0  0  0  0  0
   58.4460   26.3720   46.8110 C   0  0  0  0  0  0  0  0  0  0  0  0
   57.7450   25.1080   47.0900 C   0  0  0  0  0  0  0  0  0  0  0  0
   57.2090   24.4170   45.9130 C   0  0  0  0  0  0  0  0  0  0  0  0
   57.8920   23.2990   45.4210 C   0  0  0  0  0  0  0  0  0  0  0  0
   57.4330   22.6340   44.3440 N   0  0  0  0  0  0  0  0  0  0  0  0
   56.2960   23.0230   43.6980 C   0  0  0  0  0  0  0  0  0  0  0  0
   55.8730   22.3700   42.6660 N   0  0  0  0  0  0  0  0  0  0  0  0
   55.6300   24.0930   44.1570 N   0  0  0  0  0  0  0  0  0  0  0  0
   56.0710   24.7710   45.2330 C   0  0  0  0  0  0  0  0  0  0  0  0
   55.3950   25.7930   45.6310 N   0  0  0  0  0  0  0  0  0  0  0  0
   58.0760   27.0910   45.6810 C   0  0  0  0  0  0  0  0  0  0  0  0
   58.6670   28.2800   45.3250 C   0  0  0  0  0  0  0  0  0  0  0  0
   58.2540   28.9840   44.1560 N   0  0  0  0  0  0  0  0  0  0  0  0
   56.6480   29.5760   43.9860 S   0  0  0  0  0  0  0  0  0  0  0  0
   56.6160   31.3320   44.3640 C   0  0  0  0  0  0  0  0  0  0  0  0
   55.6680   28.9240   44.9050 O   0  0  0  0  0  0  0  0  0  0  0  0
   56.2540   29.4170   42.5450 O   0  0  0  0  0  0  0  0  0  0  0  0
   60.3596   30.7690   47.6612 H   0  0  0  0  0  0  0  0  0  0  0  0
   61.3604   31.5715   46.4037 H   0  0  0  0  0  0  0  0  0  0  0  0
   59.5769   31.7853   46.4037 H   0  0  0  0  0  0  0  0  0  0  0  0
   60.8895   28.4820   47.9286 H   0  0  0  0  0  0  0  0  0  0  0  0
   59.7646   26.3497   48.4847 H   0  0  0  0  0  0  0  0  0  0  0  0
   58.4525   24.4299   47.5896 H   0  0  0  0  0  0  0  0  0  0  0  0
   56.8759   25.3721   47.7103 H   0  0  0  0  0  0  0  0  0  0  0  0
   58.8125   22.9603   45.9189 H   0  0  0  0  0  0  0  0  0  0  0  0
   57.9320   21.7920   43.9590 H   0  0  0  0  0  0  0  0  0  0  0  0
   56.2500   22.5920   41.7360 H   0  0  0  0  0  0  0  0  0  0  0  0
   54.7610   24.3950   43.6700 H   0  0  0  0  0  0  0  0  0  0  0  0
   55.5220   26.7610   45.2730 H   0  0  0  0  0  0  0  0  0  0  0  0
   57.2744   26.6909   45.0428 H   0  0  0  0  0  0  0  0  0  0  0  0
   58.9910   29.1180   43.4000 H   0  0  0  0  0  0  0  0  0  0  0  0
   56.6134   31.4722   45.4550 H   0  0  0  0  0  0  0  0  0  0  0  0
   57.5055   31.8159   43.9342 H   0  0  0  0  0  0  0  0  0  0  0  0
   55.7095   31.7831   43.9342 H   0  0  0  0  0  0  0  0  0  0  0  0
  1  2  1  0
  2  3  1  0
  3  4  2  0
  4  5  1  0
  5  6  2  0
  6  7  1  0
  7  8  1  0
  8  9  2  0
  9 10  1  0
 10 11  1  0
 11 12  2  3
 11 13  1  0
 13 14  1  0
 14 15  2  3
  6 16  1  0
 16 17  2  0
 17 18  1  0
 18 19  1  0
 19 20  1  0
 19 21  2  0
 19 22  2  0
 17  3  1  0
 14  8  1  0
  1 23  1  0
  1 24  1  0
  1 25  1  0
  4 26  1  0
  5 27  1  0
  7 28  1  0
  7 29  1  0
  9 30  1  0
 10 31  1  0
 12 32  1  0
 13 33  1  0
 15 34  1  0
 16 35  1  0
 18 36  1  0
 20 37  1  0
 20 38  1  0
 20 39  1  0
M  END
>  <smiles>  (32) 
COc1ccc(Cc2c[nH]c(=N)[nH]c2=N)cc1NS(C)(=O)=O

>  <score_type>  (32) 
oracle

>  <origin>  (32) 
adg

>  <m_score__min__energy>  (32) 
-7.3600000000000003

>  <m_primary>  (32) 
energy

$$$$
32:0
     RDKit          3D

 35 37  0  0  0  0  0  0  0  0999 V2000
   58.9346   21.1566   43.2366 H   0  0  0  0  0  0  0  0  0  0  0  0
   58.0910   21.6280   43.7620 C   0  0  0  0  0  0  0  0  0  0  0  0
   56.9970   22.0990   43.0380 C   0  0  0  0  0  0  0  0  0  0  0  0
   56.9783   21.9995   41.9427 H   0  0  0  0  0  0  0  0  0  0  0  0
   55.9250   22.6970   43.7030 C   0  0  0  0  0  0  0  0  0  0  0  0
   55.0620   23.0632   43.1275 H   0  0  0  0  0  0  0  0  0  0  0  0
   55.9390   22.8350   45.1000 C   0  0  0  0  0  0  0  0  0  0  0  0
   54.7470   23.4640   45.7820 C   0  0  0  0  0  0  0  0  0  0  0  0
   54.1025   23.9331   45.0239 H   0  0  0  0  0  0  0  0  0  0  0  0
   54.1926   22.6815   46.3208 H   0  0  0  0  0  0  0  0  0  0  0  0
   55.1800   24.4800   46.7400 N   0  0  0  0  0  0  0  0  0  0  0  0
   56.0120   25.4400   46.4630 C   0  0  0  0  0  0  0  0  0  0  0  0
   55.6280   26.6420   45.9500 N   0  0  0  0  0  0  0  0  0  0  0  0
   56.8040   27.2860   45.8270 C   0  0  0  0  0  0  0  0  0  0  0  0
   57.8260   26.4990   46.2440 C   0  0  0  0  0  0  0  0  0  0  0  0
   59.1320   26.9560   46.1820 C   0  0  0  0  0  0  0  0  0  0  0  0
   60.0980   26.2430   46.5630 O   0  0  0  0  0  0  0  0  0  0  0  0
   59.3430   28.2070   45.6860 N   0  0  0  0  0  0  0  0  0  0  0  0
   58.3050   28.9980   45.2640 C   0  0  0  0  0  0  0  0  0  0  0  0
   58.5580   30.1410   44.7970 O   0  0  0  0  0  0  0  0  0  0  0  0
   57.0040   28.5470   45.3470 N   0  0  0  0  0  0  0  0  0  0  0  0
   55.8740   29.3520   44.8670 C   0  0  0  0  0  0  0  0  0  0  0  0
   55.3156   29.7498   45.7272 H   0  0  0  0  0  0  0  0  0  0  0  0
   56.2510   30.1862   44.2571 H   0  0  0  0  0  0  0  0  0  0  0  0
   55.2087   28.7232   44.2571 H   0  0  0  0  0  0  0  0  0  0  0  0
   57.3480   25.3180   46.6570 N   0  0  0  0  0  0  0  0  0  0  0  0
   57.8780   24.4990   47.0280 H   0  0  0  0  0  0  0  0  0  0  0  0
   57.0450   22.3560   45.8390 C   0  0  0  0  0  0  0  0  0  0  0  0
   57.0470   22.4910   47.2370 O   0  0  0  0  0  0  0  0  0  0  0  0
   56.2790   21.6910   48.1290 C   0  0  0  0  0  0  0  0  0  0  0  0
   56.5313   21.9538   49.1669 H   0  0  0  0  0  0  0  0  0  0  0  0
   55.2081   21.8724   47.9548 H   0  0  0  0  0  0  0  0  0  0  0  0
   56.5040   20.6284   47.9548 H   0  0  0  0  0  0  0  0  0  0  0  0
   58.1190   21.7530   45.1530 C   0  0  0  0  0  0  0  0  0  0  0  0
   58.9856   21.3781   45.7174 H   0  0  0  0  0  0  0  0  0  0  0  0
  1  2  1  0
  2  3  2  0
  3  4  1  0
  3  5  1  0
  5  6  1  0
  5  7  2  0
  7  8  1  0
  8  9  1  0
  8 10  1  0
  8 11  1  0
 11 12  2  0
 12 13  1  0
 13 14  1  0
 14 15  2  0
 15 16  1  0
 16 17  2  0
 16 18  1  0
 18 19  1  0
 19 20  2  0
 19 21  1  0
 21 22  1  0
 22 23  1  0
 22 24  1  0
 22 25  1  0
 15 26  1  0
 26 27  1  0
  7 28  1  0
 28 29  1  0
 29 30  1  0
 30 31  1  0
 30 32  1  0
 30 33  1  0
 28 34  2  0
 34 35  1  0
 34  2  1  0
 26 12  1  0
 21 14  1  0
M  CHG  2  13  -1  18  -1
M  END
>  <UniqueID>  (33) 
27

>  <SMILES>  (33) 
COc1ccccc1C/N=c1\[n-]c2c([nH]1)c(=O)[n-]c(=O)n2C

>  <Energy>  (33) 
76.95863352790471

>  <Genealogy>  (33) 
COc1ccccc1CN=c1[n-]c2c([nH]1)c(=O)[n-]c(=O)n2C (protonated)
COc1ccccc1C/N=c1\[n-]c2c([nH]1)c(=O)[n-]c(=O)n2C (cis-trans isomerization)
COc1ccccc1C/N=c1\[n-]c2c([nH]1)c(=O)[n-]c(=O)n2C (3D coordinates assigned)
COc1ccccc1C/N=c1\[n-]c2c([nH]1)c(=O)[n-]c(=O)n2C (optimized conformer: 76.95863352790471 kcal/mol)

>  <smiles>  (33) 
COc1ccccc1CN=c1[nH]c2c(=O)[nH]c(=O)n(C)c2[nH]1

>  <score_type>  (33) 
oracle

>  <origin>  (33) 
adg

>  <m_score__min__energy>  (33) 
-10.27

>  <m_primary>  (33) 
energy

$$$$
33:0
     RDKit          3D

 55 57  0  0  0  0  0  0  0  0999 V2000
   59.2040   33.0600   50.0370 C   0  0  0  0  0  0  0  0  0  0  0  0
   60.3080   32.6780   51.0220 C   0  0  0  0  0  0  0  0  0  0  0  0
   61.7130   32.8200   50.4120 C   0  0  0  0  0  0  0  0  0  0  0  0
   61.7520   33.7460   49.1690 C   0  0  0  0  0  0  0  0  0  0  0  0
   62.6310   33.2550   47.9620 C   0  0  1  0  0  0  0  0  0  0  0  0
   64.0960   33.7060   48.1830 C   0  0  0  0  0  0  0  0  0  0  0  0
   62.6290   31.7140   47.8070 C   0  0  0  0  0  0  0  0  0  0  0  0
   61.0260   31.1060   47.3410 S   0  0  0  0  0  0  0  0  0  0  0  0
   61.1970   29.9700   46.3710 O   0  0  0  0  0  0  0  0  0  0  0  0
   60.3310   30.6190   48.5790 O   0  0  0  0  0  0  0  0  0  0  0  0
   60.1070   32.4130   46.5920 C   0  0  0  0  0  0  0  0  0  0  0  0
   58.7460   32.2470   46.2180 C   0  0  0  0  0  0  0  0  0  0  0  0
   57.9720   30.9680   46.4720 C   0  0  0  0  0  0  0  0  0  0  0  0
   57.9820   30.0850   45.2940 N   0  0  0  0  0  0  0  0  0  0  0  0
   58.2690   30.6470   43.9690 C   0  0  0  0  0  0  0  0  0  0  0  0
   57.9610   28.6520   45.4640 C   0  0  0  0  0  0  0  0  0  0  0  0
   59.1600   27.9450   45.6680 C   0  0  0  0  0  0  0  0  0  0  0  0
   59.1450   26.5560   45.8280 C   0  0  0  0  0  0  0  0  0  0  0  0
   57.9360   25.8590   45.7840 C   0  0  0  0  0  0  0  0  0  0  0  0
   56.7390   26.5490   45.5830 C   0  0  0  0  0  0  0  0  0  0  0  0
   56.7440   27.9390   45.4250 C   0  0  0  0  0  0  0  0  0  0  0  0
   55.5370   28.6080   45.2510 O   0  0  0  0  0  0  0  0  0  0  0  0
   58.0630   33.3200   45.6250 C   0  0  0  0  0  0  0  0  0  0  0  0
   58.6990   34.5380   45.4090 C   0  0  0  0  0  0  0  0  0  0  0  0
   60.0270   34.7090   45.7840 C   0  0  0  0  0  0  0  0  0  0  0  0
   60.7460   33.6640   46.3920 C   0  0  0  0  0  0  0  0  0  0  0  0
   62.1520   33.8700   46.6930 N   0  0  0  0  0  0  0  0  0  0  0  0
   58.3073   33.3703   50.5935 H   0  0  0  0  0  0  0  0  0  0  0  0
   59.5487   33.8911   49.4042 H   0  0  0  0  0  0  0  0  0  0  0  0
   58.9613   32.1936   49.4042 H   0  0  0  0  0  0  0  0  0  0  0  0
   60.2375   33.3329   51.9030 H   0  0  0  0  0  0  0  0  0  0  0  0
   60.1651   31.6215   51.2927 H   0  0  0  0  0  0  0  0  0  0  0  0
   62.3855   33.2347   51.1774 H   0  0  0  0  0  0  0  0  0  0  0  0
   62.0273   31.8188   50.0820 H   0  0  0  0  0  0  0  0  0  0  0  0
   60.7202   33.8636   48.8062 H   0  0  0  0  0  0  0  0  0  0  0  0
   62.2216   34.6793   49.5132 H   0  0  0  0  0  0  0  0  0  0  0  0
   64.3014   33.7692   49.2618 H   0  0  0  0  0  0  0  0  0  0  0  0
   64.7778   32.9762   47.7221 H   0  0  0  0  0  0  0  0  0  0  0  0
   64.2493   34.6929   47.7221 H   0  0  0  0  0  0  0  0  0  0  0  0
   63.3569   31.4322   47.0319 H   0  0  0  0  0  0  0  0  0  0  0  0
   62.8968   31.2701   48.7772 H   0  0  0  0  0  0  0  0  0  0  0  0
   58.4288   30.4368   47.3201 H   0  0  0  0  0  0  0  0  0  0  0  0
   56.9281   31.2358   46.6922 H   0  0  0  0  0  0  0  0  0  0  0  0
   58.7666   31.6213   44.0839 H   0  0  0  0  0  0  0  0  0  0  0  0
   58.9277   29.9620   43.4150 H   0  0  0  0  0  0  0  0  0  0  0  0
   57.3279   30.7790   43.4150 H   0  0  0  0  0  0  0  0  0  0  0  0
   60.1157   28.4885   45.7019 H   0  0  0  0  0  0  0  0  0  0  0  0
   60.0872   26.0116   45.9888 H   0  0  0  0  0  0  0  0  0  0  0  0
   57.9266   24.7660   45.9077 H   0  0  0  0  0  0  0  0  0  0  0  0
   55.7880   25.9973   45.5487 H   0  0  0  0  0  0  0  0  0  0  0  0
   57.0113   33.1962   45.3272 H   0  0  0  0  0  0  0  0  0  0  0  0
   58.1500   35.3681   44.9403 H   0  0  0  0  0  0  0  0  0  0  0  0
   60.5220   35.6745   45.6028 H   0  0  0  0  0  0  0  0  0  0  0  0
   62.3460   34.9000   46.7340 H   0  0  0  0  0  0  0  0  0  0  0  0
   62.7030   33.4940   45.8840 H   0  0  0  0  0  0  0  0  0  0  0  0
  1  2  1  0
  2  3  1  0
  3  4  1  0
  5  4  1  1
  5  6  1  0
  5  7  1  0
  7  8  1  0
  8  9  2  0
  8 10  2  0
  8 11  1  0
 11 12  2  0
 12 13  1  0
 13 14  1  0
 14 15  1  0
 14 16  1  0
 16 17  2  0
 17 18  1  0
 18 19  2  0
 19 20  1  0
 20 21  2  0
 21 22  1  0
 12 23  1  0
 23 24  2  0
 24 25  1  0
 25 26  2  0
 26 27  1  0
 27  5  1  0
 26 11  1  0
 21 16  1  0
  1 28  1  0
  1 29  1  0
  1 30  1  0
  2 31  1  0
  2 32  1  0
  3 33  1  0
  3 34  1  0
  4 35  1  0
  4 36  1  0
  6 37  1  0
  6 38  1  0
  6 39  1  0
  7 40  1  0
  7 41  1  0
 13 42  1  0
 13 43  1  0
 15 44  1  0
 15 45  1  0
 15 46  1  0
 17 47  1  0
 18 48  1  0
 19 49  1  0
 20 50  1  0
 23 51  1  0
 24 52  1  0
 25 53  1  0
 27 54  1  0
 27 55  1  0
M  CHG  2  22  -1  27   1
M  END
>  <UniqueID>  (34) 
28

>  <SMILES>  (34) 
CCCC[C@@]1(C)CS(=O)(=O)c2c(CN(C)c3ccccc3[O-])cccc2[NH2+]1

>  <Energy>  (34) 
67.35609608272695

>  <Genealogy>  (34) 
CCCCC1(C)CS(=O)(=O)c2c(CN(C)c3ccccc3[O-])cccc2[NH2+]1 (protonated)
CCCC[C@@]1(C)CS(=O)(=O)c2c(CN(C)c3ccccc3[O-])cccc2[NH2+]1 (chirality)
CCCC[C@@]1(C)CS(=O)(=O)c2c(CN(C)c3ccccc3[O-])cccc2[NH2+]1 (3D coordinates assigned)
CCCC[C@@]1(C)CS(=O)(=O)c2c(CN(C)c3ccccc3[O-])cccc2[NH2+]1 (nonaromatic ring conformer: 67.35609608272695 kcal/mol)

>  <smiles>  (34) 
CCCCC1(C)CS(=O)(=O)c2c(CN(C)c3ccccc3O)cccc2N1

>  <score_type>  (34) 
oracle

>  <origin>  (34) 
adg

>  <m_score__min__energy>  (34) 
-10.119999999999999

>  <m_primary>  (34) 
energy

$$$$
34:0
     RDKit          3D

 36 39  0  0  0  0  0  0  0  0999 V2000
   61.5050   30.0450   49.9650 C   0  0  0  0  0  0  0  0  0  0  0  0
   61.0370   31.0790   49.0470 N   0  0  0  0  0  0  0  0  0  0  0  0
   59.7520   31.4750   48.8790 C   0  0  0  0  0  0  0  0  0  0  0  0
   59.6910   32.5360   47.9800 C   0  0  0  0  0  0  0  0  0  0  0  0
   58.4760   33.3440   47.6410 C   0  0  0  0  0  0  0  0  0  0  0  0
   58.2620   33.3090   46.1640 C   0  0  0  0  0  0  0  0  0  0  0  0
   58.6680   34.2720   45.3150 N   0  0  0  0  0  0  0  0  0  0  0  0
   58.3990   33.8270   44.0960 N   0  0  0  0  0  0  0  0  0  0  0  0
   57.8430   32.6130   44.2570 C   0  0  0  0  0  0  0  0  0  0  0  0
   57.3690   31.5380   42.9120 S   0  0  0  0  0  0  0  0  0  0  0  0
   57.4420   30.1040   43.9780 C   0  0  0  0  0  0  0  0  0  0  0  0
   58.5940   29.4620   44.2780 N   0  0  0  0  0  0  0  0  0  0  0  0
   58.3750   28.3680   45.0520 C   0  0  0  0  0  0  0  0  0  0  0  0
   57.0390   28.1420   45.3580 C   0  0  0  0  0  0  0  0  0  0  0  0
   56.5380   27.0520   46.1370 N   0  0  0  0  0  0  0  0  0  0  0  0
   57.2820   26.4600   46.9440 O   0  0  0  0  0  0  0  0  0  0  0  0
   55.2270   26.6530   46.0080 O   0  0  0  0  0  0  0  0  0  0  0  0
   56.0970   29.3430   44.6470 S   0  0  0  0  0  0  0  0  0  0  0  0
   57.7480   32.2890   45.5220 O   0  0  0  0  0  0  0  0  0  0  0  0
   61.0020   32.8000   47.6200 C   0  0  0  0  0  0  0  0  0  0  0  0
   61.5460   33.7910   46.8010 C   0  0  0  0  0  0  0  0  0  0  0  0
   62.9440   33.8400   46.6710 C   0  0  0  0  0  0  0  0  0  0  0  0
   63.7600   32.9170   47.3600 C   0  0  0  0  0  0  0  0  0  0  0  0
   63.1850   31.9320   48.1830 C   0  0  0  0  0  0  0  0  0  0  0  0
   61.7930   31.8980   48.2880 C   0  0  0  0  0  0  0  0  0  0  0  0
   61.3536   30.3794   51.0019 H   0  0  0  0  0  0  0  0  0  0  0  0
   60.9388   29.1178   49.7924 H   0  0  0  0  0  0  0  0  0  0  0  0
   62.5753   29.8585   49.7924 H   0  0  0  0  0  0  0  0  0  0  0  0
   58.8832   31.0235   49.3803 H   0  0  0  0  0  0  0  0  0  0  0  0
   57.5980   32.9202   48.1505 H   0  0  0  0  0  0  0  0  0  0  0  0
   58.6191   34.3839   47.9700 H   0  0  0  0  0  0  0  0  0  0  0  0
   59.1868   27.7159   45.4067 H   0  0  0  0  0  0  0  0  0  0  0  0
   60.9011   34.5100   46.2746 H   0  0  0  0  0  0  0  0  0  0  0  0
   63.4061   34.6032   46.0276 H   0  0  0  0  0  0  0  0  0  0  0  0
   64.8535   32.9685   47.2525 H   0  0  0  0  0  0  0  0  0  0  0  0
   63.8125   31.2107   48.7271 H   0  0  0  0  0  0  0  0  0  0  0  0
  1  2  1  0
  2  3  1  0
  3  4  2  0
  4  5  1  0
  5  6  1  0
  6  7  2  0
  7  8  1  0
  8  9  2  0
  9 10  1  0
 10 11  1  0
 11 12  2  0
 12 13  1  0
 13 14  2  0
 14 15  1  0
 15 16  2  0
 15 17  1  0
 14 18  1  0
  9 19  1  0
  4 20  1  0
 20 21  2  0
 21 22  1  0
 22 23  2  0
 23 24  1  0
 24 25  2  0
 25  2  1  0
 19  6  1  0
 25 20  1  0
 18 11  1  0
  1 26  1  0
  1 27  1  0
  1 28  1  0
  3 29  1  0
  5 30  1  0
  5 31  1  0
 13 32  1  0
 21 33  1  0
 22 34  1  0
 23 35  1  0
 24 36  1  0
M  CHG  2  15   1  17  -1
M  END
>  <UniqueID>  (35) 
29

>  <SMILES>  (35) 
Cn1cc(Cc2nnc(Sc3ncc([N+](=O)[O-])s3)o2)c2ccccc21

>  <Energy>  (35) 
130.20312137026767

>  <Genealogy>  (35) 
Cn1cc(Cc2nnc(Sc3ncc([N+](=O)[O-])s3)o2)c2ccccc21 (3D coordinates assigned)
Cn1cc(Cc2nnc(Sc3ncc([N+](=O)[O-])s3)o2)c2ccccc21 (optimized conformer: 130.20312137026767 kcal/mol)

>  <smiles>  (35) 
Cn1cc(Cc2nnc(Sc3ncc([N+](=O)[O-])s3)o2)c2ccccc21

>  <score_type>  (35) 
oracle

>  <origin>  (35) 
adg

>  <m_score__min__energy>  (35) 
-9.1600000000000001

>  <m_primary>  (35) 
energy

$$$$
35:0
     RDKit          3D

 50 53  0  0  0  0  0  0  0  0999 V2000
   55.9000   19.8140   44.3350 C   0  0  0  0  0  0  0  0  0  0  0  0
   55.9150   21.0660   43.6560 O   0  0  0  0  0  0  0  0  0  0  0  0
   56.4380   22.2540   44.1910 C   0  0  0  0  0  0  0  0  0  0  0  0
   57.8220   22.4730   44.3110 C   0  0  0  0  0  0  0  0  0  0  0  0
   58.3060   23.6680   44.8470 C   0  0  0  0  0  0  0  0  0  0  0  0
   57.4200   24.6730   45.2700 C   0  0  0  0  0  0  0  0  0  0  0  0
   57.9170   25.9470   45.8510 C   0  0  0  0  0  0  0  0  0  0  0  0
   58.9940   25.9690   46.7760 C   0  0  0  0  0  0  0  0  0  0  0  0
   59.4240   27.2010   47.2890 C   0  0  0  0  0  0  0  0  0  0  0  0
   60.3780   27.2620   48.1100 O   0  0  0  0  0  0  0  0  0  0  0  0
   58.7880   28.3250   46.8730 N   0  0  0  0  0  0  0  0  0  0  0  0
   59.0330   29.5770   47.2230 N   0  0  0  0  0  0  0  0  0  0  0  0
   58.1550   30.3580   46.5460 C   0  0  0  0  0  0  0  0  0  0  0  0
   58.0960   31.6540   46.6360 N   0  0  0  0  0  0  0  0  0  0  0  0
   58.9940   32.5680   45.9400 C   0  0  0  0  0  0  0  0  0  0  0  0
   60.2690   32.6970   46.7210 C   0  0  0  0  0  0  0  0  0  0  0  0
   60.5160   33.8460   47.4900 C   0  0  0  0  0  0  0  0  0  0  0  0
   61.6870   33.9480   48.2470 C   0  0  0  0  0  0  0  0  0  0  0  0
   62.6130   32.9010   48.2520 C   0  0  0  0  0  0  0  0  0  0  0  0
   64.0810   33.0310   49.2040 Cl  0  0  0  0  0  0  0  0  0  0  0  0
   62.3660   31.7480   47.5000 C   0  0  0  0  0  0  0  0  0  0  0  0
   61.1960   31.6420   46.7410 C   0  0  0  0  0  0  0  0  0  0  0  0
   57.3280   29.5730   45.7410 C   0  0  0  0  0  0  0  0  0  0  0  0
   56.2410   29.9960   44.8400 C   0  0  0  0  0  0  0  0  0  0  0  0
   55.1600   29.1120   44.5510 N   0  0  0  0  0  0  0  0  0  0  0  0
   56.2630   31.1430   44.3200 O   0  0  0  0  0  0  0  0  0  0  0  0
   57.7800   28.2910   45.9920 C   0  0  0  0  0  0  0  0  0  0  0  0
   57.3310   27.1230   45.4710 N   0  0  0  0  0  0  0  0  0  0  0  0
   56.0360   24.4470   45.1590 C   0  0  0  0  0  0  0  0  0  0  0  0
   55.5410   23.2440   44.6190 C   0  0  0  0  0  0  0  0  0  0  0  0
   54.1650   22.9950   44.4910 O   0  0  0  0  0  0  0  0  0  0  0  0
   53.1430   23.7710   45.1080 C   0  0  0  0  0  0  0  0  0  0  0  0
   55.9021   19.9861   45.4215 H   0  0  0  0  0  0  0  0  0  0  0  0
   54.9951   19.2553   44.0540 H   0  0  0  0  0  0  0  0  0  0  0  0
   56.7913   19.2338   44.0540 H   0  0  0  0  0  0  0  0  0  0  0  0
   58.5283   21.6973   43.9802 H   0  0  0  0  0  0  0  0  0  0  0  0
   59.3910   23.8240   44.9389 H   0  0  0  0  0  0  0  0  0  0  0  0
   59.4835   25.0338   47.0854 H   0  0  0  0  0  0  0  0  0  0  0  0
   59.7740   29.8780   47.8950 H   0  0  0  0  0  0  0  0  0  0  0  0
   59.2151   32.1740   44.9371 H   0  0  0  0  0  0  0  0  0  0  0  0
   58.5169   33.5546   45.8457 H   0  0  0  0  0  0  0  0  0  0  0  0
   59.7856   34.6685   47.4967 H   0  0  0  0  0  0  0  0  0  0  0  0
   61.8800   34.8542   48.8399 H   0  0  0  0  0  0  0  0  0  0  0  0
   63.0934   30.9228   47.5055 H   0  0  0  0  0  0  0  0  0  0  0  0
   61.0013   30.7297   46.1580 H   0  0  0  0  0  0  0  0  0  0  0  0
   55.3070   28.0800   44.5150 H   0  0  0  0  0  0  0  0  0  0  0  0
   55.3310   25.2201   45.4985 H   0  0  0  0  0  0  0  0  0  0  0  0
   53.2377   23.6991   46.2016 H   0  0  0  0  0  0  0  0  0  0  0  0
   53.2440   24.8220   44.7996 H   0  0  0  0  0  0  0  0  0  0  0  0
   52.1577   23.3914   44.7996 H   0  0  0  0  0  0  0  0  0  0  0  0
  1  2  1  0
  2  3  1  0
  3  4  2  0
  4  5  1  0
  5  6  2  0
  6  7  1  0
  7  8  2  0
  8  9  1  0
  9 10  2  0
  9 11  1  0
 11 12  1  0
 12 13  1  0
 13 14  2  3
 14 15  1  0
 15 16  1  0
 16 17  2  0
 17 18  1  0
 18 19  2  0
 19 20  1  0
 19 21  1  0
 21 22  2  0
 13 23  1  0
 23 24  1  0
 24 25  1  0
 24 26  2  0
 23 27  2  0
 27 28  1  0
  6 29  1  0
 29 30  2  0
 30 31  1  0
 31 32  1  0
 30  3  1  0
 28  7  1  0
 27 11  1  0
 22 16  1  0
  1 33  1  0
  1 34  1  0
  1 35  1  0
  4 36  1  0
  5 37  1  0
  8 38  1  0
 12 39  1  0
 15 40  1  0
 15 41  1  0
 17 42  1  0
 18 43  1  0
 21 44  1  0
 22 45  1  0
 25 46  1  0
 29 47  1  0
 32 48  1  0
 32 49  1  0
 32 50  1  0
M  CHG  2  25  -1  28  -1
M  END
>  <UniqueID>  (36) 
30

>  <SMILES>  (36) 
COc1ccc(-c2cc(=O)n3[nH]c(=NCc4ccc(Cl)cc4)c(C([NH-])=O)c3[n-]2)cc1OC

>  <Energy>  (36) 
95.58135137151798

>  <Genealogy>  (36) 
COc1ccc(-c2cc(=O)n3[nH]c(=NCc4ccc(Cl)cc4)c(C([NH-])=O)c3[n-]2)cc1OC (protonated)
COc1ccc(-c2cc(=O)n3[nH]c(=NCc4ccc(Cl)cc4)c(C([NH-])=O)c3[n-]2)cc1OC (3D coordinates assigned)
COc1ccc(-c2cc(=O)n3[nH]c(=NCc4ccc(Cl)cc4)c(C([NH-])=O)c3[n-]2)cc1OC (optimized conformer: 95.58135137151798 kcal/mol)

>  <smiles>  (36) 
COc1ccc(-c2cc(=O)n3[nH]c(=NCc4ccc(Cl)cc4)c(C(N)=O)c3[nH]2)cc1OC

>  <score_type>  (36) 
oracle

>  <origin>  (36) 
adg

>  <m_score__min__energy>  (36) 
-12.66

>  <m_primary>  (36) 
energy

$$$$
36:0
     RDKit          3D

 50 52  0  0  0  0  0  0  0  0999 V2000
   58.7520   35.4142   44.2752 H   0  0  0  0  0  0  0  0  0  0  0  0
   58.6410   34.5150   44.8990 C   0  0  0  0  0  0  0  0  0  0  0  0
   57.7430   33.5110   44.5230 C   0  0  0  0  0  0  0  0  0  0  0  0
   57.1477   33.6276   43.6054 H   0  0  0  0  0  0  0  0  0  0  0  0
   57.5950   32.3580   45.3050 C   0  0  0  0  0  0  0  0  0  0  0  0
   56.6860   31.3730   44.8770 O   0  0  0  0  0  0  0  0  0  0  0  0
   56.8950   30.5140   43.7620 C   0  0  0  0  0  0  0  0  0  0  0  0
   57.1410   29.5030   44.1190 H   0  0  0  0  0  0  0  0  0  0  0  0
   55.9801   30.4751   43.1525 H   0  0  0  0  0  0  0  0  0  0  0  0
   57.7255   30.8998   43.1525 H   0  0  0  0  0  0  0  0  0  0  0  0
   58.3580   32.2260   46.4820 C   0  0  0  0  0  0  0  0  0  0  0  0
   58.2541   31.3225   47.1007 H   0  0  0  0  0  0  0  0  0  0  0  0
   59.2500   33.2380   46.8720 C   0  0  0  0  0  0  0  0  0  0  0  0
   60.1010   33.0710   48.1010 C   0  0  0  0  0  0  0  0  0  0  0  0
   59.6127   32.3647   48.7886 H   0  0  0  0  0  0  0  0  0  0  0  0
   60.2210   34.0481   48.5918 H   0  0  0  0  0  0  0  0  0  0  0  0
   61.4490   32.5430   47.7240 C   0  0  0  0  0  0  0  0  0  0  0  0
   62.4720   33.2380   47.9580 O   0  0  0  0  0  0  0  0  0  0  0  0
   61.5470   31.2990   47.0180 N   0  0  0  0  0  0  0  0  0  0  0  0
   60.6360   30.1920   47.0910 C   0  0  0  0  0  0  0  0  0  0  0  0
   60.1530   29.6930   48.3260 C   0  0  0  0  0  0  0  0  0  0  0  0
   60.4688   30.1686   49.2662 H   0  0  0  0  0  0  0  0  0  0  0  0
   59.2740   28.5960   48.3620 C   0  0  0  0  0  0  0  0  0  0  0  0
   58.9099   28.2015   49.3221 H   0  0  0  0  0  0  0  0  0  0  0  0
   58.8720   28.0170   47.1580 C   0  0  0  0  0  0  0  0  0  0  0  0
   59.3170   28.5320   45.9520 C   0  0  0  0  0  0  0  0  0  0  0  0
   58.6610   27.6370   44.6900 S   0  0  0  0  0  0  0  0  0  0  0  0
   57.8430   26.6040   45.7500 C   0  0  0  0  0  0  0  0  0  0  0  0
   57.0950   25.6220   45.3390 N   0  0  0  0  0  0  0  0  0  0  0  0
   55.7130   25.3910   45.6500 C   0  0  0  0  0  0  0  0  0  0  0  0
   54.9590   26.3400   45.9900 O   0  0  0  0  0  0  0  0  0  0  0  0
   55.2060   23.9800   45.7280 C   0  0  0  0  0  0  0  0  0  0  0  0
   55.8195   23.3478   45.0692 H   0  0  0  0  0  0  0  0  0  0  0  0
   54.1514   23.9860   45.4154 H   0  0  0  0  0  0  0  0  0  0  0  0
   55.2670   23.4120   47.1510 C   0  0  0  0  0  0  0  0  0  0  0  0
   54.8363   22.3998   47.1477 H   0  0  0  0  0  0  0  0  0  0  0  0
   54.6984   24.0853   47.8093 H   0  0  0  0  0  0  0  0  0  0  0  0
   56.6710   23.3380   47.6680 C   0  0  0  0  0  0  0  0  0  0  0  0
   57.2260   24.3700   48.1360 O   0  0  0  0  0  0  0  0  0  0  0  0
   57.3570   22.1240   47.6120 O   0  0  0  0  0  0  0  0  0  0  0  0
   57.0350   21.1030   46.6750 C   0  0  0  0  0  0  0  0  0  0  0  0
   56.7466   20.1885   47.2139 H   0  0  0  0  0  0  0  0  0  0  0  0
   56.1982   21.4357   46.0433 H   0  0  0  0  0  0  0  0  0  0  0  0
   57.9113   20.8954   46.0433 H   0  0  0  0  0  0  0  0  0  0  0  0
   58.0440   26.9440   47.0520 N   0  0  0  0  0  0  0  0  0  0  0  0
   57.6020   26.4890   47.8800 H   0  0  0  0  0  0  0  0  0  0  0  0
   60.1890   29.6160   45.8890 C   0  0  0  0  0  0  0  0  0  0  0  0
   60.5212   30.0134   44.9186 H   0  0  0  0  0  0  0  0  0  0  0  0
   59.3970   34.3780   46.0650 C   0  0  0  0  0  0  0  0  0  0  0  0
   60.1097   35.1651   46.3523 H   0  0  0  0  0  0  0  0  0  0  0  0
  1  2  1  0
  2  3  2  0
  3  4  1  0
  3  5  1  0
  5  6  1  0
  6  7  1  0
  7  8  1  0
  7  9  1  0
  7 10  1  0
  5 11  2  0
 11 12  1  0
 11 13  1  0
 13 14  1  0
 14 15  1  0
 14 16  1  0
 14 17  1  0
 17 18  2  0
 17 19  1  0
 19 20  1  0
 20 21  2  0
 21 22  1  0
 21 23  1  0
 23 24  1  0
 23 25  2  0
 25 26  1  0
 26 27  1  0
 27 28  1  0
 28 29  2  0
 29 30  1  0
 30 31  2  0
 30 32  1  0
 32 33  1  0
 32 34  1  0
 32 35  1  0
 35 36  1  0
 35 37  1  0
 35 38  1  0
 38 39  2  0
 38 40  1  0
 40 41  1  0
 41 42  1  0
 41 43  1  0
 41 44  1  0
 28 45  1  0
 45 46  1  0
 26 47  2  0
 47 48  1  0
 13 49  2  0
 49 50  1  0
 49  2  1  0
 47 20  1  0
 45 25  1  0
M  CHG  1  19  -1
M  END
>  <UniqueID>  (37) 
31

>  <SMILES>  (37) 
COC(=O)CCC(=O)/N=c1\[nH]c2ccc([N-]C(=O)Cc3cccc(OC)c3)cc2s1

>  <Energy>  (37) 
87.16595909486757

>  <Genealogy>  (37) 
COC(=O)CCC(=O)N=c1[nH]c2ccc([N-]C(=O)Cc3cccc(OC)c3)cc2s1 (protonated)
COC(=O)CCC(=O)/N=c1\[nH]c2ccc([N-]C(=O)Cc3cccc(OC)c3)cc2s1 (cis-trans isomerization)
COC(=O)CCC(=O)/N=c1\[nH]c2ccc([N-]C(=O)Cc3cccc(OC)c3)cc2s1 (3D coordinates assigned)
COC(=O)CCC(=O)/N=c1\[nH]c2ccc([N-]C(=O)Cc3cccc(OC)c3)cc2s1 (optimized conformer: 87.16595909486757 kcal/mol)

>  <smiles>  (37) 
COC(=O)CCC(=O)N=c1[nH]c2ccc(NC(=O)Cc3cccc(OC)c3)cc2s1

>  <score_type>  (37) 
oracle

>  <origin>  (37) 
adg

>  <m_score__min__energy>  (37) 
-9.8399999999999999

>  <m_primary>  (37) 
energy

$$$$
37:0
     RDKit          3D

 55 56  0  0  0  0  0  0  0  0999 V2000
   59.3000   29.1400   44.6600 H   0  0  0  0  0  0  0  0  0  0  0  0
   59.9720   29.0550   45.4370 N   0  0  0  0  0  0  0  0  0  0  0  0
   59.8790   29.8180   46.4640 C   0  0  0  0  0  0  0  0  0  0  0  0
   60.7894   30.1311   46.9961 H   0  0  0  0  0  0  0  0  0  0  0  0
   58.5380   30.2860   46.9440 C   0  0  0  0  0  0  0  0  0  0  0  0
   57.7648   29.5814   46.6039 H   0  0  0  0  0  0  0  0  0  0  0  0
   58.5482   30.3333   48.0429 H   0  0  0  0  0  0  0  0  0  0  0  0
   58.2340   31.6640   46.3950 C   0  0  0  0  0  0  0  0  0  0  0  0
   57.9670   31.8500   45.0180 C   0  0  0  0  0  0  0  0  0  0  0  0
   58.0100   30.7170   44.1340 N   0  0  0  0  0  0  0  0  0  0  0  0
   56.7950   29.4870   43.9830 S   0  0  0  0  0  0  0  0  0  0  0  0
   57.3830   28.1740   44.4200 O   0  0  0  0  0  0  0  0  0  0  0  0
   55.6240   29.8090   44.8680 O   0  0  0  0  0  0  0  0  0  0  0  0
   56.2750   29.3450   42.2860 C   0  0  0  0  0  0  0  0  0  0  0  0
   55.2144   29.0554   42.2505 H   0  0  0  0  0  0  0  0  0  0  0  0
   56.4081   30.3124   41.7796 H   0  0  0  0  0  0  0  0  0  0  0  0
   56.8813   28.5795   41.7796 H   0  0  0  0  0  0  0  0  0  0  0  0
   57.6560   33.1350   44.5430 C   0  0  0  0  0  0  0  0  0  0  0  0
   57.4557   33.2869   43.4721 H   0  0  0  0  0  0  0  0  0  0  0  0
   57.5990   34.2200   45.4180 C   0  0  0  0  0  0  0  0  0  0  0  0
   57.3540   35.2213   45.0342 H   0  0  0  0  0  0  0  0  0  0  0  0
   57.8510   34.0400   46.7750 C   0  0  0  0  0  0  0  0  0  0  0  0
   57.7963   34.8989   47.4600 H   0  0  0  0  0  0  0  0  0  0  0  0
   58.1750   32.7670   47.2750 C   0  0  0  0  0  0  0  0  0  0  0  0
   58.4040   32.5710   48.6470 O   0  0  0  0  0  0  0  0  0  0  0  0
   59.6640   32.5550   49.2590 C   0  0  0  0  0  0  0  0  0  0  0  0
   60.2920   31.3220   49.4640 C   0  0  0  0  0  0  0  0  0  0  0  0
   59.7932   30.3955   49.1433 H   0  0  0  0  0  0  0  0  0  0  0  0
   61.5480   31.2580   50.0730 C   0  0  0  0  0  0  0  0  0  0  0  0
   62.0235   30.2812   50.2457 H   0  0  0  0  0  0  0  0  0  0  0  0
   62.2050   32.4330   50.4650 C   0  0  0  0  0  0  0  0  0  0  0  0
   63.5400   32.3630   51.1580 C   0  0  0  0  0  0  0  0  0  0  0  0
   63.6970   33.2853   51.7366 H   0  0  0  0  0  0  0  0  0  0  0  0
   63.5493   31.4907   51.8280 H   0  0  0  0  0  0  0  0  0  0  0  0
   64.6690   32.2130   50.1290 C   0  0  0  0  0  0  0  0  0  0  0  0
   65.6282   32.4185   50.6267 H   0  0  0  0  0  0  0  0  0  0  0  0
   64.6259   31.1864   49.7362 H   0  0  0  0  0  0  0  0  0  0  0  0
   64.5180   33.1720   48.9380 C   0  0  0  0  0  0  0  0  0  0  0  0
   63.9736   34.0670   49.2736 H   0  0  0  0  0  0  0  0  0  0  0  0
   65.5284   33.4205   48.5812 H   0  0  0  0  0  0  0  0  0  0  0  0
   63.7530   32.5430   47.7640 C   0  0  0  0  0  0  0  0  0  0  0  0
   64.4115   31.8302   47.2460 H   0  0  0  0  0  0  0  0  0  0  0  0
   62.8645   32.0290   48.1594 H   0  0  0  0  0  0  0  0  0  0  0  0
   63.2950   33.6160   46.7700 C   0  0  0  0  0  0  0  0  0  0  0  0
   63.6313   34.6014   47.1248 H   0  0  0  0  0  0  0  0  0  0  0  0
   63.7315   33.3898   45.7860 H   0  0  0  0  0  0  0  0  0  0  0  0
   61.7740   33.6270   46.6350 C   0  0  0  0  0  0  0  0  0  0  0  0
   61.3171   33.6303   47.6356 H   0  0  0  0  0  0  0  0  0  0  0  0
   61.4611   34.5274   46.0861 H   0  0  0  0  0  0  0  0  0  0  0  0
   61.4481   32.7312   46.0861 H   0  0  0  0  0  0  0  0  0  0  0  0
   61.5840   33.6730   50.2500 C   0  0  0  0  0  0  0  0  0  0  0  0
   62.0883   34.5980   50.5662 H   0  0  0  0  0  0  0  0  0  0  0  0
   60.3250   33.7420   49.6350 C   0  0  0  0  0  0  0  0  0  0  0  0
   59.7430   34.9820   49.3780 O   0  0  0  0  0  0  0  0  0  0  0  0
   58.8830   35.0670   48.8500 H   0  0  0  0  0  0  0  0  0  0  0  0
  1  2  1  0
  2  3  2  0
  3  4  1  0
  3  5  1  0
  5  6  1  0
  5  7  1  0
  5  8  1  0
  8  9  2  0
  9 10  1  0
 10 11  1  0
 11 12  2  0
 11 13  2  0
 11 14  1  0
 14 15  1  0
 14 16  1  0
 14 17  1  0
  9 18  1  0
 18 19  1  0
 18 20  2  0
 20 21  1  0
 20 22  1  0
 22 23  1  0
 22 24  2  0
 24 25  1  0
 25 26  1  0
 26 27  2  0
 27 28  1  0
 27 29  1  0
 29 30  1  0
 29 31  2  0
 31 32  1  0
 32 33  1  0
 32 34  1  0
 32 35  1  0
 35 36  1  0
 35 37  1  0
 35 38  1  0
 38 39  1  0
 38 40  1  0
 38 41  1  0
 41 42  1  0
 41 43  1  0
 41 44  1  0
 44 45  1  0
 44 46  1  0
 44 47  1  0
 47 48  1  0
 47 49  1  0
 47 50  1  0
 31 51  1  0
 51 52  1  0
 51 53  2  0
 53 54  1  0
 54 55  1  0
 24  8  1  0
 53 26  1  0
M  CHG  1  10  -1
M  END
>  <UniqueID>  (38) 
32

>  <SMILES>  (38) 
[H]/N=C/Cc1c([N-]S(C)(=O)=O)cccc1Oc1ccc(CCCCCC)cc1O

>  <Energy>  (38) 
48.77539159283907

>  <Genealogy>  (38) 
CCCCCCc1ccc(Oc2cccc([N-]S(C)(=O)=O)c2CC=N)c(O)c1 (protonated)
[H]/N=C/Cc1c([N-]S(C)(=O)=O)cccc1Oc1ccc(CCCCCC)cc1O (cis-trans isomerization)
[H]/N=C/Cc1c([N-]S(C)(=O)=O)cccc1Oc1ccc(CCCCCC)cc1O (3D coordinates assigned)
[H]/N=C/Cc1c([N-]S(C)(=O)=O)cccc1Oc1ccc(CCCCCC)cc1O (optimized conformer: 48.77539159283907 kcal/mol)

>  <smiles>  (38) 
CCCCCCc1ccc(Oc2cccc(NS(C)(=O)=O)c2CC=N)c(O)c1

>  <score_type>  (38) 
oracle

>  <origin>  (38) 
adg

>  <m_score__min__energy>  (38) 
-9.5

>  <m_primary>  (38) 
energy

$$$$
38:0
     RDKit          3D

 42 44  0  0  0  0  0  0  0  0999 V2000
   60.9720   34.6530   49.3940 N   0  0  0  0  0  0  0  0  0  0  0  0
   60.4860   34.3220   48.3990 C   0  0  0  0  0  0  0  0  0  0  0  0
   59.8790   33.9080   47.1520 C   0  0  0  0  0  0  0  0  0  0  0  0
   59.4970   32.5670   46.9170 C   0  0  0  0  0  0  0  0  0  0  0  0
   59.7390   31.4840   47.8980 C   0  0  0  0  0  0  0  0  0  0  0  0
   60.8930   30.6820   47.8280 C   0  0  0  0  0  0  0  0  0  0  0  0
   61.1010   29.6620   48.7600 C   0  0  0  0  0  0  0  0  0  0  0  0
   60.1510   29.4220   49.7600 C   0  0  0  0  0  0  0  0  0  0  0  0
   58.9890   30.1950   49.8210 C   0  0  0  0  0  0  0  0  0  0  0  0
   58.7800   31.2190   48.8940 C   0  0  0  0  0  0  0  0  0  0  0  0
   58.8600   32.2530   45.7550 N   0  0  0  0  0  0  0  0  0  0  0  0
   58.6030   33.1930   44.8120 C   0  0  0  0  0  0  0  0  0  0  0  0
   57.7670   32.7260   43.3000 S   0  0  0  0  0  0  0  0  0  0  0  0
   57.9020   30.9320   43.6010 C   0  0  0  0  0  0  0  0  0  0  0  0
   56.9480   30.5220   44.6750 C   0  0  0  0  0  0  0  0  0  0  0  0
   55.7060   30.6450   44.4930 O   0  0  0  0  0  0  0  0  0  0  0  0
   57.4550   29.9600   45.8890 N   0  0  0  0  0  0  0  0  0  0  0  0
   57.6490   28.5660   46.1530 C   0  0  0  0  0  0  0  0  0  0  0  0
   58.8010   28.1670   46.8370 C   0  0  0  0  0  0  0  0  0  0  0  0
   59.0050   26.8230   47.1540 C   0  0  0  0  0  0  0  0  0  0  0  0
   58.0480   25.8680   46.8050 C   0  0  0  0  0  0  0  0  0  0  0  0
   56.8800   26.2550   46.1370 C   0  0  0  0  0  0  0  0  0  0  0  0
   55.6430   25.0680   45.7310 S   0  0  0  0  0  0  0  0  0  0  0  0
   54.0800   25.7630   45.9690 N   0  0  0  0  0  0  0  0  0  0  0  0
   55.7760   23.8580   46.6100 O   0  0  0  0  0  0  0  0  0  0  0  0
   55.7930   24.6520   44.2970 O   0  0  0  0  0  0  0  0  0  0  0  0
   56.6810   27.6050   45.8110 C   0  0  0  0  0  0  0  0  0  0  0  0
   58.9730   34.4830   45.0160 N   0  0  0  0  0  0  0  0  0  0  0  0
   59.6020   34.8600   46.1570 C   0  0  0  0  0  0  0  0  0  0  0  0
   59.9250   36.0690   46.3140 O   0  0  0  0  0  0  0  0  0  0  0  0
   61.6351   30.8589   47.0356 H   0  0  0  0  0  0  0  0  0  0  0  0
   62.0117   29.0472   48.7080 H   0  0  0  0  0  0  0  0  0  0  0  0
   60.3197   28.6241   50.4982 H   0  0  0  0  0  0  0  0  0  0  0  0
   58.2378   29.9972   50.5998 H   0  0  0  0  0  0  0  0  0  0  0  0
   57.8610   31.8216   48.9426 H   0  0  0  0  0  0  0  0  0  0  0  0
   57.6640   30.3881   42.6750 H   0  0  0  0  0  0  0  0  0  0  0  0
   58.9280   30.6950   43.9190 H   0  0  0  0  0  0  0  0  0  0  0  0
   59.5515   28.9170   47.1273 H   0  0  0  0  0  0  0  0  0  0  0  0
   59.9212   26.5157   47.6796 H   0  0  0  0  0  0  0  0  0  0  0  0
   58.2121   24.8095   47.0554 H   0  0  0  0  0  0  0  0  0  0  0  0
   54.2250   26.7110   46.3820 H   0  0  0  0  0  0  0  0  0  0  0  0
   55.7646   27.9128   45.2861 H   0  0  0  0  0  0  0  0  0  0  0  0
  1  2  3  0
  2  3  1  0
  3  4  2  0
  4  5  1  0
  5  6  2  0
  6  7  1  0
  7  8  2  0
  8  9  1  0
  9 10  2  0
  4 11  1  0
 11 12  2  0
 12 13  1  0
 13 14  1  0
 14 15  1  0
 15 16  2  0
 15 17  1  0
 17 18  1  0
 18 19  2  0
 19 20  1  0
 20 21  2  0
 21 22  1  0
 22 23  1  0
 23 24  1  0
 23 25  2  0
 23 26  2  0
 22 27  2  0
 12 28  1  0
 28 29  1  0
 29 30  2  0
 29  3  1  0
 10  5  1  0
 27 18  1  0
  6 31  1  0
  7 32  1  0
  8 33  1  0
  9 34  1  0
 10 35  1  0
 14 36  1  0
 14 37  1  0
 19 38  1  0
 20 39  1  0
 21 40  1  0
 24 41  1  0
 27 42  1  0
M  CHG  3  17  -1  24  -1  28  -1
M  END
>  <UniqueID>  (39) 
33

>  <SMILES>  (39) 
N#Cc1c(-c2ccccc2)nc(SCC(=O)[N-]c2cccc(S([NH-])(=O)=O)c2)[n-]c1=O

>  <Energy>  (39) 
51.43152306770253

>  <Genealogy>  (39) 
N#Cc1c(-c2ccccc2)nc(SCC(=O)[N-]c2cccc(S([NH-])(=O)=O)c2)[n-]c1=O (protonated)
N#Cc1c(-c2ccccc2)nc(SCC(=O)[N-]c2cccc(S([NH-])(=O)=O)c2)[n-]c1=O (3D coordinates assigned)
N#Cc1c(-c2ccccc2)nc(SCC(=O)[N-]c2cccc(S([NH-])(=O)=O)c2)[n-]c1=O (optimized conformer: 51.43152306770253 kcal/mol)

>  <smiles>  (39) 
N#Cc1c(-c2ccccc2)nc(SCC(=O)Nc2cccc(S(N)(=O)=O)c2)[nH]c1=O

>  <score_type>  (39) 
oracle

>  <origin>  (39) 
adg

>  <m_score__min__energy>  (39) 
-13.65

>  <m_primary>  (39) 
energy

$$$$
39:0
     RDKit          3D

 45 47  0  0  0  0  0  0  0  0999 V2000
   61.0470   29.0420   48.5910 O   0  0  0  0  0  0  0  0  0  0  0  0
   60.4670   29.7270   47.7060 C   0  0  0  0  0  0  0  0  0  0  0  0
   60.6340   31.1500   47.7120 N   0  0  0  0  0  0  0  0  0  0  0  0
   61.7510   31.8170   47.8160 C   0  0  0  0  0  0  0  0  0  0  0  0
   62.0650   32.6860   46.8170 N   0  0  0  0  0  0  0  0  0  0  0  0
   63.2000   33.4310   46.8220 C   0  0  0  0  0  0  0  0  0  0  0  0
   64.1040   33.3160   47.8740 C   0  0  0  0  0  0  0  0  0  0  0  0
   63.8310   32.4300   48.9130 C   0  0  0  0  0  0  0  0  0  0  0  0
   62.6510   31.6730   48.9050 C   0  0  0  0  0  0  0  0  0  0  0  0
   62.4010   30.7900   49.9560 O   0  0  0  0  0  0  0  0  0  0  0  0
   59.6670   29.0590   46.6500 C   0  0  0  0  0  0  0  0  0  0  0  0
   59.9990   27.7650   46.2130 C   0  0  0  0  0  0  0  0  0  0  0  0
   59.2480   27.1410   45.2130 C   0  0  0  0  0  0  0  0  0  0  0  0
   58.1590   27.7980   44.6380 C   0  0  0  0  0  0  0  0  0  0  0  0
   57.8130   29.0870   45.0640 C   0  0  0  0  0  0  0  0  0  0  0  0
   56.4380   29.9260   44.3520 S   0  0  0  0  0  0  0  0  0  0  0  0
   55.1500   29.3470   44.8690 O   0  0  0  0  0  0  0  0  0  0  0  0
   56.4860   29.7720   42.8590 O   0  0  0  0  0  0  0  0  0  0  0  0
   56.5190   31.6130   44.7580 N   0  0  0  0  0  0  0  0  0  0  0  0
   57.6730   32.2300   44.1050 C   0  0  0  0  0  0  0  0  0  0  0  0
   57.7580   33.7000   44.5100 C   0  0  0  0  0  0  0  0  0  0  0  0
   58.3870   33.8470   45.8710 C   0  0  0  0  0  0  0  0  0  0  0  0
   59.3780   34.8170   46.0980 C   0  0  0  0  0  0  0  0  0  0  0  0
   59.9530   34.9530   47.3660 C   0  0  0  0  0  0  0  0  0  0  0  0
   59.5390   34.1280   48.4150 C   0  0  0  0  0  0  0  0  0  0  0  0
   58.5450   33.1690   48.2010 C   0  0  0  0  0  0  0  0  0  0  0  0
   58.1400   32.3730   49.2200 F   0  0  0  0  0  0  0  0  0  0  0  0
   57.9670   33.0320   46.9350 C   0  0  0  0  0  0  0  0  0  0  0  0
   58.5690   29.7140   46.0630 C   0  0  0  0  0  0  0  0  0  0  0  0
   63.4052   34.1258   45.9943 H   0  0  0  0  0  0  0  0  0  0  0  0
   65.0242   33.9185   47.8846 H   0  0  0  0  0  0  0  0  0  0  0  0
   64.5443   32.3236   49.7436 H   0  0  0  0  0  0  0  0  0  0  0  0
   61.6480   30.1130   49.9170 H   0  0  0  0  0  0  0  0  0  0  0  0
   60.8555   27.2400   46.6610 H   0  0  0  0  0  0  0  0  0  0  0  0
   59.5162   26.1282   44.8778 H   0  0  0  0  0  0  0  0  0  0  0  0
   57.5721   27.3034   43.8500 H   0  0  0  0  0  0  0  0  0  0  0  0
   58.5916   31.7101   44.4148 H   0  0  0  0  0  0  0  0  0  0  0  0
   57.5613   32.1552   43.0132 H   0  0  0  0  0  0  0  0  0  0  0  0
   58.3666   34.2425   43.7715 H   0  0  0  0  0  0  0  0  0  0  0  0
   56.7395   34.1139   44.5469 H   0  0  0  0  0  0  0  0  0  0  0  0
   59.7027   35.4716   45.2758 H   0  0  0  0  0  0  0  0  0  0  0  0
   60.7321   35.7104   47.5375 H   0  0  0  0  0  0  0  0  0  0  0  0
   59.9958   34.2334   49.4101 H   0  0  0  0  0  0  0  0  0  0  0  0
   57.1792   32.2819   46.7716 H   0  0  0  0  0  0  0  0  0  0  0  0
   58.3013   30.7290   46.3918 H   0  0  0  0  0  0  0  0  0  0  0  0
  1  2  2  0
  2  3  1  0
  3  4  2  3
  4  5  1  0
  5  6  1  0
  6  7  2  0
  7  8  1  0
  8  9  2  0
  9 10  1  0
  2 11  1  0
 11 12  2  0
 12 13  1  0
 13 14  2  0
 14 15  1  0
 15 16  1  0
 16 17  2  0
 16 18  2  0
 16 19  1  0
 19 20  1  0
 20 21  1  0
 21 22  1  0
 22 23  2  0
 23 24  1  0
 24 25  2  0
 25 26  1  0
 26 27  1  0
 26 28  2  0
 15 29  2  0
  9  4  1  0
 29 11  1  0
 28 22  1  0
  6 30  1  0
  7 31  1  0
  8 32  1  0
 10 33  1  0
 12 34  1  0
 13 35  1  0
 14 36  1  0
 20 37  1  0
 20 38  1  0
 21 39  1  0
 21 40  1  0
 23 41  1  0
 24 42  1  0
 25 43  1  0
 28 44  1  0
 29 45  1  0
M  CHG  2   5  -1  19  -1
M  END
>  <UniqueID>  (40) 
34

>  <SMILES>  (40) 
O=C(N=c1[n-]cccc1O)c1cccc(S(=O)(=O)[N-]CCc2cccc(F)c2)c1

>  <Energy>  (40) 
54.28613272404729

>  <Genealogy>  (40) 
O=C(N=c1[n-]cccc1O)c1cccc(S(=O)(=O)[N-]CCc2cccc(F)c2)c1 (protonated)
O=C(N=c1[n-]cccc1O)c1cccc(S(=O)(=O)[N-]CCc2cccc(F)c2)c1 (3D coordinates assigned)
O=C(N=c1[n-]cccc1O)c1cccc(S(=O)(=O)[N-]CCc2cccc(F)c2)c1 (optimized conformer: 54.28613272404729 kcal/mol)

>  <smiles>  (40) 
O=C(N=c1[nH]cccc1O)c1cccc(S(=O)(=O)NCCc2cccc(F)c2)c1

>  <score_type>  (40) 
oracle

>  <origin>  (40) 
adg

>  <m_score__min__energy>  (40) 
-12.640000000000001

>  <m_primary>  (40) 
energy

$$$$
40:0
     RDKit          3D

 44 45  0  0  0  0  0  0  0  0999 V2000
   65.2570   32.3700   50.1060 C   0  0  0  0  0  0  0  0  0  0  0  0
   64.8290   33.4460   49.2800 O   0  0  0  0  0  0  0  0  0  0  0  0
   63.4800   33.7060   49.0200 C   0  0  0  0  0  0  0  0  0  0  0  0
   62.8630   34.5930   49.6750 O   0  0  0  0  0  0  0  0  0  0  0  0
   62.7660   32.9210   47.9470 C   0  0  1  0  0  0  0  0  0  0  0  0
   63.7120   32.7570   46.7450 C   0  0  0  0  0  0  0  0  0  0  0  0
   62.3320   31.5590   48.5220 C   0  0  0  0  0  0  0  0  0  0  0  0
   61.4450   30.7850   47.5390 C   0  0  0  0  0  0  0  0  0  0  0  0
   60.3490   31.6410   46.9330 C   0  0  0  0  0  0  0  0  0  0  0  0
   59.2300   31.0480   46.3030 C   0  0  0  0  0  0  0  0  0  0  0  0
   59.1180   29.5440   46.1900 C   0  0  0  0  0  0  0  0  0  0  0  0
   58.2030   31.8700   45.7880 C   0  0  0  0  0  0  0  0  0  0  0  0
   57.0380   31.3030   45.2540 O   0  0  0  0  0  0  0  0  0  0  0  0
   56.9190   30.9290   43.9120 C   0  0  0  0  0  0  0  0  0  0  0  0
   57.7640   31.6000   42.8840 C   0  0  0  0  0  0  0  0  0  0  0  0
   56.1240   30.0130   43.5650 O   0  0  0  0  0  0  0  0  0  0  0  0
   58.3430   33.2720   45.7880 C   0  0  0  0  0  0  0  0  0  0  0  0
   57.2500   34.1300   45.1890 C   0  0  0  0  0  0  0  0  0  0  0  0
   59.4660   33.8650   46.4110 C   0  0  0  0  0  0  0  0  0  0  0  0
   59.6190   35.3690   46.4580 C   0  0  0  0  0  0  0  0  0  0  0  0
   60.4760   33.0460   46.9520 C   0  0  0  0  0  0  0  0  0  0  0  0
   61.6060   33.6450   47.5300 O   0  0  0  0  0  0  0  0  0  0  0  0
   65.1447   32.6522   51.1632 H   0  0  0  0  0  0  0  0  0  0  0  0
   64.6441   31.4809   49.8968 H   0  0  0  0  0  0  0  0  0  0  0  0
   66.3132   32.1448   49.8968 H   0  0  0  0  0  0  0  0  0  0  0  0
   64.7359   32.5795   47.1058 H   0  0  0  0  0  0  0  0  0  0  0  0
   63.3849   31.9022   46.1349 H   0  0  0  0  0  0  0  0  0  0  0  0
   63.6917   33.6721   46.1349 H   0  0  0  0  0  0  0  0  0  0  0  0
   63.2296   30.9613   48.7389 H   0  0  0  0  0  0  0  0  0  0  0  0
   61.7502   31.7428   49.4373 H   0  0  0  0  0  0  0  0  0  0  0  0
   62.0770   30.3970   46.7266 H   0  0  0  0  0  0  0  0  0  0  0  0
   60.9581   29.9747   48.1014 H   0  0  0  0  0  0  0  0  0  0  0  0
   59.0851   29.1021   47.1968 H   0  0  0  0  0  0  0  0  0  0  0  0
   58.1981   29.2847   45.6455 H   0  0  0  0  0  0  0  0  0  0  0  0
   59.9894   29.1513   45.6455 H   0  0  0  0  0  0  0  0  0  0  0  0
   58.5321   32.2099   43.3819 H   0  0  0  0  0  0  0  0  0  0  0  0
   58.2503   30.8393   42.2556 H   0  0  0  0  0  0  0  0  0  0  0  0
   57.1333   32.2460   42.2556 H   0  0  0  0  0  0  0  0  0  0  0  0
   56.6622   34.5914   45.9962 H   0  0  0  0  0  0  0  0  0  0  0  0
   57.7012   34.9176   44.5677 H   0  0  0  0  0  0  0  0  0  0  0  0
   56.5920   33.5047   44.5677 H   0  0  0  0  0  0  0  0  0  0  0  0
   59.6528   35.7015   47.5060 H   0  0  0  0  0  0  0  0  0  0  0  0
   60.5513   35.6587   45.9511 H   0  0  0  0  0  0  0  0  0  0  0  0
   58.7642   35.8405   45.9511 H   0  0  0  0  0  0  0  0  0  0  0  0
  1  2  1  0
  2  3  1  0
  3  4  2  0
  3  5  1  0
  5  6  1  6
  5  7  1  0
  7  8  1  0
  8  9  1  0
  9 10  2  0
 10 11  1  0
 10 12  1  0
 12 13  1  0
 13 14  1  0
 14 15  1  0
 14 16  2  0
 12 17  2  0
 17 18  1  0
 17 19  1  0
 19 20  1  0
 19 21  2  0
 21 22  1  0
 22  5  1  0
 21  9  1  0
  1 23  1  0
  1 24  1  0
  1 25  1  0
  6 26  1  0
  6 27  1  0
  6 28  1  0
  7 29  1  0
  7 30  1  0
  8 31  1  0
  8 32  1  0
 11 33  1  0
 11 34  1  0
 11 35  1  0
 15 36  1  0
 15 37  1  0
 15 38  1  0
 18 39  1  0
 18 40  1  0
 18 41  1  0
 20 42  1  0
 20 43  1  0
 20 44  1  0
M  END
>  <UniqueID>  (41) 
35

>  <SMILES>  (41) 
COC(=O)[C@@]1(C)CCc2c(C)c(OC(C)=O)c(C)c(C)c2O1

>  <Energy>  (41) 
49.74569651101803

>  <Genealogy>  (41) 
COC(=O)[C@@]1(C)CCc2c(C)c(OC(C)=O)c(C)c(C)c2O1 (chirality)
COC(=O)[C@@]1(C)CCc2c(C)c(OC(C)=O)c(C)c(C)c2O1 (3D coordinates assigned)
COC(=O)[C@@]1(C)CCc2c(C)c(OC(C)=O)c(C)c(C)c2O1 (nonaromatic ring conformer: 49.74569651101803 kcal/mol)

>  <smiles>  (41) 
COC(=O)C1(C)CCc2c(C)c(OC(C)=O)c(C)c(C)c2O1

>  <score_type>  (41) 
oracle

>  <origin>  (41) 
adg

>  <m_score__min__energy>  (41) 
-7.6200000000000001

>  <m_primary>  (41) 
energy

$$$$
41:0
     RDKit          3D

 40 43  0  0  1  0  0  0  0  0999 V2000
   56.7320   25.0840   44.4820 N   0  0  0  0  0  0  0  0  0  0  0  0
   56.6650   26.1940   45.8200 S   0  0  0  0  0  0  0  0  0  0  0  0
   55.2270   26.6140   45.9990 O   0  0  0  0  0  0  0  0  0  0  0  0
   57.1250   25.5700   47.0980 O   0  0  0  0  0  0  0  0  0  0  0  0
   57.6600   27.5860   45.4530 C   0  0  0  0  0  0  0  0  0  0  0  0
   59.0030   27.4940   45.1670 C   0  0  0  0  0  0  0  0  0  0  0  0
   59.6910   28.6570   44.8920 C   0  0  0  0  0  0  0  0  0  0  0  0
   59.1070   29.9060   44.8880 C   0  0  0  0  0  0  0  0  0  0  0  0
   57.7610   29.9810   45.1770 C   0  0  0  0  0  0  0  0  0  0  0  0
   57.0440   31.2190   45.2040 N   0  0  0  0  0  0  0  0  0  0  0  0
   57.6440   32.3480   45.4180 C   0  0  0  0  0  0  0  0  0  0  0  0
   58.4980   32.4080   46.4420 N   0  0  0  0  0  0  0  0  0  0  0  0
   59.1710   33.5600   46.7350 C   0  0  0  0  0  0  0  0  0  0  0  0
   60.0880   33.5060   47.8390 C   0  0  0  0  0  0  0  0  0  0  0  0
   59.6670   33.6350   49.1700 C   0  0  0  0  0  0  0  0  0  0  0  0
   60.7300   33.5700   49.9900 N   0  0  0  0  0  0  0  0  0  0  0  0
   61.8500   33.4030   49.2730 C   0  0  0  0  0  0  0  0  0  0  0  0
   63.1410   33.2950   49.6340 N   0  0  0  0  0  0  0  0  0  0  0  0
   64.1400   33.1420   48.7380 C   0  0  0  0  0  0  0  0  0  0  0  0
   63.7530   33.1050   47.4050 C   0  0  0  0  0  0  0  0  0  0  0  0
   62.4390   33.2130   47.0130 C   0  0  0  0  0  0  0  0  0  0  0  0
   61.4460   33.3650   47.9360 C   0  0  0  0  0  0  0  0  0  0  0  0
   58.9020   34.6130   45.9140 C   0  0  0  0  0  0  0  0  0  0  0  0
   57.9990   34.5300   44.8410 C   0  0  0  0  0  0  0  0  0  0  0  0
   57.3590   33.3610   44.5970 N   0  0  0  0  0  0  0  0  0  0  0  0
   57.0380   28.8240   45.4590 C   0  0  0  0  0  0  0  0  0  0  0  0
   56.6160   25.5630   43.5720 H   0  0  0  0  0  0  0  0  0  0  0  0
   57.5240   24.4300   44.5310 H   0  0  0  0  0  0  0  0  0  0  0  0
   59.5135   26.5197   45.1580 H   0  0  0  0  0  0  0  0  0  0  0  0
   60.7645   28.5843   44.6633 H   0  0  0  0  0  0  0  0  0  0  0  0
   59.6932   30.8091   44.6626 H   0  0  0  0  0  0  0  0  0  0  0  0
   58.6245   33.7691   49.4942 H   0  0  0  0  0  0  0  0  0  0  0  0
   60.7320   33.6330   51.0320 H   0  0  0  0  0  0  0  0  0  0  0  0
   65.1926   33.0525   49.0446 H   0  0  0  0  0  0  0  0  0  0  0  0
   64.5271   32.9847   46.6328 H   0  0  0  0  0  0  0  0  0  0  0  0
   62.1860   33.1764   45.9431 H   0  0  0  0  0  0  0  0  0  0  0  0
   59.4136   35.5691   46.0990 H   0  0  0  0  0  0  0  0  0  0  0  0
   57.8130   35.4072   44.2039 H   0  0  0  0  0  0  0  0  0  0  0  0
   56.6850   33.2800   43.8040 H   0  0  0  0  0  0  0  0  0  0  0  0
   55.9644   28.8939   45.6883 H   0  0  0  0  0  0  0  0  0  0  0  0
  1  2  1  0
  2  3  2  0
  2  4  2  0
  2  5  1  0
  5  6  2  0
  6  7  1  0
  7  8  2  0
  8  9  1  0
  9 10  1  0
 10 11  2  0
 11 12  1  0
 12 13  2  0
 13 14  1  0
 14 15  2  0
 15 16  1  0
 16 17  1  0
 17 18  2  0
 18 19  1  0
 19 20  2  0
 20 21  1  0
 21 22  2  0
 13 23  1  0
 23 24  2  0
 24 25  1  0
  9 26  2  0
 26  5  1  0
 25 11  1  0
 22 14  1  0
 22 17  1  0
  1 27  1  0
  1 28  1  0
  6 29  1  0
  7 30  1  0
  8 31  1  0
 15 32  1  0
 16 33  1  0
 19 34  1  0
 20 35  1  0
 21 36  1  0
 23 37  1  0
 24 38  1  0
 25 39  1  0
 26 40  1  0
M  END
>  <smiles>  (42) 
NS(=O)(=O)c1cccc(N=c2nc(-c3c[nH]c4ncccc34)cc[nH]2)c1

>  <score_type>  (42) 
oracle

>  <origin>  (42) 
adg

>  <m_score__min__energy>  (42) 
-9.1400000000000006

>  <m_primary>  (42) 
energy

$$$$
42:0
     RDKit          3D

 48 50  0  0  0  0  0  0  0  0999 V2000
   52.8540   21.9700   47.0880 C   0  0  0  0  0  0  0  0  0  0  0  0
   53.1580   23.0220   46.0650 C   0  0  0  0  0  0  0  0  0  0  0  0
   52.6030   22.9520   44.9380 O   0  0  0  0  0  0  0  0  0  0  0  0
   54.0900   24.0840   46.3140 N   0  0  0  0  0  0  0  0  0  0  0  0
   55.3410   24.3010   45.6460 C   0  0  0  0  0  0  0  0  0  0  0  0
   55.8930   23.2570   44.8950 C   0  0  0  0  0  0  0  0  0  0  0  0
   57.1020   23.4380   44.2200 C   0  0  0  0  0  0  0  0  0  0  0  0
   57.7560   24.6710   44.2680 C   0  0  0  0  0  0  0  0  0  0  0  0
   57.1970   25.7470   44.9810 C   0  0  0  0  0  0  0  0  0  0  0  0
   57.8890   27.0590   45.0120 C   0  0  0  0  0  0  0  0  0  0  0  0
   59.0110   27.1550   45.5810 O   0  0  0  0  0  0  0  0  0  0  0  0
   57.3210   28.2080   44.3600 N   0  0  0  0  0  0  0  0  0  0  0  0
   57.6690   29.5660   44.6830 C   0  0  0  0  0  0  0  0  0  0  0  0
   58.3540   29.8350   45.8780 C   0  0  0  0  0  0  0  0  0  0  0  0
   58.7250   31.1430   46.2040 C   0  0  0  0  0  0  0  0  0  0  0  0
   58.4230   32.1980   45.3350 C   0  0  0  0  0  0  0  0  0  0  0  0
   58.9090   33.8430   45.7250 S   0  0  0  0  0  0  0  0  0  0  0  0
   57.7650   34.5900   46.3530 O   0  0  0  0  0  0  0  0  0  0  0  0
   59.3040   34.5640   44.4670 O   0  0  0  0  0  0  0  0  0  0  0  0
   60.2640   33.7890   46.8460 C   0  0  0  0  0  0  0  0  0  0  0  0
   60.0750   34.0880   48.2020 C   0  0  0  0  0  0  0  0  0  0  0  0
   61.1590   34.0650   49.0850 C   0  0  0  0  0  0  0  0  0  0  0  0
   62.4430   33.7370   48.6220 C   0  0  0  0  0  0  0  0  0  0  0  0
   63.6120   33.7520   49.5620 C   0  0  0  0  0  0  0  0  0  0  0  0
   62.6340   33.4650   47.2590 C   0  0  0  0  0  0  0  0  0  0  0  0
   61.5500   33.4870   46.3760 C   0  0  0  0  0  0  0  0  0  0  0  0
   57.7620   31.9330   44.1290 C   0  0  0  0  0  0  0  0  0  0  0  0
   57.3910   30.6260   43.8020 C   0  0  0  0  0  0  0  0  0  0  0  0
   55.9840   25.5520   45.6680 C   0  0  0  0  0  0  0  0  0  0  0  0
   52.9762   22.3928   48.0961 H   0  0  0  0  0  0  0  0  0  0  0  0
   51.8185   21.6219   46.9594 H   0  0  0  0  0  0  0  0  0  0  0  0
   53.5442   21.1232   46.9594 H   0  0  0  0  0  0  0  0  0  0  0  0
   55.3723   22.2898   44.8362 H   0  0  0  0  0  0  0  0  0  0  0  0
   57.5406   22.6067   43.6486 H   0  0  0  0  0  0  0  0  0  0  0  0
   58.7147   24.8016   43.7447 H   0  0  0  0  0  0  0  0  0  0  0  0
   56.7040   28.0460   43.5310 H   0  0  0  0  0  0  0  0  0  0  0  0
   58.6008   29.0107   46.5632 H   0  0  0  0  0  0  0  0  0  0  0  0
   59.2559   31.3436   47.1463 H   0  0  0  0  0  0  0  0  0  0  0  0
   59.0709   34.3415   48.5729 H   0  0  0  0  0  0  0  0  0  0  0  0
   61.0049   34.3050   50.1474 H   0  0  0  0  0  0  0  0  0  0  0  0
   63.2479   33.7473   50.6000 H   0  0  0  0  0  0  0  0  0  0  0  0
   64.2342   32.8618   49.3876 H   0  0  0  0  0  0  0  0  0  0  0  0
   64.2111   34.6579   49.3876 H   0  0  0  0  0  0  0  0  0  0  0  0
   63.6415   33.2333   46.8831 H   0  0  0  0  0  0  0  0  0  0  0  0
   61.7066   33.2668   45.3097 H   0  0  0  0  0  0  0  0  0  0  0  0
   57.5340   32.7568   43.4366 H   0  0  0  0  0  0  0  0  0  0  0  0
   56.8784   30.4252   42.8497 H   0  0  0  0  0  0  0  0  0  0  0  0
   55.5346   26.3857   46.2274 H   0  0  0  0  0  0  0  0  0  0  0  0
  1  2  1  0
  2  3  2  0
  2  4  1  0
  4  5  1  0
  5  6  2  0
  6  7  1  0
  7  8  2  0
  8  9  1  0
  9 10  1  0
 10 11  2  0
 10 12  1  0
 12 13  1  0
 13 14  2  0
 14 15  1  0
 15 16  2  0
 16 17  1  0
 17 18  2  0
 17 19  2  0
 17 20  1  0
 20 21  2  0
 21 22  1  0
 22 23  2  0
 23 24  1  0
 23 25  1  0
 25 26  2  0
 16 27  1  0
 27 28  2  0
  9 29  2  0
 29  5  1  0
 28 13  1  0
 26 20  1  0
  1 30  1  0
  1 31  1  0
  1 32  1  0
  6 33  1  0
  7 34  1  0
  8 35  1  0
 12 36  1  0
 14 37  1  0
 15 38  1  0
 21 39  1  0
 22 40  1  0
 24 41  1  0
 24 42  1  0
 24 43  1  0
 25 44  1  0
 26 45  1  0
 27 46  1  0
 28 47  1  0
 29 48  1  0
M  CHG  1   4  -1
M  END
>  <UniqueID>  (43) 
36

>  <SMILES>  (43) 
CC(=O)[N-]c1cccc(C(=O)Nc2ccc(S(=O)(=O)c3ccc(C)cc3)cc2)c1

>  <Energy>  (43) 
60.319376050237814

>  <Genealogy>  (43) 
CC(=O)[N-]c1cccc(C(=O)Nc2ccc(S(=O)(=O)c3ccc(C)cc3)cc2)c1 (protonated)
CC(=O)[N-]c1cccc(C(=O)Nc2ccc(S(=O)(=O)c3ccc(C)cc3)cc2)c1 (3D coordinates assigned)
CC(=O)[N-]c1cccc(C(=O)Nc2ccc(S(=O)(=O)c3ccc(C)cc3)cc2)c1 (optimized conformer: 60.319376050237814 kcal/mol)

>  <smiles>  (43) 
CC(=O)Nc1cccc(C(=O)Nc2ccc(S(=O)(=O)c3ccc(C)cc3)cc2)c1

>  <score_type>  (43) 
oracle

>  <origin>  (43) 
adg

>  <m_score__min__energy>  (43) 
-11.050000000000001

>  <m_primary>  (43) 
energy

$$$$
43:0
     RDKit          3D

 63 67  0  0  0  0  0  0  0  0999 V2000
   58.1290   27.1980   43.3170 C   0  0  0  0  0  0  0  0  0  0  0  0
   58.6840   27.4880   44.6780 C   0  0  0  0  0  0  0  0  0  0  0  0
   58.0380   26.9870   45.8180 C   0  0  0  0  0  0  0  0  0  0  0  0
   58.5800   27.2040   47.0870 C   0  0  0  0  0  0  0  0  0  0  0  0
   59.7770   27.9240   47.2340 C   0  0  0  0  0  0  0  0  0  0  0  0
   60.3950   28.0960   48.5960 C   0  0  0  0  0  0  0  0  0  0  0  0
   60.1230   29.4790   49.1140 C   0  0  0  0  0  0  0  0  0  0  0  0
   60.5720   30.5500   48.4150 N   0  0  0  0  0  0  0  0  0  0  0  0
   60.3780   31.8310   48.8330 C   0  0  0  0  0  0  0  0  0  0  0  0
   60.9270   32.9070   48.0400 N   0  0  0  0  0  0  0  0  0  0  0  0
   62.3500   32.8410   47.6630 C   0  0  0  0  0  0  0  0  0  0  0  0
   63.2800   33.1230   48.8230 C   0  0  0  0  0  0  0  0  0  0  0  0
   62.9320   34.0610   49.8160 C   0  0  0  0  0  0  0  0  0  0  0  0
   63.7540   34.2430   50.9320 C   0  0  0  0  0  0  0  0  0  0  0  0
   64.9230   33.4880   51.0790 C   0  0  0  0  0  0  0  0  0  0  0  0
   65.2820   32.5600   50.0990 C   0  0  0  0  0  0  0  0  0  0  0  0
   64.4600   32.3680   48.9810 C   0  0  0  0  0  0  0  0  0  0  0  0
   59.8290   33.7860   47.0030 S   0  0  0  0  0  0  0  0  0  0  0  0
   60.6180   34.5710   45.9940 O   0  0  0  0  0  0  0  0  0  0  0  0
   59.0110   34.7530   47.8130 O   0  0  0  0  0  0  0  0  0  0  0  0
   58.7350   32.6730   46.1800 C   0  0  0  0  0  0  0  0  0  0  0  0
   58.6340   31.3420   46.6050 C   0  0  0  0  0  0  0  0  0  0  0  0
   57.7640   30.4580   45.9570 C   0  0  0  0  0  0  0  0  0  0  0  0
   56.9890   30.8900   44.8680 C   0  0  0  0  0  0  0  0  0  0  0  0
   56.0740   29.9530   44.1800 C   0  0  0  0  0  0  0  0  0  0  0  0
   55.1780   29.3450   44.8240 O   0  0  0  0  0  0  0  0  0  0  0  0
   56.1870   29.7340   42.8130 O   0  0  0  0  0  0  0  0  0  0  0  0
   57.0980   32.2250   44.4420 C   0  0  0  0  0  0  0  0  0  0  0  0
   57.9680   33.1070   45.0900 C   0  0  0  0  0  0  0  0  0  0  0  0
   59.6570   32.0530   50.0300 C   0  0  0  0  0  0  0  0  0  0  0  0
   59.3410   33.3390   50.5090 C   0  0  0  0  0  0  0  0  0  0  0  0
   58.6250   33.4990   51.6960 C   0  0  0  0  0  0  0  0  0  0  0  0
   58.2070   32.3810   52.4200 C   0  0  0  0  0  0  0  0  0  0  0  0
   58.4950   31.0970   51.9520 C   0  0  0  0  0  0  0  0  0  0  0  0
   59.2090   30.9220   50.7560 C   0  0  0  0  0  0  0  0  0  0  0  0
   59.4610   29.6670   50.2890 N   0  0  0  0  0  0  0  0  0  0  0  0
   60.4210   28.4270   46.0920 C   0  0  0  0  0  0  0  0  0  0  0  0
   59.8770   28.2110   44.8220 C   0  0  0  0  0  0  0  0  0  0  0  0
   57.1581   26.6907   43.4174 H   0  0  0  0  0  0  0  0  0  0  0  0
   57.9947   28.1412   42.7672 H   0  0  0  0  0  0  0  0  0  0  0  0
   58.8266   26.5492   42.7672 H   0  0  0  0  0  0  0  0  0  0  0  0
   57.1008   26.4209   45.7122 H   0  0  0  0  0  0  0  0  0  0  0  0
   58.0666   26.8089   47.9760 H   0  0  0  0  0  0  0  0  0  0  0  0
   59.9638   27.3570   49.2873 H   0  0  0  0  0  0  0  0  0  0  0  0
   61.4822   27.9469   48.5200 H   0  0  0  0  0  0  0  0  0  0  0  0
   62.5647   31.8332   47.2779 H   0  0  0  0  0  0  0  0  0  0  0  0
   62.5264   33.6159   46.9025 H   0  0  0  0  0  0  0  0  0  0  0  0
   62.0101   34.6520   49.7124 H   0  0  0  0  0  0  0  0  0  0  0  0
   63.4806   34.9833   51.6983 H   0  0  0  0  0  0  0  0  0  0  0  0
   65.5589   33.6254   51.9660 H   0  0  0  0  0  0  0  0  0  0  0  0
   66.2104   31.9797   50.2050 H   0  0  0  0  0  0  0  0  0  0  0  0
   64.7373   31.6227   48.2209 H   0  0  0  0  0  0  0  0  0  0  0  0
   59.2413   30.9901   47.4520 H   0  0  0  0  0  0  0  0  0  0  0  0
   57.6864   29.4168   46.3031 H   0  0  0  0  0  0  0  0  0  0  0  0
   56.4946   32.5783   43.5928 H   0  0  0  0  0  0  0  0  0  0  0  0
   58.0510   34.1474   44.7425 H   0  0  0  0  0  0  0  0  0  0  0  0
   59.6615   34.2256   49.9422 H   0  0  0  0  0  0  0  0  0  0  0  0
   58.3893   34.5091   52.0623 H   0  0  0  0  0  0  0  0  0  0  0  0
   57.6504   32.5114   53.3598 H   0  0  0  0  0  0  0  0  0  0  0  0
   58.1607   30.2185   52.5234 H   0  0  0  0  0  0  0  0  0  0  0  0
   59.1330   28.8370   50.8320 H   0  0  0  0  0  0  0  0  0  0  0  0
   61.3579   28.9937   46.1969 H   0  0  0  0  0  0  0  0  0  0  0  0
   60.3868   28.6097   43.9325 H   0  0  0  0  0  0  0  0  0  0  0  0
  1  2  1  0
  2  3  2  0
  3  4  1  0
  4  5  2  0
  5  6  1  0
  6  7  1  0
  7  8  2  0
  8  9  1  0
  9 10  1  0
 10 11  1  0
 11 12  1  0
 12 13  2  0
 13 14  1  0
 14 15  2  0
 15 16  1  0
 16 17  2  0
 10 18  1  0
 18 19  2  0
 18 20  2  0
 18 21  1  0
 21 22  2  0
 22 23  1  0
 23 24  2  0
 24 25  1  0
 25 26  2  0
 25 27  1  0
 24 28  1  0
 28 29  2  0
  9 30  2  0
 30 31  1  0
 31 32  2  0
 32 33  1  0
 33 34  2  0
 34 35  1  0
 35 36  2  0
  5 37  1  0
 37 38  2  0
 38  2  1  0
 36  7  1  0
 17 12  1  0
 29 21  1  0
 35 30  1  0
  1 39  1  0
  1 40  1  0
  1 41  1  0
  3 42  1  0
  4 43  1  0
  6 44  1  0
  6 45  1  0
 11 46  1  0
 11 47  1  0
 13 48  1  0
 14 49  1  0
 15 50  1  0
 16 51  1  0
 17 52  1  0
 22 53  1  0
 23 54  1  0
 28 55  1  0
 29 56  1  0
 31 57  1  0
 32 58  1  0
 33 59  1  0
 34 60  1  0
 36 61  1  0
 37 62  1  0
 38 63  1  0
M  CHG  2  27  -1  36   1
M  END
>  <UniqueID>  (44) 
37

>  <SMILES>  (44) 
Cc1ccc(Cc2nc(N(Cc3ccccc3)S(=O)(=O)c3ccc(C(=O)[O-])cc3)c3ccccc3[nH+]2)cc1

>  <Energy>  (44) 
78.29247039916497

>  <Genealogy>  (44) 
Cc1ccc(Cc2nc(N(Cc3ccccc3)S(=O)(=O)c3ccc(C(=O)[O-])cc3)c3ccccc3[nH+]2)cc1 (protonated)
Cc1ccc(Cc2nc(N(Cc3ccccc3)S(=O)(=O)c3ccc(C(=O)[O-])cc3)c3ccccc3[nH+]2)cc1 (3D coordinates assigned)
Cc1ccc(Cc2nc(N(Cc3ccccc3)S(=O)(=O)c3ccc(C(=O)[O-])cc3)c3ccccc3[nH+]2)cc1 (optimized conformer: 78.29247039916497 kcal/mol)

>  <smiles>  (44) 
Cc1ccc(Cc2nc(N(Cc3ccccc3)S(=O)(=O)c3ccc(C(=O)O)cc3)c3ccccc3n2)cc1

>  <score_type>  (44) 
oracle

>  <origin>  (44) 
adg

>  <m_score__min__energy>  (44) 
-11.58

>  <m_primary>  (44) 
energy

$$$$
44:0
     RDKit          3D

 36 38  0  0  0  0  0  0  0  0999 V2000
   55.9790   29.7150   43.8560 C   0  0  0  0  0  0  0  0  0  0  0  0
   57.2640   30.0230   44.5060 N   0  0  0  0  0  0  0  0  0  0  0  0
   57.5010   31.2920   44.9870 C   0  0  0  0  0  0  0  0  0  0  0  0
   56.6340   32.2010   44.8750 O   0  0  0  0  0  0  0  0  0  0  0  0
   58.7130   31.5410   45.6210 C   0  0  0  0  0  0  0  0  0  0  0  0
   59.6160   30.5420   45.7810 C   0  0  0  0  0  0  0  0  0  0  0  0
   60.6940   30.9730   46.4640 N   0  0  0  0  0  0  0  0  0  0  0  0
   60.3950   32.2760   46.7010 C   0  0  0  0  0  0  0  0  0  0  0  0
   61.2580   33.1320   47.4660 N   0  0  0  0  0  0  0  0  0  0  0  0
   62.6460   33.3560   47.0960 C   0  0  0  0  0  0  0  0  0  0  0  0
   63.3420   33.8380   48.3640 C   0  0  0  0  0  0  0  0  0  0  0  0
   62.2290   34.2230   49.3330 C   0  0  0  0  0  0  0  0  0  0  0  0
   60.9810   33.5030   48.8440 C   0  0  0  0  0  0  0  0  0  0  0  0
   59.1990   32.6660   46.1810 N   0  0  0  0  0  0  0  0  0  0  0  0
   58.6040   34.0010   46.1980 C   0  0  0  0  0  0  0  0  0  0  0  0
   59.3960   29.2800   45.3240 N   0  0  0  0  0  0  0  0  0  0  0  0
   60.3770   28.2130   45.5660 C   0  0  0  0  0  0  0  0  0  0  0  0
   58.1950   29.0170   44.7030 C   0  0  0  0  0  0  0  0  0  0  0  0
   57.9390   27.8410   44.3170 O   0  0  0  0  0  0  0  0  0  0  0  0
   55.2139   29.5316   44.6248 H   0  0  0  0  0  0  0  0  0  0  0  0
   55.6723   30.5651   43.2289 H   0  0  0  0  0  0  0  0  0  0  0  0
   56.0910   28.8183   43.2289 H   0  0  0  0  0  0  0  0  0  0  0  0
   63.1031   32.4209   46.7401 H   0  0  0  0  0  0  0  0  0  0  0  0
   62.7342   34.0905   46.2819 H   0  0  0  0  0  0  0  0  0  0  0  0
   63.9592   33.0337   48.7907 H   0  0  0  0  0  0  0  0  0  0  0  0
   64.0101   34.6875   48.1592 H   0  0  0  0  0  0  0  0  0  0  0  0
   62.4818   33.8998   50.3536 H   0  0  0  0  0  0  0  0  0  0  0  0
   62.0801   35.3124   49.3639 H   0  0  0  0  0  0  0  0  0  0  0  0
   60.7919   32.6063   49.4524 H   0  0  0  0  0  0  0  0  0  0  0  0
   60.0872   34.1393   48.9223 H   0  0  0  0  0  0  0  0  0  0  0  0
   58.4597   34.3249   47.2393 H   0  0  0  0  0  0  0  0  0  0  0  0
   59.2726   34.7070   45.6838 H   0  0  0  0  0  0  0  0  0  0  0  0
   57.6319   33.9758   45.6838 H   0  0  0  0  0  0  0  0  0  0  0  0
   60.5062   28.0725   46.6493 H   0  0  0  0  0  0  0  0  0  0  0  0
   60.0184   27.2760   45.1149 H   0  0  0  0  0  0  0  0  0  0  0  0
   61.3407   28.4918   45.1149 H   0  0  0  0  0  0  0  0  0  0  0  0
  1  2  1  0
  2  3  1  0
  3  4  2  0
  3  5  1  0
  5  6  2  0
  6  7  1  0
  7  8  2  0
  8  9  1  0
  9 10  1  0
 10 11  1  0
 11 12  1  0
 12 13  1  0
  8 14  1  0
 14 15  1  0
  6 16  1  0
 16 17  1  0
 16 18  1  0
 18 19  2  0
 18  2  1  0
 14  5  1  0
 13  9  1  0
  1 20  1  0
  1 21  1  0
  1 22  1  0
 10 23  1  0
 10 24  1  0
 11 25  1  0
 11 26  1  0
 12 27  1  0
 12 28  1  0
 13 29  1  0
 13 30  1  0
 15 31  1  0
 15 32  1  0
 15 33  1  0
 17 34  1  0
 17 35  1  0
 17 36  1  0
M  END
>  <UniqueID>  (45) 
38

>  <SMILES>  (45) 
Cn1c(=O)c2c(nc(N3CCCC3)n2C)n(C)c1=O

>  <Energy>  (45) 
86.77062017912787

>  <Genealogy>  (45) 
Cn1c(=O)c2c(nc(N3CCCC3)n2C)n(C)c1=O (3D coordinates assigned)
Cn1c(=O)c2c(nc(N3CCCC3)n2C)n(C)c1=O (nonaromatic ring conformer: 86.77062017912787 kcal/mol)

>  <smiles>  (45) 
Cn1c(=O)c2c(nc(N3CCCC3)n2C)n(C)c1=O

>  <score_type>  (45) 
oracle

>  <origin>  (45) 
adg

>  <m_score__min__energy>  (45) 
-5.6500000000000004

>  <m_primary>  (45) 
energy

$$$$
45:0
     RDKit          3D

 44 46  0  0  0  0  0  0  0  0999 V2000
   53.8350   22.9380   46.9660 C   0  0  0  0  0  0  0  0  0  0  0  0
   55.0020   23.4650   46.2600 N   0  0  0  0  0  0  0  0  0  0  0  0
   55.1780   23.2380   44.8210 C   0  0  0  0  0  0  0  0  0  0  0  0
   56.0480   24.1020   47.0170 C   0  0  0  0  0  0  0  0  0  0  0  0
   56.3900   23.6150   48.1270 O   0  0  0  0  0  0  0  0  0  0  0  0
   56.7110   25.3280   46.5170 C   0  0  0  0  0  0  0  0  0  0  0  0
   58.1140   25.3970   46.5140 C   0  0  0  0  0  0  0  0  0  0  0  0
   58.7640   26.5420   46.0580 C   0  0  0  0  0  0  0  0  0  0  0  0
   58.0270   27.6340   45.6070 C   0  0  0  0  0  0  0  0  0  0  0  0
   56.6250   27.6010   45.6150 C   0  0  0  0  0  0  0  0  0  0  0  0
   55.9110   28.7440   45.1140 N   0  0  0  0  0  0  0  0  0  0  0  0
   56.5150   29.8370   44.4140 C   0  0  0  0  0  0  0  0  0  0  0  0
   57.2310   30.9810   44.7450 C   0  0  0  0  0  0  0  0  0  0  0  0
   57.7660   31.5740   45.9290 N   0  0  0  0  0  0  0  0  0  0  0  0
   58.2810   33.2270   46.0260 S   0  0  0  0  0  0  0  0  0  0  0  0
   59.1440   33.5360   44.8340 O   0  0  0  0  0  0  0  0  0  0  0  0
   57.0810   34.1310   46.0080 O   0  0  0  0  0  0  0  0  0  0  0  0
   59.2420   33.4940   47.4790 C   0  0  0  0  0  0  0  0  0  0  0  0
   58.8770   32.8760   48.6820 C   0  0  0  0  0  0  0  0  0  0  0  0
   59.6260   33.0960   49.8400 C   0  0  0  0  0  0  0  0  0  0  0  0
   60.7430   33.9310   49.8040 C   0  0  0  0  0  0  0  0  0  0  0  0
   61.1220   34.5380   48.6020 C   0  0  0  0  0  0  0  0  0  0  0  0
   60.3810   34.3110   47.4400 C   0  0  0  0  0  0  0  0  0  0  0  0
   57.2770   31.3300   43.4130 C   0  0  0  0  0  0  0  0  0  0  0  0
   57.7530   32.2980   42.7650 O   0  0  0  0  0  0  0  0  0  0  0  0
   56.6280   30.1600   43.0780 C   0  0  0  0  0  0  0  0  0  0  0  0
   56.2660   29.6190   42.0010 O   0  0  0  0  0  0  0  0  0  0  0  0
   55.9630   26.4230   46.0330 C   0  0  0  0  0  0  0  0  0  0  0  0
   54.5770   26.3340   45.9630 O   0  0  0  0  0  0  0  0  0  0  0  0
   53.9987   23.0119   48.0512 H   0  0  0  0  0  0  0  0  0  0  0  0
   52.9445   23.5214   46.6889 H   0  0  0  0  0  0  0  0  0  0  0  0
   53.6838   21.8843   46.6889 H   0  0  0  0  0  0  0  0  0  0  0  0
   55.8452   22.3775   44.6644 H   0  0  0  0  0  0  0  0  0  0  0  0
   54.2006   23.0328   44.3599 H   0  0  0  0  0  0  0  0  0  0  0  0
   55.6202   24.1335   44.3599 H   0  0  0  0  0  0  0  0  0  0  0  0
   58.7037   24.5411   46.8742 H   0  0  0  0  0  0  0  0  0  0  0  0
   59.8632   26.5834   46.0543 H   0  0  0  0  0  0  0  0  0  0  0  0
   58.5491   28.5304   45.2412 H   0  0  0  0  0  0  0  0  0  0  0  0
   54.8830   28.8040   45.2860 H   0  0  0  0  0  0  0  0  0  0  0  0
   57.9979   32.2156   48.7146 H   0  0  0  0  0  0  0  0  0  0  0  0
   59.3345   32.6098   50.7827 H   0  0  0  0  0  0  0  0  0  0  0  0
   61.3250   34.1119   50.7197 H   0  0  0  0  0  0  0  0  0  0  0  0
   62.0041   35.1945   48.5719 H   0  0  0  0  0  0  0  0  0  0  0  0
   60.6917   34.7743   46.4919 H   0  0  0  0  0  0  0  0  0  0  0  0
  1  2  1  0
  2  3  1  0
  2  4  1  0
  4  5  2  0
  4  6  1  0
  6  7  2  0
  7  8  1  0
  8  9  2  0
  9 10  1  0
 10 11  1  0
 11 12  1  0
 12 13  2  0
 13 14  1  0
 14 15  1  0
 15 16  2  0
 15 17  2  0
 15 18  1  0
 18 19  2  0
 19 20  1  0
 20 21  2  0
 21 22  1  0
 22 23  2  0
 13 24  1  0
 24 25  2  0
 24 26  1  0
 26 27  2  0
 10 28  2  0
 28 29  1  0
 28  6  1  0
 26 12  1  0
 23 18  1  0
  1 30  1  0
  1 31  1  0
  1 32  1  0
  3 33  1  0
  3 34  1  0
  3 35  1  0
  7 36  1  0
  8 37  1  0
  9 38  1  0
 11 39  1  0
 19 40  1  0
 20 41  1  0
 21 42  1  0
 22 43  1  0
 23 44  1  0
M  CHG  2  14  -1  29  -1
M  END
>  <UniqueID>  (46) 
39

>  <SMILES>  (46) 
CN(C)C(=O)c1cccc(Nc2c([N-]S(=O)(=O)c3ccccc3)c(=O)c2=O)c1[O-]

>  <Energy>  (46) 
49.44822502667927

>  <Genealogy>  (46) 
CN(C)C(=O)c1cccc(Nc2c([N-]S(=O)(=O)c3ccccc3)c(=O)c2=O)c1[O-] (protonated)
CN(C)C(=O)c1cccc(Nc2c([N-]S(=O)(=O)c3ccccc3)c(=O)c2=O)c1[O-] (3D coordinates assigned)
CN(C)C(=O)c1cccc(Nc2c([N-]S(=O)(=O)c3ccccc3)c(=O)c2=O)c1[O-] (optimized conformer: 49.44822502667927 kcal/mol)

>  <smiles>  (46) 
CN(C)C(=O)c1cccc(Nc2c(NS(=O)(=O)c3ccccc3)c(=O)c2=O)c1O

>  <score_type>  (46) 
oracle

>  <origin>  (46) 
adg

>  <m_score__min__energy>  (46) 
-14.859999999999999

>  <m_primary>  (46) 
energy

$$$$
46:0
     RDKit          3D

 48 50  0  0  0  0  0  0  0  0999 V2000
   63.8280   32.6330   48.7930 C   0  0  0  0  0  0  0  0  0  0  0  0
   63.3390   32.8370   47.3590 C   0  0  0  0  0  0  0  0  0  0  0  0
   61.9820   32.2820   47.1600 N   0  0  0  0  0  0  0  0  0  0  0  0
   61.9180   30.8980   47.6740 C   0  0  0  0  0  0  0  0  0  0  0  0
   60.6570   30.2080   47.2240 C   0  0  0  0  0  0  0  0  0  0  0  0
   60.3710   30.0640   45.8580 C   0  0  0  0  0  0  0  0  0  0  0  0
   59.1960   29.4310   45.4440 C   0  0  0  0  0  0  0  0  0  0  0  0
   58.2770   28.9420   46.3890 C   0  0  0  0  0  0  0  0  0  0  0  0
   57.0320   28.2670   45.9500 C   0  0  0  0  0  0  0  0  0  0  0  0
   56.2790   28.8320   45.1100 O   0  0  0  0  0  0  0  0  0  0  0  0
   56.6460   27.0180   46.5490 N   0  0  0  0  0  0  0  0  0  0  0  0
   56.0930   25.9740   45.9940 C   0  0  0  0  0  0  0  0  0  0  0  0
   56.8360   24.9030   45.4510 C   0  0  0  0  0  0  0  0  0  0  0  0
   56.1630   23.8190   44.8820 C   0  0  0  0  0  0  0  0  0  0  0  0
   54.7700   23.7930   44.8640 C   0  0  0  0  0  0  0  0  0  0  0  0
   54.0630   24.8570   45.4260 C   0  0  0  0  0  0  0  0  0  0  0  0
   54.7330   25.9050   45.9730 N   0  0  0  0  0  0  0  0  0  0  0  0
   58.5600   29.1020   47.7580 C   0  0  0  0  0  0  0  0  0  0  0  0
   59.7360   29.7340   48.1700 C   0  0  0  0  0  0  0  0  0  0  0  0
   60.7670   33.2830   47.9450 S   0  0  0  0  0  0  0  0  0  0  0  0
   60.2610   32.5930   49.1810 O   0  0  0  0  0  0  0  0  0  0  0  0
   61.3770   34.5860   48.3830 O   0  0  0  0  0  0  0  0  0  0  0  0
   59.4040   33.6310   46.8770 C   0  0  0  0  0  0  0  0  0  0  0  0
   59.6000   34.3670   45.6990 C   0  0  0  0  0  0  0  0  0  0  0  0
   58.5210   34.6410   44.8530 C   0  0  0  0  0  0  0  0  0  0  0  0
   57.2410   34.1860   45.1800 C   0  0  0  0  0  0  0  0  0  0  0  0
   57.0390   33.4570   46.3560 C   0  0  0  0  0  0  0  0  0  0  0  0
   58.1160   33.1820   47.2040 C   0  0  0  0  0  0  0  0  0  0  0  0
   63.0475   32.9586   49.4964 H   0  0  0  0  0  0  0  0  0  0  0  0
   64.0484   31.5679   48.9572 H   0  0  0  0  0  0  0  0  0  0  0  0
   64.7400   33.2257   48.9572 H   0  0  0  0  0  0  0  0  0  0  0  0
   63.3194   33.9146   47.1388 H   0  0  0  0  0  0  0  0  0  0  0  0
   64.0281   32.3094   46.6831 H   0  0  0  0  0  0  0  0  0  0  0  0
   62.7871   30.3362   47.3012 H   0  0  0  0  0  0  0  0  0  0  0  0
   61.9222   30.9340   48.7734 H   0  0  0  0  0  0  0  0  0  0  0  0
   61.0762   30.4519   45.1082 H   0  0  0  0  0  0  0  0  0  0  0  0
   58.9884   29.3144   44.3701 H   0  0  0  0  0  0  0  0  0  0  0  0
   57.9356   24.9220   45.4758 H   0  0  0  0  0  0  0  0  0  0  0  0
   56.7336   22.9849   44.4476 H   0  0  0  0  0  0  0  0  0  0  0  0
   54.2344   22.9448   44.4127 H   0  0  0  0  0  0  0  0  0  0  0  0
   52.9630   24.8472   45.4261 H   0  0  0  0  0  0  0  0  0  0  0  0
   57.8500   28.7266   48.5096 H   0  0  0  0  0  0  0  0  0  0  0  0
   59.9410   29.8607   49.2433 H   0  0  0  0  0  0  0  0  0  0  0  0
   60.6057   34.7297   45.4400 H   0  0  0  0  0  0  0  0  0  0  0  0
   58.6801   35.2156   43.9286 H   0  0  0  0  0  0  0  0  0  0  0  0
   56.3931   34.4011   44.5130 H   0  0  0  0  0  0  0  0  0  0  0  0
   56.0313   33.0994   46.6143 H   0  0  0  0  0  0  0  0  0  0  0  0
   57.9528   32.6118   48.1304 H   0  0  0  0  0  0  0  0  0  0  0  0
  1  2  1  0
  2  3  1  0
  3  4  1  0
  4  5  1  0
  5  6  2  0
  6  7  1  0
  7  8  2  0
  8  9  1  0
  9 10  2  0
  9 11  1  0
 11 12  2  3
 12 13  1  0
 13 14  2  0
 14 15  1  0
 15 16  2  0
 16 17  1  0
  8 18  1  0
 18 19  2  0
  3 20  1  0
 20 21  2  0
 20 22  2  0
 20 23  1  0
 23 24  2  0
 24 25  1  0
 25 26  2  0
 26 27  1  0
 27 28  2  0
 19  5  1  0
 28 23  1  0
 17 12  1  0
  1 29  1  0
  1 30  1  0
  1 31  1  0
  2 32  1  0
  2 33  1  0
  4 34  1  0
  4 35  1  0
  6 36  1  0
  7 37  1  0
 13 38  1  0
 14 39  1  0
 15 40  1  0
 16 41  1  0
 18 42  1  0
 19 43  1  0
 24 44  1  0
 25 45  1  0
 26 46  1  0
 27 47  1  0
 28 48  1  0
M  CHG  1  17  -1
M  END
>  <UniqueID>  (47) 
40

>  <SMILES>  (47) 
CCN(Cc1ccc(C(=O)N=c2cccc[n-]2)cc1)S(=O)(=O)c1ccccc1

>  <Energy>  (47) 
58.85225070548096

>  <Genealogy>  (47) 
CCN(Cc1ccc(C(=O)N=c2cccc[n-]2)cc1)S(=O)(=O)c1ccccc1 (protonated)
CCN(Cc1ccc(C(=O)N=c2cccc[n-]2)cc1)S(=O)(=O)c1ccccc1 (3D coordinates assigned)
CCN(Cc1ccc(C(=O)N=c2cccc[n-]2)cc1)S(=O)(=O)c1ccccc1 (optimized conformer: 58.85225070548096 kcal/mol)

>  <smiles>  (47) 
CCN(Cc1ccc(C(=O)N=c2cccc[nH]2)cc1)S(=O)(=O)c1ccccc1

>  <score_type>  (47) 
oracle

>  <origin>  (47) 
adg

>  <m_score__min__energy>  (47) 
-10.539999999999999

>  <m_primary>  (47) 
energy

$$$$
47:0
     RDKit          3D

 31 32  0  0  0  0  0  0  0  0999 V2000
   56.5710   28.9690   42.4220 N   0  0  0  0  0  0  0  0  0  0  0  0
   56.9190   30.1840   43.1470 C   0  0  0  0  0  0  0  0  0  0  0  0
   56.5120   30.0590   44.5800 C   0  0  0  0  0  0  0  0  0  0  0  0
   55.5150   29.3500   44.8840 O   0  0  0  0  0  0  0  0  0  0  0  0
   57.3170   30.6660   45.5990 N   0  0  0  0  0  0  0  0  0  0  0  0
   57.7850   32.0230   45.6140 C   0  0  0  0  0  0  0  0  0  0  0  0
   57.4310   32.9300   44.5970 C   0  0  0  0  0  0  0  0  0  0  0  0
   57.9460   34.2290   44.5970 C   0  0  0  0  0  0  0  0  0  0  0  0
   58.8330   34.6300   45.5970 C   0  0  0  0  0  0  0  0  0  0  0  0
   59.2070   33.7330   46.6000 C   0  0  0  0  0  0  0  0  0  0  0  0
   58.6810   32.4350   46.6210 C   0  0  0  0  0  0  0  0  0  0  0  0
   59.1730   31.3100   47.9360 S   0  0  0  0  0  0  0  0  0  0  0  0
   60.8090   32.0380   48.1020 C   0  0  0  0  0  0  0  0  0  0  0  0
   61.8880   31.5180   47.3710 C   0  0  0  0  0  0  0  0  0  0  0  0
   61.7130   30.4570   46.5440 F   0  0  0  0  0  0  0  0  0  0  0  0
   63.1600   32.0880   47.4960 C   0  0  0  0  0  0  0  0  0  0  0  0
   63.3610   33.1700   48.3560 C   0  0  0  0  0  0  0  0  0  0  0  0
   62.2930   33.6810   49.0990 C   0  0  0  0  0  0  0  0  0  0  0  0
   61.0190   33.1140   48.9790 C   0  0  0  0  0  0  0  0  0  0  0  0
   60.0000   33.6070   49.7230 F   0  0  0  0  0  0  0  0  0  0  0  0
   56.2940   28.2470   43.1260 H   0  0  0  0  0  0  0  0  0  0  0  0
   55.7180   29.1640   41.8490 H   0  0  0  0  0  0  0  0  0  0  0  0
   58.0058   30.3437   43.0897 H   0  0  0  0  0  0  0  0  0  0  0  0
   56.3920   31.0374   42.6952 H   0  0  0  0  0  0  0  0  0  0  0  0
   56.7448   32.6141   43.7975 H   0  0  0  0  0  0  0  0  0  0  0  0
   57.6519   34.9365   43.8077 H   0  0  0  0  0  0  0  0  0  0  0  0
   59.2377   35.6529   45.5952 H   0  0  0  0  0  0  0  0  0  0  0  0
   59.9185   34.0476   47.3777 H   0  0  0  0  0  0  0  0  0  0  0  0
   64.0026   31.6833   46.9162 H   0  0  0  0  0  0  0  0  0  0  0  0
   64.3603   33.6203   48.4487 H   0  0  0  0  0  0  0  0  0  0  0  0
   62.4541   34.5303   49.7793 H   0  0  0  0  0  0  0  0  0  0  0  0
  1  2  1  0
  2  3  1  0
  3  4  2  0
  3  5  1  0
  5  6  1  0
  6  7  2  0
  7  8  1  0
  8  9  2  0
  9 10  1  0
 10 11  2  0
 11 12  1  0
 12 13  1  0
 13 14  2  0
 14 15  1  0
 14 16  1  0
 16 17  2  0
 17 18  1  0
 18 19  2  0
 19 20  1  0
 11  6  1  0
 19 13  1  0
  1 21  1  0
  1 22  1  0
  2 23  1  0
  2 24  1  0
  7 25  1  0
  8 26  1  0
  9 27  1  0
 10 28  1  0
 16 29  1  0
 17 30  1  0
 18 31  1  0
M  CHG  1   5  -1
M  END
>  <UniqueID>  (48) 
41

>  <SMILES>  (48) 
NCC(=O)[N-]c1ccccc1Sc1c(F)cccc1F

>  <Energy>  (48) 
28.600159831058477

>  <Genealogy>  (48) 
NCC(=O)[N-]c1ccccc1Sc1c(F)cccc1F (protonated)
NCC(=O)[N-]c1ccccc1Sc1c(F)cccc1F (3D coordinates assigned)
NCC(=O)[N-]c1ccccc1Sc1c(F)cccc1F (optimized conformer: 28.600159831058477 kcal/mol)

>  <smiles>  (48) 
NCC(=O)Nc1ccccc1Sc1c(F)cccc1F

>  <score_type>  (48) 
oracle

>  <origin>  (48) 
adg

>  <m_score__min__energy>  (48) 
-8.9399999999999995

>  <m_primary>  (48) 
energy

$$$$
48:0
     RDKit          3D

 76 81  0  0  0  0  0  0  0  0999 V2000
   50.9240   22.9150   44.6220 C   0  0  0  0  0  0  0  0  0  0  0  0
   52.0050   22.2240   45.2400 O   0  0  0  0  0  0  0  0  0  0  0  0
   52.0930   21.9510   46.6130 C   0  0  0  0  0  0  0  0  0  0  0  0
   51.0340   21.3520   47.3250 C   0  0  0  0  0  0  0  0  0  0  0  0
   51.1480   21.1140   48.6980 C   0  0  0  0  0  0  0  0  0  0  0  0
   52.3180   21.4680   49.3730 C   0  0  0  0  0  0  0  0  0  0  0  0
   53.3790   22.0540   48.6790 C   0  0  0  0  0  0  0  0  0  0  0  0
   53.2730   22.3080   47.2990 C   0  0  0  0  0  0  0  0  0  0  0  0
   54.3720   22.8900   46.5780 N   0  0  0  0  0  0  0  0  0  0  0  0
   54.2750   24.1330   45.8650 C   0  0  0  0  0  0  0  0  0  0  0  0
   53.1410   24.6260   45.6180 O   0  0  0  0  0  0  0  0  0  0  0  0
   55.4890   24.8090   45.3550 C   0  0  0  0  0  0  0  0  0  0  0  0
   56.2820   24.1880   44.3750 C   0  0  0  0  0  0  0  0  0  0  0  0
   57.4420   24.8040   43.9090 C   0  0  0  0  0  0  0  0  0  0  0  0
   57.8190   26.0530   44.4040 C   0  0  0  0  0  0  0  0  0  0  0  0
   57.0270   26.7120   45.3630 C   0  0  0  0  0  0  0  0  0  0  0  0
   57.4150   28.0140   45.8650 N   0  0  0  0  0  0  0  0  0  0  0  0
   58.2260   28.1240   47.0870 C   0  0  0  0  0  0  0  0  0  0  0  0
   59.0420   29.3910   47.1270 C   0  0  0  0  0  0  0  0  0  0  0  0
   60.1090   29.5080   48.0260 C   0  0  0  0  0  0  0  0  0  0  0  0
   60.8010   30.6710   48.1140 N   0  0  0  0  0  0  0  0  0  0  0  0
   60.4750   31.7440   47.3420 C   0  0  0  0  0  0  0  0  0  0  0  0
   61.1550   32.8510   47.4040 N   0  0  0  0  0  0  0  0  0  0  0  0
   62.3060   33.0960   48.2280 C   0  0  0  0  0  0  0  0  0  0  0  0
   62.2080   34.0300   49.2660 C   0  0  0  0  0  0  0  0  0  0  0  0
   63.2760   34.2290   50.1450 C   0  0  0  0  0  0  0  0  0  0  0  0
   64.4580   33.4780   50.0150 C   0  0  0  0  0  0  0  0  0  0  0  0
   65.5390   33.6420   50.9580 N   0  0  0  0  0  0  0  0  0  0  0  0
   65.3580   34.3740   52.2210 C   0  0  0  0  0  0  0  0  0  0  0  0
   66.4130   35.4900   52.3540 C   0  0  0  0  0  0  0  0  0  0  0  0
   67.6390   35.2290   51.5590 N   0  0  0  0  0  0  0  0  0  0  0  0
   68.7810   35.9760   52.1030 C   0  0  0  0  0  0  0  0  0  0  0  0
   67.9470   33.7900   51.4850 C   0  0  0  0  0  0  0  0  0  0  0  0
   66.8650   33.0860   50.6590 C   0  0  0  0  0  0  0  0  0  0  0  0
   64.5400   32.5170   48.9910 C   0  0  0  0  0  0  0  0  0  0  0  0
   63.4760   32.3280   48.1050 C   0  0  0  0  0  0  0  0  0  0  0  0
   59.4370   31.6520   46.4710 N   0  0  0  0  0  0  0  0  0  0  0  0
   58.7020   30.5120   46.3520 C   0  0  0  0  0  0  0  0  0  0  0  0
   57.5840   30.4620   45.4470 N   0  0  0  0  0  0  0  0  0  0  0  0
   57.0750   31.6780   44.8010 C   0  0  0  0  0  0  0  0  0  0  0  0
   56.8900   29.2160   45.2700 C   0  0  0  0  0  0  0  0  0  0  0  0
   55.8180   29.1740   44.6040 O   0  0  0  0  0  0  0  0  0  0  0  0
   55.8620   26.0760   45.8350 C   0  0  0  0  0  0  0  0  0  0  0  0
   50.2665   23.3353   45.3972 H   0  0  0  0  0  0  0  0  0  0  0  0
   51.3190   23.7285   43.9957 H   0  0  0  0  0  0  0  0  0  0  0  0
   50.3515   22.2150   43.9957 H   0  0  0  0  0  0  0  0  0  0  0  0
   50.1114   21.0698   46.7966 H   0  0  0  0  0  0  0  0  0  0  0  0
   50.3161   20.6479   49.2464 H   0  0  0  0  0  0  0  0  0  0  0  0
   52.4043   21.2849   50.4542 H   0  0  0  0  0  0  0  0  0  0  0  0
   54.3029   22.3185   49.2143 H   0  0  0  0  0  0  0  0  0  0  0  0
   55.2430   22.3220   46.4630 H   0  0  0  0  0  0  0  0  0  0  0  0
   55.9849   23.2083   43.9727 H   0  0  0  0  0  0  0  0  0  0  0  0
   58.0616   24.3047   43.1495 H   0  0  0  0  0  0  0  0  0  0  0  0
   58.7432   26.5267   44.0416 H   0  0  0  0  0  0  0  0  0  0  0  0
   57.5547   28.1093   47.9583 H   0  0  0  0  0  0  0  0  0  0  0  0
   58.9259   27.2755   47.1008 H   0  0  0  0  0  0  0  0  0  0  0  0
   60.3866   28.6547   48.6623 H   0  0  0  0  0  0  0  0  0  0  0  0
   61.2829   34.6120   49.3908 H   0  0  0  0  0  0  0  0  0  0  0  0
   63.1915   34.9791   50.9451 H   0  0  0  0  0  0  0  0  0  0  0  0
   64.3533   34.8215   52.2393 H   0  0  0  0  0  0  0  0  0  0  0  0
   65.4755   33.6716   53.0593 H   0  0  0  0  0  0  0  0  0  0  0  0
   65.9678   36.4355   52.0109 H   0  0  0  0  0  0  0  0  0  0  0  0
   66.7112   35.5356   53.4118 H   0  0  0  0  0  0  0  0  0  0  0  0
   68.7446   35.9522   53.2021 H   0  0  0  0  0  0  0  0  0  0  0  0
   69.7184   35.5159   51.7571 H   0  0  0  0  0  0  0  0  0  0  0  0
   68.7351   37.0192   51.7571 H   0  0  0  0  0  0  0  0  0  0  0  0
   68.9269   33.6475   51.0059 H   0  0  0  0  0  0  0  0  0  0  0  0
   67.9736   33.3647   52.4991 H   0  0  0  0  0  0  0  0  0  0  0  0
   67.0811   33.2232   49.5892 H   0  0  0  0  0  0  0  0  0  0  0  0
   66.8654   32.0161   50.9146 H   0  0  0  0  0  0  0  0  0  0  0  0
   65.4504   31.9085   48.8867 H   0  0  0  0  0  0  0  0  0  0  0  0
   63.5549   31.5744   47.3076 H   0  0  0  0  0  0  0  0  0  0  0  0
   56.7717   32.4027   45.5709 H   0  0  0  0  0  0  0  0  0  0  0  0
   57.8645   32.1180   44.1740 H   0  0  0  0  0  0  0  0  0  0  0  0
   56.2075   31.4244   44.1740 H   0  0  0  0  0  0  0  0  0  0  0  0
   55.2367   26.5772   46.5885 H   0  0  0  0  0  0  0  0  0  0  0  0
  1  2  1  0
  2  3  1  0
  3  4  2  0
  4  5  1  0
  5  6  2  0
  6  7  1  0
  7  8  2  0
  8  9  1  0
  9 10  1  0
 10 11  2  0
 10 12  1  0
 12 13  2  0
 13 14  1  0
 14 15  2  0
 15 16  1  0
 16 17  1  0
 17 18  1  0
 18 19  1  0
 19 20  2  0
 20 21  1  0
 21 22  1  0
 22 23  2  3
 23 24  1  0
 24 25  2  0
 25 26  1  0
 26 27  2  0
 27 28  1  0
 28 29  1  0
 29 30  1  0
 30 31  1  0
 31 32  1  0
 31 33  1  0
 33 34  1  0
 27 35  1  0
 35 36  2  0
 22 37  1  0
 37 38  2  0
 38 39  1  0
 39 40  1  0
 39 41  1  0
 41 42  2  0
 16 43  2  0
  8  3  1  0
 43 12  1  0
 41 17  1  0
 38 19  1  0
 36 24  1  0
 34 28  1  0
  1 44  1  0
  1 45  1  0
  1 46  1  0
  4 47  1  0
  5 48  1  0
  6 49  1  0
  7 50  1  0
  9 51  1  0
 13 52  1  0
 14 53  1  0
 15 54  1  0
 18 55  1  0
 18 56  1  0
 20 57  1  0
 25 58  1  0
 26 59  1  0
 29 60  1  0
 29 61  1  0
 30 62  1  0
 30 63  1  0
 32 64  1  0
 32 65  1  0
 32 66  1  0
 33 67  1  0
 33 68  1  0
 34 69  1  0
 34 70  1  0
 35 71  1  0
 36 72  1  0
 40 73  1  0
 40 74  1  0
 40 75  1  0
 43 76  1  0
M  CHG  1  21  -1
M  END
>  <UniqueID>  (49) 
42

>  <SMILES>  (49) 
COc1ccccc1NC(=O)c1cccc(N2Cc3c[n-]c(=Nc4ccc(N5CCN(C)CC5)cc4)nc3N(C)C2=O)c1

>  <Energy>  (49) 
113.67739009597847

>  <Genealogy>  (49) 
COc1ccccc1NC(=O)c1cccc(N2Cc3c[n-]c(=Nc4ccc(N5CCN(C)CC5)cc4)nc3N(C)C2=O)c1 (protonated)
COc1ccccc1NC(=O)c1cccc(N2Cc3c[n-]c(=Nc4ccc(N5CCN(C)CC5)cc4)nc3N(C)C2=O)c1 (3D coordinates assigned)
COc1ccccc1NC(=O)c1cccc(N2Cc3c[n-]c(=Nc4ccc(N5CCN(C)CC5)cc4)nc3N(C)C2=O)c1 (nonaromatic ring conformer: 113.67739009597847 kcal/mol)

>  <smiles>  (49) 
COc1ccccc1NC(=O)c1cccc(N2Cc3c[nH]c(=Nc4ccc(N5CCN(C)CC5)cc4)nc3N(C)C2=O)c1

>  <score_type>  (49) 
oracle

>  <origin>  (49) 
adg

>  <m_score__min__energy>  (49) 
-9.6400000000000006

>  <m_primary>  (49) 
energy

$$$$
49:0
     RDKit          3D

 46 49  0  0  0  0  0  0  0  0999 V2000
   59.6160   29.0940   48.0540 O   0  0  0  0  0  0  0  0  0  0  0  0
   59.7420   29.7790   47.0040 C   0  0  0  0  0  0  0  0  0  0  0  0
   59.4620   29.2070   45.7160 N   0  0  0  0  0  0  0  0  0  0  0  0
   59.0380   28.0070   45.4300 C   0  0  0  0  0  0  0  0  0  0  0  0
   58.5490   27.7600   44.1430 C   0  0  0  0  0  0  0  0  0  0  0  0
   58.1000   26.5220   43.8170 N   0  0  0  0  0  0  0  0  0  0  0  0
   58.1160   25.4950   44.7100 C   0  0  0  0  0  0  0  0  0  0  0  0
   57.6160   24.1580   44.2960 C   0  0  0  0  0  0  0  0  0  0  0  0
   58.1750   22.9720   44.8130 C   0  0  0  0  0  0  0  0  0  0  0  0
   57.6820   21.7250   44.4150 C   0  0  0  0  0  0  0  0  0  0  0  0
   56.6260   21.6450   43.5070 C   0  0  0  0  0  0  0  0  0  0  0  0
   56.0550   22.8120   42.9970 C   0  0  0  0  0  0  0  0  0  0  0  0
   56.5420   24.0620   43.3890 C   0  0  0  0  0  0  0  0  0  0  0  0
   58.6380   25.7310   45.9930 C   0  0  0  0  0  0  0  0  0  0  0  0
   59.0890   26.9720   46.3250 N   0  0  0  0  0  0  0  0  0  0  0  0
   60.1510   31.1990   47.0850 C   0  0  0  0  0  0  0  0  0  0  0  0
   61.5080   31.4660   47.3420 C   0  0  0  0  0  0  0  0  0  0  0  0
   61.9700   32.7780   47.4520 C   0  0  0  0  0  0  0  0  0  0  0  0
   61.0890   33.8430   47.2940 C   0  0  0  0  0  0  0  0  0  0  0  0
   59.7420   33.6020   47.0190 C   0  0  0  0  0  0  0  0  0  0  0  0
   59.2510   32.2880   46.9090 C   0  0  0  0  0  0  0  0  0  0  0  0
   57.7950   32.1160   46.5240 C   0  0  0  0  0  0  0  0  0  0  0  0
   57.6520   31.9770   45.0620 N   0  0  0  0  0  0  0  0  0  0  0  0
   58.2410   32.9060   44.2500 C   0  0  0  0  0  0  0  0  0  0  0  0
   58.1400   32.8060   42.8630 C   0  0  0  0  0  0  0  0  0  0  0  0
   57.4280   31.7380   42.3250 C   0  0  0  0  0  0  0  0  0  0  0  0
   57.3160   31.6150   41.0770 O   0  0  0  0  0  0  0  0  0  0  0  0
   56.8550   30.8280   43.1490 N   0  0  0  0  0  0  0  0  0  0  0  0
   56.9590   30.9320   44.5000 C   0  0  0  0  0  0  0  0  0  0  0  0
   56.4100   30.0560   45.2220 O   0  0  0  0  0  0  0  0  0  0  0  0
   58.5285   28.5679   43.3967 H   0  0  0  0  0  0  0  0  0  0  0  0
   59.0040   23.0274   45.5339 H   0  0  0  0  0  0  0  0  0  0  0  0
   58.1284   20.8045   44.8193 H   0  0  0  0  0  0  0  0  0  0  0  0
   56.2435   20.6626   43.1931 H   0  0  0  0  0  0  0  0  0  0  0  0
   55.2194   22.7477   42.2846 H   0  0  0  0  0  0  0  0  0  0  0  0
   56.0836   24.9774   42.9866 H   0  0  0  0  0  0  0  0  0  0  0  0
   58.6822   24.9141   46.7283 H   0  0  0  0  0  0  0  0  0  0  0  0
   59.5180   27.0780   47.2680 H   0  0  0  0  0  0  0  0  0  0  0  0
   62.2136   30.6301   47.4577 H   0  0  0  0  0  0  0  0  0  0  0  0
   63.0321   32.9705   47.6639 H   0  0  0  0  0  0  0  0  0  0  0  0
   61.4545   34.8764   47.3859 H   0  0  0  0  0  0  0  0  0  0  0  0
   59.0550   34.4508   46.8865 H   0  0  0  0  0  0  0  0  0  0  0  0
   57.3970   31.2144   47.0125 H   0  0  0  0  0  0  0  0  0  0  0  0
   57.2369   33.0062   46.8496 H   0  0  0  0  0  0  0  0  0  0  0  0
   58.8007   33.7414   44.6958 H   0  0  0  0  0  0  0  0  0  0  0  0
   58.6121   33.5539   42.2090 H   0  0  0  0  0  0  0  0  0  0  0  0
  1  2  2  0
  2  3  1  0
  3  4  2  3
  4  5  1  0
  5  6  2  0
  6  7  1  0
  7  8  1  0
  8  9  2  0
  9 10  1  0
 10 11  2  0
 11 12  1  0
 12 13  2  0
  7 14  2  0
 14 15  1  0
  2 16  1  0
 16 17  2  0
 17 18  1  0
 18 19  2  0
 19 20  1  0
 20 21  2  0
 21 22  1  0
 22 23  1  0
 23 24  1  0
 24 25  2  0
 25 26  1  0
 26 27  2  0
 26 28  1  0
 28 29  1  0
 29 30  2  0
 15  4  1  0
 21 16  1  0
 29 23  1  0
 13  8  1  0
  5 31  1  0
  9 32  1  0
 10 33  1  0
 11 34  1  0
 12 35  1  0
 13 36  1  0
 14 37  1  0
 15 38  1  0
 17 39  1  0
 18 40  1  0
 19 41  1  0
 20 42  1  0
 22 43  1  0
 22 44  1  0
 24 45  1  0
 25 46  1  0
M  CHG  1  28  -1
M  END
>  <UniqueID>  (50) 
43

>  <SMILES>  (50) 
O=C(N=c1cnc(-c2ccccc2)c[nH]1)c1ccccc1Cn1ccc(=O)[n-]c1=O

>  <Energy>  (50) 
73.95428947630212

>  <Genealogy>  (50) 
O=C(N=c1cnc(-c2ccccc2)c[nH]1)c1ccccc1Cn1ccc(=O)[n-]c1=O (protonated)
O=C(N=c1cnc(-c2ccccc2)c[nH]1)c1ccccc1Cn1ccc(=O)[n-]c1=O (3D coordinates assigned)
O=C(N=c1cnc(-c2ccccc2)c[nH]1)c1ccccc1Cn1ccc(=O)[n-]c1=O (optimized conformer: 73.95428947630212 kcal/mol)

>  <smiles>  (50) 
O=C(N=c1cnc(-c2ccccc2)c[nH]1)c1ccccc1Cn1ccc(=O)[nH]c1=O

>  <score_type>  (50) 
oracle

>  <origin>  (50) 
adg

>  <m_score__min__energy>  (50) 
-10.470000000000001

>  <m_primary>  (50) 
energy

$$$$
50:0
     RDKit          3D

 38 40  0  0  0  0  0  0  0  0999 V2000
   57.0290   27.5640   43.1040 H   0  0  0  0  0  0  0  0  0  0  0  0
   57.0190   28.5110   42.7450 O   0  0  0  0  0  0  0  0  0  0  0  0
   57.4710   29.6050   43.4870 C   0  0  0  0  0  0  0  0  0  0  0  0
   56.9390   30.8670   43.2050 C   0  0  0  0  0  0  0  0  0  0  0  0
   56.1795   30.9752   42.4166 H   0  0  0  0  0  0  0  0  0  0  0  0
   57.3640   31.9910   43.9160 C   0  0  0  0  0  0  0  0  0  0  0  0
   56.9438   32.9789   43.6764 H   0  0  0  0  0  0  0  0  0  0  0  0
   58.3230   31.8710   44.9340 C   0  0  0  0  0  0  0  0  0  0  0  0
   58.7790   33.0650   45.6900 C   0  0  0  0  0  0  0  0  0  0  0  0
   58.7910   33.0600   47.0970 C   0  0  0  0  0  0  0  0  0  0  0  0
   58.4609   32.1641   47.6433 H   0  0  0  0  0  0  0  0  0  0  0  0
   59.2200   34.1870   47.8050 C   0  0  0  0  0  0  0  0  0  0  0  0
   59.2273   34.1743   48.9049 H   0  0  0  0  0  0  0  0  0  0  0  0
   59.6390   35.3280   47.1190 C   0  0  0  0  0  0  0  0  0  0  0  0
   59.9763   36.2131   47.6783 H   0  0  0  0  0  0  0  0  0  0  0  0
   59.6300   35.3460   45.7220 C   0  0  0  0  0  0  0  0  0  0  0  0
   59.9594   36.2459   45.1820 H   0  0  0  0  0  0  0  0  0  0  0  0
   59.2030   34.2220   45.0100 C   0  0  0  0  0  0  0  0  0  0  0  0
   59.1982   34.2416   43.9102 H   0  0  0  0  0  0  0  0  0  0  0  0
   58.8490   30.6000   45.2260 C   0  0  0  0  0  0  0  0  0  0  0  0
   59.5826   30.4893   46.0381 H   0  0  0  0  0  0  0  0  0  0  0  0
   58.4490   29.4690   44.4930 C   0  0  0  0  0  0  0  0  0  0  0  0
   58.9840   28.1440   44.8560 C   0  0  0  0  0  0  0  0  0  0  0  0
   60.0059   27.9066   44.5252 H   0  0  0  0  0  0  0  0  0  0  0  0
   58.3290   27.1990   45.5580 C   0  0  0  0  0  0  0  0  0  0  0  0
   58.6510   26.6070   46.7900 C   0  0  0  0  0  0  0  0  0  0  0  0
   59.7620   26.7200   47.5270 C   0  0  0  0  0  0  0  0  0  0  0  0
   60.5474   27.4316   47.2324 H   0  0  0  0  0  0  0  0  0  0  0  0
   59.8899   26.1013   48.4275 H   0  0  0  0  0  0  0  0  0  0  0  0
   57.6200   25.7370   47.0940 C   0  0  0  0  0  0  0  0  0  0  0  0
   57.5274   25.1138   47.9957 H   0  0  0  0  0  0  0  0  0  0  0  0
   56.7310   25.8060   46.0420 C   0  0  0  0  0  0  0  0  0  0  0  0
   55.5050   24.9670   45.8910 C   0  0  0  0  0  0  0  0  0  0  0  0
   55.1174   24.7018   46.8857 H   0  0  0  0  0  0  0  0  0  0  0  0
   54.7400   25.5318   45.3380 H   0  0  0  0  0  0  0  0  0  0  0  0
   55.7545   24.0494   45.3380 H   0  0  0  0  0  0  0  0  0  0  0  0
   57.1710   26.6680   45.1080 N   0  0  0  0  0  0  0  0  0  0  0  0
   56.6880   26.8940   44.2090 H   0  0  0  0  0  0  0  0  0  0  0  0
  1  2  1  0
  2  3  1  0
  3  4  2  0
  4  5  1  0
  4  6  1  0
  6  7  1  0
  6  8  2  0
  8  9  1  0
  9 10  2  0
 10 11  1  0
 10 12  1  0
 12 13  1  0
 12 14  2  0
 14 15  1  0
 14 16  1  0
 16 17  1  0
 16 18  2  0
 18 19  1  0
  8 20  1  0
 20 21  1  0
 20 22  2  0
 22 23  1  0
 23 24  1  0
 23 25  2  0
 25 26  1  0
 26 27  2  0
 27 28  1  0
 27 29  1  0
 26 30  1  0
 30 31  1  0
 30 32  2  0
 32 33  1  0
 33 34  1  0
 33 35  1  0
 33 36  1  0
 32 37  1  0
 37 38  1  0
 22  3  1  0
 37 25  1  0
 18  9  1  0
M  END
>  <UniqueID>  (51) 
44

>  <SMILES>  (51) 
C=c1cc(C)[nH]/c1=C/c1cc(-c2ccccc2)ccc1O

>  <Energy>  (51) 
83.30402731656649

>  <Genealogy>  (51) 
C=c1cc(C)[nH]/c1=C/c1cc(-c2ccccc2)ccc1O (cis-trans isomerization)
C=c1cc(C)[nH]/c1=C/c1cc(-c2ccccc2)ccc1O (3D coordinates assigned)
C=c1cc(C)[nH]/c1=C/c1cc(-c2ccccc2)ccc1O (optimized conformer: 83.30402731656649 kcal/mol)

>  <smiles>  (51) 
C=c1cc(C)[nH]c1=Cc1cc(-c2ccccc2)ccc1O

>  <score_type>  (51) 
oracle

>  <origin>  (51) 
adg

>  <m_score__min__energy>  (51) 
-7.8499999999999996

>  <m_primary>  (51) 
energy

$$$$
51:0
     RDKit          3D

 53 56  0  0  0  0  0  0  0  0999 V2000
   55.2590   29.3060   44.7090 O   0  0  0  0  0  0  0  0  0  0  0  0
   56.2970   30.0080   44.8430 C   0  0  0  0  0  0  0  0  0  0  0  0
   56.2720   31.4000   44.4970 N   0  0  0  0  0  0  0  0  0  0  0  0
   57.2330   32.3940   44.8830 C   0  0  0  0  0  0  0  0  0  0  0  0
   57.1510   32.9430   46.1690 C   0  0  0  0  0  0  0  0  0  0  0  0
   58.0570   33.9280   46.5780 C   0  0  0  0  0  0  0  0  0  0  0  0
   59.0410   34.3810   45.6960 C   0  0  0  0  0  0  0  0  0  0  0  0
   59.1150   33.8580   44.4030 C   0  0  0  0  0  0  0  0  0  0  0  0
   58.2120   32.8730   43.9910 C   0  0  0  0  0  0  0  0  0  0  0  0
   57.5580   29.3820   45.3090 C   0  0  0  0  0  0  0  0  0  0  0  0
   58.1670   28.3600   44.5590 C   0  0  0  0  0  0  0  0  0  0  0  0
   59.3470   27.7630   45.0060 C   0  0  0  0  0  0  0  0  0  0  0  0
   59.9360   28.1770   46.2020 C   0  0  0  0  0  0  0  0  0  0  0  0
   59.3550   29.2060   46.9630 C   0  0  0  0  0  0  0  0  0  0  0  0
   59.9810   29.6280   48.2390 C   0  0  0  0  0  0  0  0  0  0  0  0
   61.2260   29.8230   48.2840 O   0  0  0  0  0  0  0  0  0  0  0  0
   59.1890   29.8250   49.4210 N   0  0  0  0  0  0  0  0  0  0  0  0
   59.7890   29.9390   50.7480 C   0  0  0  0  0  0  0  0  0  0  0  0
   58.7710   29.6220   51.7970 C   0  0  0  0  0  0  0  0  0  0  0  0
   57.4410   29.7270   51.5880 N   0  0  0  0  0  0  0  0  0  0  0  0
   56.9130   29.3900   52.7770 C   0  0  0  0  0  0  0  0  0  0  0  0
   55.4430   29.3690   53.0650 C   0  0  0  0  0  0  0  0  0  0  0  0
   54.6940   29.9230   51.9370 N   0  0  0  0  0  0  0  0  0  0  0  0
   53.4220   30.5920   52.0530 C   0  0  0  0  0  0  0  0  0  0  0  0
   52.8610   31.1980   50.9170 C   0  0  0  0  0  0  0  0  0  0  0  0
   51.6280   31.8520   50.9960 C   0  0  0  0  0  0  0  0  0  0  0  0
   50.9420   31.9090   52.2110 C   0  0  0  0  0  0  0  0  0  0  0  0
   51.4910   31.3140   53.3500 C   0  0  0  0  0  0  0  0  0  0  0  0
   52.7250   30.6600   53.2760 C   0  0  0  0  0  0  0  0  0  0  0  0
   57.9180   29.1050   53.6700 C   0  0  0  0  0  0  0  0  0  0  0  0
   59.1030   29.2520   53.0530 N   0  0  0  0  0  0  0  0  0  0  0  0
   58.1600   29.7980   46.5110 C   0  0  0  0  0  0  0  0  0  0  0  0
   56.3695   32.5977   46.8618 H   0  0  0  0  0  0  0  0  0  0  0  0
   57.9943   34.3454   47.5938 H   0  0  0  0  0  0  0  0  0  0  0  0
   59.7578   35.1499   46.0199 H   0  0  0  0  0  0  0  0  0  0  0  0
   59.8854   34.2218   43.7072 H   0  0  0  0  0  0  0  0  0  0  0  0
   58.2664   32.4715   42.9683 H   0  0  0  0  0  0  0  0  0  0  0  0
   57.7107   28.0291   43.6144 H   0  0  0  0  0  0  0  0  0  0  0  0
   59.8147   26.9630   44.4133 H   0  0  0  0  0  0  0  0  0  0  0  0
   60.8609   27.6947   46.5512 H   0  0  0  0  0  0  0  0  0  0  0  0
   58.1500   29.9150   49.3430 H   0  0  0  0  0  0  0  0  0  0  0  0
   60.6290   29.2335   50.8301 H   0  0  0  0  0  0  0  0  0  0  0  0
   60.1509   30.9674   50.8942 H   0  0  0  0  0  0  0  0  0  0  0  0
   55.1224   28.3311   53.2381 H   0  0  0  0  0  0  0  0  0  0  0  0
   55.2458   29.9797   53.9584 H   0  0  0  0  0  0  0  0  0  0  0  0
   55.1090   29.8040   50.9850 H   0  0  0  0  0  0  0  0  0  0  0  0
   53.3964   31.1577   49.9569 H   0  0  0  0  0  0  0  0  0  0  0  0
   51.1975   32.3224   50.0997 H   0  0  0  0  0  0  0  0  0  0  0  0
   49.9706   32.4217   52.2714 H   0  0  0  0  0  0  0  0  0  0  0  0
   50.9512   31.3601   54.3073 H   0  0  0  0  0  0  0  0  0  0  0  0
   53.1536   30.1964   54.1768 H   0  0  0  0  0  0  0  0  0  0  0  0
   57.7758   28.8054   54.7188 H   0  0  0  0  0  0  0  0  0  0  0  0
   57.6909   30.5960   47.1052 H   0  0  0  0  0  0  0  0  0  0  0  0
  1  2  2  0
  2  3  1  0
  3  4  1  0
  4  5  2  0
  5  6  1  0
  6  7  2  0
  7  8  1  0
  8  9  2  0
  2 10  1  0
 10 11  2  0
 11 12  1  0
 12 13  2  0
 13 14  1  0
 14 15  1  0
 15 16  2  0
 15 17  1  0
 17 18  1  0
 18 19  1  0
 19 20  2  0
 20 21  1  0
 21 22  1  0
 22 23  1  0
 23 24  1  0
 24 25  2  0
 25 26  1  0
 26 27  2  0
 27 28  1  0
 28 29  2  0
 21 30  2  0
 30 31  1  0
 14 32  2  0
  9  4  1  0
 32 10  1  0
 31 19  1  0
 29 24  1  0
  5 33  1  0
  6 34  1  0
  7 35  1  0
  8 36  1  0
  9 37  1  0
 11 38  1  0
 12 39  1  0
 13 40  1  0
 17 41  1  0
 18 42  1  0
 18 43  1  0
 22 44  1  0
 22 45  1  0
 23 46  1  0
 25 47  1  0
 26 48  1  0
 27 49  1  0
 28 50  1  0
 29 51  1  0
 30 52  1  0
 32 53  1  0
M  CHG  2   3  -1  31  -1
M  END
>  <UniqueID>  (52) 
45

>  <SMILES>  (52) 
O=C([N-]c1ccccc1)c1cccc(C(=O)NCc2nc(CNc3ccccc3)c[n-]2)c1

>  <Energy>  (52) 
87.43904314840145

>  <Genealogy>  (52) 
O=C([N-]c1ccccc1)c1cccc(C(=O)NCc2nc(CNc3ccccc3)c[n-]2)c1 (protonated)
O=C([N-]c1ccccc1)c1cccc(C(=O)NCc2nc(CNc3ccccc3)c[n-]2)c1 (3D coordinates assigned)
O=C([N-]c1ccccc1)c1cccc(C(=O)NCc2nc(CNc3ccccc3)c[n-]2)c1 (optimized conformer: 87.43904314840145 kcal/mol)

>  <smiles>  (52) 
O=C(NCc1nc(CNc2ccccc2)c[nH]1)c1cccc(C(=O)Nc2ccccc2)c1

>  <score_type>  (52) 
oracle

>  <origin>  (52) 
adg

>  <m_score__min__energy>  (52) 
-12.32

>  <m_primary>  (52) 
energy

$$$$
52:0
     RDKit          3D

 51 54  0  0  0  0  0  0  0  0999 V2000
   56.3070   25.4670   46.7550 O   0  0  0  0  0  0  0  0  0  0  0  0
   55.5360   26.1540   46.0280 C   0  0  0  0  0  0  0  0  0  0  0  0
   55.9140   27.4690   45.6220 N   0  0  0  0  0  0  0  0  0  0  0  0
   57.2950   27.8450   45.3510 C   0  0  0  0  0  0  0  0  0  0  0  0
   57.4110   29.3410   45.3340 C   0  0  0  0  0  0  0  0  0  0  0  0
   58.1310   30.0040   46.3390 C   0  0  0  0  0  0  0  0  0  0  0  0
   58.2710   31.3950   46.3080 C   0  0  0  0  0  0  0  0  0  0  0  0
   57.7010   32.1470   45.2650 C   0  0  0  0  0  0  0  0  0  0  0  0
   57.8460   33.6220   45.2310 C   0  0  0  0  0  0  0  0  0  0  0  0
   57.7270   34.2400   44.1390 O   0  0  0  0  0  0  0  0  0  0  0  0
   58.1730   34.3380   46.4310 N   0  0  0  0  0  0  0  0  0  0  0  0
   59.3490   34.1700   47.2360 C   0  0  0  0  0  0  0  0  0  0  0  0
   59.3010   34.2010   48.6420 C   0  0  0  0  0  0  0  0  0  0  0  0
   60.4650   34.0170   49.3950 C   0  0  0  0  0  0  0  0  0  0  0  0
   61.6900   33.7830   48.7560 C   0  0  0  0  0  0  0  0  0  0  0  0
   62.8640   33.5990   49.5000 C   0  0  0  0  0  0  0  0  0  0  0  0
   64.0780   33.3580   48.8510 C   0  0  0  0  0  0  0  0  0  0  0  0
   64.1290   33.2970   47.4550 C   0  0  0  0  0  0  0  0  0  0  0  0
   62.9650   33.4780   46.7010 C   0  0  0  0  0  0  0  0  0  0  0  0
   61.7410   33.7230   47.3420 C   0  0  0  0  0  0  0  0  0  0  0  0
   60.5670   33.9090   46.5960 C   0  0  0  0  0  0  0  0  0  0  0  0
   56.9920   31.4760   44.2520 C   0  0  0  0  0  0  0  0  0  0  0  0
   56.8550   30.0850   44.2830 C   0  0  0  0  0  0  0  0  0  0  0  0
   54.3070   25.6380   45.6060 O   0  0  0  0  0  0  0  0  0  0  0  0
   53.9980   24.2450   45.6080 C   0  0  0  0  0  0  0  0  0  0  0  0
   55.0980   23.4640   44.9420 C   0  0  0  0  0  0  0  0  0  0  0  0
   55.4360   23.7040   43.6010 C   0  0  0  0  0  0  0  0  0  0  0  0
   56.4720   22.9840   42.9960 C   0  0  0  0  0  0  0  0  0  0  0  0
   57.1770   22.0240   43.7260 C   0  0  0  0  0  0  0  0  0  0  0  0
   56.8510   21.7850   45.0650 C   0  0  0  0  0  0  0  0  0  0  0  0
   55.8170   22.5040   45.6720 C   0  0  0  0  0  0  0  0  0  0  0  0
   57.9475   27.4354   46.1361 H   0  0  0  0  0  0  0  0  0  0  0  0
   57.6002   27.4420   44.3740 H   0  0  0  0  0  0  0  0  0  0  0  0
   58.5880   29.4264   47.1560 H   0  0  0  0  0  0  0  0  0  0  0  0
   58.8312   31.9050   47.1055 H   0  0  0  0  0  0  0  0  0  0  0  0
   58.3415   34.3711   49.1522 H   0  0  0  0  0  0  0  0  0  0  0  0
   60.4188   34.0561   50.4933 H   0  0  0  0  0  0  0  0  0  0  0  0
   62.8294   33.6445   50.5985 H   0  0  0  0  0  0  0  0  0  0  0  0
   64.9960   33.2159   49.4401 H   0  0  0  0  0  0  0  0  0  0  0  0
   65.0867   33.1062   46.9487 H   0  0  0  0  0  0  0  0  0  0  0  0
   63.0091   33.4282   45.6030 H   0  0  0  0  0  0  0  0  0  0  0  0
   60.6038   33.8492   45.4982 H   0  0  0  0  0  0  0  0  0  0  0  0
   56.5418   32.0504   43.4289 H   0  0  0  0  0  0  0  0  0  0  0  0
   56.3081   29.5712   43.4787 H   0  0  0  0  0  0  0  0  0  0  0  0
   53.8857   23.8999   46.6464 H   0  0  0  0  0  0  0  0  0  0  0  0
   53.0611   24.0860   45.0541 H   0  0  0  0  0  0  0  0  0  0  0  0
   54.8845   24.4607   43.0237 H   0  0  0  0  0  0  0  0  0  0  0  0
   56.7317   23.1741   41.9441 H   0  0  0  0  0  0  0  0  0  0  0  0
   57.9886   21.4560   43.2477 H   0  0  0  0  0  0  0  0  0  0  0  0
   57.4083   21.0312   45.6406 H   0  0  0  0  0  0  0  0  0  0  0  0
   55.5656   22.3168   46.7264 H   0  0  0  0  0  0  0  0  0  0  0  0
  1  2  2  0
  2  3  1  0
  3  4  1  0
  4  5  1  0
  5  6  2  0
  6  7  1  0
  7  8  2  0
  8  9  1  0
  9 10  2  0
  9 11  1  0
 11 12  1  0
 12 13  2  0
 13 14  1  0
 14 15  2  0
 15 16  1  0
 16 17  2  0
 17 18  1  0
 18 19  2  0
 19 20  1  0
 20 21  2  0
  8 22  1  0
 22 23  2  0
  2 24  1  0
 24 25  1  0
 25 26  1  0
 26 27  2  0
 27 28  1  0
 28 29  2  0
 29 30  1  0
 30 31  2  0
 23  5  1  0
 31 26  1  0
 21 12  1  0
 20 15  1  0
  4 32  1  0
  4 33  1  0
  6 34  1  0
  7 35  1  0
 13 36  1  0
 14 37  1  0
 16 38  1  0
 17 39  1  0
 18 40  1  0
 19 41  1  0
 21 42  1  0
 22 43  1  0
 23 44  1  0
 25 45  1  0
 25 46  1  0
 27 47  1  0
 28 48  1  0
 29 49  1  0
 30 50  1  0
 31 51  1  0
M  CHG  2   3  -1  11  -1
M  END
>  <UniqueID>  (53) 
46

>  <SMILES>  (53) 
O=C([N-]Cc1ccc(C(=O)[N-]c2ccc3ccccc3c2)cc1)OCc1ccccc1

>  <Energy>  (53) 
58.609672715793586

>  <Genealogy>  (53) 
O=C([N-]Cc1ccc(C(=O)[N-]c2ccc3ccccc3c2)cc1)OCc1ccccc1 (protonated)
O=C([N-]Cc1ccc(C(=O)[N-]c2ccc3ccccc3c2)cc1)OCc1ccccc1 (3D coordinates assigned)
O=C([N-]Cc1ccc(C(=O)[N-]c2ccc3ccccc3c2)cc1)OCc1ccccc1 (optimized conformer: 58.609672715793586 kcal/mol)

>  <smiles>  (53) 
O=C(NCc1ccc(C(=O)Nc2ccc3ccccc3c2)cc1)OCc1ccccc1

>  <score_type>  (53) 
oracle

>  <origin>  (53) 
adg

>  <m_score__min__energy>  (53) 
-12.99

>  <m_primary>  (53) 
energy

$$$$
53:0
     RDKit          3D

 50 51  0  0  0  0  0  0  0  0999 V2000
   60.0690   29.1820   49.7790 C   0  0  0  0  0  0  0  0  0  0  0  0
   59.4630   29.6950   48.5410 N   0  0  0  0  0  0  0  0  0  0  0  0
   59.0430   28.5700   47.6890 C   0  0  0  0  0  0  0  0  0  0  0  0
   60.4180   30.5690   47.8290 C   0  0  0  0  0  0  0  0  0  0  0  0
   59.7150   31.7890   47.2780 C   0  0  0  0  0  0  0  0  0  0  0  0
   58.9020   31.6600   46.1390 C   0  0  0  0  0  0  0  0  0  0  0  0
   58.2280   32.7690   45.6090 C   0  0  0  0  0  0  0  0  0  0  0  0
   57.3260   32.6110   44.4170 C   0  0  0  0  0  0  0  0  0  0  0  0
   56.6230   31.3250   44.5030 N   0  0  0  0  0  0  0  0  0  0  0  0
   57.2910   30.2880   43.7020 C   0  0  0  0  0  0  0  0  0  0  0  0
   57.4160   28.9770   44.4870 C   0  0  0  0  0  0  0  0  0  0  0  0
   56.1160   28.6020   45.1300 C   0  0  0  0  0  0  0  0  0  0  0  0
   55.1660   29.4280   45.1670 O   0  0  0  0  0  0  0  0  0  0  0  0
   55.9390   27.3240   45.6450 O   0  0  0  0  0  0  0  0  0  0  0  0
   58.3420   34.0130   46.2430 C   0  0  0  0  0  0  0  0  0  0  0  0
   59.1420   34.1550   47.3780 C   0  0  0  0  0  0  0  0  0  0  0  0
   59.8360   33.0550   47.8990 C   0  0  0  0  0  0  0  0  0  0  0  0
   60.6660   33.2460   49.1070 C   0  0  0  0  0  0  0  0  0  0  0  0
   60.0300   33.3120   50.3560 C   0  0  0  0  0  0  0  0  0  0  0  0
   60.7790   33.4760   51.5220 C   0  0  0  0  0  0  0  0  0  0  0  0
   62.1670   33.5870   51.4520 C   0  0  0  0  0  0  0  0  0  0  0  0
   62.8120   33.5350   50.2140 C   0  0  0  0  0  0  0  0  0  0  0  0
   62.0750   33.3640   49.0310 C   0  0  0  0  0  0  0  0  0  0  0  0
   62.9250   33.3170   47.4780 S   0  0  0  0  0  0  0  0  0  0  0  0
   63.4370   31.7050   47.1150 N   0  0  0  0  0  0  0  0  0  0  0  0
   62.0110   33.7860   46.3820 O   0  0  0  0  0  0  0  0  0  0  0  0
   64.1330   34.2070   47.5430 O   0  0  0  0  0  0  0  0  0  0  0  0
   59.5538   29.6181   50.6475 H   0  0  0  0  0  0  0  0  0  0  0  0
   59.9729   28.0866   49.8077 H   0  0  0  0  0  0  0  0  0  0  0  0
   61.1335   29.4576   49.8077 H   0  0  0  0  0  0  0  0  0  0  0  0
   58.7285   27.7276   48.3227 H   0  0  0  0  0  0  0  0  0  0  0  0
   58.2019   28.8851   47.0539 H   0  0  0  0  0  0  0  0  0  0  0  0
   59.8848   28.2568   47.0539 H   0  0  0  0  0  0  0  0  0  0  0  0
   61.2044   30.8899   48.5279 H   0  0  0  0  0  0  0  0  0  0  0  0
   60.8582   30.0059   46.9929 H   0  0  0  0  0  0  0  0  0  0  0  0
   58.7932   30.6770   45.6576 H   0  0  0  0  0  0  0  0  0  0  0  0
   56.5918   33.4300   44.4015 H   0  0  0  0  0  0  0  0  0  0  0  0
   57.9267   32.6399   43.4959 H   0  0  0  0  0  0  0  0  0  0  0  0
   56.6460   31.0200   45.5050 H   0  0  0  0  0  0  0  0  0  0  0  0
   56.7041   30.1056   42.7897 H   0  0  0  0  0  0  0  0  0  0  0  0
   58.3017   30.6404   43.4485 H   0  0  0  0  0  0  0  0  0  0  0  0
   57.7199   28.1747   43.7986 H   0  0  0  0  0  0  0  0  0  0  0  0
   58.1675   29.1162   45.2782 H   0  0  0  0  0  0  0  0  0  0  0  0
   57.7984   34.8822   45.8444 H   0  0  0  0  0  0  0  0  0  0  0  0
   59.2281   35.1368   47.8665 H   0  0  0  0  0  0  0  0  0  0  0  0
   58.9344   33.2340   50.4164 H   0  0  0  0  0  0  0  0  0  0  0  0
   60.2734   33.5178   52.4980 H   0  0  0  0  0  0  0  0  0  0  0  0
   62.7549   33.7157   52.3728 H   0  0  0  0  0  0  0  0  0  0  0  0
   63.9069   33.6288   50.1654 H   0  0  0  0  0  0  0  0  0  0  0  0
   64.4640   31.7450   46.9300 H   0  0  0  0  0  0  0  0  0  0  0  0
  1  2  1  0
  2  3  1  0
  2  4  1  0
  4  5  1  0
  5  6  2  0
  6  7  1  0
  7  8  1  0
  8  9  1  0
  9 10  1  0
 10 11  1  0
 11 12  1  0
 12 13  2  0
 12 14  1  0
  7 15  2  0
 15 16  1  0
 16 17  2  0
 17 18  1  0
 18 19  2  0
 19 20  1  0
 20 21  2  0
 21 22  1  0
 22 23  2  0
 23 24  1  0
 24 25  1  0
 24 26  2  0
 24 27  2  0
 17  5  1  0
 23 18  1  0
  1 28  1  0
  1 29  1  0
  1 30  1  0
  3 31  1  0
  3 32  1  0
  3 33  1  0
  4 34  1  0
  4 35  1  0
  6 36  1  0
  8 37  1  0
  8 38  1  0
  9 39  1  0
 10 40  1  0
 10 41  1  0
 11 42  1  0
 11 43  1  0
 15 44  1  0
 16 45  1  0
 19 46  1  0
 20 47  1  0
 21 48  1  0
 22 49  1  0
 25 50  1  0
M  CHG  2  14  -1  25  -1
M  END
>  <UniqueID>  (54) 
47

>  <SMILES>  (54) 
CN(C)Cc1cc(CNCCC(=O)[O-])ccc1-c1ccccc1S([NH-])(=O)=O

>  <Energy>  (54) 
53.044562098716824

>  <Genealogy>  (54) 
CN(C)Cc1cc(CNCCC(=O)[O-])ccc1-c1ccccc1S([NH-])(=O)=O (protonated)
CN(C)Cc1cc(CNCCC(=O)[O-])ccc1-c1ccccc1S([NH-])(=O)=O (3D coordinates assigned)
CN(C)Cc1cc(CNCCC(=O)[O-])ccc1-c1ccccc1S([NH-])(=O)=O (optimized conformer: 53.044562098716824 kcal/mol)

>  <smiles>  (54) 
CN(C)Cc1cc(CNCCC(=O)O)ccc1-c1ccccc1S(N)(=O)=O

>  <score_type>  (54) 
oracle

>  <origin>  (54) 
adg

>  <m_score__min__energy>  (54) 
-12.74

>  <m_primary>  (54) 
energy

$$$$
54:0
     RDKit          3D

 40 42  0  0  0  0  0  0  0  0999 V2000
   56.1380   22.2400   41.4130 H   0  0  0  0  0  0  0  0  0  0  0  0
   55.9410   21.8360   42.3220 O   0  0  0  0  0  0  0  0  0  0  0  0
   56.7760   22.0740   43.4080 C   0  0  0  0  0  0  0  0  0  0  0  0
   56.4250   22.9400   44.3970 N   0  0  0  0  0  0  0  0  0  0  0  0
   57.3820   23.0230   45.3440 C   0  0  0  0  0  0  0  0  0  0  0  0
   57.2380   23.7610   46.4060 N   0  0  0  0  0  0  0  0  0  0  0  0
   57.5120   25.1670   46.5120 C   0  0  0  0  0  0  0  0  0  0  0  0
   58.4680   25.6000   47.4350 C   0  0  0  0  0  0  0  0  0  0  0  0
   59.0112   24.8636   48.0455 H   0  0  0  0  0  0  0  0  0  0  0  0
   58.7380   26.9620   47.5870 C   0  0  0  0  0  0  0  0  0  0  0  0
   59.4991   27.2907   48.3100 H   0  0  0  0  0  0  0  0  0  0  0  0
   58.0470   27.9110   46.8260 C   0  0  0  0  0  0  0  0  0  0  0  0
   58.3870   29.2920   46.9820 N   0  0  0  0  0  0  0  0  0  0  0  0
   59.3820   30.1450   45.8460 S   0  0  0  0  0  0  0  0  0  0  0  0
   59.3580   29.4120   44.5350 O   0  0  0  0  0  0  0  0  0  0  0  0
   60.7940   30.2090   46.3560 O   0  0  0  0  0  0  0  0  0  0  0  0
   58.7840   31.7900   45.6210 C   0  0  0  0  0  0  0  0  0  0  0  0
   59.5750   32.8820   46.0070 C   0  0  0  0  0  0  0  0  0  0  0  0
   60.5653   32.7090   46.4535 H   0  0  0  0  0  0  0  0  0  0  0  0
   59.1130   34.1870   45.8280 C   0  0  0  0  0  0  0  0  0  0  0  0
   59.7388   35.0382   46.1342 H   0  0  0  0  0  0  0  0  0  0  0  0
   57.8580   34.4130   45.2610 C   0  0  0  0  0  0  0  0  0  0  0  0
   57.4955   35.4422   45.1224 H   0  0  0  0  0  0  0  0  0  0  0  0
   57.0610   33.3340   44.8690 C   0  0  0  0  0  0  0  0  0  0  0  0
   56.0725   33.5180   44.4230 H   0  0  0  0  0  0  0  0  0  0  0  0
   57.5170   32.0100   45.0420 C   0  0  0  0  0  0  0  0  0  0  0  0
   56.7470   30.8990   44.6550 O   0  0  0  0  0  0  0  0  0  0  0  0
   56.5570   30.4490   43.3170 C   0  0  0  0  0  0  0  0  0  0  0  0
   57.3940   29.3760   43.0810 F   0  0  0  0  0  0  0  0  0  0  0  0
   56.8680   31.4600   42.4250 F   0  0  0  0  0  0  0  0  0  0  0  0
   55.2480   30.0420   43.1310 F   0  0  0  0  0  0  0  0  0  0  0  0
   57.0250   27.4920   45.9450 C   0  0  0  0  0  0  0  0  0  0  0  0
   56.2030   28.4370   45.2520 N   0  0  0  0  0  0  0  0  0  0  0  0
   55.8460   29.2990   45.7200 H   0  0  0  0  0  0  0  0  0  0  0  0
   55.8760   28.2440   44.2780 H   0  0  0  0  0  0  0  0  0  0  0  0
   56.7690   26.1200   45.7940 C   0  0  0  0  0  0  0  0  0  0  0  0
   55.9780   25.7869   45.1060 H   0  0  0  0  0  0  0  0  0  0  0  0
   58.6870   22.0060   45.0020 S   0  0  0  0  0  0  0  0  0  0  0  0
   58.0110   21.4500   43.5660 C   0  0  0  0  0  0  0  0  0  0  0  0
   58.4634   20.7234   42.8751 H   0  0  0  0  0  0  0  0  0  0  0  0
  1  2  1  0
  2  3  1  0
  3  4  1  0
  4  5  1  0
  5  6  2  0
  6  7  1  0
  7  8  2  0
  8  9  1  0
  8 10  1  0
 10 11  1  0
 10 12  2  0
 12 13  1  0
 13 14  1  0
 14 15  2  0
 14 16  2  0
 14 17  1  0
 17 18  2  0
 18 19  1  0
 18 20  1  0
 20 21  1  0
 20 22  2  0
 22 23  1  0
 22 24  1  0
 24 25  1  0
 24 26  2  0
 26 27  1  0
 27 28  1  0
 28 29  1  0
 28 30  1  0
 28 31  1  0
 12 32  1  0
 32 33  1  0
 33 34  1  0
 33 35  1  0
 32 36  2  0
 36 37  1  0
  5 38  1  0
 38 39  1  0
 39 40  1  0
 39  3  2  0
 36  7  1  0
 26 17  1  0
M  CHG  2   4  -1  13  -1
M  END
>  <UniqueID>  (55) 
48

>  <SMILES>  (55) 
Nc1cc(/N=c2/[n-]c(O)cs2)ccc1[N-]S(=O)(=O)c1ccccc1OC(F)(F)F

>  <Energy>  (55) 
90.14144235475857

>  <Genealogy>  (55) 
Nc1cc(N=c2[n-]c(O)cs2)ccc1[N-]S(=O)(=O)c1ccccc1OC(F)(F)F (protonated)
Nc1cc(/N=c2/[n-]c(O)cs2)ccc1[N-]S(=O)(=O)c1ccccc1OC(F)(F)F (cis-trans isomerization)
Nc1cc(/N=c2/[n-]c(O)cs2)ccc1[N-]S(=O)(=O)c1ccccc1OC(F)(F)F (3D coordinates assigned)
Nc1cc(/N=c2/[n-]c(O)cs2)ccc1[N-]S(=O)(=O)c1ccccc1OC(F)(F)F (optimized conformer: 90.14144235475857 kcal/mol)

>  <smiles>  (55) 
Nc1cc(N=c2[nH]c(O)cs2)ccc1NS(=O)(=O)c1ccccc1OC(F)(F)F

>  <score_type>  (55) 
oracle

>  <origin>  (55) 
adg

>  <m_score__min__energy>  (55) 
-10.67

>  <m_primary>  (55) 
energy

$$$$
55:0
     RDKit          3D

 41 43  0  0  0  0  0  0  0  0999 V2000
   60.5560   30.4300   46.9320 C   0  0  0  0  0  0  0  0  0  0  0  0
   58.7780   30.7450   47.1630 S   0  0  0  0  0  0  0  0  0  0  0  0
   58.8120   32.2910   46.2430 C   0  0  0  0  0  0  0  0  0  0  0  0
   59.8990   33.1590   46.4060 C   0  0  0  0  0  0  0  0  0  0  0  0
   59.9430   34.3690   45.7120 C   0  0  0  0  0  0  0  0  0  0  0  0
   58.8950   34.7250   44.8620 C   0  0  0  0  0  0  0  0  0  0  0  0
   57.8040   33.8670   44.6960 C   0  0  0  0  0  0  0  0  0  0  0  0
   57.7610   32.6330   45.3710 C   0  0  0  0  0  0  0  0  0  0  0  0
   56.6450   31.7390   45.2370 N   0  0  0  0  0  0  0  0  0  0  0  0
   56.3570   30.8820   44.1270 C   0  0  0  0  0  0  0  0  0  0  0  0
   56.7130   31.1960   42.9590 O   0  0  0  0  0  0  0  0  0  0  0  0
   55.7110   29.5560   44.3720 C   0  0  0  0  0  0  0  0  0  0  0  0
   56.6950   28.6030   44.8840 N   0  0  0  0  0  0  0  0  0  0  0  0
   56.4410   27.4950   45.6130 C   0  0  0  0  0  0  0  0  0  0  0  0
   55.1650   27.0560   45.9520 O   0  0  0  0  0  0  0  0  0  0  0  0
   57.6210   26.8810   45.9820 C   0  0  0  0  0  0  0  0  0  0  0  0
   58.6410   27.6740   45.5040 C   0  0  0  0  0  0  0  0  0  0  0  0
   58.0400   28.7160   44.8200 C   0  0  0  0  0  0  0  0  0  0  0  0
   58.7020   29.7500   44.1620 O   0  0  0  0  0  0  0  0  0  0  0  0
   60.0950   27.3490   45.6580 C   0  0  0  0  0  0  0  0  0  0  0  0
   60.3020   26.3270   46.7950 C   0  0  0  0  0  0  0  0  0  0  0  0
   59.2790   25.1720   46.7230 C   0  0  0  0  0  0  0  0  0  0  0  0
   57.8310   25.6830   46.8560 C   0  0  0  0  0  0  0  0  0  0  0  0
   61.0437   30.3436   47.9142 H   0  0  0  0  0  0  0  0  0  0  0  0
   60.6927   29.4937   46.3711 H   0  0  0  0  0  0  0  0  0  0  0  0
   61.0060   31.2624   46.3711 H   0  0  0  0  0  0  0  0  0  0  0  0
   60.7213   32.8859   47.0837 H   0  0  0  0  0  0  0  0  0  0  0  0
   60.8041   35.0424   45.8350 H   0  0  0  0  0  0  0  0  0  0  0  0
   58.9275   35.6826   44.3216 H   0  0  0  0  0  0  0  0  0  0  0  0
   56.9748   34.1579   44.0343 H   0  0  0  0  0  0  0  0  0  0  0  0
   54.9032   29.6758   45.1090 H   0  0  0  0  0  0  0  0  0  0  0  0
   55.3011   29.1754   43.4248 H   0  0  0  0  0  0  0  0  0  0  0  0
   58.3960   30.7110   44.2520 H   0  0  0  0  0  0  0  0  0  0  0  0
   60.4729   26.9244   44.7162 H   0  0  0  0  0  0  0  0  0  0  0  0
   60.6418   28.2712   45.9042 H   0  0  0  0  0  0  0  0  0  0  0  0
   61.3166   25.9091   46.7175 H   0  0  0  0  0  0  0  0  0  0  0  0
   60.1609   26.8488   47.7530 H   0  0  0  0  0  0  0  0  0  0  0  0
   59.3884   24.6588   45.7562 H   0  0  0  0  0  0  0  0  0  0  0  0
   59.4781   24.4853   47.5590 H   0  0  0  0  0  0  0  0  0  0  0  0
   57.1356   24.8863   46.5531 H   0  0  0  0  0  0  0  0  0  0  0  0
   57.6459   25.9664   47.9026 H   0  0  0  0  0  0  0  0  0  0  0  0
  1  2  1  0
  2  3  1  0
  3  4  2  0
  4  5  1  0
  5  6  2  0
  6  7  1  0
  7  8  2  0
  8  9  1  0
  9 10  1  0
 10 11  2  0
 10 12  1  0
 12 13  1  0
 13 14  1  0
 14 15  1  0
 14 16  2  0
 16 17  1  0
 17 18  2  0
 18 19  1  0
 17 20  1  0
 20 21  1  0
 21 22  1  0
 22 23  1  0
  8  3  1  0
 18 13  1  0
 23 16  1  0
  1 24  1  0
  1 25  1  0
  1 26  1  0
  4 27  1  0
  5 28  1  0
  6 29  1  0
  7 30  1  0
 12 31  1  0
 12 32  1  0
 19 33  1  0
 20 34  1  0
 20 35  1  0
 21 36  1  0
 21 37  1  0
 22 38  1  0
 22 39  1  0
 23 40  1  0
 23 41  1  0
M  CHG  2   9  -1  15  -1
M  END
>  <UniqueID>  (56) 
49

>  <SMILES>  (56) 
CSc1ccccc1[N-]C(=O)Cn1c([O-])c2c(c1O)CCCC2

>  <Energy>  (56) 
67.34818600549028

>  <Genealogy>  (56) 
CSc1ccccc1[N-]C(=O)Cn1c([O-])c2c(c1O)CCCC2 (protonated)
CSc1ccccc1[N-]C(=O)Cn1c([O-])c2c(c1O)CCCC2 (3D coordinates assigned)
CSc1ccccc1[N-]C(=O)Cn1c([O-])c2c(c1O)CCCC2 (nonaromatic ring conformer: 67.34818600549028 kcal/mol)

>  <smiles>  (56) 
CSc1ccccc1NC(=O)Cn1c(O)c2c(c1O)CCCC2

>  <score_type>  (56) 
oracle

>  <origin>  (56) 
adg

>  <m_score__min__energy>  (56) 
-11.98

>  <m_primary>  (56) 
energy

$$$$
56:0
     RDKit          3D

 35 37  0  0  0  0  0  0  0  0999 V2000
   63.8436   30.9953   46.7568 H   0  0  0  0  0  0  0  0  0  0  0  0
   63.2970   31.8180   47.2410 C   0  0  0  0  0  0  0  0  0  0  0  0
   61.7050   31.7610   47.7790 S   0  0  0  0  0  0  0  0  0  0  0  0
   61.6440   33.3440   48.3530 C   0  0  0  0  0  0  0  0  0  0  0  0
   60.4900   33.9790   49.0150 C   0  0  0  0  0  0  0  0  0  0  0  0
   60.5260   34.1970   50.2540 O   0  0  0  0  0  0  0  0  0  0  0  0
   59.2890   34.2800   48.2910 N   0  0  0  0  0  0  0  0  0  0  0  0
   59.0520   34.0300   47.0330 C   0  0  0  0  0  0  0  0  0  0  0  0
   58.5460   32.8120   46.7000 N   0  0  0  0  0  0  0  0  0  0  0  0
   58.2600   32.4590   45.4150 C   0  0  0  0  0  0  0  0  0  0  0  0
   57.7130   31.1140   45.1300 C   0  0  0  0  0  0  0  0  0  0  0  0
   56.5130   30.9910   44.7620 O   0  0  0  0  0  0  0  0  0  0  0  0
   58.5550   29.9520   45.2360 N   0  0  0  0  0  0  0  0  0  0  0  0
   59.5900   30.0870   45.2060 H   0  0  0  0  0  0  0  0  0  0  0  0
   58.0590   28.6010   45.2550 C   0  0  0  0  0  0  0  0  0  0  0  0
   58.9350   27.5430   44.9700 C   0  0  0  0  0  0  0  0  0  0  0  0
   59.9849   27.7548   44.7191 H   0  0  0  0  0  0  0  0  0  0  0  0
   58.4810   26.2200   45.0030 C   0  0  0  0  0  0  0  0  0  0  0  0
   59.1707   25.3967   44.7654 H   0  0  0  0  0  0  0  0  0  0  0  0
   57.1540   25.9430   45.3370 C   0  0  0  0  0  0  0  0  0  0  0  0
   56.7970   24.9027   45.3554 H   0  0  0  0  0  0  0  0  0  0  0  0
   56.2790   26.9880   45.6480 C   0  0  0  0  0  0  0  0  0  0  0  0
   54.9620   26.7100   45.9970 O   0  0  0  0  0  0  0  0  0  0  0  0
   56.7280   28.3120   45.6130 C   0  0  0  0  0  0  0  0  0  0  0  0
   56.0387   29.1310   45.8661 H   0  0  0  0  0  0  0  0  0  0  0  0
   58.4800   33.3840   44.3840 C   0  0  0  0  0  0  0  0  0  0  0  0
   58.2563   33.1159   43.3409 H   0  0  0  0  0  0  0  0  0  0  0  0
   58.9850   34.6470   44.6930 C   0  0  0  0  0  0  0  0  0  0  0  0
   59.1594   35.3802   43.8918 H   0  0  0  0  0  0  0  0  0  0  0  0
   59.2690   34.9810   46.0170 C   0  0  0  0  0  0  0  0  0  0  0  0
   59.6593   35.9789   46.2657 H   0  0  0  0  0  0  0  0  0  0  0  0
   62.8850   33.9350   48.1380 C   0  0  0  0  0  0  0  0  0  0  0  0
   63.1214   34.9689   48.4298 H   0  0  0  0  0  0  0  0  0  0  0  0
   63.8030   33.0820   47.5130 C   0  0  0  0  0  0  0  0  0  0  0  0
   64.8299   33.3853   47.2609 H   0  0  0  0  0  0  0  0  0  0  0  0
  1  2  1  0
  2  3  1  0
  3  4  1  0
  4  5  1  0
  5  6  2  0
  5  7  1  0
  7  8  2  0
  8  9  1  0
  9 10  1  0
 10 11  1  0
 11 12  2  0
 11 13  1  0
 13 14  1  0
 13 15  1  0
 15 16  2  0
 16 17  1  0
 16 18  1  0
 18 19  1  0
 18 20  2  0
 20 21  1  0
 20 22  1  0
 22 23  1  0
 22 24  2  0
 24 25  1  0
 10 26  2  0
 26 27  1  0
 26 28  1  0
 28 29  1  0
 28 30  2  0
 30 31  1  0
  4 32  2  0
 32 33  1  0
 32 34  1  0
 34 35  1  0
 34  2  2  0
 30  8  1  0
 24 15  1  0
M  CHG  2   9  -1  23  -1
M  END
>  <UniqueID>  (57) 
50

>  <SMILES>  (57) 
O=C(Nc1cccc([O-])c1)c1ccc/c(=N\C(=O)c2cccs2)[n-]1

>  <Energy>  (57) 
77.24423390077638

>  <Genealogy>  (57) 
O=C(Nc1cccc([O-])c1)c1cccc(=NC(=O)c2cccs2)[n-]1 (protonated)
O=C(Nc1cccc([O-])c1)c1ccc/c(=N\C(=O)c2cccs2)[n-]1 (cis-trans isomerization)
O=C(Nc1cccc([O-])c1)c1ccc/c(=N\C(=O)c2cccs2)[n-]1 (3D coordinates assigned)
O=C(Nc1cccc([O-])c1)c1ccc/c(=N\C(=O)c2cccs2)[n-]1 (optimized conformer: 77.24423390077638 kcal/mol)

>  <smiles>  (57) 
O=C(Nc1cccc(O)c1)c1cccc(=NC(=O)c2cccs2)[nH]1

>  <score_type>  (57) 
oracle

>  <origin>  (57) 
adg

>  <m_score__min__energy>  (57) 
-13

>  <m_primary>  (57) 
energy

$$$$
57:0
     RDKit          3D

 71 74  0  0  0  0  0  0  0  0999 V2000
   58.6880   32.7590   53.5460 C   0  0  0  0  0  0  0  0  0  0  0  0
   58.7810   32.9410   52.0660 C   0  0  0  0  0  0  0  0  0  0  0  0
   59.5280   33.8910   51.4760 N   0  0  0  0  0  0  0  0  0  0  0  0
   59.2940   33.7180   50.1580 C   0  0  0  0  0  0  0  0  0  0  0  0
   58.4310   32.7160   49.8870 N   0  0  0  0  0  0  0  0  0  0  0  0
   58.1090   32.2260   51.0980 C   0  0  0  0  0  0  0  0  0  0  0  0
   57.1510   31.0900   51.3000 C   0  0  0  0  0  0  0  0  0  0  0  0
   57.8780   29.8050   51.3140 N   0  0  0  0  0  0  0  0  0  0  0  0
   57.5560   29.0500   52.5400 C   0  0  0  0  0  0  0  0  0  0  0  0
   59.3370   30.0310   51.2140 C   0  0  0  0  0  0  0  0  0  0  0  0
   59.8260   29.7380   49.8150 C   0  0  0  0  0  0  0  0  0  0  0  0
   59.3720   28.5810   49.1570 C   0  0  0  0  0  0  0  0  0  0  0  0
   59.7660   28.3030   47.8430 C   0  0  0  0  0  0  0  0  0  0  0  0
   59.1430   26.8650   47.0370 S   0  0  0  0  0  0  0  0  0  0  0  0
   60.3270   26.0590   46.5740 O   0  0  0  0  0  0  0  0  0  0  0  0
   58.3620   26.0250   48.0130 O   0  0  0  0  0  0  0  0  0  0  0  0
   58.1400   27.3320   45.6690 N   0  0  0  0  0  0  0  0  0  0  0  0
   57.2730   28.4810   46.0060 C   0  0  0  0  0  0  0  0  0  0  0  0
   57.7890   29.7750   45.3640 C   0  0  0  0  0  0  0  0  0  0  0  0
   57.8810   30.8130   46.3410 O   0  0  0  0  0  0  0  0  0  0  0  0
   58.1710   32.1620   46.0670 C   0  0  0  0  0  0  0  0  0  0  0  0
   57.5450   32.8780   45.0280 C   0  0  0  0  0  0  0  0  0  0  0  0
   57.8780   34.2150   44.7990 C   0  0  0  0  0  0  0  0  0  0  0  0
   58.8390   34.8480   45.5930 C   0  0  0  0  0  0  0  0  0  0  0  0
   59.4880   34.1370   46.6170 C   0  0  0  0  0  0  0  0  0  0  0  0
   60.4660   34.7310   47.4320 O   0  0  0  0  0  0  0  0  0  0  0  0
   61.6860   34.1450   47.8040 C   0  0  0  0  0  0  0  0  0  0  0  0
   62.3710   33.3700   46.8600 C   0  0  0  0  0  0  0  0  0  0  0  0
   63.5950   32.7750   47.1870 C   0  0  0  0  0  0  0  0  0  0  0  0
   64.1450   32.9610   48.4580 C   0  0  0  0  0  0  0  0  0  0  0  0
   63.4790   33.7520   49.4010 C   0  0  0  0  0  0  0  0  0  0  0  0
   62.2590   34.3500   49.0750 C   0  0  0  0  0  0  0  0  0  0  0  0
   59.1260   32.8070   46.8640 C   0  0  0  0  0  0  0  0  0  0  0  0
   57.3310   26.1800   45.2190 C   0  0  0  0  0  0  0  0  0  0  0  0
   56.1470   25.9790   46.1160 C   0  0  0  0  0  0  0  0  0  0  0  0
   55.1320   26.7160   45.9900 O   0  0  0  0  0  0  0  0  0  0  0  0
   56.1220   24.9330   47.0310 O   0  0  0  0  0  0  0  0  0  0  0  0
   60.6240   29.1880   47.1770 C   0  0  0  0  0  0  0  0  0  0  0  0
   61.0960   30.3300   47.8260 C   0  0  0  0  0  0  0  0  0  0  0  0
   60.6990   30.6210   49.1350 C   0  0  0  0  0  0  0  0  0  0  0  0
   61.1800   31.7920   49.7280 O   0  0  0  0  0  0  0  0  0  0  0  0
   59.1326   33.6292   54.0511 H   0  0  0  0  0  0  0  0  0  0  0  0
   57.6317   32.6656   53.8383 H   0  0  0  0  0  0  0  0  0  0  0  0
   59.2312   31.8482   53.8383 H   0  0  0  0  0  0  0  0  0  0  0  0
   59.7627   34.3357   49.3777 H   0  0  0  0  0  0  0  0  0  0  0  0
   56.6282   31.2219   52.2588 H   0  0  0  0  0  0  0  0  0  0  0  0
   56.4249   31.0821   50.4737 H   0  0  0  0  0  0  0  0  0  0  0  0
   57.8141   29.6551   53.4216 H   0  0  0  0  0  0  0  0  0  0  0  0
   56.4808   28.8184   52.5562 H   0  0  0  0  0  0  0  0  0  0  0  0
   58.1331   28.1137   52.5562 H   0  0  0  0  0  0  0  0  0  0  0  0
   59.5582   31.0796   51.4620 H   0  0  0  0  0  0  0  0  0  0  0  0
   59.8491   29.3574   51.9169 H   0  0  0  0  0  0  0  0  0  0  0  0
   58.6993   27.8863   49.6812 H   0  0  0  0  0  0  0  0  0  0  0  0
   56.2548   28.2810   45.6409 H   0  0  0  0  0  0  0  0  0  0  0  0
   57.2761   28.6099   47.0984 H   0  0  0  0  0  0  0  0  0  0  0  0
   58.7846   29.5938   44.9328 H   0  0  0  0  0  0  0  0  0  0  0  0
   57.0873   30.0872   44.5765 H   0  0  0  0  0  0  0  0  0  0  0  0
   56.7927   32.3834   44.3960 H   0  0  0  0  0  0  0  0  0  0  0  0
   57.3821   34.7722   43.9906 H   0  0  0  0  0  0  0  0  0  0  0  0
   59.0877   35.9048   45.4159 H   0  0  0  0  0  0  0  0  0  0  0  0
   61.9448   33.2280   45.8559 H   0  0  0  0  0  0  0  0  0  0  0  0
   64.1240   32.1609   46.4433 H   0  0  0  0  0  0  0  0  0  0  0  0
   65.1022   32.4853   48.7176 H   0  0  0  0  0  0  0  0  0  0  0  0
   63.9161   33.9030   50.3991 H   0  0  0  0  0  0  0  0  0  0  0  0
   61.7442   34.9828   49.8129 H   0  0  0  0  0  0  0  0  0  0  0  0
   59.5976   32.2614   47.6946 H   0  0  0  0  0  0  0  0  0  0  0  0
   56.9792   26.3649   44.1933 H   0  0  0  0  0  0  0  0  0  0  0  0
   57.9561   25.2755   45.2519 H   0  0  0  0  0  0  0  0  0  0  0  0
   60.9265   28.9822   46.1396 H   0  0  0  0  0  0  0  0  0  0  0  0
   61.7868   31.0076   47.3029 H   0  0  0  0  0  0  0  0  0  0  0  0
   60.6590   32.3190   50.4120 H   0  0  0  0  0  0  0  0  0  0  0  0
  1  2  1  0
  2  3  1  0
  3  4  1  0
  4  5  2  0
  5  6  1  0
  6  7  1  0
  7  8  1  0
  8  9  1  0
  8 10  1  0
 10 11  1  0
 11 12  2  0
 12 13  1  0
 13 14  1  0
 14 15  2  0
 14 16  2  0
 14 17  1  0
 17 18  1  0
 18 19  1  0
 19 20  1  0
 20 21  1  0
 21 22  2  0
 22 23  1  0
 23 24  2  0
 24 25  1  0
 25 26  1  0
 26 27  1  0
 27 28  2  0
 28 29  1  0
 29 30  2  0
 30 31  1  0
 31 32  2  0
 25 33  2  0
 17 34  1  0
 34 35  1  0
 35 36  2  0
 35 37  1  0
 13 38  2  0
 38 39  1  0
 39 40  2  0
 40 41  1  0
  6  2  2  0
 40 11  1  0
 33 21  1  0
 32 27  1  0
  1 42  1  0
  1 43  1  0
  1 44  1  0
  4 45  1  0
  7 46  1  0
  7 47  1  0
  9 48  1  0
  9 49  1  0
  9 50  1  0
 10 51  1  0
 10 52  1  0
 12 53  1  0
 18 54  1  0
 18 55  1  0
 19 56  1  0
 19 57  1  0
 22 58  1  0
 23 59  1  0
 24 60  1  0
 28 61  1  0
 29 62  1  0
 30 63  1  0
 31 64  1  0
 32 65  1  0
 33 66  1  0
 34 67  1  0
 34 68  1  0
 38 69  1  0
 39 70  1  0
 41 71  1  0
M  CHG  2   3  -1  37  -1
M  END
>  <UniqueID>  (58) 
51

>  <SMILES>  (58) 
Cc1[n-]cnc1CN(C)Cc1cc(S(=O)(=O)N(CCOc2cccc(Oc3ccccc3)c2)CC(=O)[O-])ccc1O

>  <Energy>  (58) 
109.89606435138244

>  <Genealogy>  (58) 
Cc1[n-]cnc1CN(C)Cc1cc(S(=O)(=O)N(CCOc2cccc(Oc3ccccc3)c2)CC(=O)[O-])ccc1O (protonated)
Cc1[n-]cnc1CN(C)Cc1cc(S(=O)(=O)N(CCOc2cccc(Oc3ccccc3)c2)CC(=O)[O-])ccc1O (3D coordinates assigned)
Cc1[n-]cnc1CN(C)Cc1cc(S(=O)(=O)N(CCOc2cccc(Oc3ccccc3)c2)CC(=O)[O-])ccc1O (optimized conformer: 109.89606435138244 kcal/mol)

>  <smiles>  (58) 
Cc1[nH]cnc1CN(C)Cc1cc(S(=O)(=O)N(CCOc2cccc(Oc3ccccc3)c2)CC(=O)O)ccc1O

>  <score_type>  (58) 
oracle

>  <origin>  (58) 
adg

>  <m_score__min__energy>  (58) 
-12.94

>  <m_primary>  (58) 
energy

$$$$
58:0
     RDKit          3D

 36 38  0  0  0  0  0  0  0  0999 V2000
   60.6341   27.9911   47.6804 H   0  0  0  0  0  0  0  0  0  0  0  0
   60.3880   28.8840   47.0870 C   0  0  0  0  0  0  0  0  0  0  0  0
   59.8340   29.7280   44.8930 N   0  0  0  0  0  0  0  0  0  0  0  0
   58.4910   29.8580   44.4930 N   0  0  0  0  0  0  0  0  0  0  0  0
   57.6650   30.8830   44.8010 C   0  0  0  0  0  0  0  0  0  0  0  0
   58.0750   32.1630   45.4230 C   0  0  0  0  0  0  0  0  0  0  0  0
   58.1150   32.3160   46.8220 C   0  0  0  0  0  0  0  0  0  0  0  0
   57.8334   31.4749   47.4726 H   0  0  0  0  0  0  0  0  0  0  0  0
   58.5110   33.5320   47.3890 C   0  0  0  0  0  0  0  0  0  0  0  0
   58.5325   33.6461   48.4829 H   0  0  0  0  0  0  0  0  0  0  0  0
   58.8790   34.6010   46.5700 C   0  0  0  0  0  0  0  0  0  0  0  0
   59.1839   35.5581   47.0184 H   0  0  0  0  0  0  0  0  0  0  0  0
   58.8600   34.4550   45.1810 C   0  0  0  0  0  0  0  0  0  0  0  0
   59.1554   35.2960   44.5365 H   0  0  0  0  0  0  0  0  0  0  0  0
   58.4660   33.2410   44.6080 C   0  0  0  0  0  0  0  0  0  0  0  0
   58.4619   33.1287   43.5138 H   0  0  0  0  0  0  0  0  0  0  0  0
   56.3820   30.5790   44.5080 N   0  0  0  0  0  0  0  0  0  0  0  0
   56.3880   29.3480   44.0200 N   0  0  0  0  0  0  0  0  0  0  0  0
   55.5350   28.8160   43.7410 H   0  0  0  0  0  0  0  0  0  0  0  0
   57.6570   28.9050   44.0240 C   0  0  0  0  0  0  0  0  0  0  0  0
   58.0620   27.3470   43.7160 S   0  0  0  0  0  0  0  0  0  0  0  0
   60.2110   30.0480   47.7230 C   0  0  0  0  0  0  0  0  0  0  0  0
   59.2531   30.2447   48.2268 H   0  0  0  0  0  0  0  0  0  0  0  0
   60.2670   28.7490   45.6260 C   0  0  0  0  0  0  0  0  0  0  0  0
   60.5491   27.8000   45.1467 H   0  0  0  0  0  0  0  0  0  0  0  0
   61.2670   31.0700   47.7640 C   0  0  0  0  0  0  0  0  0  0  0  0
   61.4750   31.9710   46.8290 O   0  0  0  0  0  0  0  0  0  0  0  0
   62.4920   32.7150   47.1960 C   0  0  0  0  0  0  0  0  0  0  0  0
   63.0430   33.8390   46.3850 C   0  0  0  0  0  0  0  0  0  0  0  0
   63.4267   34.6216   47.0560 H   0  0  0  0  0  0  0  0  0  0  0  0
   63.8608   33.4668   45.7504 H   0  0  0  0  0  0  0  0  0  0  0  0
   62.2479   34.2575   45.7504 H   0  0  0  0  0  0  0  0  0  0  0  0
   62.9800   32.2900   48.4160 C   0  0  0  0  0  0  0  0  0  0  0  0
   63.8266   32.7129   48.9768 H   0  0  0  0  0  0  0  0  0  0  0  0
   62.1850   31.2250   48.7850 C   0  0  0  0  0  0  0  0  0  0  0  0
   62.2652   30.6234   49.7024 H   0  0  0  0  0  0  0  0  0  0  0  0
  1  2  1  0
  2  3  2  0
  3  4  1  0
  4  5  1  0
  5  6  1  0
  6  7  2  0
  7  8  1  0
  7  9  1  0
  9 10  1  0
  9 11  2  0
 11 12  1  0
 11 13  1  0
 13 14  1  0
 13 15  2  0
 15 16  1  0
  5 17  2  0
 17 18  1  0
 18 19  1  0
 18 20  1  0
 20 21  2  0
  2 22  1  0
 22 23  1  0
 22 24  2  0
 24 25  1  0
 24 26  1  0
 26 27  1  0
 27 28  1  0
 28 29  1  0
 29 30  1  0
 29 31  1  0
 29 32  1  0
 28 33  2  0
 33 34  1  0
 33 35  1  0
 35 36  1  0
 20  4  1  0
 35 26  2  0
 15  6  1  0
M  END
>  <UniqueID>  (59) 
52

>  <SMILES>  (59) 
Cc1ccc(/C=C/C=Nn2c(-c3ccccc3)n[nH]c2=S)o1

>  <Energy>  (59) 
106.15708272502431

>  <Genealogy>  (59) 
Cc1ccc(/C=C/C=Nn2c(-c3ccccc3)n[nH]c2=S)o1 (cis-trans isomerization)
Cc1ccc(/C=C/C=Nn2c(-c3ccccc3)n[nH]c2=S)o1 (3D coordinates assigned)
Cc1ccc(/C=C/C=Nn2c(-c3ccccc3)n[nH]c2=S)o1 (optimized conformer: 106.15708272502431 kcal/mol)

>  <smiles>  (59) 
Cc1ccc(C=CC=Nn2c(-c3ccccc3)n[nH]c2=S)o1

>  <score_type>  (59) 
oracle

>  <origin>  (59) 
adg

>  <m_score__min__energy>  (59) 
-7.9000000000000004

>  <m_primary>  (59) 
energy

$$$$
59:0
     RDKit          3D

 63 65  0  0  0  0  0  0  0  0999 V2000
   57.6210   31.8680   51.5260 C   0  0  0  0  0  0  0  0  0  0  0  0
   59.0550   32.0690   51.0400 C   0  0  0  0  0  0  0  0  0  0  0  0
   59.5090   30.9070   50.2450 N   0  0  0  0  0  0  0  0  0  0  0  0
   60.2610   29.9660   50.8940 C   0  0  0  0  0  0  0  0  0  0  0  0
   60.7370   28.8200   50.2450 C   0  0  0  0  0  0  0  0  0  0  0  0
   61.5310   27.8240   51.0160 C   0  0  0  0  0  0  0  0  0  0  0  0
   62.5950   28.1700   51.5990 O   0  0  0  0  0  0  0  0  0  0  0  0
   61.0850   26.4940   51.0850 O   0  0  0  0  0  0  0  0  0  0  0  0
   61.3420   25.5600   52.1440 C   0  0  0  0  0  0  0  0  0  0  0  0
   62.7510   24.9530   52.0030 C   0  0  0  0  0  0  0  0  0  0  0  0
   61.1780   26.2390   53.5170 C   0  0  0  0  0  0  0  0  0  0  0  0
   60.3030   24.4360   52.0200 C   0  0  0  0  0  0  0  0  0  0  0  0
   60.4340   28.6470   48.8830 C   0  0  0  0  0  0  0  0  0  0  0  0
   60.8360   27.6180   48.2710 O   0  0  0  0  0  0  0  0  0  0  0  0
   59.6830   29.6210   48.2000 C   0  0  0  0  0  0  0  0  0  0  0  0
   59.3760   29.4620   46.8360 C   0  0  0  0  0  0  0  0  0  0  0  0
   58.6570   30.4420   46.1370 C   0  0  0  0  0  0  0  0  0  0  0  0
   58.3410   30.2910   44.7770 O   0  0  0  0  0  0  0  0  0  0  0  0
   57.0990   30.5750   44.1940 C   0  0  0  0  0  0  0  0  0  0  0  0
   57.0290   30.8330   42.7280 C   0  0  0  0  0  0  0  0  0  0  0  0
   56.0370   30.5190   44.8690 O   0  0  0  0  0  0  0  0  0  0  0  0
   58.2120   31.5890   46.8130 C   0  0  0  0  0  0  0  0  0  0  0  0
   57.4560   32.5850   46.1010 N   0  0  0  0  0  0  0  0  0  0  0  0
   58.1740   33.9850   45.3660 S   0  0  0  0  0  0  0  0  0  0  0  0
   57.1000   34.7720   44.6720 O   0  0  0  0  0  0  0  0  0  0  0  0
   59.1950   33.5630   44.3470 O   0  0  0  0  0  0  0  0  0  0  0  0
   58.9400   35.0000   46.6190 C   0  0  0  0  0  0  0  0  0  0  0  0
   60.1260   34.2900   47.2100 C   0  0  0  0  0  0  0  0  0  0  0  0
   60.3090   34.2500   48.6020 C   0  0  0  0  0  0  0  0  0  0  0  0
   61.4360   33.6270   49.1470 C   0  0  0  0  0  0  0  0  0  0  0  0
   62.3930   33.0470   48.3070 C   0  0  0  0  0  0  0  0  0  0  0  0
   63.8120   32.2750   48.9920 Cl  0  0  0  0  0  0  0  0  0  0  0  0
   62.2220   33.0930   46.9200 C   0  0  0  0  0  0  0  0  0  0  0  0
   61.0940   33.7120   46.3720 C   0  0  0  0  0  0  0  0  0  0  0  0
   58.4950   31.7420   48.1790 C   0  0  0  0  0  0  0  0  0  0  0  0
   59.2300   30.7700   48.8980 C   0  0  0  0  0  0  0  0  0  0  0  0
   57.6036   31.8656   52.6259 H   0  0  0  0  0  0  0  0  0  0  0  0
   56.9887   32.6863   51.1511 H   0  0  0  0  0  0  0  0  0  0  0  0
   57.2380   30.9074   51.1511 H   0  0  0  0  0  0  0  0  0  0  0  0
   59.1004   32.9731   50.4151 H   0  0  0  0  0  0  0  0  0  0  0  0
   59.7121   32.1748   51.9158 H   0  0  0  0  0  0  0  0  0  0  0  0
   60.4989   30.1142   51.9577 H   0  0  0  0  0  0  0  0  0  0  0  0
   63.1735   24.7710   53.0022 H   0  0  0  0  0  0  0  0  0  0  0  0
   62.6874   24.0025   51.4531 H   0  0  0  0  0  0  0  0  0  0  0  0
   63.3981   25.6522   51.4531 H   0  0  0  0  0  0  0  0  0  0  0  0
   61.3560   25.5021   54.3141 H   0  0  0  0  0  0  0  0  0  0  0  0
   61.9035   27.0607   53.6087 H   0  0  0  0  0  0  0  0  0  0  0  0
   60.1574   26.6390   53.6087 H   0  0  0  0  0  0  0  0  0  0  0  0
   59.9981   24.1061   53.0241 H   0  0  0  0  0  0  0  0  0  0  0  0
   59.4238   24.8080   51.4735 H   0  0  0  0  0  0  0  0  0  0  0  0
   60.7429   23.5887   51.4735 H   0  0  0  0  0  0  0  0  0  0  0  0
   59.7054   28.5541   46.3095 H   0  0  0  0  0  0  0  0  0  0  0  0
   56.7446   31.8812   42.5533 H   0  0  0  0  0  0  0  0  0  0  0  0
   58.0122   30.6393   42.2743 H   0  0  0  0  0  0  0  0  0  0  0  0
   56.2785   30.1690   42.2743 H   0  0  0  0  0  0  0  0  0  0  0  0
   56.4470   32.4110   45.8870 H   0  0  0  0  0  0  0  0  0  0  0  0
   59.2715   35.9465   46.1671 H   0  0  0  0  0  0  0  0  0  0  0  0
   58.2081   35.1997   47.4155 H   0  0  0  0  0  0  0  0  0  0  0  0
   59.5628   34.7106   49.2661 H   0  0  0  0  0  0  0  0  0  0  0  0
   61.5705   33.5928   50.2382 H   0  0  0  0  0  0  0  0  0  0  0  0
   62.9761   32.6415   46.2586 H   0  0  0  0  0  0  0  0  0  0  0  0
   60.9642   33.7464   45.2802 H   0  0  0  0  0  0  0  0  0  0  0  0
   58.1365   32.6399   48.7037 H   0  0  0  0  0  0  0  0  0  0  0  0
  1  2  1  0
  2  3  1  0
  3  4  1  0
  4  5  2  0
  5  6  1  0
  6  7  2  0
  6  8  1  0
  8  9  1  0
  9 10  1  0
  9 11  1  0
  9 12  1  0
  5 13  1  0
 13 14  2  0
 13 15  1  0
 15 16  2  0
 16 17  1  0
 17 18  1  0
 18 19  1  0
 19 20  1  0
 19 21  2  0
 17 22  2  0
 22 23  1  0
 23 24  1  0
 24 25  2  0
 24 26  2  0
 24 27  1  0
 27 28  1  0
 28 29  2  0
 29 30  1  0
 30 31  2  0
 31 32  1  0
 31 33  1  0
 33 34  2  0
 22 35  1  0
 35 36  2  0
 36  3  1  0
 36 15  1  0
 34 28  1  0
  1 37  1  0
  1 38  1  0
  1 39  1  0
  2 40  1  0
  2 41  1  0
  4 42  1  0
 10 43  1  0
 10 44  1  0
 10 45  1  0
 11 46  1  0
 11 47  1  0
 11 48  1  0
 12 49  1  0
 12 50  1  0
 12 51  1  0
 16 52  1  0
 20 53  1  0
 20 54  1  0
 20 55  1  0
 23 56  1  0
 27 57  1  0
 27 58  1  0
 29 59  1  0
 30 60  1  0
 33 61  1  0
 34 62  1  0
 35 63  1  0
M  END
>  <UniqueID>  (60) 
53

>  <SMILES>  (60) 
CCn1cc(C(=O)OC(C)(C)C)c(=O)c2cc(OC(C)=O)c(NS(=O)(=O)Cc3ccc(Cl)cc3)cc21

>  <Energy>  (60) 
71.33406549432351

>  <Genealogy>  (60) 
CCn1cc(C(=O)OC(C)(C)C)c(=O)c2cc(OC(C)=O)c(NS(=O)(=O)Cc3ccc(Cl)cc3)cc21 (3D coordinates assigned)
CCn1cc(C(=O)OC(C)(C)C)c(=O)c2cc(OC(C)=O)c(NS(=O)(=O)Cc3ccc(Cl)cc3)cc21 (optimized conformer: 71.33406549432351 kcal/mol)

>  <smiles>  (60) 
CCn1cc(C(=O)OC(C)(C)C)c(=O)c2cc(OC(C)=O)c(NS(=O)(=O)Cc3ccc(Cl)cc3)cc21

>  <score_type>  (60) 
oracle

>  <origin>  (60) 
adg

>  <m_score__min__energy>  (60) 
-9.7899999999999991

>  <m_primary>  (60) 
energy

$$$$
60:0
     RDKit          3D

 45 48  0  0  0  0  0  0  0  0999 V2000
   55.1194   24.6153   46.3516 H   0  0  0  0  0  0  0  0  0  0  0  0
   55.8610   25.3810   46.0800 C   0  0  0  0  0  0  0  0  0  0  0  0
   55.5510   26.7020   46.0020 N   0  0  0  0  0  0  0  0  0  0  0  0
   56.6190   27.4440   45.6420 C   0  0  0  0  0  0  0  0  0  0  0  0
   56.6140   28.7380   45.5090 N   0  0  0  0  0  0  0  0  0  0  0  0
   56.0240   29.5270   44.4600 C   0  0  0  0  0  0  0  0  0  0  0  0
   54.8000   29.3640   44.2110 O   0  0  0  0  0  0  0  0  0  0  0  0
   56.7750   30.5860   43.6910 C   0  0  0  0  0  0  0  0  0  0  0  0
   57.3801   30.0986   42.9124 H   0  0  0  0  0  0  0  0  0  0  0  0
   56.0390   31.2730   43.2479 H   0  0  0  0  0  0  0  0  0  0  0  0
   57.6860   31.3890   44.5860 C   0  0  0  0  0  0  0  0  0  0  0  0
   57.4570   32.7600   44.7870 C   0  0  0  0  0  0  0  0  0  0  0  0
   56.6180   33.2548   44.2758 H   0  0  0  0  0  0  0  0  0  0  0  0
   58.2890   33.5000   45.6330 C   0  0  0  0  0  0  0  0  0  0  0  0
   58.1163   34.5787   45.7619 H   0  0  0  0  0  0  0  0  0  0  0  0
   59.3400   32.8780   46.3170 C   0  0  0  0  0  0  0  0  0  0  0  0
   60.1590   33.6600   47.1440 O   0  0  0  0  0  0  0  0  0  0  0  0
   60.2790   33.5240   48.5350 C   0  0  0  0  0  0  0  0  0  0  0  0
   61.5030   33.8350   49.1360 C   0  0  0  0  0  0  0  0  0  0  0  0
   62.3497   34.1627   48.5149 H   0  0  0  0  0  0  0  0  0  0  0  0
   61.6560   33.7320   50.5180 C   0  0  0  0  0  0  0  0  0  0  0  0
   62.6245   33.9716   50.9813 H   0  0  0  0  0  0  0  0  0  0  0  0
   60.5850   33.3260   51.3160 C   0  0  0  0  0  0  0  0  0  0  0  0
   60.7169   33.2408   52.4047 H   0  0  0  0  0  0  0  0  0  0  0  0
   59.3380   33.0250   50.7380 C   0  0  0  0  0  0  0  0  0  0  0  0
   58.1970   32.6020   51.5840 C   0  0  0  0  0  0  0  0  0  0  0  0
   57.3940   33.4710   52.0260 O   0  0  0  0  0  0  0  0  0  0  0  0
   58.0160   31.2100   51.8970 N   0  0  0  0  0  0  0  0  0  0  0  0
   56.9050   30.5920   52.1770 C   0  0  0  0  0  0  0  0  0  0  0  0
   56.7480   29.0170   52.7730 S   0  0  0  0  0  0  0  0  0  0  0  0
   55.0680   29.1090   52.8190 C   0  0  0  0  0  0  0  0  0  0  0  0
   54.2370   28.1200   53.2290 F   0  0  0  0  0  0  0  0  0  0  0  0
   54.6710   30.3600   52.3700 C   0  0  0  0  0  0  0  0  0  0  0  0
   53.6159   30.6645   52.3068 H   0  0  0  0  0  0  0  0  0  0  0  0
   55.6970   31.1770   52.0150 N   0  0  0  0  0  0  0  0  0  0  0  0
   55.5630   32.1510   51.6610 H   0  0  0  0  0  0  0  0  0  0  0  0
   59.1930   33.1350   49.3410 C   0  0  0  0  0  0  0  0  0  0  0  0
   58.2210   32.9146   48.8755 H   0  0  0  0  0  0  0  0  0  0  0  0
   59.5700   31.5060   46.1210 C   0  0  0  0  0  0  0  0  0  0  0  0
   60.4054   31.0118   46.6386 H   0  0  0  0  0  0  0  0  0  0  0  0
   58.7430   30.7660   45.2720 C   0  0  0  0  0  0  0  0  0  0  0  0
   58.9203   29.6885   45.1395 H   0  0  0  0  0  0  0  0  0  0  0  0
   57.9900   26.5010   45.4250 S   0  0  0  0  0  0  0  0  0  0  0  0
   57.1850   25.0690   45.7910 C   0  0  0  0  0  0  0  0  0  0  0  0
   57.6285   24.0624   45.8000 H   0  0  0  0  0  0  0  0  0  0  0  0
  1  2  1  0
  2  3  1  0
  3  4  1  0
  4  5  2  0
  5  6  1  0
  6  7  2  0
  6  8  1  0
  8  9  1  0
  8 10  1  0
  8 11  1  0
 11 12  2  0
 12 13  1  0
 12 14  1  0
 14 15  1  0
 14 16  2  0
 16 17  1  0
 17 18  1  0
 18 19  2  0
 19 20  1  0
 19 21  1  0
 21 22  1  0
 21 23  2  0
 23 24  1  0
 23 25  1  0
 25 26  1  0
 26 27  2  0
 26 28  1  0
 28 29  2  3
 29 30  1  0
 30 31  1  0
 31 32  1  0
 31 33  2  0
 33 34  1  0
 33 35  1  0
 35 36  1  0
 25 37  2  0
 37 38  1  0
 16 39  1  0
 39 40  1  0
 39 41  2  0
 41 42  1  0
  4 43  1  0
 43 44  1  0
 44 45  1  0
 44  2  2  0
 41 11  1  0
 37 18  1  0
 35 29  1  0
M  CHG  1   3  -1
M  END
>  <UniqueID>  (61) 
54

>  <SMILES>  (61) 
O=C(Cc1ccc(Oc2cccc(C(=O)N=c3[nH]cc(F)s3)c2)cc1)/N=c1/[n-]ccs1

>  <Energy>  (61) 
124.03178954228359

>  <Genealogy>  (61) 
O=C(Cc1ccc(Oc2cccc(C(=O)N=c3[nH]cc(F)s3)c2)cc1)N=c1[n-]ccs1 (protonated)
O=C(Cc1ccc(Oc2cccc(C(=O)N=c3[nH]cc(F)s3)c2)cc1)/N=c1/[n-]ccs1 (cis-trans isomerization)
O=C(Cc1ccc(Oc2cccc(C(=O)N=c3[nH]cc(F)s3)c2)cc1)/N=c1/[n-]ccs1 (3D coordinates assigned)
O=C(Cc1ccc(Oc2cccc(C(=O)N=c3[nH]cc(F)s3)c2)cc1)/N=c1/[n-]ccs1 (optimized conformer: 124.03178954228359 kcal/mol)

>  <smiles>  (61) 
O=C(Cc1ccc(Oc2cccc(C(=O)N=c3[nH]cc(F)s3)c2)cc1)N=c1[nH]ccs1

>  <score_type>  (61) 
oracle

>  <origin>  (61) 
adg

>  <m_score__min__energy>  (61) 
-10.949999999999999

>  <m_primary>  (61) 
energy

$$$$
61:0
     RDKit          3D

 49 51  0  0  0  0  0  0  0  0999 V2000
   58.1490   27.1550   43.5100 C   0  0  0  0  0  0  0  0  0  0  0  0
   58.6880   28.2900   44.3420 C   0  0  0  0  0  0  0  0  0  0  0  0
   59.8810   28.0980   45.0580 C   0  0  0  0  0  0  0  0  0  0  0  0
   60.4140   29.1240   45.8390 C   0  0  0  0  0  0  0  0  0  0  0  0
   59.7670   30.3540   45.9100 C   0  0  0  0  0  0  0  0  0  0  0  0
   58.5740   30.5720   45.2110 C   0  0  0  0  0  0  0  0  0  0  0  0
   57.9600   31.8650   45.2880 N   0  0  0  0  0  0  0  0  0  0  0  0
   57.4010   32.3400   46.5540 C   0  0  0  0  0  0  0  0  0  0  0  0
   57.9530   33.7360   46.9030 C   0  0  0  0  0  0  0  0  0  0  0  0
   58.2300   34.6000   45.7210 N   0  0  0  0  0  0  0  0  0  0  0  0
   59.6780   34.7920   45.4900 C   0  0  0  0  0  0  0  0  0  0  0  0
   60.4570   34.3490   46.6920 C   0  0  0  0  0  0  0  0  0  0  0  0
   60.3160   34.9650   47.7840 O   0  0  0  0  0  0  0  0  0  0  0  0
   61.3130   33.2010   46.6050 N   0  0  0  0  0  0  0  0  0  0  0  0
   62.2930   32.8480   47.5960 C   0  0  0  0  0  0  0  0  0  0  0  0
   63.5480   33.4830   47.6460 C   0  0  0  0  0  0  0  0  0  0  0  0
   64.4930   33.1020   48.6050 C   0  0  0  0  0  0  0  0  0  0  0  0
   64.2000   32.0800   49.5120 C   0  0  0  0  0  0  0  0  0  0  0  0
   65.4930   31.5610   50.8180 Br  0  0  0  0  0  0  0  0  0  0  0  0
   62.9630   31.4300   49.4540 C   0  0  0  0  0  0  0  0  0  0  0  0
   62.0170   31.8070   48.4970 C   0  0  0  0  0  0  0  0  0  0  0  0
   57.5310   34.1590   44.4940 C   0  0  0  0  0  0  0  0  0  0  0  0
   57.9330   32.7290   44.1060 C   0  0  0  0  0  0  0  0  0  0  0  0
   58.0000   29.5280   44.4460 C   0  0  0  0  0  0  0  0  0  0  0  0
   56.6970   29.7470   43.7130 C   0  0  0  0  0  0  0  0  0  0  0  0
   57.7722   26.3616   44.1723 H   0  0  0  0  0  0  0  0  0  0  0  0
   57.3294   27.5227   42.8752 H   0  0  0  0  0  0  0  0  0  0  0  0
   58.9520   26.7522   42.8752 H   0  0  0  0  0  0  0  0  0  0  0  0
   60.4000   27.1297   45.0025 H   0  0  0  0  0  0  0  0  0  0  0  0
   61.3465   28.9605   46.3991 H   0  0  0  0  0  0  0  0  0  0  0  0
   60.1967   31.1618   46.5206 H   0  0  0  0  0  0  0  0  0  0  0  0
   56.3059   32.3961   46.4669 H   0  0  0  0  0  0  0  0  0  0  0  0
   57.6847   31.6377   47.3517 H   0  0  0  0  0  0  0  0  0  0  0  0
   57.2162   34.2485   47.5390 H   0  0  0  0  0  0  0  0  0  0  0  0
   58.9168   33.5758   47.4084 H   0  0  0  0  0  0  0  0  0  0  0  0
   59.9885   34.1991   44.6170 H   0  0  0  0  0  0  0  0  0  0  0  0
   59.8742   35.8590   45.3082 H   0  0  0  0  0  0  0  0  0  0  0  0
   61.1710   32.5480   45.7990 H   0  0  0  0  0  0  0  0  0  0  0  0
   63.7869   34.2818   46.9285 H   0  0  0  0  0  0  0  0  0  0  0  0
   65.4688   33.6081   48.6451 H   0  0  0  0  0  0  0  0  0  0  0  0
   62.7343   30.6206   50.1629 H   0  0  0  0  0  0  0  0  0  0  0  0
   61.0500   31.2849   48.4492 H   0  0  0  0  0  0  0  0  0  0  0  0
   56.4455   34.1910   44.6689 H   0  0  0  0  0  0  0  0  0  0  0  0
   57.8130   34.8338   43.6724 H   0  0  0  0  0  0  0  0  0  0  0  0
   57.2047   32.3316   43.3838 H   0  0  0  0  0  0  0  0  0  0  0  0
   58.9376   32.7510   43.6585 H   0  0  0  0  0  0  0  0  0  0  0  0
   55.8847   29.8835   44.4420 H   0  0  0  0  0  0  0  0  0  0  0  0
   56.7777   30.6442   43.0817 H   0  0  0  0  0  0  0  0  0  0  0  0
   56.4800   28.8727   43.0817 H   0  0  0  0  0  0  0  0  0  0  0  0
  1  2  1  0
  2  3  2  0
  3  4  1  0
  4  5  2  0
  5  6  1  0
  6  7  1  0
  7  8  1  0
  8  9  1  0
  9 10  1  0
 10 11  1  0
 11 12  1  0
 12 13  2  0
 12 14  1  0
 14 15  1  0
 15 16  2  0
 16 17  1  0
 17 18  2  0
 18 19  1  0
 18 20  1  0
 20 21  2  0
 10 22  1  0
 22 23  1  0
  6 24  2  0
 24 25  1  0
 24  2  1  0
 23  7  1  0
 21 15  1  0
  1 26  1  0
  1 27  1  0
  1 28  1  0
  3 29  1  0
  4 30  1  0
  5 31  1  0
  8 32  1  0
  8 33  1  0
  9 34  1  0
  9 35  1  0
 11 36  1  0
 11 37  1  0
 14 38  1  0
 16 39  1  0
 17 40  1  0
 20 41  1  0
 21 42  1  0
 22 43  1  0
 22 44  1  0
 23 45  1  0
 23 46  1  0
 25 47  1  0
 25 48  1  0
 25 49  1  0
M  END
>  <UniqueID>  (62) 
55

>  <SMILES>  (62) 
Cc1cccc(N2CCN(CC(=O)Nc3ccc(Br)cc3)CC2)c1C

>  <Energy>  (62) 
66.88764676340902

>  <Genealogy>  (62) 
Cc1cccc(N2CCN(CC(=O)Nc3ccc(Br)cc3)CC2)c1C (3D coordinates assigned)
Cc1cccc(N2CCN(CC(=O)Nc3ccc(Br)cc3)CC2)c1C (nonaromatic ring conformer: 66.88764676340902 kcal/mol)

>  <smiles>  (62) 
Cc1cccc(N2CCN(CC(=O)Nc3ccc(Br)cc3)CC2)c1C

>  <score_type>  (62) 
oracle

>  <origin>  (62) 
adg

>  <m_score__min__energy>  (62) 
-9.3100000000000005

>  <m_primary>  (62) 
energy

$$$$
62:0
     RDKit          3D

 63 66  0  0  0  0  0  0  0  0999 V2000
   62.0540   29.9360   50.5640 C   0  0  0  0  0  0  0  0  0  0  0  0
   60.7390   30.0960   49.9320 N   0  0  0  0  0  0  0  0  0  0  0  0
   59.5200   29.8190   50.7010 C   0  0  0  0  0  0  0  0  0  0  0  0
   60.6770   30.5200   48.5510 C   0  0  0  0  0  0  0  0  0  0  0  0
   61.7470   30.7710   47.9320 O   0  0  0  0  0  0  0  0  0  0  0  0
   59.3770   30.5950   47.7890 C   0  0  2  0  0  0  0  0  0  0  0  0
   59.0910   29.2560   47.0940 C   0  0  0  0  0  0  0  0  0  0  0  0
   57.8030   29.3610   46.2640 C   0  0  2  0  0  0  0  0  0  0  0  0
   57.6200   28.0830   45.5660 N   0  0  0  0  0  0  0  0  0  0  0  0
   57.4920   26.8260   45.9210 C   0  0  0  0  0  0  0  0  0  0  0  0
   56.1710   26.3520   45.9760 C   0  0  0  0  0  0  0  0  0  0  0  0
   55.9020   25.0490   46.3750 C   0  0  0  0  0  0  0  0  0  0  0  0
   56.9490   24.2080   46.7120 C   0  0  0  0  0  0  0  0  0  0  0  0
   58.2570   24.6790   46.6380 C   0  0  0  0  0  0  0  0  0  0  0  0
   58.5370   25.9680   46.2490 N   0  0  0  0  0  0  0  0  0  0  0  0
   59.9630   26.3140   46.1440 C   0  0  0  0  0  0  0  0  0  0  0  0
   57.9170   30.5250   45.2860 C   0  0  0  0  0  0  0  0  0  0  0  0
   57.2290   30.5350   44.0580 C   0  0  0  0  0  0  0  0  0  0  0  0
   57.3360   31.6250   43.1940 C   0  0  0  0  0  0  0  0  0  0  0  0
   58.1220   32.7230   43.5410 C   0  0  0  0  0  0  0  0  0  0  0  0
   58.8130   32.7450   44.7630 C   0  0  0  0  0  0  0  0  0  0  0  0
   59.6430   33.8630   45.1210 N   0  0  0  0  0  0  0  0  0  0  0  0
   59.7080   34.4940   46.7360 S   0  0  0  0  0  0  0  0  0  0  0  0
   58.5410   33.9650   47.5180 O   0  0  0  0  0  0  0  0  0  0  0  0
   59.6210   35.9940   46.6770 O   0  0  0  0  0  0  0  0  0  0  0  0
   61.2010   33.9750   47.5300 C   0  0  0  0  0  0  0  0  0  0  0  0
   62.2920   33.5740   46.7420 C   0  0  0  0  0  0  0  0  0  0  0  0
   63.4840   33.1660   47.3370 C   0  0  0  0  0  0  0  0  0  0  0  0
   63.5970   33.1400   48.7260 C   0  0  0  0  0  0  0  0  0  0  0  0
   62.5130   33.5120   49.5240 C   0  0  0  0  0  0  0  0  0  0  0  0
   61.3000   33.9260   48.9360 C   0  0  0  0  0  0  0  0  0  0  0  0
   60.1810   34.2790   49.7090 O   0  0  0  0  0  0  0  0  0  0  0  0
   59.5260   33.4360   50.6530 C   0  0  0  0  0  0  0  0  0  0  0  0
   60.4470   32.6270   51.2920 F   0  0  0  0  0  0  0  0  0  0  0  0
   58.8960   34.2240   51.5980 F   0  0  0  0  0  0  0  0  0  0  0  0
   58.5740   32.6580   50.0180 F   0  0  0  0  0  0  0  0  0  0  0  0
   58.7100   31.6440   45.6320 C   0  0  0  0  0  0  0  0  0  0  0  0
   59.4560   31.6410   46.8190 O   0  0  0  0  0  0  0  0  0  0  0  0
   61.9392   29.9500   51.6579 H   0  0  0  0  0  0  0  0  0  0  0  0
   62.4957   28.9775   50.2539 H   0  0  0  0  0  0  0  0  0  0  0  0
   62.7126   30.7606   50.2539 H   0  0  0  0  0  0  0  0  0  0  0  0
   59.7453   29.8702   51.7765 H   0  0  0  0  0  0  0  0  0  0  0  0
   58.7515   30.5654   50.4515 H   0  0  0  0  0  0  0  0  0  0  0  0
   59.1495   28.8138   50.4515 H   0  0  0  0  0  0  0  0  0  0  0  0
   58.5577   30.8076   48.4915 H   0  0  0  0  0  0  0  0  0  0  0  0
   59.9318   29.0022   46.4317 H   0  0  0  0  0  0  0  0  0  0  0  0
   58.9673   28.4723   47.8559 H   0  0  0  0  0  0  0  0  0  0  0  0
   56.9290   29.5557   46.9030 H   0  0  0  0  0  0  0  0  0  0  0  0
   55.3411   27.0193   45.7003 H   0  0  0  0  0  0  0  0  0  0  0  0
   54.8641   24.6877   46.4229 H   0  0  0  0  0  0  0  0  0  0  0  0
   56.7489   23.1759   47.0356 H   0  0  0  0  0  0  0  0  0  0  0  0
   59.0862   24.0041   46.8968 H   0  0  0  0  0  0  0  0  0  0  0  0
   60.3904   26.4177   47.1523 H   0  0  0  0  0  0  0  0  0  0  0  0
   60.4942   25.5187   45.6006 H   0  0  0  0  0  0  0  0  0  0  0  0
   60.0707   27.2643   45.6006 H   0  0  0  0  0  0  0  0  0  0  0  0
   56.6017   29.6761   43.7773 H   0  0  0  0  0  0  0  0  0  0  0  0
   56.7978   31.6182   42.2347 H   0  0  0  0  0  0  0  0  0  0  0  0
   58.2013   33.5776   42.8529 H   0  0  0  0  0  0  0  0  0  0  0  0
   60.0580   34.4540   44.3670 H   0  0  0  0  0  0  0  0  0  0  0  0
   62.2048   33.5821   45.6455 H   0  0  0  0  0  0  0  0  0  0  0  0
   64.3362   32.8643   46.7103 H   0  0  0  0  0  0  0  0  0  0  0  0
   64.5415   32.8260   49.1943 H   0  0  0  0  0  0  0  0  0  0  0  0
   62.6061   33.4818   50.6196 H   0  0  0  0  0  0  0  0  0  0  0  0
  1  2  1  0
  2  3  1  0
  2  4  1  0
  4  5  2  0
  4  6  1  0
  6  7  1  0
  7  8  1  0
  8  9  1  0
  9 10  2  3
 10 11  1  0
 11 12  2  0
 12 13  1  0
 13 14  2  0
 14 15  1  0
 15 16  1  0
  8 17  1  0
 17 18  2  0
 18 19  1  0
 19 20  2  0
 20 21  1  0
 21 22  1  0
 22 23  1  0
 23 24  2  0
 23 25  2  0
 23 26  1  0
 26 27  2  0
 27 28  1  0
 28 29  2  0
 29 30  1  0
 30 31  2  0
 31 32  1  0
 32 33  1  0
 33 34  1  0
 33 35  1  0
 33 36  1  0
 21 37  2  0
 37 38  1  0
 38  6  1  0
 15 10  1  0
 37 17  1  0
 31 26  1  0
  1 39  1  0
  1 40  1  0
  1 41  1  0
  3 42  1  0
  3 43  1  0
  3 44  1  0
  6 45  1  1
  7 46  1  0
  7 47  1  0
  8 48  1  1
 11 49  1  0
 12 50  1  0
 13 51  1  0
 14 52  1  0
 16 53  1  0
 16 54  1  0
 16 55  1  0
 18 56  1  0
 19 57  1  0
 20 58  1  0
 22 59  1  0
 27 60  1  0
 28 61  1  0
 29 62  1  0
 30 63  1  0
M  END
>  <UniqueID>  (63) 
56

>  <SMILES>  (63) 
CN(C)C(=O)[C@@H]1C[C@H](N=c2ccccn2C)c2cccc(NS(=O)(=O)c3ccccc3OC(F)(F)F)c2O1

>  <Energy>  (63) 
88.42907730990487

>  <Genealogy>  (63) 
CN(C)C(=O)[C@@H]1C[C@H](N=c2ccccn2C)c2cccc(NS(=O)(=O)c3ccccc3OC(F)(F)F)c2O1 (chirality)
CN(C)C(=O)[C@@H]1C[C@H](N=c2ccccn2C)c2cccc(NS(=O)(=O)c3ccccc3OC(F)(F)F)c2O1 (3D coordinates assigned)
CN(C)C(=O)[C@@H]1C[C@H](N=c2ccccn2C)c2cccc(NS(=O)(=O)c3ccccc3OC(F)(F)F)c2O1 (nonaromatic ring conformer: 88.42907730990487 kcal/mol)

>  <smiles>  (63) 
CN(C)C(=O)C1CC(N=c2ccccn2C)c2cccc(NS(=O)(=O)c3ccccc3OC(F)(F)F)c2O1

>  <score_type>  (63) 
oracle

>  <origin>  (63) 
adg

>  <m_score__min__energy>  (63) 
-10.18

>  <m_primary>  (63) 
energy

$$$$
63:0
     RDKit          3D

 44 46  0  0  0  0  0  0  0  0999 V2000
   55.4540   30.9740   51.6210 N   0  0  0  0  0  0  0  0  0  0  0  0
   57.0350   30.4420   52.0670 S   0  0  0  0  0  0  0  0  0  0  0  0
   57.0030   28.9690   52.3660 O   0  0  0  0  0  0  0  0  0  0  0  0
   57.4800   31.1740   53.3020 O   0  0  0  0  0  0  0  0  0  0  0  0
   58.1580   30.7620   50.7490 C   0  0  0  0  0  0  0  0  0  0  0  0
   59.0320   29.7600   50.3050 C   0  0  0  0  0  0  0  0  0  0  0  0
   59.9120   30.0120   49.2490 C   0  0  0  0  0  0  0  0  0  0  0  0
   59.9190   31.2650   48.6220 C   0  0  0  0  0  0  0  0  0  0  0  0
   61.0430   31.6020   47.2620 S   0  0  0  0  0  0  0  0  0  0  0  0
   59.8900   32.7140   46.4440 C   0  0  0  0  0  0  0  0  0  0  0  0
   60.1200   34.0510   46.5650 N   0  0  0  0  0  0  0  0  0  0  0  0
   59.3200   34.9820   45.9870 C   0  0  0  0  0  0  0  0  0  0  0  0
   58.2220   34.5840   45.2340 C   0  0  0  0  0  0  0  0  0  0  0  0
   57.9610   33.2240   45.0720 C   0  0  0  0  0  0  0  0  0  0  0  0
   58.7950   32.2570   45.6630 C   0  0  0  0  0  0  0  0  0  0  0  0
   58.5050   30.8170   45.4300 C   0  0  0  0  0  0  0  0  0  0  0  0
   58.4590   30.3590   44.2580 O   0  0  0  0  0  0  0  0  0  0  0  0
   58.2510   29.9380   46.5400 N   0  0  0  0  0  0  0  0  0  0  0  0
   58.4100   28.5110   46.4760 C   0  0  0  0  0  0  0  0  0  0  0  0
   59.6990   27.9590   46.4760 C   0  0  0  0  0  0  0  0  0  0  0  0
   59.8770   26.5750   46.3960 C   0  0  0  0  0  0  0  0  0  0  0  0
   58.7680   25.7300   46.3020 C   0  0  0  0  0  0  0  0  0  0  0  0
   57.4730   26.2680   46.2810 C   0  0  0  0  0  0  0  0  0  0  0  0
   56.0640   25.2190   46.1360 S   0  0  0  0  0  0  0  0  0  0  0  0
   54.6500   26.1780   45.8760 N   0  0  0  0  0  0  0  0  0  0  0  0
   56.2600   24.2790   44.9790 O   0  0  0  0  0  0  0  0  0  0  0  0
   55.8820   24.4160   47.3930 O   0  0  0  0  0  0  0  0  0  0  0  0
   57.2980   27.6560   46.3580 C   0  0  0  0  0  0  0  0  0  0  0  0
   59.0500   32.2680   49.0680 C   0  0  0  0  0  0  0  0  0  0  0  0
   58.1680   32.0160   50.1240 C   0  0  0  0  0  0  0  0  0  0  0  0
   55.5730   31.6710   50.8510 H   0  0  0  0  0  0  0  0  0  0  0  0
   59.0252   28.7724   50.7893 H   0  0  0  0  0  0  0  0  0  0  0  0
   60.6009   29.2246   48.9092 H   0  0  0  0  0  0  0  0  0  0  0  0
   59.5406   36.0521   46.1145 H   0  0  0  0  0  0  0  0  0  0  0  0
   57.5651   35.3346   44.7702 H   0  0  0  0  0  0  0  0  0  0  0  0
   57.0939   32.9036   44.4758 H   0  0  0  0  0  0  0  0  0  0  0  0
   57.8420   30.3500   47.4080 H   0  0  0  0  0  0  0  0  0  0  0  0
   60.5761   28.6198   46.5394 H   0  0  0  0  0  0  0  0  0  0  0  0
   60.8916   26.1503   46.4071 H   0  0  0  0  0  0  0  0  0  0  0  0
   58.9110   24.6409   46.2444 H   0  0  0  0  0  0  0  0  0  0  0  0
   54.7930   27.0810   46.3790 H   0  0  0  0  0  0  0  0  0  0  0  0
   56.2839   28.0808   46.3260 H   0  0  0  0  0  0  0  0  0  0  0  0
   59.0609   33.2570   48.5866 H   0  0  0  0  0  0  0  0  0  0  0  0
   57.4805   32.8043   50.4646 H   0  0  0  0  0  0  0  0  0  0  0  0
  1  2  1  0
  2  3  2  0
  2  4  2  0
  2  5  1  0
  5  6  2  0
  6  7  1  0
  7  8  2  0
  8  9  1  0
  9 10  1  0
 10 11  2  0
 11 12  1  0
 12 13  2  0
 13 14  1  0
 14 15  2  0
 15 16  1  0
 16 17  2  0
 16 18  1  0
 18 19  1  0
 19 20  2  0
 20 21  1  0
 21 22  2  0
 22 23  1  0
 23 24  1  0
 24 25  1  0
 24 26  2  0
 24 27  2  0
 23 28  2  0
  8 29  1  0
 29 30  2  0
 30  5  1  0
 15 10  1  0
 28 19  1  0
  1 31  1  0
  6 32  1  0
  7 33  1  0
 12 34  1  0
 13 35  1  0
 14 36  1  0
 18 37  1  0
 20 38  1  0
 21 39  1  0
 22 40  1  0
 25 41  1  0
 28 42  1  0
 29 43  1  0
 30 44  1  0
M  CHG  2   1  -1  25  -1
M  END
>  <UniqueID>  (64) 
57

>  <SMILES>  (64) 
[NH-]S(=O)(=O)c1ccc(Sc2ncccc2C(=O)Nc2cccc(S([NH-])(=O)=O)c2)cc1

>  <Energy>  (64) 
51.880039763046085

>  <Genealogy>  (64) 
[NH-]S(=O)(=O)c1ccc(Sc2ncccc2C(=O)Nc2cccc(S([NH-])(=O)=O)c2)cc1 (protonated)
[NH-]S(=O)(=O)c1ccc(Sc2ncccc2C(=O)Nc2cccc(S([NH-])(=O)=O)c2)cc1 (3D coordinates assigned)
[NH-]S(=O)(=O)c1ccc(Sc2ncccc2C(=O)Nc2cccc(S([NH-])(=O)=O)c2)cc1 (optimized conformer: 51.880039763046085 kcal/mol)

>  <smiles>  (64) 
NS(=O)(=O)c1ccc(Sc2ncccc2C(=O)Nc2cccc(S(N)(=O)=O)c2)cc1

>  <score_type>  (64) 
oracle

>  <origin>  (64) 
adg

>  <m_score__min__energy>  (64) 
-15.109999999999999

>  <m_primary>  (64) 
energy

$$$$
64:0
     RDKit          3D

 56 58  0  0  0  0  0  0  0  0999 V2000
   58.3950   33.4340   44.3060 C   0  0  0  0  0  0  0  0  0  0  0  0
   57.2750   33.8720   45.2460 C   0  0  0  0  0  0  0  0  0  0  0  0
   57.4020   33.2480   46.6410 C   0  0  0  0  0  0  0  0  0  0  0  0
   58.7990   32.9970   47.0220 N   0  0  0  0  0  0  0  0  0  0  0  0
   59.2120   31.6450   47.2760 C   0  0  0  0  0  0  0  0  0  0  0  0
   60.0440   30.9810   46.3660 C   0  0  0  0  0  0  0  0  0  0  0  0
   60.4360   29.6600   46.6000 C   0  0  0  0  0  0  0  0  0  0  0  0
   59.9720   28.9730   47.7300 C   0  0  0  0  0  0  0  0  0  0  0  0
   60.4220   27.5860   47.9690 C   0  0  0  0  0  0  0  0  0  0  0  0
   59.6460   26.4950   47.8850 C   0  0  0  0  0  0  0  0  0  0  0  0
   58.9530   26.0340   46.6600 C   0  0  0  0  0  0  0  0  0  0  0  0
   59.0390   24.7660   46.1060 C   0  0  0  0  0  0  0  0  0  0  0  0
   58.1650   24.7440   45.0380 C   0  0  0  0  0  0  0  0  0  0  0  0
   57.5680   25.9870   44.9870 C   0  0  0  0  0  0  0  0  0  0  0  0
   58.0480   26.7690   45.9740 N   0  0  0  0  0  0  0  0  0  0  0  0
   57.6020   28.1310   46.2660 C   0  0  0  0  0  0  0  0  0  0  0  0
   57.6410   28.9830   44.9970 C   0  0  0  0  0  0  0  0  0  0  0  0
   56.3390   29.6930   44.8000 C   0  0  0  0  0  0  0  0  0  0  0  0
   56.3180   30.9370   44.6100 O   0  0  0  0  0  0  0  0  0  0  0  0
   55.1440   28.9870   44.8760 O   0  0  0  0  0  0  0  0  0  0  0  0
   59.1470   29.6440   48.6500 C   0  0  0  0  0  0  0  0  0  0  0  0
   58.7560   30.9640   48.4150 C   0  0  0  0  0  0  0  0  0  0  0  0
   59.8230   34.3220   47.5140 S   0  0  0  0  0  0  0  0  0  0  0  0
   59.8380   35.3590   46.4250 O   0  0  0  0  0  0  0  0  0  0  0  0
   59.2900   34.9700   48.7600 O   0  0  0  0  0  0  0  0  0  0  0  0
   61.4660   33.7460   47.8320 C   0  0  0  0  0  0  0  0  0  0  0  0
   62.4280   33.8040   46.8090 C   0  0  0  0  0  0  0  0  0  0  0  0
   63.7260   33.3380   47.0290 C   0  0  0  0  0  0  0  0  0  0  0  0
   64.0800   32.8140   48.2720 C   0  0  0  0  0  0  0  0  0  0  0  0
   63.1370   32.7590   49.3010 C   0  0  0  0  0  0  0  0  0  0  0  0
   61.8330   33.2240   49.0930 C   0  0  0  0  0  0  0  0  0  0  0  0
   60.7000   33.1350   50.4350 Cl  0  0  0  0  0  0  0  0  0  0  0  0
   59.2589   33.0962   44.8973 H   0  0  0  0  0  0  0  0  0  0  0  0
   58.0395   32.6086   43.6716 H   0  0  0  0  0  0  0  0  0  0  0  0
   58.6938   34.2815   43.6716 H   0  0  0  0  0  0  0  0  0  0  0  0
   57.3057   34.9671   45.3452 H   0  0  0  0  0  0  0  0  0  0  0  0
   56.3228   33.5318   44.8129 H   0  0  0  0  0  0  0  0  0  0  0  0
   56.9540   33.9332   47.3757 H   0  0  0  0  0  0  0  0  0  0  0  0
   56.8824   32.2787   46.6213 H   0  0  0  0  0  0  0  0  0  0  0  0
   60.3911   31.5022   45.4616 H   0  0  0  0  0  0  0  0  0  0  0  0
   61.1124   29.1568   45.8934 H   0  0  0  0  0  0  0  0  0  0  0  0
   61.4782   27.4360   48.2374 H   0  0  0  0  0  0  0  0  0  0  0  0
   59.5140   25.8956   48.7978 H   0  0  0  0  0  0  0  0  0  0  0  0
   59.6783   23.9397   46.4501 H   0  0  0  0  0  0  0  0  0  0  0  0
   57.9801   23.8988   44.3587 H   0  0  0  0  0  0  0  0  0  0  0  0
   56.8119   26.2942   44.2495 H   0  0  0  0  0  0  0  0  0  0  0  0
   56.5724   28.1012   46.6521 H   0  0  0  0  0  0  0  0  0  0  0  0
   58.2721   28.5748   47.0170 H   0  0  0  0  0  0  0  0  0  0  0  0
   58.4481   29.7253   45.0845 H   0  0  0  0  0  0  0  0  0  0  0  0
   57.8210   28.3256   44.1336 H   0  0  0  0  0  0  0  0  0  0  0  0
   58.8078   29.1266   49.5595 H   0  0  0  0  0  0  0  0  0  0  0  0
   58.0877   31.4720   49.1258 H   0  0  0  0  0  0  0  0  0  0  0  0
   62.1564   34.2197   45.8274 H   0  0  0  0  0  0  0  0  0  0  0  0
   64.4704   33.3843   46.2205 H   0  0  0  0  0  0  0  0  0  0  0  0
   65.1018   32.4440   48.4421 H   0  0  0  0  0  0  0  0  0  0  0  0
   63.4208   32.3477   50.2810 H   0  0  0  0  0  0  0  0  0  0  0  0
  1  2  1  0
  2  3  1  0
  3  4  1  0
  4  5  1  0
  5  6  2  0
  6  7  1  0
  7  8  2  0
  8  9  1  0
  9 10  2  3
 10 11  1  0
 11 12  2  0
 12 13  1  0
 13 14  2  0
 14 15  1  0
 15 16  1  0
 16 17  1  0
 17 18  1  0
 18 19  2  0
 18 20  1  0
  8 21  1  0
 21 22  2  0
  4 23  1  0
 23 24  2  0
 23 25  2  0
 23 26  1  0
 26 27  2  0
 27 28  1  0
 28 29  2  0
 29 30  1  0
 30 31  2  0
 31 32  1  0
 22  5  1  0
 31 26  1  0
 15 11  1  0
  1 33  1  0
  1 34  1  0
  1 35  1  0
  2 36  1  0
  2 37  1  0
  3 38  1  0
  3 39  1  0
  6 40  1  0
  7 41  1  0
  9 42  1  0
 10 43  1  0
 12 44  1  0
 13 45  1  0
 14 46  1  0
 16 47  1  0
 16 48  1  0
 17 49  1  0
 17 50  1  0
 21 51  1  0
 22 52  1  0
 27 53  1  0
 28 54  1  0
 29 55  1  0
 30 56  1  0
M  CHG  1  20  -1
M  END
>  <UniqueID>  (65) 
58

>  <SMILES>  (65) 
CCCN(c1ccc(C=Cc2cccn2CCC(=O)[O-])cc1)S(=O)(=O)c1ccccc1Cl

>  <Energy>  (65) 
90.60397686256297

>  <Genealogy>  (65) 
CCCN(c1ccc(C=Cc2cccn2CCC(=O)[O-])cc1)S(=O)(=O)c1ccccc1Cl (protonated)
CCCN(c1ccc(C=Cc2cccn2CCC(=O)[O-])cc1)S(=O)(=O)c1ccccc1Cl (3D coordinates assigned)
CCCN(c1ccc(C=Cc2cccn2CCC(=O)[O-])cc1)S(=O)(=O)c1ccccc1Cl (optimized conformer: 90.60397686256297 kcal/mol)

>  <smiles>  (65) 
CCCN(c1ccc(C=Cc2cccn2CCC(=O)O)cc1)S(=O)(=O)c1ccccc1Cl

>  <score_type>  (65) 
oracle

>  <origin>  (65) 
adg

>  <m_score__min__energy>  (65) 
-13.359999999999999

>  <m_primary>  (65) 
energy

$$$$
65:0
     RDKit          3D

 29 31  0  0  0  0  0  0  0  0999 V2000
   63.0625   30.9940   47.9694 H   0  0  0  0  0  0  0  0  0  0  0  0
   62.3100   31.6660   47.5310 C   0  0  0  0  0  0  0  0  0  0  0  0
   61.0690   31.1960   47.2410 N   0  0  0  0  0  0  0  0  0  0  0  0
   60.1070   31.9910   46.6950 C   0  0  0  0  0  0  0  0  0  0  0  0
   58.8330   31.4700   46.4220 C   0  0  0  0  0  0  0  0  0  0  0  0
   58.5680   30.0760   46.6540 N   0  0  0  0  0  0  0  0  0  0  0  0
   58.3280   29.2000   45.7520 N   0  0  0  0  0  0  0  0  0  0  0  0
   57.1620   28.3620   45.6760 C   0  0  0  0  0  0  0  0  0  0  0  0
   56.0780   28.8310   45.2300 O   0  0  0  0  0  0  0  0  0  0  0  0
   57.2080   26.9630   46.1820 C   0  0  0  0  0  0  0  0  0  0  0  0
   56.0330   26.1980   46.3480 C   0  0  0  0  0  0  0  0  0  0  0  0
   54.7850   26.7140   46.0240 O   0  0  0  0  0  0  0  0  0  0  0  0
   56.1110   24.9260   46.8180 N   0  0  0  0  0  0  0  0  0  0  0  0
   57.3020   24.3630   47.1320 C   0  0  0  0  0  0  0  0  0  0  0  0
   57.3450   23.1810   47.5650 O   0  0  0  0  0  0  0  0  0  0  0  0
   58.4480   25.0700   46.9820 N   0  0  0  0  0  0  0  0  0  0  0  0
   58.4330   26.3460   46.5200 C   0  0  0  0  0  0  0  0  0  0  0  0
   59.5240   26.9680   46.4110 O   0  0  0  0  0  0  0  0  0  0  0  0
   57.8640   32.2910   45.8210 C   0  0  0  0  0  0  0  0  0  0  0  0
   56.8789   31.8751   45.5631 H   0  0  0  0  0  0  0  0  0  0  0  0
   58.1440   33.6320   45.5490 C   0  0  0  0  0  0  0  0  0  0  0  0
   57.3708   34.2707   45.0972 H   0  0  0  0  0  0  0  0  0  0  0  0
   59.4000   34.1680   45.8470 C   0  0  0  0  0  0  0  0  0  0  0  0
   59.6510   35.5070   45.5670 O   0  0  0  0  0  0  0  0  0  0  0  0
   60.3930   33.3500   46.4170 C   0  0  0  0  0  0  0  0  0  0  0  0
   61.6720   33.8440   46.7170 C   0  0  0  0  0  0  0  0  0  0  0  0
   61.9167   34.8968   46.5129 H   0  0  0  0  0  0  0  0  0  0  0  0
   62.6330   33.0000   47.2740 C   0  0  0  0  0  0  0  0  0  0  0  0
   63.6373   33.3823   47.5089 H   0  0  0  0  0  0  0  0  0  0  0  0
  1  2  1  0
  2  3  2  0
  3  4  1  0
  4  5  2  0
  5  6  1  0
  6  7  2  0
  7  8  1  0
  8  9  2  0
  8 10  1  0
 10 11  2  0
 11 12  1  0
 11 13  1  0
 13 14  1  0
 14 15  2  0
 14 16  1  0
 16 17  1  0
 17 18  2  0
  5 19  1  0
 19 20  1  0
 19 21  2  0
 21 22  1  0
 21 23  1  0
 23 24  1  0
 23 25  2  0
 25 26  1  0
 26 27  1  0
 26 28  2  0
 28 29  1  0
 28  2  1  0
 25  4  1  0
 17 10  1  0
M  CHG  4  12  -1  13  -1  16  -1  24  -1
M  END
>  <UniqueID>  (66) 
59

>  <SMILES>  (66) 
O=C(/N=N\c1ccc([O-])c2cccnc12)c1c([O-])[n-]c(=O)[n-]c1=O

>  <Energy>  (66) 
54.31588654819315

>  <Genealogy>  (66) 
O=C(N=Nc1ccc([O-])c2cccnc12)c1c([O-])[n-]c(=O)[n-]c1=O (protonated)
O=C(/N=N\c1ccc([O-])c2cccnc12)c1c([O-])[n-]c(=O)[n-]c1=O (cis-trans isomerization)
O=C(/N=N\c1ccc([O-])c2cccnc12)c1c([O-])[n-]c(=O)[n-]c1=O (3D coordinates assigned)
O=C(/N=N\c1ccc([O-])c2cccnc12)c1c([O-])[n-]c(=O)[n-]c1=O (optimized conformer: 54.31588654819315 kcal/mol)

>  <smiles>  (66) 
O=C(N=Nc1ccc(O)c2cccnc12)c1c(O)[nH]c(=O)[nH]c1=O

>  <score_type>  (66) 
oracle

>  <origin>  (66) 
adg

>  <m_score__min__energy>  (66) 
-15.81

>  <m_primary>  (66) 
energy

$$$$
66:0
     RDKit          3D

 41 42  0  0  0  0  0  0  0  0999 V2000
   63.2230   33.8170   47.9290 C   0  0  0  0  0  0  0  0  0  0  0  0
   61.9010   33.1690   47.9380 N   0  0  0  0  0  0  0  0  0  0  0  0
   61.8820   31.9590   48.7930 C   0  0  0  0  0  0  0  0  0  0  0  0
   61.3570   30.7330   48.0910 C   0  0  0  0  0  0  0  0  0  0  0  0
   61.2270   29.6550   48.7320 O   0  0  0  0  0  0  0  0  0  0  0  0
   61.0320   30.7900   46.6950 N   0  0  0  0  0  0  0  0  0  0  0  0
   60.0880   29.9140   46.0570 C   0  0  0  0  0  0  0  0  0  0  0  0
   60.4100   28.5590   45.8900 C   0  0  0  0  0  0  0  0  0  0  0  0
   59.5240   27.6950   45.2410 C   0  0  0  0  0  0  0  0  0  0  0  0
   58.3120   28.1790   44.7410 C   0  0  0  0  0  0  0  0  0  0  0  0
   57.9830   29.5330   44.8860 C   0  0  0  0  0  0  0  0  0  0  0  0
   56.4770   30.1580   44.2220 S   0  0  0  0  0  0  0  0  0  0  0  0
   55.1430   29.3040   44.9130 N   0  0  0  0  0  0  0  0  0  0  0  0
   56.3460   31.6220   44.5350 O   0  0  0  0  0  0  0  0  0  0  0  0
   56.4700   29.9810   42.7300 O   0  0  0  0  0  0  0  0  0  0  0  0
   58.8750   30.4000   45.5320 C   0  0  0  0  0  0  0  0  0  0  0  0
   60.8420   34.1480   48.2700 C   0  0  0  0  0  0  0  0  0  0  0  0
   59.7380   34.1370   47.2410 C   0  0  0  0  0  0  0  0  0  0  0  0
   59.9120   34.8000   46.0130 C   0  0  0  0  0  0  0  0  0  0  0  0
   58.8920   34.7970   45.0570 C   0  0  0  0  0  0  0  0  0  0  0  0
   57.6940   34.1270   45.3150 C   0  0  0  0  0  0  0  0  0  0  0  0
   57.5140   33.4540   46.5250 C   0  0  0  0  0  0  0  0  0  0  0  0
   58.5310   33.4530   47.4870 C   0  0  0  0  0  0  0  0  0  0  0  0
   58.3360   32.7700   48.6830 O   0  0  0  0  0  0  0  0  0  0  0  0
   63.5579   33.9812   48.9638 H   0  0  0  0  0  0  0  0  0  0  0  0
   63.9447   33.1705   47.4082 H   0  0  0  0  0  0  0  0  0  0  0  0
   63.1541   34.7835   47.4082 H   0  0  0  0  0  0  0  0  0  0  0  0
   62.9092   31.7543   49.1290 H   0  0  0  0  0  0  0  0  0  0  0  0
   61.2014   32.1670   49.6317 H   0  0  0  0  0  0  0  0  0  0  0  0
   61.5290   31.4950   46.1050 H   0  0  0  0  0  0  0  0  0  0  0  0
   61.3667   28.1738   46.2726 H   0  0  0  0  0  0  0  0  0  0  0  0
   59.7810   26.6319   45.1234 H   0  0  0  0  0  0  0  0  0  0  0  0
   57.6154   27.4959   44.2329 H   0  0  0  0  0  0  0  0  0  0  0  0
   54.6600   28.8090   44.1300 H   0  0  0  0  0  0  0  0  0  0  0  0
   58.6259   31.4670   45.6295 H   0  0  0  0  0  0  0  0  0  0  0  0
   60.4173   33.8960   49.2529 H   0  0  0  0  0  0  0  0  0  0  0  0
   61.2914   35.1519   48.2841 H   0  0  0  0  0  0  0  0  0  0  0  0
   60.8562   35.3240   45.8035 H   0  0  0  0  0  0  0  0  0  0  0  0
   59.0330   35.3226   44.1010 H   0  0  0  0  0  0  0  0  0  0  0  0
   56.8908   34.1295   44.5635 H   0  0  0  0  0  0  0  0  0  0  0  0
   56.5710   32.9234   46.7228 H   0  0  0  0  0  0  0  0  0  0  0  0
  1  2  1  0
  2  3  1  0
  3  4  1  0
  4  5  2  0
  4  6  1  0
  6  7  1  0
  7  8  2  0
  8  9  1  0
  9 10  2  0
 10 11  1  0
 11 12  1  0
 12 13  1  0
 12 14  2  0
 12 15  2  0
 11 16  2  0
  2 17  1  0
 17 18  1  0
 18 19  2  0
 19 20  1  0
 20 21  2  0
 21 22  1  0
 22 23  2  0
 23 24  1  0
 16  7  1  0
 23 18  1  0
  1 25  1  0
  1 26  1  0
  1 27  1  0
  3 28  1  0
  3 29  1  0
  6 30  1  0
  8 31  1  0
  9 32  1  0
 10 33  1  0
 13 34  1  0
 16 35  1  0
 17 36  1  0
 17 37  1  0
 19 38  1  0
 20 39  1  0
 21 40  1  0
 22 41  1  0
M  CHG  2  13  -1  24  -1
M  END
>  <UniqueID>  (67) 
60

>  <SMILES>  (67) 
CN(CC(=O)Nc1cccc(S([NH-])(=O)=O)c1)Cc1ccccc1[O-]

>  <Energy>  (67) 
45.88240650104935

>  <Genealogy>  (67) 
CN(CC(=O)Nc1cccc(S([NH-])(=O)=O)c1)Cc1ccccc1[O-] (protonated)
CN(CC(=O)Nc1cccc(S([NH-])(=O)=O)c1)Cc1ccccc1[O-] (3D coordinates assigned)
CN(CC(=O)Nc1cccc(S([NH-])(=O)=O)c1)Cc1ccccc1[O-] (optimized conformer: 45.88240650104935 kcal/mol)

>  <smiles>  (67) 
CN(CC(=O)Nc1cccc(S(N)(=O)=O)c1)Cc1ccccc1O

>  <score_type>  (67) 
oracle

>  <origin>  (67) 
adg

>  <m_score__min__energy>  (67) 
-13.23

>  <m_primary>  (67) 
energy

$$$$
67:0
     RDKit          3D

 50 53  0  0  0  0  0  0  0  0999 V2000
   53.2920   29.1960   55.0510 O   0  0  0  0  0  0  0  0  0  0  0  0
   53.3960   29.4880   53.8300 C   0  0  0  0  0  0  0  0  0  0  0  0
   52.2490   29.3220   52.9850 N   0  0  0  0  0  0  0  0  0  0  0  0
   51.8110   30.2230   51.9570 C   0  0  0  0  0  0  0  0  0  0  0  0
   51.8490   29.8070   50.6250 C   0  0  0  0  0  0  0  0  0  0  0  0
   51.4400   30.6430   49.6360 N   0  0  0  0  0  0  0  0  0  0  0  0
   51.0060   31.8980   49.9170 C   0  0  0  0  0  0  0  0  0  0  0  0
   50.6260   32.6550   48.9880 O   0  0  0  0  0  0  0  0  0  0  0  0
   50.9880   32.3390   51.2010 N   0  0  0  0  0  0  0  0  0  0  0  0
   51.3890   31.5400   52.2250 C   0  0  0  0  0  0  0  0  0  0  0  0
   51.3990   31.9990   53.3970 O   0  0  0  0  0  0  0  0  0  0  0  0
   54.6750   30.0370   53.3200 C   0  0  0  0  0  0  0  0  0  0  0  0
   55.8550   29.8760   54.0650 C   0  0  0  0  0  0  0  0  0  0  0  0
   57.0670   30.3860   53.5910 C   0  0  0  0  0  0  0  0  0  0  0  0
   57.1200   31.0820   52.3730 C   0  0  0  0  0  0  0  0  0  0  0  0
   58.3720   31.5920   51.8750 N   0  0  0  0  0  0  0  0  0  0  0  0
   58.8720   32.9100   52.2850 C   0  0  0  0  0  0  0  0  0  0  0  0
   59.2670   33.7500   51.0530 C   0  0  0  0  0  0  0  0  0  0  0  0
   59.5520   32.9240   49.8500 N   0  0  0  0  0  0  0  0  0  0  0  0
   60.3730   33.6650   48.8720 C   0  0  0  0  0  0  0  0  0  0  0  0
   59.6020   33.9010   47.5990 C   0  0  0  0  0  0  0  0  0  0  0  0
   58.3640   33.2710   47.3850 C   0  0  0  0  0  0  0  0  0  0  0  0
   57.6690   33.4740   46.1890 C   0  0  0  0  0  0  0  0  0  0  0  0
   58.2050   34.3010   45.1980 C   0  0  0  0  0  0  0  0  0  0  0  0
   59.4400   34.9240   45.4010 C   0  0  0  0  0  0  0  0  0  0  0  0
   60.1380   34.7240   46.5960 C   0  0  0  0  0  0  0  0  0  0  0  0
   60.2000   31.6500   50.2140 C   0  0  0  0  0  0  0  0  0  0  0  0
   59.1960   30.7750   50.9740 C   0  0  0  0  0  0  0  0  0  0  0  0
   55.9380   31.2520   51.6330 C   0  0  0  0  0  0  0  0  0  0  0  0
   54.7260   30.7410   52.1050 C   0  0  0  0  0  0  0  0  0  0  0  0
   52.2114   28.7988   50.3757 H   0  0  0  0  0  0  0  0  0  0  0  0
   55.8250   29.3450   55.0279 H   0  0  0  0  0  0  0  0  0  0  0  0
   57.9865   30.2408   54.1770 H   0  0  0  0  0  0  0  0  0  0  0  0
   58.0849   33.4370   52.8442 H   0  0  0  0  0  0  0  0  0  0  0  0
   59.7608   32.7702   52.9178 H   0  0  0  0  0  0  0  0  0  0  0  0
   58.4405   34.4368   50.8181 H   0  0  0  0  0  0  0  0  0  0  0  0
   60.1916   34.2892   51.3068 H   0  0  0  0  0  0  0  0  0  0  0  0
   60.6619   34.6344   49.3041 H   0  0  0  0  0  0  0  0  0  0  0  0
   61.2677   33.0693   48.6381 H   0  0  0  0  0  0  0  0  0  0  0  0
   57.9406   32.6162   48.1609 H   0  0  0  0  0  0  0  0  0  0  0  0
   56.6985   32.9819   46.0277 H   0  0  0  0  0  0  0  0  0  0  0  0
   57.6554   34.4616   44.2588 H   0  0  0  0  0  0  0  0  0  0  0  0
   59.8632   35.5724   44.6196 H   0  0  0  0  0  0  0  0  0  0  0  0
   61.1109   35.2135   46.7507 H   0  0  0  0  0  0  0  0  0  0  0  0
   60.5261   31.1289   49.3018 H   0  0  0  0  0  0  0  0  0  0  0  0
   61.0749   31.8481   50.8506 H   0  0  0  0  0  0  0  0  0  0  0  0
   58.5428   30.2642   50.2512 H   0  0  0  0  0  0  0  0  0  0  0  0
   59.7516   30.0389   51.5735 H   0  0  0  0  0  0  0  0  0  0  0  0
   55.9667   31.7914   50.6748 H   0  0  0  0  0  0  0  0  0  0  0  0
   53.8057   30.8909   51.5214 H   0  0  0  0  0  0  0  0  0  0  0  0
  1  2  2  0
  2  3  1  0
  3  4  1  0
  4  5  2  0
  5  6  1  0
  6  7  1  0
  7  8  2  0
  7  9  1  0
  9 10  1  0
 10 11  2  0
  2 12  1  0
 12 13  2  0
 13 14  1  0
 14 15  2  0
 15 16  1  0
 16 17  1  0
 17 18  1  0
 18 19  1  0
 19 20  1  0
 20 21  1  0
 21 22  2  0
 22 23  1  0
 23 24  2  0
 24 25  1  0
 25 26  2  0
 19 27  1  0
 27 28  1  0
 15 29  1  0
 29 30  2  0
 10  4  1  0
 30 12  1  0
 28 16  1  0
 26 21  1  0
  5 31  1  0
 13 32  1  0
 14 33  1  0
 17 34  1  0
 17 35  1  0
 18 36  1  0
 18 37  1  0
 20 38  1  0
 20 39  1  0
 22 40  1  0
 23 41  1  0
 24 42  1  0
 25 43  1  0
 26 44  1  0
 27 45  1  0
 27 46  1  0
 28 47  1  0
 28 48  1  0
 29 49  1  0
 30 50  1  0
M  CHG  3   3  -1   6  -1   9  -1
M  END
>  <UniqueID>  (68) 
61

>  <SMILES>  (68) 
O=C([N-]c1c[n-]c(=O)[n-]c1=O)c1ccc(N2CCN(Cc3ccccc3)CC2)cc1

>  <Energy>  (68) 
73.54094133304051

>  <Genealogy>  (68) 
O=C([N-]c1c[n-]c(=O)[n-]c1=O)c1ccc(N2CCN(Cc3ccccc3)CC2)cc1 (protonated)
O=C([N-]c1c[n-]c(=O)[n-]c1=O)c1ccc(N2CCN(Cc3ccccc3)CC2)cc1 (3D coordinates assigned)
O=C([N-]c1c[n-]c(=O)[n-]c1=O)c1ccc(N2CCN(Cc3ccccc3)CC2)cc1 (nonaromatic ring conformer: 73.54094133304051 kcal/mol)

>  <smiles>  (68) 
O=C(Nc1c[nH]c(=O)[nH]c1=O)c1ccc(N2CCN(Cc3ccccc3)CC2)cc1

>  <score_type>  (68) 
oracle

>  <origin>  (68) 
adg

>  <m_score__min__energy>  (68) 
-15.210000000000001

>  <m_primary>  (68) 
energy

$$$$
68:0
     RDKit          3D

 59 62  0  0  0  0  0  0  0  0999 V2000
   61.2150   30.0880   46.9640 O   0  0  0  0  0  0  0  0  0  0  0  0
   60.5640   29.8310   48.0000 C   0  0  0  0  0  0  0  0  0  0  0  0
   61.1560   30.3440   49.2870 C   0  0  0  0  0  0  0  0  0  0  0  0
   60.3230   29.3720   50.6000 S   0  0  0  0  0  0  0  0  0  0  0  0
   58.8950   30.3470   51.0970 C   0  0  0  0  0  0  0  0  0  0  0  0
   57.6650   29.7930   51.2640 N   0  0  0  0  0  0  0  0  0  0  0  0
   56.8220   30.7600   51.6310 N   0  0  0  0  0  0  0  0  0  0  0  0
   57.5400   31.9140   51.6870 C   0  0  0  0  0  0  0  0  0  0  0  0
   57.1230   33.0660   51.9930 O   0  0  0  0  0  0  0  0  0  0  0  0
   58.8260   31.6600   51.3560 N   0  0  0  0  0  0  0  0  0  0  0  0
   59.9350   32.5620   51.2790 C   0  0  0  0  0  0  0  0  0  0  0  0
   59.5830   33.8300   50.5010 C   0  0  0  0  0  0  0  0  0  0  0  0
   59.5680   33.4850   49.0500 C   0  0  0  0  0  0  0  0  0  0  0  0
   60.6180   33.8860   48.2470 C   0  0  0  0  0  0  0  0  0  0  0  0
   60.6600   33.5960   46.9030 C   0  0  0  0  0  0  0  0  0  0  0  0
   59.5870   32.8750   46.3870 C   0  0  0  0  0  0  0  0  0  0  0  0
   58.5280   32.4660   47.1780 C   0  0  0  0  0  0  0  0  0  0  0  0
   58.5140   32.7750   48.5340 C   0  0  0  0  0  0  0  0  0  0  0  0
   59.3490   29.1090   48.0130 N   0  0  0  0  0  0  0  0  0  0  0  0
   58.6860   28.5750   46.8920 C   0  0  0  0  0  0  0  0  0  0  0  0
   58.8640   29.2140   45.6790 C   0  0  0  0  0  0  0  0  0  0  0  0
   58.2420   28.7400   44.5460 C   0  0  0  0  0  0  0  0  0  0  0  0
   57.4290   27.6410   44.5410 C   0  0  0  0  0  0  0  0  0  0  0  0
   57.2410   26.9900   45.7480 C   0  0  0  0  0  0  0  0  0  0  0  0
   56.2160   25.5730   45.8420 S   0  0  0  0  0  0  0  0  0  0  0  0
   56.3100   24.9220   47.1950 O   0  0  0  0  0  0  0  0  0  0  0  0
   54.7730   25.9650   45.6650 O   0  0  0  0  0  0  0  0  0  0  0  0
   56.5730   24.4130   44.6530 N   0  0  0  0  0  0  0  0  0  0  0  0
   55.5340   24.0720   43.7640 C   0  0  0  0  0  0  0  0  0  0  0  0
   55.9820   22.9250   42.8930 C   0  0  0  0  0  0  0  0  0  0  0  0
   56.2380   21.8590   43.7510 O   0  0  0  0  0  0  0  0  0  0  0  0
   57.3710   22.0710   44.5190 C   0  0  0  0  0  0  0  0  0  0  0  0
   57.5720   23.4750   44.9540 C   0  0  0  0  0  0  0  0  0  0  0  0
   57.8720   27.4720   46.8920 C   0  0  0  0  0  0  0  0  0  0  0  0
   62.2427   30.1749   49.3090 H   0  0  0  0  0  0  0  0  0  0  0  0
   61.0073   31.4267   49.4119 H   0  0  0  0  0  0  0  0  0  0  0  0
   55.7860   30.6640   51.8410 H   0  0  0  0  0  0  0  0  0  0  0  0
   60.2372   32.8424   52.2988 H   0  0  0  0  0  0  0  0  0  0  0  0
   60.7538   32.0526   50.7498 H   0  0  0  0  0  0  0  0  0  0  0  0
   58.5922   34.1952   50.8091 H   0  0  0  0  0  0  0  0  0  0  0  0
   60.3213   34.6207   50.7004 H   0  0  0  0  0  0  0  0  0  0  0  0
   61.4458   34.4545   48.6960 H   0  0  0  0  0  0  0  0  0  0  0  0
   61.4989   33.9175   46.2683 H   0  0  0  0  0  0  0  0  0  0  0  0
   59.5807   32.6224   45.3164 H   0  0  0  0  0  0  0  0  0  0  0  0
   57.6977   31.8968   46.7347 H   0  0  0  0  0  0  0  0  0  0  0  0
   57.6790   32.4581   49.1762 H   0  0  0  0  0  0  0  0  0  0  0  0
   58.9180   28.9740   48.9750 H   0  0  0  0  0  0  0  0  0  0  0  0
   59.5057   30.1054   45.6189 H   0  0  0  0  0  0  0  0  0  0  0  0
   58.4074   29.2720   43.5976 H   0  0  0  0  0  0  0  0  0  0  0  0
   56.9452   27.2893   43.6178 H   0  0  0  0  0  0  0  0  0  0  0  0
   54.6435   23.7731   44.3364 H   0  0  0  0  0  0  0  0  0  0  0  0
   55.2873   24.9395   43.1342 H   0  0  0  0  0  0  0  0  0  0  0  0
   55.1895   22.6571   42.1788 H   0  0  0  0  0  0  0  0  0  0  0  0
   56.8755   23.1917   42.3094 H   0  0  0  0  0  0  0  0  0  0  0  0
   57.2984   21.4410   45.4178 H   0  0  0  0  0  0  0  0  0  0  0  0
   58.2304   21.8177   43.8809 H   0  0  0  0  0  0  0  0  0  0  0  0
   57.6896   23.4637   46.0476 H   0  0  0  0  0  0  0  0  0  0  0  0
   58.4464   23.8151   44.3797 H   0  0  0  0  0  0  0  0  0  0  0  0
   57.7093   26.9418   47.8420 H   0  0  0  0  0  0  0  0  0  0  0  0
  1  2  2  0
  2  3  1  0
  3  4  1  0
  4  5  1  0
  5  6  2  0
  6  7  1  0
  7  8  1  0
  8  9  2  0
  8 10  1  0
 10 11  1  0
 11 12  1  0
 12 13  1  0
 13 14  2  0
 14 15  1  0
 15 16  2  0
 16 17  1  0
 17 18  2  0
  2 19  1  0
 19 20  1  0
 20 21  2  0
 21 22  1  0
 22 23  2  0
 23 24  1  0
 24 25  1  0
 25 26  2  0
 25 27  2  0
 25 28  1  0
 28 29  1  0
 29 30  1  0
 30 31  1  0
 31 32  1  0
 32 33  1  0
 24 34  2  0
 10  5  1  0
 18 13  1  0
 34 20  1  0
 33 28  1  0
  3 35  1  0
  3 36  1  0
  7 37  1  0
 11 38  1  0
 11 39  1  0
 12 40  1  0
 12 41  1  0
 14 42  1  0
 15 43  1  0
 16 44  1  0
 17 45  1  0
 18 46  1  0
 19 47  1  0
 21 48  1  0
 22 49  1  0
 23 50  1  0
 29 51  1  0
 29 52  1  0
 30 53  1  0
 30 54  1  0
 32 55  1  0
 32 56  1  0
 33 57  1  0
 33 58  1  0
 34 59  1  0
M  END
>  <smiles>  (69) 
O=C(CSc1n[nH]c(=O)n1CCc1ccccc1)Nc1cccc(S(=O)(=O)N2CCOCC2)c1

>  <score_type>  (69) 
oracle

>  <origin>  (69) 
adg

>  <m_score__min__energy>  (69) 
-10.76

>  <m_primary>  (69) 
energy

$$$$
69:0
     RDKit          3D

 47 49  0  0  0  0  0  0  0  0999 V2000
   62.6240   34.1910   49.2060 C   0  0  0  0  0  0  0  0  0  0  0  0
   61.8030   33.5820   48.1680 N   0  0  0  0  0  0  0  0  0  0  0  0
   60.4810   34.0540   47.8820 C   0  0  0  0  0  0  0  0  0  0  0  0
   59.9150   34.8540   48.6750 O   0  0  0  0  0  0  0  0  0  0  0  0
   59.7400   33.5820   46.6980 C   0  0  0  0  0  0  0  0  0  0  0  0
   59.7360   34.2550   45.5320 N   0  0  0  0  0  0  0  0  0  0  0  0
   59.0270   33.5650   44.6880 O   0  0  0  0  0  0  0  0  0  0  0  0
   58.5630   32.4650   45.2360 C   0  0  0  0  0  0  0  0  0  0  0  0
   57.7180   31.4970   44.5100 C   0  0  0  0  0  0  0  0  0  0  0  0
   57.5520   31.6270   43.1230 C   0  0  0  0  0  0  0  0  0  0  0  0
   56.7360   30.7330   42.4230 C   0  0  0  0  0  0  0  0  0  0  0  0
   56.0680   29.7120   43.1040 C   0  0  0  0  0  0  0  0  0  0  0  0
   56.2060   29.5910   44.4900 C   0  0  0  0  0  0  0  0  0  0  0  0
   55.5280   28.5870   45.1700 O   0  0  0  0  0  0  0  0  0  0  0  0
   57.0230   30.4830   45.1940 C   0  0  0  0  0  0  0  0  0  0  0  0
   59.0130   32.4030   46.5490 C   0  0  0  0  0  0  0  0  0  0  0  0
   58.9150   31.2330   47.4980 C   0  0  0  0  0  0  0  0  0  0  0  0
   60.2620   30.6460   47.7910 C   0  0  0  0  0  0  0  0  0  0  0  0
   61.2690   31.0280   47.1350 O   0  0  0  0  0  0  0  0  0  0  0  0
   60.3890   29.6340   48.7930 N   0  0  0  0  0  0  0  0  0  0  0  0
   59.6550   28.3720   48.7700 C   0  0  0  0  0  0  0  0  0  0  0  0
   60.3220   27.3590   47.8340 C   0  0  0  0  0  0  0  0  0  0  0  0
   59.6110   27.2820   46.5070 C   0  0  0  0  0  0  0  0  0  0  0  0
   59.9900   28.1260   45.4480 C   0  0  0  0  0  0  0  0  0  0  0  0
   59.3070   28.0750   44.2290 C   0  0  0  0  0  0  0  0  0  0  0  0
   58.2380   27.1900   44.0600 C   0  0  0  0  0  0  0  0  0  0  0  0
   57.8490   26.3550   45.1110 C   0  0  0  0  0  0  0  0  0  0  0  0
   58.5290   26.4030   46.3330 C   0  0  0  0  0  0  0  0  0  0  0  0
   62.2372   33.9040   50.1949 H   0  0  0  0  0  0  0  0  0  0  0  0
   63.6625   33.8430   49.1034 H   0  0  0  0  0  0  0  0  0  0  0  0
   62.5923   35.2857   49.1034 H   0  0  0  0  0  0  0  0  0  0  0  0
   62.1850   32.7600   47.6510 H   0  0  0  0  0  0  0  0  0  0  0  0
   58.0662   32.4361   42.5836 H   0  0  0  0  0  0  0  0  0  0  0  0
   56.6197   30.8337   41.3338 H   0  0  0  0  0  0  0  0  0  0  0  0
   55.4341   29.0040   42.5501 H   0  0  0  0  0  0  0  0  0  0  0  0
   57.1220   30.3909   46.2857 H   0  0  0  0  0  0  0  0  0  0  0  0
   58.4619   31.5747   48.4403 H   0  0  0  0  0  0  0  0  0  0  0  0
   58.2970   30.4563   47.0238 H   0  0  0  0  0  0  0  0  0  0  0  0
   59.6263   27.9552   49.7876 H   0  0  0  0  0  0  0  0  0  0  0  0
   58.6372   28.5682   48.4018 H   0  0  0  0  0  0  0  0  0  0  0  0
   61.3653   27.6629   47.6635 H   0  0  0  0  0  0  0  0  0  0  0  0
   60.2756   26.3677   48.3086 H   0  0  0  0  0  0  0  0  0  0  0  0
   60.8263   28.8284   45.5790 H   0  0  0  0  0  0  0  0  0  0  0  0
   59.6114   28.7325   43.4013 H   0  0  0  0  0  0  0  0  0  0  0  0
   57.7030   27.1509   43.0997 H   0  0  0  0  0  0  0  0  0  0  0  0
   57.0074   25.6594   44.9775 H   0  0  0  0  0  0  0  0  0  0  0  0
   58.2151   25.7499   47.1606 H   0  0  0  0  0  0  0  0  0  0  0  0
  1  2  1  0
  2  3  1  0
  3  4  2  0
  3  5  1  0
  5  6  2  0
  6  7  1  0
  7  8  1  0
  8  9  1  0
  9 10  2  0
 10 11  1  0
 11 12  2  0
 12 13  1  0
 13 14  1  0
 13 15  2  0
  8 16  2  0
 16 17  1  0
 17 18  1  0
 18 19  2  0
 18 20  1  0
 20 21  1  0
 21 22  1  0
 22 23  1  0
 23 24  2  0
 24 25  1  0
 25 26  2  0
 26 27  1  0
 27 28  2  0
 16  5  1  0
 28 23  1  0
 15  9  1  0
  1 29  1  0
  1 30  1  0
  1 31  1  0
  2 32  1  0
 10 33  1  0
 11 34  1  0
 12 35  1  0
 15 36  1  0
 17 37  1  0
 17 38  1  0
 21 39  1  0
 21 40  1  0
 22 41  1  0
 22 42  1  0
 24 43  1  0
 25 44  1  0
 26 45  1  0
 27 46  1  0
 28 47  1  0
M  CHG  2  14  -1  20  -1
M  END
>  <UniqueID>  (70) 
62

>  <SMILES>  (70) 
CNC(=O)c1noc(-c2cccc([O-])c2)c1CC(=O)[N-]CCc1ccccc1

>  <Energy>  (70) 
77.72428894985575

>  <Genealogy>  (70) 
CNC(=O)c1noc(-c2cccc([O-])c2)c1CC(=O)[N-]CCc1ccccc1 (protonated)
CNC(=O)c1noc(-c2cccc([O-])c2)c1CC(=O)[N-]CCc1ccccc1 (3D coordinates assigned)
CNC(=O)c1noc(-c2cccc([O-])c2)c1CC(=O)[N-]CCc1ccccc1 (optimized conformer: 77.72428894985575 kcal/mol)

>  <smiles>  (70) 
CNC(=O)c1noc(-c2cccc(O)c2)c1CC(=O)NCCc1ccccc1

>  <score_type>  (70) 
oracle

>  <origin>  (70) 
adg

>  <m_score__min__energy>  (70) 
-13.02

>  <m_primary>  (70) 
energy

$$$$
70:0
     RDKit          3D

 48 50  0  0  0  0  0  0  0  0999 V2000
   58.6280   34.3340   46.7180 C   0  0  0  0  0  0  0  0  0  0  0  0
   58.7010   34.0980   45.2380 C   0  0  0  0  0  0  0  0  0  0  0  0
   59.2310   34.9850   44.5150 O   0  0  0  0  0  0  0  0  0  0  0  0
   58.1760   32.8550   44.6150 C   0  0  0  0  0  0  0  0  0  0  0  0
   58.0990   32.7500   43.2130 C   0  0  0  0  0  0  0  0  0  0  0  0
   57.5770   31.5990   42.6150 C   0  0  0  0  0  0  0  0  0  0  0  0
   57.1420   30.5340   43.4040 C   0  0  0  0  0  0  0  0  0  0  0  0
   57.2720   30.5930   44.7960 C   0  0  0  0  0  0  0  0  0  0  0  0
   56.7460   29.5400   45.6090 N   0  0  0  0  0  0  0  0  0  0  0  0
   57.1100   28.2890   45.7440 C   0  0  0  0  0  0  0  0  0  0  0  0
   56.1230   27.3590   45.6610 N   0  0  0  0  0  0  0  0  0  0  0  0
   56.3560   26.0540   45.9240 C   0  0  0  0  0  0  0  0  0  0  0  0
   55.3940   25.2380   45.8840 O   0  0  0  0  0  0  0  0  0  0  0  0
   57.6120   25.6340   46.2480 N   0  0  0  0  0  0  0  0  0  0  0  0
   57.8590   24.2210   46.5990 C   0  0  0  0  0  0  0  0  0  0  0  0
   58.5090   23.4880   45.4270 C   0  0  0  0  0  0  0  0  0  0  0  0
   59.8940   23.4320   45.6200 O   0  0  0  0  0  0  0  0  0  0  0  0
   58.6340   26.5470   46.2770 C   0  0  0  0  0  0  0  0  0  0  0  0
   59.8000   26.1590   46.5780 O   0  0  0  0  0  0  0  0  0  0  0  0
   58.4110   27.8730   45.9780 N   0  0  0  0  0  0  0  0  0  0  0  0
   59.5970   28.7300   45.7460 C   0  0  0  0  0  0  0  0  0  0  0  0
   59.7950   29.7960   46.8010 C   0  0  0  0  0  0  0  0  0  0  0  0
   58.9410   29.8060   47.9170 C   0  0  0  0  0  0  0  0  0  0  0  0
   59.0730   30.7850   48.9050 C   0  0  0  0  0  0  0  0  0  0  0  0
   60.0470   31.7780   48.7820 C   0  0  0  0  0  0  0  0  0  0  0  0
   60.2270   32.9930   50.0330 Cl  0  0  0  0  0  0  0  0  0  0  0  0
   60.8840   31.7980   47.6620 C   0  0  0  0  0  0  0  0  0  0  0  0
   60.7600   30.8160   46.6750 C   0  0  0  0  0  0  0  0  0  0  0  0
   57.7470   31.7660   45.4000 C   0  0  0  0  0  0  0  0  0  0  0  0
   58.9125   33.4144   47.2504 H   0  0  0  0  0  0  0  0  0  0  0  0
   59.3170   35.1457   46.9943 H   0  0  0  0  0  0  0  0  0  0  0  0
   57.6010   34.6149   46.9943 H   0  0  0  0  0  0  0  0  0  0  0  0
   58.4522   33.5799   42.5833 H   0  0  0  0  0  0  0  0  0  0  0  0
   57.5091   31.5331   41.5191 H   0  0  0  0  0  0  0  0  0  0  0  0
   56.6961   29.6465   42.9312 H   0  0  0  0  0  0  0  0  0  0  0  0
   55.1440   27.6630   45.4450 H   0  0  0  0  0  0  0  0  0  0  0  0
   58.5279   24.1756   47.4710 H   0  0  0  0  0  0  0  0  0  0  0  0
   56.8990   23.7382   46.8341 H   0  0  0  0  0  0  0  0  0  0  0  0
   58.1061   22.4663   45.3651 H   0  0  0  0  0  0  0  0  0  0  0  0
   58.2912   24.0262   44.4927 H   0  0  0  0  0  0  0  0  0  0  0  0
   60.2010   24.3740   45.6890 H   0  0  0  0  0  0  0  0  0  0  0  0
   60.4905   28.0886   45.7289 H   0  0  0  0  0  0  0  0  0  0  0  0
   59.4345   29.2506   44.7907 H   0  0  0  0  0  0  0  0  0  0  0  0
   58.1614   29.0360   48.0136 H   0  0  0  0  0  0  0  0  0  0  0  0
   58.4084   30.7735   49.7814 H   0  0  0  0  0  0  0  0  0  0  0  0
   61.6418   32.5884   47.5574 H   0  0  0  0  0  0  0  0  0  0  0  0
   61.4193   30.8392   45.7948 H   0  0  0  0  0  0  0  0  0  0  0  0
   57.7851   31.8368   46.4971 H   0  0  0  0  0  0  0  0  0  0  0  0
  1  2  1  0
  2  3  2  0
  2  4  1  0
  4  5  2  0
  5  6  1  0
  6  7  2  0
  7  8  1  0
  8  9  1  0
  9 10  2  3
 10 11  1  0
 11 12  1  0
 12 13  2  0
 12 14  1  0
 14 15  1  0
 15 16  1  0
 16 17  1  0
 14 18  1  0
 18 19  2  0
 18 20  1  0
 20 21  1  0
 21 22  1  0
 22 23  2  0
 23 24  1  0
 24 25  2  0
 25 26  1  0
 25 27  1  0
 27 28  2  0
  8 29  2  0
 29  4  1  0
 20 10  1  0
 28 22  1  0
  1 30  1  0
  1 31  1  0
  1 32  1  0
  5 33  1  0
  6 34  1  0
  7 35  1  0
 11 36  1  0
 15 37  1  0
 15 38  1  0
 16 39  1  0
 16 40  1  0
 17 41  1  0
 21 42  1  0
 21 43  1  0
 23 44  1  0
 24 45  1  0
 27 46  1  0
 28 47  1  0
 29 48  1  0
M  END
>  <UniqueID>  (71) 
63

>  <SMILES>  (71) 
CC(=O)c1cccc(N=c2[nH]c(=O)n(CCO)c(=O)n2Cc2ccc(Cl)cc2)c1

>  <Energy>  (71) 
73.52739974073681

>  <Genealogy>  (71) 
CC(=O)c1cccc(N=c2[nH]c(=O)n(CCO)c(=O)n2Cc2ccc(Cl)cc2)c1 (3D coordinates assigned)
CC(=O)c1cccc(N=c2[nH]c(=O)n(CCO)c(=O)n2Cc2ccc(Cl)cc2)c1 (optimized conformer: 73.52739974073681 kcal/mol)

>  <smiles>  (71) 
CC(=O)c1cccc(N=c2[nH]c(=O)n(CCO)c(=O)n2Cc2ccc(Cl)cc2)c1

>  <score_type>  (71) 
oracle

>  <origin>  (71) 
adg

>  <m_score__min__energy>  (71) 
-8.4900000000000002

>  <m_primary>  (71) 
energy

$$$$
71:0
     RDKit          3D

 49 51  0  0  0  0  0  0  0  0999 V2000
   62.9720   31.7140   47.3790 C   0  0  0  0  0  0  0  0  0  0  0  0
   62.9680   33.4930   47.3380 S   0  0  0  0  0  0  0  0  0  0  0  0
   63.8680   34.0460   48.4100 O   0  0  0  0  0  0  0  0  0  0  0  0
   63.4770   33.9450   45.9980 O   0  0  0  0  0  0  0  0  0  0  0  0
   61.3530   34.0890   47.5500 N   0  0  0  0  0  0  0  0  0  0  0  0
   60.1880   33.6230   46.8540 C   0  0  0  0  0  0  0  0  0  0  0  0
   59.5290   34.4020   45.8840 C   0  0  0  0  0  0  0  0  0  0  0  0
   58.3970   33.9040   45.2330 C   0  0  0  0  0  0  0  0  0  0  0  0
   57.9010   32.6280   45.5440 C   0  0  0  0  0  0  0  0  0  0  0  0
   56.6550   32.1200   44.8710 C   0  0  0  0  0  0  0  0  0  0  0  0
   56.9130   30.8270   44.2480 N   0  0  0  0  0  0  0  0  0  0  0  0
   55.9350   29.7880   44.1520 C   0  0  0  0  0  0  0  0  0  0  0  0
   55.1390   29.7560   43.1760 O   0  0  0  0  0  0  0  0  0  0  0  0
   55.8610   28.8170   45.2020 N   0  0  0  0  0  0  0  0  0  0  0  0
   56.8760   27.9260   45.6930 C   0  0  0  0  0  0  0  0  0  0  0  0
   58.2170   28.3360   45.8520 C   0  0  0  0  0  0  0  0  0  0  0  0
   59.1930   27.4210   46.2550 C   0  0  0  0  0  0  0  0  0  0  0  0
   58.8460   26.0960   46.5130 C   0  0  0  0  0  0  0  0  0  0  0  0
   57.5160   25.6870   46.4030 C   0  0  0  0  0  0  0  0  0  0  0  0
   56.5180   26.6000   46.0390 C   0  0  0  0  0  0  0  0  0  0  0  0
   55.1580   26.1370   46.0010 N   0  0  0  0  0  0  0  0  0  0  0  0
   54.7040   24.8140   45.6700 C   0  0  0  0  0  0  0  0  0  0  0  0
   53.5130   24.5020   45.9380 O   0  0  0  0  0  0  0  0  0  0  0  0
   55.5790   23.8190   45.0030 C   0  0  0  0  0  0  0  0  0  0  0  0
   56.2930   22.8840   45.7760 C   0  0  0  0  0  0  0  0  0  0  0  0
   57.1680   21.9810   45.1630 C   0  0  0  0  0  0  0  0  0  0  0  0
   57.3260   21.9920   43.7740 C   0  0  0  0  0  0  0  0  0  0  0  0
   56.6040   22.9010   42.9960 C   0  0  0  0  0  0  0  0  0  0  0  0
   55.7300   23.8080   43.6040 C   0  0  0  0  0  0  0  0  0  0  0  0
   58.5560   31.8550   46.5140 C   0  0  0  0  0  0  0  0  0  0  0  0
   59.6940   32.3480   47.1590 C   0  0  0  0  0  0  0  0  0  0  0  0
   62.9728   31.3713   48.4243 H   0  0  0  0  0  0  0  0  0  0  0  0
   62.0747   31.3335   46.8690 H   0  0  0  0  0  0  0  0  0  0  0  0
   63.8710   31.3375   46.8690 H   0  0  0  0  0  0  0  0  0  0  0  0
   59.9062   35.4056   45.6378 H   0  0  0  0  0  0  0  0  0  0  0  0
   57.8912   34.5160   44.4717 H   0  0  0  0  0  0  0  0  0  0  0  0
   55.8563   32.0103   45.6194 H   0  0  0  0  0  0  0  0  0  0  0  0
   56.3464   32.8375   44.0964 H   0  0  0  0  0  0  0  0  0  0  0  0
   58.4955   29.3822   45.6575 H   0  0  0  0  0  0  0  0  0  0  0  0
   60.2374   27.7470   46.3689 H   0  0  0  0  0  0  0  0  0  0  0  0
   59.6212   25.3717   46.8037 H   0  0  0  0  0  0  0  0  0  0  0  0
   57.2493   24.6389   46.6038 H   0  0  0  0  0  0  0  0  0  0  0  0
   56.1622   22.8633   46.8680 H   0  0  0  0  0  0  0  0  0  0  0  0
   57.7323   21.2615   45.7745 H   0  0  0  0  0  0  0  0  0  0  0  0
   58.0186   21.2852   43.2935 H   0  0  0  0  0  0  0  0  0  0  0  0
   56.7234   22.9032   41.9025 H   0  0  0  0  0  0  0  0  0  0  0  0
   55.1582   24.5158   42.9859 H   0  0  0  0  0  0  0  0  0  0  0  0
   58.1723   30.8560   46.7684 H   0  0  0  0  0  0  0  0  0  0  0  0
   60.2055   31.7301   47.9117 H   0  0  0  0  0  0  0  0  0  0  0  0
  1  2  1  0
  2  3  2  0
  2  4  2  0
  2  5  1  0
  5  6  1  0
  6  7  2  0
  7  8  1  0
  8  9  2  0
  9 10  1  0
 10 11  1  0
 11 12  1  0
 12 13  2  0
 12 14  1  0
 14 15  1  0
 15 16  2  0
 16 17  1  0
 17 18  2  0
 18 19  1  0
 19 20  2  0
 20 21  1  0
 21 22  1  0
 22 23  2  0
 22 24  1  0
 24 25  2  0
 25 26  1  0
 26 27  2  0
 27 28  1  0
 28 29  2  0
  9 30  1  0
 30 31  2  0
 31  6  1  0
 20 15  1  0
 29 24  1  0
  1 32  1  0
  1 33  1  0
  1 34  1  0
  7 35  1  0
  8 36  1  0
 10 37  1  0
 10 38  1  0
 16 39  1  0
 17 40  1  0
 18 41  1  0
 19 42  1  0
 25 43  1  0
 26 44  1  0
 27 45  1  0
 28 46  1  0
 29 47  1  0
 30 48  1  0
 31 49  1  0
M  CHG  4   5  -1  11  -1  14  -1  21  -1
M  END
>  <UniqueID>  (72) 
64

>  <SMILES>  (72) 
CS(=O)(=O)[N-]c1ccc(C[N-]C(=O)[N-]c2ccccc2[N-]C(=O)c2ccccc2)cc1

>  <Energy>  (72) 
58.82329947139518

>  <Genealogy>  (72) 
CS(=O)(=O)[N-]c1ccc(C[N-]C(=O)[N-]c2ccccc2[N-]C(=O)c2ccccc2)cc1 (protonated)
CS(=O)(=O)[N-]c1ccc(C[N-]C(=O)[N-]c2ccccc2[N-]C(=O)c2ccccc2)cc1 (3D coordinates assigned)
CS(=O)(=O)[N-]c1ccc(C[N-]C(=O)[N-]c2ccccc2[N-]C(=O)c2ccccc2)cc1 (optimized conformer: 58.82329947139518 kcal/mol)

>  <smiles>  (72) 
CS(=O)(=O)Nc1ccc(CNC(=O)Nc2ccccc2NC(=O)c2ccccc2)cc1

>  <score_type>  (72) 
oracle

>  <origin>  (72) 
adg

>  <m_score__min__energy>  (72) 
-16.399999999999999

>  <m_primary>  (72) 
energy

$$$$
72:0
     RDKit          3D

 42 43  0  0  0  0  0  0  0  0999 V2000
   60.9950   31.1480   49.3740 C   0  0  0  0  0  0  0  0  0  0  0  0
   59.6010   31.4500   49.9240 C   0  0  0  0  0  0  0  0  0  0  0  0
   58.7530   30.1850   50.0530 C   0  0  0  0  0  0  0  0  0  0  0  0
   58.5040   29.6310   48.7630 O   0  0  0  0  0  0  0  0  0  0  0  0
   59.2160   28.5580   48.2040 C   0  0  0  0  0  0  0  0  0  0  0  0
   60.0820   27.7550   48.9720 C   0  0  0  0  0  0  0  0  0  0  0  0
   60.7680   26.6910   48.3800 C   0  0  0  0  0  0  0  0  0  0  0  0
   60.5970   26.4140   47.0210 C   0  0  0  0  0  0  0  0  0  0  0  0
   59.7440   27.2040   46.2490 C   0  0  0  0  0  0  0  0  0  0  0  0
   59.0540   28.2790   46.8310 C   0  0  0  0  0  0  0  0  0  0  0  0
   58.1600   29.1190   45.9940 C   0  0  0  0  0  0  0  0  0  0  0  0
   56.8990   28.6190   45.6030 C   0  0  0  0  0  0  0  0  0  0  0  0
   56.4700   27.2870   45.9740 C   0  0  0  0  0  0  0  0  0  0  0  0
   56.1280   26.2230   46.2730 N   0  0  0  0  0  0  0  0  0  0  0  0
   56.0290   29.4390   44.8750 C   0  0  0  0  0  0  0  0  0  0  0  0
   54.7800   28.9660   44.4830 O   0  0  0  0  0  0  0  0  0  0  0  0
   56.3940   30.7050   44.5500 N   0  0  0  0  0  0  0  0  0  0  0  0
   57.6020   31.2210   44.9030 C   0  0  0  0  0  0  0  0  0  0  0  0
   57.8910   32.3990   44.5560 O   0  0  0  0  0  0  0  0  0  0  0  0
   58.5270   30.4420   45.6330 C   0  0  0  0  0  0  0  0  0  0  0  0
   59.8490   31.0160   45.9990 C   0  0  0  0  0  0  0  0  0  0  0  0
   60.8610   30.2700   46.1000 O   0  0  0  0  0  0  0  0  0  0  0  0
   59.9660   32.3920   46.2370 O   0  0  0  0  0  0  0  0  0  0  0  0
   59.1200   33.1100   47.1320 C   0  0  0  0  0  0  0  0  0  0  0  0
   58.9890   34.5660   46.6960 C   0  0  0  0  0  0  0  0  0  0  0  0
   61.6940   30.9966   50.2097 H   0  0  0  0  0  0  0  0  0  0  0  0
   60.9569   30.2373   48.7583 H   0  0  0  0  0  0  0  0  0  0  0  0
   61.3372   31.9928   48.7583 H   0  0  0  0  0  0  0  0  0  0  0  0
   59.7029   31.9126   50.9168 H   0  0  0  0  0  0  0  0  0  0  0  0
   59.0964   32.1284   49.2203 H   0  0  0  0  0  0  0  0  0  0  0  0
   59.2896   29.4480   50.6685 H   0  0  0  0  0  0  0  0  0  0  0  0
   57.7940   30.4401   50.5276 H   0  0  0  0  0  0  0  0  0  0  0  0
   60.2189   27.9665   50.0428 H   0  0  0  0  0  0  0  0  0  0  0  0
   61.4444   26.0698   48.9855 H   0  0  0  0  0  0  0  0  0  0  0  0
   61.1350   25.5728   46.5595 H   0  0  0  0  0  0  0  0  0  0  0  0
   59.6118   26.9833   45.1795 H   0  0  0  0  0  0  0  0  0  0  0  0
   55.7260   31.2970   44.0050 H   0  0  0  0  0  0  0  0  0  0  0  0
   58.1236   32.6440   47.1397 H   0  0  0  0  0  0  0  0  0  0  0  0
   59.5622   33.0799   48.1387 H   0  0  0  0  0  0  0  0  0  0  0  0
   58.9310   35.2112   47.5850 H   0  0  0  0  0  0  0  0  0  0  0  0
   59.8653   34.8488   46.0943 H   0  0  0  0  0  0  0  0  0  0  0  0
   58.0763   34.6879   46.0943 H   0  0  0  0  0  0  0  0  0  0  0  0
  1  2  1  0
  2  3  1  0
  3  4  1  0
  4  5  1  0
  5  6  2  0
  6  7  1  0
  7  8  2  0
  8  9  1  0
  9 10  2  0
 10 11  1  0
 11 12  1  0
 12 13  1  0
 13 14  3  0
 12 15  2  0
 15 16  1  0
 15 17  1  0
 17 18  1  0
 18 19  2  0
 18 20  1  0
 20 21  1  0
 21 22  2  0
 21 23  1  0
 23 24  1  0
 24 25  1  0
 10  5  1  0
 20 11  2  0
  1 26  1  0
  1 27  1  0
  1 28  1  0
  2 29  1  0
  2 30  1  0
  3 31  1  0
  3 32  1  0
  6 33  1  0
  7 34  1  0
  8 35  1  0
  9 36  1  0
 17 37  1  0
 24 38  1  0
 24 39  1  0
 25 40  1  0
 25 41  1  0
 25 42  1  0
M  CHG  1  16  -1
M  END
>  <UniqueID>  (73) 
65

>  <SMILES>  (73) 
CCCOc1ccccc1-c1c(C#N)c([O-])[nH]c(=O)c1C(=O)OCC

>  <Energy>  (73) 
45.47448853907257

>  <Genealogy>  (73) 
CCCOc1ccccc1-c1c(C#N)c([O-])[nH]c(=O)c1C(=O)OCC (protonated)
CCCOc1ccccc1-c1c(C#N)c([O-])[nH]c(=O)c1C(=O)OCC (3D coordinates assigned)
CCCOc1ccccc1-c1c(C#N)c([O-])[nH]c(=O)c1C(=O)OCC (optimized conformer: 45.47448853907257 kcal/mol)

>  <smiles>  (73) 
CCCOc1ccccc1-c1c(C#N)c(O)[nH]c(=O)c1C(=O)OCC

>  <score_type>  (73) 
oracle

>  <origin>  (73) 
adg

>  <m_score__min__energy>  (73) 
-8.4399999999999995

>  <m_primary>  (73) 
energy

$$$$
73:0
     RDKit          3D

 24 25  0  0  0  0  0  0  0  0999 V2000
   58.0793   32.9656   47.2587 H   0  0  0  0  0  0  0  0  0  0  0  0
   58.0000   32.7880   46.1760 C   0  0  0  0  0  0  0  0  0  0  0  0
   57.3960   31.6830   45.6610 N   0  0  0  0  0  0  0  0  0  0  0  0
   57.4210   31.6780   44.3120 C   0  0  0  0  0  0  0  0  0  0  0  0
   56.8910   30.7110   43.6210 N   0  0  0  0  0  0  0  0  0  0  0  0
   55.8400   29.8130   44.0090 C   0  0  0  0  0  0  0  0  0  0  0  0
   54.8280   29.7170   43.2660 O   0  0  0  0  0  0  0  0  0  0  0  0
   55.8970   29.0880   45.2450 N   0  0  0  0  0  0  0  0  0  0  0  0
   56.7570   27.9800   45.5550 C   0  0  0  0  0  0  0  0  0  0  0  0
   58.1560   28.0960   45.5000 C   0  0  0  0  0  0  0  0  0  0  0  0
   58.6154   29.0474   45.1938 H   0  0  0  0  0  0  0  0  0  0  0  0
   58.9640   27.0100   45.8320 C   0  0  0  0  0  0  0  0  0  0  0  0
   60.0585   27.1041   45.7761 H   0  0  0  0  0  0  0  0  0  0  0  0
   58.3900   25.8040   46.2350 C   0  0  0  0  0  0  0  0  0  0  0  0
   59.0370   24.9510   46.4875 H   0  0  0  0  0  0  0  0  0  0  0  0
   56.9920   25.6670   46.3220 C   0  0  0  0  0  0  0  0  0  0  0  0
   56.4200   24.4120   46.7500 N   0  0  0  0  0  0  0  0  0  0  0  0
   55.1890   24.2180   46.6650 O   0  0  0  0  0  0  0  0  0  0  0  0
   57.2040   23.4120   47.2800 O   0  0  0  0  0  0  0  0  0  0  0  0
   56.1780   26.7750   45.9860 C   0  0  0  0  0  0  0  0  0  0  0  0
   54.7920   26.6930   46.0740 O   0  0  0  0  0  0  0  0  0  0  0  0
   58.1920   33.0530   43.7070 S   0  0  0  0  0  0  0  0  0  0  0  0
   58.5100   33.6770   45.2360 C   0  0  0  0  0  0  0  0  0  0  0  0
   59.0297   34.6216   45.4541 H   0  0  0  0  0  0  0  0  0  0  0  0
  1  2  1  0
  2  3  1  0
  3  4  1  0
  4  5  2  0
  5  6  1  0
  6  7  2  0
  6  8  1  0
  8  9  1  0
  9 10  2  0
 10 11  1  0
 10 12  1  0
 12 13  1  0
 12 14  2  0
 14 15  1  0
 14 16  1  0
 16 17  1  0
 17 18  2  0
 17 19  1  0
 16 20  2  0
 20 21  1  0
  4 22  1  0
 22 23  1  0
 23 24  1  0
 23  2  2  0
 20  9  1  0
M  CHG  5   3  -1   8  -1  17   1  19  -1  21  -1
M  END
>  <UniqueID>  (74) 
66

>  <SMILES>  (74) 
O=C(/N=c1/[n-]ccs1)[N-]c1cccc([N+](=O)[O-])c1[O-]

>  <Energy>  (74) 
65.33988040619559

>  <Genealogy>  (74) 
O=C(N=c1[n-]ccs1)[N-]c1cccc([N+](=O)[O-])c1[O-] (protonated)
O=C(/N=c1/[n-]ccs1)[N-]c1cccc([N+](=O)[O-])c1[O-] (cis-trans isomerization)
O=C(/N=c1/[n-]ccs1)[N-]c1cccc([N+](=O)[O-])c1[O-] (3D coordinates assigned)
O=C(/N=c1/[n-]ccs1)[N-]c1cccc([N+](=O)[O-])c1[O-] (optimized conformer: 65.33988040619559 kcal/mol)

>  <smiles>  (74) 
O=C(N=c1[nH]ccs1)Nc1cccc([N+](=O)[O-])c1O

>  <score_type>  (74) 
oracle

>  <origin>  (74) 
adg

>  <m_score__min__energy>  (74) 
-13.27

>  <m_primary>  (74) 
energy

$$$$
74:0
     RDKit          3D

 43 45  0  0  0  0  0  0  0  0999 V2000
   57.6620   31.4560   43.3300 N   0  0  0  0  0  0  0  0  0  0  0  0
   56.7120   30.0600   43.6990 S   0  0  0  0  0  0  0  0  0  0  0  0
   55.4950   30.4710   44.4790 O   0  0  0  0  0  0  0  0  0  0  0  0
   56.2690   29.4080   42.4200 O   0  0  0  0  0  0  0  0  0  0  0  0
   57.6690   28.9330   44.6550 C   0  0  0  0  0  0  0  0  0  0  0  0
   58.1300   27.7340   44.0940 C   0  0  0  0  0  0  0  0  0  0  0  0
   58.9310   26.8710   44.8460 C   0  0  0  0  0  0  0  0  0  0  0  0
   59.2760   27.2010   46.1590 C   0  0  0  0  0  0  0  0  0  0  0  0
   58.8070   28.3860   46.7380 C   0  0  0  0  0  0  0  0  0  0  0  0
   59.2350   28.7240   48.0630 N   0  0  0  0  0  0  0  0  0  0  0  0
   60.1470   29.7730   48.4060 C   0  0  0  0  0  0  0  0  0  0  0  0
   61.0100   29.5980   49.3080 O   0  0  0  0  0  0  0  0  0  0  0  0
   60.0520   31.0980   47.7220 C   0  0  0  0  0  0  0  0  0  0  0  0
   58.5320   31.9780   48.2210 S   0  0  0  0  0  0  0  0  0  0  0  0
   58.4840   32.9790   46.7340 C   0  0  0  0  0  0  0  0  0  0  0  0
   57.7870   32.6400   45.6310 N   0  0  0  0  0  0  0  0  0  0  0  0
   57.9920   33.5940   44.7330 N   0  0  0  0  0  0  0  0  0  0  0  0
   58.8090   34.4920   45.3110 C   0  0  0  0  0  0  0  0  0  0  0  0
   59.2130   35.5370   44.7350 O   0  0  0  0  0  0  0  0  0  0  0  0
   59.1390   34.1460   46.5680 N   0  0  0  0  0  0  0  0  0  0  0  0
   59.9860   34.8700   47.5200 C   0  0  0  0  0  0  0  0  0  0  0  0
   61.3110   34.1760   47.6980 C   0  0  0  0  0  0  0  0  0  0  0  0
   62.0870   33.8250   46.5810 C   0  0  0  0  0  0  0  0  0  0  0  0
   63.3150   33.1750   46.7520 C   0  0  0  0  0  0  0  0  0  0  0  0
   63.7780   32.8770   48.0350 C   0  0  0  0  0  0  0  0  0  0  0  0
   63.0060   33.2120   49.1500 C   0  0  0  0  0  0  0  0  0  0  0  0
   61.7730   33.8520   48.9850 C   0  0  0  0  0  0  0  0  0  0  0  0
   58.0140   29.2590   45.9730 C   0  0  0  0  0  0  0  0  0  0  0  0
   57.0740   32.2930   43.5460 H   0  0  0  0  0  0  0  0  0  0  0  0
   58.4600   31.4690   44.0050 H   0  0  0  0  0  0  0  0  0  0  0  0
   57.8607   27.4722   43.0601 H   0  0  0  0  0  0  0  0  0  0  0  0
   59.2906   25.9303   44.4036 H   0  0  0  0  0  0  0  0  0  0  0  0
   59.9200   26.5256   46.7413 H   0  0  0  0  0  0  0  0  0  0  0  0
   60.9269   31.7073   47.9930 H   0  0  0  0  0  0  0  0  0  0  0  0
   60.0226   30.9322   46.6350 H   0  0  0  0  0  0  0  0  0  0  0  0
   60.1609   35.8887   47.1437 H   0  0  0  0  0  0  0  0  0  0  0  0
   59.4730   34.9019   48.4925 H   0  0  0  0  0  0  0  0  0  0  0  0
   61.7285   34.0617   45.5684 H   0  0  0  0  0  0  0  0  0  0  0  0
   63.9165   32.8984   45.8735 H   0  0  0  0  0  0  0  0  0  0  0  0
   64.7497   32.3789   48.1677 H   0  0  0  0  0  0  0  0  0  0  0  0
   63.3686   32.9719   50.1604 H   0  0  0  0  0  0  0  0  0  0  0  0
   61.1631   34.1024   49.8656 H   0  0  0  0  0  0  0  0  0  0  0  0
   57.6621   30.2042   46.4121 H   0  0  0  0  0  0  0  0  0  0  0  0
  1  2  1  0
  2  3  2  0
  2  4  2  0
  2  5  1  0
  5  6  2  0
  6  7  1  0
  7  8  2  0
  8  9  1  0
  9 10  1  0
 10 11  1  0
 11 12  2  0
 11 13  1  0
 13 14  1  0
 14 15  1  0
 15 16  2  0
 16 17  1  0
 17 18  1  0
 18 19  2  0
 18 20  1  0
 20 21  1  0
 21 22  1  0
 22 23  2  0
 23 24  1  0
 24 25  2  0
 25 26  1  0
 26 27  2  0
  9 28  2  0
 28  5  1  0
 20 15  1  0
 27 22  1  0
  1 29  1  0
  1 30  1  0
  6 31  1  0
  7 32  1  0
  8 33  1  0
 13 34  1  0
 13 35  1  0
 21 36  1  0
 21 37  1  0
 23 38  1  0
 24 39  1  0
 25 40  1  0
 26 41  1  0
 27 42  1  0
 28 43  1  0
M  CHG  2  10  -1  17  -1
M  END
>  <UniqueID>  (75) 
67

>  <SMILES>  (75) 
NS(=O)(=O)c1cccc([N-]C(=O)CSc2n[n-]c(=O)n2Cc2ccccc2)c1

>  <Energy>  (75) 
74.6242858130225

>  <Genealogy>  (75) 
NS(=O)(=O)c1cccc([N-]C(=O)CSc2n[n-]c(=O)n2Cc2ccccc2)c1 (protonated)
NS(=O)(=O)c1cccc([N-]C(=O)CSc2n[n-]c(=O)n2Cc2ccccc2)c1 (3D coordinates assigned)
NS(=O)(=O)c1cccc([N-]C(=O)CSc2n[n-]c(=O)n2Cc2ccccc2)c1 (optimized conformer: 74.6242858130225 kcal/mol)

>  <smiles>  (75) 
NS(=O)(=O)c1cccc(NC(=O)CSc2n[nH]c(=O)n2Cc2ccccc2)c1

>  <score_type>  (75) 
oracle

>  <origin>  (75) 
adg

>  <m_score__min__energy>  (75) 
-12.300000000000001

>  <m_primary>  (75) 
energy

$$$$
75:0
     RDKit          3D

 60 63  0  0  0  0  0  0  0  0999 V2000
   55.1480   29.3490   44.8630 N   0  0  0  0  0  0  0  0  0  0  0  0
   56.4990   30.2660   44.2900 S   0  0  0  0  0  0  0  0  0  0  0  0
   56.4460   30.3100   42.7890 O   0  0  0  0  0  0  0  0  0  0  0  0
   56.4140   31.6640   44.8360 O   0  0  0  0  0  0  0  0  0  0  0  0
   58.0140   29.5270   44.8170 C   0  0  0  0  0  0  0  0  0  0  0  0
   58.5220   28.4220   44.1160 C   0  0  0  0  0  0  0  0  0  0  0  0
   59.7090   27.8120   44.5200 C   0  0  0  0  0  0  0  0  0  0  0  0
   60.4010   28.2990   45.6290 C   0  0  0  0  0  0  0  0  0  0  0  0
   59.8980   29.3850   46.3470 C   0  0  0  0  0  0  0  0  0  0  0  0
   58.6940   30.0030   45.9580 C   0  0  0  0  0  0  0  0  0  0  0  0
   58.1490   31.1100   46.6920 N   0  0  0  0  0  0  0  0  0  0  0  0
   58.6410   32.7650   46.5290 S   0  0  0  0  0  0  0  0  0  0  0  0
   58.6060   33.1330   45.0730 O   0  0  0  0  0  0  0  0  0  0  0  0
   57.6610   33.6290   47.2740 O   0  0  0  0  0  0  0  0  0  0  0  0
   60.2850   33.0080   47.1470 C   0  0  0  0  0  0  0  0  0  0  0  0
   61.2150   33.7160   46.3660 C   0  0  0  0  0  0  0  0  0  0  0  0
   62.5170   33.9230   46.8290 C   0  0  0  0  0  0  0  0  0  0  0  0
   62.9010   33.4410   48.0840 C   0  0  0  0  0  0  0  0  0  0  0  0
   61.9840   32.7530   48.8790 C   0  0  0  0  0  0  0  0  0  0  0  0
   60.6760   32.5320   48.4230 C   0  0  0  0  0  0  0  0  0  0  0  0
   59.7310   31.8270   49.3080 C   0  0  0  0  0  0  0  0  0  0  0  0
   59.6280   30.4300   49.2500 C   0  0  0  0  0  0  0  0  0  0  0  0
   58.7560   29.7560   50.1090 C   0  0  0  0  0  0  0  0  0  0  0  0
   57.9880   30.4690   51.0430 C   0  0  0  0  0  0  0  0  0  0  0  0
   57.0750   29.7470   51.9970 C   0  0  0  0  0  0  0  0  0  0  0  0
   56.7660   30.5880   53.1490 N   0  0  0  0  0  0  0  0  0  0  0  0
   55.7730   30.3240   54.1480 C   0  0  0  0  0  0  0  0  0  0  0  0
   55.9000   30.8600   55.2800 O   0  0  0  0  0  0  0  0  0  0  0  0
   54.5630   29.4700   53.8840 C   0  0  0  0  0  0  0  0  0  0  0  0
   53.6140   30.1700   52.9480 C   0  0  0  0  0  0  0  0  0  0  0  0
   52.5400   30.9180   53.4640 C   0  0  0  0  0  0  0  0  0  0  0  0
   51.6660   31.5860   52.6010 C   0  0  0  0  0  0  0  0  0  0  0  0
   51.8540   31.5170   51.2170 C   0  0  0  0  0  0  0  0  0  0  0  0
   50.9780   32.1920   50.3690 O   0  0  0  0  0  0  0  0  0  0  0  0
   52.9220   30.7740   50.6960 C   0  0  0  0  0  0  0  0  0  0  0  0
   53.7980   30.1030   51.5560 C   0  0  0  0  0  0  0  0  0  0  0  0
   58.0660   31.8710   51.0690 C   0  0  0  0  0  0  0  0  0  0  0  0
   58.9290   32.5470   50.2020 C   0  0  0  0  0  0  0  0  0  0  0  0
   55.4470   28.3470   44.8850 H   0  0  0  0  0  0  0  0  0  0  0  0
   57.9795   28.0343   43.2412 H   0  0  0  0  0  0  0  0  0  0  0  0
   60.0997   26.9468   43.9643 H   0  0  0  0  0  0  0  0  0  0  0  0
   61.3449   27.8262   45.9382 H   0  0  0  0  0  0  0  0  0  0  0  0
   60.4462   29.7610   47.2234 H   0  0  0  0  0  0  0  0  0  0  0  0
   60.9156   34.1098   45.3835 H   0  0  0  0  0  0  0  0  0  0  0  0
   63.2415   34.4664   46.2047 H   0  0  0  0  0  0  0  0  0  0  0  0
   63.9272   33.6044   48.4449 H   0  0  0  0  0  0  0  0  0  0  0  0
   62.2883   32.3818   49.8688 H   0  0  0  0  0  0  0  0  0  0  0  0
   60.2343   29.8639   48.5275 H   0  0  0  0  0  0  0  0  0  0  0  0
   58.6709   28.6607   50.0530 H   0  0  0  0  0  0  0  0  0  0  0  0
   56.1406   29.4885   51.4773 H   0  0  0  0  0  0  0  0  0  0  0  0
   57.5798   28.8353   52.3491 H   0  0  0  0  0  0  0  0  0  0  0  0
   54.8829   28.5202   53.4307 H   0  0  0  0  0  0  0  0  0  0  0  0
   54.0469   29.2822   54.8371 H   0  0  0  0  0  0  0  0  0  0  0  0
   52.3871   30.9776   54.5517 H   0  0  0  0  0  0  0  0  0  0  0  0
   50.8278   32.1677   53.0120 H   0  0  0  0  0  0  0  0  0  0  0  0
   51.0180   33.2020   50.2580 H   0  0  0  0  0  0  0  0  0  0  0  0
   53.0719   30.7183   49.6077 H   0  0  0  0  0  0  0  0  0  0  0  0
   54.6340   29.5207   51.1413 H   0  0  0  0  0  0  0  0  0  0  0  0
   57.4444   32.4403   51.7757 H   0  0  0  0  0  0  0  0  0  0  0  0
   58.9783   33.6457   50.2219 H   0  0  0  0  0  0  0  0  0  0  0  0
  1  2  1  0
  2  3  2  0
  2  4  2  0
  2  5  1  0
  5  6  2  0
  6  7  1  0
  7  8  2  0
  8  9  1  0
  9 10  2  0
 10 11  1  0
 11 12  1  0
 12 13  2  0
 12 14  2  0
 12 15  1  0
 15 16  2  0
 16 17  1  0
 17 18  2  0
 18 19  1  0
 19 20  2  0
 20 21  1  0
 21 22  2  0
 22 23  1  0
 23 24  2  0
 24 25  1  0
 25 26  1  0
 26 27  1  0
 27 28  2  0
 27 29  1  0
 29 30  1  0
 30 31  2  0
 31 32  1  0
 32 33  2  0
 33 34  1  0
 33 35  1  0
 35 36  2  0
 24 37  1  0
 37 38  2  0
 10  5  1  0
 20 15  1  0
 38 21  1  0
 36 30  1  0
  1 39  1  0
  6 40  1  0
  7 41  1  0
  8 42  1  0
  9 43  1  0
 16 44  1  0
 17 45  1  0
 18 46  1  0
 19 47  1  0
 22 48  1  0
 23 49  1  0
 25 50  1  0
 25 51  1  0
 29 52  1  0
 29 53  1  0
 31 54  1  0
 32 55  1  0
 34 56  1  0
 35 57  1  0
 36 58  1  0
 37 59  1  0
 38 60  1  0
M  CHG  3   1  -1  11  -1  26  -1
M  END
>  <UniqueID>  (76) 
68

>  <SMILES>  (76) 
[NH-]S(=O)(=O)c1ccccc1[N-]S(=O)(=O)c1ccccc1-c1ccc(C[N-]C(=O)Cc2ccc(O)cc2)cc1

>  <Energy>  (76) 
74.184520431914

>  <Genealogy>  (76) 
[NH-]S(=O)(=O)c1ccccc1[N-]S(=O)(=O)c1ccccc1-c1ccc(C[N-]C(=O)Cc2ccc(O)cc2)cc1 (protonated)
[NH-]S(=O)(=O)c1ccccc1[N-]S(=O)(=O)c1ccccc1-c1ccc(C[N-]C(=O)Cc2ccc(O)cc2)cc1 (3D coordinates assigned)
[NH-]S(=O)(=O)c1ccccc1[N-]S(=O)(=O)c1ccccc1-c1ccc(C[N-]C(=O)Cc2ccc(O)cc2)cc1 (optimized conformer: 74.184520431914 kcal/mol)

>  <smiles>  (76) 
NS(=O)(=O)c1ccccc1NS(=O)(=O)c1ccccc1-c1ccc(CNC(=O)Cc2ccc(O)cc2)cc1

>  <score_type>  (76) 
oracle

>  <origin>  (76) 
adg

>  <m_score__min__energy>  (76) 
-16.41

>  <m_primary>  (76) 
energy

$$$$
76:0
     RDKit          3D

 34 35  0  0  1  0  0  0  0  0999 V2000
   57.6340   28.3360   43.7060 N   0  0  0  0  0  0  0  0  0  0  0  0
   56.5760   29.6590   43.9000 S   0  0  0  0  0  0  0  0  0  0  0  0
   55.9150   30.0660   42.6220 O   0  0  0  0  0  0  0  0  0  0  0  0
   55.4670   29.3230   44.8790 O   0  0  0  0  0  0  0  0  0  0  0  0
   57.4000   31.0460   44.6050 C   0  0  0  0  0  0  0  0  0  0  0  0
   57.5400   32.2330   43.8840 C   0  0  0  0  0  0  0  0  0  0  0  0
   58.1810   33.3290   44.4210 C   0  0  0  0  0  0  0  0  0  0  0  0
   58.7140   33.2800   45.7130 C   0  0  0  0  0  0  0  0  0  0  0  0
   59.3930   34.4540   46.2700 C   0  0  0  0  0  0  0  0  0  0  0  0
   59.2680   34.5980   47.7670 C   0  0  0  0  0  0  0  0  0  0  0  0
   60.1420   33.6960   48.4930 N   0  0  0  0  0  0  0  0  0  0  0  0
   61.2590   33.2550   48.0650 C   0  0  0  0  0  0  0  0  0  0  0  0
   61.7190   32.0550   48.5540 C   0  0  0  0  0  0  0  0  0  0  0  0
   62.9360   31.5640   48.0920 C   0  0  0  0  0  0  0  0  0  0  0  0
   63.6010   32.2970   47.1860 N   0  0  0  0  0  0  0  0  0  0  0  0
   63.1080   33.4760   46.7310 C   0  0  0  0  0  0  0  0  0  0  0  0
   63.7610   34.1260   45.8870 O   0  0  0  0  0  0  0  0  0  0  0  0
   61.9310   33.9740   47.1620 N   0  0  0  0  0  0  0  0  0  0  0  0
   58.5810   32.0980   46.4440 C   0  0  0  0  0  0  0  0  0  0  0  0
   57.9290   31.0080   45.8800 C   0  0  0  0  0  0  0  0  0  0  0  0
   57.0450   27.5160   43.4340 H   0  0  0  0  0  0  0  0  0  0  0  0
   58.3210   28.5690   42.9670 H   0  0  0  0  0  0  0  0  0  0  0  0
   57.1299   32.2952   42.8652 H   0  0  0  0  0  0  0  0  0  0  0  0
   58.2741   34.2506   43.8277 H   0  0  0  0  0  0  0  0  0  0  0  0
   60.4618   34.3835   46.0197 H   0  0  0  0  0  0  0  0  0  0  0  0
   58.9051   35.3358   45.8292 H   0  0  0  0  0  0  0  0  0  0  0  0
   59.5222   35.6320   48.0431 H   0  0  0  0  0  0  0  0  0  0  0  0
   58.2323   34.3462   48.0388 H   0  0  0  0  0  0  0  0  0  0  0  0
   61.1349   31.4930   49.2976 H   0  0  0  0  0  0  0  0  0  0  0  0
   63.3392   30.6078   48.4569 H   0  0  0  0  0  0  0  0  0  0  0  0
   64.5310   31.9510   46.8140 H   0  0  0  0  0  0  0  0  0  0  0  0
   61.5620   34.8680   46.8150 H   0  0  0  0  0  0  0  0  0  0  0  0
   58.9908   32.0297   47.4626 H   0  0  0  0  0  0  0  0  0  0  0  0
   57.8310   30.0841   46.4689 H   0  0  0  0  0  0  0  0  0  0  0  0
  1  2  1  0
  2  3  2  0
  2  4  2  0
  2  5  1  0
  5  6  2  0
  6  7  1  0
  7  8  2  0
  8  9  1  0
  9 10  1  0
 10 11  1  0
 11 12  2  0
 12 13  1  0
 13 14  2  0
 14 15  1  0
 15 16  1  0
 16 17  2  0
 16 18  1  0
  8 19  1  0
 19 20  2  0
 20  5  1  0
 18 12  1  0
  1 21  1  0
  1 22  1  0
  6 23  1  0
  7 24  1  0
  9 25  1  0
  9 26  1  0
 10 27  1  0
 10 28  1  0
 13 29  1  0
 14 30  1  0
 15 31  1  0
 18 32  1  0
 19 33  1  0
 20 34  1  0
M  END
>  <smiles>  (77) 
NS(=O)(=O)c1ccc(CCN=c2cc[nH]c(=O)[nH]2)cc1

>  <score_type>  (77) 
oracle

>  <origin>  (77) 
adg

>  <m_score__min__energy>  (77) 
-8.1400000000000006

>  <m_primary>  (77) 
energy

$$$$
77:0
     RDKit          3D

 58 62  0  0  1  0  0  0  0  0999 V2000
   59.5370   34.1710   50.4380 N   0  0  0  0  0  0  0  0  0  0  0  0
   59.1010   32.5320   50.7020 S   0  0  0  0  0  0  0  0  0  0  0  0
   57.6260   32.5070   51.0420 O   0  0  0  0  0  0  0  0  0  0  0  0
   59.2210   31.7550   49.4130 O   0  0  0  0  0  0  0  0  0  0  0  0
   59.9540   31.7770   52.0070 C   0  0  0  0  0  0  0  0  0  0  0  0
   59.3670   30.8360   52.8320 C   0  0  0  0  0  0  0  0  0  0  0  0
   60.0320   30.2270   53.8750 C   0  0  0  0  0  0  0  0  0  0  0  0
   61.3660   30.5560   54.1340 C   0  0  0  0  0  0  0  0  0  0  0  0
   61.9800   31.4930   53.3260 C   0  0  0  0  0  0  0  0  0  0  0  0
   61.2920   32.1070   52.2670 C   0  0  0  0  0  0  0  0  0  0  0  0
   62.0600   32.8280   47.0050 N   0  0  0  0  0  0  0  0  0  0  0  0
   62.7060   32.8530   48.1210 C   0  0  0  0  0  0  0  0  0  0  0  0
   62.0140   32.9500   49.2710 N   0  0  0  0  0  0  0  0  0  0  0  0
   62.6270   32.9810   50.4680 C   0  0  0  0  0  0  0  0  0  0  0  0
   61.9550   33.0730   51.5280 N   0  0  0  0  0  0  0  0  0  0  0  0
   60.6320   32.9570   46.9320 C   0  0  0  0  0  0  0  0  0  0  0  0
   59.8890   32.0010   46.2530 C   0  0  0  0  0  0  0  0  0  0  0  0
   58.5150   32.0640   46.1460 C   0  0  0  0  0  0  0  0  0  0  0  0
   57.7590   31.0810   45.4490 N   0  0  0  0  0  0  0  0  0  0  0  0
   57.9500   29.6670   45.5760 C   0  0  0  0  0  0  0  0  0  0  0  0
   56.7260   28.8310   45.4260 C   0  0  0  0  0  0  0  0  0  0  0  0
   55.5890   29.4830   44.8580 N   0  0  0  0  0  0  0  0  0  0  0  0
   56.0600   30.3930   43.8210 C   0  0  0  0  0  0  0  0  0  0  0  0
   56.7120   31.5370   44.5360 C   0  0  0  0  0  0  0  0  0  0  0  0
   57.8950   33.1360   46.7540 C   0  0  0  0  0  0  0  0  0  0  0  0
   58.5820   34.1150   47.4420 C   0  0  0  0  0  0  0  0  0  0  0  0
   59.9550   34.0060   47.5200 C   0  0  0  0  0  0  0  0  0  0  0  0
   60.6930   34.9660   48.2010 O   0  0  0  0  0  0  0  0  0  0  0  0
   64.0670   32.7830   48.1610 N   0  0  0  0  0  0  0  0  0  0  0  0
   64.6890   32.8130   49.3660 C   0  0  0  0  0  0  0  0  0  0  0  0
   65.9970   32.7570   49.6280 N   0  0  0  0  0  0  0  0  0  0  0  0
   66.1260   32.8210   50.9610 C   0  0  0  0  0  0  0  0  0  0  0  0
   64.8740   32.9200   51.5690 C   0  0  0  0  0  0  0  0  0  0  0  0
   63.9810   32.9130   50.5390 C   0  0  0  0  0  0  0  0  0  0  0  0
   59.0890   34.5970   49.5970 H   0  0  0  0  0  0  0  0  0  0  0  0
   60.5690   34.2080   50.2740 H   0  0  0  0  0  0  0  0  0  0  0  0
   58.3184   30.5596   52.6474 H   0  0  0  0  0  0  0  0  0  0  0  0
   59.5149   29.4850   54.5011 H   0  0  0  0  0  0  0  0  0  0  0  0
   61.9132   30.0802   54.9611 H   0  0  0  0  0  0  0  0  0  0  0  0
   63.0291   31.7637   53.5159 H   0  0  0  0  0  0  0  0  0  0  0  0
   60.9900   33.0020   49.2130 H   0  0  0  0  0  0  0  0  0  0  0  0
   60.4171   31.1592   45.7812 H   0  0  0  0  0  0  0  0  0  0  0  0
   58.6695   29.3531   44.8054 H   0  0  0  0  0  0  0  0  0  0  0  0
   58.2984   29.5041   46.6066 H   0  0  0  0  0  0  0  0  0  0  0  0
   56.9795   27.9752   44.7830 H   0  0  0  0  0  0  0  0  0  0  0  0
   56.4291   28.5532   46.4481 H   0  0  0  0  0  0  0  0  0  0  0  0
   55.1680   30.0960   45.6190 H   0  0  0  0  0  0  0  0  0  0  0  0
   56.7870   29.8859   43.1697 H   0  0  0  0  0  0  0  0  0  0  0  0
   55.2328   30.7373   43.1828 H   0  0  0  0  0  0  0  0  0  0  0  0
   57.1580   32.2138   43.7924 H   0  0  0  0  0  0  0  0  0  0  0  0
   55.9423   32.0529   45.1289 H   0  0  0  0  0  0  0  0  0  0  0  0
   56.7998   33.2140   46.6870 H   0  0  0  0  0  0  0  0  0  0  0  0
   58.0518   34.9557   47.9133 H   0  0  0  0  0  0  0  0  0  0  0  0
   61.1240   34.8270   49.0850 H   0  0  0  0  0  0  0  0  0  0  0  0
   64.6120   32.7060   47.2580 H   0  0  0  0  0  0  0  0  0  0  0  0
   66.8000   32.6790   48.9520 H   0  0  0  0  0  0  0  0  0  0  0  0
   67.0847   32.7986   51.4999 H   0  0  0  0  0  0  0  0  0  0  0  0
   64.6553   32.9887   52.6448 H   0  0  0  0  0  0  0  0  0  0  0  0
  1  2  1  0
  2  3  2  0
  2  4  2  0
  2  5  1  0
  5  6  2  0
  6  7  1  0
  7  8  2  0
  8  9  1  0
  9 10  2  0
 10 11  1  0
 11 12  2  0
 12 13  1  0
 13 14  1  0
 14 15  2  0
 15 16  1  0
 16 17  2  0
 17 18  1  0
 18 19  1  0
 19 20  1  0
 20 21  1  0
 21 22  1  0
 22 23  1  0
 23 24  1  0
 18 25  2  0
 25 26  1  0
 26 27  2  0
 27 28  1  0
 14 29  1  0
 29 30  1  0
 30 31  1  0
 31 32  1  0
 32 33  2  0
 33 34  1  0
 10  5  1  0
 34 12  1  0
 27 16  1  0
 34 30  2  0
 24 19  1  0
  1 35  1  0
  1 36  1  0
  6 37  1  0
  7 38  1  0
  8 39  1  0
  9 40  1  0
 13 41  1  0
 17 42  1  0
 20 43  1  0
 20 44  1  0
 21 45  1  0
 21 46  1  0
 22 47  1  0
 23 48  1  0
 23 49  1  0
 24 50  1  0
 24 51  1  0
 25 52  1  0
 26 53  1  0
 28 54  1  0
 29 55  1  0
 31 56  1  0
 32 57  1  0
 33 58  1  0
M  END
>  <smiles>  (78) 
NS(=O)(=O)c1ccccc1N=c1[nH]c(=Nc2cc(N3CCNCC3)ccc2O)[nH]c2[nH]ccc12

>  <score_type>  (78) 
oracle

>  <origin>  (78) 
adg

>  <m_score__min__energy>  (78) 
-10.380000000000001

>  <m_primary>  (78) 
energy

$$$$
78:0
     RDKit          3D

 77 81  0  0  0  0  0  0  0  0999 V2000
   59.5870   22.2030   44.5730 C   0  0  0  0  0  0  0  0  0  0  0  0
   58.1630   22.1540   45.0420 C   0  0  0  0  0  0  0  0  0  0  0  0
   57.7560   21.1720   45.9580 C   0  0  0  0  0  0  0  0  0  0  0  0
   56.4260   21.1170   46.3840 C   0  0  0  0  0  0  0  0  0  0  0  0
   55.4920   22.0300   45.8900 C   0  0  0  0  0  0  0  0  0  0  0  0
   55.8770   22.9970   44.9480 C   0  0  0  0  0  0  0  0  0  0  0  0
   54.8820   24.0200   44.4620 C   0  0  0  0  0  0  0  0  0  0  0  0
   54.2110   24.7300   45.6390 C   0  0  0  0  0  0  0  0  0  0  0  0
   54.9520   25.9420   45.9820 N   0  0  0  0  0  0  0  0  0  0  0  0
   56.3530   25.9830   46.2720 C   0  0  0  0  0  0  0  0  0  0  0  0
   56.8300   25.1450   47.0820 O   0  0  0  0  0  0  0  0  0  0  0  0
   57.2400   27.0120   45.6910 C   0  0  0  0  0  0  0  0  0  0  0  0
   58.2240   26.6570   44.7520 C   0  0  0  0  0  0  0  0  0  0  0  0
   59.0170   27.6410   44.1560 C   0  0  0  0  0  0  0  0  0  0  0  0
   58.8340   28.9860   44.4880 C   0  0  0  0  0  0  0  0  0  0  0  0
   57.8690   29.3540   45.4330 C   0  0  0  0  0  0  0  0  0  0  0  0
   57.6700   30.7410   45.7240 N   0  0  0  0  0  0  0  0  0  0  0  0
   57.0140   31.6830   44.8670 C   0  0  0  0  0  0  0  0  0  0  0  0
   56.3930   31.2490   43.8590 O   0  0  0  0  0  0  0  0  0  0  0  0
   57.2030   33.1700   45.0600 C   0  0  0  0  0  0  0  0  0  0  0  0
   58.4140   33.4930   45.8960 C   0  0  0  0  0  0  0  0  0  0  0  0
   58.3390   33.4670   47.2980 C   0  0  0  0  0  0  0  0  0  0  0  0
   59.4650   33.7710   48.0710 C   0  0  0  0  0  0  0  0  0  0  0  0
   60.6790   34.1130   47.4500 C   0  0  0  0  0  0  0  0  0  0  0  0
   61.8490   34.4630   48.2020 N   0  0  0  0  0  0  0  0  0  0  0  0
   62.9830   33.6240   48.4610 C   0  0  0  0  0  0  0  0  0  0  0  0
   64.1270   33.9360   48.0300 O   0  0  0  0  0  0  0  0  0  0  0  0
   62.8220   32.3950   49.3160 C   0  0  0  0  0  0  0  0  0  0  0  0
   61.9830   32.7340   50.5720 C   0  0  0  0  0  0  0  0  0  0  0  0
   61.4200   31.4760   51.2440 C   0  0  0  0  0  0  0  0  0  0  0  0
   60.6880   30.6440   50.2820 N   0  0  0  0  0  0  0  0  0  0  0  0
   59.9220   29.5370   50.7630 C   0  0  0  0  0  0  0  0  0  0  0  0
   60.4980   28.4430   51.0030 O   0  0  0  0  0  0  0  0  0  0  0  0
   58.4710   29.7070   51.0970 C   0  0  0  0  0  0  0  0  0  0  0  0
   57.9550   31.1330   50.9560 C   0  0  0  0  0  0  0  0  0  0  0  0
   58.1830   30.5400   52.3360 C   0  0  0  0  0  0  0  0  0  0  0  0
   60.7930   30.8950   48.8420 C   0  0  0  0  0  0  0  0  0  0  0  0
   62.2450   31.2160   48.4830 C   0  0  0  0  0  0  0  0  0  0  0  0
   60.7390   34.1790   46.0530 C   0  0  0  0  0  0  0  0  0  0  0  0
   59.6200   33.8600   45.2810 C   0  0  0  0  0  0  0  0  0  0  0  0
   57.0550   28.3670   46.0120 C   0  0  0  0  0  0  0  0  0  0  0  0
   57.2160   23.0530   44.5270 C   0  0  0  0  0  0  0  0  0  0  0  0
   60.2591   22.2261   45.4435 H   0  0  0  0  0  0  0  0  0  0  0  0
   59.8039   21.3118   43.9658 H   0  0  0  0  0  0  0  0  0  0  0  0
   59.7422   23.1070   43.9658 H   0  0  0  0  0  0  0  0  0  0  0  0
   58.4856   20.4437   46.3418 H   0  0  0  0  0  0  0  0  0  0  0  0
   56.1141   20.3523   47.1106 H   0  0  0  0  0  0  0  0  0  0  0  0
   54.4501   21.9913   46.2405 H   0  0  0  0  0  0  0  0  0  0  0  0
   55.4039   24.7642   43.8424 H   0  0  0  0  0  0  0  0  0  0  0  0
   54.1077   23.5058   43.8737 H   0  0  0  0  0  0  0  0  0  0  0  0
   53.1809   24.9992   45.3624 H   0  0  0  0  0  0  0  0  0  0  0  0
   54.2007   24.0558   46.5081 H   0  0  0  0  0  0  0  0  0  0  0  0
   58.3703   25.5999   44.4852 H   0  0  0  0  0  0  0  0  0  0  0  0
   59.7870   27.3563   43.4239 H   0  0  0  0  0  0  0  0  0  0  0  0
   59.4505   29.7584   44.0050 H   0  0  0  0  0  0  0  0  0  0  0  0
   57.3192   33.6420   44.0732 H   0  0  0  0  0  0  0  0  0  0  0  0
   56.3186   33.5538   45.5897 H   0  0  0  0  0  0  0  0  0  0  0  0
   57.3907   33.2064   47.7908 H   0  0  0  0  0  0  0  0  0  0  0  0
   59.4001   33.7423   49.1687 H   0  0  0  0  0  0  0  0  0  0  0  0
   63.8061   32.0571   49.6728 H   0  0  0  0  0  0  0  0  0  0  0  0
   62.6216   33.2659   51.2926 H   0  0  0  0  0  0  0  0  0  0  0  0
   61.1346   33.3584   50.2552 H   0  0  0  0  0  0  0  0  0  0  0  0
   62.2512   30.8912   51.6648 H   0  0  0  0  0  0  0  0  0  0  0  0
   60.7240   31.7862   52.0373 H   0  0  0  0  0  0  0  0  0  0  0  0
   58.1534   28.7175   50.7365 H   0  0  0  0  0  0  0  0  0  0  0  0
   58.6206   31.9242   50.5805 H   0  0  0  0  0  0  0  0  0  0  0  0
   57.1042   31.6053   50.4431 H   0  0  0  0  0  0  0  0  0  0  0  0
   59.0134   30.9026   52.9597 H   0  0  0  0  0  0  0  0  0  0  0  0
   57.5648   30.4060   53.2359 H   0  0  0  0  0  0  0  0  0  0  0  0
   60.4681   30.0009   48.2897 H   0  0  0  0  0  0  0  0  0  0  0  0
   60.1522   31.7472   48.5714 H   0  0  0  0  0  0  0  0  0  0  0  0
   62.8589   30.3218   48.6665 H   0  0  0  0  0  0  0  0  0  0  0  0
   62.2675   31.5145   47.4245 H   0  0  0  0  0  0  0  0  0  0  0  0
   61.6738   34.4842   45.5601 H   0  0  0  0  0  0  0  0  0  0  0  0
   59.6847   33.8968   44.1835 H   0  0  0  0  0  0  0  0  0  0  0  0
   56.2667   28.6571   46.7222 H   0  0  0  0  0  0  0  0  0  0  0  0
   57.5247   23.8071   43.7881 H   0  0  0  0  0  0  0  0  0  0  0  0
  1  2  1  0
  2  3  2  0
  3  4  1  0
  4  5  2  0
  5  6  1  0
  6  7  1  0
  7  8  1  0
  8  9  1  0
  9 10  1  0
 10 11  2  0
 10 12  1  0
 12 13  2  0
 13 14  1  0
 14 15  2  0
 15 16  1  0
 16 17  1  0
 17 18  1  0
 18 19  2  0
 18 20  1  0
 20 21  1  0
 21 22  2  0
 22 23  1  0
 23 24  2  0
 24 25  1  0
 25 26  1  0
 26 27  2  0
 26 28  1  0
 28 29  1  0
 29 30  1  0
 30 31  1  0
 31 32  1  0
 32 33  2  0
 32 34  1  0
 34 35  1  0
 35 36  1  0
 31 37  1  0
 37 38  1  0
 24 39  1  0
 39 40  2  0
 16 41  2  0
  6 42  2  0
 42  2  1  0
 41 12  1  0
 40 21  1  0
 38 28  1  0
 36 34  1  0
  1 43  1  0
  1 44  1  0
  1 45  1  0
  3 46  1  0
  4 47  1  0
  5 48  1  0
  7 49  1  0
  7 50  1  0
  8 51  1  0
  8 52  1  0
 13 53  1  0
 14 54  1  0
 15 55  1  0
 20 56  1  0
 20 57  1  0
 22 58  1  0
 23 59  1  0
 28 60  1  0
 29 61  1  0
 29 62  1  0
 30 63  1  0
 30 64  1  0
 34 65  1  0
 35 66  1  0
 35 67  1  0
 36 68  1  0
 36 69  1  0
 37 70  1  0
 37 71  1  0
 38 72  1  0
 38 73  1  0
 39 74  1  0
 40 75  1  0
 41 76  1  0
 42 77  1  0
M  CHG  3   9  -1  17  -1  25  -1
M  END
>  <UniqueID>  (79) 
69

>  <SMILES>  (79) 
Cc1cccc(CC[N-]C(=O)c2cccc([N-]C(=O)Cc3ccc([N-]C(=O)C4CCN(C(=O)C5CC5)CC4)cc3)c2)c1

>  <Energy>  (79) 
361.4604429623196

>  <Genealogy>  (79) 
Cc1cccc(CC[N-]C(=O)c2cccc([N-]C(=O)Cc3ccc([N-]C(=O)C4CCN(C(=O)C5CC5)CC4)cc3)c2)c1 (protonated)
Cc1cccc(CC[N-]C(=O)c2cccc([N-]C(=O)Cc3ccc([N-]C(=O)C4CCN(C(=O)C5CC5)CC4)cc3)c2)c1 (3D coordinates assigned)
Cc1cccc(CC[N-]C(=O)c2cccc([N-]C(=O)Cc3ccc([N-]C(=O)C4CCN(C(=O)C5CC5)CC4)cc3)c2)c1 (nonaromatic ring conformer: 361.4604429623196 kcal/mol)

>  <smiles>  (79) 
Cc1cccc(CCNC(=O)c2cccc(NC(=O)Cc3ccc(NC(=O)C4CCN(C(=O)C5CC5)CC4)cc3)c2)c1

>  <score_type>  (79) 
oracle

>  <origin>  (79) 
adg

>  <m_score__min__energy>  (79) 
-13.65

>  <m_primary>  (79) 
energy

$$$$
79:0
     RDKit          3D

 76 79  0  0  0  0  0  0  0  0999 V2000
   57.2380   32.0910   41.4340 C   0  0  0  0  0  0  0  0  0  0  0  0
   57.4960   31.3240   42.7290 C   0  0  0  0  0  0  0  0  0  0  0  0
   56.2670   30.6810   43.1850 N   0  0  0  0  0  0  0  0  0  0  0  0
   56.1250   30.1030   44.4900 C   0  0  0  0  0  0  0  0  0  0  0  0
   55.1400   29.3570   44.7470 O   0  0  0  0  0  0  0  0  0  0  0  0
   57.0850   30.3790   45.5140 N   0  0  0  0  0  0  0  0  0  0  0  0
   58.4390   29.8230   45.4980 C   0  0  0  0  0  0  0  0  0  0  0  0
   58.4240   28.3680   45.9210 C   0  0  0  0  0  0  0  0  0  0  0  0
   57.9250   27.3980   45.0290 C   0  0  0  0  0  0  0  0  0  0  0  0
   57.8660   26.0530   45.3990 C   0  0  0  0  0  0  0  0  0  0  0  0
   58.3150   25.6540   46.6560 C   0  0  0  0  0  0  0  0  0  0  0  0
   58.8340   26.5980   47.5450 C   0  0  0  0  0  0  0  0  0  0  0  0
   58.9040   27.9520   47.1860 C   0  0  0  0  0  0  0  0  0  0  0  0
   59.4740   28.8890   48.1110 N   0  0  0  0  0  0  0  0  0  0  0  0
   58.7150   30.0880   48.4730 C   0  0  0  0  0  0  0  0  0  0  0  0
   59.6710   31.2540   48.7410 C   0  0  0  0  0  0  0  0  0  0  0  0
   60.8310   30.8400   49.5490 N   0  0  0  0  0  0  0  0  0  0  0  0
   61.8460   31.7990   49.9050 C   0  0  0  0  0  0  0  0  0  0  0  0
   63.0490   31.4220   49.9970 O   0  0  0  0  0  0  0  0  0  0  0  0
   61.4890   33.2440   50.1840 C   0  0  1  0  0  0  0  0  0  0  0  0
   61.8490   34.2100   49.0290 C   0  0  0  0  0  0  0  0  0  0  0  0
   60.8080   34.1740   47.9350 C   0  0  0  0  0  0  0  0  0  0  0  0
   61.1260   33.6320   46.6810 C   0  0  0  0  0  0  0  0  0  0  0  0
   60.1510   33.5310   45.6850 C   0  0  0  0  0  0  0  0  0  0  0  0
   58.8460   33.9860   45.9250 C   0  0  0  0  0  0  0  0  0  0  0  0
   57.7800   33.8310   44.8740 C   0  0  0  0  0  0  0  0  0  0  0  0
   56.7030   32.9780   45.3700 N   0  0  0  0  0  0  0  0  0  0  0  0
   58.5290   34.5390   47.1750 C   0  0  0  0  0  0  0  0  0  0  0  0
   59.5020   34.6340   48.1720 C   0  0  0  0  0  0  0  0  0  0  0  0
   60.0950   33.3860   50.6410 N   0  0  0  0  0  0  0  0  0  0  0  0
   59.7830   32.8480   52.2710 S   0  0  0  0  0  0  0  0  0  0  0  0
   61.0120   32.2380   52.8820 O   0  0  0  0  0  0  0  0  0  0  0  0
   59.3730   34.0300   53.1030 O   0  0  0  0  0  0  0  0  0  0  0  0
   58.4720   31.6860   52.2870 C   0  0  0  0  0  0  0  0  0  0  0  0
   57.1280   31.9720   52.1060 C   0  0  0  0  0  0  0  0  0  0  0  0
   56.3170   30.8320   52.1910 C   0  0  0  0  0  0  0  0  0  0  0  0
   54.8360   30.8650   51.9830 C   0  0  0  0  0  0  0  0  0  0  0  0
   57.0260   29.6510   52.4060 C   0  0  0  0  0  0  0  0  0  0  0  0
   58.6610   30.0310   52.5170 S   0  0  0  0  0  0  0  0  0  0  0  0
   60.9320   29.4590   50.0390 C   0  0  0  0  0  0  0  0  0  0  0  0
   60.6360   28.4700   48.9060 C   0  0  0  0  0  0  0  0  0  0  0  0
   56.8956   33.1088   41.6726 H   0  0  0  0  0  0  0  0  0  0  0  0
   58.1675   32.1447   40.8483 H   0  0  0  0  0  0  0  0  0  0  0  0
   56.4650   31.5720   40.8483 H   0  0  0  0  0  0  0  0  0  0  0  0
   58.2635   30.5565   42.5505 H   0  0  0  0  0  0  0  0  0  0  0  0
   57.8421   32.0271   43.5009 H   0  0  0  0  0  0  0  0  0  0  0  0
   58.8489   29.8992   44.4801 H   0  0  0  0  0  0  0  0  0  0  0  0
   59.0634   30.3907   46.2036 H   0  0  0  0  0  0  0  0  0  0  0  0
   57.5783   27.7036   44.0308 H   0  0  0  0  0  0  0  0  0  0  0  0
   57.4644   25.3074   44.6970 H   0  0  0  0  0  0  0  0  0  0  0  0
   58.2607   24.5950   46.9485 H   0  0  0  0  0  0  0  0  0  0  0  0
   59.1907   26.2769   48.5348 H   0  0  0  0  0  0  0  0  0  0  0  0
   58.0390   30.3540   47.6470 H   0  0  0  0  0  0  0  0  0  0  0  0
   58.1314   29.8840   49.3828 H   0  0  0  0  0  0  0  0  0  0  0  0
   60.0304   31.6474   47.7787 H   0  0  0  0  0  0  0  0  0  0  0  0
   59.1211   32.0227   49.3037 H   0  0  0  0  0  0  0  0  0  0  0  0
   62.1320   33.5589   51.0191 H   0  0  0  0  0  0  0  0  0  0  0  0
   61.9154   35.2336   49.4262 H   0  0  0  0  0  0  0  0  0  0  0  0
   62.8118   33.8939   48.6010 H   0  0  0  0  0  0  0  0  0  0  0  0
   62.1500   33.2840   46.4802 H   0  0  0  0  0  0  0  0  0  0  0  0
   60.4078   33.0931   44.7092 H   0  0  0  0  0  0  0  0  0  0  0  0
   57.3724   34.8209   44.6211 H   0  0  0  0  0  0  0  0  0  0  0  0
   58.2222   33.3674   43.9798 H   0  0  0  0  0  0  0  0  0  0  0  0
   56.4780   32.2810   44.6230 H   0  0  0  0  0  0  0  0  0  0  0  0
   57.0560   32.4390   46.1950 H   0  0  0  0  0  0  0  0  0  0  0  0
   57.5084   34.8997   47.3706 H   0  0  0  0  0  0  0  0  0  0  0  0
   59.2445   35.0713   49.1480 H   0  0  0  0  0  0  0  0  0  0  0  0
   56.7400   32.9837   51.9163 H   0  0  0  0  0  0  0  0  0  0  0  0
   54.3288   30.8763   52.9590 H   0  0  0  0  0  0  0  0  0  0  0  0
   54.5651   31.7694   51.4185 H   0  0  0  0  0  0  0  0  0  0  0  0
   54.5251   29.9736   51.4185 H   0  0  0  0  0  0  0  0  0  0  0  0
   56.5911   28.6440   52.4888 H   0  0  0  0  0  0  0  0  0  0  0  0
   61.9491   29.2821   50.4187 H   0  0  0  0  0  0  0  0  0  0  0  0
   60.1980   29.3104   50.8447 H   0  0  0  0  0  0  0  0  0  0  0  0
   61.5151   28.4081   48.2477 H   0  0  0  0  0  0  0  0  0  0  0  0
   60.4107   27.4912   49.3544 H   0  0  0  0  0  0  0  0  0  0  0  0
  1  2  1  0
  2  3  1  0
  3  4  1  0
  4  5  2  0
  4  6  1  0
  6  7  1  0
  7  8  1  0
  8  9  2  0
  9 10  1  0
 10 11  2  0
 11 12  1  0
 12 13  2  0
 13 14  1  0
 14 15  1  0
 15 16  1  0
 16 17  1  0
 17 18  1  0
 18 19  2  0
 18 20  1  0
 20 21  1  0
 21 22  1  0
 22 23  2  0
 23 24  1  0
 24 25  2  0
 25 26  1  0
 26 27  1  0
 25 28  1  0
 28 29  2  0
 20 30  1  0
 30 31  1  0
 31 32  2  0
 31 33  2  0
 31 34  1  0
 34 35  2  0
 35 36  1  0
 36 37  1  0
 36 38  2  0
 38 39  1  0
 17 40  1  0
 40 41  1  0
 13  8  1  0
 41 14  1  0
 29 22  1  0
 39 34  1  0
  1 42  1  0
  1 43  1  0
  1 44  1  0
  2 45  1  0
  2 46  1  0
  7 47  1  0
  7 48  1  0
  9 49  1  0
 10 50  1  0
 11 51  1  0
 12 52  1  0
 15 53  1  0
 15 54  1  0
 16 55  1  0
 16 56  1  0
 20 57  1  1
 21 58  1  0
 21 59  1  0
 23 60  1  0
 24 61  1  0
 26 62  1  0
 26 63  1  0
 27 64  1  0
 27 65  1  0
 28 66  1  0
 29 67  1  0
 35 68  1  0
 37 69  1  0
 37 70  1  0
 37 71  1  0
 38 72  1  0
 40 73  1  0
 40 74  1  0
 41 75  1  0
 41 76  1  0
M  CHG  3   3  -1   6  -1  30  -1
M  END
>  <UniqueID>  (80) 
70

>  <SMILES>  (80) 
CC[N-]C(=O)[N-]Cc1ccccc1N1CCN(C(=O)[C@@H](Cc2ccc(CN)cc2)[N-]S(=O)(=O)c2cc(C)cs2)CC1

>  <Energy>  (80) 
102.40803975638657

>  <Genealogy>  (80) 
CC[N-]C(=O)[N-]Cc1ccccc1N1CCN(C(=O)C(Cc2ccc(CN)cc2)[N-]S(=O)(=O)c2cc(C)cs2)CC1 (protonated)
CC[N-]C(=O)[N-]Cc1ccccc1N1CCN(C(=O)[C@@H](Cc2ccc(CN)cc2)[N-]S(=O)(=O)c2cc(C)cs2)CC1 (chirality)
CC[N-]C(=O)[N-]Cc1ccccc1N1CCN(C(=O)[C@@H](Cc2ccc(CN)cc2)[N-]S(=O)(=O)c2cc(C)cs2)CC1 (3D coordinates assigned)
CC[N-]C(=O)[N-]Cc1ccccc1N1CCN(C(=O)[C@@H](Cc2ccc(CN)cc2)[N-]S(=O)(=O)c2cc(C)cs2)CC1 (nonaromatic ring conformer: 102.40803975638657 kcal/mol)

>  <smiles>  (80) 
CCNC(=O)NCc1ccccc1N1CCN(C(=O)C(Cc2ccc(CN)cc2)NS(=O)(=O)c2cc(C)cs2)CC1

>  <score_type>  (80) 
oracle

>  <origin>  (80) 
adg

>  <m_score__min__energy>  (80) 
-15.550000000000001

>  <m_primary>  (80) 
energy

$$$$
80:0
     RDKit          3D

 25 26  0  0  0  0  0  0  0  0999 V2000
   58.5675   32.4153   45.2999 H   0  0  0  0  0  0  0  0  0  0  0  0
   58.1080   32.0040   44.3890 C   0  0  0  0  0  0  0  0  0  0  0  0
   57.4870   30.7580   44.3400 C   0  0  0  0  0  0  0  0  0  0  0  0
   57.3680   29.7970   45.4520 C   0  0  0  0  0  0  0  0  0  0  0  0
   57.8080   30.1110   46.5890 O   0  0  0  0  0  0  0  0  0  0  0  0
   56.6860   28.5450   45.2920 N   0  0  0  0  0  0  0  0  0  0  0  0
   57.0920   27.3780   45.7110 C   0  0  0  0  0  0  0  0  0  0  0  0
   56.1340   26.4220   46.0840 C   0  0  0  0  0  0  0  0  0  0  0  0
   54.7760   26.7090   46.0010 O   0  0  0  0  0  0  0  0  0  0  0  0
   56.5500   25.1690   46.5370 C   0  0  0  0  0  0  0  0  0  0  0  0
   55.8054   24.4125   46.8256 H   0  0  0  0  0  0  0  0  0  0  0  0
   57.9100   24.8780   46.6230 C   0  0  0  0  0  0  0  0  0  0  0  0
   58.2457   23.8904   46.9722 H   0  0  0  0  0  0  0  0  0  0  0  0
   58.8410   25.8510   46.2620 C   0  0  0  0  0  0  0  0  0  0  0  0
   59.9167   25.6315   46.3305 H   0  0  0  0  0  0  0  0  0  0  0  0
   58.4250   27.0720   45.8250 N   0  0  0  0  0  0  0  0  0  0  0  0
   59.1630   27.7760   45.6030 H   0  0  0  0  0  0  0  0  0  0  0  0
   56.9300   30.4950   42.7720 S   0  0  0  0  0  0  0  0  0  0  0  0
   57.4440   31.9740   42.1570 C   0  0  0  0  0  0  0  0  0  0  0  0
   57.3360   32.3950   40.7300 C   0  0  0  0  0  0  0  0  0  0  0  0
   57.0629   33.4595   40.6814 H   0  0  0  0  0  0  0  0  0  0  0  0
   58.3027   32.2412   40.2282 H   0  0  0  0  0  0  0  0  0  0  0  0
   56.5627   31.7948   40.2282 H   0  0  0  0  0  0  0  0  0  0  0  0
   58.0890   32.6810   43.1630 C   0  0  0  0  0  0  0  0  0  0  0  0
   58.5397   33.6730   43.0123 H   0  0  0  0  0  0  0  0  0  0  0  0
  1  2  1  0
  2  3  2  0
  3  4  1  0
  4  5  2  0
  4  6  1  0
  6  7  2  0
  7  8  1  0
  8  9  1  0
  8 10  2  0
 10 11  1  0
 10 12  1  0
 12 13  1  0
 12 14  2  0
 14 15  1  0
 14 16  1  0
 16 17  1  0
  3 18  1  0
 18 19  1  0
 19 20  1  0
 20 21  1  0
 20 22  1  0
 20 23  1  0
 19 24  2  0
 24 25  1  0
 24  2  1  0
 16  7  1  0
M  CHG  1   9  -1
M  END
>  <UniqueID>  (81) 
71

>  <SMILES>  (81) 
Cc1ccc(C(=O)/N=c2\[nH]cccc2[O-])s1

>  <Energy>  (81) 
59.08320137244159

>  <Genealogy>  (81) 
Cc1ccc(C(=O)N=c2[nH]cccc2[O-])s1 (protonated)
Cc1ccc(C(=O)/N=c2\[nH]cccc2[O-])s1 (cis-trans isomerization)
Cc1ccc(C(=O)/N=c2\[nH]cccc2[O-])s1 (3D coordinates assigned)
Cc1ccc(C(=O)/N=c2\[nH]cccc2[O-])s1 (optimized conformer: 59.08320137244159 kcal/mol)

>  <smiles>  (81) 
Cc1ccc(C(=O)N=c2[nH]cccc2O)s1

>  <score_type>  (81) 
oracle

>  <origin>  (81) 
adg

>  <m_score__min__energy>  (81) 
-10.199999999999999

>  <m_primary>  (81) 
energy

$$$$
81:0
     RDKit          3D

 46 47  0  0  0  0  0  0  0  0999 V2000
   62.5230   33.8870   46.4600 C   0  0  0  0  0  0  0  0  0  0  0  0
   61.3760   33.0290   46.9230 C   0  0  0  0  0  0  0  0  0  0  0  0
   61.6390   31.7710   47.4870 C   0  0  0  0  0  0  0  0  0  0  0  0
   60.5870   30.9500   47.9280 C   0  0  0  0  0  0  0  0  0  0  0  0
   60.8060   29.6880   48.5020 O   0  0  0  0  0  0  0  0  0  0  0  0
   59.7740   28.8110   48.9440 C   0  0  0  0  0  0  0  0  0  0  0  0
   59.9750   27.4500   48.3440 C   0  0  0  0  0  0  0  0  0  0  0  0
   60.5280   26.5630   49.0500 O   0  0  0  0  0  0  0  0  0  0  0  0
   59.5570   27.1310   46.9960 N   0  0  0  0  0  0  0  0  0  0  0  0
   60.3450   27.6510   45.8730 C   0  0  0  0  0  0  0  0  0  0  0  0
   58.3190   26.3850   46.7190 C   0  0  0  0  0  0  0  0  0  0  0  0
   57.2400   27.3180   46.2660 C   0  0  0  0  0  0  0  0  0  0  0  0
   56.1800   26.8520   45.7700 O   0  0  0  0  0  0  0  0  0  0  0  0
   57.4650   28.7320   46.3190 N   0  0  0  0  0  0  0  0  0  0  0  0
   57.4390   29.6460   45.2120 C   0  0  0  0  0  0  0  0  0  0  0  0
   58.5690   30.4110   44.8660 C   0  0  0  0  0  0  0  0  0  0  0  0
   58.5270   31.2770   43.7700 C   0  0  0  0  0  0  0  0  0  0  0  0
   57.3680   31.3760   43.0000 C   0  0  0  0  0  0  0  0  0  0  0  0
   56.2490   30.6030   43.3180 C   0  0  0  0  0  0  0  0  0  0  0  0
   56.2800   29.7330   44.4150 C   0  0  0  0  0  0  0  0  0  0  0  0
   55.1460   28.9690   44.6970 O   0  0  0  0  0  0  0  0  0  0  0  0
   59.2710   31.3950   47.7940 C   0  0  0  0  0  0  0  0  0  0  0  0
   58.9850   32.6490   47.2340 C   0  0  0  0  0  0  0  0  0  0  0  0
   57.5530   33.0950   47.1110 C   0  0  0  0  0  0  0  0  0  0  0  0
   60.0420   33.4730   46.7950 C   0  0  0  0  0  0  0  0  0  0  0  0
   59.6660   35.2000   46.0210 Br  0  0  0  0  0  0  0  0  0  0  0  0
   63.0578   34.2870   47.3340 H   0  0  0  0  0  0  0  0  0  0  0  0
   63.2127   33.2813   45.8538 H   0  0  0  0  0  0  0  0  0  0  0  0
   62.1367   34.7196   45.8538 H   0  0  0  0  0  0  0  0  0  0  0  0
   62.6784   31.4243   47.5848 H   0  0  0  0  0  0  0  0  0  0  0  0
   59.8037   28.7350   50.0410 H   0  0  0  0  0  0  0  0  0  0  0  0
   58.7982   29.2081   48.6274 H   0  0  0  0  0  0  0  0  0  0  0  0
   61.2045   28.2182   46.2597 H   0  0  0  0  0  0  0  0  0  0  0  0
   60.7053   26.8127   45.2586 H   0  0  0  0  0  0  0  0  0  0  0  0
   59.7160   28.3120   45.2586 H   0  0  0  0  0  0  0  0  0  0  0  0
   58.5115   25.6428   45.9303 H   0  0  0  0  0  0  0  0  0  0  0  0
   57.9919   25.8804   47.6401 H   0  0  0  0  0  0  0  0  0  0  0  0
   59.4900   30.3266   45.4616 H   0  0  0  0  0  0  0  0  0  0  0  0
   59.4095   31.8817   43.5140 H   0  0  0  0  0  0  0  0  0  0  0  0
   57.3353   32.0633   42.1418 H   0  0  0  0  0  0  0  0  0  0  0  0
   55.3393   30.6779   42.7041 H   0  0  0  0  0  0  0  0  0  0  0  0
   55.1450   28.2370   45.3970 H   0  0  0  0  0  0  0  0  0  0  0  0
   58.4451   30.7523   48.1328 H   0  0  0  0  0  0  0  0  0  0  0  0
   57.1232   33.2289   48.1147 H   0  0  0  0  0  0  0  0  0  0  0  0
   57.5116   34.0486   46.5642 H   0  0  0  0  0  0  0  0  0  0  0  0
   56.9775   32.3336   46.5642 H   0  0  0  0  0  0  0  0  0  0  0  0
  1  2  1  0
  2  3  2  0
  3  4  1  0
  4  5  1  0
  5  6  1  0
  6  7  1  0
  7  8  2  0
  7  9  1  0
  9 10  1  0
  9 11  1  0
 11 12  1  0
 12 13  2  0
 12 14  1  0
 14 15  1  0
 15 16  2  0
 16 17  1  0
 17 18  2  0
 18 19  1  0
 19 20  2  0
 20 21  1  0
  4 22  2  0
 22 23  1  0
 23 24  1  0
 23 25  2  0
 25 26  1  0
 25  2  1  0
 20 15  1  0
  1 27  1  0
  1 28  1  0
  1 29  1  0
  3 30  1  0
  6 31  1  0
  6 32  1  0
 10 33  1  0
 10 34  1  0
 10 35  1  0
 11 36  1  0
 11 37  1  0
 16 38  1  0
 17 39  1  0
 18 40  1  0
 19 41  1  0
 21 42  1  0
 22 43  1  0
 24 44  1  0
 24 45  1  0
 24 46  1  0
M  CHG  1  14  -1
M  END
>  <UniqueID>  (82) 
72

>  <SMILES>  (82) 
Cc1cc(OCC(=O)N(C)CC(=O)[N-]c2ccccc2O)cc(C)c1Br

>  <Energy>  (82) 
46.0649318142481

>  <Genealogy>  (82) 
Cc1cc(OCC(=O)N(C)CC(=O)[N-]c2ccccc2O)cc(C)c1Br (protonated)
Cc1cc(OCC(=O)N(C)CC(=O)[N-]c2ccccc2O)cc(C)c1Br (3D coordinates assigned)
Cc1cc(OCC(=O)N(C)CC(=O)[N-]c2ccccc2O)cc(C)c1Br (optimized conformer: 46.0649318142481 kcal/mol)

>  <smiles>  (82) 
Cc1cc(OCC(=O)N(C)CC(=O)Nc2ccccc2O)cc(C)c1Br

>  <score_type>  (82) 
oracle

>  <origin>  (82) 
adg

>  <m_score__min__energy>  (82) 
-11.619999999999999

>  <m_primary>  (82) 
energy

$$$$
82:0
     RDKit          3D

 55 58  0  0  0  0  0  0  0  0999 V2000
   59.4590   27.1430   47.8550 O   0  0  0  0  0  0  0  0  0  0  0  0
   59.8010   28.3230   48.1360 C   0  0  0  0  0  0  0  0  0  0  0  0
   60.4310   28.6300   49.4710 C   0  0  0  0  0  0  0  0  0  0  0  0
   59.9820   29.9340   49.9930 N   0  0  0  0  0  0  0  0  0  0  0  0
   58.6860   30.0730   50.3900 C   0  0  0  0  0  0  0  0  0  0  0  0
   58.2180   31.2920   50.8810 C   0  0  0  0  0  0  0  0  0  0  0  0
   56.8470   31.4550   51.2890 N   0  0  0  0  0  0  0  0  0  0  0  0
   56.0770   30.4270   51.9330 C   0  0  0  0  0  0  0  0  0  0  0  0
   56.6400   29.3840   52.3670 O   0  0  0  0  0  0  0  0  0  0  0  0
   54.6300   30.6000   52.1240 C   0  0  0  0  0  0  0  0  0  0  0  0
   53.8110   29.7980   52.8960 C   0  0  0  0  0  0  0  0  0  0  0  0
   52.5470   30.3320   52.7760 C   0  0  0  0  0  0  0  0  0  0  0  0
   52.6710   31.4250   51.9420 C   0  0  0  0  0  0  0  0  0  0  0  0
   53.9230   31.5590   51.5710 O   0  0  0  0  0  0  0  0  0  0  0  0
   59.1010   32.3780   50.9070 C   0  0  0  0  0  0  0  0  0  0  0  0
   58.6900   33.4930   51.3300 O   0  0  0  0  0  0  0  0  0  0  0  0
   60.3990   32.2290   50.4860 N   0  0  0  0  0  0  0  0  0  0  0  0
   61.3130   33.3920   50.4770 C   0  0  0  0  0  0  0  0  0  0  0  0
   61.9520   33.5480   49.1200 C   0  0  0  0  0  0  0  0  0  0  0  0
   63.3430   33.4150   48.9710 C   0  0  0  0  0  0  0  0  0  0  0  0
   63.9300   33.5240   47.7070 C   0  0  0  0  0  0  0  0  0  0  0  0
   63.1350   33.7620   46.5820 C   0  0  0  0  0  0  0  0  0  0  0  0
   61.7510   33.8920   46.7230 C   0  0  0  0  0  0  0  0  0  0  0  0
   61.1600   33.7840   47.9850 C   0  0  0  0  0  0  0  0  0  0  0  0
   60.8340   31.0080   50.0290 C   0  0  0  0  0  0  0  0  0  0  0  0
   62.0250   30.8710   49.6330 O   0  0  0  0  0  0  0  0  0  0  0  0
   59.6100   29.3480   47.1550 N   0  0  0  0  0  0  0  0  0  0  0  0
   58.3610   29.5660   46.4360 C   0  0  0  0  0  0  0  0  0  0  0  0
   58.1670   31.0400   46.2010 C   0  0  0  0  0  0  0  0  0  0  0  0
   58.4770   31.9510   47.2260 C   0  0  0  0  0  0  0  0  0  0  0  0
   58.2850   33.3220   47.0370 C   0  0  0  0  0  0  0  0  0  0  0  0
   57.7760   33.7980   45.8290 C   0  0  0  0  0  0  0  0  0  0  0  0
   57.4510   32.9030   44.8060 C   0  0  0  0  0  0  0  0  0  0  0  0
   57.6360   31.5260   44.9850 C   0  0  0  0  0  0  0  0  0  0  0  0
   57.1860   30.4430   43.6710 Cl  0  0  0  0  0  0  0  0  0  0  0  0
   60.1523   27.8430   50.1873 H   0  0  0  0  0  0  0  0  0  0  0  0
   61.5221   28.6688   49.3371 H   0  0  0  0  0  0  0  0  0  0  0  0
   58.0013   29.2147   50.3226 H   0  0  0  0  0  0  0  0  0  0  0  0
   56.4100   32.3980   51.1850 H   0  0  0  0  0  0  0  0  0  0  0  0
   54.1070   28.9167   53.4839 H   0  0  0  0  0  0  0  0  0  0  0  0
   51.6253   29.9623   53.2490 H   0  0  0  0  0  0  0  0  0  0  0  0
   51.8455   32.0840   51.6348 H   0  0  0  0  0  0  0  0  0  0  0  0
   60.7437   34.3023   50.7163 H   0  0  0  0  0  0  0  0  0  0  0  0
   62.1019   33.2316   51.2266 H   0  0  0  0  0  0  0  0  0  0  0  0
   63.9725   33.2243   49.8527 H   0  0  0  0  0  0  0  0  0  0  0  0
   65.0198   33.4223   47.5974 H   0  0  0  0  0  0  0  0  0  0  0  0
   63.5981   33.8468   45.5878 H   0  0  0  0  0  0  0  0  0  0  0  0
   61.1248   34.0799   45.8384 H   0  0  0  0  0  0  0  0  0  0  0  0
   60.0696   33.8843   48.0894 H   0  0  0  0  0  0  0  0  0  0  0  0
   58.3984   29.0425   45.4693 H   0  0  0  0  0  0  0  0  0  0  0  0
   57.5225   29.1766   47.0320 H   0  0  0  0  0  0  0  0  0  0  0  0
   58.8734   31.5819   48.1834 H   0  0  0  0  0  0  0  0  0  0  0  0
   58.5359   34.0275   47.8428 H   0  0  0  0  0  0  0  0  0  0  0  0
   57.6303   34.8783   45.6813 H   0  0  0  0  0  0  0  0  0  0  0  0
   57.0478   33.2818   43.8552 H   0  0  0  0  0  0  0  0  0  0  0  0
  1  2  2  0
  2  3  1  0
  3  4  1  0
  4  5  1  0
  5  6  2  0
  6  7  1  0
  7  8  1  0
  8  9  2  0
  8 10  1  0
 10 11  2  0
 11 12  1  0
 12 13  2  0
 13 14  1  0
  6 15  1  0
 15 16  2  0
 15 17  1  0
 17 18  1  0
 18 19  1  0
 19 20  2  0
 20 21  1  0
 21 22  2  0
 22 23  1  0
 23 24  2  0
 17 25  1  0
 25 26  2  0
  2 27  1  0
 27 28  1  0
 28 29  1  0
 29 30  2  0
 30 31  1  0
 31 32  2  0
 32 33  1  0
 33 34  2  0
 34 35  1  0
 25  4  1  0
 34 29  1  0
 14 10  1  0
 24 19  1  0
  3 36  1  0
  3 37  1  0
  5 38  1  0
  7 39  1  0
 11 40  1  0
 12 41  1  0
 13 42  1  0
 18 43  1  0
 18 44  1  0
 20 45  1  0
 21 46  1  0
 22 47  1  0
 23 48  1  0
 24 49  1  0
 28 50  1  0
 28 51  1  0
 30 52  1  0
 31 53  1  0
 32 54  1  0
 33 55  1  0
M  CHG  1  27  -1
M  END
>  <UniqueID>  (83) 
73

>  <SMILES>  (83) 
O=C(Cn1cc(NC(=O)c2ccco2)c(=O)n(Cc2ccccc2)c1=O)[N-]Cc1ccccc1Cl

>  <Energy>  (83) 
92.48212512895985

>  <Genealogy>  (83) 
O=C(Cn1cc(NC(=O)c2ccco2)c(=O)n(Cc2ccccc2)c1=O)[N-]Cc1ccccc1Cl (protonated)
O=C(Cn1cc(NC(=O)c2ccco2)c(=O)n(Cc2ccccc2)c1=O)[N-]Cc1ccccc1Cl (3D coordinates assigned)
O=C(Cn1cc(NC(=O)c2ccco2)c(=O)n(Cc2ccccc2)c1=O)[N-]Cc1ccccc1Cl (optimized conformer: 92.48212512895985 kcal/mol)

>  <smiles>  (83) 
O=C(Cn1cc(NC(=O)c2ccco2)c(=O)n(Cc2ccccc2)c1=O)NCc1ccccc1Cl

>  <score_type>  (83) 
oracle

>  <origin>  (83) 
adg

>  <m_score__min__energy>  (83) 
-10.07

>  <m_primary>  (83) 
energy

$$$$
83:0
     RDKit          3D

 62 64  0  0  0  0  0  0  0  0999 V2000
   58.0950   26.6920   42.4860 C   0  0  0  0  0  0  0  0  0  0  0  0
   58.5450   27.2560   43.8290 C   0  0  0  0  0  0  0  0  0  0  0  0
   57.5020   28.2410   44.3920 C   0  0  0  0  0  0  0  0  0  0  0  0
   58.0870   29.4600   44.9900 N   0  0  0  0  0  0  0  0  0  0  0  0
   59.5620   29.4870   44.9510 C   0  0  0  0  0  0  0  0  0  0  0  0
   60.1300   29.6490   46.3650 C   0  0  0  0  0  0  0  0  0  0  0  0
   59.2080   29.0220   47.4060 C   0  0  0  0  0  0  0  0  0  0  0  0
   57.3400   30.9510   44.4300 S   0  0  0  0  0  0  0  0  0  0  0  0
   55.8910   30.9290   44.8290 O   0  0  0  0  0  0  0  0  0  0  0  0
   57.3950   31.0450   42.9300 O   0  0  0  0  0  0  0  0  0  0  0  0
   58.0870   32.4030   45.1130 C   0  0  0  0  0  0  0  0  0  0  0  0
   58.5240   33.4400   44.2770 C   0  0  0  0  0  0  0  0  0  0  0  0
   59.0900   34.5930   44.8240 C   0  0  0  0  0  0  0  0  0  0  0  0
   59.2130   34.7300   46.2100 C   0  0  0  0  0  0  0  0  0  0  0  0
   59.7680   35.8920   46.7360 O   0  0  0  0  0  0  0  0  0  0  0  0
   58.7680   33.7040   47.0610 C   0  0  0  0  0  0  0  0  0  0  0  0
   58.9040   33.8350   48.4840 N   0  0  0  0  0  0  0  0  0  0  0  0
   58.8590   32.7150   49.3770 C   0  0  0  0  0  0  0  0  0  0  0  0
   58.2070   31.6800   49.0700 O   0  0  0  0  0  0  0  0  0  0  0  0
   59.5440   32.7760   50.6740 C   0  0  0  0  0  0  0  0  0  0  0  0
   59.2300   33.8070   51.5680 C   0  0  0  0  0  0  0  0  0  0  0  0
   59.8070   33.8270   52.8380 C   0  0  0  0  0  0  0  0  0  0  0  0
   60.6830   32.8060   53.2100 C   0  0  0  0  0  0  0  0  0  0  0  0
   60.9690   31.8060   52.3370 N   0  0  0  0  0  0  0  0  0  0  0  0
   60.4400   31.7670   51.0830 C   0  0  0  0  0  0  0  0  0  0  0  0
   60.8250   30.3620   50.0230 S   0  0  0  0  0  0  0  0  0  0  0  0
   62.5890   30.7830   49.7860 C   0  0  0  0  0  0  0  0  0  0  0  0
   62.7670   31.8670   48.7610 C   0  0  0  0  0  0  0  0  0  0  0  0
   61.8120   32.0430   47.7420 C   0  0  0  0  0  0  0  0  0  0  0  0
   61.9860   33.0370   46.7760 C   0  0  0  0  0  0  0  0  0  0  0  0
   63.1120   33.8650   46.8240 C   0  0  0  0  0  0  0  0  0  0  0  0
   64.0630   33.7030   47.8400 C   0  0  0  0  0  0  0  0  0  0  0  0
   63.8950   32.7090   48.8070 C   0  0  0  0  0  0  0  0  0  0  0  0
   58.2310   32.5340   46.5000 C   0  0  0  0  0  0  0  0  0  0  0  0
   57.4170   25.8422   42.6538 H   0  0  0  0  0  0  0  0  0  0  0  0
   57.5696   27.4736   41.9176 H   0  0  0  0  0  0  0  0  0  0  0  0
   58.9737   26.3533   41.9176 H   0  0  0  0  0  0  0  0  0  0  0  0
   58.6783   26.4277   44.5405 H   0  0  0  0  0  0  0  0  0  0  0  0
   59.4927   27.7949   43.6828 H   0  0  0  0  0  0  0  0  0  0  0  0
   56.8346   28.5442   43.5718 H   0  0  0  0  0  0  0  0  0  0  0  0
   56.9703   27.7147   45.1984 H   0  0  0  0  0  0  0  0  0  0  0  0
   59.9306   28.5454   44.5178 H   0  0  0  0  0  0  0  0  0  0  0  0
   59.8875   30.3386   44.3356 H   0  0  0  0  0  0  0  0  0  0  0  0
   61.1133   29.1584   46.4149 H   0  0  0  0  0  0  0  0  0  0  0  0
   60.2206   30.7235   46.5826 H   0  0  0  0  0  0  0  0  0  0  0  0
   59.5716   29.2693   48.4143 H   0  0  0  0  0  0  0  0  0  0  0  0
   58.1887   29.4150   47.2772 H   0  0  0  0  0  0  0  0  0  0  0  0
   59.1988   27.9296   47.2772 H   0  0  0  0  0  0  0  0  0  0  0  0
   58.4205   33.3449   43.1860 H   0  0  0  0  0  0  0  0  0  0  0  0
   59.4410   35.3977   44.1613 H   0  0  0  0  0  0  0  0  0  0  0  0
   58.9870   34.7860   48.9010 H   0  0  0  0  0  0  0  0  0  0  0  0
   58.5291   34.6004   51.2692 H   0  0  0  0  0  0  0  0  0  0  0  0
   59.5735   34.6407   53.5404 H   0  0  0  0  0  0  0  0  0  0  0  0
   61.1415   32.8114   54.2099 H   0  0  0  0  0  0  0  0  0  0  0  0
   63.0058   31.1262   50.7444 H   0  0  0  0  0  0  0  0  0  0  0  0
   63.1120   29.8835   49.4292 H   0  0  0  0  0  0  0  0  0  0  0  0
   60.9242   31.3945   47.7062 H   0  0  0  0  0  0  0  0  0  0  0  0
   61.2390   33.1681   45.9793 H   0  0  0  0  0  0  0  0  0  0  0  0
   63.2514   34.6458   46.0618 H   0  0  0  0  0  0  0  0  0  0  0  0
   64.9443   34.3603   47.8763 H   0  0  0  0  0  0  0  0  0  0  0  0
   64.6431   32.5840   49.6037 H   0  0  0  0  0  0  0  0  0  0  0  0
   57.9194   31.7097   47.1584 H   0  0  0  0  0  0  0  0  0  0  0  0
  1  2  1  0
  2  3  1  0
  3  4  1  0
  4  5  1  0
  5  6  1  0
  6  7  1  0
  4  8  1  0
  8  9  2  0
  8 10  2  0
  8 11  1  0
 11 12  2  0
 12 13  1  0
 13 14  2  0
 14 15  1  0
 14 16  1  0
 16 17  1  0
 17 18  1  0
 18 19  2  0
 18 20  1  0
 20 21  2  0
 21 22  1  0
 22 23  2  0
 23 24  1  0
 24 25  2  0
 25 26  1  0
 26 27  1  0
 27 28  1  0
 28 29  2  0
 29 30  1  0
 30 31  2  0
 31 32  1  0
 32 33  2  0
 16 34  2  0
 34 11  1  0
 25 20  1  0
 33 28  1  0
  1 35  1  0
  1 36  1  0
  1 37  1  0
  2 38  1  0
  2 39  1  0
  3 40  1  0
  3 41  1  0
  5 42  1  0
  5 43  1  0
  6 44  1  0
  6 45  1  0
  7 46  1  0
  7 47  1  0
  7 48  1  0
 12 49  1  0
 13 50  1  0
 17 51  1  0
 21 52  1  0
 22 53  1  0
 23 54  1  0
 27 55  1  0
 27 56  1  0
 29 57  1  0
 30 58  1  0
 31 59  1  0
 32 60  1  0
 33 61  1  0
 34 62  1  0
M  CHG  1  15  -1
M  END
>  <UniqueID>  (84) 
74

>  <SMILES>  (84) 
CCCN(CCC)S(=O)(=O)c1ccc([O-])c(NC(=O)c2cccnc2SCc2ccccc2)c1

>  <Energy>  (84) 
64.68004166827222

>  <Genealogy>  (84) 
CCCN(CCC)S(=O)(=O)c1ccc([O-])c(NC(=O)c2cccnc2SCc2ccccc2)c1 (protonated)
CCCN(CCC)S(=O)(=O)c1ccc([O-])c(NC(=O)c2cccnc2SCc2ccccc2)c1 (3D coordinates assigned)
CCCN(CCC)S(=O)(=O)c1ccc([O-])c(NC(=O)c2cccnc2SCc2ccccc2)c1 (optimized conformer: 64.68004166827222 kcal/mol)

>  <smiles>  (84) 
CCCN(CCC)S(=O)(=O)c1ccc(O)c(NC(=O)c2cccnc2SCc2ccccc2)c1

>  <score_type>  (84) 
oracle

>  <origin>  (84) 
adg

>  <m_score__min__energy>  (84) 
-10.49

>  <m_primary>  (84) 
energy

$$$$
84:0
     RDKit          3D

 23 24  0  0  0  0  0  0  0  0999 V2000
   57.1370   26.3080   46.7490 O   0  0  0  0  0  0  0  0  0  0  0  0
   57.1020   27.4100   46.1440 C   0  0  0  0  0  0  0  0  0  0  0  0
   58.2350   28.2260   46.1050 C   0  0  0  0  0  0  0  0  0  0  0  0
   58.1590   29.4460   45.4170 C   0  0  0  0  0  0  0  0  0  0  0  0
   59.2860   30.3380   45.3760 N   0  0  0  0  0  0  0  0  0  0  0  0
   58.8810   31.6430   45.8360 C   0  0  0  0  0  0  0  0  0  0  0  0
   58.1370   32.4950   45.0000 C   0  0  0  0  0  0  0  0  0  0  0  0
   57.7720   33.7720   45.4370 C   0  0  0  0  0  0  0  0  0  0  0  0
   57.0510   34.5840   44.6250 F   0  0  0  0  0  0  0  0  0  0  0  0
   58.1520   34.2120   46.7080 C   0  0  0  0  0  0  0  0  0  0  0  0
   58.9000   33.3770   47.5430 C   0  0  0  0  0  0  0  0  0  0  0  0
   59.2730   33.8100   48.7720 F   0  0  0  0  0  0  0  0  0  0  0  0
   59.2670   32.1000   47.1100 C   0  0  0  0  0  0  0  0  0  0  0  0
   56.9870   29.8060   44.8240 N   0  0  0  0  0  0  0  0  0  0  0  0
   55.8960   28.9970   44.8730 C   0  0  0  0  0  0  0  0  0  0  0  0
   54.8270   29.3510   44.3120 O   0  0  0  0  0  0  0  0  0  0  0  0
   55.9590   27.8090   45.5280 N   0  0  0  0  0  0  0  0  0  0  0  0
   59.1664   27.9186   46.6029 H   0  0  0  0  0  0  0  0  0  0  0  0
   59.6450   30.4000   44.3950 H   0  0  0  0  0  0  0  0  0  0  0  0
   60.0650   29.9670   45.9690 H   0  0  0  0  0  0  0  0  0  0  0  0
   57.8407   32.1548   43.9968 H   0  0  0  0  0  0  0  0  0  0  0  0
   57.8623   35.2160   47.0515 H   0  0  0  0  0  0  0  0  0  0  0  0
   59.8606   31.4486   47.7683 H   0  0  0  0  0  0  0  0  0  0  0  0
  1  2  2  0
  2  3  1  0
  3  4  2  0
  4  5  1  0
  5  6  1  0
  6  7  2  0
  7  8  1  0
  8  9  1  0
  8 10  2  0
 10 11  1  0
 11 12  1  0
 11 13  2  0
  4 14  1  0
 14 15  1  0
 15 16  2  0
 15 17  1  0
 17  2  1  0
 13  6  1  0
  3 18  1  0
  5 19  1  0
  5 20  1  0
  7 21  1  0
 10 22  1  0
 13 23  1  0
M  CHG  3   5   1  14  -1  17  -1
M  END
>  <UniqueID>  (85) 
75

>  <SMILES>  (85) 
O=c1cc([NH2+]c2cc(F)cc(F)c2)[n-]c(=O)[n-]1

>  <Energy>  (85) 
26.609215441881236

>  <Genealogy>  (85) 
O=c1cc([NH2+]c2cc(F)cc(F)c2)[n-]c(=O)[n-]1 (protonated)
O=c1cc([NH2+]c2cc(F)cc(F)c2)[n-]c(=O)[n-]1 (3D coordinates assigned)
O=c1cc([NH2+]c2cc(F)cc(F)c2)[n-]c(=O)[n-]1 (optimized conformer: 26.609215441881236 kcal/mol)

>  <smiles>  (85) 
O=c1cc(Nc2cc(F)cc(F)c2)[nH]c(=O)[nH]1

>  <score_type>  (85) 
oracle

>  <origin>  (85) 
adg

>  <m_score__min__energy>  (85) 
-9.75

>  <m_primary>  (85) 
energy

$$$$
85:0
     RDKit          3D

 57 60  0  0  0  0  0  0  0  0999 V2000
   61.8830   31.3630   47.1510 C   0  0  0  0  0  0  0  0  0  0  0  0
   61.0690   31.1520   48.3590 N   0  0  0  0  0  0  0  0  0  0  0  0
   61.9370   31.2230   49.5500 C   0  0  0  0  0  0  0  0  0  0  0  0
   60.3760   29.8470   48.2870 C   0  0  0  0  0  0  0  0  0  0  0  0
   60.5330   29.2280   46.8940 C   0  0  0  0  0  0  0  0  0  0  0  0
   59.2220   28.8550   46.3550 N   0  0  0  0  0  0  0  0  0  0  0  0
   58.5270   27.7090   46.5680 C   0  0  0  0  0  0  0  0  0  0  0  0
   58.8970   26.6080   47.3440 C   0  0  0  0  0  0  0  0  0  0  0  0
   58.0040   25.5240   47.4280 C   0  0  0  0  0  0  0  0  0  0  0  0
   56.7590   25.5510   46.7430 C   0  0  0  0  0  0  0  0  0  0  0  0
   55.8270   24.4630   46.8120 N   0  0  0  0  0  0  0  0  0  0  0  0
   54.4560   24.2320   45.7750 S   0  0  0  0  0  0  0  0  0  0  0  0
   53.3900   22.9690   46.4370 C   0  0  0  0  0  0  0  0  0  0  0  0
   54.9430   23.7930   44.4230 O   0  0  0  0  0  0  0  0  0  0  0  0
   53.7040   25.5240   45.6210 O   0  0  0  0  0  0  0  0  0  0  0  0
   56.4100   26.6790   45.9760 C   0  0  0  0  0  0  0  0  0  0  0  0
   57.3140   27.7360   45.9100 C   0  0  0  0  0  0  0  0  0  0  0  0
   57.2450   28.9550   45.2740 C   0  0  0  0  0  0  0  0  0  0  0  0
   56.2510   29.5300   44.4850 C   0  0  0  0  0  0  0  0  0  0  0  0
   56.4740   30.8270   43.9940 C   0  0  0  0  0  0  0  0  0  0  0  0
   57.6630   31.5290   44.3020 C   0  0  0  0  0  0  0  0  0  0  0  0
   57.8180   32.8270   43.7890 O   0  0  0  0  0  0  0  0  0  0  0  0
   57.6170   34.0350   44.5250 C   0  0  0  0  0  0  0  0  0  0  0  0
   58.3610   34.0010   45.8350 C   0  0  0  0  0  0  0  0  0  0  0  0
   59.5970   34.6580   45.9630 C   0  0  0  0  0  0  0  0  0  0  0  0
   60.2860   34.6310   47.1790 C   0  0  0  0  0  0  0  0  0  0  0  0
   59.7430   33.9570   48.2770 C   0  0  0  0  0  0  0  0  0  0  0  0
   58.5080   33.3140   48.1620 C   0  0  0  0  0  0  0  0  0  0  0  0
   57.8140   33.3390   46.9490 C   0  0  0  0  0  0  0  0  0  0  0  0
   58.6480   30.9150   45.1130 C   0  0  0  0  0  0  0  0  0  0  0  0
   58.4160   29.6170   45.5740 C   0  0  0  0  0  0  0  0  0  0  0  0
   62.9097   31.6291   47.4426 H   0  0  0  0  0  0  0  0  0  0  0  0
   61.8992   30.4394   46.5538 H   0  0  0  0  0  0  0  0  0  0  0  0
   61.4484   32.1782   46.5538 H   0  0  0  0  0  0  0  0  0  0  0  0
   61.3183   31.1724   50.4581 H   0  0  0  0  0  0  0  0  0  0  0  0
   62.6431   30.3796   49.5399 H   0  0  0  0  0  0  0  0  0  0  0  0
   62.4967   32.1699   49.5399 H   0  0  0  0  0  0  0  0  0  0  0  0
   60.8081   29.1666   49.0355 H   0  0  0  0  0  0  0  0  0  0  0  0
   59.3056   30.0029   48.4868 H   0  0  0  0  0  0  0  0  0  0  0  0
   61.0071   29.9593   46.2228 H   0  0  0  0  0  0  0  0  0  0  0  0
   61.1593   28.3269   46.9702 H   0  0  0  0  0  0  0  0  0  0  0  0
   59.8602   26.5890   47.8749 H   0  0  0  0  0  0  0  0  0  0  0  0
   58.2728   24.6445   48.0315 H   0  0  0  0  0  0  0  0  0  0  0  0
   53.4192   23.0036   47.5361 H   0  0  0  0  0  0  0  0  0  0  0  0
   52.3597   23.1408   46.0920 H   0  0  0  0  0  0  0  0  0  0  0  0
   53.7324   21.9822   46.0920 H   0  0  0  0  0  0  0  0  0  0  0  0
   55.4488   26.7240   45.4431 H   0  0  0  0  0  0  0  0  0  0  0  0
   55.3228   28.9866   44.2544 H   0  0  0  0  0  0  0  0  0  0  0  0
   55.7122   31.3043   43.3601 H   0  0  0  0  0  0  0  0  0  0  0  0
   57.9796   34.8845   43.9276 H   0  0  0  0  0  0  0  0  0  0  0  0
   56.5426   34.1418   44.7355 H   0  0  0  0  0  0  0  0  0  0  0  0
   60.0236   35.1953   45.1032 H   0  0  0  0  0  0  0  0  0  0  0  0
   61.2564   35.1406   47.2721 H   0  0  0  0  0  0  0  0  0  0  0  0
   60.2884   33.9330   49.2319 H   0  0  0  0  0  0  0  0  0  0  0  0
   58.0809   32.7869   49.0279 H   0  0  0  0  0  0  0  0  0  0  0  0
   56.8375   32.8396   46.8654 H   0  0  0  0  0  0  0  0  0  0  0  0
   59.5743   31.4478   45.3739 H   0  0  0  0  0  0  0  0  0  0  0  0
  1  2  1  0
  2  3  1  0
  2  4  1  0
  4  5  1  0
  5  6  1  0
  6  7  1  0
  7  8  2  0
  8  9  1  0
  9 10  2  0
 10 11  1  0
 11 12  1  0
 12 13  1  0
 12 14  2  0
 12 15  2  0
 10 16  1  0
 16 17  2  0
 17 18  1  0
 18 19  2  0
 19 20  1  0
 20 21  2  0
 21 22  1  0
 22 23  1  0
 23 24  1  0
 24 25  2  0
 25 26  1  0
 26 27  2  0
 27 28  1  0
 28 29  2  0
 21 30  1  0
 30 31  2  0
 31  6  1  0
 17  7  1  0
 31 18  1  0
 29 24  1  0
  1 32  1  0
  1 33  1  0
  1 34  1  0
  3 35  1  0
  3 36  1  0
  3 37  1  0
  4 38  1  0
  4 39  1  0
  5 40  1  0
  5 41  1  0
  8 42  1  0
  9 43  1  0
 13 44  1  0
 13 45  1  0
 13 46  1  0
 16 47  1  0
 19 48  1  0
 20 49  1  0
 23 50  1  0
 23 51  1  0
 25 52  1  0
 26 53  1  0
 27 54  1  0
 28 55  1  0
 29 56  1  0
 30 57  1  0
M  CHG  1  11  -1
M  END
>  <UniqueID>  (86) 
76

>  <SMILES>  (86) 
CN(C)CCn1c2ccc([N-]S(C)(=O)=O)cc2c2ccc(OCc3ccccc3)cc21

>  <Energy>  (86) 
97.90743906132397

>  <Genealogy>  (86) 
CN(C)CCn1c2ccc([N-]S(C)(=O)=O)cc2c2ccc(OCc3ccccc3)cc21 (protonated)
CN(C)CCn1c2ccc([N-]S(C)(=O)=O)cc2c2ccc(OCc3ccccc3)cc21 (3D coordinates assigned)
CN(C)CCn1c2ccc([N-]S(C)(=O)=O)cc2c2ccc(OCc3ccccc3)cc21 (optimized conformer: 97.90743906132397 kcal/mol)

>  <smiles>  (86) 
CN(C)CCn1c2ccc(NS(C)(=O)=O)cc2c2ccc(OCc3ccccc3)cc21

>  <score_type>  (86) 
oracle

>  <origin>  (86) 
adg

>  <m_score__min__energy>  (86) 
-10.390000000000001

>  <m_primary>  (86) 
energy

$$$$
86:0
     RDKit          3D

 55 57  0  0  0  0  0  0  0  0999 V2000
   55.1390   30.9080   44.1090 O   0  0  0  0  0  0  0  0  0  0  0  0
   55.9070   29.9180   44.2470 C   0  0  0  0  0  0  0  0  0  0  0  0
   57.2050   29.8710   43.5000 C   0  0  0  0  0  0  0  0  0  0  0  0
   58.2650   30.8130   44.1040 C   0  0  0  0  0  0  0  0  0  0  0  0
   57.7080   31.8680   45.0750 C   0  0  0  0  0  0  0  0  0  0  0  0
   58.6760   32.1990   46.1760 C   0  0  0  0  0  0  0  0  0  0  0  0
   58.4050   33.1200   46.9930 O   0  0  0  0  0  0  0  0  0  0  0  0
   59.8880   31.4390   46.3070 N   0  0  0  0  0  0  0  0  0  0  0  0
   61.1420   31.9740   46.7740 C   0  0  0  0  0  0  0  0  0  0  0  0
   62.1630   31.0850   47.1590 C   0  0  0  0  0  0  0  0  0  0  0  0
   63.3990   31.5740   47.5820 C   0  0  0  0  0  0  0  0  0  0  0  0
   63.6390   32.9490   47.6290 C   0  0  0  0  0  0  0  0  0  0  0  0
   62.6470   33.8380   47.2250 C   0  0  0  0  0  0  0  0  0  0  0  0
   61.4070   33.3560   46.7860 C   0  0  0  0  0  0  0  0  0  0  0  0
   55.5300   28.8120   45.0770 N   0  0  0  0  0  0  0  0  0  0  0  0
   56.4220   27.8330   45.6250 C   0  0  0  0  0  0  0  0  0  0  0  0
   57.8040   28.0750   45.7270 C   0  0  0  0  0  0  0  0  0  0  0  0
   58.6600   27.0960   46.2460 C   0  0  0  0  0  0  0  0  0  0  0  0
   60.3840   27.4170   46.4290 S   0  0  0  0  0  0  0  0  0  0  0  0
   61.1520   26.1850   46.0420 O   0  0  0  0  0  0  0  0  0  0  0  0
   60.8000   28.5410   45.5210 O   0  0  0  0  0  0  0  0  0  0  0  0
   60.7650   27.8280   48.0740 N   0  0  0  0  0  0  0  0  0  0  0  0
   59.5790   28.3110   48.7900 C   0  0  0  0  0  0  0  0  0  0  0  0
   59.8380   29.6730   49.3710 C   0  0  0  0  0  0  0  0  0  0  0  0
   58.8910   30.7010   49.2480 C   0  0  0  0  0  0  0  0  0  0  0  0
   59.1440   31.9650   49.7830 C   0  0  0  0  0  0  0  0  0  0  0  0
   60.3560   32.2190   50.4220 C   0  0  0  0  0  0  0  0  0  0  0  0
   61.3110   31.2070   50.5340 C   0  0  0  0  0  0  0  0  0  0  0  0
   61.0520   29.9360   50.0180 C   0  0  0  0  0  0  0  0  0  0  0  0
   58.1380   25.8610   46.6370 C   0  0  0  0  0  0  0  0  0  0  0  0
   56.7730   25.5980   46.5020 C   0  0  0  0  0  0  0  0  0  0  0  0
   55.9160   26.5770   45.9950 C   0  0  0  0  0  0  0  0  0  0  0  0
   54.5610   26.2950   45.8590 O   0  0  0  0  0  0  0  0  0  0  0  0
   57.5910   28.8413   43.5270 H   0  0  0  0  0  0  0  0  0  0  0  0
   57.0108   30.2018   42.4690 H   0  0  0  0  0  0  0  0  0  0  0  0
   58.9984   30.1997   44.6481 H   0  0  0  0  0  0  0  0  0  0  0  0
   58.7047   31.3671   43.2616 H   0  0  0  0  0  0  0  0  0  0  0  0
   57.4869   32.7860   44.5108 H   0  0  0  0  0  0  0  0  0  0  0  0
   56.8011   31.4525   45.5386 H   0  0  0  0  0  0  0  0  0  0  0  0
   59.8760   30.4490   45.9800 H   0  0  0  0  0  0  0  0  0  0  0  0
   61.9855   29.9999   47.1262 H   0  0  0  0  0  0  0  0  0  0  0  0
   64.1907   30.8712   47.8808 H   0  0  0  0  0  0  0  0  0  0  0  0
   64.6086   33.3282   47.9841 H   0  0  0  0  0  0  0  0  0  0  0  0
   62.8371   34.9212   47.2505 H   0  0  0  0  0  0  0  0  0  0  0  0
   60.6349   34.0630   46.4482 H   0  0  0  0  0  0  0  0  0  0  0  0
   58.2152   29.0403   45.3966 H   0  0  0  0  0  0  0  0  0  0  0  0
   58.7321   28.3701   48.0905 H   0  0  0  0  0  0  0  0  0  0  0  0
   59.3455   27.6124   49.6070 H   0  0  0  0  0  0  0  0  0  0  0  0
   57.9420   30.5092   48.7259 H   0  0  0  0  0  0  0  0  0  0  0  0
   58.3878   32.7595   49.7004 H   0  0  0  0  0  0  0  0  0  0  0  0
   60.5601   33.2166   50.8380 H   0  0  0  0  0  0  0  0  0  0  0  0
   62.2709   31.4118   51.0306 H   0  0  0  0  0  0  0  0  0  0  0  0
   61.8033   29.1390   50.1198 H   0  0  0  0  0  0  0  0  0  0  0  0
   58.8051   25.0918   47.0533 H   0  0  0  0  0  0  0  0  0  0  0  0
   56.3719   24.6168   46.7959 H   0  0  0  0  0  0  0  0  0  0  0  0
  1  2  2  0
  2  3  1  0
  3  4  1  0
  4  5  1  0
  5  6  1  0
  6  7  2  0
  6  8  1  0
  8  9  1  0
  9 10  2  0
 10 11  1  0
 11 12  2  0
 12 13  1  0
 13 14  2  0
  2 15  1  0
 15 16  1  0
 16 17  2  0
 17 18  1  0
 18 19  1  0
 19 20  2  0
 19 21  2  0
 19 22  1  0
 22 23  1  0
 23 24  1  0
 24 25  2  0
 25 26  1  0
 26 27  2  0
 27 28  1  0
 28 29  2  0
 18 30  2  0
 30 31  1  0
 31 32  2  0
 32 33  1  0
 14  9  1  0
 32 16  1  0
 29 24  1  0
  3 34  1  0
  3 35  1  0
  4 36  1  0
  4 37  1  0
  5 38  1  0
  5 39  1  0
  8 40  1  0
 10 41  1  0
 11 42  1  0
 12 43  1  0
 13 44  1  0
 14 45  1  0
 17 46  1  0
 23 47  1  0
 23 48  1  0
 25 49  1  0
 26 50  1  0
 27 51  1  0
 28 52  1  0
 29 53  1  0
 30 54  1  0
 31 55  1  0
M  CHG  3  15  -1  22  -1  33  -1
M  END
>  <UniqueID>  (87) 
77

>  <SMILES>  (87) 
O=C(CCCC(=O)Nc1ccccc1)[N-]c1cc(S(=O)(=O)[N-]Cc2ccccc2)ccc1[O-]

>  <Energy>  (87) 
53.18492270186819

>  <Genealogy>  (87) 
O=C(CCCC(=O)Nc1ccccc1)[N-]c1cc(S(=O)(=O)[N-]Cc2ccccc2)ccc1[O-] (protonated)
O=C(CCCC(=O)Nc1ccccc1)[N-]c1cc(S(=O)(=O)[N-]Cc2ccccc2)ccc1[O-] (3D coordinates assigned)
O=C(CCCC(=O)Nc1ccccc1)[N-]c1cc(S(=O)(=O)[N-]Cc2ccccc2)ccc1[O-] (optimized conformer: 53.18492270186819 kcal/mol)

>  <smiles>  (87) 
O=C(CCCC(=O)Nc1cc(S(=O)(=O)NCc2ccccc2)ccc1O)Nc1ccccc1

>  <score_type>  (87) 
oracle

>  <origin>  (87) 
adg

>  <m_score__min__energy>  (87) 
-16.18

>  <m_primary>  (87) 
energy

$$$$
87:0
     RDKit          3D

 40 42  0  0  0  0  0  0  0  0999 V2000
   62.4280   33.2580   46.8070 C   0  0  0  0  0  0  0  0  0  0  0  0
   60.9330   33.3660   46.9080 C   0  0  0  0  0  0  0  0  0  0  0  0
   60.3010   34.6090   46.7310 C   0  0  0  0  0  0  0  0  0  0  0  0
   58.9120   34.7130   46.8170 C   0  0  0  0  0  0  0  0  0  0  0  0
   58.1410   33.5800   47.0820 C   0  0  0  0  0  0  0  0  0  0  0  0
   58.7560   32.3380   47.2530 C   0  0  0  0  0  0  0  0  0  0  0  0
   60.1550   32.2150   47.1490 C   0  0  0  0  0  0  0  0  0  0  0  0
   60.8010   30.9820   47.3250 O   0  0  0  0  0  0  0  0  0  0  0  0
   60.5020   29.8030   46.6270 C   0  0  0  0  0  0  0  0  0  0  0  0
   61.1490   29.4950   45.5870 O   0  0  0  0  0  0  0  0  0  0  0  0
   59.4750   28.9260   47.1210 N   0  0  0  0  0  0  0  0  0  0  0  0
   58.9690   29.1120   48.4830 C   0  0  0  0  0  0  0  0  0  0  0  0
   59.0180   27.8120   46.3330 C   0  0  0  0  0  0  0  0  0  0  0  0
   59.4680   26.5190   46.6510 C   0  0  0  0  0  0  0  0  0  0  0  0
   58.9770   25.4080   45.9650 C   0  0  0  0  0  0  0  0  0  0  0  0
   58.0240   25.5710   44.9590 C   0  0  0  0  0  0  0  0  0  0  0  0
   57.5690   26.8490   44.6280 C   0  0  0  0  0  0  0  0  0  0  0  0
   58.0690   27.9810   45.2940 C   0  0  0  0  0  0  0  0  0  0  0  0
   57.5860   29.3150   44.8820 C   0  0  0  0  0  0  0  0  0  0  0  0
   58.3840   30.3660   44.6290 N   0  0  0  0  0  0  0  0  0  0  0  0
   57.5400   31.3710   44.3240 C   0  0  0  0  0  0  0  0  0  0  0  0
   57.9320   32.5270   44.0140 O   0  0  0  0  0  0  0  0  0  0  0  0
   56.2340   31.0320   44.3830 N   0  0  0  0  0  0  0  0  0  0  0  0
   56.2780   29.7350   44.7430 C   0  0  0  0  0  0  0  0  0  0  0  0
   55.1450   28.9660   44.9740 O   0  0  0  0  0  0  0  0  0  0  0  0
   62.8624   33.2266   47.8171 H   0  0  0  0  0  0  0  0  0  0  0  0
   62.6934   32.3383   46.2650 H   0  0  0  0  0  0  0  0  0  0  0  0
   62.8228   34.1300   46.2650 H   0  0  0  0  0  0  0  0  0  0  0  0
   60.9047   35.5048   46.5235 H   0  0  0  0  0  0  0  0  0  0  0  0
   58.4243   35.6888   46.6758 H   0  0  0  0  0  0  0  0  0  0  0  0
   57.0469   33.6656   47.1563 H   0  0  0  0  0  0  0  0  0  0  0  0
   58.1439   31.4502   47.4703 H   0  0  0  0  0  0  0  0  0  0  0  0
   59.7474   28.8259   49.2056 H   0  0  0  0  0  0  0  0  0  0  0  0
   58.6997   30.1679   48.6331 H   0  0  0  0  0  0  0  0  0  0  0  0
   58.0799   28.4819   48.6331 H   0  0  0  0  0  0  0  0  0  0  0  0
   60.2139   26.3819   47.4478 H   0  0  0  0  0  0  0  0  0  0  0  0
   59.3419   24.4015   46.2176 H   0  0  0  0  0  0  0  0  0  0  0  0
   57.6310   24.6924   44.4264 H   0  0  0  0  0  0  0  0  0  0  0  0
   56.8124   26.9708   43.8389 H   0  0  0  0  0  0  0  0  0  0  0  0
   59.4280   30.3970   44.6500 H   0  0  0  0  0  0  0  0  0  0  0  0
  1  2  1  0
  2  3  2  0
  3  4  1  0
  4  5  2  0
  5  6  1  0
  6  7  2  0
  7  8  1  0
  8  9  1  0
  9 10  2  0
  9 11  1  0
 11 12  1  0
 11 13  1  0
 13 14  2  0
 14 15  1  0
 15 16  2  0
 16 17  1  0
 17 18  2  0
 18 19  1  0
 19 20  1  0
 20 21  1  0
 21 22  2  0
 21 23  1  0
 23 24  1  0
 24 25  1  0
  7  2  1  0
 18 13  1  0
 24 19  2  0
  1 26  1  0
  1 27  1  0
  1 28  1  0
  3 29  1  0
  4 30  1  0
  5 31  1  0
  6 32  1  0
 12 33  1  0
 12 34  1  0
 12 35  1  0
 14 36  1  0
 15 37  1  0
 16 38  1  0
 17 39  1  0
 20 40  1  0
M  CHG  2  23  -1  25  -1
M  END
>  <UniqueID>  (88) 
78

>  <SMILES>  (88) 
Cc1ccccc1OC(=O)N(C)c1ccccc1-c1[nH]c(=O)[n-]c1[O-]

>  <Energy>  (88) 
87.89586283505783

>  <Genealogy>  (88) 
Cc1ccccc1OC(=O)N(C)c1ccccc1-c1[nH]c(=O)[n-]c1[O-] (protonated)
Cc1ccccc1OC(=O)N(C)c1ccccc1-c1[nH]c(=O)[n-]c1[O-] (3D coordinates assigned)
Cc1ccccc1OC(=O)N(C)c1ccccc1-c1[nH]c(=O)[n-]c1[O-] (optimized conformer: 87.89586283505783 kcal/mol)

>  <smiles>  (88) 
Cc1ccccc1OC(=O)N(C)c1ccccc1-c1[nH]c(=O)[nH]c1O

>  <score_type>  (88) 
oracle

>  <origin>  (88) 
adg

>  <m_score__min__energy>  (88) 
-14.09

>  <m_primary>  (88) 
energy

$$$$
88:0
     RDKit          3D

 45 48  0  0  0  0  0  0  0  0999 V2000
   55.9020   25.2880   46.8210 O   0  0  0  0  0  0  0  0  0  0  0  0
   56.8820   25.0370   46.0700 C   0  0  0  0  0  0  0  0  0  0  0  0
   58.0380   25.8840   46.1460 N   0  0  0  0  0  0  0  0  0  0  0  0
   58.0590   27.3050   45.9500 C   0  0  0  0  0  0  0  0  0  0  0  0
   56.8960   27.9450   45.5080 C   0  0  0  0  0  0  0  0  0  0  0  0
   56.8830   29.3270   45.2980 C   0  0  0  0  0  0  0  0  0  0  0  0
   58.0430   30.0880   45.5120 C   0  0  0  0  0  0  0  0  0  0  0  0
   58.0230   31.5470   45.2950 C   0  0  0  0  0  0  0  0  0  0  0  0
   56.9540   32.2390   44.8490 N   0  0  0  0  0  0  0  0  0  0  0  0
   57.3310   33.5060   44.7810 N   0  0  0  0  0  0  0  0  0  0  0  0
   58.6140   33.5360   45.1850 C   0  0  0  0  0  0  0  0  0  0  0  0
   59.6040   35.0250   45.2660 S   0  0  0  0  0  0  0  0  0  0  0  0
   59.8320   34.9560   47.0780 C   0  0  0  0  0  0  0  0  0  0  0  0
   60.4940   33.6650   47.4910 C   0  0  0  0  0  0  0  0  0  0  0  0
   59.8020   32.7480   48.3050 C   0  0  0  0  0  0  0  0  0  0  0  0
   58.5320   33.0050   48.7090 F   0  0  0  0  0  0  0  0  0  0  0  0
   60.4210   31.5610   48.7110 C   0  0  0  0  0  0  0  0  0  0  0  0
   61.7290   31.2790   48.3120 C   0  0  0  0  0  0  0  0  0  0  0  0
   62.4250   32.1840   47.5070 C   0  0  0  0  0  0  0  0  0  0  0  0
   61.8150   33.3730   47.0960 C   0  0  0  0  0  0  0  0  0  0  0  0
   62.5160   34.2390   46.3200 F   0  0  0  0  0  0  0  0  0  0  0  0
   59.0460   32.3410   45.5050 O   0  0  0  0  0  0  0  0  0  0  0  0
   59.2180   29.4420   45.9310 C   0  0  0  0  0  0  0  0  0  0  0  0
   59.2290   28.0600   46.1410 C   0  0  0  0  0  0  0  0  0  0  0  0
   56.8310   23.8530   45.1800 C   0  0  0  0  0  0  0  0  0  0  0  0
   57.3020   22.6010   45.6150 C   0  0  0  0  0  0  0  0  0  0  0  0
   57.2490   21.4920   44.7670 C   0  0  0  0  0  0  0  0  0  0  0  0
   56.7140   21.6150   43.4790 C   0  0  0  0  0  0  0  0  0  0  0  0
   56.6560   20.5160   42.6250 O   0  0  0  0  0  0  0  0  0  0  0  0
   56.2280   22.8530   43.0450 C   0  0  0  0  0  0  0  0  0  0  0  0
   56.2810   23.9650   43.8900 C   0  0  0  0  0  0  0  0  0  0  0  0
   55.9851   27.3563   45.3244 H   0  0  0  0  0  0  0  0  0  0  0  0
   55.9588   29.8208   44.9633 H   0  0  0  0  0  0  0  0  0  0  0  0
   60.4623   35.8004   47.3936 H   0  0  0  0  0  0  0  0  0  0  0  0
   58.8438   35.0121   47.5579 H   0  0  0  0  0  0  0  0  0  0  0  0
   59.8757   30.8477   49.3465 H   0  0  0  0  0  0  0  0  0  0  0  0
   62.2117   30.3437   48.6317 H   0  0  0  0  0  0  0  0  0  0  0  0
   63.4560   31.9605   47.1956 H   0  0  0  0  0  0  0  0  0  0  0  0
   60.1349   30.0272   46.0948 H   0  0  0  0  0  0  0  0  0  0  0  0
   60.1572   27.5614   46.4570 H   0  0  0  0  0  0  0  0  0  0  0  0
   57.7146   22.4944   46.6291 H   0  0  0  0  0  0  0  0  0  0  0  0
   57.6288   20.5191   45.1123 H   0  0  0  0  0  0  0  0  0  0  0  0
   57.0110   19.6100   42.9040 H   0  0  0  0  0  0  0  0  0  0  0  0
   55.8027   22.9515   42.0353 H   0  0  0  0  0  0  0  0  0  0  0  0
   55.8904   24.9335   43.5444 H   0  0  0  0  0  0  0  0  0  0  0  0
  1  2  2  0
  2  3  1  0
  3  4  1  0
  4  5  2  0
  5  6  1  0
  6  7  2  0
  7  8  1  0
  8  9  2  0
  9 10  1  0
 10 11  2  0
 11 12  1  0
 12 13  1  0
 13 14  1  0
 14 15  2  0
 15 16  1  0
 15 17  1  0
 17 18  2  0
 18 19  1  0
 19 20  2  0
 20 21  1  0
 11 22  1  0
  7 23  1  0
 23 24  2  0
  2 25  1  0
 25 26  2  0
 26 27  1  0
 27 28  2  0
 28 29  1  0
 28 30  1  0
 30 31  2  0
 24  4  1  0
 31 25  1  0
 22  8  1  0
 20 14  1  0
  5 32  1  0
  6 33  1  0
 13 34  1  0
 13 35  1  0
 17 36  1  0
 18 37  1  0
 19 38  1  0
 23 39  1  0
 24 40  1  0
 26 41  1  0
 27 42  1  0
 29 43  1  0
 30 44  1  0
 31 45  1  0
M  CHG  1   3  -1
M  END
>  <UniqueID>  (89) 
79

>  <SMILES>  (89) 
O=C([N-]c1ccc(-c2nnc(SCc3c(F)cccc3F)o2)cc1)c1ccc(O)cc1

>  <Energy>  (89) 
87.72213240676764

>  <Genealogy>  (89) 
O=C([N-]c1ccc(-c2nnc(SCc3c(F)cccc3F)o2)cc1)c1ccc(O)cc1 (protonated)
O=C([N-]c1ccc(-c2nnc(SCc3c(F)cccc3F)o2)cc1)c1ccc(O)cc1 (3D coordinates assigned)
O=C([N-]c1ccc(-c2nnc(SCc3c(F)cccc3F)o2)cc1)c1ccc(O)cc1 (optimized conformer: 87.72213240676764 kcal/mol)

>  <smiles>  (89) 
O=C(Nc1ccc(-c2nnc(SCc3c(F)cccc3F)o2)cc1)c1ccc(O)cc1

>  <score_type>  (89) 
oracle

>  <origin>  (89) 
adg

>  <m_score__min__energy>  (89) 
-10.960000000000001

>  <m_primary>  (89) 
energy

$$$$
89:0
     RDKit          3D

 42 44  0  0  0  0  0  0  0  0999 V2000
   55.4810   25.6750   47.1160 H   0  0  0  0  0  0  0  0  0  0  0  0
   55.7110   26.0550   46.1700 N   0  0  0  0  0  0  0  0  0  0  0  0
   56.5640   27.0160   46.0150 C   0  0  0  0  0  0  0  0  0  0  0  0
   57.8660   26.8310   46.3580 N   0  0  0  0  0  0  0  0  0  0  0  0
   58.7620   27.8360   46.2000 C   0  0  0  0  0  0  0  0  0  0  0  0
   60.2040   27.6160   46.5340 C   0  0  0  0  0  0  0  0  0  0  0  0
   60.5282   26.6526   46.1136 H   0  0  0  0  0  0  0  0  0  0  0  0
   60.7938   28.4399   46.1057 H   0  0  0  0  0  0  0  0  0  0  0  0
   60.4580   27.5950   48.3440 S   0  0  0  0  0  0  0  0  0  0  0  0
   60.2000   29.3590   48.5600 C   0  0  0  0  0  0  0  0  0  0  0  0
   61.0400   30.2740   47.9140 C   0  0  0  0  0  0  0  0  0  0  0  0
   61.8471   29.9115   47.2604 H   0  0  0  0  0  0  0  0  0  0  0  0
   60.8550   31.6480   48.0980 C   0  0  0  0  0  0  0  0  0  0  0  0
   61.5263   32.3629   47.5997 H   0  0  0  0  0  0  0  0  0  0  0  0
   59.8160   32.1180   48.9160 C   0  0  0  0  0  0  0  0  0  0  0  0
   59.6470   33.5900   49.1480 C   0  0  0  0  0  0  0  0  0  0  0  0
   59.6240   33.7905   50.2293 H   0  0  0  0  0  0  0  0  0  0  0  0
   60.4888   34.1320   48.6924 H   0  0  0  0  0  0  0  0  0  0  0  0
   58.7042   33.9271   48.6924 H   0  0  0  0  0  0  0  0  0  0  0  0
   58.9800   31.1960   49.5670 C   0  0  0  0  0  0  0  0  0  0  0  0
   58.1744   31.5556   50.2240 H   0  0  0  0  0  0  0  0  0  0  0  0
   59.1680   29.8230   49.3830 C   0  0  0  0  0  0  0  0  0  0  0  0
   58.5030   29.1058   49.8864 H   0  0  0  0  0  0  0  0  0  0  0  0
   58.3580   29.0250   45.6900 N   0  0  0  0  0  0  0  0  0  0  0  0
   57.0610   29.2170   45.3300 C   0  0  0  0  0  0  0  0  0  0  0  0
   56.6610   30.3600   44.8480 N   0  0  0  0  0  0  0  0  0  0  0  0
   57.3730   31.6100   44.9000 C   0  0  0  0  0  0  0  0  0  0  0  0
   57.7320   32.1940   46.1300 C   0  0  0  0  0  0  0  0  0  0  0  0
   57.4473   31.7024   47.0719 H   0  0  0  0  0  0  0  0  0  0  0  0
   58.4470   33.3930   46.1620 C   0  0  0  0  0  0  0  0  0  0  0  0
   58.7061   33.8523   47.1273 H   0  0  0  0  0  0  0  0  0  0  0  0
   58.8330   34.0090   44.9720 C   0  0  0  0  0  0  0  0  0  0  0  0
   59.3897   34.9573   45.0000 H   0  0  0  0  0  0  0  0  0  0  0  0
   58.5140   33.4240   43.7450 C   0  0  0  0  0  0  0  0  0  0  0  0
   58.8305   33.9085   42.8096 H   0  0  0  0  0  0  0  0  0  0  0  0
   57.7910   32.2200   43.6980 C   0  0  0  0  0  0  0  0  0  0  0  0
   57.4590   31.5960   42.3710 C   0  0  0  0  0  0  0  0  0  0  0  0
   56.9481   30.6357   42.5349 H   0  0  0  0  0  0  0  0  0  0  0  0
   56.8001   32.2697   41.8036 H   0  0  0  0  0  0  0  0  0  0  0  0
   58.3859   31.4260   41.8036 H   0  0  0  0  0  0  0  0  0  0  0  0
   56.1610   28.2120   45.5070 N   0  0  0  0  0  0  0  0  0  0  0  0
   55.1590   28.3560   45.2420 H   0  0  0  0  0  0  0  0  0  0  0  0
  1  2  1  0
  2  3  2  0
  3  4  1  0
  4  5  2  0
  5  6  1  0
  6  7  1  0
  6  8  1  0
  6  9  1  0
  9 10  1  0
 10 11  2  0
 11 12  1  0
 11 13  1  0
 13 14  1  0
 13 15  2  0
 15 16  1  0
 16 17  1  0
 16 18  1  0
 16 19  1  0
 15 20  1  0
 20 21  1  0
 20 22  2  0
 22 23  1  0
  5 24  1  0
 24 25  1  0
 25 26  2  0
 26 27  1  0
 27 28  2  0
 28 29  1  0
 28 30  1  0
 30 31  1  0
 30 32  2  0
 32 33  1  0
 32 34  1  0
 34 35  1  0
 34 36  2  0
 36 37  1  0
 37 38  1  0
 37 39  1  0
 37 40  1  0
 25 41  1  0
 41 42  1  0
 41  3  1  0
 22 10  1  0
 36 27  1  0
M  CHG  1  24  -1
M  END
>  <UniqueID>  (90) 
80

>  <SMILES>  (90) 
[H]/N=c1\nc(CSc2ccc(C)cc2)[n-]/c(=N\c2ccccc2C)[nH]1

>  <Energy>  (90) 
43.79103134230982

>  <Genealogy>  (90) 
Cc1ccc(SCc2nc(=N)[nH]c(=Nc3ccccc3C)[n-]2)cc1 (protonated)
[H]/N=c1\nc(CSc2ccc(C)cc2)[n-]/c(=N\c2ccccc2C)[nH]1 (cis-trans isomerization)
[H]/N=c1\nc(CSc2ccc(C)cc2)[n-]/c(=N\c2ccccc2C)[nH]1 (3D coordinates assigned)
[H]/N=c1\nc(CSc2ccc(C)cc2)[n-]/c(=N\c2ccccc2C)[nH]1 (optimized conformer: 43.79103134230982 kcal/mol)

>  <smiles>  (90) 
Cc1ccc(SCc2nc(=N)[nH]c(=Nc3ccccc3C)[nH]2)cc1

>  <score_type>  (90) 
oracle

>  <origin>  (90) 
adg

>  <m_score__min__energy>  (90) 
-9.8000000000000007

>  <m_primary>  (90) 
energy

$$$$
90:0
     RDKit          3D

 49 52  0  0  0  0  0  0  0  0999 V2000
   61.5499   34.0089   48.2625 H   0  0  0  0  0  0  0  0  0  0  0  0
   61.0950   33.0160   48.1310 C   0  0  0  0  0  0  0  0  0  0  0  0
   59.9380   32.6770   48.8390 C   0  0  0  0  0  0  0  0  0  0  0  0
   59.4767   33.4073   49.5201 H   0  0  0  0  0  0  0  0  0  0  0  0
   59.3670   31.4110   48.6820 C   0  0  0  0  0  0  0  0  0  0  0  0
   58.4466   31.1556   49.2276 H   0  0  0  0  0  0  0  0  0  0  0  0
   59.9590   30.4640   47.8340 C   0  0  0  0  0  0  0  0  0  0  0  0
   59.3230   29.1840   47.6800 N   0  0  0  0  0  0  0  0  0  0  0  0
   58.3210   28.8990   46.8990 C   0  0  0  0  0  0  0  0  0  0  0  0
   57.7700   29.8360   46.0860 N   0  0  0  0  0  0  0  0  0  0  0  0
   56.7430   29.5210   45.2590 C   0  0  0  0  0  0  0  0  0  0  0  0
   56.2490   30.4530   44.4970 N   0  0  0  0  0  0  0  0  0  0  0  0
   57.0120   31.3550   43.6370 C   0  0  0  0  0  0  0  0  0  0  0  0
   56.3538   31.7617   42.8551 H   0  0  0  0  0  0  0  0  0  0  0  0
   57.8394   30.8038   43.1663 H   0  0  0  0  0  0  0  0  0  0  0  0
   57.5630   32.4800   44.4640 C   0  0  0  0  0  0  0  0  0  0  0  0
   57.0470   32.7360   45.7460 C   0  0  0  0  0  0  0  0  0  0  0  0
   56.2161   32.1286   46.1340 H   0  0  0  0  0  0  0  0  0  0  0  0
   57.5870   33.7610   46.5300 C   0  0  0  0  0  0  0  0  0  0  0  0
   57.1730   33.9652   47.5285 H   0  0  0  0  0  0  0  0  0  0  0  0
   58.6520   34.5260   46.0460 C   0  0  0  0  0  0  0  0  0  0  0  0
   59.0740   35.3332   46.6628 H   0  0  0  0  0  0  0  0  0  0  0  0
   59.1810   34.2660   44.7790 C   0  0  0  0  0  0  0  0  0  0  0  0
   60.0215   34.8665   44.4008 H   0  0  0  0  0  0  0  0  0  0  0  0
   58.6430   33.2430   43.9910 C   0  0  0  0  0  0  0  0  0  0  0  0
   59.0673   33.0355   42.9976 H   0  0  0  0  0  0  0  0  0  0  0  0
   56.2590   28.2420   45.2440 N   0  0  0  0  0  0  0  0  0  0  0  0
   55.4570   27.9980   44.6280 H   0  0  0  0  0  0  0  0  0  0  0  0
   56.8280   27.2880   46.0420 C   0  0  0  0  0  0  0  0  0  0  0  0
   56.4190   26.0500   46.0370 N   0  0  0  0  0  0  0  0  0  0  0  0
   57.2180   24.8550   46.3180 C   0  0  0  0  0  0  0  0  0  0  0  0
   58.2684   25.1495   46.4594 H   0  0  0  0  0  0  0  0  0  0  0  0
   56.8263   24.3772   47.2281 H   0  0  0  0  0  0  0  0  0  0  0  0
   57.1310   23.8680   45.1810 C   0  0  0  0  0  0  0  0  0  0  0  0
   57.9540   22.7290   45.1720 C   0  0  0  0  0  0  0  0  0  0  0  0
   58.6635   22.5596   45.9954 H   0  0  0  0  0  0  0  0  0  0  0  0
   57.8750   21.8100   44.1210 C   0  0  0  0  0  0  0  0  0  0  0  0
   58.5271   20.9241   44.1156 H   0  0  0  0  0  0  0  0  0  0  0  0
   56.9680   22.0160   43.0770 C   0  0  0  0  0  0  0  0  0  0  0  0
   56.9074   21.2929   42.2503 H   0  0  0  0  0  0  0  0  0  0  0  0
   56.1390   23.1400   43.0840 C   0  0  0  0  0  0  0  0  0  0  0  0
   55.4258   23.3012   42.2622 H   0  0  0  0  0  0  0  0  0  0  0  0
   56.2140   24.0610   44.1340 C   0  0  0  0  0  0  0  0  0  0  0  0
   55.5525   24.9399   44.1401 H   0  0  0  0  0  0  0  0  0  0  0  0
   57.8530   27.6280   46.8630 N   0  0  0  0  0  0  0  0  0  0  0  0
   61.1050   30.8240   47.0990 C   0  0  0  0  0  0  0  0  0  0  0  0
   61.5550   30.1049   46.3987 H   0  0  0  0  0  0  0  0  0  0  0  0
   61.6730   32.0920   47.2560 C   0  0  0  0  0  0  0  0  0  0  0  0
   62.5764   32.3628   46.6898 H   0  0  0  0  0  0  0  0  0  0  0  0
  1  2  1  0
  2  3  2  0
  3  4  1  0
  3  5  1  0
  5  6  1  0
  5  7  2  0
  7  8  1  0
  8  9  2  3
  9 10  1  0
 10 11  1  0
 11 12  2  0
 12 13  1  0
 13 14  1  0
 13 15  1  0
 13 16  1  0
 16 17  2  0
 17 18  1  0
 17 19  1  0
 19 20  1  0
 19 21  2  0
 21 22  1  0
 21 23  1  0
 23 24  1  0
 23 25  2  0
 25 26  1  0
 11 27  1  0
 27 28  1  0
 27 29  1  0
 29 30  2  0
 30 31  1  0
 31 32  1  0
 31 33  1  0
 31 34  1  0
 34 35  2  0
 35 36  1  0
 35 37  1  0
 37 38  1  0
 37 39  2  0
 39 40  1  0
 39 41  1  0
 41 42  1  0
 41 43  2  0
 43 44  1  0
 29 45  1  0
  7 46  1  0
 46 47  1  0
 46 48  2  0
 48 49  1  0
 48  2  1  0
 45  9  1  0
 25 16  1  0
 43 34  1  0
M  CHG  2  10  -1  45  -1
M  END
>  <UniqueID>  (91) 
81

>  <SMILES>  (91) 
c1ccc(C/N=c2/[n-]c(=Nc3ccccc3)[n-]/c(=N/Cc3ccccc3)[nH]2)cc1

>  <Energy>  (91) 
61.025123117527166

>  <Genealogy>  (91) 
c1ccc(CN=c2[n-]c(=Nc3ccccc3)[n-]c(=NCc3ccccc3)[nH]2)cc1 (protonated)
c1ccc(C/N=c2/[n-]c(=Nc3ccccc3)[n-]/c(=N/Cc3ccccc3)[nH]2)cc1 (cis-trans isomerization)
c1ccc(C/N=c2/[n-]c(=Nc3ccccc3)[n-]/c(=N/Cc3ccccc3)[nH]2)cc1 (3D coordinates assigned)
c1ccc(C/N=c2/[n-]c(=Nc3ccccc3)[n-]/c(=N/Cc3ccccc3)[nH]2)cc1 (optimized conformer: 61.025123117527166 kcal/mol)

>  <smiles>  (91) 
c1ccc(CN=c2[nH]c(=NCc3ccccc3)[nH]c(=Nc3ccccc3)[nH]2)cc1

>  <score_type>  (91) 
oracle

>  <origin>  (91) 
adg

>  <m_score__min__energy>  (91) 
-12.4

>  <m_primary>  (91) 
energy

$$$$
91:0
     RDKit          3D

 40 42  0  0  0  0  0  0  0  0999 V2000
   59.0770   34.5450   47.2550 C   0  0  0  0  0  0  0  0  0  0  0  0
   58.4290   33.7790   46.1990 N   0  0  0  0  0  0  0  0  0  0  0  0
   58.2120   34.1760   44.9300 C   0  0  0  0  0  0  0  0  0  0  0  0
   57.7050   33.1910   44.1590 N   0  0  0  0  0  0  0  0  0  0  0  0
   57.6050   32.1380   44.9990 C   0  0  0  0  0  0  0  0  0  0  0  0
   57.1810   30.7650   44.5740 C   0  0  0  0  0  0  0  0  0  0  0  0
   58.3890   29.8500   44.3340 C   0  0  0  0  0  0  0  0  0  0  0  0
   58.3400   28.6200   45.2060 C   0  0  0  0  0  0  0  0  0  0  0  0
   59.4060   28.3180   46.0670 C   0  0  0  0  0  0  0  0  0  0  0  0
   59.3390   27.2070   46.9070 C   0  0  0  0  0  0  0  0  0  0  0  0
   58.2080   26.3870   46.8990 C   0  0  0  0  0  0  0  0  0  0  0  0
   57.1230   26.6750   46.0500 C   0  0  0  0  0  0  0  0  0  0  0  0
   55.9190   25.8110   46.0490 C   0  0  0  0  0  0  0  0  0  0  0  0
   54.7740   26.3310   45.9670 O   0  0  0  0  0  0  0  0  0  0  0  0
   56.0550   24.3890   46.1930 N   0  0  0  0  0  0  0  0  0  0  0  0
   56.3870   23.4500   45.1610 C   0  0  0  0  0  0  0  0  0  0  0  0
   57.6360   22.8220   45.1940 C   0  0  0  0  0  0  0  0  0  0  0  0
   57.9950   21.9190   44.1920 C   0  0  0  0  0  0  0  0  0  0  0  0
   57.1000   21.6650   43.1500 C   0  0  0  0  0  0  0  0  0  0  0  0
   55.9000   22.3020   43.1130 N   0  0  0  0  0  0  0  0  0  0  0  0
   55.5260   23.1820   44.0810 C   0  0  0  0  0  0  0  0  0  0  0  0
   57.1990   27.7990   45.2060 C   0  0  0  0  0  0  0  0  0  0  0  0
   58.0690   32.4870   46.2500 C   0  0  0  0  0  0  0  0  0  0  0  0
   58.7545   34.1638   48.2352 H   0  0  0  0  0  0  0  0  0  0  0  0
   60.1686   34.4448   47.1636 H   0  0  0  0  0  0  0  0  0  0  0  0
   58.7972   35.6049   47.1636 H   0  0  0  0  0  0  0  0  0  0  0  0
   58.4246   35.1909   44.5628 H   0  0  0  0  0  0  0  0  0  0  0  0
   56.5515   30.3259   45.3619 H   0  0  0  0  0  0  0  0  0  0  0  0
   56.6236   30.8538   43.6299 H   0  0  0  0  0  0  0  0  0  0  0  0
   58.3963   29.5388   43.2790 H   0  0  0  0  0  0  0  0  0  0  0  0
   59.3002   30.4124   44.5857 H   0  0  0  0  0  0  0  0  0  0  0  0
   60.2987   28.9606   46.0794 H   0  0  0  0  0  0  0  0  0  0  0  0
   60.1793   26.9755   47.5780 H   0  0  0  0  0  0  0  0  0  0  0  0
   58.1651   25.5097   47.5612 H   0  0  0  0  0  0  0  0  0  0  0  0
   58.3379   23.0404   46.0123 H   0  0  0  0  0  0  0  0  0  0  0  0
   58.9714   21.4133   44.2225 H   0  0  0  0  0  0  0  0  0  0  0  0
   57.3667   20.9489   42.3588 H   0  0  0  0  0  0  0  0  0  0  0  0
   54.5494   23.6845   44.0191 H   0  0  0  0  0  0  0  0  0  0  0  0
   56.3569   28.0373   44.5396 H   0  0  0  0  0  0  0  0  0  0  0  0
   58.1324   31.8276   47.1282 H   0  0  0  0  0  0  0  0  0  0  0  0
  1  2  1  0
  2  3  1  0
  3  4  2  0
  4  5  1  0
  5  6  1  0
  6  7  1  0
  7  8  1  0
  8  9  2  0
  9 10  1  0
 10 11  2  0
 11 12  1  0
 12 13  1  0
 13 14  2  0
 13 15  1  0
 15 16  1  0
 16 17  2  0
 17 18  1  0
 18 19  2  0
 19 20  1  0
 20 21  2  0
 12 22  2  0
  5 23  2  0
 23  2  1  0
 22  8  1  0
 21 16  1  0
  1 24  1  0
  1 25  1  0
  1 26  1  0
  3 27  1  0
  6 28  1  0
  6 29  1  0
  7 30  1  0
  7 31  1  0
  9 32  1  0
 10 33  1  0
 11 34  1  0
 17 35  1  0
 18 36  1  0
 19 37  1  0
 21 38  1  0
 22 39  1  0
 23 40  1  0
M  CHG  1  15  -1
M  END
>  <UniqueID>  (92) 
82

>  <SMILES>  (92) 
Cn1cnc(CCc2cccc(C(=O)[N-]c3cccnc3)c2)c1

>  <Energy>  (92) 
71.16521782755329

>  <Genealogy>  (92) 
Cn1cnc(CCc2cccc(C(=O)[N-]c3cccnc3)c2)c1 (protonated)
Cn1cnc(CCc2cccc(C(=O)[N-]c3cccnc3)c2)c1 (3D coordinates assigned)
Cn1cnc(CCc2cccc(C(=O)[N-]c3cccnc3)c2)c1 (optimized conformer: 71.16521782755329 kcal/mol)

>  <smiles>  (92) 
Cn1cnc(CCc2cccc(C(=O)Nc3cccnc3)c2)c1

>  <score_type>  (92) 
oracle

>  <origin>  (92) 
adg

>  <m_score__min__energy>  (92) 
-9.6999999999999993

>  <m_primary>  (92) 
energy

$$$$
92:0
     RDKit          3D

 47 50  0  0  0  0  0  0  0  0999 V2000
   55.1180   26.3960   46.0160 N   0  0  0  0  0  0  0  0  0  0  0  0
   56.7310   25.8240   46.2480 S   0  0  0  0  0  0  0  0  0  0  0  0
   57.1260   24.9740   45.0740 O   0  0  0  0  0  0  0  0  0  0  0  0
   56.8140   24.9990   47.5020 O   0  0  0  0  0  0  0  0  0  0  0  0
   57.8180   27.1690   46.3590 N   0  0  0  0  0  0  0  0  0  0  0  0
   57.7110   28.3790   45.5980 C   0  0  0  0  0  0  0  0  0  0  0  0
   57.4850   28.2800   44.2050 C   0  0  0  0  0  0  0  0  0  0  0  0
   57.3690   29.4340   43.4080 C   0  0  0  0  0  0  0  0  0  0  0  0
   57.4890   30.6720   44.0340 C   0  0  0  0  0  0  0  0  0  0  0  0
   57.3940   31.8850   43.4630 N   0  0  0  0  0  0  0  0  0  0  0  0
   57.5570   32.7830   44.4620 C   0  0  0  0  0  0  0  0  0  0  0  0
   57.7700   32.1280   45.6710 C   0  0  0  0  0  0  0  0  0  0  0  0
   57.9190   32.7660   47.0170 C   0  0  0  0  0  0  0  0  0  0  0  0
   59.3030   33.3050   47.1740 C   0  0  0  0  0  0  0  0  0  0  0  0
   59.5920   34.5060   47.7120 N   0  0  0  0  0  0  0  0  0  0  0  0
   60.9110   34.6120   47.6950 N   0  0  0  0  0  0  0  0  0  0  0  0
   61.3720   33.4710   47.1500 C   0  0  0  0  0  0  0  0  0  0  0  0
   63.1080   33.1090   46.9030 S   0  0  0  0  0  0  0  0  0  0  0  0
   63.1910   31.8610   48.2310 C   0  0  0  0  0  0  0  0  0  0  0  0
   62.1230   32.1150   49.2500 C   0  0  0  0  0  0  0  0  0  0  0  0
   62.3500   32.9280   50.1850 O   0  0  0  0  0  0  0  0  0  0  0  0
   60.8330   31.4960   49.1110 N   0  0  0  0  0  0  0  0  0  0  0  0
   59.7550   31.6550   50.0490 C   0  0  0  0  0  0  0  0  0  0  0  0
   59.5620   32.8990   50.6680 C   0  0  0  0  0  0  0  0  0  0  0  0
   58.5180   33.0840   51.5790 C   0  0  0  0  0  0  0  0  0  0  0  0
   57.6500   32.0290   51.8710 C   0  0  0  0  0  0  0  0  0  0  0  0
   56.6400   32.2070   52.7580 F   0  0  0  0  0  0  0  0  0  0  0  0
   57.8160   30.7930   51.2380 C   0  0  0  0  0  0  0  0  0  0  0  0
   58.8560   30.6070   50.3230 C   0  0  0  0  0  0  0  0  0  0  0  0
   60.3930   32.6610   46.8290 O   0  0  0  0  0  0  0  0  0  0  0  0
   57.7120   30.7780   45.3820 C   0  0  0  0  0  0  0  0  0  0  0  0
   57.8240   29.6550   46.2010 C   0  0  0  0  0  0  0  0  0  0  0  0
   55.1640   27.4390   46.0110 H   0  0  0  0  0  0  0  0  0  0  0  0
   57.3988   27.2875   43.7385 H   0  0  0  0  0  0  0  0  0  0  0  0
   57.1893   29.3604   42.3253 H   0  0  0  0  0  0  0  0  0  0  0  0
   57.2170   32.0970   42.4560 H   0  0  0  0  0  0  0  0  0  0  0  0
   57.5256   33.8753   44.3362 H   0  0  0  0  0  0  0  0  0  0  0  0
   57.1944   33.5880   47.1131 H   0  0  0  0  0  0  0  0  0  0  0  0
   57.7331   32.0131   47.7971 H   0  0  0  0  0  0  0  0  0  0  0  0
   63.0486   30.8600   47.7978 H   0  0  0  0  0  0  0  0  0  0  0  0
   64.1744   31.9234   48.7199 H   0  0  0  0  0  0  0  0  0  0  0  0
   60.6260   31.0000   48.2140 H   0  0  0  0  0  0  0  0  0  0  0  0
   60.2374   33.7353   50.4347 H   0  0  0  0  0  0  0  0  0  0  0  0
   58.3799   34.0606   52.0661 H   0  0  0  0  0  0  0  0  0  0  0  0
   57.1265   29.9654   51.4608 H   0  0  0  0  0  0  0  0  0  0  0  0
   58.9724   29.6382   49.8152 H   0  0  0  0  0  0  0  0  0  0  0  0
   57.9950   29.7574   47.2828 H   0  0  0  0  0  0  0  0  0  0  0  0
  1  2  1  0
  2  3  2  0
  2  4  2  0
  2  5  1  0
  5  6  1  0
  6  7  2  0
  7  8  1  0
  8  9  2  0
  9 10  1  0
 10 11  1  0
 11 12  2  0
 12 13  1  0
 13 14  1  0
 14 15  2  0
 15 16  1  0
 16 17  2  0
 17 18  1  0
 18 19  1  0
 19 20  1  0
 20 21  2  0
 20 22  1  0
 22 23  1  0
 23 24  2  0
 24 25  1  0
 25 26  2  0
 26 27  1  0
 26 28  1  0
 28 29  2  0
 17 30  1  0
 12 31  1  0
 31 32  2  0
 32  6  1  0
 31  9  1  0
 30 14  1  0
 29 23  1  0
  1 33  1  0
  7 34  1  0
  8 35  1  0
 10 36  1  0
 11 37  1  0
 13 38  1  0
 13 39  1  0
 19 40  1  0
 19 41  1  0
 22 42  1  0
 24 43  1  0
 25 44  1  0
 28 45  1  0
 29 46  1  0
 32 47  1  0
M  CHG  2   1  -1   5  -1
M  END
>  <UniqueID>  (93) 
83

>  <SMILES>  (93) 
[NH-]S(=O)(=O)[N-]c1ccc2[nH]cc(Cc3nnc(SCC(=O)Nc4ccc(F)cc4)o3)c2c1

>  <Energy>  (93) 
110.67561915169594

>  <Genealogy>  (93) 
[NH-]S(=O)(=O)[N-]c1ccc2[nH]cc(Cc3nnc(SCC(=O)Nc4ccc(F)cc4)o3)c2c1 (protonated)
[NH-]S(=O)(=O)[N-]c1ccc2[nH]cc(Cc3nnc(SCC(=O)Nc4ccc(F)cc4)o3)c2c1 (3D coordinates assigned)
[NH-]S(=O)(=O)[N-]c1ccc2[nH]cc(Cc3nnc(SCC(=O)Nc4ccc(F)cc4)o3)c2c1 (optimized conformer: 110.67561915169594 kcal/mol)

>  <smiles>  (93) 
NS(=O)(=O)Nc1ccc2[nH]cc(Cc3nnc(SCC(=O)Nc4ccc(F)cc4)o3)c2c1

>  <score_type>  (93) 
oracle

>  <origin>  (93) 
adg

>  <m_score__min__energy>  (93) 
-12.619999999999999

>  <m_primary>  (93) 
energy

$$$$
