0:0
     RDKit          3D

 51 54  0  0  0  0  0  0  0  0999 V2000
   58.3710   33.0070   42.2700 O   0  0  0  0  0  0  0  0  0  0  0  0
   57.7540   32.2460   43.0640 C   0  0  0  0  0  0  0  0  0  0  0  0
   57.3330   30.8840   42.5980 C   0  0  0  0  0  0  0  0  0  0  0  0
   57.0550   29.9670   43.7590 C   0  0  0  0  0  0  0  0  0  0  0  0
   55.8110   29.4920   44.1660 C   0  0  0  0  0  0  0  0  0  0  0  0
   55.9430   28.6720   45.2330 N   0  0  0  0  0  0  0  0  0  0  0  0
   57.2540   28.6390   45.5170 C   0  0  0  0  0  0  0  0  0  0  0  0
   57.8800   27.9160   46.5310 C   0  0  0  0  0  0  0  0  0  0  0  0
   59.2800   28.0200   46.6460 C   0  0  0  0  0  0  0  0  0  0  0  0
   60.0130   28.8360   45.7550 C   0  0  0  0  0  0  0  0  0  0  0  0
   59.3540   29.5500   44.7370 C   0  0  0  0  0  0  0  0  0  0  0  0
   57.9660   29.4240   44.6440 C   0  0  0  0  0  0  0  0  0  0  0  0
   57.3580   32.7010   44.3660 N   0  0  0  0  0  0  0  0  0  0  0  0
   58.1520   33.4120   45.3290 C   0  0  0  0  0  0  0  0  0  0  0  0
   58.8190   34.6130   45.0180 C   0  0  0  0  0  0  0  0  0  0  0  0
   59.6300   35.2320   45.9710 C   0  0  0  0  0  0  0  0  0  0  0  0
   59.8030   34.6550   47.2300 C   0  0  0  0  0  0  0  0  0  0  0  0
   59.1650   33.4480   47.5430 C   0  0  0  0  0  0  0  0  0  0  0  0
   59.4730   32.6720   49.0960 S   0  0  0  0  0  0  0  0  0  0  0  0
   59.6440   33.7440   50.1350 O   0  0  0  0  0  0  0  0  0  0  0  0
   58.2930   31.8280   49.4830 O   0  0  0  0  0  0  0  0  0  0  0  0
   60.9290   31.6960   49.0270 N   0  0  0  0  0  0  0  0  0  0  0  0
   61.2870   31.3540   47.6200 C   0  0  0  0  0  0  0  0  0  0  0  0
   62.6140   31.9740   47.1380 C   0  0  0  0  0  0  0  0  0  0  0  0
   62.7410   33.4280   47.5940 C   0  0  0  0  0  0  0  0  0  0  0  0
   62.6060   33.5720   49.1200 C   0  0  0  0  0  0  0  0  0  0  0  0
   62.0360   32.3090   49.7950 C   0  0  0  0  0  0  0  0  0  0  0  0
   58.3410   32.8320   46.5900 C   0  0  0  0  0  0  0  0  0  0  0  0
   56.4205   30.9797   41.9913 H   0  0  0  0  0  0  0  0  0  0  0  0
   58.1530   30.4525   42.0051 H   0  0  0  0  0  0  0  0  0  0  0  0
   54.8547   29.7480   43.6866 H   0  0  0  0  0  0  0  0  0  0  0  0
   55.1750   28.1610   45.7250 H   0  0  0  0  0  0  0  0  0  0  0  0
   57.2993   27.2844   47.2194 H   0  0  0  0  0  0  0  0  0  0  0  0
   59.8063   27.4623   47.4347 H   0  0  0  0  0  0  0  0  0  0  0  0
   61.1054   28.9135   45.8578 H   0  0  0  0  0  0  0  0  0  0  0  0
   59.9142   30.1871   44.0368 H   0  0  0  0  0  0  0  0  0  0  0  0
   58.7006   35.0643   44.0218 H   0  0  0  0  0  0  0  0  0  0  0  0
   60.1349   36.1787   45.7285 H   0  0  0  0  0  0  0  0  0  0  0  0
   60.4413   35.1488   47.9775 H   0  0  0  0  0  0  0  0  0  0  0  0
   60.6870   30.8040   49.5190 H   0  0  0  0  0  0  0  0  0  0  0  0
   61.3683   30.2599   47.5407 H   0  0  0  0  0  0  0  0  0  0  0  0
   60.4933   31.7692   46.9815 H   0  0  0  0  0  0  0  0  0  0  0  0
   63.4523   31.3937   47.5508 H   0  0  0  0  0  0  0  0  0  0  0  0
   62.6312   31.9503   46.0384 H   0  0  0  0  0  0  0  0  0  0  0  0
   63.7258   33.8107   47.2877 H   0  0  0  0  0  0  0  0  0  0  0  0
   61.9262   34.0009   47.1272 H   0  0  0  0  0  0  0  0  0  0  0  0
   63.6008   33.7767   49.5423 H   0  0  0  0  0  0  0  0  0  0  0  0
   61.9016   34.3947   49.3123 H   0  0  0  0  0  0  0  0  0  0  0  0
   62.8444   31.5699   49.8965 H   0  0  0  0  0  0  0  0  0  0  0  0
   61.6324   32.6105   50.7728 H   0  0  0  0  0  0  0  0  0  0  0  0
   57.8385   31.8847   46.8350 H   0  0  0  0  0  0  0  0  0  0  0  0
  1  2  2  0
  2  3  1  0
  3  4  1  0
  4  5  2  0
  5  6  1  0
  6  7  1  0
  7  8  2  0
  8  9  1  0
  9 10  2  0
 10 11  1  0
 11 12  2  0
  2 13  1  0
 13 14  1  0
 14 15  2  0
 15 16  1  0
 16 17  2  0
 17 18  1  0
 18 19  1  0
 19 20  2  0
 19 21  2  0
 19 22  1  0
 22 23  1  0
 23 24  1  0
 24 25  1  0
 25 26  1  0
 26 27  1  0
 18 28  2  0
 12  4  1  0
 28 14  1  0
 12  7  1  0
 27 22  1  0
  3 29  1  0
  3 30  1  0
  5 31  1  0
  6 32  1  0
  8 33  1  0
  9 34  1  0
 10 35  1  0
 11 36  1  0
 15 37  1  0
 16 38  1  0
 17 39  1  0
 22 40  1  0
 23 41  1  0
 23 42  1  0
 24 43  1  0
 24 44  1  0
 25 45  1  0
 25 46  1  0
 26 47  1  0
 26 48  1  0
 27 49  1  0
 27 50  1  0
 28 51  1  0
M  CHG  2  13  -1  22   1
M  END
>  <UniqueID>  (1) 
1

>  <SMILES>  (1) 
O=C(Cc1c[nH]c2ccccc12)[N-]c1cccc(S(=O)(=O)[NH+]2CCCCC2)c1

>  <Energy>  (1) 
96.48590045772193

>  <Genealogy>  (1) 
O=C(Cc1c[nH]c2ccccc12)[N-]c1cccc(S(=O)(=O)[NH+]2CCCCC2)c1 (protonated)
O=C(Cc1c[nH]c2ccccc12)[N-]c1cccc(S(=O)(=O)[NH+]2CCCCC2)c1 (3D coordinates assigned)
O=C(Cc1c[nH]c2ccccc12)[N-]c1cccc(S(=O)(=O)[NH+]2CCCCC2)c1 (nonaromatic ring conformer: 96.48590045772193 kcal/mol)

>  <smiles>  (1) 
O=C(Cc1c[nH]c2ccccc12)Nc1cccc(S(=O)(=O)N2CCCCC2)c1

>  <score_type>  (1) 
oracle

>  <origin>  (1) 
adg

>  <m_score__min__energy>  (1) 
-9.6699999999999999

>  <m_primary>  (1) 
energy

$$$$
1:0
     RDKit          3D

 58 61  0  0  0  0  0  0  0  0999 V2000
   55.5100   21.3250   43.6910 H   0  0  0  0  0  0  0  0  0  0  0  0
   55.6110   22.3320   43.6860 O   0  0  0  0  0  0  0  0  0  0  0  0
   56.5380   22.9690   44.5090 C   0  0  0  0  0  0  0  0  0  0  0  0
   57.8940   22.7160   44.5770 C   0  0  0  0  0  0  0  0  0  0  0  0
   58.6310   21.6800   43.7970 C   0  0  0  0  0  0  0  0  0  0  0  0
   59.1265   20.9834   44.4893 H   0  0  0  0  0  0  0  0  0  0  0  0
   57.9231   21.1257   43.1633 H   0  0  0  0  0  0  0  0  0  0  0  0
   59.3868   22.1669   43.1633 H   0  0  0  0  0  0  0  0  0  0  0  0
   58.4800   23.5140   45.4940 N   0  0  0  0  0  0  0  0  0  0  0  0
   57.4900   24.2890   45.9920 C   0  0  0  0  0  0  0  0  0  0  0  0
   57.6920   25.2520   47.0890 C   0  0  0  0  0  0  0  0  0  0  0  0
   57.5549   24.9002   48.1222 H   0  0  0  0  0  0  0  0  0  0  0  0
   58.0350   26.5380   46.8950 C   0  0  0  0  0  0  0  0  0  0  0  0
   58.2880   27.4790   47.8830 C   0  0  0  0  0  0  0  0  0  0  0  0
   58.1825   27.3360   48.9685 H   0  0  0  0  0  0  0  0  0  0  0  0
   58.6980   28.6300   47.2390 C   0  0  0  0  0  0  0  0  0  0  0  0
   59.1100   29.8910   47.9360 C   0  0  0  0  0  0  0  0  0  0  0  0
   59.0610   29.7410   49.0246 H   0  0  0  0  0  0  0  0  0  0  0  0
   60.1394   30.1499   47.6475 H   0  0  0  0  0  0  0  0  0  0  0  0
   58.4320   30.7077   47.6475 H   0  0  0  0  0  0  0  0  0  0  0  0
   58.7080   28.4450   45.8980 N   0  0  0  0  0  0  0  0  0  0  0  0
   59.1670   29.4160   44.8890 C   0  0  0  0  0  0  0  0  0  0  0  0
   60.2596   29.5178   44.9654 H   0  0  0  0  0  0  0  0  0  0  0  0
   58.8705   29.0419   43.8980 H   0  0  0  0  0  0  0  0  0  0  0  0
   58.5320   30.7830   45.0840 C   0  0  0  0  0  0  0  0  0  0  0  0
   59.2980   31.8350   45.6300 C   0  0  0  0  0  0  0  0  0  0  0  0
   60.3267   31.6388   45.9665 H   0  0  0  0  0  0  0  0  0  0  0  0
   58.7690   33.1200   45.7490 C   0  0  0  0  0  0  0  0  0  0  0  0
   59.3863   33.9322   46.1603 H   0  0  0  0  0  0  0  0  0  0  0  0
   57.4610   33.3760   45.3480 C   0  0  0  0  0  0  0  0  0  0  0  0
   57.0535   34.3951   45.4221 H   0  0  0  0  0  0  0  0  0  0  0  0
   56.6670   32.3440   44.8530 C   0  0  0  0  0  0  0  0  0  0  0  0
   55.6310   32.5540   44.5489 H   0  0  0  0  0  0  0  0  0  0  0  0
   57.1740   31.0350   44.7370 C   0  0  0  0  0  0  0  0  0  0  0  0
   56.2540   29.9680   44.2710 C   0  0  0  0  0  0  0  0  0  0  0  0
   56.2290   29.6440   43.0530 O   0  0  0  0  0  0  0  0  0  0  0  0
   55.3750   29.3450   45.1500 O   0  0  0  0  0  0  0  0  0  0  0  0
   58.3020   27.1680   45.6750 C   0  0  0  0  0  0  0  0  0  0  0  0
   58.2080   26.6120   44.4560 C   0  0  0  0  0  0  0  0  0  0  0  0
   58.4440   27.2061   43.5608 H   0  0  0  0  0  0  0  0  0  0  0  0
   57.8950   25.5625   44.3528 H   0  0  0  0  0  0  0  0  0  0  0  0
   56.2670   23.9780   45.4040 C   0  0  0  0  0  0  0  0  0  0  0  0
   54.9480   24.5970   45.6520 C   0  0  0  0  0  0  0  0  0  0  0  0
   54.8690   25.8470   45.7890 O   0  0  0  0  0  0  0  0  0  0  0  0
   53.7560   23.8000   45.7470 N   0  0  0  0  0  0  0  0  0  0  0  0
   53.6880   22.7470   46.7750 C   0  0  0  0  0  0  0  0  0  0  0  0
   54.5398   22.0644   46.6389 H   0  0  0  0  0  0  0  0  0  0  0  0
   53.7180   23.2362   47.7598 H   0  0  0  0  0  0  0  0  0  0  0  0
   52.3900   21.9370   46.6940 C   0  0  0  0  0  0  0  0  0  0  0  0
   52.5699   20.9260   47.0884 H   0  0  0  0  0  0  0  0  0  0  0  0
   51.6173   22.4465   47.2885 H   0  0  0  0  0  0  0  0  0  0  0  0
   51.9460   21.8410   45.3610 O   0  0  0  0  0  0  0  0  0  0  0  0
   51.4900   23.1080   44.9420 C   0  0  0  0  0  0  0  0  0  0  0  0
   51.0128   23.0082   43.9559 H   0  0  0  0  0  0  0  0  0  0  0  0
   50.7726   23.4810   45.6879 H   0  0  0  0  0  0  0  0  0  0  0  0
   52.6450   24.1150   44.8380 C   0  0  0  0  0  0  0  0  0  0  0  0
   53.0235   24.1109   43.8052 H   0  0  0  0  0  0  0  0  0  0  0  0
   52.2519   25.1019   45.1235 H   0  0  0  0  0  0  0  0  0  0  0  0
  1  2  1  0
  2  3  1  0
  3  4  2  0
  4  5  1  0
  5  6  1  0
  5  7  1  0
  5  8  1  0
  4  9  1  0
  9 10  1  0
 10 11  1  0
 11 12  1  0
 11 13  2  0
 13 14  1  0
 14 15  1  0
 14 16  2  0
 16 17  1  0
 17 18  1  0
 17 19  1  0
 17 20  1  0
 16 21  1  0
 21 22  1  0
 22 23  1  0
 22 24  1  0
 22 25  1  0
 25 26  2  0
 26 27  1  0
 26 28  1  0
 28 29  1  0
 28 30  2  0
 30 31  1  0
 30 32  1  0
 32 33  1  0
 32 34  2  0
 34 35  1  0
 35 36  2  0
 35 37  1  0
 21 38  1  0
 38 39  2  0
 39 40  1  0
 39 41  1  0
 10 42  2  0
 42 43  1  0
 43 44  2  0
 43 45  1  0
 45 46  1  0
 46 47  1  0
 46 48  1  0
 46 49  1  0
 49 50  1  0
 49 51  1  0
 49 52  1  0
 52 53  1  0
 53 54  1  0
 53 55  1  0
 53 56  1  0
 56 57  1  0
 56 58  1  0
 42  3  1  0
 56 45  1  0
 38 13  1  0
 34 25  1  0
M  CHG  2   9  -1  37  -1
M  END
>  <UniqueID>  (2) 
2

>  <SMILES>  (2) 
C=c1/c(=C/c2[n-]c(C)c(O)c2C(=O)N2CCOCC2)cc(C)n1Cc1ccccc1C(=O)[O-]

>  <Energy>  (2) 
131.42241996911036

>  <Genealogy>  (2) 
C=c1c(=Cc2[n-]c(C)c(O)c2C(=O)N2CCOCC2)cc(C)n1Cc1ccccc1C(=O)[O-] (protonated)
C=c1/c(=C/c2[n-]c(C)c(O)c2C(=O)N2CCOCC2)cc(C)n1Cc1ccccc1C(=O)[O-] (cis-trans isomerization)
C=c1/c(=C/c2[n-]c(C)c(O)c2C(=O)N2CCOCC2)cc(C)n1Cc1ccccc1C(=O)[O-] (3D coordinates assigned)
C=c1/c(=C/c2[n-]c(C)c(O)c2C(=O)N2CCOCC2)cc(C)n1Cc1ccccc1C(=O)[O-] (nonaromatic ring conformer: 131.42241996911036 kcal/mol)

>  <smiles>  (2) 
C=c1c(=Cc2[nH]c(C)c(O)c2C(=O)N2CCOCC2)cc(C)n1Cc1ccccc1C(=O)O

>  <score_type>  (2) 
oracle

>  <origin>  (2) 
adg

>  <m_score__min__energy>  (2) 
-12.98

>  <m_primary>  (2) 
energy

$$$$
2:0
     RDKit          3D

 46 48  0  0  0  0  0  0  0  0999 V2000
   55.9170   29.6600   45.9990 H   0  0  0  0  0  0  0  0  0  0  0  0
   56.1050   28.9200   45.3330 O   0  0  0  0  0  0  0  0  0  0  0  0
   56.2670   27.6000   45.7410 C   0  0  0  0  0  0  0  0  0  0  0  0
   55.2590   26.7170   45.8070 N   0  0  0  0  0  0  0  0  0  0  0  0
   55.8670   25.6010   46.2630 C   0  0  0  0  0  0  0  0  0  0  0  0
   55.2460   24.5260   46.4700 O   0  0  0  0  0  0  0  0  0  0  0  0
   57.1920   25.7310   46.4920 N   0  0  0  0  0  0  0  0  0  0  0  0
   57.4460   27.0040   46.1300 C   0  0  0  0  0  0  0  0  0  0  0  0
   58.7410   27.6780   46.3190 C   0  0  0  0  0  0  0  0  0  0  0  0
   59.5824   27.3331   45.7001 H   0  0  0  0  0  0  0  0  0  0  0  0
   58.9840   28.6810   47.1850 C   0  0  0  0  0  0  0  0  0  0  0  0
   58.5860   29.9820   46.9460 C   0  0  0  0  0  0  0  0  0  0  0  0
   58.1075   30.3609   46.0309 H   0  0  0  0  0  0  0  0  0  0  0  0
   58.9010   30.7170   48.0700 C   0  0  0  0  0  0  0  0  0  0  0  0
   58.5800   32.1560   48.2250 C   0  0  0  0  0  0  0  0  0  0  0  0
   59.1130   32.8180   49.1530 O   0  0  0  0  0  0  0  0  0  0  0  0
   57.7500   32.8520   47.2810 N   0  0  0  0  0  0  0  0  0  0  0  0
   57.7650   32.7050   45.9870 C   0  0  0  0  0  0  0  0  0  0  0  0
   57.0630   31.7060   45.3800 N   0  0  0  0  0  0  0  0  0  0  0  0
   57.0550   31.5470   44.0310 C   0  0  0  0  0  0  0  0  0  0  0  0
   56.4884   30.7190   43.5800 H   0  0  0  0  0  0  0  0  0  0  0  0
   57.7660   32.4340   43.2120 C   0  0  0  0  0  0  0  0  0  0  0  0
   57.7980   32.2430   41.7260 C   0  0  0  0  0  0  0  0  0  0  0  0
   57.9758   31.1820   41.4964 H   0  0  0  0  0  0  0  0  0  0  0  0
   56.8351   32.5550   41.2954 H   0  0  0  0  0  0  0  0  0  0  0  0
   58.6067   32.8518   41.2954 H   0  0  0  0  0  0  0  0  0  0  0  0
   58.4990   33.4650   43.8150 C   0  0  0  0  0  0  0  0  0  0  0  0
   59.0812   34.1614   43.1937 H   0  0  0  0  0  0  0  0  0  0  0  0
   58.4910   33.6090   45.2040 C   0  0  0  0  0  0  0  0  0  0  0  0
   59.0516   34.4275   45.6792 H   0  0  0  0  0  0  0  0  0  0  0  0
   59.5250   29.9340   48.9860 N   0  0  0  0  0  0  0  0  0  0  0  0
   60.0420   30.3630   50.2960 C   0  0  0  0  0  0  0  0  0  0  0  0
   61.0059   29.8659   50.4799 H   0  0  0  0  0  0  0  0  0  0  0  0
   60.1619   31.4563   50.2782 H   0  0  0  0  0  0  0  0  0  0  0  0
   59.0720   30.0040   51.4290 C   0  0  0  0  0  0  0  0  0  0  0  0
   59.2585   28.9687   51.7507 H   0  0  0  0  0  0  0  0  0  0  0  0
   59.2332   30.6969   52.2680 H   0  0  0  0  0  0  0  0  0  0  0  0
   57.7310   30.1210   50.9900 O   0  0  0  0  0  0  0  0  0  0  0  0
   57.0910   31.2040   51.6290 C   0  0  0  0  0  0  0  0  0  0  0  0
   57.1636   31.0811   52.7197 H   0  0  0  0  0  0  0  0  0  0  0  0
   57.5784   32.1446   51.3327 H   0  0  0  0  0  0  0  0  0  0  0  0
   56.0320   31.2307   51.3327 H   0  0  0  0  0  0  0  0  0  0  0  0
   59.6040   28.6860   48.4440 C   0  0  0  0  0  0  0  0  0  0  0  0
   60.2870   27.6760   49.0060 C   0  0  0  0  0  0  0  0  0  0  0  0
   60.7305   27.8006   50.0049 H   0  0  0  0  0  0  0  0  0  0  0  0
   60.4031   26.7238   48.4676 H   0  0  0  0  0  0  0  0  0  0  0  0
  1  2  1  0
  2  3  1  0
  3  4  1  0
  4  5  1  0
  5  6  2  0
  5  7  1  0
  7  8  1  0
  8  9  1  0
  9 10  1  0
  9 11  2  0
 11 12  1  0
 12 13  1  0
 12 14  2  0
 14 15  1  0
 15 16  2  0
 15 17  1  0
 17 18  2  0
 18 19  1  0
 19 20  1  0
 20 21  1  0
 20 22  2  0
 22 23  1  0
 23 24  1  0
 23 25  1  0
 23 26  1  0
 22 27  1  0
 27 28  1  0
 27 29  2  0
 29 30  1  0
 14 31  1  0
 31 32  1  0
 32 33  1  0
 32 34  1  0
 32 35  1  0
 35 36  1  0
 35 37  1  0
 35 38  1  0
 38 39  1  0
 39 40  1  0
 39 41  1  0
 39 42  1  0
 31 43  1  0
 43 44  2  0
 44 45  1  0
 44 46  1  0
  8  3  2  0
 43 11  1  0
 29 18  1  0
M  CHG  3   4  -1   7  -1  19  -1
M  END
>  <UniqueID>  (3) 
3

>  <SMILES>  (3) 
C=c1/c(=C\c2[n-]c(=O)[n-]c2O)cc(C(=O)/N=c2/ccc(C)c[n-]2)n1CCOC

>  <Energy>  (3) 
124.70235438510346

>  <Genealogy>  (3) 
C=c1c(=Cc2[n-]c(=O)[n-]c2O)cc(C(=O)N=c2ccc(C)c[n-]2)n1CCOC (protonated)
C=c1/c(=C\c2[n-]c(=O)[n-]c2O)cc(C(=O)/N=c2/ccc(C)c[n-]2)n1CCOC (cis-trans isomerization)
C=c1/c(=C\c2[n-]c(=O)[n-]c2O)cc(C(=O)/N=c2/ccc(C)c[n-]2)n1CCOC (3D coordinates assigned)
C=c1/c(=C\c2[n-]c(=O)[n-]c2O)cc(C(=O)/N=c2/ccc(C)c[n-]2)n1CCOC (optimized conformer: 124.70235438510346 kcal/mol)

>  <smiles>  (3) 
C=c1c(=Cc2[nH]c(=O)[nH]c2O)cc(C(=O)N=c2ccc(C)c[nH]2)n1CCOC

>  <score_type>  (3) 
oracle

>  <origin>  (3) 
adg

>  <m_score__min__energy>  (3) 
-13.32

>  <m_primary>  (3) 
energy

$$$$
3:0
     RDKit          3D

 54 57  0  0  0  0  0  0  0  0999 V2000
   57.4380   26.4920   46.2010 C   0  0  0  0  0  0  0  0  0  0  0  0
   57.0920   27.8770   45.7620 C   0  0  0  0  0  0  0  0  0  0  0  0
   55.8950   28.2190   45.2520 N   0  0  0  0  0  0  0  0  0  0  0  0
   56.0550   29.5180   44.9270 C   0  0  0  0  0  0  0  0  0  0  0  0
   55.1350   30.2070   44.4140 O   0  0  0  0  0  0  0  0  0  0  0  0
   57.2790   30.0190   45.1870 N   0  0  0  0  0  0  0  0  0  0  0  0
   57.9340   28.9720   45.7220 C   0  0  0  0  0  0  0  0  0  0  0  0
   59.3810   29.0160   46.1160 C   0  0  0  0  0  0  0  0  0  0  0  0
   59.5380   29.6530   47.4690 C   0  0  0  0  0  0  0  0  0  0  0  0
   58.8390   30.8280   47.7900 C   0  0  0  0  0  0  0  0  0  0  0  0
   58.9680   31.4020   49.0580 C   0  0  0  0  0  0  0  0  0  0  0  0
   59.7930   30.8060   50.0220 C   0  0  0  0  0  0  0  0  0  0  0  0
   59.9790   31.5270   51.6190 S   0  0  0  0  0  0  0  0  0  0  0  0
   61.3170   31.1600   52.1990 O   0  0  0  0  0  0  0  0  0  0  0  0
   59.9100   33.0230   51.4810 O   0  0  0  0  0  0  0  0  0  0  0  0
   58.7030   30.9660   52.6740 N   0  0  0  0  0  0  0  0  0  0  0  0
   58.1140   29.7240   52.1170 C   0  0  0  0  0  0  0  0  0  0  0  0
   56.7280   29.4350   52.7010 C   0  0  0  0  0  0  0  0  0  0  0  0
   55.8240   30.5650   52.4430 N   0  0  0  0  0  0  0  0  0  0  0  0
   54.3940   30.3630   52.4020 C   0  0  0  0  0  0  0  0  0  0  0  0
   53.8280   29.1600   52.8610 C   0  0  0  0  0  0  0  0  0  0  0  0
   52.4440   28.9680   52.8230 C   0  0  0  0  0  0  0  0  0  0  0  0
   51.6950   27.3290   53.4540 Br  0  0  0  0  0  0  0  0  0  0  0  0
   51.6090   29.9720   52.3290 C   0  0  0  0  0  0  0  0  0  0  0  0
   52.1500   31.1830   51.8660 C   0  0  0  0  0  0  0  0  0  0  0  0
   51.2600   32.2440   51.3420 C   0  0  0  0  0  0  0  0  0  0  0  0
   51.3950   32.6680   50.1630 O   0  0  0  0  0  0  0  0  0  0  0  0
   50.2630   32.7870   52.1430 O   0  0  0  0  0  0  0  0  0  0  0  0
   53.5440   31.3700   51.9070 C   0  0  0  0  0  0  0  0  0  0  0  0
   56.4040   31.8860   52.1680 C   0  0  0  0  0  0  0  0  0  0  0  0
   57.7200   32.0520   52.9410 C   0  0  0  0  0  0  0  0  0  0  0  0
   60.4900   29.6340   49.7050 C   0  0  0  0  0  0  0  0  0  0  0  0
   60.3610   29.0570   48.4380 C   0  0  0  0  0  0  0  0  0  0  0  0
   57.4491   26.4477   47.3001 H   0  0  0  0  0  0  0  0  0  0  0  0
   56.6885   25.7864   45.8131 H   0  0  0  0  0  0  0  0  0  0  0  0
   58.4313   26.2218   45.8131 H   0  0  0  0  0  0  0  0  0  0  0  0
   59.7785   27.9909   46.1499 H   0  0  0  0  0  0  0  0  0  0  0  0
   59.9340   29.6122   45.3752 H   0  0  0  0  0  0  0  0  0  0  0  0
   58.1867   31.2990   47.0399 H   0  0  0  0  0  0  0  0  0  0  0  0
   58.4202   32.3246   49.3002 H   0  0  0  0  0  0  0  0  0  0  0  0
   59.1610   30.7170   53.5830 H   0  0  0  0  0  0  0  0  0  0  0  0
   58.0244   29.8316   51.0259 H   0  0  0  0  0  0  0  0  0  0  0  0
   58.7757   28.8858   52.3809 H   0  0  0  0  0  0  0  0  0  0  0  0
   56.3184   28.5276   52.2332 H   0  0  0  0  0  0  0  0  0  0  0  0
   56.8192   29.2884   53.7874 H   0  0  0  0  0  0  0  0  0  0  0  0
   54.4791   28.3646   53.2527 H   0  0  0  0  0  0  0  0  0  0  0  0
   50.5208   29.8138   52.3022 H   0  0  0  0  0  0  0  0  0  0  0  0
   53.9754   32.3158   51.5474 H   0  0  0  0  0  0  0  0  0  0  0  0
   56.6003   31.9805   51.0898 H   0  0  0  0  0  0  0  0  0  0  0  0
   55.6963   32.6651   52.4877 H   0  0  0  0  0  0  0  0  0  0  0  0
   58.1743   33.0119   52.6542 H   0  0  0  0  0  0  0  0  0  0  0  0
   57.4747   32.0121   54.0126 H   0  0  0  0  0  0  0  0  0  0  0  0
   61.1423   29.1648   50.4563 H   0  0  0  0  0  0  0  0  0  0  0  0
   60.9066   28.1322   48.1993 H   0  0  0  0  0  0  0  0  0  0  0  0
  1  2  1  0
  2  3  1  0
  3  4  1  0
  4  5  2  0
  4  6  1  0
  6  7  1  0
  7  8  1  0
  8  9  1  0
  9 10  2  0
 10 11  1  0
 11 12  2  0
 12 13  1  0
 13 14  2  0
 13 15  2  0
 13 16  1  0
 16 17  1  0
 17 18  1  0
 18 19  1  0
 19 20  1  0
 20 21  2  0
 21 22  1  0
 22 23  1  0
 22 24  2  0
 24 25  1  0
 25 26  1  0
 26 27  2  0
 26 28  1  0
 25 29  2  0
 19 30  1  0
 30 31  1  0
 12 32  1  0
 32 33  2  0
  7  2  2  0
 33  9  1  0
 31 16  1  0
 29 20  1  0
  1 34  1  0
  1 35  1  0
  1 36  1  0
  8 37  1  0
  8 38  1  0
 10 39  1  0
 11 40  1  0
 16 41  1  0
 17 42  1  0
 17 43  1  0
 18 44  1  0
 18 45  1  0
 21 46  1  0
 24 47  1  0
 29 48  1  0
 30 49  1  0
 30 50  1  0
 31 51  1  0
 31 52  1  0
 32 53  1  0
 33 54  1  0
M  CHG  4   3  -1   6  -1  16   1  28  -1
M  END
>  <UniqueID>  (4) 
4

>  <SMILES>  (4) 
Cc1[n-]c(=O)[n-]c1Cc1ccc(S(=O)(=O)[NH+]2CCN(c3cc(Br)cc(C(=O)[O-])c3)CC2)cc1

>  <Energy>  (4) 
91.17254887146188

>  <Genealogy>  (4) 
Cc1[n-]c(=O)[n-]c1Cc1ccc(S(=O)(=O)[NH+]2CCN(c3cc(Br)cc(C(=O)[O-])c3)CC2)cc1 (protonated)
Cc1[n-]c(=O)[n-]c1Cc1ccc(S(=O)(=O)[NH+]2CCN(c3cc(Br)cc(C(=O)[O-])c3)CC2)cc1 (3D coordinates assigned)
Cc1[n-]c(=O)[n-]c1Cc1ccc(S(=O)(=O)[NH+]2CCN(c3cc(Br)cc(C(=O)[O-])c3)CC2)cc1 (nonaromatic ring conformer: 91.17254887146188 kcal/mol)

>  <smiles>  (4) 
Cc1[nH]c(=O)[nH]c1Cc1ccc(S(=O)(=O)N2CCN(c3cc(Br)cc(C(=O)O)c3)CC2)cc1

>  <score_type>  (4) 
oracle

>  <origin>  (4) 
adg

>  <m_score__min__energy>  (4) 
-16.079999999999998

>  <m_primary>  (4) 
energy

$$$$
4:0
     RDKit          3D

 35 37  0  0  0  0  0  0  0  0999 V2000
   56.4400   33.7970   47.4870 H   0  0  0  0  0  0  0  0  0  0  0  0
   57.3930   33.8210   47.1440 O   0  0  0  0  0  0  0  0  0  0  0  0
   58.1380   32.6550   46.9830 C   0  0  0  0  0  0  0  0  0  0  0  0
   58.5720   31.9500   48.1120 C   0  0  0  0  0  0  0  0  0  0  0  0
   58.3237   32.3194   49.1179 H   0  0  0  0  0  0  0  0  0  0  0  0
   59.3200   30.7780   47.9650 C   0  0  0  0  0  0  0  0  0  0  0  0
   59.6514   30.2242   48.8558 H   0  0  0  0  0  0  0  0  0  0  0  0
   59.6500   30.3050   46.6840 C   0  0  0  0  0  0  0  0  0  0  0  0
   60.4130   29.0200   46.5280 C   0  0  0  0  0  0  0  0  0  0  0  0
   61.2141   28.9784   47.2807 H   0  0  0  0  0  0  0  0  0  0  0  0
   60.8472   28.9783   45.5182 H   0  0  0  0  0  0  0  0  0  0  0  0
   59.5160   27.8800   46.7120 N   0  0  0  0  0  0  0  0  0  0  0  0
   59.7210   26.7460   47.4310 C   0  0  0  0  0  0  0  0  0  0  0  0
   60.8030   26.4880   48.0190 O   0  0  0  0  0  0  0  0  0  0  0  0
   58.6470   25.9090   47.4720 N   0  0  0  0  0  0  0  0  0  0  0  0
   57.7370   26.5830   46.7420 C   0  0  0  0  0  0  0  0  0  0  0  0
   56.4220   26.2520   46.4480 C   0  0  0  0  0  0  0  0  0  0  0  0
   55.9130   25.1720   46.8470 O   0  0  0  0  0  0  0  0  0  0  0  0
   55.6900   27.1370   45.7100 N   0  0  0  0  0  0  0  0  0  0  0  0
   56.2250   28.3230   45.2730 C   0  0  0  0  0  0  0  0  0  0  0  0
   55.4860   29.1380   44.5850 N   0  0  0  0  0  0  0  0  0  0  0  0
   55.8960   30.4890   44.2060 C   0  0  0  0  0  0  0  0  0  0  0  0
   56.5419   30.9083   44.9915 H   0  0  0  0  0  0  0  0  0  0  0  0
   55.0024   31.1190   44.0851 H   0  0  0  0  0  0  0  0  0  0  0  0
   56.6500   30.4470   42.9120 C   0  0  0  0  0  0  0  0  0  0  0  0
   56.5930   29.5446   42.2855 H   0  0  0  0  0  0  0  0  0  0  0  0
   57.3900   31.4810   42.5020 C   0  0  0  0  0  0  0  0  0  0  0  0
   57.9337   31.4240   41.5475 H   0  0  0  0  0  0  0  0  0  0  0  0
   57.4555   32.3893   43.1189 H   0  0  0  0  0  0  0  0  0  0  0  0
   57.5260   28.6390   45.5710 N   0  0  0  0  0  0  0  0  0  0  0  0
   58.2500   27.7540   46.2970 C   0  0  0  0  0  0  0  0  0  0  0  0
   59.2050   31.0090   45.5530 C   0  0  0  0  0  0  0  0  0  0  0  0
   59.4462   30.6376   44.5461 H   0  0  0  0  0  0  0  0  0  0  0  0
   58.4560   32.1810   45.7030 C   0  0  0  0  0  0  0  0  0  0  0  0
   58.1157   32.7320   44.8139 H   0  0  0  0  0  0  0  0  0  0  0  0
  1  2  1  0
  2  3  1  0
  3  4  2  0
  4  5  1  0
  4  6  1  0
  6  7  1  0
  6  8  2  0
  8  9  1  0
  9 10  1  0
  9 11  1  0
  9 12  1  0
 12 13  1  0
 13 14  2  0
 13 15  1  0
 15 16  1  0
 16 17  1  0
 17 18  2  0
 17 19  1  0
 19 20  1  0
 20 21  2  0
 21 22  1  0
 22 23  1  0
 22 24  1  0
 22 25  1  0
 25 26  1  0
 25 27  2  0
 27 28  1  0
 27 29  1  0
 20 30  1  0
 30 31  1  0
  8 32  1  0
 32 33  1  0
 32 34  2  0
 34 35  1  0
 34  3  1  0
 31 12  1  0
 31 16  2  0
M  CHG  3  15  -1  19  -1  30  -1
M  END
>  <UniqueID>  (5) 
5

>  <SMILES>  (5) 
C=CC/N=c1/[n-]c(=O)c2[n-]c(=O)n(Cc3ccc(O)cc3)c2[n-]1

>  <Energy>  (5) 
73.09846321618109

>  <Genealogy>  (5) 
C=CCN=c1[n-]c(=O)c2[n-]c(=O)n(Cc3ccc(O)cc3)c2[n-]1 (protonated)
C=CC/N=c1/[n-]c(=O)c2[n-]c(=O)n(Cc3ccc(O)cc3)c2[n-]1 (cis-trans isomerization)
C=CC/N=c1/[n-]c(=O)c2[n-]c(=O)n(Cc3ccc(O)cc3)c2[n-]1 (3D coordinates assigned)
C=CC/N=c1/[n-]c(=O)c2[n-]c(=O)n(Cc3ccc(O)cc3)c2[n-]1 (optimized conformer: 73.09846321618109 kcal/mol)

>  <smiles>  (5) 
C=CCN=c1[nH]c(=O)c2[nH]c(=O)n(Cc3ccc(O)cc3)c2[nH]1

>  <score_type>  (5) 
oracle

>  <origin>  (5) 
adg

>  <m_score__min__energy>  (5) 
-11.359999999999999

>  <m_primary>  (5) 
energy

$$$$
5:0
     RDKit          3D

 49 52  0  0  0  0  0  0  0  0999 V2000
   55.1490   29.2980   44.8670 N   0  0  0  0  0  0  0  0  0  0  0  0
   56.6670   30.0410   44.5090 S   0  0  0  0  0  0  0  0  0  0  0  0
   56.6410   31.4770   44.9540 O   0  0  0  0  0  0  0  0  0  0  0  0
   56.9090   30.0000   43.0260 O   0  0  0  0  0  0  0  0  0  0  0  0
   57.9510   29.1810   45.3500 C   0  0  0  0  0  0  0  0  0  0  0  0
   58.8520   28.3810   44.6340 C   0  0  0  0  0  0  0  0  0  0  0  0
   59.8700   27.6960   45.3040 C   0  0  0  0  0  0  0  0  0  0  0  0
   59.9890   27.8010   46.6930 C   0  0  0  0  0  0  0  0  0  0  0  0
   59.0850   28.5890   47.4230 C   0  0  0  0  0  0  0  0  0  0  0  0
   59.2170   28.7250   48.9160 C   0  0  0  0  0  0  0  0  0  0  0  0
   60.1820   29.7710   49.2530 N   0  0  0  0  0  0  0  0  0  0  0  0
   59.8780   30.9190   49.7810 C   0  0  0  0  0  0  0  0  0  0  0  0
   60.2340   32.0950   49.1630 N   0  0  0  0  0  0  0  0  0  0  0  0
   59.9130   33.3090   49.7000 C   0  0  0  0  0  0  0  0  0  0  0  0
   60.2390   34.3770   49.1190 O   0  0  0  0  0  0  0  0  0  0  0  0
   59.2160   33.3190   50.8990 C   0  0  0  0  0  0  0  0  0  0  0  0
   58.7510   34.3500   51.6230 N   0  0  0  0  0  0  0  0  0  0  0  0
   58.1200   33.7600   52.6710 C   0  0  0  0  0  0  0  0  0  0  0  0
   58.1850   32.4030   52.6220 N   0  0  0  0  0  0  0  0  0  0  0  0
   57.5490   31.4580   53.5470 C   0  0  2  0  0  0  0  0  0  0  0  0
   58.5110   30.9230   54.4330 O   0  0  0  0  0  0  0  0  0  0  0  0
   58.2340   29.5470   54.5940 C   0  0  1  0  0  0  0  0  0  0  0  0
   57.4050   29.3250   55.8700 C   0  0  0  0  0  0  0  0  0  0  0  0
   56.4690   30.3570   56.0320 O   0  0  0  0  0  0  0  0  0  0  0  0
   57.5040   29.0510   53.3410 C   0  0  2  0  0  0  0  0  0  0  0  0
   58.4010   28.4940   52.4080 O   0  0  0  0  0  0  0  0  0  0  0  0
   56.8230   30.3080   52.8240 C   0  0  2  0  0  0  0  0  0  0  0  0
   56.8060   30.4080   51.4170 O   0  0  0  0  0  0  0  0  0  0  0  0
   58.8760   32.1520   51.4950 C   0  0  0  0  0  0  0  0  0  0  0  0
   59.1890   30.9460   50.9620 N   0  0  0  0  0  0  0  0  0  0  0  0
   58.0650   29.2770   46.7440 C   0  0  0  0  0  0  0  0  0  0  0  0
   55.3170   28.6230   45.6470 H   0  0  0  0  0  0  0  0  0  0  0  0
   58.7579   28.2919   43.5417 H   0  0  0  0  0  0  0  0  0  0  0  0
   60.5783   27.0736   44.7375 H   0  0  0  0  0  0  0  0  0  0  0  0
   60.7941   27.2641   47.2160 H   0  0  0  0  0  0  0  0  0  0  0  0
   58.2375   28.9852   49.3436 H   0  0  0  0  0  0  0  0  0  0  0  0
   59.5703   27.7690   49.3299 H   0  0  0  0  0  0  0  0  0  0  0  0
   58.8360   35.3710   51.4210 H   0  0  0  0  0  0  0  0  0  0  0  0
   57.6123   34.3186   53.4712 H   0  0  0  0  0  0  0  0  0  0  0  0
   56.7901   32.0261   54.1051 H   0  0  0  0  0  0  0  0  0  0  0  0
   59.1648   28.9723   54.7096 H   0  0  0  0  0  0  0  0  0  0  0  0
   56.8752   28.3639   55.7951 H   0  0  0  0  0  0  0  0  0  0  0  0
   58.0813   29.3179   56.7375 H   0  0  0  0  0  0  0  0  0  0  0  0
   56.9620   31.2110   55.9080 H   0  0  0  0  0  0  0  0  0  0  0  0
   56.7890   28.2390   53.5396 H   0  0  0  0  0  0  0  0  0  0  0  0
   58.5920   29.1740   51.7100 H   0  0  0  0  0  0  0  0  0  0  0  0
   55.7459   30.3191   53.0471 H   0  0  0  0  0  0  0  0  0  0  0  0
   57.6730   30.0900   51.0600 H   0  0  0  0  0  0  0  0  0  0  0  0
   57.3518   29.8945   47.3096 H   0  0  0  0  0  0  0  0  0  0  0  0
  1  2  1  0
  2  3  2  0
  2  4  2  0
  2  5  1  0
  5  6  2  0
  6  7  1  0
  7  8  2  0
  8  9  1  0
  9 10  1  0
 10 11  1  0
 11 12  2  3
 12 13  1  0
 13 14  1  0
 14 15  2  0
 14 16  1  0
 16 17  1  0
 17 18  2  0
 18 19  1  0
 19 20  1  0
 20 21  1  0
 21 22  1  0
 22 23  1  0
 23 24  1  0
 22 25  1  0
 25 26  1  0
 25 27  1  0
 27 28  1  0
 19 29  1  0
 29 30  1  0
  9 31  2  0
 31  5  1  0
 30 12  1  0
 29 16  2  0
 27 20  1  0
  1 32  1  0
  6 33  1  0
  7 34  1  0
  8 35  1  0
 10 36  1  0
 10 37  1  0
 17 38  1  0
 18 39  1  0
 20 40  1  1
 22 41  1  1
 23 42  1  0
 23 43  1  0
 24 44  1  0
 25 45  1  1
 26 46  1  0
 27 47  1  1
 28 48  1  0
 31 49  1  0
M  CHG  4   1  -1  13  -1  17   1  30  -1
M  END
>  <UniqueID>  (6) 
6

>  <SMILES>  (6) 
[NH-]S(=O)(=O)c1cccc(CN=c2[n-]c(=O)c3[nH+]cn([C@@H]4O[C@@H](CO)C(O)C4O)c3[n-]2)c1

>  <Energy>  (6) 
100.2416040914548

>  <Genealogy>  (6) 
[NH-]S(=O)(=O)c1cccc(CN=c2[n-]c(=O)c3[nH+]cn(C4OC(CO)C(O)C4O)c3[n-]2)c1 (protonated)
[NH-]S(=O)(=O)c1cccc(CN=c2[n-]c(=O)c3[nH+]cn([C@@H]4O[C@@H](CO)C(O)C4O)c3[n-]2)c1 (chirality)
[NH-]S(=O)(=O)c1cccc(CN=c2[n-]c(=O)c3[nH+]cn([C@@H]4O[C@@H](CO)C(O)C4O)c3[n-]2)c1 (3D coordinates assigned)
[NH-]S(=O)(=O)c1cccc(CN=c2[n-]c(=O)c3[nH+]cn([C@@H]4O[C@@H](CO)C(O)C4O)c3[n-]2)c1 (nonaromatic ring conformer: 100.2416040914548 kcal/mol)

>  <smiles>  (6) 
NS(=O)(=O)c1cccc(CN=c2[nH]c(=O)c3ncn(C4OC(CO)C(O)C4O)c3[nH]2)c1

>  <score_type>  (6) 
oracle

>  <origin>  (6) 
adg

>  <m_score__min__energy>  (6) 
-10.68

>  <m_primary>  (6) 
energy

$$$$
6:0
     RDKit          3D

 46 49  0  0  0  0  0  0  0  0999 V2000
   56.5400   32.1540   50.2960 H   0  0  0  0  0  0  0  0  0  0  0  0
   57.2230   31.8740   51.0340 N   0  0  0  0  0  0  0  0  0  0  0  0
   58.3200   32.5230   51.2720 C   0  0  0  0  0  0  0  0  0  0  0  0
   59.4120   32.5690   50.2700 C   0  0  0  0  0  0  0  0  0  0  0  0
   59.7890   31.5200   49.4310 C   0  0  0  0  0  0  0  0  0  0  0  0
   59.3457   30.5145   49.3811 H   0  0  0  0  0  0  0  0  0  0  0  0
   60.8370   32.0110   48.6760 C   0  0  0  0  0  0  0  0  0  0  0  0
   61.6370   31.4030   47.6960 C   0  0  0  0  0  0  0  0  0  0  0  0
   61.4340   30.0850   47.2650 O   0  0  0  0  0  0  0  0  0  0  0  0
   60.3890   29.6910   46.4170 C   0  0  0  0  0  0  0  0  0  0  0  0
   60.4930   28.4770   45.7300 C   0  0  0  0  0  0  0  0  0  0  0  0
   61.3961   27.8591   45.8423 H   0  0  0  0  0  0  0  0  0  0  0  0
   59.4540   28.0470   44.9020 C   0  0  0  0  0  0  0  0  0  0  0  0
   59.5354   27.0860   44.3730 H   0  0  0  0  0  0  0  0  0  0  0  0
   58.3100   28.8360   44.7440 C   0  0  0  0  0  0  0  0  0  0  0  0
   57.4893   28.4853   44.1009 H   0  0  0  0  0  0  0  0  0  0  0  0
   58.2020   30.0680   45.3980 C   0  0  0  0  0  0  0  0  0  0  0  0
   57.0410   30.8330   45.1900 O   0  0  0  0  0  0  0  0  0  0  0  0
   56.9930   32.0910   44.5160 C   0  0  0  0  0  0  0  0  0  0  0  0
   57.3853   31.9662   43.4959 H   0  0  0  0  0  0  0  0  0  0  0  0
   55.9476   32.4324   44.4918 H   0  0  0  0  0  0  0  0  0  0  0  0
   57.8160   33.1290   45.2350 C   0  0  0  0  0  0  0  0  0  0  0  0
   58.7540   33.8990   44.5290 C   0  0  0  0  0  0  0  0  0  0  0  0
   58.8607   33.7719   43.4416 H   0  0  0  0  0  0  0  0  0  0  0  0
   59.5530   34.8270   45.2040 C   0  0  0  0  0  0  0  0  0  0  0  0
   60.2820   35.4328   44.6458 H   0  0  0  0  0  0  0  0  0  0  0  0
   59.4270   34.9860   46.5860 C   0  0  0  0  0  0  0  0  0  0  0  0
   60.0594   35.7138   47.1156 H   0  0  0  0  0  0  0  0  0  0  0  0
   58.4980   34.2210   47.2960 C   0  0  0  0  0  0  0  0  0  0  0  0
   58.3967   34.3497   48.3837 H   0  0  0  0  0  0  0  0  0  0  0  0
   57.6970   33.2920   46.6250 C   0  0  0  0  0  0  0  0  0  0  0  0
   56.9711   32.6866   47.1877 H   0  0  0  0  0  0  0  0  0  0  0  0
   59.2520   30.4980   46.2300 C   0  0  0  0  0  0  0  0  0  0  0  0
   59.1834   31.4715   46.7375 H   0  0  0  0  0  0  0  0  0  0  0  0
   62.6980   32.1580   47.1610 C   0  0  0  0  0  0  0  0  0  0  0  0
   63.3664   31.7063   46.4132 H   0  0  0  0  0  0  0  0  0  0  0  0
   62.9110   33.4910   47.5770 C   0  0  0  0  0  0  0  0  0  0  0  0
   63.7339   34.0745   47.1383 H   0  0  0  0  0  0  0  0  0  0  0  0
   62.0800   34.0780   48.5470 C   0  0  0  0  0  0  0  0  0  0  0  0
   62.2342   35.1175   48.8719 H   0  0  0  0  0  0  0  0  0  0  0  0
   61.0550   33.3020   49.0840 C   0  0  0  0  0  0  0  0  0  0  0  0
   60.1910   33.6570   50.0500 N   0  0  0  0  0  0  0  0  0  0  0  0
   60.1380   34.5880   50.5170 H   0  0  0  0  0  0  0  0  0  0  0  0
   58.4550   33.2100   52.5190 N   0  0  0  0  0  0  0  0  0  0  0  0
   57.6650   33.2150   53.2030 H   0  0  0  0  0  0  0  0  0  0  0  0
   59.3460   33.6760   52.7940 H   0  0  0  0  0  0  0  0  0  0  0  0
  1  2  1  0
  2  3  2  0
  3  4  1  0
  4  5  2  0
  5  6  1  0
  5  7  1  0
  7  8  2  0
  8  9  1  0
  9 10  1  0
 10 11  2  0
 11 12  1  0
 11 13  1  0
 13 14  1  0
 13 15  2  0
 15 16  1  0
 15 17  1  0
 17 18  1  0
 18 19  1  0
 19 20  1  0
 19 21  1  0
 19 22  1  0
 22 23  2  0
 23 24  1  0
 23 25  1  0
 25 26  1  0
 25 27  2  0
 27 28  1  0
 27 29  1  0
 29 30  1  0
 29 31  2  0
 31 32  1  0
 17 33  2  0
 33 34  1  0
  8 35  1  0
 35 36  1  0
 35 37  2  0
 37 38  1  0
 37 39  1  0
 39 40  1  0
 39 41  2  0
 41 42  1  0
 42 43  1  0
  3 44  1  0
 44 45  1  0
 44 46  1  0
 42  4  1  0
 41  7  1  0
 33 10  1  0
 31 22  1  0
M  END
>  <UniqueID>  (7) 
7

>  <SMILES>  (7) 
[H]/N=C(/N)c1cc2c(Oc3cccc(OCc4ccccc4)c3)cccc2[nH]1

>  <Energy>  (7) 
84.3021796923853

>  <Genealogy>  (7) 
[H]/N=C(/N)c1cc2c(Oc3cccc(OCc4ccccc4)c3)cccc2[nH]1 (cis-trans isomerization)
[H]/N=C(/N)c1cc2c(Oc3cccc(OCc4ccccc4)c3)cccc2[nH]1 (3D coordinates assigned)
[H]/N=C(/N)c1cc2c(Oc3cccc(OCc4ccccc4)c3)cccc2[nH]1 (optimized conformer: 84.3021796923853 kcal/mol)

>  <smiles>  (7) 
N=C(N)c1cc2c(Oc3cccc(OCc4ccccc4)c3)cccc2[nH]1

>  <score_type>  (7) 
oracle

>  <origin>  (7) 
adg

>  <m_score__min__energy>  (7) 
-9.2799999999999994

>  <m_primary>  (7) 
energy

$$$$
7:0
     RDKit          3D

 54 57  0  0  0  0  0  0  0  0999 V2000
   54.1640   28.2290   53.5530 C   0  0  0  0  0  0  0  0  0  0  0  0
   54.6060   29.2980   52.8710 C   0  0  0  0  0  0  0  0  0  0  0  0
   53.8340   30.3670   52.3870 C   0  0  0  0  0  0  0  0  0  0  0  0
   52.5000   30.5170   52.2740 C   0  0  0  0  0  0  0  0  0  0  0  0
   51.7760   30.8480   51.0360 C   0  0  0  0  0  0  0  0  0  0  0  0
   51.7670   30.0870   49.9250 N   0  0  0  0  0  0  0  0  0  0  0  0
   51.1060   30.8510   49.0290 C   0  0  0  0  0  0  0  0  0  0  0  0
   50.8770   30.4700   47.8520 O   0  0  0  0  0  0  0  0  0  0  0  0
   50.7180   32.0590   49.4910 N   0  0  0  0  0  0  0  0  0  0  0  0
   51.1630   32.0450   50.7570 C   0  0  0  0  0  0  0  0  0  0  0  0
   51.0190   33.1080   51.6390 O   0  0  0  0  0  0  0  0  0  0  0  0
   54.7330   31.3370   51.9780 C   0  0  0  0  0  0  0  0  0  0  0  0
   55.9960   30.8090   52.1430 C   0  0  0  0  0  0  0  0  0  0  0  0
   57.2350   31.5180   51.7730 C   0  0  0  0  0  0  0  0  0  0  0  0
   57.6780   32.4050   52.5520 O   0  0  0  0  0  0  0  0  0  0  0  0
   57.9130   31.2540   50.5270 N   0  0  0  0  0  0  0  0  0  0  0  0
   58.2470   29.8720   50.1570 C   0  0  0  0  0  0  0  0  0  0  0  0
   59.6100   29.8280   49.4560 C   0  0  0  0  0  0  0  0  0  0  0  0
   59.7350   30.8060   48.3430 N   0  0  0  0  0  0  0  0  0  0  0  0
   60.1120   30.1960   47.0500 C   0  0  0  0  0  0  0  0  0  0  0  0
   58.9500   30.0590   46.0950 C   0  0  0  0  0  0  0  0  0  0  0  0
   58.1590   28.9000   46.0890 C   0  0  0  0  0  0  0  0  0  0  0  0
   57.1020   28.7950   45.1810 C   0  0  0  0  0  0  0  0  0  0  0  0
   56.8410   29.8410   44.2950 C   0  0  0  0  0  0  0  0  0  0  0  0
   57.6450   30.9810   44.3300 C   0  0  0  0  0  0  0  0  0  0  0  0
   58.6710   31.0640   45.2190 N   0  0  0  0  0  0  0  0  0  0  0  0
   58.6290   31.7810   48.2190 C   0  0  0  0  0  0  0  0  0  0  0  0
   58.2280   32.3510   49.5910 C   0  0  2  0  0  0  0  0  0  0  0  0
   59.3350   33.2400   50.1690 C   0  0  0  0  0  0  0  0  0  0  0  0
   55.9250   29.5710   52.6890 N   0  0  0  0  0  0  0  0  0  0  0  0
   57.0520   28.7580   53.1620 C   0  0  0  0  0  0  0  0  0  0  0  0
   54.8725   27.4536   53.8798 H   0  0  0  0  0  0  0  0  0  0  0  0
   53.0934   28.1287   53.7849 H   0  0  0  0  0  0  0  0  0  0  0  0
   51.9000   30.3803   53.1857 H   0  0  0  0  0  0  0  0  0  0  0  0
   54.4867   32.3381   51.5945 H   0  0  0  0  0  0  0  0  0  0  0  0
   58.2846   29.2515   51.0645 H   0  0  0  0  0  0  0  0  0  0  0  0
   57.4775   29.4872   49.4716 H   0  0  0  0  0  0  0  0  0  0  0  0
   60.3913   30.0445   50.1994 H   0  0  0  0  0  0  0  0  0  0  0  0
   59.7175   28.8242   49.0191 H   0  0  0  0  0  0  0  0  0  0  0  0
   60.8805   30.8254   46.5774 H   0  0  0  0  0  0  0  0  0  0  0  0
   60.4815   29.1819   47.2626 H   0  0  0  0  0  0  0  0  0  0  0  0
   58.3691   28.0812   46.7929 H   0  0  0  0  0  0  0  0  0  0  0  0
   56.4771   27.8899   45.1647 H   0  0  0  0  0  0  0  0  0  0  0  0
   56.0108   29.7677   43.5771 H   0  0  0  0  0  0  0  0  0  0  0  0
   57.4488   31.8133   43.6380 H   0  0  0  0  0  0  0  0  0  0  0  0
   58.9513   32.6073   47.5683 H   0  0  0  0  0  0  0  0  0  0  0  0
   57.7577   31.2642   47.7902 H   0  0  0  0  0  0  0  0  0  0  0  0
   57.3315   32.9729   49.4516 H   0  0  0  0  0  0  0  0  0  0  0  0
   59.2949   33.2078   51.2678 H   0  0  0  0  0  0  0  0  0  0  0  0
   60.3146   32.8748   49.8270 H   0  0  0  0  0  0  0  0  0  0  0  0
   59.1899   34.2754   49.8270 H   0  0  0  0  0  0  0  0  0  0  0  0
   57.0625   28.7504   54.2619 H   0  0  0  0  0  0  0  0  0  0  0  0
   56.9436   27.7288   52.7893 H   0  0  0  0  0  0  0  0  0  0  0  0
   57.9945   29.1856   52.7893 H   0  0  0  0  0  0  0  0  0  0  0  0
  1  2  2  0
  2  3  1  0
  3  4  2  3
  4  5  1  0
  5  6  1  0
  6  7  1  0
  7  8  2  0
  7  9  1  0
  9 10  1  0
 10 11  1  0
  3 12  1  0
 12 13  2  0
 13 14  1  0
 14 15  2  0
 14 16  1  0
 16 17  1  0
 17 18  1  0
 18 19  1  0
 19 20  1  0
 20 21  1  0
 21 22  2  0
 22 23  1  0
 23 24  2  0
 24 25  1  0
 25 26  2  0
 19 27  1  0
 27 28  1  0
 28 29  1  0
 13 30  1  0
 30 31  1  0
 30  2  1  0
 10  5  2  0
 28 16  1  0
 26 21  1  0
  1 32  1  0
  1 33  1  0
  4 34  1  0
 12 35  1  0
 17 36  1  0
 17 37  1  0
 18 38  1  0
 18 39  1  0
 20 40  1  0
 20 41  1  0
 22 42  1  0
 23 43  1  0
 24 44  1  0
 25 45  1  0
 27 46  1  0
 27 47  1  0
 28 48  1  6
 29 49  1  0
 29 50  1  0
 29 51  1  0
 31 52  1  0
 31 53  1  0
 31 54  1  0
M  CHG  3   6  -1   9  -1  11  -1
M  END
>  <UniqueID>  (8) 
8

>  <SMILES>  (8) 
C=c1c(=Cc2[n-]c(=O)[n-]c2[O-])cc(C(=O)N2CCN(Cc3ccccn3)C[C@@H]2C)n1C

>  <Energy>  (8) 
139.48256348554472

>  <Genealogy>  (8) 
C=c1c(=Cc2[n-]c(=O)[n-]c2[O-])cc(C(=O)N2CCN(Cc3ccccn3)CC2C)n1C (protonated)
C=c1c(=Cc2[n-]c(=O)[n-]c2[O-])cc(C(=O)N2CCN(Cc3ccccn3)C[C@@H]2C)n1C (chirality)
C=c1c(=Cc2[n-]c(=O)[n-]c2[O-])cc(C(=O)N2CCN(Cc3ccccn3)C[C@@H]2C)n1C (3D coordinates assigned)
C=c1c(=Cc2[n-]c(=O)[n-]c2[O-])cc(C(=O)N2CCN(Cc3ccccn3)C[C@@H]2C)n1C (nonaromatic ring conformer: 139.48256348554472 kcal/mol)

>  <smiles>  (8) 
C=c1c(=Cc2[nH]c(=O)[nH]c2O)cc(C(=O)N2CCN(Cc3ccccn3)CC2C)n1C

>  <score_type>  (8) 
oracle

>  <origin>  (8) 
adg

>  <m_score__min__energy>  (8) 
-17.82

>  <m_primary>  (8) 
energy

$$$$
8:0
     RDKit          3D

 59 62  0  0  0  0  0  0  0  0999 V2000
   54.3840   26.6930   45.1650 H   0  0  0  0  0  0  0  0  0  0  0  0
   54.8110   26.6600   46.0820 O   0  0  0  0  0  0  0  0  0  0  0  0
   55.8740   25.8060   46.3660 C   0  0  0  0  0  0  0  0  0  0  0  0
   55.7050   24.5480   46.8070 N   0  0  0  0  0  0  0  0  0  0  0  0
   56.9730   24.1060   46.9420 C   0  0  0  0  0  0  0  0  0  0  0  0
   57.2480   22.9450   47.3410 O   0  0  0  0  0  0  0  0  0  0  0  0
   57.9230   25.0050   46.6130 N   0  0  0  0  0  0  0  0  0  0  0  0
   57.2180   26.0960   46.2560 C   0  0  0  0  0  0  0  0  0  0  0  0
   57.8030   27.3510   45.7340 C   0  0  0  0  0  0  0  0  0  0  0  0
   57.6489   27.5812   44.6695 H   0  0  0  0  0  0  0  0  0  0  0  0
   58.5120   28.2340   46.4690 C   0  0  0  0  0  0  0  0  0  0  0  0
   59.0080   28.0390   47.7490 C   0  0  0  0  0  0  0  0  0  0  0  0
   58.9152   27.1252   48.3542 H   0  0  0  0  0  0  0  0  0  0  0  0
   59.6400   29.2080   48.1200 C   0  0  0  0  0  0  0  0  0  0  0  0
   60.2520   29.4250   49.4490 C   0  0  0  0  0  0  0  0  0  0  0  0
   61.3590   28.8840   49.7180 O   0  0  0  0  0  0  0  0  0  0  0  0
   59.6260   30.2830   50.4200 N   0  0  0  0  0  0  0  0  0  0  0  0
   58.1810   30.1550   50.6620 C   0  0  0  0  0  0  0  0  0  0  0  0
   57.6397   30.3827   49.7319 H   0  0  0  0  0  0  0  0  0  0  0  0
   57.9721   29.1259   50.9897 H   0  0  0  0  0  0  0  0  0  0  0  0
   57.7180   31.1150   51.7560 C   0  0  0  0  0  0  0  0  0  0  0  0
   56.6259   31.2365   51.7052 H   0  0  0  0  0  0  0  0  0  0  0  0
   57.9853   30.7157   52.7455 H   0  0  0  0  0  0  0  0  0  0  0  0
   58.3720   32.4150   51.5440 N   0  0  0  0  0  0  0  0  0  0  0  0
   57.7360   33.4530   52.3690 C   0  0  0  0  0  0  0  0  0  0  0  0
   57.8814   33.2157   53.4332 H   0  0  0  0  0  0  0  0  0  0  0  0
   58.1913   34.4291   52.1454 H   0  0  0  0  0  0  0  0  0  0  0  0
   56.6596   33.4906   52.1454 H   0  0  0  0  0  0  0  0  0  0  0  0
   59.8200   32.3380   51.8370 C   0  0  0  0  0  0  0  0  0  0  0  0
   60.3250   33.1675   51.3204 H   0  0  0  0  0  0  0  0  0  0  0  0
   59.9342   32.3979   52.9294 H   0  0  0  0  0  0  0  0  0  0  0  0
   60.4680   31.0100   51.3820 C   0  0  0  0  0  0  0  0  0  0  0  0
   61.4360   31.2318   50.9090 H   0  0  0  0  0  0  0  0  0  0  0  0
   60.5935   30.3733   52.2702 H   0  0  0  0  0  0  0  0  0  0  0  0
   59.5580   30.1260   47.1260 N   0  0  0  0  0  0  0  0  0  0  0  0
   60.1180   31.4860   47.1500 C   0  0  0  0  0  0  0  0  0  0  0  0
   61.2018   31.4280   47.3289 H   0  0  0  0  0  0  0  0  0  0  0  0
   59.9184   31.9698   46.1824 H   0  0  0  0  0  0  0  0  0  0  0  0
   59.4660   32.3170   48.2640 C   0  0  0  0  0  0  0  0  0  0  0  0
   58.8994   31.6456   48.9260 H   0  0  0  0  0  0  0  0  0  0  0  0
   60.2618   32.8344   48.8198 H   0  0  0  0  0  0  0  0  0  0  0  0
   58.5470   33.3360   47.7120 N   0  0  0  0  0  0  0  0  0  0  0  0
   57.8130   32.8270   46.5270 C   0  0  0  0  0  0  0  0  0  0  0  0
   58.4621   32.1307   45.9759 H   0  0  0  0  0  0  0  0  0  0  0  0
   56.9023   32.3184   46.8761 H   0  0  0  0  0  0  0  0  0  0  0  0
   57.3980   33.9730   45.5890 C   0  0  0  0  0  0  0  0  0  0  0  0
   56.8358   33.5464   44.7453 H   0  0  0  0  0  0  0  0  0  0  0  0
   56.7916   34.6736   46.1819 H   0  0  0  0  0  0  0  0  0  0  0  0
   58.4990   34.7070   45.0710 O   0  0  0  0  0  0  0  0  0  0  0  0
   59.6210   34.7450   45.9430 C   0  0  0  0  0  0  0  0  0  0  0  0
   60.2963   33.9189   45.6755 H   0  0  0  0  0  0  0  0  0  0  0  0
   60.0918   35.7311   45.8168 H   0  0  0  0  0  0  0  0  0  0  0  0
   59.2550   34.6100   47.4320 C   0  0  0  0  0  0  0  0  0  0  0  0
   60.1777   34.6435   48.0299 H   0  0  0  0  0  0  0  0  0  0  0  0
   58.5828   35.4399   47.6956 H   0  0  0  0  0  0  0  0  0  0  0  0
   58.8580   29.5440   46.1140 C   0  0  0  0  0  0  0  0  0  0  0  0
   58.5550   30.1580   44.9580 C   0  0  0  0  0  0  0  0  0  0  0  0
   58.8793   31.1947   44.7844 H   0  0  0  0  0  0  0  0  0  0  0  0
   57.9827   29.6240   44.1852 H   0  0  0  0  0  0  0  0  0  0  0  0
  1  2  1  0
  2  3  1  0
  3  4  1  0
  4  5  1  0
  5  6  2  0
  5  7  1  0
  7  8  1  0
  8  9  1  0
  9 10  1  0
  9 11  2  0
 11 12  1  0
 12 13  1  0
 12 14  2  0
 14 15  1  0
 15 16  2  0
 15 17  1  0
 17 18  1  0
 18 19  1  0
 18 20  1  0
 18 21  1  0
 21 22  1  0
 21 23  1  0
 21 24  1  0
 24 25  1  0
 25 26  1  0
 25 27  1  0
 25 28  1  0
 24 29  1  0
 29 30  1  0
 29 31  1  0
 29 32  1  0
 32 33  1  0
 32 34  1  0
 14 35  1  0
 35 36  1  0
 36 37  1  0
 36 38  1  0
 36 39  1  0
 39 40  1  0
 39 41  1  0
 39 42  1  0
 42 43  1  0
 43 44  1  0
 43 45  1  0
 43 46  1  0
 46 47  1  0
 46 48  1  0
 46 49  1  0
 49 50  1  0
 50 51  1  0
 50 52  1  0
 50 53  1  0
 53 54  1  0
 53 55  1  0
 35 56  1  0
 56 57  2  0
 57 58  1  0
 57 59  1  0
  8  3  2  0
 56 11  1  0
 32 17  1  0
 53 42  1  0
M  CHG  2   4  -1   7  -1
M  END
>  <UniqueID>  (9) 
9

>  <SMILES>  (9) 
C=c1/c(=C/c2[n-]c(=O)[n-]c2O)cc(C(=O)N2CCN(C)CC2)n1CCN1CCOCC1

>  <Energy>  (9) 
145.4467805507542

>  <Genealogy>  (9) 
C=c1c(=Cc2[n-]c(=O)[n-]c2O)cc(C(=O)N2CCN(C)CC2)n1CCN1CCOCC1 (protonated)
C=c1/c(=C/c2[n-]c(=O)[n-]c2O)cc(C(=O)N2CCN(C)CC2)n1CCN1CCOCC1 (cis-trans isomerization)
C=c1/c(=C/c2[n-]c(=O)[n-]c2O)cc(C(=O)N2CCN(C)CC2)n1CCN1CCOCC1 (3D coordinates assigned)
C=c1/c(=C/c2[n-]c(=O)[n-]c2O)cc(C(=O)N2CCN(C)CC2)n1CCN1CCOCC1 (nonaromatic ring conformer: 145.4467805507542 kcal/mol)

>  <smiles>  (9) 
C=c1c(=Cc2[nH]c(=O)[nH]c2O)cc(C(=O)N2CCN(C)CC2)n1CCN1CCOCC1

>  <score_type>  (9) 
oracle

>  <origin>  (9) 
adg

>  <m_score__min__energy>  (9) 
-13.32

>  <m_primary>  (9) 
energy

$$$$
9:0
     RDKit          3D

 69 72  0  0  0  0  0  0  0  0999 V2000
   51.9440   23.9770   44.2730 C   0  0  0  0  0  0  0  0  0  0  0  0
   52.7720   23.8960   45.3140 C   0  0  0  0  0  0  0  0  0  0  0  0
   54.2200   24.1320   45.1960 C   0  0  0  0  0  0  0  0  0  0  0  0
   54.8190   23.7350   44.1610 O   0  0  0  0  0  0  0  0  0  0  0  0
   54.9260   24.8480   46.2170 N   0  0  0  0  0  0  0  0  0  0  0  0
   56.2990   25.2720   46.1810 C   0  0  0  0  0  0  0  0  0  0  0  0
   56.6370   26.6370   46.2590 C   0  0  0  0  0  0  0  0  0  0  0  0
   57.9810   27.0470   46.2010 C   0  0  0  0  0  0  0  0  0  0  0  0
   58.3560   28.4310   46.3160 N   0  0  0  0  0  0  0  0  0  0  0  0
   57.7910   29.4380   45.7170 C   0  0  0  0  0  0  0  0  0  0  0  0
   58.1570   30.7010   46.0580 N   0  0  0  0  0  0  0  0  0  0  0  0
   57.6150   31.7920   45.4470 C   0  0  0  0  0  0  0  0  0  0  0  0
   58.0060   33.1160   45.8630 N   0  0  0  0  0  0  0  0  0  0  0  0
   57.9490   34.2260   44.9090 C   0  0  0  0  0  0  0  0  0  0  0  0
   58.4410   33.3780   47.2110 C   0  0  0  0  0  0  0  0  0  0  0  0
   58.8770   34.5190   47.5280 O   0  0  0  0  0  0  0  0  0  0  0  0
   58.3770   32.3410   48.1990 N   0  0  0  0  0  0  0  0  0  0  0  0
   59.5020   31.8990   48.9700 C   0  0  0  0  0  0  0  0  0  0  0  0
   60.7490   31.6170   48.3610 C   0  0  0  0  0  0  0  0  0  0  0  0
   60.9540   31.7380   46.8750 C   0  0  0  0  0  0  0  0  0  0  0  0
   61.8310   31.2210   49.1650 C   0  0  0  0  0  0  0  0  0  0  0  0
   61.6700   31.0580   50.5420 C   0  0  0  0  0  0  0  0  0  0  0  0
   60.4270   31.2880   51.1330 C   0  0  0  0  0  0  0  0  0  0  0  0
   59.3430   31.7010   50.3520 C   0  0  0  0  0  0  0  0  0  0  0  0
   57.7950   31.9990   51.1320 Cl  0  0  0  0  0  0  0  0  0  0  0  0
   56.6530   31.6030   44.4460 C   0  0  0  0  0  0  0  0  0  0  0  0
   56.2980   30.3030   44.0950 C   0  0  0  0  0  0  0  0  0  0  0  0
   56.8720   29.2500   44.7300 N   0  0  0  0  0  0  0  0  0  0  0  0
   58.9880   26.0840   46.1090 C   0  0  0  0  0  0  0  0  0  0  0  0
   58.6630   24.7320   45.9990 C   0  0  0  0  0  0  0  0  0  0  0  0
   57.3230   24.3140   46.0150 C   0  0  0  0  0  0  0  0  0  0  0  0
   57.0250   22.8370   45.8820 C   0  0  0  0  0  0  0  0  0  0  0  0
   57.0690   22.1810   47.2060 N   0  0  0  0  0  0  0  0  0  0  0  0
   56.4480   20.8390   47.1400 C   0  0  0  0  0  0  0  0  0  0  0  0
   56.0630   20.3330   48.5370 C   0  0  0  0  0  0  0  0  0  0  0  0
   55.0810   21.2220   49.2050 N   0  0  0  0  0  0  0  0  0  0  0  0
   53.7210   20.6650   49.1380 C   0  0  0  0  0  0  0  0  0  0  0  0
   55.0910   22.6100   48.6910 C   0  0  0  0  0  0  0  0  0  0  0  0
   56.5060   23.0410   48.2800 C   0  0  0  0  0  0  0  0  0  0  0  0
   50.8684   23.7921   44.4101 H   0  0  0  0  0  0  0  0  0  0  0  0
   52.3362   24.2288   43.2766 H   0  0  0  0  0  0  0  0  0  0  0  0
   52.3568   23.6427   46.3006 H   0  0  0  0  0  0  0  0  0  0  0  0
   55.8421   27.3897   46.3663 H   0  0  0  0  0  0  0  0  0  0  0  0
   57.9001   35.1784   45.4571 H   0  0  0  0  0  0  0  0  0  0  0  0
   58.8490   34.2126   44.2767 H   0  0  0  0  0  0  0  0  0  0  0  0
   57.0551   34.1205   44.2767 H   0  0  0  0  0  0  0  0  0  0  0  0
   61.8858   32.2880   46.6770 H   0  0  0  0  0  0  0  0  0  0  0  0
   61.0195   30.7338   46.4309 H   0  0  0  0  0  0  0  0  0  0  0  0
   60.1065   32.2807   46.4309 H   0  0  0  0  0  0  0  0  0  0  0  0
   62.8135   31.0378   48.7054 H   0  0  0  0  0  0  0  0  0  0  0  0
   62.5241   30.7479   51.1620 H   0  0  0  0  0  0  0  0  0  0  0  0
   60.2995   31.1441   52.2161 H   0  0  0  0  0  0  0  0  0  0  0  0
   56.1869   32.4653   43.9468 H   0  0  0  0  0  0  0  0  0  0  0  0
   55.5533   30.1299   43.3041 H   0  0  0  0  0  0  0  0  0  0  0  0
   60.0435   26.3933   46.1234 H   0  0  0  0  0  0  0  0  0  0  0  0
   59.4649   23.9857   45.8987 H   0  0  0  0  0  0  0  0  0  0  0  0
   56.0233   22.7072   45.4463 H   0  0  0  0  0  0  0  0  0  0  0  0
   57.7830   22.3774   45.2308 H   0  0  0  0  0  0  0  0  0  0  0  0
   55.5433   20.8932   46.5167 H   0  0  0  0  0  0  0  0  0  0  0  0
   57.1781   20.1397   46.7066 H   0  0  0  0  0  0  0  0  0  0  0  0
   55.6239   19.3290   48.4414 H   0  0  0  0  0  0  0  0  0  0  0  0
   56.9747   20.3148   49.1523 H   0  0  0  0  0  0  0  0  0  0  0  0
   53.3383   20.5083   50.1573 H   0  0  0  0  0  0  0  0  0  0  0  0
   53.0635   21.3663   48.6033 H   0  0  0  0  0  0  0  0  0  0  0  0
   53.7443   19.7040   48.6033 H   0  0  0  0  0  0  0  0  0  0  0  0
   54.4284   22.6728   47.8152 H   0  0  0  0  0  0  0  0  0  0  0  0
   54.7421   23.2796   49.4909 H   0  0  0  0  0  0  0  0  0  0  0  0
   56.4684   24.0792   47.9184 H   0  0  0  0  0  0  0  0  0  0  0  0
   57.1560   22.9458   49.1623 H   0  0  0  0  0  0  0  0  0  0  0  0
  1  2  2  0
  2  3  1  0
  3  4  2  0
  3  5  1  0
  5  6  1  0
  6  7  2  0
  7  8  1  0
  8  9  1  0
  9 10  2  3
 10 11  1  0
 11 12  2  0
 12 13  1  0
 13 14  1  0
 13 15  1  0
 15 16  2  0
 15 17  1  0
 17 18  1  0
 18 19  2  0
 19 20  1  0
 19 21  1  0
 21 22  2  0
 22 23  1  0
 23 24  2  0
 24 25  1  0
 12 26  1  0
 26 27  2  0
 27 28  1  0
  8 29  2  0
 29 30  1  0
 30 31  2  0
 31 32  1  0
 32 33  1  0
 33 34  1  0
 34 35  1  0
 35 36  1  0
 36 37  1  0
 36 38  1  0
 38 39  1  0
 31  6  1  0
 39 33  1  0
 28 10  1  0
 24 18  1  0
  1 40  1  0
  1 41  1  0
  2 42  1  0
  7 43  1  0
 14 44  1  0
 14 45  1  0
 14 46  1  0
 20 47  1  0
 20 48  1  0
 20 49  1  0
 21 50  1  0
 22 51  1  0
 23 52  1  0
 26 53  1  0
 27 54  1  0
 29 55  1  0
 30 56  1  0
 32 57  1  0
 32 58  1  0
 34 59  1  0
 34 60  1  0
 35 61  1  0
 35 62  1  0
 37 63  1  0
 37 64  1  0
 37 65  1  0
 38 66  1  0
 38 67  1  0
 39 68  1  0
 39 69  1  0
M  CHG  3   5  -1  17  -1  28  -1
M  END
>  <UniqueID>  (10) 
10

>  <SMILES>  (10) 
C=CC(=O)[N-]c1cc(N=c2nc(N(C)C(=O)[N-]c3c(C)cccc3Cl)cc[n-]2)ccc1CN1CCN(C)CC1

>  <Energy>  (10) 
104.73156194884467

>  <Genealogy>  (10) 
C=CC(=O)[N-]c1cc(N=c2nc(N(C)C(=O)[N-]c3c(C)cccc3Cl)cc[n-]2)ccc1CN1CCN(C)CC1 (protonated)
C=CC(=O)[N-]c1cc(N=c2nc(N(C)C(=O)[N-]c3c(C)cccc3Cl)cc[n-]2)ccc1CN1CCN(C)CC1 (3D coordinates assigned)
C=CC(=O)[N-]c1cc(N=c2nc(N(C)C(=O)[N-]c3c(C)cccc3Cl)cc[n-]2)ccc1CN1CCN(C)CC1 (nonaromatic ring conformer: 104.73156194884467 kcal/mol)

>  <smiles>  (10) 
C=CC(=O)Nc1cc(N=c2nc(N(C)C(=O)Nc3c(C)cccc3Cl)cc[nH]2)ccc1CN1CCN(C)CC1

>  <score_type>  (10) 
oracle

>  <origin>  (10) 
adg

>  <m_score__min__energy>  (10) 
-13.07

>  <m_primary>  (10) 
energy

$$$$
10:0
     RDKit          3D

 54 57  0  0  0  0  0  0  0  0999 V2000
   54.4080   29.3710   45.4780 H   0  0  0  0  0  0  0  0  0  0  0  0
   55.2480   29.3720   44.8570 N   0  0  0  0  0  0  0  0  0  0  0  0
   56.5520   29.1580   45.3900 C   0  0  0  0  0  0  0  0  0  0  0  0
   57.4110   30.0760   45.3140 O   0  0  0  0  0  0  0  0  0  0  0  0
   56.9260   27.8570   45.9710 C   0  0  0  0  0  0  0  0  0  0  0  0
   56.1280   26.7670   45.8010 N   0  0  0  0  0  0  0  0  0  0  0  0
   56.5750   25.6970   46.4920 C   0  0  0  0  0  0  0  0  0  0  0  0
   55.9760   24.5440   46.4420 N   0  0  0  0  0  0  0  0  0  0  0  0
   56.3630   23.4490   45.6010 C   0  0  0  0  0  0  0  0  0  0  0  0
   55.9860   23.4600   44.2520 C   0  0  0  0  0  0  0  0  0  0  0  0
   55.4149   24.3103   43.8510 H   0  0  0  0  0  0  0  0  0  0  0  0
   56.3310   22.3970   43.4120 C   0  0  0  0  0  0  0  0  0  0  0  0
   56.0462   22.4206   42.3498 H   0  0  0  0  0  0  0  0  0  0  0  0
   57.0380   21.3040   43.9220 C   0  0  0  0  0  0  0  0  0  0  0  0
   57.3165   20.4715   43.2592 H   0  0  0  0  0  0  0  0  0  0  0  0
   57.3910   21.2690   45.2740 C   0  0  0  0  0  0  0  0  0  0  0  0
   57.9427   20.4059   45.6750 H   0  0  0  0  0  0  0  0  0  0  0  0
   57.0440   22.3300   46.1190 C   0  0  0  0  0  0  0  0  0  0  0  0
   57.3580   22.2540   47.4720 O   0  0  0  0  0  0  0  0  0  0  0  0
   57.9950   26.0380   47.3420 S   0  0  0  0  0  0  0  0  0  0  0  0
   58.0330   27.6270   46.7980 C   0  0  0  0  0  0  0  0  0  0  0  0
   59.1070   28.5300   47.0860 N   0  0  0  0  0  0  0  0  0  0  0  0
   60.2920   28.1600   47.7950 C   0  0  0  0  0  0  0  0  0  0  0  0
   60.9200   27.1090   47.4880 O   0  0  0  0  0  0  0  0  0  0  0  0
   60.7120   28.9510   48.9120 N   0  0  0  0  0  0  0  0  0  0  0  0
   60.0270   30.1270   49.3600 C   0  0  0  0  0  0  0  0  0  0  0  0
   60.1020   31.2830   48.5720 C   0  0  0  0  0  0  0  0  0  0  0  0
   60.6868   31.2675   47.6404 H   0  0  0  0  0  0  0  0  0  0  0  0
   59.4410   32.4610   48.9550 C   0  0  0  0  0  0  0  0  0  0  0  0
   59.5030   33.6670   48.0970 C   0  0  0  0  0  0  0  0  0  0  0  0
   60.1690   34.6680   48.4780 O   0  0  0  0  0  0  0  0  0  0  0  0
   58.8330   33.7100   46.8240 N   0  0  0  0  0  0  0  0  0  0  0  0
   59.4560   34.4240   45.7080 C   0  0  0  0  0  0  0  0  0  0  0  0
   59.2130   35.4946   45.7764 H   0  0  0  0  0  0  0  0  0  0  0  0
   60.5472   34.2920   45.7519 H   0  0  0  0  0  0  0  0  0  0  0  0
   58.9270   33.8640   44.3840 C   0  0  0  0  0  0  0  0  0  0  0  0
   59.2992   34.4852   43.5560 H   0  0  0  0  0  0  0  0  0  0  0  0
   59.2790   32.8275   44.2755 H   0  0  0  0  0  0  0  0  0  0  0  0
   57.5120   33.8650   44.3640 O   0  0  0  0  0  0  0  0  0  0  0  0
   57.0170   32.9820   45.3530 C   0  0  0  0  0  0  0  0  0  0  0  0
   55.9217   32.9238   45.2692 H   0  0  0  0  0  0  0  0  0  0  0  0
   57.4658   31.9899   45.1969 H   0  0  0  0  0  0  0  0  0  0  0  0
   57.3880   33.4740   46.7550 C   0  0  0  0  0  0  0  0  0  0  0  0
   56.8529   34.4111   46.9682 H   0  0  0  0  0  0  0  0  0  0  0  0
   57.1051   32.7130   47.4972 H   0  0  0  0  0  0  0  0  0  0  0  0
   58.6900   32.4660   50.1410 C   0  0  0  0  0  0  0  0  0  0  0  0
   58.1416   33.3727   50.4362 H   0  0  0  0  0  0  0  0  0  0  0  0
   58.6340   31.3280   50.9490 C   0  0  0  0  0  0  0  0  0  0  0  0
   58.0469   31.3482   51.8790 H   0  0  0  0  0  0  0  0  0  0  0  0
   59.3200   30.1590   50.5850 C   0  0  0  0  0  0  0  0  0  0  0  0
   59.2790   28.9710   51.5050 C   0  0  0  0  0  0  0  0  0  0  0  0
   59.2909   29.3156   52.5496 H   0  0  0  0  0  0  0  0  0  0  0  0
   58.3604   28.3950   51.3193 H   0  0  0  0  0  0  0  0  0  0  0  0
   60.1557   28.3330   51.3193 H   0  0  0  0  0  0  0  0  0  0  0  0
  1  2  1  0
  2  3  1  0
  3  4  2  0
  3  5  1  0
  5  6  1  0
  6  7  1  0
  7  8  2  0
  8  9  1  0
  9 10  2  0
 10 11  1  0
 10 12  1  0
 12 13  1  0
 12 14  2  0
 14 15  1  0
 14 16  1  0
 16 17  1  0
 16 18  2  0
 18 19  1  0
  7 20  1  0
 20 21  1  0
 21 22  1  0
 22 23  1  0
 23 24  2  0
 23 25  1  0
 25 26  1  0
 26 27  2  0
 27 28  1  0
 27 29  1  0
 29 30  1  0
 30 31  2  0
 30 32  1  0
 32 33  1  0
 33 34  1  0
 33 35  1  0
 33 36  1  0
 36 37  1  0
 36 38  1  0
 36 39  1  0
 39 40  1  0
 40 41  1  0
 40 42  1  0
 40 43  1  0
 43 44  1  0
 43 45  1  0
 29 46  2  0
 46 47  1  0
 46 48  1  0
 48 49  1  0
 48 50  2  0
 50 51  1  0
 51 52  1  0
 51 53  1  0
 51 54  1  0
 21  5  2  0
 50 26  1  0
 18  9  1  0
 43 32  1  0
M  CHG  5   2  -1   6  -1  19  -1  22  -1  25  -1
M  END
>  <UniqueID>  (11) 
11

>  <SMILES>  (11) 
Cc1ccc(C(=O)N2CCOCC2)cc1[N-]C(=O)[N-]c1s/c(=N\c2ccccc2[O-])[n-]c1C([NH-])=O

>  <Energy>  (11) 
115.62938112815222

>  <Genealogy>  (11) 
Cc1ccc(C(=O)N2CCOCC2)cc1[N-]C(=O)[N-]c1sc(=Nc2ccccc2[O-])[n-]c1C([NH-])=O (protonated)
Cc1ccc(C(=O)N2CCOCC2)cc1[N-]C(=O)[N-]c1s/c(=N\c2ccccc2[O-])[n-]c1C([NH-])=O (cis-trans isomerization)
Cc1ccc(C(=O)N2CCOCC2)cc1[N-]C(=O)[N-]c1s/c(=N\c2ccccc2[O-])[n-]c1C([NH-])=O (3D coordinates assigned)
Cc1ccc(C(=O)N2CCOCC2)cc1[N-]C(=O)[N-]c1s/c(=N\c2ccccc2[O-])[n-]c1C([NH-])=O (nonaromatic ring conformer: 115.62938112815222 kcal/mol)

>  <smiles>  (11) 
Cc1ccc(C(=O)N2CCOCC2)cc1NC(=O)Nc1sc(=Nc2ccccc2O)[nH]c1C(N)=O

>  <score_type>  (11) 
oracle

>  <origin>  (11) 
adg

>  <m_score__min__energy>  (11) 
-18.59

>  <m_primary>  (11) 
energy

$$$$
11:0
     RDKit          3D

 67 71  0  0  0  0  0  0  0  0999 V2000
   56.8430   29.3900   43.0690 C   0  0  0  0  0  0  0  0  0  0  0  0
   57.4750   29.2890   44.2450 C   0  0  0  0  0  0  0  0  0  0  0  0
   57.7470   28.1380   45.0190 C   0  0  0  0  0  0  0  0  0  0  0  0
   57.6020   26.8350   44.7040 C   0  0  0  0  0  0  0  0  0  0  0  0
   57.0970   25.7740   45.5880 C   0  0  0  0  0  0  0  0  0  0  0  0
   57.8480   24.7790   46.0990 N   0  0  0  0  0  0  0  0  0  0  0  0
   57.0180   24.1860   46.9860 C   0  0  0  0  0  0  0  0  0  0  0  0
   57.3590   23.1830   47.6650 O   0  0  0  0  0  0  0  0  0  0  0  0
   55.8050   24.7650   47.1000 N   0  0  0  0  0  0  0  0  0  0  0  0
   55.8770   25.7760   46.2200 C   0  0  0  0  0  0  0  0  0  0  0  0
   54.8490   26.6880   46.0050 O   0  0  0  0  0  0  0  0  0  0  0  0
   58.2200   28.5090   46.2340 N   0  0  0  0  0  0  0  0  0  0  0  0
   58.3030   29.8490   46.2260 C   0  0  0  0  0  0  0  0  0  0  0  0
   58.7470   30.6620   47.2640 C   0  0  0  0  0  0  0  0  0  0  0  0
   58.7290   32.0610   47.0780 C   0  0  0  0  0  0  0  0  0  0  0  0
   59.1660   32.9540   48.2140 C   0  0  0  0  0  0  0  0  0  0  0  0
   58.9800   32.2920   49.5550 C   0  0  0  0  0  0  0  0  0  0  0  0
   58.1370   31.3660   49.6970 O   0  0  0  0  0  0  0  0  0  0  0  0
   59.7300   32.7510   50.6910 N   0  0  0  0  0  0  0  0  0  0  0  0
   61.1350   32.3490   50.8380 C   0  0  0  0  0  0  0  0  0  0  0  0
   61.8730   32.5290   49.5380 C   0  0  0  0  0  0  0  0  0  0  0  0
   62.3650   33.7930   49.1720 C   0  0  0  0  0  0  0  0  0  0  0  0
   63.0630   33.9590   47.9710 C   0  0  0  0  0  0  0  0  0  0  0  0
   63.2780   32.8630   47.1280 C   0  0  0  0  0  0  0  0  0  0  0  0
   62.8030   31.6020   47.4900 C   0  0  0  0  0  0  0  0  0  0  0  0
   62.1030   31.4320   48.6900 C   0  0  0  0  0  0  0  0  0  0  0  0
   59.0690   33.5030   51.7240 C   0  0  0  0  0  0  0  0  0  0  0  0
   59.6450   34.4950   52.2480 O   0  0  0  0  0  0  0  0  0  0  0  0
   57.7550   33.1100   52.1510 N   0  0  0  0  0  0  0  0  0  0  0  0
   57.2440   31.7970   52.4230 C   0  0  0  0  0  0  0  0  0  0  0  0
   58.0630   30.7330   52.8560 C   0  0  0  0  0  0  0  0  0  0  0  0
   57.5120   29.4630   53.0640 C   0  0  0  0  0  0  0  0  0  0  0  0
   56.1500   29.2420   52.8350 C   0  0  0  0  0  0  0  0  0  0  0  0
   55.3340   30.2880   52.3940 C   0  0  0  0  0  0  0  0  0  0  0  0
   55.8810   31.5580   52.1840 C   0  0  0  0  0  0  0  0  0  0  0  0
   58.2480   32.6020   45.8490 C   0  0  0  0  0  0  0  0  0  0  0  0
   58.1990   34.0220   45.6470 N   0  0  0  0  0  0  0  0  0  0  0  0
   59.4410   34.7850   45.7510 C   0  0  0  0  0  0  0  0  0  0  0  0
   57.0680   34.5970   44.9250 C   0  0  0  0  0  0  0  0  0  0  0  0
   57.8140   31.7430   44.8170 C   0  0  0  0  0  0  0  0  0  0  0  0
   57.8650   30.3640   45.0360 C   0  0  0  0  0  0  0  0  0  0  0  0
   56.7144   30.3750   42.5965 H   0  0  0  0  0  0  0  0  0  0  0  0
   56.4523   28.4880   42.5753 H   0  0  0  0  0  0  0  0  0  0  0  0
   57.8899   26.5362   43.6852 H   0  0  0  0  0  0  0  0  0  0  0  0
   58.5000   27.8790   47.0210 H   0  0  0  0  0  0  0  0  0  0  0  0
   59.1039   30.2245   48.2080 H   0  0  0  0  0  0  0  0  0  0  0  0
   60.2303   33.1997   48.0836 H   0  0  0  0  0  0  0  0  0  0  0  0
   58.5433   33.8606   48.1929 H   0  0  0  0  0  0  0  0  0  0  0  0
   61.6098   32.9688   51.6128 H   0  0  0  0  0  0  0  0  0  0  0  0
   61.1736   31.2879   51.1254 H   0  0  0  0  0  0  0  0  0  0  0  0
   62.2006   34.6566   49.8332 H   0  0  0  0  0  0  0  0  0  0  0  0
   63.4432   34.9520   47.6891 H   0  0  0  0  0  0  0  0  0  0  0  0
   63.8211   32.9955   46.1806 H   0  0  0  0  0  0  0  0  0  0  0  0
   62.9791   30.7393   46.8306 H   0  0  0  0  0  0  0  0  0  0  0  0
   61.7312   30.4355   48.9707 H   0  0  0  0  0  0  0  0  0  0  0  0
   59.1359   30.9015   53.0304 H   0  0  0  0  0  0  0  0  0  0  0  0
   58.1517   28.6370   53.4083 H   0  0  0  0  0  0  0  0  0  0  0  0
   55.7201   28.2434   53.0022 H   0  0  0  0  0  0  0  0  0  0  0  0
   54.2634   30.1125   52.2125 H   0  0  0  0  0  0  0  0  0  0  0  0
   55.2380   32.3767   51.8286 H   0  0  0  0  0  0  0  0  0  0  0  0
   59.6897   34.9378   46.8116 H   0  0  0  0  0  0  0  0  0  0  0  0
   60.2542   34.2305   45.2599 H   0  0  0  0  0  0  0  0  0  0  0  0
   59.3139   35.7610   45.2599 H   0  0  0  0  0  0  0  0  0  0  0  0
   56.3267   34.9739   45.6450 H   0  0  0  0  0  0  0  0  0  0  0  0
   57.4196   35.4258   44.2930 H   0  0  0  0  0  0  0  0  0  0  0  0
   56.6055   33.8246   44.2930 H   0  0  0  0  0  0  0  0  0  0  0  0
   57.4447   32.1490   43.8637 H   0  0  0  0  0  0  0  0  0  0  0  0
  1  2  2  0
  2  3  1  0
  3  4  2  3
  4  5  1  0
  5  6  1  0
  6  7  1  0
  7  8  2  0
  7  9  1  0
  9 10  1  0
 10 11  1  0
  3 12  1  0
 12 13  1  0
 13 14  2  0
 14 15  1  0
 15 16  1  0
 16 17  1  0
 17 18  2  0
 17 19  1  0
 19 20  1  0
 20 21  1  0
 21 22  2  0
 22 23  1  0
 23 24  2  0
 24 25  1  0
 25 26  2  0
 19 27  1  0
 27 28  2  0
 27 29  1  0
 29 30  1  0
 30 31  2  0
 31 32  1  0
 32 33  2  0
 33 34  1  0
 34 35  2  0
 15 36  2  0
 36 37  1  0
 37 38  1  0
 37 39  1  0
 36 40  1  0
 40 41  2  0
 41  2  1  0
 10  5  2  0
 41 13  1  0
 26 21  1  0
 35 30  1  0
  1 42  1  0
  1 43  1  0
  4 44  1  0
 12 45  1  0
 14 46  1  0
 16 47  1  0
 16 48  1  0
 20 49  1  0
 20 50  1  0
 22 51  1  0
 23 52  1  0
 24 53  1  0
 25 54  1  0
 26 55  1  0
 31 56  1  0
 32 57  1  0
 33 58  1  0
 34 59  1  0
 35 60  1  0
 38 61  1  0
 38 62  1  0
 38 63  1  0
 39 64  1  0
 39 65  1  0
 39 66  1  0
 40 67  1  0
M  CHG  4   6  -1   9  -1  11  -1  29  -1
M  END
>  <UniqueID>  (12) 
12

>  <SMILES>  (12) 
C=c1c(=Cc2[n-]c(=O)[n-]c2[O-])[nH]c2cc(CC(=O)N(Cc3ccccc3)C(=O)[N-]c3ccccc3)c(N(C)C)cc12

>  <Energy>  (12) 
159.85475388494194

>  <Genealogy>  (12) 
C=c1c(=Cc2[n-]c(=O)[n-]c2[O-])[nH]c2cc(CC(=O)N(Cc3ccccc3)C(=O)[N-]c3ccccc3)c(N(C)C)cc12 (protonated)
C=c1c(=Cc2[n-]c(=O)[n-]c2[O-])[nH]c2cc(CC(=O)N(Cc3ccccc3)C(=O)[N-]c3ccccc3)c(N(C)C)cc12 (3D coordinates assigned)
C=c1c(=Cc2[n-]c(=O)[n-]c2[O-])[nH]c2cc(CC(=O)N(Cc3ccccc3)C(=O)[N-]c3ccccc3)c(N(C)C)cc12 (optimized conformer: 159.85475388494194 kcal/mol)

>  <smiles>  (12) 
C=c1c(=Cc2[nH]c(=O)[nH]c2O)[nH]c2cc(CC(=O)N(Cc3ccccc3)C(=O)Nc3ccccc3)c(N(C)C)cc12

>  <score_type>  (12) 
oracle

>  <origin>  (12) 
adg

>  <m_score__min__energy>  (12) 
-21.170000000000002

>  <m_primary>  (12) 
energy

$$$$
12:0
     RDKit          3D

 56 60  0  0  0  0  0  0  0  0999 V2000
   58.6243   24.3125   43.5052 H   0  0  0  0  0  0  0  0  0  0  0  0
   57.7550   24.6160   44.1070 C   0  0  0  0  0  0  0  0  0  0  0  0
   56.7000   23.7720   44.2490 N   0  0  0  0  0  0  0  0  0  0  0  0
   55.5950   24.1150   44.9710 C   0  0  0  0  0  0  0  0  0  0  0  0
   54.5990   23.2870   45.1090 N   0  0  0  0  0  0  0  0  0  0  0  0
   54.5020   22.2490   46.0970 C   0  0  0  0  0  0  0  0  0  0  0  0
   53.4920   21.4960   46.0870 O   0  0  0  0  0  0  0  0  0  0  0  0
   55.5810   21.9950   47.0730 C   0  0  0  0  0  0  0  0  0  0  0  0
   56.5330   20.9940   46.9950 C   0  0  0  0  0  0  0  0  0  0  0  0
   56.5732   20.2298   46.2048 H   0  0  0  0  0  0  0  0  0  0  0  0
   57.4050   21.0830   48.0200 N   0  0  0  0  0  0  0  0  0  0  0  0
   57.0000   22.1510   48.7330 C   0  0  0  0  0  0  0  0  0  0  0  0
   57.6480   22.5900   49.8800 O   0  0  0  0  0  0  0  0  0  0  0  0
   55.8850   22.7480   48.1880 C   0  0  0  0  0  0  0  0  0  0  0  0
   55.3516   23.6346   48.5615 H   0  0  0  0  0  0  0  0  0  0  0  0
   55.5450   25.3610   45.6080 C   0  0  0  0  0  0  0  0  0  0  0  0
   54.6575   25.6493   46.1904 H   0  0  0  0  0  0  0  0  0  0  0  0
   56.6350   26.2410   45.4990 C   0  0  0  0  0  0  0  0  0  0  0  0
   56.6370   27.5070   46.1070 O   0  0  0  0  0  0  0  0  0  0  0  0
   57.7730   28.2880   46.3610 C   0  0  0  0  0  0  0  0  0  0  0  0
   57.8330   29.5800   45.8260 C   0  0  0  0  0  0  0  0  0  0  0  0
   56.9893   29.9651   45.2345 H   0  0  0  0  0  0  0  0  0  0  0  0
   58.9560   30.3850   46.0370 C   0  0  0  0  0  0  0  0  0  0  0  0
   58.9913   31.3969   45.6072 H   0  0  0  0  0  0  0  0  0  0  0  0
   60.0410   29.9100   46.7950 C   0  0  0  0  0  0  0  0  0  0  0  0
   61.2200   30.7070   47.0090 N   0  0  0  0  0  0  0  0  0  0  0  0
   62.0380   30.5430   46.3820 H   0  0  0  0  0  0  0  0  0  0  0  0
   61.3760   31.6170   48.1120 C   0  0  0  0  0  0  0  0  0  0  0  0
   60.8240   31.3550   49.2160 O   0  0  0  0  0  0  0  0  0  0  0  0
   62.2300   32.8600   48.0080 C   0  0  0  0  0  0  0  0  0  0  0  0
   61.7390   34.1120   48.6750 C   0  0  0  0  0  0  0  0  0  0  0  0
   62.5100   34.7610   49.4310 O   0  0  0  0  0  0  0  0  0  0  0  0
   60.3700   34.4990   48.5140 N   0  0  0  0  0  0  0  0  0  0  0  0
   59.6150   34.4620   47.2930 C   0  0  0  0  0  0  0  0  0  0  0  0
   60.0050   35.1900   46.1530 C   0  0  0  0  0  0  0  0  0  0  0  0
   60.9001   35.8284   46.1889 H   0  0  0  0  0  0  0  0  0  0  0  0
   59.2560   35.1030   44.9740 C   0  0  0  0  0  0  0  0  0  0  0  0
   59.5589   35.6794   44.0874 H   0  0  0  0  0  0  0  0  0  0  0  0
   58.1250   34.2860   44.9210 C   0  0  0  0  0  0  0  0  0  0  0  0
   57.5342   34.2248   43.9952 H   0  0  0  0  0  0  0  0  0  0  0  0
   57.7430   33.5460   46.0430 C   0  0  0  0  0  0  0  0  0  0  0  0
   56.6510   32.7450   45.9880 F   0  0  0  0  0  0  0  0  0  0  0  0
   58.4920   33.6280   47.2230 C   0  0  0  0  0  0  0  0  0  0  0  0
   58.1967   33.0338   48.1004 H   0  0  0  0  0  0  0  0  0  0  0  0
   63.7360   32.6380   48.0450 C   0  0  0  0  0  0  0  0  0  0  0  0
   64.3802   33.3313   48.6056 H   0  0  0  0  0  0  0  0  0  0  0  0
   64.3915   31.8007   48.3265 H   0  0  0  0  0  0  0  0  0  0  0  0
   63.0670   33.0950   46.7540 C   0  0  0  0  0  0  0  0  0  0  0  0
   63.2276   34.1181   46.3833 H   0  0  0  0  0  0  0  0  0  0  0  0
   63.0387   32.7247   45.7186 H   0  0  0  0  0  0  0  0  0  0  0  0
   59.9950   28.6010   47.3020 C   0  0  0  0  0  0  0  0  0  0  0  0
   60.8478   28.2071   47.8743 H   0  0  0  0  0  0  0  0  0  0  0  0
   58.8740   27.7950   47.0850 C   0  0  0  0  0  0  0  0  0  0  0  0
   58.8524   26.7695   47.4825 H   0  0  0  0  0  0  0  0  0  0  0  0
   57.7370   25.8680   44.7240 C   0  0  0  0  0  0  0  0  0  0  0  0
   58.5853   26.5573   44.6010 H   0  0  0  0  0  0  0  0  0  0  0  0
  1  2  1  0
  2  3  1  0
  3  4  1  0
  4  5  2  0
  5  6  1  0
  6  7  2  0
  6  8  1  0
  8  9  2  0
  9 10  1  0
  9 11  1  0
 11 12  1  0
 12 13  1  0
 12 14  2  0
 14 15  1  0
  4 16  1  0
 16 17  1  0
 16 18  2  0
 18 19  1  0
 19 20  1  0
 20 21  2  0
 21 22  1  0
 21 23  1  0
 23 24  1  0
 23 25  2  0
 25 26  1  0
 26 27  1  0
 26 28  1  0
 28 29  2  0
 28 30  1  0
 30 31  1  0
 31 32  2  0
 31 33  1  0
 33 34  1  0
 34 35  2  0
 35 36  1  0
 35 37  1  0
 37 38  1  0
 37 39  2  0
 39 40  1  0
 39 41  1  0
 41 42  1  0
 41 43  2  0
 43 44  1  0
 30 45  1  0
 45 46  1  0
 45 47  1  0
 45 48  1  0
 48 49  1  0
 48 50  1  0
 25 51  1  0
 51 52  1  0
 51 53  2  0
 53 54  1  0
 18 55  1  0
 55 56  1  0
 55  2  2  0
 14  8  1  0
 53 20  1  0
 48 30  1  0
 43 34  1  0
M  CHG  4   3  -1  11  -1  13  -1  33  -1
M  END
>  <UniqueID>  (13) 
13

>  <SMILES>  (13) 
O=C(/N=c1/cc(Oc2ccc(NC(=O)C3(C(=O)[N-]c4cccc(F)c4)CC3)cc2)cc[n-]1)c1c[n-]c([O-])c1

>  <Energy>  (13) 
376.0337184849878

>  <Genealogy>  (13) 
O=C(N=c1cc(Oc2ccc(NC(=O)C3(C(=O)[N-]c4cccc(F)c4)CC3)cc2)cc[n-]1)c1c[n-]c([O-])c1 (protonated)
O=C(/N=c1/cc(Oc2ccc(NC(=O)C3(C(=O)[N-]c4cccc(F)c4)CC3)cc2)cc[n-]1)c1c[n-]c([O-])c1 (cis-trans isomerization)
O=C(/N=c1/cc(Oc2ccc(NC(=O)C3(C(=O)[N-]c4cccc(F)c4)CC3)cc2)cc[n-]1)c1c[n-]c([O-])c1 (3D coordinates assigned)
O=C(/N=c1/cc(Oc2ccc(NC(=O)C3(C(=O)[N-]c4cccc(F)c4)CC3)cc2)cc[n-]1)c1c[n-]c([O-])c1 (nonaromatic ring conformer: 376.0337184849878 kcal/mol)

>  <smiles>  (13) 
O=C(N=c1cc(Oc2ccc(NC(=O)C3(C(=O)Nc4cccc(F)c4)CC3)cc2)cc[nH]1)c1c[nH]c(O)c1

>  <score_type>  (13) 
oracle

>  <origin>  (13) 
adg

>  <m_score__min__energy>  (13) 
-18.719999999999999

>  <m_primary>  (13) 
energy

$$$$
13:0
     RDKit          3D

 41 43  0  0  0  0  0  0  0  0999 V2000
   55.8220   28.5840   45.1830 O   0  0  0  0  0  0  0  0  0  0  0  0
   57.0230   28.3380   45.4820 C   0  0  0  0  0  0  0  0  0  0  0  0
   57.6390   27.0380   45.0800 C   0  0  0  0  0  0  0  0  0  0  0  0
   57.1070   25.9240   45.9310 C   0  0  0  0  0  0  0  0  0  0  0  0
   57.8850   25.0200   46.5510 N   0  0  0  0  0  0  0  0  0  0  0  0
   56.9950   24.2080   47.1610 C   0  0  0  0  0  0  0  0  0  0  0  0
   57.3440   23.2210   47.8600 O   0  0  0  0  0  0  0  0  0  0  0  0
   55.7010   24.5360   46.9630 N   0  0  0  0  0  0  0  0  0  0  0  0
   55.7850   25.6220   46.1780 C   0  0  0  0  0  0  0  0  0  0  0  0
   54.6730   26.3080   45.6990 O   0  0  0  0  0  0  0  0  0  0  0  0
   57.7900   29.2870   46.2260 N   0  0  0  0  0  0  0  0  0  0  0  0
   59.0710   29.8050   45.7670 C   0  0  0  0  0  0  0  0  0  0  0  0
   59.5210   30.9650   46.6560 C   0  0  0  0  0  0  0  0  0  0  0  0
   59.0290   32.2950   46.1230 C   0  0  0  0  0  0  0  0  0  0  0  0
   57.8930   32.2960   45.2930 C   0  0  0  0  0  0  0  0  0  0  0  0
   57.4360   33.4780   44.7090 C   0  0  0  0  0  0  0  0  0  0  0  0
   58.1120   34.6760   44.9330 C   0  0  0  0  0  0  0  0  0  0  0  0
   59.2440   34.6970   45.7460 C   0  0  0  0  0  0  0  0  0  0  0  0
   59.7140   33.5190   46.3520 C   0  0  0  0  0  0  0  0  0  0  0  0
   60.9160   33.6110   47.2090 C   0  0  0  0  0  0  0  0  0  0  0  0
   60.7980   33.9150   48.5750 C   0  0  0  0  0  0  0  0  0  0  0  0
   61.9420   34.0380   49.3700 C   0  0  0  0  0  0  0  0  0  0  0  0
   63.2090   33.8780   48.8040 C   0  0  0  0  0  0  0  0  0  0  0  0
   63.3350   33.5980   47.4400 C   0  0  0  0  0  0  0  0  0  0  0  0
   62.1930   33.4700   46.6430 C   0  0  0  0  0  0  0  0  0  0  0  0
   57.4009   26.8344   44.0256 H   0  0  0  0  0  0  0  0  0  0  0  0
   58.7288   27.1019   45.2150 H   0  0  0  0  0  0  0  0  0  0  0  0
   54.7680   27.1020   45.0790 H   0  0  0  0  0  0  0  0  0  0  0  0
   59.8228   29.0031   45.8079 H   0  0  0  0  0  0  0  0  0  0  0  0
   58.9626   30.1660   44.7336 H   0  0  0  0  0  0  0  0  0  0  0  0
   59.1200   30.8154   47.6693 H   0  0  0  0  0  0  0  0  0  0  0  0
   60.6208   30.9836   46.6694 H   0  0  0  0  0  0  0  0  0  0  0  0
   57.3587   31.3536   45.1021 H   0  0  0  0  0  0  0  0  0  0  0  0
   56.5404   33.4642   44.0705 H   0  0  0  0  0  0  0  0  0  0  0  0
   57.7520   35.6056   44.4679 H   0  0  0  0  0  0  0  0  0  0  0  0
   59.7751   35.6453   45.9151 H   0  0  0  0  0  0  0  0  0  0  0  0
   59.8026   34.0568   49.0211 H   0  0  0  0  0  0  0  0  0  0  0  0
   61.8439   34.2611   50.4427 H   0  0  0  0  0  0  0  0  0  0  0  0
   64.1076   33.9723   49.4314 H   0  0  0  0  0  0  0  0  0  0  0  0
   64.3331   33.4783   46.9934 H   0  0  0  0  0  0  0  0  0  0  0  0
   62.2957   33.2580   45.5685 H   0  0  0  0  0  0  0  0  0  0  0  0
  1  2  2  0
  2  3  1  0
  3  4  1  0
  4  5  1  0
  5  6  1  0
  6  7  2  0
  6  8  1  0
  8  9  1  0
  9 10  1  0
  2 11  1  0
 11 12  1  0
 12 13  1  0
 13 14  1  0
 14 15  2  0
 15 16  1  0
 16 17  2  0
 17 18  1  0
 18 19  2  0
 19 20  1  0
 20 21  2  0
 21 22  1  0
 22 23  2  0
 23 24  1  0
 24 25  2  0
  9  4  2  0
 19 14  1  0
 25 20  1  0
  3 26  1  0
  3 27  1  0
 10 28  1  0
 12 29  1  0
 12 30  1  0
 13 31  1  0
 13 32  1  0
 15 33  1  0
 16 34  1  0
 17 35  1  0
 18 36  1  0
 21 37  1  0
 22 38  1  0
 23 39  1  0
 24 40  1  0
 25 41  1  0
M  CHG  3   5  -1   8  -1  11  -1
M  END
>  <UniqueID>  (14) 
14

>  <SMILES>  (14) 
O=C(Cc1[n-]c(=O)[n-]c1O)[N-]CCc1ccccc1-c1ccccc1

>  <Energy>  (14) 
71.38736733414402

>  <Genealogy>  (14) 
O=C(Cc1[n-]c(=O)[n-]c1O)[N-]CCc1ccccc1-c1ccccc1 (protonated)
O=C(Cc1[n-]c(=O)[n-]c1O)[N-]CCc1ccccc1-c1ccccc1 (3D coordinates assigned)
O=C(Cc1[n-]c(=O)[n-]c1O)[N-]CCc1ccccc1-c1ccccc1 (optimized conformer: 71.38736733414402 kcal/mol)

>  <smiles>  (14) 
O=C(Cc1[nH]c(=O)[nH]c1O)NCCc1ccccc1-c1ccccc1

>  <score_type>  (14) 
oracle

>  <origin>  (14) 
adg

>  <m_score__min__energy>  (14) 
-14.6

>  <m_primary>  (14) 
energy

$$$$
14:0
     RDKit          3D

 44 45  0  0  0  0  0  0  0  0999 V2000
   57.3830   31.6640   42.8510 O   0  0  0  0  0  0  0  0  0  0  0  0
   57.2400   31.5040   44.0920 C   0  0  0  0  0  0  0  0  0  0  0  0
   58.3190   31.9900   45.0310 C   0  0  0  0  0  0  0  0  0  0  0  0
   57.7420   32.5710   46.3230 C   0  0  0  0  0  0  0  0  0  0  0  0
   58.1690   33.9540   46.4910 N   0  0  0  0  0  0  0  0  0  0  0  0
   59.4840   34.4010   46.1530 C   0  0  0  0  0  0  0  0  0  0  0  0
   59.6400   35.2010   45.1920 O   0  0  0  0  0  0  0  0  0  0  0  0
   60.6400   33.9900   46.9870 C   0  0  0  0  0  0  0  0  0  0  0  0
   61.9040   33.8720   46.3740 C   0  0  0  0  0  0  0  0  0  0  0  0
   63.0020   33.3920   47.0930 C   0  0  0  0  0  0  0  0  0  0  0  0
   62.8600   33.0320   48.4320 C   0  0  0  0  0  0  0  0  0  0  0  0
   61.6220   33.1650   49.0640 C   0  0  0  0  0  0  0  0  0  0  0  0
   60.5130   33.6600   48.3650 C   0  0  0  0  0  0  0  0  0  0  0  0
   59.3290   33.8350   49.0800 O   0  0  0  0  0  0  0  0  0  0  0  0
   56.0880   30.7910   44.5590 N   0  0  0  0  0  0  0  0  0  0  0  0
   56.0200   29.3630   44.8470 C   0  0  0  0  0  0  0  0  0  0  0  0
   57.3310   28.6840   44.5530 C   0  0  0  0  0  0  0  0  0  0  0  0
   57.7290   28.6160   43.3610 O   0  0  0  0  0  0  0  0  0  0  0  0
   58.1160   28.0650   45.5800 N   0  0  0  0  0  0  0  0  0  0  0  0
   57.5800   27.2110   46.6330 C   0  0  0  0  0  0  0  0  0  0  0  0
   57.0920   25.9050   46.0540 C   0  0  0  0  0  0  0  0  0  0  0  0
   58.0030   24.8510   45.8570 C   0  0  0  0  0  0  0  0  0  0  0  0
   57.5590   23.6120   45.3830 C   0  0  0  0  0  0  0  0  0  0  0  0
   56.2050   23.4140   45.1080 C   0  0  0  0  0  0  0  0  0  0  0  0
   55.2910   24.4490   45.3090 C   0  0  0  0  0  0  0  0  0  0  0  0
   55.7250   25.6910   45.7870 C   0  0  0  0  0  0  0  0  0  0  0  0
   54.7900   26.6990   45.9960 O   0  0  0  0  0  0  0  0  0  0  0  0
   58.9750   31.1443   45.2849 H   0  0  0  0  0  0  0  0  0  0  0  0
   58.8760   32.7895   44.5205 H   0  0  0  0  0  0  0  0  0  0  0  0
   56.6435   32.5333   46.2789 H   0  0  0  0  0  0  0  0  0  0  0  0
   58.1057   31.9784   47.1753 H   0  0  0  0  0  0  0  0  0  0  0  0
   62.0272   34.1605   45.3197 H   0  0  0  0  0  0  0  0  0  0  0  0
   63.9812   33.2980   46.6007 H   0  0  0  0  0  0  0  0  0  0  0  0
   63.7237   32.6429   48.9912 H   0  0  0  0  0  0  0  0  0  0  0  0
   61.5163   32.8784   50.1207 H   0  0  0  0  0  0  0  0  0  0  0  0
   58.4160   33.8840   48.6480 H   0  0  0  0  0  0  0  0  0  0  0  0
   55.7741   29.2229   45.9100 H   0  0  0  0  0  0  0  0  0  0  0  0
   55.2454   28.9156   44.2068 H   0  0  0  0  0  0  0  0  0  0  0  0
   58.3693   27.0076   47.3716 H   0  0  0  0  0  0  0  0  0  0  0  0
   56.7354   27.7256   47.1144 H   0  0  0  0  0  0  0  0  0  0  0  0
   59.0702   25.0021   46.0769 H   0  0  0  0  0  0  0  0  0  0  0  0
   58.2772   22.7935   45.2270 H   0  0  0  0  0  0  0  0  0  0  0  0
   55.8578   22.4403   44.7321 H   0  0  0  0  0  0  0  0  0  0  0  0
   54.2249   24.2882   45.0909 H   0  0  0  0  0  0  0  0  0  0  0  0
  1  2  2  0
  2  3  1  0
  3  4  1  0
  4  5  1  0
  5  6  1  0
  6  7  2  0
  6  8  1  0
  8  9  2  0
  9 10  1  0
 10 11  2  0
 11 12  1  0
 12 13  2  0
 13 14  1  0
  2 15  1  0
 15 16  1  0
 16 17  1  0
 17 18  2  0
 17 19  1  0
 19 20  1  0
 20 21  1  0
 21 22  2  0
 22 23  1  0
 23 24  2  0
 24 25  1  0
 25 26  2  0
 26 27  1  0
 13  8  1  0
 26 21  1  0
  3 28  1  0
  3 29  1  0
  4 30  1  0
  4 31  1  0
  9 32  1  0
 10 33  1  0
 11 34  1  0
 12 35  1  0
 14 36  1  0
 16 37  1  0
 16 38  1  0
 20 39  1  0
 20 40  1  0
 22 41  1  0
 23 42  1  0
 24 43  1  0
 25 44  1  0
M  CHG  4   5  -1  15  -1  19  -1  27  -1
M  END
>  <UniqueID>  (15) 
15

>  <SMILES>  (15) 
O=C(CC[N-]C(=O)c1ccccc1O)[N-]CC(=O)[N-]Cc1ccccc1[O-]

>  <Energy>  (15) 
41.446123251937124

>  <Genealogy>  (15) 
O=C(CC[N-]C(=O)c1ccccc1O)[N-]CC(=O)[N-]Cc1ccccc1[O-] (protonated)
O=C(CC[N-]C(=O)c1ccccc1O)[N-]CC(=O)[N-]Cc1ccccc1[O-] (3D coordinates assigned)
O=C(CC[N-]C(=O)c1ccccc1O)[N-]CC(=O)[N-]Cc1ccccc1[O-] (optimized conformer: 41.446123251937124 kcal/mol)

>  <smiles>  (15) 
O=C(CCNC(=O)c1ccccc1O)NCC(=O)NCc1ccccc1O

>  <score_type>  (15) 
oracle

>  <origin>  (15) 
adg

>  <m_score__min__energy>  (15) 
-14.4

>  <m_primary>  (15) 
energy

$$$$
15:0
     RDKit          3D

 50 53  0  0  1  0  0  0  0  0999 V2000
   64.1300   33.0630   49.7230 C   0  0  0  0  0  0  0  0  0  0  0  0
   63.0030   32.8580   48.7720 C   0  0  0  0  0  0  0  0  0  0  0  0
   62.0890   33.8710   48.6030 C   0  0  0  0  0  0  0  0  0  0  0  0
   61.0100   33.7330   47.7230 C   0  0  0  0  0  0  0  0  0  0  0  0
   60.8450   32.5710   47.0050 C   0  0  0  0  0  0  0  0  0  0  0  0
   59.7440   32.3570   46.0680 C   0  0  0  0  0  0  0  0  0  0  0  0
   59.1060   33.3500   45.5770 O   0  0  0  0  0  0  0  0  0  0  0  0
   59.3260   31.0800   45.6570 N   0  0  0  0  0  0  0  0  0  0  0  0
   58.2490   30.8510   44.7390 C   0  0  0  0  0  0  0  0  0  0  0  0
   58.3160   31.5160   43.5320 C   0  0  0  0  0  0  0  0  0  0  0  0
   57.3190   31.3500   42.5950 C   0  0  0  0  0  0  0  0  0  0  0  0
   56.2680   30.5140   42.8910 C   0  0  0  0  0  0  0  0  0  0  0  0
   56.2010   29.8580   44.0830 C   0  0  0  0  0  0  0  0  0  0  0  0
   55.1240   29.0210   44.3480 O   0  0  0  0  0  0  0  0  0  0  0  0
   57.1920   30.0130   45.0330 C   0  0  0  0  0  0  0  0  0  0  0  0
   57.1730   29.3520   46.2930 N   0  0  0  0  0  0  0  0  0  0  0  0
   58.1030   28.5450   46.6760 C   0  0  0  0  0  0  0  0  0  0  0  0
   58.1930   27.2700   46.1400 C   0  0  0  0  0  0  0  0  0  0  0  0
   59.2170   26.4550   46.5970 C   0  0  0  0  0  0  0  0  0  0  0  0
   59.3070   25.1130   46.0280 C   0  0  0  0  0  0  0  0  0  0  0  0
   58.2420   24.3800   45.5170 C   0  0  0  0  0  0  0  0  0  0  0  0
   58.7650   23.1690   45.0820 C   0  0  0  0  0  0  0  0  0  0  0  0
   60.0870   23.1760   45.3220 N   0  0  0  0  0  0  0  0  0  0  0  0
   60.3980   24.3290   45.8820 N   0  0  0  0  0  0  0  0  0  0  0  0
   60.1030   26.8900   47.5370 N   0  0  0  0  0  0  0  0  0  0  0  0
   59.9830   28.1390   48.0360 C   0  0  0  0  0  0  0  0  0  0  0  0
   60.9610   28.5920   49.0600 C   0  0  0  0  0  0  0  0  0  0  0  0
   59.0010   28.9580   47.6170 N   0  0  0  0  0  0  0  0  0  0  0  0
   61.7700   31.5630   47.1840 C   0  0  0  0  0  0  0  0  0  0  0  0
   62.8330   31.6950   48.0490 C   0  0  0  0  0  0  0  0  0  0  0  0
   63.7558   32.9949   50.7552 H   0  0  0  0  0  0  0  0  0  0  0  0
   64.8942   32.2891   49.5582 H   0  0  0  0  0  0  0  0  0  0  0  0
   64.5727   34.0564   49.5582 H   0  0  0  0  0  0  0  0  0  0  0  0
   62.2081   34.8063   49.1695 H   0  0  0  0  0  0  0  0  0  0  0  0
   60.2907   34.5568   47.6047 H   0  0  0  0  0  0  0  0  0  0  0  0
   59.7980   30.2210   46.0140 H   0  0  0  0  0  0  0  0  0  0  0  0
   59.1665   32.1797   43.3172 H   0  0  0  0  0  0  0  0  0  0  0  0
   57.3631   31.8757   41.6297 H   0  0  0  0  0  0  0  0  0  0  0  0
   55.4663   30.3723   42.1513 H   0  0  0  0  0  0  0  0  0  0  0  0
   55.1290   28.5590   45.2490 H   0  0  0  0  0  0  0  0  0  0  0  0
   57.4790   26.9182   45.3808 H   0  0  0  0  0  0  0  0  0  0  0  0
   57.1899   24.6973   45.4669 H   0  0  0  0  0  0  0  0  0  0  0  0
   58.1963   22.3477   44.6215 H   0  0  0  0  0  0  0  0  0  0  0  0
   60.7070   22.3760   45.0830 H   0  0  0  0  0  0  0  0  0  0  0  0
   60.8470   26.2230   47.8330 H   0  0  0  0  0  0  0  0  0  0  0  0
   60.5540   28.4035   50.0644 H   0  0  0  0  0  0  0  0  0  0  0  0
   61.9038   28.0389   48.9366 H   0  0  0  0  0  0  0  0  0  0  0  0
   61.1488   29.6688   48.9366 H   0  0  0  0  0  0  0  0  0  0  0  0
   61.6548   30.6263   46.6189 H   0  0  0  0  0  0  0  0  0  0  0  0
   63.5504   30.8692   48.1643 H   0  0  0  0  0  0  0  0  0  0  0  0
  1  2  1  0
  2  3  2  0
  3  4  1  0
  4  5  2  0
  5  6  1  0
  6  7  2  0
  6  8  1  0
  8  9  1  0
  9 10  2  0
 10 11  1  0
 11 12  2  0
 12 13  1  0
 13 14  1  0
 13 15  2  0
 15 16  1  0
 16 17  2  0
 17 18  1  0
 18 19  2  0
 19 20  1  0
 20 21  1  0
 21 22  2  0
 22 23  1  0
 23 24  1  0
 19 25  1  0
 25 26  1  0
 26 27  1  0
 26 28  2  0
  5 29  1  0
 29 30  2  0
 30  2  1  0
 15  9  1  0
 28 17  1  0
 24 20  2  0
  1 31  1  0
  1 32  1  0
  1 33  1  0
  3 34  1  0
  4 35  1  0
  8 36  1  0
 10 37  1  0
 11 38  1  0
 12 39  1  0
 14 40  1  0
 18 41  1  0
 21 42  1  0
 22 43  1  0
 23 44  1  0
 25 45  1  0
 27 46  1  0
 27 47  1  0
 27 48  1  0
 29 49  1  0
 30 50  1  0
M  END
>  <smiles>  (16) 
Cc1ccc(C(=O)Nc2cccc(O)c2N=c2cc(-c3cc[nH]n3)[nH]c(C)n2)cc1

>  <score_type>  (16) 
oracle

>  <origin>  (16) 
adg

>  <m_score__min__energy>  (16) 
-8.9600000000000009

>  <m_primary>  (16) 
energy

$$$$
16:0
     RDKit          3D

 44 46  0  0  0  0  0  0  0  0999 V2000
   58.4860   31.2010   47.2620 C   0  0  0  0  0  0  0  0  0  0  0  0
   58.1130   30.8720   46.0150 C   0  0  0  0  0  0  0  0  0  0  0  0
   58.0660   29.5870   45.4490 C   0  0  0  0  0  0  0  0  0  0  0  0
   58.2240   28.3680   46.0010 C   0  0  0  0  0  0  0  0  0  0  0  0
   57.1620   27.3700   46.1980 C   0  0  0  0  0  0  0  0  0  0  0  0
   55.9370   27.4350   45.6460 N   0  0  0  0  0  0  0  0  0  0  0  0
   55.3780   26.2540   45.9900 C   0  0  0  0  0  0  0  0  0  0  0  0
   54.2040   25.9390   45.6630 O   0  0  0  0  0  0  0  0  0  0  0  0
   56.1800   25.4330   46.7010 N   0  0  0  0  0  0  0  0  0  0  0  0
   57.3110   26.1500   46.8110 C   0  0  0  0  0  0  0  0  0  0  0  0
   58.4580   25.7010   47.4570 O   0  0  0  0  0  0  0  0  0  0  0  0
   57.8010   29.7670   44.1010 C   0  0  0  0  0  0  0  0  0  0  0  0
   57.6260   31.1210   43.9030 C   0  0  0  0  0  0  0  0  0  0  0  0
   57.4020   31.7540   42.5630 C   0  0  0  0  0  0  0  0  0  0  0  0
   57.8280   31.7920   45.0570 N   0  0  0  0  0  0  0  0  0  0  0  0
   57.8410   33.2220   45.1920 C   0  0  0  0  0  0  0  0  0  0  0  0
   56.7560   33.8430   45.3430 O   0  0  0  0  0  0  0  0  0  0  0  0
   59.1230   33.9880   45.0580 C   0  0  0  0  0  0  0  0  0  0  0  0
   59.3710   34.8400   46.3200 C   0  0  0  0  0  0  0  0  0  0  0  0
   60.7060   34.6490   46.9370 N   0  0  0  0  0  0  0  0  0  0  0  0
   61.4660   33.5260   46.3740 C   0  0  0  0  0  0  0  0  0  0  0  0
   61.4020   32.3810   47.3700 C   0  0  0  0  0  0  0  0  0  0  0  0
   61.1000   33.0290   48.7070 C   0  0  0  0  0  0  0  0  0  0  0  0
   60.6590   34.4560   48.3940 C   0  0  0  0  0  0  0  0  0  0  0  0
   58.4764   32.2543   47.5791 H   0  0  0  0  0  0  0  0  0  0  0  0
   58.8012   30.4173   47.9666 H   0  0  0  0  0  0  0  0  0  0  0  0
   59.2365   28.0954   46.3335 H   0  0  0  0  0  0  0  0  0  0  0  0
   59.1150   26.3590   47.8600 H   0  0  0  0  0  0  0  0  0  0  0  0
   57.7415   28.9801   43.3346 H   0  0  0  0  0  0  0  0  0  0  0  0
   57.0379   32.7829   42.6998 H   0  0  0  0  0  0  0  0  0  0  0  0
   58.3486   31.7714   42.0029 H   0  0  0  0  0  0  0  0  0  0  0  0
   56.6552   31.1722   42.0029 H   0  0  0  0  0  0  0  0  0  0  0  0
   59.9560   33.2816   44.9274 H   0  0  0  0  0  0  0  0  0  0  0  0
   59.0532   34.6532   44.1847 H   0  0  0  0  0  0  0  0  0  0  0  0
   59.2679   35.9000   46.0449 H   0  0  0  0  0  0  0  0  0  0  0  0
   58.6313   34.5162   47.0670 H   0  0  0  0  0  0  0  0  0  0  0  0
   61.0220   33.2154   45.4167 H   0  0  0  0  0  0  0  0  0  0  0  0
   62.5100   33.8201   46.1909 H   0  0  0  0  0  0  0  0  0  0  0  0
   60.6041   31.6755   47.0950 H   0  0  0  0  0  0  0  0  0  0  0  0
   62.3401   31.8071   47.3954 H   0  0  0  0  0  0  0  0  0  0  0  0
   60.2948   32.4846   49.2222 H   0  0  0  0  0  0  0  0  0  0  0  0
   61.9787   33.0153   49.3685 H   0  0  0  0  0  0  0  0  0  0  0  0
   59.6328   34.6154   48.7567 H   0  0  0  0  0  0  0  0  0  0  0  0
   61.3266   35.1749   48.8915 H   0  0  0  0  0  0  0  0  0  0  0  0
  1  2  2  0
  2  3  1  0
  3  4  2  3
  4  5  1  0
  5  6  1  0
  6  7  1  0
  7  8  2  0
  7  9  1  0
  9 10  1  0
 10 11  1  0
  3 12  1  0
 12 13  2  0
 13 14  1  0
 13 15  1  0
 15 16  1  0
 16 17  2  0
 16 18  1  0
 18 19  1  0
 19 20  1  0
 20 21  1  0
 21 22  1  0
 22 23  1  0
 23 24  1  0
 15  2  1  0
 24 20  1  0
 10  5  2  0
  1 25  1  0
  1 26  1  0
  4 27  1  0
 11 28  1  0
 12 29  1  0
 14 30  1  0
 14 31  1  0
 14 32  1  0
 18 33  1  0
 18 34  1  0
 19 35  1  0
 19 36  1  0
 21 37  1  0
 21 38  1  0
 22 39  1  0
 22 40  1  0
 23 41  1  0
 23 42  1  0
 24 43  1  0
 24 44  1  0
M  CHG  2   6  -1   9  -1
M  END
>  <UniqueID>  (17) 
16

>  <SMILES>  (17) 
C=c1c(=Cc2[n-]c(=O)[n-]c2O)cc(C)n1C(=O)CCN1CCCC1

>  <Energy>  (17) 
121.56829185574183

>  <Genealogy>  (17) 
C=c1c(=Cc2[n-]c(=O)[n-]c2O)cc(C)n1C(=O)CCN1CCCC1 (protonated)
C=c1c(=Cc2[n-]c(=O)[n-]c2O)cc(C)n1C(=O)CCN1CCCC1 (3D coordinates assigned)
C=c1c(=Cc2[n-]c(=O)[n-]c2O)cc(C)n1C(=O)CCN1CCCC1 (nonaromatic ring conformer: 121.56829185574183 kcal/mol)

>  <smiles>  (17) 
C=c1c(=Cc2[nH]c(=O)[nH]c2O)cc(C)n1C(=O)CCN1CCCC1

>  <score_type>  (17) 
oracle

>  <origin>  (17) 
adg

>  <m_score__min__energy>  (17) 
-12.869999999999999

>  <m_primary>  (17) 
energy

$$$$
17:0
     RDKit          3D

 54 56  0  0  0  0  0  0  0  0999 V2000
   59.1380   22.2800   44.9000 C   0  0  0  0  0  0  0  0  0  0  0  0
   57.7310   21.8210   45.2680 C   0  0  0  0  0  0  0  0  0  0  0  0
   57.1500   22.6960   46.2880 N   0  0  0  0  0  0  0  0  0  0  0  0
   56.4120   23.7590   46.1060 C   0  0  0  0  0  0  0  0  0  0  0  0
   56.9530   25.0620   46.1350 C   0  0  0  0  0  0  0  0  0  0  0  0
   56.1180   26.1720   45.9350 C   0  0  0  0  0  0  0  0  0  0  0  0
   56.6480   27.5470   45.9760 C   0  0  0  0  0  0  0  0  0  0  0  0
   57.6750   27.8010   46.6630 O   0  0  0  0  0  0  0  0  0  0  0  0
   56.0060   28.5920   45.2410 N   0  0  0  0  0  0  0  0  0  0  0  0
   56.6620   29.3420   44.1770 C   0  0  0  0  0  0  0  0  0  0  0  0
   57.2490   30.6120   44.7190 C   0  0  0  0  0  0  0  0  0  0  0  0
   58.4010   30.5890   45.5260 C   0  0  0  0  0  0  0  0  0  0  0  0
   58.8800   31.7820   46.0710 C   0  0  0  0  0  0  0  0  0  0  0  0
   60.3630   31.7870   47.0770 S   0  0  0  0  0  0  0  0  0  0  0  0
   59.5090   31.1630   48.5250 C   0  0  0  0  0  0  0  0  0  0  0  0
   59.4900   29.7910   48.8010 C   0  0  0  0  0  0  0  0  0  0  0  0
   58.8140   29.3100   49.9270 C   0  0  0  0  0  0  0  0  0  0  0  0
   58.1410   30.2030   50.7840 C   0  0  0  0  0  0  0  0  0  0  0  0
   57.4220   29.7620   51.9420 N   0  0  0  0  0  0  0  0  0  0  0  0
   55.9100   30.3950   52.5060 S   0  0  0  0  0  0  0  0  0  0  0  0
   55.6730   29.9800   54.2210 C   0  0  0  0  0  0  0  0  0  0  0  0
   55.9350   31.8920   52.3700 O   0  0  0  0  0  0  0  0  0  0  0  0
   54.7780   29.8530   51.6760 O   0  0  0  0  0  0  0  0  0  0  0  0
   58.1620   31.5730   50.4960 C   0  0  0  0  0  0  0  0  0  0  0  0
   58.8450   32.0530   49.3750 C   0  0  0  0  0  0  0  0  0  0  0  0
   58.2080   32.9800   45.8140 C   0  0  0  0  0  0  0  0  0  0  0  0
   57.0590   32.9630   45.0210 C   0  0  0  0  0  0  0  0  0  0  0  0
   56.6050   31.7900   44.5040 N   0  0  0  0  0  0  0  0  0  0  0  0
   54.7900   25.9790   45.7140 N   0  0  0  0  0  0  0  0  0  0  0  0
   54.2350   24.7410   45.6830 C   0  0  0  0  0  0  0  0  0  0  0  0
   55.0300   23.6020   45.8780 C   0  0  0  0  0  0  0  0  0  0  0  0
   54.3970   22.2360   45.8440 C   0  0  0  0  0  0  0  0  0  0  0  0
   59.7142   22.4680   45.8180 H   0  0  0  0  0  0  0  0  0  0  0  0
   59.6359   21.4977   44.3083 H   0  0  0  0  0  0  0  0  0  0  0  0
   59.0788   23.2054   44.3083 H   0  0  0  0  0  0  0  0  0  0  0  0
   57.0973   21.8441   44.3692 H   0  0  0  0  0  0  0  0  0  0  0  0
   57.7870   20.7987   45.6701 H   0  0  0  0  0  0  0  0  0  0  0  0
   58.0285   25.2075   46.3142 H   0  0  0  0  0  0  0  0  0  0  0  0
   57.4646   28.7281   43.7423 H   0  0  0  0  0  0  0  0  0  0  0  0
   55.9187   29.5926   43.4059 H   0  0  0  0  0  0  0  0  0  0  0  0
   58.9198   29.6398   45.7259 H   0  0  0  0  0  0  0  0  0  0  0  0
   60.0080   29.0893   48.1307 H   0  0  0  0  0  0  0  0  0  0  0  0
   58.8078   28.2316   50.1440 H   0  0  0  0  0  0  0  0  0  0  0  0
   56.1196   30.7621   54.8526 H   0  0  0  0  0  0  0  0  0  0  0  0
   54.5965   29.9062   54.4350 H   0  0  0  0  0  0  0  0  0  0  0  0
   56.1564   29.0154   54.4350 H   0  0  0  0  0  0  0  0  0  0  0  0
   57.6366   32.2775   51.1575 H   0  0  0  0  0  0  0  0  0  0  0  0
   58.8602   33.1319   49.1612 H   0  0  0  0  0  0  0  0  0  0  0  0
   58.5805   33.9268   46.2322 H   0  0  0  0  0  0  0  0  0  0  0  0
   56.5203   33.8995   44.8142 H   0  0  0  0  0  0  0  0  0  0  0  0
   53.1554   24.6301   45.5039 H   0  0  0  0  0  0  0  0  0  0  0  0
   54.2330   21.8822   46.8726 H   0  0  0  0  0  0  0  0  0  0  0  0
   53.4329   22.2916   45.3173 H   0  0  0  0  0  0  0  0  0  0  0  0
   55.0627   21.5364   45.3173 H   0  0  0  0  0  0  0  0  0  0  0  0
  1  2  1  0
  2  3  1  0
  3  4  2  3
  4  5  1  0
  5  6  2  0
  6  7  1  0
  7  8  2  0
  7  9  1  0
  9 10  1  0
 10 11  1  0
 11 12  2  0
 12 13  1  0
 13 14  1  0
 14 15  1  0
 15 16  2  0
 16 17  1  0
 17 18  2  0
 18 19  1  0
 19 20  1  0
 20 21  1  0
 20 22  2  0
 20 23  2  0
 18 24  1  0
 24 25  2  0
 13 26  2  0
 26 27  1  0
 27 28  2  0
  6 29  1  0
 29 30  1  0
 30 31  2  0
 31 32  1  0
 31  4  1  0
 28 11  1  0
 25 15  1  0
  1 33  1  0
  1 34  1  0
  1 35  1  0
  2 36  1  0
  2 37  1  0
  5 38  1  0
 10 39  1  0
 10 40  1  0
 12 41  1  0
 16 42  1  0
 17 43  1  0
 21 44  1  0
 21 45  1  0
 21 46  1  0
 24 47  1  0
 25 48  1  0
 26 49  1  0
 27 50  1  0
 30 51  1  0
 32 52  1  0
 32 53  1  0
 32 54  1  0
M  CHG  3   9  -1  19  -1  29  -1
M  END
>  <UniqueID>  (18) 
17

>  <SMILES>  (18) 
CCN=c1cc(C(=O)[N-]Cc2cc(Sc3ccc([N-]S(C)(=O)=O)cc3)ccn2)[n-]cc1C

>  <Energy>  (18) 
49.48027641971682

>  <Genealogy>  (18) 
CCN=c1cc(C(=O)[N-]Cc2cc(Sc3ccc([N-]S(C)(=O)=O)cc3)ccn2)[n-]cc1C (protonated)
CCN=c1cc(C(=O)[N-]Cc2cc(Sc3ccc([N-]S(C)(=O)=O)cc3)ccn2)[n-]cc1C (3D coordinates assigned)
CCN=c1cc(C(=O)[N-]Cc2cc(Sc3ccc([N-]S(C)(=O)=O)cc3)ccn2)[n-]cc1C (optimized conformer: 49.48027641971682 kcal/mol)

>  <smiles>  (18) 
CCN=c1cc(C(=O)NCc2cc(Sc3ccc(NS(C)(=O)=O)cc3)ccn2)[nH]cc1C

>  <score_type>  (18) 
oracle

>  <origin>  (18) 
adg

>  <m_score__min__energy>  (18) 
-13.91

>  <m_primary>  (18) 
energy

$$$$
18:0
     RDKit          3D

 63 66  0  0  0  0  0  0  0  0999 V2000
   57.4410   25.6960   44.8560 C   0  0  0  0  0  0  0  0  0  0  0  0
   56.6040   26.2770   45.9880 C   0  0  0  0  0  0  0  0  0  0  0  0
   55.9170   27.4530   45.5590 O   0  0  0  0  0  0  0  0  0  0  0  0
   56.5100   28.6900   45.2620 C   0  0  0  0  0  0  0  0  0  0  0  0
   55.9210   29.6270   44.3900 C   0  0  0  0  0  0  0  0  0  0  0  0
   56.5500   30.8520   44.1400 C   0  0  0  0  0  0  0  0  0  0  0  0
   57.7660   31.1670   44.7710 C   0  0  0  0  0  0  0  0  0  0  0  0
   58.4470   32.4080   44.5380 N   0  0  0  0  0  0  0  0  0  0  0  0
   58.2470   33.8820   45.4360 S   0  0  0  0  0  0  0  0  0  0  0  0
   56.8730   33.9720   46.0360 O   0  0  0  0  0  0  0  0  0  0  0  0
   58.4320   35.0470   44.5050 O   0  0  0  0  0  0  0  0  0  0  0  0
   59.4680   33.9570   46.7010 C   0  0  0  0  0  0  0  0  0  0  0  0
   59.1120   34.2050   48.0280 C   0  0  0  0  0  0  0  0  0  0  0  0
   60.0910   34.2460   49.0220 C   0  0  0  0  0  0  0  0  0  0  0  0
   61.4350   34.0330   48.6950 C   0  0  0  0  0  0  0  0  0  0  0  0
   61.8030   33.8040   47.3660 C   0  0  0  0  0  0  0  0  0  0  0  0
   60.8170   33.7760   46.3720 C   0  0  0  0  0  0  0  0  0  0  0  0
   63.2630   33.7160   47.0070 C   0  0  0  0  0  0  0  0  0  0  0  0
   64.1500   33.0890   48.1180 C   0  0  0  0  0  0  0  0  0  0  0  0
   63.5210   33.0040   49.4610 N   0  0  0  0  0  0  0  0  0  0  0  0
   63.1780   31.6350   49.9120 C   0  0  0  0  0  0  0  0  0  0  0  0
   61.7750   31.1980   49.5500 C   0  0  0  0  0  0  0  0  0  0  0  0
   61.5120   30.5760   48.3190 C   0  0  0  0  0  0  0  0  0  0  0  0
   60.2210   30.1360   48.0100 C   0  0  0  0  0  0  0  0  0  0  0  0
   59.1850   30.3000   48.9320 C   0  0  0  0  0  0  0  0  0  0  0  0
   59.4320   30.9160   50.1670 C   0  0  0  0  0  0  0  0  0  0  0  0
   58.1340   31.0750   51.3500 S   0  0  0  0  0  0  0  0  0  0  0  0
   57.5000   29.7310   51.5750 O   0  0  0  0  0  0  0  0  0  0  0  0
   57.0790   32.0100   50.8230 O   0  0  0  0  0  0  0  0  0  0  0  0
   58.7470   31.6700   52.8630 N   0  0  0  0  0  0  0  0  0  0  0  0
   58.7470   33.1310   52.8560 C   0  0  0  0  0  0  0  0  0  0  0  0
   60.7230   31.3700   50.4700 C   0  0  0  0  0  0  0  0  0  0  0  0
   62.5050   34.0320   49.7470 C   0  0  0  0  0  0  0  0  0  0  0  0
   58.3760   30.2120   45.5960 C   0  0  0  0  0  0  0  0  0  0  0  0
   57.7480   28.9890   45.8490 C   0  0  0  0  0  0  0  0  0  0  0  0
   58.2757   25.1166   45.2773 H   0  0  0  0  0  0  0  0  0  0  0  0
   56.8137   25.0381   44.2366 H   0  0  0  0  0  0  0  0  0  0  0  0
   57.8380   26.5137   44.2366 H   0  0  0  0  0  0  0  0  0  0  0  0
   55.8674   25.5275   46.3132 H   0  0  0  0  0  0  0  0  0  0  0  0
   57.2726   26.5431   46.8200 H   0  0  0  0  0  0  0  0  0  0  0  0
   54.9622   29.3946   43.9034 H   0  0  0  0  0  0  0  0  0  0  0  0
   56.0907   31.5717   43.4465 H   0  0  0  0  0  0  0  0  0  0  0  0
   58.0565   34.3686   48.2910 H   0  0  0  0  0  0  0  0  0  0  0  0
   59.8054   34.4463   50.0652 H   0  0  0  0  0  0  0  0  0  0  0  0
   61.1048   33.6103   45.3233 H   0  0  0  0  0  0  0  0  0  0  0  0
   63.3597   33.1020   46.0995 H   0  0  0  0  0  0  0  0  0  0  0  0
   63.6175   34.7469   46.8605 H   0  0  0  0  0  0  0  0  0  0  0  0
   64.4184   32.0697   47.8035 H   0  0  0  0  0  0  0  0  0  0  0  0
   65.0156   33.7585   48.2297 H   0  0  0  0  0  0  0  0  0  0  0  0
   63.8881   30.9319   49.4523 H   0  0  0  0  0  0  0  0  0  0  0  0
   63.2351   31.6395   51.0105 H   0  0  0  0  0  0  0  0  0  0  0  0
   62.3263   30.4339   47.5933 H   0  0  0  0  0  0  0  0  0  0  0  0
   60.0212   29.6598   47.0388 H   0  0  0  0  0  0  0  0  0  0  0  0
   58.1727   29.9450   48.6887 H   0  0  0  0  0  0  0  0  0  0  0  0
   59.7380   31.3460   52.9390 H   0  0  0  0  0  0  0  0  0  0  0  0
   59.7841   33.4977   52.8542 H   0  0  0  0  0  0  0  0  0  0  0  0
   58.2285   33.4934   51.9561 H   0  0  0  0  0  0  0  0  0  0  0  0
   58.2285   33.5020   53.7524 H   0  0  0  0  0  0  0  0  0  0  0  0
   60.9158   31.8643   51.4336 H   0  0  0  0  0  0  0  0  0  0  0  0
   62.0479   33.8244   50.7257 H   0  0  0  0  0  0  0  0  0  0  0  0
   62.9935   35.0176   49.7530 H   0  0  0  0  0  0  0  0  0  0  0  0
   59.3558   30.4265   46.0476 H   0  0  0  0  0  0  0  0  0  0  0  0
   58.2285   28.2557   46.5134 H   0  0  0  0  0  0  0  0  0  0  0  0
  1  2  1  0
  2  3  1  0
  3  4  1  0
  4  5  2  0
  5  6  1  0
  6  7  2  0
  7  8  1  0
  8  9  1  0
  9 10  2  0
  9 11  2  0
  9 12  1  0
 12 13  2  0
 13 14  1  0
 14 15  2  0
 15 16  1  0
 16 17  2  0
 16 18  1  0
 18 19  1  0
 19 20  1  0
 20 21  1  0
 21 22  1  0
 22 23  2  0
 23 24  1  0
 24 25  2  0
 25 26  1  0
 26 27  1  0
 27 28  2  0
 27 29  2  0
 27 30  1  0
 30 31  1  0
 26 32  2  0
 20 33  1  0
  7 34  1  0
 34 35  2  0
 35  4  1  0
 17 12  1  0
 32 22  1  0
 33 15  1  0
  1 36  1  0
  1 37  1  0
  1 38  1  0
  2 39  1  0
  2 40  1  0
  5 41  1  0
  6 42  1  0
 13 43  1  0
 14 44  1  0
 17 45  1  0
 18 46  1  0
 18 47  1  0
 19 48  1  0
 19 49  1  0
 21 50  1  0
 21 51  1  0
 23 52  1  0
 24 53  1  0
 25 54  1  0
 30 55  1  0
 31 56  1  0
 31 57  1  0
 31 58  1  0
 32 59  1  0
 33 60  1  0
 33 61  1  0
 34 62  1  0
 35 63  1  0
M  CHG  1   8  -1
M  END
>  <UniqueID>  (19) 
18

>  <SMILES>  (19) 
CCOc1ccc([N-]S(=O)(=O)c2ccc3c(c2)CCN(Cc2cccc(S(=O)(=O)NC)c2)C3)cc1

>  <Energy>  (19) 
73.7055590526598

>  <Genealogy>  (19) 
CCOc1ccc([N-]S(=O)(=O)c2ccc3c(c2)CCN(Cc2cccc(S(=O)(=O)NC)c2)C3)cc1 (protonated)
CCOc1ccc([N-]S(=O)(=O)c2ccc3c(c2)CCN(Cc2cccc(S(=O)(=O)NC)c2)C3)cc1 (3D coordinates assigned)
CCOc1ccc([N-]S(=O)(=O)c2ccc3c(c2)CCN(Cc2cccc(S(=O)(=O)NC)c2)C3)cc1 (nonaromatic ring conformer: 73.7055590526598 kcal/mol)

>  <smiles>  (19) 
CCOc1ccc(NS(=O)(=O)c2ccc3c(c2)CCN(Cc2cccc(S(=O)(=O)NC)c2)C3)cc1

>  <score_type>  (19) 
oracle

>  <origin>  (19) 
adg

>  <m_score__min__energy>  (19) 
-11.380000000000001

>  <m_primary>  (19) 
energy

$$$$
19:0
     RDKit          3D

 41 43  0  0  0  0  0  0  0  0999 V2000
   62.8040   33.8350   46.3810 C   0  0  0  0  0  0  0  0  0  0  0  0
   61.7140   33.8030   47.4170 C   0  0  0  0  0  0  0  0  0  0  0  0
   62.0490   33.6480   48.7740 C   0  0  0  0  0  0  0  0  0  0  0  0
   61.0560   33.6550   49.7560 C   0  0  0  0  0  0  0  0  0  0  0  0
   59.7160   33.8420   49.3990 C   0  0  0  0  0  0  0  0  0  0  0  0
   59.3700   34.0290   48.0560 C   0  0  0  0  0  0  0  0  0  0  0  0
   60.3640   34.0170   47.0570 C   0  0  0  0  0  0  0  0  0  0  0  0
   60.0380   34.2140   45.7020 O   0  0  0  0  0  0  0  0  0  0  0  0
   58.7180   34.4550   45.2160 C   0  0  0  0  0  0  0  0  0  0  0  0
   58.2130   33.2430   44.5020 C   0  0  0  0  0  0  0  0  0  0  0  0
   57.3820   32.2910   45.0420 C   0  0  0  0  0  0  0  0  0  0  0  0
   57.1620   31.4190   43.9930 C   0  0  0  0  0  0  0  0  0  0  0  0
   56.3810   30.1710   44.0420 C   0  0  0  0  0  0  0  0  0  0  0  0
   55.8190   29.7700   42.9900 O   0  0  0  0  0  0  0  0  0  0  0  0
   56.2090   29.4040   45.2460 N   0  0  0  0  0  0  0  0  0  0  0  0
   57.1210   28.3850   45.7600 C   0  0  0  0  0  0  0  0  0  0  0  0
   58.5670   28.7650   45.5890 C   0  0  0  0  0  0  0  0  0  0  0  0
   59.3830   28.2960   44.5780 C   0  0  0  0  0  0  0  0  0  0  0  0
   60.5970   28.9110   44.7980 C   0  0  0  0  0  0  0  0  0  0  0  0
   60.5140   29.7230   45.8720 N   0  0  0  0  0  0  0  0  0  0  0  0
   59.2770   29.6470   46.3360 N   0  0  0  0  0  0  0  0  0  0  0  0
   58.8290   30.3680   47.5230 C   0  0  0  0  0  0  0  0  0  0  0  0
   57.8670   31.8220   42.9180 N   0  0  0  0  0  0  0  0  0  0  0  0
   58.4750   32.9260   43.2560 O   0  0  0  0  0  0  0  0  0  0  0  0
   63.7837   33.8638   46.8803 H   0  0  0  0  0  0  0  0  0  0  0  0
   62.7391   32.9346   45.7525 H   0  0  0  0  0  0  0  0  0  0  0  0
   62.6864   34.7301   45.7525 H   0  0  0  0  0  0  0  0  0  0  0  0
   63.1022   33.5201   49.0645 H   0  0  0  0  0  0  0  0  0  0  0  0
   61.3279   33.5132   50.8124 H   0  0  0  0  0  0  0  0  0  0  0  0
   58.9350   33.8420   50.1736 H   0  0  0  0  0  0  0  0  0  0  0  0
   58.3172   34.1861   47.7788 H   0  0  0  0  0  0  0  0  0  0  0  0
   58.0534   34.6840   46.0621 H   0  0  0  0  0  0  0  0  0  0  0  0
   58.7369   35.3059   44.5191 H   0  0  0  0  0  0  0  0  0  0  0  0
   56.9858   32.2362   46.0667 H   0  0  0  0  0  0  0  0  0  0  0  0
   56.9191   28.2393   46.8315 H   0  0  0  0  0  0  0  0  0  0  0  0
   56.9483   27.4626   45.1862 H   0  0  0  0  0  0  0  0  0  0  0  0
   59.1223   27.5894   43.7762 H   0  0  0  0  0  0  0  0  0  0  0  0
   61.5000   28.7616   44.1879 H   0  0  0  0  0  0  0  0  0  0  0  0
   59.1617   29.8326   48.4245 H   0  0  0  0  0  0  0  0  0  0  0  0
   59.2567   31.3814   47.5196 H   0  0  0  0  0  0  0  0  0  0  0  0
   57.7310   30.4334   47.5196 H   0  0  0  0  0  0  0  0  0  0  0  0
  1  2  1  0
  2  3  2  0
  3  4  1  0
  4  5  2  0
  5  6  1  0
  6  7  2  0
  7  8  1  0
  8  9  1  0
  9 10  1  0
 10 11  2  0
 11 12  1  0
 12 13  1  0
 13 14  2  0
 13 15  1  0
 15 16  1  0
 16 17  1  0
 17 18  2  0
 18 19  1  0
 19 20  2  0
 20 21  1  0
 21 22  1  0
 12 23  2  0
 23 24  1  0
  7  2  1  0
 24 10  1  0
 21 17  1  0
  1 25  1  0
  1 26  1  0
  1 27  1  0
  3 28  1  0
  4 29  1  0
  5 30  1  0
  6 31  1  0
  9 32  1  0
  9 33  1  0
 11 34  1  0
 16 35  1  0
 16 36  1  0
 18 37  1  0
 19 38  1  0
 22 39  1  0
 22 40  1  0
 22 41  1  0
M  CHG  1  15  -1
M  END
>  <UniqueID>  (20) 
19

>  <SMILES>  (20) 
Cc1ccccc1OCc1cc(C(=O)[N-]Cc2ccnn2C)no1

>  <Energy>  (20) 
105.97003828342157

>  <Genealogy>  (20) 
Cc1ccccc1OCc1cc(C(=O)[N-]Cc2ccnn2C)no1 (protonated)
Cc1ccccc1OCc1cc(C(=O)[N-]Cc2ccnn2C)no1 (3D coordinates assigned)
Cc1ccccc1OCc1cc(C(=O)[N-]Cc2ccnn2C)no1 (optimized conformer: 105.97003828342157 kcal/mol)

>  <smiles>  (20) 
Cc1ccccc1OCc1cc(C(=O)NCc2ccnn2C)no1

>  <score_type>  (20) 
oracle

>  <origin>  (20) 
adg

>  <m_score__min__energy>  (20) 
-10.01

>  <m_primary>  (20) 
energy

$$$$
20:0
     RDKit          3D

 44 46  0  0  0  0  0  0  0  0999 V2000
   56.4990   29.7620   51.6590 O   0  0  0  0  0  0  0  0  0  0  0  0
   55.8850   30.6150   52.3630 C   0  0  0  0  0  0  0  0  0  0  0  0
   54.5810   30.2540   52.9960 C   0  0  0  0  0  0  0  0  0  0  0  0
   53.4610   30.7830   52.1520 C   0  0  0  0  0  0  0  0  0  0  0  0
   53.1380   30.3370   50.8810 C   0  0  0  0  0  0  0  0  0  0  0  0
   51.9970   31.0190   50.5130 C   0  0  0  0  0  0  0  0  0  0  0  0
   51.6910   31.8350   51.5800 C   0  0  0  0  0  0  0  0  0  0  0  0
   50.6000   32.6980   51.6330 O   0  0  0  0  0  0  0  0  0  0  0  0
   52.5710   31.6990   52.5910 N   0  0  0  0  0  0  0  0  0  0  0  0
   56.3680   31.9570   52.4620 N   0  0  0  0  0  0  0  0  0  0  0  0
   57.7640   32.2800   52.7350 C   0  0  0  0  0  0  0  0  0  0  0  0
   58.4600   32.6040   51.4380 C   0  0  0  0  0  0  0  0  0  0  0  0
   59.1310   33.8260   51.2840 C   0  0  0  0  0  0  0  0  0  0  0  0
   59.7140   34.1600   50.0600 C   0  0  0  0  0  0  0  0  0  0  0  0
   59.6040   33.2990   48.9650 C   0  0  0  0  0  0  0  0  0  0  0  0
   58.9080   32.0890   49.0950 C   0  0  0  0  0  0  0  0  0  0  0  0
   58.7480   31.1650   47.9220 C   0  0  0  0  0  0  0  0  0  0  0  0
   59.3960   31.7540   46.7520 N   0  0  0  0  0  0  0  0  0  0  0  0
   58.2460   32.6990   45.8570 S   0  0  0  0  0  0  0  0  0  0  0  0
   58.9500   33.8560   45.2060 O   0  0  0  0  0  0  0  0  0  0  0  0
   57.1940   33.2290   46.7940 O   0  0  0  0  0  0  0  0  0  0  0  0
   57.4840   31.7140   44.6160 C   0  0  0  0  0  0  0  0  0  0  0  0
   57.6530   32.0250   43.2600 C   0  0  0  0  0  0  0  0  0  0  0  0
   57.0710   31.2030   42.2920 C   0  0  0  0  0  0  0  0  0  0  0  0
   56.3280   30.0890   42.6840 C   0  0  0  0  0  0  0  0  0  0  0  0
   56.1900   29.8030   44.0460 C   0  0  0  0  0  0  0  0  0  0  0  0
   56.7690   30.6130   44.9730 N   0  0  0  0  0  0  0  0  0  0  0  0
   58.3490   31.7390   50.3390 C   0  0  0  0  0  0  0  0  0  0  0  0
   54.4993   29.1597   53.0721 H   0  0  0  0  0  0  0  0  0  0  0  0
   54.5246   30.6932   54.0029 H   0  0  0  0  0  0  0  0  0  0  0  0
   53.6820   29.5894   50.2851 H   0  0  0  0  0  0  0  0  0  0  0  0
   51.4461   30.9299   49.5651 H   0  0  0  0  0  0  0  0  0  0  0  0
   57.8159   33.1489   53.4076 H   0  0  0  0  0  0  0  0  0  0  0  0
   58.2556   31.4203   53.2138 H   0  0  0  0  0  0  0  0  0  0  0  0
   59.1983   34.5243   52.1312 H   0  0  0  0  0  0  0  0  0  0  0  0
   60.2636   35.1073   49.9571 H   0  0  0  0  0  0  0  0  0  0  0  0
   60.0627   33.5701   48.0027 H   0  0  0  0  0  0  0  0  0  0  0  0
   59.2145   30.1956   48.1514 H   0  0  0  0  0  0  0  0  0  0  0  0
   57.6783   31.0145   47.7144 H   0  0  0  0  0  0  0  0  0  0  0  0
   58.2379   32.9073   42.9610 H   0  0  0  0  0  0  0  0  0  0  0  0
   57.1981   31.4333   41.2239 H   0  0  0  0  0  0  0  0  0  0  0  0
   55.8557   29.4425   41.9297 H   0  0  0  0  0  0  0  0  0  0  0  0
   55.6134   28.9232   44.3677 H   0  0  0  0  0  0  0  0  0  0  0  0
   57.8213   30.7802   50.4500 H   0  0  0  0  0  0  0  0  0  0  0  0
  1  2  2  0
  2  3  1  0
  3  4  1  0
  4  5  2  0
  5  6  1  0
  6  7  2  0
  7  8  1  0
  7  9  1  0
  2 10  1  0
 10 11  1  0
 11 12  1  0
 12 13  2  0
 13 14  1  0
 14 15  2  0
 15 16  1  0
 16 17  1  0
 17 18  1  0
 18 19  1  0
 19 20  2  0
 19 21  2  0
 19 22  1  0
 22 23  2  0
 23 24  1  0
 24 25  2  0
 25 26  1  0
 26 27  2  0
 16 28  2  0
  9  4  1  0
 28 12  1  0
 27 22  1  0
  3 29  1  0
  3 30  1  0
  5 31  1  0
  6 32  1  0
 11 33  1  0
 11 34  1  0
 13 35  1  0
 14 36  1  0
 15 37  1  0
 17 38  1  0
 17 39  1  0
 23 40  1  0
 24 41  1  0
 25 42  1  0
 26 43  1  0
 28 44  1  0
M  CHG  4   8  -1   9  -1  10  -1  18  -1
M  END
>  <UniqueID>  (21) 
20

>  <SMILES>  (21) 
O=C(Cc1ccc([O-])[n-]1)[N-]Cc1cccc(C[N-]S(=O)(=O)c2ccccn2)c1

>  <Energy>  (21) 
63.284524848084864

>  <Genealogy>  (21) 
O=C(Cc1ccc([O-])[n-]1)[N-]Cc1cccc(C[N-]S(=O)(=O)c2ccccn2)c1 (protonated)
O=C(Cc1ccc([O-])[n-]1)[N-]Cc1cccc(C[N-]S(=O)(=O)c2ccccn2)c1 (3D coordinates assigned)
O=C(Cc1ccc([O-])[n-]1)[N-]Cc1cccc(C[N-]S(=O)(=O)c2ccccn2)c1 (optimized conformer: 63.284524848084864 kcal/mol)

>  <smiles>  (21) 
O=C(Cc1ccc(O)[nH]1)NCc1cccc(CNS(=O)(=O)c2ccccn2)c1

>  <score_type>  (21) 
oracle

>  <origin>  (21) 
adg

>  <m_score__min__energy>  (21) 
-17.260000000000002

>  <m_primary>  (21) 
energy

$$$$
21:0
     RDKit          3D

 31 33  0  0  0  0  0  0  0  0999 V2000
   56.2680   24.1680   48.2620 O   0  0  0  0  0  0  0  0  0  0  0  0
   56.8030   24.4560   47.1560 C   0  0  0  0  0  0  0  0  0  0  0  0
   56.8860   25.8850   46.7330 C   0  0  0  0  0  0  0  0  0  0  0  0
   55.8500   26.4630   45.9790 C   0  0  0  0  0  0  0  0  0  0  0  0
   54.7240   25.7220   45.6290 O   0  0  0  0  0  0  0  0  0  0  0  0
   55.9280   27.7610   45.5950 N   0  0  0  0  0  0  0  0  0  0  0  0
   56.9920   28.5350   45.9240 C   0  0  0  0  0  0  0  0  0  0  0  0
   57.0250   29.7360   45.5340 O   0  0  0  0  0  0  0  0  0  0  0  0
   58.0230   28.0150   46.6600 N   0  0  0  0  0  0  0  0  0  0  0  0
   59.1520   28.8460   47.0020 C   0  0  0  0  0  0  0  0  0  0  0  0
   59.3720   29.2290   48.3350 C   0  0  0  0  0  0  0  0  0  0  0  0
   60.4670   30.0340   48.6650 C   0  0  0  0  0  0  0  0  0  0  0  0
   61.3460   30.4620   47.6660 C   0  0  0  0  0  0  0  0  0  0  0  0
   61.1340   30.0840   46.3380 C   0  0  0  0  0  0  0  0  0  0  0  0
   60.0410   29.2790   46.0040 C   0  0  0  0  0  0  0  0  0  0  0  0
   57.9870   26.7050   47.0650 C   0  0  0  0  0  0  0  0  0  0  0  0
   58.9480   26.2320   47.7320 O   0  0  0  0  0  0  0  0  0  0  0  0
   57.3910   23.3550   46.3090 C   0  0  0  0  0  0  0  0  0  0  0  0
   57.4230   23.5810   44.8000 C   0  0  0  0  0  0  0  0  0  0  0  0
   58.6940   23.7320   45.6170 C   0  0  0  0  0  0  0  0  0  0  0  0
   55.1470   28.1720   45.0340 H   0  0  0  0  0  0  0  0  0  0  0  0
   58.6806   28.8946   49.1225 H   0  0  0  0  0  0  0  0  0  0  0  0
   60.6365   30.3303   49.7107 H   0  0  0  0  0  0  0  0  0  0  0  0
   62.2057   31.0972   47.9259 H   0  0  0  0  0  0  0  0  0  0  0  0
   61.8282   30.4203   45.5538 H   0  0  0  0  0  0  0  0  0  0  0  0
   59.8766   28.9838   44.9572 H   0  0  0  0  0  0  0  0  0  0  0  0
   57.0364   22.5353   46.9511 H   0  0  0  0  0  0  0  0  0  0  0  0
   57.3083   22.7290   44.1138 H   0  0  0  0  0  0  0  0  0  0  0  0
   56.8693   24.2214   44.0976 H   0  0  0  0  0  0  0  0  0  0  0  0
   59.5000   22.9896   45.5213 H   0  0  0  0  0  0  0  0  0  0  0  0
   59.4416   24.5279   45.7498 H   0  0  0  0  0  0  0  0  0  0  0  0
  1  2  2  0
  2  3  1  0
  3  4  2  0
  4  5  1  0
  4  6  1  0
  6  7  1  0
  7  8  2  0
  7  9  1  0
  9 10  1  0
 10 11  2  0
 11 12  1  0
 12 13  2  0
 13 14  1  0
 14 15  2  0
  9 16  1  0
 16 17  2  0
  2 18  1  0
 18 19  1  0
 19 20  1  0
 16  3  1  0
 20 18  1  0
 15 10  1  0
  6 21  1  0
 11 22  1  0
 12 23  1  0
 13 24  1  0
 14 25  1  0
 15 26  1  0
 18 27  1  0
 19 28  1  0
 19 29  1  0
 20 30  1  0
 20 31  1  0
M  CHG  1   5  -1
M  END
>  <UniqueID>  (22) 
21

>  <SMILES>  (22) 
O=C(c1c([O-])[nH]c(=O)n(-c2ccccc2)c1=O)C1CC1

>  <Energy>  (22) 
313.4663163914792

>  <Genealogy>  (22) 
O=C(c1c([O-])[nH]c(=O)n(-c2ccccc2)c1=O)C1CC1 (protonated)
O=C(c1c([O-])[nH]c(=O)n(-c2ccccc2)c1=O)C1CC1 (3D coordinates assigned)
O=C(c1c([O-])[nH]c(=O)n(-c2ccccc2)c1=O)C1CC1 (nonaromatic ring conformer: 313.4663163914792 kcal/mol)

>  <smiles>  (22) 
O=C(c1c(O)[nH]c(=O)n(-c2ccccc2)c1=O)C1CC1

>  <score_type>  (22) 
oracle

>  <origin>  (22) 
adg

>  <m_score__min__energy>  (22) 
-8.8599999999999994

>  <m_primary>  (22) 
energy

$$$$
22:0
     RDKit          3D

 40 42  0  0  0  0  0  0  0  0999 V2000
   55.4780   30.2380   43.6640 O   0  0  0  0  0  0  0  0  0  0  0  0
   56.3350   29.6420   44.3710 C   0  0  0  0  0  0  0  0  0  0  0  0
   57.7820   30.0580   44.2760 C   0  0  0  0  0  0  0  0  0  0  0  0
   57.9390   31.4810   44.5700 N   0  0  0  0  0  0  0  0  0  0  0  0
   57.8930   32.5600   43.5900 C   0  0  0  0  0  0  0  0  0  0  0  0
   58.1560   33.8640   44.3870 C   0  0  0  0  0  0  0  0  0  0  0  0
   58.3820   33.4450   45.7670 N   0  0  0  0  0  0  0  0  0  0  0  0
   58.6740   34.3350   46.8870 C   0  0  0  0  0  0  0  0  0  0  0  0
   60.0570   34.0680   47.4120 C   0  0  0  0  0  0  0  0  0  0  0  0
   60.2930   33.9850   48.7950 C   0  0  0  0  0  0  0  0  0  0  0  0
   61.5760   33.7030   49.2750 C   0  0  0  0  0  0  0  0  0  0  0  0
   62.6300   33.4950   48.3790 C   0  0  0  0  0  0  0  0  0  0  0  0
   64.2380   33.1390   48.9830 Cl  0  0  0  0  0  0  0  0  0  0  0  0
   62.4000   33.5680   47.0010 C   0  0  0  0  0  0  0  0  0  0  0  0
   61.1180   33.8490   46.5180 C   0  0  0  0  0  0  0  0  0  0  0  0
   58.2380   32.0420   45.8290 C   0  0  0  0  0  0  0  0  0  0  0  0
   58.3590   31.3690   46.8880 O   0  0  0  0  0  0  0  0  0  0  0  0
   55.8860   28.5920   45.2450 N   0  0  0  0  0  0  0  0  0  0  0  0
   56.5500   27.5520   45.6630 C   0  0  0  0  0  0  0  0  0  0  0  0
   57.9130   27.5580   45.7310 N   0  0  0  0  0  0  0  0  0  0  0  0
   58.6210   26.4750   46.1470 C   0  0  0  0  0  0  0  0  0  0  0  0
   57.9560   25.3050   46.5150 C   0  0  0  0  0  0  0  0  0  0  0  0
   56.5630   25.2630   46.4470 C   0  0  0  0  0  0  0  0  0  0  0  0
   55.8530   26.3860   46.0180 C   0  0  0  0  0  0  0  0  0  0  0  0
   54.4640   26.3400   45.9470 O   0  0  0  0  0  0  0  0  0  0  0  0
   58.3721   29.4744   44.9980 H   0  0  0  0  0  0  0  0  0  0  0  0
   58.1333   29.8715   43.2504 H   0  0  0  0  0  0  0  0  0  0  0  0
   58.6693   32.4156   42.8242 H   0  0  0  0  0  0  0  0  0  0  0  0
   56.9255   32.5923   43.0675 H   0  0  0  0  0  0  0  0  0  0  0  0
   59.0431   34.3818   43.9933 H   0  0  0  0  0  0  0  0  0  0  0  0
   57.3118   34.5648   44.3087 H   0  0  0  0  0  0  0  0  0  0  0  0
   58.6088   35.3795   46.5483 H   0  0  0  0  0  0  0  0  0  0  0  0
   57.9434   34.1555   47.6895 H   0  0  0  0  0  0  0  0  0  0  0  0
   59.4656   34.1424   49.5025 H   0  0  0  0  0  0  0  0  0  0  0  0
   61.7566   33.6447   50.3585 H   0  0  0  0  0  0  0  0  0  0  0  0
   63.2287   33.4042   46.2964 H   0  0  0  0  0  0  0  0  0  0  0  0
   60.9398   33.8987   45.4337 H   0  0  0  0  0  0  0  0  0  0  0  0
   59.7191   26.5210   46.1936 H   0  0  0  0  0  0  0  0  0  0  0  0
   58.5233   24.4259   46.8548 H   0  0  0  0  0  0  0  0  0  0  0  0
   56.0250   24.3465   46.7309 H   0  0  0  0  0  0  0  0  0  0  0  0
  1  2  2  0
  2  3  1  0
  3  4  1  0
  4  5  1  0
  5  6  1  0
  6  7  1  0
  7  8  1  0
  8  9  1  0
  9 10  2  0
 10 11  1  0
 11 12  2  0
 12 13  1  0
 12 14  1  0
 14 15  2  0
  7 16  1  0
 16 17  2  0
  2 18  1  0
 18 19  2  3
 19 20  1  0
 20 21  1  0
 21 22  2  0
 22 23  1  0
 23 24  2  0
 24 25  1  0
 16  4  1  0
 24 19  1  0
 15  9  1  0
  3 26  1  0
  3 27  1  0
  5 28  1  0
  5 29  1  0
  6 30  1  0
  6 31  1  0
  8 32  1  0
  8 33  1  0
 10 34  1  0
 11 35  1  0
 14 36  1  0
 15 37  1  0
 21 38  1  0
 22 39  1  0
 23 40  1  0
M  CHG  2  20  -1  25  -1
M  END
>  <UniqueID>  (23) 
22

>  <SMILES>  (23) 
O=C(CN1CCN(Cc2ccc(Cl)cc2)C1=O)N=c1[n-]cccc1[O-]

>  <Energy>  (23) 
56.39305703480461

>  <Genealogy>  (23) 
O=C(CN1CCN(Cc2ccc(Cl)cc2)C1=O)N=c1[n-]cccc1[O-] (protonated)
O=C(CN1CCN(Cc2ccc(Cl)cc2)C1=O)N=c1[n-]cccc1[O-] (3D coordinates assigned)
O=C(CN1CCN(Cc2ccc(Cl)cc2)C1=O)N=c1[n-]cccc1[O-] (nonaromatic ring conformer: 56.39305703480461 kcal/mol)

>  <smiles>  (23) 
O=C(CN1CCN(Cc2ccc(Cl)cc2)C1=O)N=c1[nH]cccc1O

>  <score_type>  (23) 
oracle

>  <origin>  (23) 
adg

>  <m_score__min__energy>  (23) 
-14.34

>  <m_primary>  (23) 
energy

$$$$
23:0
     RDKit          3D

 41 43  0  0  0  0  0  0  0  0999 V2000
   60.4890   27.1100   48.6700 C   0  0  0  0  0  0  0  0  0  0  0  0
   59.6180   26.8550   47.5310 N   0  0  0  0  0  0  0  0  0  0  0  0
   58.5270   27.5700   47.2020 C   0  0  0  0  0  0  0  0  0  0  0  0
   58.0190   27.0460   46.0330 C   0  0  0  0  0  0  0  0  0  0  0  0
   56.7910   27.4860   45.2990 C   0  0  0  0  0  0  0  0  0  0  0  0
   56.6200   28.9310   45.4210 N   0  0  0  0  0  0  0  0  0  0  0  0
   56.6520   29.8080   44.2900 C   0  0  0  0  0  0  0  0  0  0  0  0
   56.7920   29.3410   43.1270 O   0  0  0  0  0  0  0  0  0  0  0  0
   56.4690   31.2150   44.4910 N   0  0  0  0  0  0  0  0  0  0  0  0
   57.3800   32.1080   45.1490 C   0  0  0  0  0  0  0  0  0  0  0  0
   58.3070   31.5770   46.0540 C   0  0  0  0  0  0  0  0  0  0  0  0
   59.2260   32.4100   46.6980 C   0  0  0  0  0  0  0  0  0  0  0  0
   59.2550   33.7810   46.4210 C   0  0  0  0  0  0  0  0  0  0  0  0
   60.1840   34.5850   47.0980 O   0  0  0  0  0  0  0  0  0  0  0  0
   61.4410   34.1670   47.5590 C   0  0  0  0  0  0  0  0  0  0  0  0
   61.6840   34.1690   48.9390 C   0  0  0  0  0  0  0  0  0  0  0  0
   62.9170   33.7390   49.4410 C   0  0  0  0  0  0  0  0  0  0  0  0
   63.9120   33.2960   48.5660 C   0  0  0  0  0  0  0  0  0  0  0  0
   63.6750   33.2760   47.1890 C   0  0  0  0  0  0  0  0  0  0  0  0
   62.4420   33.7020   46.6850 C   0  0  0  0  0  0  0  0  0  0  0  0
   58.3300   34.3180   45.5090 C   0  0  0  0  0  0  0  0  0  0  0  0
   57.4060   33.4860   44.8680 C   0  0  0  0  0  0  0  0  0  0  0  0
   58.8600   26.0020   45.7010 C   0  0  0  0  0  0  0  0  0  0  0  0
   59.8350   25.9110   46.6280 N   0  0  0  0  0  0  0  0  0  0  0  0
   59.9299   26.9463   49.6030 H   0  0  0  0  0  0  0  0  0  0  0  0
   61.3499   26.4262   48.6336 H   0  0  0  0  0  0  0  0  0  0  0  0
   60.8451   28.1501   48.6336 H   0  0  0  0  0  0  0  0  0  0  0  0
   58.1145   28.4202   47.7650 H   0  0  0  0  0  0  0  0  0  0  0  0
   56.8885   27.2203   44.2360 H   0  0  0  0  0  0  0  0  0  0  0  0
   55.9143   26.9833   45.7334 H   0  0  0  0  0  0  0  0  0  0  0  0
   56.4480   29.3370   46.3680 H   0  0  0  0  0  0  0  0  0  0  0  0
   58.3120   30.4964   46.2596 H   0  0  0  0  0  0  0  0  0  0  0  0
   59.9311   31.9849   47.4274 H   0  0  0  0  0  0  0  0  0  0  0  0
   60.9007   34.5107   49.6316 H   0  0  0  0  0  0  0  0  0  0  0  0
   63.1031   33.7497   50.5251 H   0  0  0  0  0  0  0  0  0  0  0  0
   64.8828   32.9627   48.9614 H   0  0  0  0  0  0  0  0  0  0  0  0
   64.4585   32.9251   46.5013 H   0  0  0  0  0  0  0  0  0  0  0  0
   62.2536   33.6737   45.6016 H   0  0  0  0  0  0  0  0  0  0  0  0
   58.3327   35.3976   45.2983 H   0  0  0  0  0  0  0  0  0  0  0  0
   56.6974   33.9108   44.1418 H   0  0  0  0  0  0  0  0  0  0  0  0
   58.7519   25.3497   44.8219 H   0  0  0  0  0  0  0  0  0  0  0  0
  1  2  1  0
  2  3  1  0
  3  4  2  0
  4  5  1  0
  5  6  1  0
  6  7  1  0
  7  8  2  0
  7  9  1  0
  9 10  1  0
 10 11  2  0
 11 12  1  0
 12 13  2  0
 13 14  1  0
 14 15  1  0
 15 16  2  0
 16 17  1  0
 17 18  2  0
 18 19  1  0
 19 20  2  0
 13 21  1  0
 21 22  2  0
  4 23  1  0
 23 24  2  0
 24  2  1  0
 22 10  1  0
 20 15  1  0
  1 25  1  0
  1 26  1  0
  1 27  1  0
  3 28  1  0
  5 29  1  0
  5 30  1  0
  6 31  1  0
 11 32  1  0
 12 33  1  0
 16 34  1  0
 17 35  1  0
 18 36  1  0
 19 37  1  0
 20 38  1  0
 21 39  1  0
 22 40  1  0
 23 41  1  0
M  CHG  1   9  -1
M  END
>  <UniqueID>  (24) 
23

>  <SMILES>  (24) 
Cn1cc(CNC(=O)[N-]c2ccc(Oc3ccccc3)cc2)cn1

>  <Energy>  (24) 
78.61384783596228

>  <Genealogy>  (24) 
Cn1cc(CNC(=O)[N-]c2ccc(Oc3ccccc3)cc2)cn1 (protonated)
Cn1cc(CNC(=O)[N-]c2ccc(Oc3ccccc3)cc2)cn1 (3D coordinates assigned)
Cn1cc(CNC(=O)[N-]c2ccc(Oc3ccccc3)cc2)cn1 (optimized conformer: 78.61384783596228 kcal/mol)

>  <smiles>  (24) 
Cn1cc(CNC(=O)Nc2ccc(Oc3ccccc3)cc2)cn1

>  <score_type>  (24) 
oracle

>  <origin>  (24) 
adg

>  <m_score__min__energy>  (24) 
-9.8200000000000003

>  <m_primary>  (24) 
energy

$$$$
24:0
     RDKit          3D

 51 52  0  0  0  0  0  0  0  0999 V2000
   58.3220   26.3120   47.1200 C   0  0  0  0  0  0  0  0  0  0  0  0
   57.0380   25.9060   46.4340 C   0  0  0  0  0  0  0  0  0  0  0  0
   56.6180   27.0010   45.6380 O   0  0  0  0  0  0  0  0  0  0  0  0
   57.4860   27.6780   44.8010 C   0  0  0  0  0  0  0  0  0  0  0  0
   58.3120   27.1340   44.0570 O   0  0  0  0  0  0  0  0  0  0  0  0
   57.4330   29.1490   44.7860 C   0  0  0  0  0  0  0  0  0  0  0  0
   58.5770   29.9050   44.9300 C   0  0  0  0  0  0  0  0  0  0  0  0
   58.5790   31.2470   44.9270 N   0  0  0  0  0  0  0  0  0  0  0  0
   57.3800   31.8840   44.7740 C   0  0  0  0  0  0  0  0  0  0  0  0
   57.4490   33.6720   44.7830 S   0  0  0  0  0  0  0  0  0  0  0  0
   59.1230   34.1600   45.2860 C   0  0  0  0  0  0  0  0  0  0  0  0
   59.2160   33.9360   46.7480 C   0  0  0  0  0  0  0  0  0  0  0  0
   59.0150   34.8940   47.5350 O   0  0  0  0  0  0  0  0  0  0  0  0
   59.5220   32.6770   47.3340 N   0  0  0  0  0  0  0  0  0  0  0  0
   59.5670   32.6490   48.7690 C   0  0  0  0  0  0  0  0  0  0  0  0
   58.4520   32.1500   49.4370 C   0  0  0  0  0  0  0  0  0  0  0  0
   58.4880   32.1180   50.8110 C   0  0  0  0  0  0  0  0  0  0  0  0
   57.3400   31.6120   51.5410 C   0  0  0  0  0  0  0  0  0  0  0  0
   56.6850   32.4740   52.2180 O   0  0  0  0  0  0  0  0  0  0  0  0
   56.9480   30.2820   51.5260 O   0  0  0  0  0  0  0  0  0  0  0  0
   56.7540   29.5940   52.7680 C   0  0  0  0  0  0  0  0  0  0  0  0
   59.5800   32.5590   51.5350 C   0  0  0  0  0  0  0  0  0  0  0  0
   60.6720   33.0490   50.8460 C   0  0  0  0  0  0  0  0  0  0  0  0
   60.6680   33.0940   49.4680 C   0  0  0  0  0  0  0  0  0  0  0  0
   61.8370   33.6140   48.7690 C   0  0  0  0  0  0  0  0  0  0  0  0
   62.4760   34.6030   49.2290 O   0  0  0  0  0  0  0  0  0  0  0  0
   62.2890   33.0500   47.5860 O   0  0  0  0  0  0  0  0  0  0  0  0
   63.2620   33.7610   46.8500 C   0  0  0  0  0  0  0  0  0  0  0  0
   56.2320   31.1990   44.6300 N   0  0  0  0  0  0  0  0  0  0  0  0
   56.2450   29.8340   44.6350 C   0  0  0  0  0  0  0  0  0  0  0  0
   55.1630   29.1450   44.5010 N   0  0  0  0  0  0  0  0  0  0  0  0
   58.1847   26.2686   48.2105 H   0  0  0  0  0  0  0  0  0  0  0  0
   59.1287   25.6251   46.8244 H   0  0  0  0  0  0  0  0  0  0  0  0
   58.5872   27.3378   46.8244 H   0  0  0  0  0  0  0  0  0  0  0  0
   57.2133   25.0250   45.7991 H   0  0  0  0  0  0  0  0  0  0  0  0
   56.2674   25.6462   47.1747 H   0  0  0  0  0  0  0  0  0  0  0  0
   59.5366   29.3817   45.0536 H   0  0  0  0  0  0  0  0  0  0  0  0
   59.4750   31.7820   45.0390 H   0  0  0  0  0  0  0  0  0  0  0  0
   59.8697   33.5461   44.7611 H   0  0  0  0  0  0  0  0  0  0  0  0
   59.3178   35.2134   45.0360 H   0  0  0  0  0  0  0  0  0  0  0  0
   59.6940   31.8570   46.7360 H   0  0  0  0  0  0  0  0  0  0  0  0
   57.5710   31.7930   48.8835 H   0  0  0  0  0  0  0  0  0  0  0  0
   56.9483   30.2831   53.6031 H   0  0  0  0  0  0  0  0  0  0  0  0
   55.7180   29.2292   52.8271 H   0  0  0  0  0  0  0  0  0  0  0  0
   57.4468   28.7417   52.8271 H   0  0  0  0  0  0  0  0  0  0  0  0
   59.5792   32.5205   52.6343 H   0  0  0  0  0  0  0  0  0  0  0  0
   61.5520   33.4062   51.4010 H   0  0  0  0  0  0  0  0  0  0  0  0
   63.9511   34.2645   47.5440 H   0  0  0  0  0  0  0  0  0  0  0  0
   63.8263   33.0610   46.2163 H   0  0  0  0  0  0  0  0  0  0  0  0
   62.7665   34.5113   46.2163 H   0  0  0  0  0  0  0  0  0  0  0  0
   55.1620   28.1740   44.8890 H   0  0  0  0  0  0  0  0  0  0  0  0
  1  2  1  0
  2  3  1  0
  3  4  1  0
  4  5  2  0
  4  6  1  0
  6  7  2  0
  7  8  1  0
  8  9  1  0
  9 10  1  0
 10 11  1  0
 11 12  1  0
 12 13  2  0
 12 14  1  0
 14 15  1  0
 15 16  2  0
 16 17  1  0
 17 18  1  0
 18 19  2  0
 18 20  1  0
 20 21  1  0
 17 22  2  0
 22 23  1  0
 23 24  2  0
 24 25  1  0
 25 26  2  0
 25 27  1  0
 27 28  1  0
  9 29  2  0
 29 30  1  0
 30 31  2  3
 30  6  1  0
 24 15  1  0
  1 32  1  0
  1 33  1  0
  1 34  1  0
  2 35  1  0
  2 36  1  0
  7 37  1  0
  8 38  1  0
 11 39  1  0
 11 40  1  0
 14 41  1  0
 16 42  1  0
 21 43  1  0
 21 44  1  0
 21 45  1  0
 22 46  1  0
 23 47  1  0
 28 48  1  0
 28 49  1  0
 28 50  1  0
 31 51  1  0
M  END
>  <smiles>  (25) 
CCOC(=O)c1c[nH]c(SCC(=O)Nc2cc(C(=O)OC)ccc2C(=O)OC)nc1=N

>  <score_type>  (25) 
oracle

>  <origin>  (25) 
adg

>  <m_score__min__energy>  (25) 
-7.6500000000000004

>  <m_primary>  (25) 
energy

$$$$
25:0
     RDKit          3D

 49 51  0  0  0  0  0  0  0  0999 V2000
   57.2550   33.7800   45.6430 C   0  0  0  0  0  0  0  0  0  0  0  0
   58.5050   34.3410   44.9810 C   0  0  0  0  0  0  0  0  0  0  0  0
   59.5870   35.1000   46.1850 S   0  0  0  0  0  0  0  0  0  0  0  0
   60.0250   36.4380   45.6640 O   0  0  0  0  0  0  0  0  0  0  0  0
   58.8550   35.3020   47.4810 O   0  0  0  0  0  0  0  0  0  0  0  0
   60.9950   34.1200   46.4530 N   0  0  0  0  0  0  0  0  0  0  0  0
   61.0190   32.8680   47.1530 C   0  0  0  0  0  0  0  0  0  0  0  0
   61.3710   32.8660   48.5080 C   0  0  0  0  0  0  0  0  0  0  0  0
   61.4500   31.6660   49.2170 C   0  0  0  0  0  0  0  0  0  0  0  0
   61.1770   30.4540   48.5780 C   0  0  0  0  0  0  0  0  0  0  0  0
   60.7990   30.4390   47.2270 C   0  0  0  0  0  0  0  0  0  0  0  0
   60.5630   29.1340   46.5160 C   0  0  0  0  0  0  0  0  0  0  0  0
   59.1460   29.0680   46.0410 C   0  0  0  0  0  0  0  0  0  0  0  0
   58.5760   30.1460   45.4410 N   0  0  0  0  0  0  0  0  0  0  0  0
   57.2760   30.1240   45.0540 C   0  0  0  0  0  0  0  0  0  0  0  0
   56.7760   31.1350   44.4920 O   0  0  0  0  0  0  0  0  0  0  0  0
   56.4950   28.9860   45.2830 C   0  0  0  0  0  0  0  0  0  0  0  0
   55.1630   28.9650   44.8840 O   0  0  0  0  0  0  0  0  0  0  0  0
   57.0920   27.8800   45.9200 C   0  0  0  0  0  0  0  0  0  0  0  0
   56.3470   26.6420   46.2280 C   0  0  0  0  0  0  0  0  0  0  0  0
   55.1270   26.5290   45.9280 O   0  0  0  0  0  0  0  0  0  0  0  0
   57.0220   25.5660   46.8910 N   0  0  0  0  0  0  0  0  0  0  0  0
   56.4470   24.2390   47.0770 C   0  0  0  0  0  0  0  0  0  0  0  0
   56.5640   23.4350   45.8120 C   0  0  0  0  0  0  0  0  0  0  0  0
   55.7740   23.7420   44.6930 C   0  0  0  0  0  0  0  0  0  0  0  0
   55.9010   22.9980   43.5150 C   0  0  0  0  0  0  0  0  0  0  0  0
   56.8180   21.9450   43.4470 C   0  0  0  0  0  0  0  0  0  0  0  0
   56.9390   21.2240   42.3050 F   0  0  0  0  0  0  0  0  0  0  0  0
   57.6120   21.6370   44.5560 C   0  0  0  0  0  0  0  0  0  0  0  0
   57.4880   22.3800   45.7340 C   0  0  0  0  0  0  0  0  0  0  0  0
   58.4010   27.9560   46.2800 N   0  0  0  0  0  0  0  0  0  0  0  0
   60.7210   31.6490   46.5190 C   0  0  0  0  0  0  0  0  0  0  0  0
   57.3654   33.8296   46.7363 H   0  0  0  0  0  0  0  0  0  0  0  0
   56.3802   34.3719   45.3356 H   0  0  0  0  0  0  0  0  0  0  0  0
   57.1157   32.7330   45.3356 H   0  0  0  0  0  0  0  0  0  0  0  0
   59.0434   33.5234   44.4794 H   0  0  0  0  0  0  0  0  0  0  0  0
   58.2003   35.1076   44.2534 H   0  0  0  0  0  0  0  0  0  0  0  0
   61.5868   33.8166   49.0176 H   0  0  0  0  0  0  0  0  0  0  0  0
   61.7279   31.6748   50.2813 H   0  0  0  0  0  0  0  0  0  0  0  0
   61.2586   29.5092   49.1355 H   0  0  0  0  0  0  0  0  0  0  0  0
   61.2417   29.0595   45.6535 H   0  0  0  0  0  0  0  0  0  0  0  0
   60.7541   28.3016   47.2092 H   0  0  0  0  0  0  0  0  0  0  0  0
   56.9834   23.7217   47.8861 H   0  0  0  0  0  0  0  0  0  0  0  0
   55.3831   24.3443   47.3357 H   0  0  0  0  0  0  0  0  0  0  0  0
   55.0523   24.5707   44.7425 H   0  0  0  0  0  0  0  0  0  0  0  0
   55.2786   23.2418   42.6414 H   0  0  0  0  0  0  0  0  0  0  0  0
   58.3347   20.8095   44.5017 H   0  0  0  0  0  0  0  0  0  0  0  0
   58.1167   22.1373   46.6033 H   0  0  0  0  0  0  0  0  0  0  0  0
   60.4244   31.6432   45.4598 H   0  0  0  0  0  0  0  0  0  0  0  0
  1  2  1  0
  2  3  1  0
  3  4  2  0
  3  5  2  0
  3  6  1  0
  6  7  1  0
  7  8  2  0
  8  9  1  0
  9 10  2  0
 10 11  1  0
 11 12  1  0
 12 13  1  0
 13 14  2  0
 14 15  1  0
 15 16  2  0
 15 17  1  0
 17 18  1  0
 17 19  2  0
 19 20  1  0
 20 21  2  0
 20 22  1  0
 22 23  1  0
 23 24  1  0
 24 25  2  0
 25 26  1  0
 26 27  2  0
 27 28  1  0
 27 29  1  0
 29 30  2  0
 19 31  1  0
 11 32  2  0
 32  7  1  0
 31 13  1  0
 30 24  1  0
  1 33  1  0
  1 34  1  0
  1 35  1  0
  2 36  1  0
  2 37  1  0
  8 38  1  0
  9 39  1  0
 10 40  1  0
 12 41  1  0
 12 42  1  0
 23 43  1  0
 23 44  1  0
 25 45  1  0
 26 46  1  0
 29 47  1  0
 30 48  1  0
 32 49  1  0
M  CHG  4   6  -1  18  -1  22  -1  31  -1
M  END
>  <UniqueID>  (26) 
24

>  <SMILES>  (26) 
CCS(=O)(=O)[N-]c1cccc(Cc2nc(=O)c([O-])c(C(=O)[N-]Cc3ccc(F)cc3)[n-]2)c1

>  <Energy>  (26) 
43.532696420233016

>  <Genealogy>  (26) 
CCS(=O)(=O)[N-]c1cccc(Cc2nc(=O)c([O-])c(C(=O)[N-]Cc3ccc(F)cc3)[n-]2)c1 (protonated)
CCS(=O)(=O)[N-]c1cccc(Cc2nc(=O)c([O-])c(C(=O)[N-]Cc3ccc(F)cc3)[n-]2)c1 (3D coordinates assigned)
CCS(=O)(=O)[N-]c1cccc(Cc2nc(=O)c([O-])c(C(=O)[N-]Cc3ccc(F)cc3)[n-]2)c1 (optimized conformer: 43.532696420233016 kcal/mol)

>  <smiles>  (26) 
CCS(=O)(=O)Nc1cccc(Cc2nc(=O)c(O)c(C(=O)NCc3ccc(F)cc3)[nH]2)c1

>  <score_type>  (26) 
oracle

>  <origin>  (26) 
adg

>  <m_score__min__energy>  (26) 
-16.48

>  <m_primary>  (26) 
energy

$$$$
26:0
     RDKit          3D

 57 60  0  0  0  0  0  0  0  0999 V2000
   62.8960   31.6560   48.3630 C   0  0  0  0  0  0  0  0  0  0  0  0
   63.0120   33.0980   48.6400 N   0  0  0  0  0  0  0  0  0  0  0  0
   61.8010   33.6290   49.3220 C   0  0  0  0  0  0  0  0  0  0  0  0
   60.8770   34.4500   48.4040 C   0  0  0  0  0  0  0  0  0  0  0  0
   60.9460   33.9460   47.0300 N   0  0  0  0  0  0  0  0  0  0  0  0
   59.7620   33.5170   46.3310 C   0  0  0  0  0  0  0  0  0  0  0  0
   59.0030   34.4360   45.5880 C   0  0  0  0  0  0  0  0  0  0  0  0
   57.8720   34.0120   44.8890 C   0  0  0  0  0  0  0  0  0  0  0  0
   57.4860   32.6710   44.9230 C   0  0  0  0  0  0  0  0  0  0  0  0
   58.2280   31.7340   45.6620 C   0  0  0  0  0  0  0  0  0  0  0  0
   57.8140   30.3110   45.6740 C   0  0  0  0  0  0  0  0  0  0  0  0
   56.6860   30.0000   45.1990 O   0  0  0  0  0  0  0  0  0  0  0  0
   58.6770   29.2880   46.2040 N   0  0  0  0  0  0  0  0  0  0  0  0
   58.3300   27.8940   46.2560 C   0  0  0  0  0  0  0  0  0  0  0  0
   58.3260   27.1840   47.4700 C   0  0  0  0  0  0  0  0  0  0  0  0
   58.0250   25.8200   47.4870 C   0  0  0  0  0  0  0  0  0  0  0  0
   57.7310   25.1510   46.2970 C   0  0  0  0  0  0  0  0  0  0  0  0
   57.7330   25.8430   45.0760 C   0  0  0  0  0  0  0  0  0  0  0  0
   57.4410   25.1240   43.8190 C   0  0  0  0  0  0  0  0  0  0  0  0
   57.4300   25.7710   42.7360 O   0  0  0  0  0  0  0  0  0  0  0  0
   57.1890   23.7070   43.8000 N   0  0  0  0  0  0  0  0  0  0  0  0
   57.6900   22.7780   44.8030 C   0  0  0  0  0  0  0  0  0  0  0  0
   57.5970   21.3990   44.1650 C   0  0  0  0  0  0  0  0  0  0  0  0
   56.6270   21.5480   42.9980 C   0  0  0  0  0  0  0  0  0  0  0  0
   56.6450   23.0260   42.6370 C   0  0  0  0  0  0  0  0  0  0  0  0
   58.0600   27.2090   45.0620 C   0  0  0  0  0  0  0  0  0  0  0  0
   59.3750   32.1650   46.3520 C   0  0  0  0  0  0  0  0  0  0  0  0
   62.2590   33.8580   46.3810 C   0  0  0  0  0  0  0  0  0  0  0  0
   63.3850   33.8620   47.4310 C   0  0  0  0  0  0  0  0  0  0  0  0
   62.8515   31.1026   49.3126 H   0  0  0  0  0  0  0  0  0  0  0  0
   61.9797   31.4663   47.7847 H   0  0  0  0  0  0  0  0  0  0  0  0
   63.7702   31.3222   47.7847 H   0  0  0  0  0  0  0  0  0  0  0  0
   61.2272   32.7792   49.7202 H   0  0  0  0  0  0  0  0  0  0  0  0
   62.1521   34.3091   50.1120 H   0  0  0  0  0  0  0  0  0  0  0  0
   59.8418   34.3717   48.7676 H   0  0  0  0  0  0  0  0  0  0  0  0
   61.2026   35.5006   48.4162 H   0  0  0  0  0  0  0  0  0  0  0  0
   59.3013   35.4943   45.5569 H   0  0  0  0  0  0  0  0  0  0  0  0
   57.2825   34.7373   44.3090 H   0  0  0  0  0  0  0  0  0  0  0  0
   56.5944   32.3453   44.3672 H   0  0  0  0  0  0  0  0  0  0  0  0
   59.6400   29.5450   46.5150 H   0  0  0  0  0  0  0  0  0  0  0  0
   58.5608   27.7049   48.4100 H   0  0  0  0  0  0  0  0  0  0  0  0
   58.0196   25.2714   48.4404 H   0  0  0  0  0  0  0  0  0  0  0  0
   57.4967   24.0764   46.3167 H   0  0  0  0  0  0  0  0  0  0  0  0
   58.7338   23.0138   45.0577 H   0  0  0  0  0  0  0  0  0  0  0  0
   57.1109   22.8349   45.7365 H   0  0  0  0  0  0  0  0  0  0  0  0
   58.5846   21.0763   43.8038 H   0  0  0  0  0  0  0  0  0  0  0  0
   57.2527   20.6415   44.8845 H   0  0  0  0  0  0  0  0  0  0  0  0
   56.9583   20.9399   42.1433 H   0  0  0  0  0  0  0  0  0  0  0  0
   55.6157   21.2061   43.2632 H   0  0  0  0  0  0  0  0  0  0  0  0
   57.2832   23.1986   41.7579 H   0  0  0  0  0  0  0  0  0  0  0  0
   55.6402   23.3947   42.3831 H   0  0  0  0  0  0  0  0  0  0  0  0
   58.1049   27.7476   44.1040 H   0  0  0  0  0  0  0  0  0  0  0  0
   59.9767   31.4361   46.9148 H   0  0  0  0  0  0  0  0  0  0  0  0
   62.3121   32.9268   45.7978 H   0  0  0  0  0  0  0  0  0  0  0  0
   62.3870   34.7287   45.7211 H   0  0  0  0  0  0  0  0  0  0  0  0
   64.2856   33.4110   46.9888 H   0  0  0  0  0  0  0  0  0  0  0  0
   63.5701   34.9045   47.7293 H   0  0  0  0  0  0  0  0  0  0  0  0
  1  2  1  0
  2  3  1  0
  3  4  1  0
  4  5  1  0
  5  6  1  0
  6  7  2  0
  7  8  1  0
  8  9  2  0
  9 10  1  0
 10 11  1  0
 11 12  2  0
 11 13  1  0
 13 14  1  0
 14 15  2  0
 15 16  1  0
 16 17  2  0
 17 18  1  0
 18 19  1  0
 19 20  2  0
 19 21  1  0
 21 22  1  0
 22 23  1  0
 23 24  1  0
 24 25  1  0
 18 26  2  0
 10 27  2  0
  5 28  1  0
 28 29  1  0
 29  2  1  0
 27  6  1  0
 26 14  1  0
 25 21  1  0
  1 30  1  0
  1 31  1  0
  1 32  1  0
  3 33  1  0
  3 34  1  0
  4 35  1  0
  4 36  1  0
  7 37  1  0
  8 38  1  0
  9 39  1  0
 13 40  1  0
 15 41  1  0
 16 42  1  0
 17 43  1  0
 22 44  1  0
 22 45  1  0
 23 46  1  0
 23 47  1  0
 24 48  1  0
 24 49  1  0
 25 50  1  0
 25 51  1  0
 26 52  1  0
 27 53  1  0
 28 54  1  0
 28 55  1  0
 29 56  1  0
 29 57  1  0
M  END
>  <UniqueID>  (27) 
25

>  <SMILES>  (27) 
CN1CCN(c2cccc(C(=O)Nc3cccc(C(=O)N4CCCC4)c3)c2)CC1

>  <Energy>  (27) 
80.82575222159313

>  <Genealogy>  (27) 
CN1CCN(c2cccc(C(=O)Nc3cccc(C(=O)N4CCCC4)c3)c2)CC1 (3D coordinates assigned)
CN1CCN(c2cccc(C(=O)Nc3cccc(C(=O)N4CCCC4)c3)c2)CC1 (nonaromatic ring conformer: 80.82575222159313 kcal/mol)

>  <smiles>  (27) 
CN1CCN(c2cccc(C(=O)Nc3cccc(C(=O)N4CCCC4)c3)c2)CC1

>  <score_type>  (27) 
oracle

>  <origin>  (27) 
adg

>  <m_score__min__energy>  (27) 
-9.2100000000000009

>  <m_primary>  (27) 
energy

$$$$
27:0
     RDKit          3D

 58 62  0  0  0  0  0  0  0  0999 V2000
   57.2710   21.1100   42.9550 C   0  0  0  0  0  0  0  0  0  0  0  0
   57.2480   21.7940   44.2590 N   0  0  0  0  0  0  0  0  0  0  0  0
   55.9680   22.5270   44.4580 C   0  0  0  0  0  0  0  0  0  0  0  0
   56.0850   24.0190   44.0970 C   0  0  0  0  0  0  0  0  0  0  0  0
   57.1450   24.7100   44.8680 N   0  0  0  0  0  0  0  0  0  0  0  0
   56.4780   25.6760   46.1650 S   0  0  0  0  0  0  0  0  0  0  0  0
   55.1230   26.1880   45.7640 O   0  0  0  0  0  0  0  0  0  0  0  0
   56.3080   24.8140   47.3860 O   0  0  0  0  0  0  0  0  0  0  0  0
   57.5230   27.0410   46.5610 C   0  0  0  0  0  0  0  0  0  0  0  0
   57.4080   28.2480   45.8550 C   0  0  0  0  0  0  0  0  0  0  0  0
   58.2290   29.3320   46.1770 C   0  0  0  0  0  0  0  0  0  0  0  0
   59.1500   29.2270   47.2260 C   0  0  0  0  0  0  0  0  0  0  0  0
   59.9440   30.3590   47.5860 N   0  0  0  0  0  0  0  0  0  0  0  0
   59.5410   31.3870   48.5050 C   0  0  0  0  0  0  0  0  0  0  0  0
   58.9290   31.0470   49.5530 O   0  0  0  0  0  0  0  0  0  0  0  0
   59.8580   32.8570   48.2900 C   0  0  0  0  0  0  0  0  0  0  0  0
   59.1170   33.4000   47.0830 C   0  0  0  0  0  0  0  0  0  0  0  0
   57.7120   33.3410   47.0360 C   0  0  0  0  0  0  0  0  0  0  0  0
   57.0200   33.8230   45.9220 C   0  0  0  0  0  0  0  0  0  0  0  0
   57.7200   34.3800   44.8500 C   0  0  0  0  0  0  0  0  0  0  0  0
   59.1140   34.4610   44.8930 C   0  0  0  0  0  0  0  0  0  0  0  0
   59.8140   33.9830   46.0050 C   0  0  0  0  0  0  0  0  0  0  0  0
   61.2050   34.0850   46.0260 O   0  0  0  0  0  0  0  0  0  0  0  0
   61.9690   33.6660   47.1150 C   0  0  0  0  0  0  0  0  0  0  0  0
   63.3590   33.8250   47.0720 C   0  0  0  0  0  0  0  0  0  0  0  0
   64.1460   33.4260   48.1550 C   0  0  0  0  0  0  0  0  0  0  0  0
   63.5460   32.8750   49.2880 C   0  0  0  0  0  0  0  0  0  0  0  0
   62.1590   32.7100   49.3380 C   0  0  0  0  0  0  0  0  0  0  0  0
   61.3580   33.0890   48.2450 C   0  0  0  0  0  0  0  0  0  0  0  0
   59.2910   28.0140   47.9100 C   0  0  0  0  0  0  0  0  0  0  0  0
   58.4740   26.9280   47.5860 C   0  0  0  0  0  0  0  0  0  0  0  0
   58.1970   23.8080   45.3830 C   0  0  0  0  0  0  0  0  0  0  0  0
   58.4510   22.6550   44.4070 C   0  0  0  0  0  0  0  0  0  0  0  0
   57.3076   20.0219   43.1123 H   0  0  0  0  0  0  0  0  0  0  0  0
   56.3637   21.3684   42.3894 H   0  0  0  0  0  0  0  0  0  0  0  0
   58.1589   21.4288   42.3894 H   0  0  0  0  0  0  0  0  0  0  0  0
   57.3000   21.0490   44.9940 H   0  0  0  0  0  0  0  0  0  0  0  0
   55.1959   22.0690   43.8223 H   0  0  0  0  0  0  0  0  0  0  0  0
   55.7043   22.4590   45.5238 H   0  0  0  0  0  0  0  0  0  0  0  0
   56.3160   24.1051   43.0250 H   0  0  0  0  0  0  0  0  0  0  0  0
   55.1264   24.4981   44.3450 H   0  0  0  0  0  0  0  0  0  0  0  0
   56.6692   28.3413   45.0454 H   0  0  0  0  0  0  0  0  0  0  0  0
   58.1515   30.2687   45.6056 H   0  0  0  0  0  0  0  0  0  0  0  0
   59.4915   33.4332   49.1524 H   0  0  0  0  0  0  0  0  0  0  0  0
   57.1546   32.9125   47.8820 H   0  0  0  0  0  0  0  0  0  0  0  0
   55.9221   33.7636   45.8895 H   0  0  0  0  0  0  0  0  0  0  0  0
   57.1740   34.7550   43.9718 H   0  0  0  0  0  0  0  0  0  0  0  0
   59.6632   34.9027   44.0485 H   0  0  0  0  0  0  0  0  0  0  0  0
   63.8332   34.2656   46.1826 H   0  0  0  0  0  0  0  0  0  0  0  0
   65.2387   33.5462   48.1147 H   0  0  0  0  0  0  0  0  0  0  0  0
   64.1661   32.5698   50.1438 H   0  0  0  0  0  0  0  0  0  0  0  0
   61.6911   32.2816   50.2366 H   0  0  0  0  0  0  0  0  0  0  0  0
   60.0461   27.9156   48.7038 H   0  0  0  0  0  0  0  0  0  0  0  0
   58.5768   25.9812   48.1365 H   0  0  0  0  0  0  0  0  0  0  0  0
   59.1277   24.3789   45.5167 H   0  0  0  0  0  0  0  0  0  0  0  0
   57.8630   23.3894   46.3438 H   0  0  0  0  0  0  0  0  0  0  0  0
   58.7168   23.0705   43.4238 H   0  0  0  0  0  0  0  0  0  0  0  0
   59.2706   22.0388   44.8052 H   0  0  0  0  0  0  0  0  0  0  0  0
  1  2  1  0
  2  3  1  0
  3  4  1  0
  4  5  1  0
  5  6  1  0
  6  7  2  0
  6  8  2  0
  6  9  1  0
  9 10  2  0
 10 11  1  0
 11 12  2  0
 12 13  1  0
 13 14  1  0
 14 15  2  0
 14 16  1  0
 16 17  1  0
 17 18  2  0
 18 19  1  0
 19 20  2  0
 20 21  1  0
 21 22  2  0
 22 23  1  0
 23 24  1  0
 24 25  2  0
 25 26  1  0
 26 27  2  0
 27 28  1  0
 28 29  2  0
 12 30  1  0
 30 31  2  0
  5 32  1  0
 32 33  1  0
 33  2  1  0
 31  9  1  0
 29 16  1  0
 22 17  1  0
 29 24  1  0
  1 34  1  0
  1 35  1  0
  1 36  1  0
  2 37  1  0
  3 38  1  0
  3 39  1  0
  4 40  1  0
  4 41  1  0
 10 42  1  0
 11 43  1  0
 16 44  1  0
 18 45  1  0
 19 46  1  0
 20 47  1  0
 21 48  1  0
 25 49  1  0
 26 50  1  0
 27 51  1  0
 28 52  1  0
 30 53  1  0
 31 54  1  0
 32 55  1  0
 32 56  1  0
 33 57  1  0
 33 58  1  0
M  CHG  2   2   1  13  -1
M  END
>  <UniqueID>  (28) 
26

>  <SMILES>  (28) 
C[NH+]1CCN(S(=O)(=O)c2ccc([N-]C(=O)C3c4ccccc4Oc4ccccc43)cc2)CC1

>  <Energy>  (28) 
79.89219897424985

>  <Genealogy>  (28) 
C[NH+]1CCN(S(=O)(=O)c2ccc([N-]C(=O)C3c4ccccc4Oc4ccccc43)cc2)CC1 (protonated)
C[NH+]1CCN(S(=O)(=O)c2ccc([N-]C(=O)C3c4ccccc4Oc4ccccc43)cc2)CC1 (3D coordinates assigned)
C[NH+]1CCN(S(=O)(=O)c2ccc([N-]C(=O)C3c4ccccc4Oc4ccccc43)cc2)CC1 (nonaromatic ring conformer: 79.89219897424985 kcal/mol)

>  <smiles>  (28) 
CN1CCN(S(=O)(=O)c2ccc(NC(=O)C3c4ccccc4Oc4ccccc43)cc2)CC1

>  <score_type>  (28) 
oracle

>  <origin>  (28) 
adg

>  <m_score__min__energy>  (28) 
-9.8900000000000006

>  <m_primary>  (28) 
energy

$$$$
28:0
     RDKit          3D

 42 44  0  0  0  0  0  0  0  0999 V2000
   59.4360   34.1570   44.1940 C   0  0  0  0  0  0  0  0  0  0  0  0
   58.5270   32.9650   44.3350 C   0  0  0  0  0  0  0  0  0  0  0  0
   57.7720   32.5520   43.2260 C   0  0  0  0  0  0  0  0  0  0  0  0
   56.9550   31.4240   43.3060 C   0  0  0  0  0  0  0  0  0  0  0  0
   56.8890   30.7060   44.5060 C   0  0  0  0  0  0  0  0  0  0  0  0
   56.0600   29.4940   44.6360 C   0  0  0  0  0  0  0  0  0  0  0  0
   55.0420   29.3400   43.9080 O   0  0  0  0  0  0  0  0  0  0  0  0
   56.4620   28.4710   45.5550 N   0  0  0  0  0  0  0  0  0  0  0  0
   57.7920   28.1910   46.0180 C   0  0  0  0  0  0  0  0  0  0  0  0
   58.2270   28.5750   47.3010 C   0  0  0  0  0  0  0  0  0  0  0  0
   59.5360   28.3060   47.7120 C   0  0  0  0  0  0  0  0  0  0  0  0
   60.4250   27.6670   46.8460 C   0  0  0  0  0  0  0  0  0  0  0  0
   60.0110   27.3050   45.5620 C   0  0  0  0  0  0  0  0  0  0  0  0
   58.7030   27.5710   45.1430 C   0  0  0  0  0  0  0  0  0  0  0  0
   58.1760   27.0700   43.3700 Br  0  0  0  0  0  0  0  0  0  0  0  0
   57.6040   31.1360   45.5790 N   0  0  0  0  0  0  0  0  0  0  0  0
   58.4000   32.2400   45.5450 C   0  0  0  0  0  0  0  0  0  0  0  0
   59.1180   32.6120   46.7830 C   0  0  0  0  0  0  0  0  0  0  0  0
   58.4490   32.6790   48.0160 C   0  0  0  0  0  0  0  0  0  0  0  0
   59.1520   32.9890   49.1830 C   0  0  0  0  0  0  0  0  0  0  0  0
   60.5290   33.2190   49.1330 C   0  0  0  0  0  0  0  0  0  0  0  0
   61.2110   33.1370   47.9120 C   0  0  0  0  0  0  0  0  0  0  0  0
   62.9520   33.3900   47.8330 S   0  0  0  0  0  0  0  0  0  0  0  0
   63.7490   31.8560   47.7750 N   0  0  0  0  0  0  0  0  0  0  0  0
   63.2870   34.1790   46.5990 O   0  0  0  0  0  0  0  0  0  0  0  0
   63.4230   34.1520   49.0400 O   0  0  0  0  0  0  0  0  0  0  0  0
   60.5050   32.8250   46.7430 C   0  0  0  0  0  0  0  0  0  0  0  0
   59.7163   34.5245   45.1922 H   0  0  0  0  0  0  0  0  0  0  0  0
   60.3421   33.8641   43.6434 H   0  0  0  0  0  0  0  0  0  0  0  0
   58.9137   34.9533   43.6434 H   0  0  0  0  0  0  0  0  0  0  0  0
   57.8250   33.1221   42.2868 H   0  0  0  0  0  0  0  0  0  0  0  0
   56.3677   31.1015   42.4336 H   0  0  0  0  0  0  0  0  0  0  0  0
   57.5337   29.0890   47.9831 H   0  0  0  0  0  0  0  0  0  0  0  0
   59.8660   28.5985   48.7198 H   0  0  0  0  0  0  0  0  0  0  0  0
   61.4517   27.4485   47.1748 H   0  0  0  0  0  0  0  0  0  0  0  0
   60.7157   26.8092   44.8781 H   0  0  0  0  0  0  0  0  0  0  0  0
   57.3670   32.4866   48.0632 H   0  0  0  0  0  0  0  0  0  0  0  0
   58.6198   33.0521   50.1436 H   0  0  0  0  0  0  0  0  0  0  0  0
   61.0786   33.4648   50.0536 H   0  0  0  0  0  0  0  0  0  0  0  0
   63.1130   31.1990   47.2710 H   0  0  0  0  0  0  0  0  0  0  0  0
   64.5960   31.9760   47.1740 H   0  0  0  0  0  0  0  0  0  0  0  0
   61.0417   32.7463   45.7861 H   0  0  0  0  0  0  0  0  0  0  0  0
  1  2  1  0
  2  3  2  0
  3  4  1  0
  4  5  2  0
  5  6  1  0
  6  7  2  0
  6  8  1  0
  8  9  1  0
  9 10  2  0
 10 11  1  0
 11 12  2  0
 12 13  1  0
 13 14  2  0
 14 15  1  0
  5 16  1  0
 16 17  2  0
 17 18  1  0
 18 19  2  0
 19 20  1  0
 20 21  2  0
 21 22  1  0
 22 23  1  0
 23 24  1  0
 23 25  2  0
 23 26  2  0
 22 27  2  0
 17  2  1  0
 27 18  1  0
 14  9  1  0
  1 28  1  0
  1 29  1  0
  1 30  1  0
  3 31  1  0
  4 32  1  0
 10 33  1  0
 11 34  1  0
 12 35  1  0
 13 36  1  0
 19 37  1  0
 20 38  1  0
 21 39  1  0
 24 40  1  0
 24 41  1  0
 27 42  1  0
M  CHG  1   8  -1
M  END
>  <UniqueID>  (29) 
27

>  <SMILES>  (29) 
Cc1ccc(C(=O)[N-]c2ccccc2Br)nc1-c1cccc(S(N)(=O)=O)c1

>  <Energy>  (29) 
53.81247294766889

>  <Genealogy>  (29) 
Cc1ccc(C(=O)[N-]c2ccccc2Br)nc1-c1cccc(S(N)(=O)=O)c1 (protonated)
Cc1ccc(C(=O)[N-]c2ccccc2Br)nc1-c1cccc(S(N)(=O)=O)c1 (3D coordinates assigned)
Cc1ccc(C(=O)[N-]c2ccccc2Br)nc1-c1cccc(S(N)(=O)=O)c1 (optimized conformer: 53.81247294766889 kcal/mol)

>  <smiles>  (29) 
Cc1ccc(C(=O)Nc2ccccc2Br)nc1-c1cccc(S(N)(=O)=O)c1

>  <score_type>  (29) 
oracle

>  <origin>  (29) 
adg

>  <m_score__min__energy>  (29) 
-11.51

>  <m_primary>  (29) 
energy

$$$$
29:0
     RDKit          3D

 37 39  0  0  0  0  0  0  0  0999 V2000
   59.9590   28.4520   45.2850 C   0  0  0  0  0  0  0  0  0  0  0  0
   59.0690   27.5740   44.8150 C   0  0  0  0  0  0  0  0  0  0  0  0
   57.9760   27.9810   43.8670 C   0  0  0  0  0  0  0  0  0  0  0  0
   57.8410   29.4350   43.8530 N   0  0  0  0  0  0  0  0  0  0  0  0
   56.7870   30.1180   44.5390 C   0  0  0  0  0  0  0  0  0  0  0  0
   55.9380   29.4660   45.2080 O   0  0  0  0  0  0  0  0  0  0  0  0
   56.7400   31.5160   44.4980 O   0  0  0  0  0  0  0  0  0  0  0  0
   57.5420   32.3640   45.2750 C   0  0  0  0  0  0  0  0  0  0  0  0
   58.5850   31.7980   46.0200 C   0  0  0  0  0  0  0  0  0  0  0  0
   59.4210   32.6020   46.8120 C   0  0  0  0  0  0  0  0  0  0  0  0
   60.5070   31.9970   47.6180 C   0  0  0  0  0  0  0  0  0  0  0  0
   60.2360   30.9530   48.5310 C   0  0  0  0  0  0  0  0  0  0  0  0
   61.2840   30.3810   49.2860 C   0  0  0  0  0  0  0  0  0  0  0  0
   62.5650   30.8310   49.1480 N   0  0  0  0  0  0  0  0  0  0  0  0
   62.8210   31.8350   48.2750 C   0  0  0  0  0  0  0  0  0  0  0  0
   64.0160   32.4030   48.0570 N   0  0  0  0  0  0  0  0  0  0  0  0
   63.7920   33.3790   47.1490 C   0  0  0  0  0  0  0  0  0  0  0  0
   62.4460   33.4250   46.7930 C   0  0  0  0  0  0  0  0  0  0  0  0
   61.8400   32.4190   47.5210 C   0  0  0  0  0  0  0  0  0  0  0  0
   59.2010   33.9890   46.8510 C   0  0  0  0  0  0  0  0  0  0  0  0
   58.1810   34.5620   46.0890 C   0  0  0  0  0  0  0  0  0  0  0  0
   57.3570   33.7590   45.2960 C   0  0  0  0  0  0  0  0  0  0  0  0
   56.4210   34.3510   44.5120 F   0  0  0  0  0  0  0  0  0  0  0  0
   60.7463   28.1198   45.9776 H   0  0  0  0  0  0  0  0  0  0  0  0
   59.9047   29.5073   44.9795 H   0  0  0  0  0  0  0  0  0  0  0  0
   59.1379   26.5226   45.1309 H   0  0  0  0  0  0  0  0  0  0  0  0
   58.2223   27.6285   42.8545 H   0  0  0  0  0  0  0  0  0  0  0  0
   57.0269   27.5340   44.1978 H   0  0  0  0  0  0  0  0  0  0  0  0
   58.5270   29.9990   43.3030 H   0  0  0  0  0  0  0  0  0  0  0  0
   58.7510   30.7112   45.9842 H   0  0  0  0  0  0  0  0  0  0  0  0
   59.2067   30.5849   48.6540 H   0  0  0  0  0  0  0  0  0  0  0  0
   61.0656   29.5657   49.9914 H   0  0  0  0  0  0  0  0  0  0  0  0
   64.9270   32.1560   48.5050 H   0  0  0  0  0  0  0  0  0  0  0  0
   64.5677   34.0466   46.7457 H   0  0  0  0  0  0  0  0  0  0  0  0
   61.9672   34.1155   46.0831 H   0  0  0  0  0  0  0  0  0  0  0  0
   59.8352   34.6264   47.4847 H   0  0  0  0  0  0  0  0  0  0  0  0
   58.0253   35.6507   46.1130 H   0  0  0  0  0  0  0  0  0  0  0  0
  1  2  2  0
  2  3  1  0
  3  4  1  0
  4  5  1  0
  5  6  2  0
  5  7  1  0
  7  8  1  0
  8  9  2  0
  9 10  1  0
 10 11  1  0
 11 12  2  0
 12 13  1  0
 13 14  2  0
 14 15  1  0
 15 16  1  0
 16 17  1  0
 17 18  2  0
 18 19  1  0
 10 20  2  0
 20 21  1  0
 21 22  2  0
 22 23  1  0
 22  8  1  0
 19 11  1  0
 19 15  2  0
  1 24  1  0
  1 25  1  0
  2 26  1  0
  3 27  1  0
  3 28  1  0
  4 29  1  0
  9 30  1  0
 12 31  1  0
 13 32  1  0
 16 33  1  0
 17 34  1  0
 18 35  1  0
 20 36  1  0
 21 37  1  0
M  END
>  <UniqueID>  (30) 
28

>  <SMILES>  (30) 
C=CCNC(=O)Oc1cc(-c2ccnc3[nH]ccc23)ccc1F

>  <Energy>  (30) 
81.00750069332183

>  <Genealogy>  (30) 
C=CCNC(=O)Oc1cc(-c2ccnc3[nH]ccc23)ccc1F (3D coordinates assigned)
C=CCNC(=O)Oc1cc(-c2ccnc3[nH]ccc23)ccc1F (optimized conformer: 81.00750069332183 kcal/mol)

>  <smiles>  (30) 
C=CCNC(=O)Oc1cc(-c2ccnc3[nH]ccc23)ccc1F

>  <score_type>  (30) 
oracle

>  <origin>  (30) 
adg

>  <m_score__min__energy>  (30) 
-7.6299999999999999

>  <m_primary>  (30) 
energy

$$$$
30:0
     RDKit          3D

 39 41  0  0  0  0  0  0  0  0999 V2000
   55.7000   28.6380   44.9830 O   0  0  0  0  0  0  0  0  0  0  0  0
   56.8400   28.4590   45.4850 C   0  0  0  0  0  0  0  0  0  0  0  0
   57.5750   27.1790   45.1820 C   0  0  0  0  0  0  0  0  0  0  0  0
   57.1020   26.0320   46.0280 C   0  0  0  0  0  0  0  0  0  0  0  0
   57.9090   25.1570   46.6590 N   0  0  0  0  0  0  0  0  0  0  0  0
   57.0440   24.2860   47.2230 C   0  0  0  0  0  0  0  0  0  0  0  0
   57.4230   23.3110   47.9230 O   0  0  0  0  0  0  0  0  0  0  0  0
   55.7410   24.5390   46.9740 N   0  0  0  0  0  0  0  0  0  0  0  0
   55.7970   25.6410   46.2070 C   0  0  0  0  0  0  0  0  0  0  0  0
   54.6810   26.2690   45.6660 O   0  0  0  0  0  0  0  0  0  0  0  0
   57.4120   29.5050   46.2830 N   0  0  0  0  0  0  0  0  0  0  0  0
   57.8300   30.7970   45.8250 C   0  0  0  0  0  0  0  0  0  0  0  0
   57.3900   31.2440   44.5750 C   0  0  0  0  0  0  0  0  0  0  0  0
   57.7210   32.5230   44.1260 C   0  0  0  0  0  0  0  0  0  0  0  0
   58.4730   33.3780   44.9350 C   0  0  0  0  0  0  0  0  0  0  0  0
   58.7760   34.6220   44.4820 F   0  0  0  0  0  0  0  0  0  0  0  0
   58.9110   32.9510   46.2010 C   0  0  0  0  0  0  0  0  0  0  0  0
   59.6390   33.8840   47.0860 C   0  0  0  0  0  0  0  0  0  0  0  0
   59.1030   34.9880   47.3790 O   0  0  0  0  0  0  0  0  0  0  0  0
   60.9450   33.5740   47.6030 N   0  0  0  0  0  0  0  0  0  0  0  0
   61.6130   34.3980   48.5950 C   0  0  0  0  0  0  0  0  0  0  0  0
   62.9780   33.7610   48.8060 C   0  0  0  0  0  0  0  0  0  0  0  0
   63.2080   32.8690   47.5890 C   0  0  0  0  0  0  0  0  0  0  0  0
   61.8240   32.5650   47.0360 C   0  0  0  0  0  0  0  0  0  0  0  0
   58.5810   31.6580   46.6440 C   0  0  0  0  0  0  0  0  0  0  0  0
   57.4192   26.9246   44.1232 H   0  0  0  0  0  0  0  0  0  0  0  0
   58.6395   27.3432   45.4052 H   0  0  0  0  0  0  0  0  0  0  0  0
   54.7760   27.1330   45.1460 H   0  0  0  0  0  0  0  0  0  0  0  0
   56.7793   30.5834   43.9420 H   0  0  0  0  0  0  0  0  0  0  0  0
   57.3889   32.8588   43.1325 H   0  0  0  0  0  0  0  0  0  0  0  0
   61.7233   35.4285   48.2265 H   0  0  0  0  0  0  0  0  0  0  0  0
   61.0398   34.4506   49.5324 H   0  0  0  0  0  0  0  0  0  0  0  0
   63.7573   34.5348   48.8675 H   0  0  0  0  0  0  0  0  0  0  0  0
   63.0187   33.1878   49.7440 H   0  0  0  0  0  0  0  0  0  0  0  0
   63.8148   33.3947   46.8370 H   0  0  0  0  0  0  0  0  0  0  0  0
   63.7504   31.9498   47.8553 H   0  0  0  0  0  0  0  0  0  0  0  0
   61.8264   32.6313   45.9380 H   0  0  0  0  0  0  0  0  0  0  0  0
   61.4965   31.5477   47.2966 H   0  0  0  0  0  0  0  0  0  0  0  0
   58.9122   31.3185   47.6365 H   0  0  0  0  0  0  0  0  0  0  0  0
  1  2  2  0
  2  3  1  0
  3  4  1  0
  4  5  1  0
  5  6  1  0
  6  7  2  0
  6  8  1  0
  8  9  1  0
  9 10  1  0
  2 11  1  0
 11 12  1  0
 12 13  2  0
 13 14  1  0
 14 15  2  0
 15 16  1  0
 15 17  1  0
 17 18  1  0
 18 19  2  0
 18 20  1  0
 20 21  1  0
 21 22  1  0
 22 23  1  0
 23 24  1  0
 17 25  2  0
  9  4  2  0
 25 12  1  0
 24 20  1  0
  3 26  1  0
  3 27  1  0
 10 28  1  0
 13 29  1  0
 14 30  1  0
 21 31  1  0
 21 32  1  0
 22 33  1  0
 22 34  1  0
 23 35  1  0
 23 36  1  0
 24 37  1  0
 24 38  1  0
 25 39  1  0
M  CHG  3   5  -1   8  -1  11  -1
M  END
>  <UniqueID>  (31) 
29

>  <SMILES>  (31) 
O=C(Cc1[n-]c(=O)[n-]c1O)[N-]c1ccc(F)c(C(=O)N2CCCC2)c1

>  <Energy>  (31) 
75.45779269455203

>  <Genealogy>  (31) 
O=C(Cc1[n-]c(=O)[n-]c1O)[N-]c1ccc(F)c(C(=O)N2CCCC2)c1 (protonated)
O=C(Cc1[n-]c(=O)[n-]c1O)[N-]c1ccc(F)c(C(=O)N2CCCC2)c1 (3D coordinates assigned)
O=C(Cc1[n-]c(=O)[n-]c1O)[N-]c1ccc(F)c(C(=O)N2CCCC2)c1 (nonaromatic ring conformer: 75.45779269455203 kcal/mol)

>  <smiles>  (31) 
O=C(Cc1[nH]c(=O)[nH]c1O)Nc1ccc(F)c(C(=O)N2CCCC2)c1

>  <score_type>  (31) 
oracle

>  <origin>  (31) 
adg

>  <m_score__min__energy>  (31) 
-14.119999999999999

>  <m_primary>  (31) 
energy

$$$$
31:0
     RDKit          3D

 65 69  0  0  0  0  0  0  0  0999 V2000
   62.0100   32.8990   46.7100 O   0  0  0  0  0  0  0  0  0  0  0  0
   61.4410   31.9410   47.2970 C   0  0  0  0  0  0  0  0  0  0  0  0
   62.1920   31.1630   48.2390 N   0  0  0  0  0  0  0  0  0  0  0  0
   62.9960   31.6080   49.1640 C   0  0  0  0  0  0  0  0  0  0  0  0
   63.9760   32.5400   48.8020 C   0  0  0  0  0  0  0  0  0  0  0  0
   64.8560   33.0330   49.7710 C   0  0  0  0  0  0  0  0  0  0  0  0
   64.7720   32.5940   51.0550 N   0  0  0  0  0  0  0  0  0  0  0  0
   63.8460   31.6750   51.4350 C   0  0  0  0  0  0  0  0  0  0  0  0
   62.9450   31.1600   50.5000 C   0  0  0  0  0  0  0  0  0  0  0  0
   60.0430   31.6840   47.0810 N   0  0  0  0  0  0  0  0  0  0  0  0
   59.2360   32.4910   46.2120 C   0  0  0  0  0  0  0  0  0  0  0  0
   59.3460   33.8870   46.2860 C   0  0  0  0  0  0  0  0  0  0  0  0
   58.5480   34.7010   45.4810 C   0  0  0  0  0  0  0  0  0  0  0  0
   57.6390   34.1310   44.5880 C   0  0  0  0  0  0  0  0  0  0  0  0
   57.5370   32.7420   44.4840 C   0  0  0  0  0  0  0  0  0  0  0  0
   58.3430   31.9090   45.2780 C   0  0  0  0  0  0  0  0  0  0  0  0
   58.2720   30.4430   45.0870 C   0  0  0  0  0  0  0  0  0  0  0  0
   57.0360   29.7800   45.1540 C   0  0  0  0  0  0  0  0  0  0  0  0
   56.9780   28.3880   45.0380 C   0  0  0  0  0  0  0  0  0  0  0  0
   58.1520   27.6440   44.8370 C   0  0  0  0  0  0  0  0  0  0  0  0
   58.0860   26.1470   44.7120 C   0  0  0  0  0  0  0  0  0  0  0  0
   58.1620   25.3720   46.3190 S   0  0  0  0  0  0  0  0  0  0  0  0
   58.2330   23.8750   46.1790 O   0  0  0  0  0  0  0  0  0  0  0  0
   56.9270   25.7490   47.0860 O   0  0  0  0  0  0  0  0  0  0  0  0
   59.5840   25.9510   47.1290 N   0  0  0  0  0  0  0  0  0  0  0  0
   59.6520   27.1280   47.9400 C   0  0  0  0  0  0  0  0  0  0  0  0
   60.6600   27.3280   48.8970 C   0  0  0  0  0  0  0  0  0  0  0  0
   60.6210   28.4500   49.7290 C   0  0  0  0  0  0  0  0  0  0  0  0
   59.5780   29.3800   49.5880 C   0  0  0  0  0  0  0  0  0  0  0  0
   59.4420   30.4900   50.4970 N   0  0  0  0  0  0  0  0  0  0  0  0
   59.9110   30.3870   51.8860 C   0  0  0  0  0  0  0  0  0  0  0  0
   59.1210   31.3600   52.7650 C   0  0  0  0  0  0  0  0  0  0  0  0
   59.1740   32.6720   52.2350 O   0  0  0  0  0  0  0  0  0  0  0  0
   58.5130   32.7140   50.9850 C   0  0  0  0  0  0  0  0  0  0  0  0
   59.2330   31.8380   49.9540 C   0  0  0  0  0  0  0  0  0  0  0  0
   58.6450   29.1870   48.6140 N   0  0  0  0  0  0  0  0  0  0  0  0
   58.6790   28.1140   47.7790 C   0  0  0  0  0  0  0  0  0  0  0  0
   59.3830   28.3120   44.7290 C   0  0  0  0  0  0  0  0  0  0  0  0
   59.4430   29.7010   44.8630 C   0  0  0  0  0  0  0  0  0  0  0  0
   64.0536   32.8832   47.7598 H   0  0  0  0  0  0  0  0  0  0  0  0
   65.6172   33.7771   49.4938 H   0  0  0  0  0  0  0  0  0  0  0  0
   63.8058   31.3360   52.4807 H   0  0  0  0  0  0  0  0  0  0  0  0
   62.2003   30.4096   50.8041 H   0  0  0  0  0  0  0  0  0  0  0  0
   59.6020   30.8410   47.5100 H   0  0  0  0  0  0  0  0  0  0  0  0
   60.0652   34.3429   46.9823 H   0  0  0  0  0  0  0  0  0  0  0  0
   58.6356   35.7953   45.5504 H   0  0  0  0  0  0  0  0  0  0  0  0
   57.0022   34.7767   43.9654 H   0  0  0  0  0  0  0  0  0  0  0  0
   56.8215   32.2977   43.7764 H   0  0  0  0  0  0  0  0  0  0  0  0
   56.1109   30.3574   45.2981 H   0  0  0  0  0  0  0  0  0  0  0  0
   56.0082   27.8731   45.1045 H   0  0  0  0  0  0  0  0  0  0  0  0
   57.1421   25.8674   44.2212 H   0  0  0  0  0  0  0  0  0  0  0  0
   58.9442   25.8051   44.1149 H   0  0  0  0  0  0  0  0  0  0  0  0
   61.4804   26.6014   48.9917 H   0  0  0  0  0  0  0  0  0  0  0  0
   61.4014   28.6037   50.4888 H   0  0  0  0  0  0  0  0  0  0  0  0
   59.7598   29.3596   52.2488 H   0  0  0  0  0  0  0  0  0  0  0  0
   60.9810   30.6381   51.9312 H   0  0  0  0  0  0  0  0  0  0  0  0
   58.0720   31.0324   52.8131 H   0  0  0  0  0  0  0  0  0  0  0  0
   59.5659   31.3676   53.7710 H   0  0  0  0  0  0  0  0  0  0  0  0
   57.4828   32.3493   51.1103 H   0  0  0  0  0  0  0  0  0  0  0  0
   58.5124   33.7528   50.6233 H   0  0  0  0  0  0  0  0  0  0  0  0
   58.6217   31.7723   49.0418 H   0  0  0  0  0  0  0  0  0  0  0  0
   60.2091   32.2870   49.7182 H   0  0  0  0  0  0  0  0  0  0  0  0
   57.9358   28.0235   46.9731 H   0  0  0  0  0  0  0  0  0  0  0  0
   60.3026   27.7394   44.5383 H   0  0  0  0  0  0  0  0  0  0  0  0
   60.4123   30.2162   44.7927 H   0  0  0  0  0  0  0  0  0  0  0  0
  1  2  2  0
  2  3  1  0
  3  4  2  3
  4  5  1  0
  5  6  2  0
  6  7  1  0
  7  8  1  0
  8  9  2  0
  2 10  1  0
 10 11  1  0
 11 12  2  0
 12 13  1  0
 13 14  2  0
 14 15  1  0
 15 16  2  0
 16 17  1  0
 17 18  2  0
 18 19  1  0
 19 20  2  0
 20 21  1  0
 21 22  1  0
 22 23  2  0
 22 24  2  0
 22 25  1  0
 25 26  1  0
 26 27  2  0
 27 28  1  0
 28 29  2  0
 29 30  1  0
 30 31  1  0
 31 32  1  0
 32 33  1  0
 33 34  1  0
 34 35  1  0
 29 36  1  0
 36 37  2  0
 20 38  1  0
 38 39  2  0
  9  4  1  0
 16 11  1  0
 39 17  1  0
 37 26  1  0
 35 30  1  0
  5 40  1  0
  6 41  1  0
  8 42  1  0
  9 43  1  0
 10 44  1  0
 12 45  1  0
 13 46  1  0
 14 47  1  0
 15 48  1  0
 18 49  1  0
 19 50  1  0
 21 51  1  0
 21 52  1  0
 27 53  1  0
 28 54  1  0
 31 55  1  0
 31 56  1  0
 32 57  1  0
 32 58  1  0
 34 59  1  0
 34 60  1  0
 35 61  1  0
 35 62  1  0
 37 63  1  0
 38 64  1  0
 39 65  1  0
M  CHG  2   7  -1  25  -1
M  END
>  <UniqueID>  (32) 
30

>  <SMILES>  (32) 
O=C(N=c1cc[n-]cc1)Nc1ccccc1-c1ccc(CS(=O)(=O)[N-]c2ccc(N3CCOCC3)nc2)cc1

>  <Energy>  (32) 
98.99772798731213

>  <Genealogy>  (32) 
O=C(N=c1cc[n-]cc1)Nc1ccccc1-c1ccc(CS(=O)(=O)[N-]c2ccc(N3CCOCC3)nc2)cc1 (protonated)
O=C(N=c1cc[n-]cc1)Nc1ccccc1-c1ccc(CS(=O)(=O)[N-]c2ccc(N3CCOCC3)nc2)cc1 (3D coordinates assigned)
O=C(N=c1cc[n-]cc1)Nc1ccccc1-c1ccc(CS(=O)(=O)[N-]c2ccc(N3CCOCC3)nc2)cc1 (nonaromatic ring conformer: 98.99772798731213 kcal/mol)

>  <smiles>  (32) 
O=C(N=c1cc[nH]cc1)Nc1ccccc1-c1ccc(CS(=O)(=O)Nc2ccc(N3CCOCC3)nc2)cc1

>  <score_type>  (32) 
oracle

>  <origin>  (32) 
adg

>  <m_score__min__energy>  (32) 
-12.279999999999999

>  <m_primary>  (32) 
energy

$$$$
32:0
     RDKit          3D

 41 43  0  0  0  0  0  0  0  0999 V2000
   59.0941   32.2938   47.2368 H   0  0  0  0  0  0  0  0  0  0  0  0
   58.6400   32.3060   46.2350 C   0  0  0  0  0  0  0  0  0  0  0  0
   57.9000   31.2060   45.7940 C   0  0  0  0  0  0  0  0  0  0  0  0
   57.7773   30.3301   46.4480 H   0  0  0  0  0  0  0  0  0  0  0  0
   57.3140   31.2150   44.5220 C   0  0  0  0  0  0  0  0  0  0  0  0
   56.3980   29.8160   43.9720 S   0  0  0  0  0  0  0  0  0  0  0  0
   55.9110   30.0160   42.5640 O   0  0  0  0  0  0  0  0  0  0  0  0
   55.2090   29.6340   44.8730 O   0  0  0  0  0  0  0  0  0  0  0  0
   57.3870   28.3910   44.0370 N   0  0  0  0  0  0  0  0  0  0  0  0
   57.0330   27.5380   43.5500 H   0  0  0  0  0  0  0  0  0  0  0  0
   58.5300   28.3350   44.6600 C   0  0  0  0  0  0  0  0  0  0  0  0
   59.6380   29.1190   44.2700 N   0  0  0  0  0  0  0  0  0  0  0  0
   59.6530   29.7720   43.4550 H   0  0  0  0  0  0  0  0  0  0  0  0
   60.7800   28.8320   45.1120 C   0  0  0  0  0  0  0  0  0  0  0  0
   61.1500   29.7555   45.5812 H   0  0  0  0  0  0  0  0  0  0  0  0
   61.6105   28.4047   44.5309 H   0  0  0  0  0  0  0  0  0  0  0  0
   60.2820   27.8500   46.1860 C   0  0  0  0  0  0  0  0  0  0  0  0
   60.3004   28.3325   47.1743 H   0  0  0  0  0  0  0  0  0  0  0  0
   60.9271   26.9600   46.2279 H   0  0  0  0  0  0  0  0  0  0  0  0
   58.8430   27.4600   45.8190 C   0  0  0  0  0  0  0  0  0  0  0  0
   58.1570   27.6563   46.6562 H   0  0  0  0  0  0  0  0  0  0  0  0
   58.7352   26.3898   45.5886 H   0  0  0  0  0  0  0  0  0  0  0  0
   57.4630   32.3380   43.6980 C   0  0  0  0  0  0  0  0  0  0  0  0
   56.9965   32.3531   42.7019 H   0  0  0  0  0  0  0  0  0  0  0  0
   58.2030   33.4400   44.1380 C   0  0  0  0  0  0  0  0  0  0  0  0
   58.3125   34.3208   43.4883 H   0  0  0  0  0  0  0  0  0  0  0  0
   58.8070   33.4270   45.4060 C   0  0  0  0  0  0  0  0  0  0  0  0
   59.5710   34.6250   45.8960 C   0  0  0  0  0  0  0  0  0  0  0  0
   58.9052   35.2592   46.4997 H   0  0  0  0  0  0  0  0  0  0  0  0
   59.9449   35.1922   45.0309 H   0  0  0  0  0  0  0  0  0  0  0  0
   60.7320   34.1870   46.7340 C   0  0  0  0  0  0  0  0  0  0  0  0
   61.8310   33.7150   46.2370 N   0  0  0  0  0  0  0  0  0  0  0  0
   62.6400   33.3670   47.3630 C   0  0  0  0  0  0  0  0  0  0  0  0
   63.8190   32.9380   47.2530 O   0  0  0  0  0  0  0  0  0  0  0  0
   61.9950   33.5770   48.6160 N   0  0  0  0  0  0  0  0  0  0  0  0
   62.6590   33.8310   49.8880 C   0  0  0  0  0  0  0  0  0  0  0  0
   61.9805   33.5715   50.7140 H   0  0  0  0  0  0  0  0  0  0  0  0
   63.5697   33.2178   49.9551 H   0  0  0  0  0  0  0  0  0  0  0  0
   62.9280   34.8955   49.9551 H   0  0  0  0  0  0  0  0  0  0  0  0
   60.7680   34.1480   48.1910 C   0  0  0  0  0  0  0  0  0  0  0  0
   59.8760   34.5790   48.9680 O   0  0  0  0  0  0  0  0  0  0  0  0
  1  2  1  0
  2  3  2  0
  3  4  1  0
  3  5  1  0
  5  6  1  0
  6  7  2  0
  6  8  2  0
  6  9  1  0
  9 10  1  0
  9 11  2  0
 11 12  1  0
 12 13  1  0
 12 14  1  0
 14 15  1  0
 14 16  1  0
 14 17  1  0
 17 18  1  0
 17 19  1  0
 17 20  1  0
 20 21  1  0
 20 22  1  0
  5 23  2  0
 23 24  1  0
 23 25  1  0
 25 26  1  0
 25 27  2  0
 27 28  1  0
 28 29  1  0
 28 30  1  0
 28 31  1  0
 31 32  2  0
 32 33  1  0
 33 34  2  0
 33 35  1  0
 35 36  1  0
 36 37  1  0
 36 38  1  0
 36 39  1  0
 35 40  1  0
 40 41  2  0
 27  2  1  0
 40 31  1  0
 20 11  1  0
M  CHG  1   9   1
M  END
>  <UniqueID>  (33) 
31

>  <SMILES>  (33) 
CN1C(=O)N=C(Cc2ccc(S(=O)(=O)/[NH+]=C3\CCCN3)cc2)C1=O

>  <Energy>  (33) 
75.10522291428309

>  <Genealogy>  (33) 
CN1C(=O)N=C(Cc2ccc(S(=O)(=O)[NH+]=C3CCCN3)cc2)C1=O (protonated)
CN1C(=O)N=C(Cc2ccc(S(=O)(=O)/[NH+]=C3\CCCN3)cc2)C1=O (cis-trans isomerization)
CN1C(=O)N=C(Cc2ccc(S(=O)(=O)/[NH+]=C3\CCCN3)cc2)C1=O (3D coordinates assigned)
CN1C(=O)N=C(Cc2ccc(S(=O)(=O)/[NH+]=C3\CCCN3)cc2)C1=O (nonaromatic ring conformer: 75.10522291428309 kcal/mol)

>  <smiles>  (33) 
CN1C(=O)N=C(Cc2ccc(S(=O)(=O)N=C3CCCN3)cc2)C1=O

>  <score_type>  (33) 
oracle

>  <origin>  (33) 
adg

>  <m_score__min__energy>  (33) 
-7.9100000000000001

>  <m_primary>  (33) 
energy

$$$$
33:0
     RDKit          3D

 57 59  0  0  0  0  0  0  0  0999 V2000
   55.1450   26.6070   46.0060 O   0  0  0  0  0  0  0  0  0  0  0  0
   55.9970   25.7490   46.3670 C   0  0  0  0  0  0  0  0  0  0  0  0
   57.4460   25.9650   46.0680 C   0  0  0  0  0  0  0  0  0  0  0  0
   57.7510   27.3900   46.1280 N   0  0  0  0  0  0  0  0  0  0  0  0
   58.7180   28.0350   45.2790 C   0  0  0  0  0  0  0  0  0  0  0  0
   59.7990   28.4840   45.7590 O   0  0  0  0  0  0  0  0  0  0  0  0
   58.4470   28.1620   43.8110 C   0  0  0  0  0  0  0  0  0  0  0  0
   57.3510   29.0970   43.5830 N   0  0  0  0  0  0  0  0  0  0  0  0
   56.7750   29.9160   44.6100 C   0  0  0  0  0  0  0  0  0  0  0  0
   55.5960   29.6920   45.0020 O   0  0  0  0  0  0  0  0  0  0  0  0
   57.5700   31.0000   45.2310 C   0  0  0  0  0  0  0  0  0  0  0  0
   57.7860   32.2120   44.5430 C   0  0  0  0  0  0  0  0  0  0  0  0
   58.5010   33.2490   45.1480 C   0  0  0  0  0  0  0  0  0  0  0  0
   59.0160   33.0930   46.4420 C   0  0  0  0  0  0  0  0  0  0  0  0
   59.8620   34.4380   47.2090 S   0  0  0  0  0  0  0  0  0  0  0  0
   59.6560   35.6950   46.4070 O   0  0  0  0  0  0  0  0  0  0  0  0
   59.2730   34.6470   48.5780 O   0  0  0  0  0  0  0  0  0  0  0  0
   61.5690   34.0710   47.3590 N   0  0  0  0  0  0  0  0  0  0  0  0
   62.0480   34.2410   48.7430 C   0  0  0  0  0  0  0  0  0  0  0  0
   61.5610   33.1060   49.6760 C   0  0  0  0  0  0  0  0  0  0  0  0
   61.1310   31.9450   48.9840 O   0  0  0  0  0  0  0  0  0  0  0  0
   62.0060   31.6560   47.9160 C   0  0  0  0  0  0  0  0  0  0  0  0
   61.8940   32.7310   46.8170 C   0  0  0  0  0  0  0  0  0  0  0  0
   58.8070   31.8890   47.1330 C   0  0  0  0  0  0  0  0  0  0  0  0
   58.0980   30.8460   46.5280 C   0  0  0  0  0  0  0  0  0  0  0  0
   55.5900   24.5800   47.0840 N   0  0  0  0  0  0  0  0  0  0  0  0
   56.1920   23.2630   46.9090 C   0  0  0  0  0  0  0  0  0  0  0  0
   56.3080   22.9330   45.4380 C   0  0  0  0  0  0  0  0  0  0  0  0
   57.4260   22.1770   45.0270 C   0  0  0  0  0  0  0  0  0  0  0  0
   57.5980   21.8310   43.6870 C   0  0  0  0  0  0  0  0  0  0  0  0
   56.6540   22.2310   42.7370 C   0  0  0  0  0  0  0  0  0  0  0  0
   55.5300   22.9640   43.1260 C   0  0  0  0  0  0  0  0  0  0  0  0
   55.3370   23.3160   44.4680 C   0  0  0  0  0  0  0  0  0  0  0  0
   54.1800   24.0360   44.7800 O   0  0  0  0  0  0  0  0  0  0  0  0
   58.0566   25.4284   46.8091 H   0  0  0  0  0  0  0  0  0  0  0  0
   57.6716   25.5853   45.0606 H   0  0  0  0  0  0  0  0  0  0  0  0
   59.3512   28.5308   43.3046 H   0  0  0  0  0  0  0  0  0  0  0  0
   58.1690   27.1764   43.4095 H   0  0  0  0  0  0  0  0  0  0  0  0
   57.3897   32.3416   43.5251 H   0  0  0  0  0  0  0  0  0  0  0  0
   58.6604   34.1927   44.6058 H   0  0  0  0  0  0  0  0  0  0  0  0
   63.1480   34.2479   48.7384 H   0  0  0  0  0  0  0  0  0  0  0  0
   61.6423   35.1891   49.1258 H   0  0  0  0  0  0  0  0  0  0  0  0
   62.3891   32.8258   50.3437 H   0  0  0  0  0  0  0  0  0  0  0  0
   60.6910   33.4931   50.2266 H   0  0  0  0  0  0  0  0  0  0  0  0
   63.0393   31.6298   48.2922 H   0  0  0  0  0  0  0  0  0  0  0  0
   61.7324   30.6806   47.4873 H   0  0  0  0  0  0  0  0  0  0  0  0
   62.8543   32.7905   46.2837 H   0  0  0  0  0  0  0  0  0  0  0  0
   61.0737   32.4361   46.1461 H   0  0  0  0  0  0  0  0  0  0  0  0
   59.2016   31.7656   48.1523 H   0  0  0  0  0  0  0  0  0  0  0  0
   57.9517   29.8992   47.0685 H   0  0  0  0  0  0  0  0  0  0  0  0
   57.1942   23.2584   47.3625 H   0  0  0  0  0  0  0  0  0  0  0  0
   55.5556   22.5099   47.3966 H   0  0  0  0  0  0  0  0  0  0  0  0
   58.1700   21.8571   45.7714 H   0  0  0  0  0  0  0  0  0  0  0  0
   58.4755   21.2440   43.3781 H   0  0  0  0  0  0  0  0  0  0  0  0
   56.7966   21.9676   41.6786 H   0  0  0  0  0  0  0  0  0  0  0  0
   54.7896   23.2676   42.3713 H   0  0  0  0  0  0  0  0  0  0  0  0
   54.1360   24.7490   45.4950 H   0  0  0  0  0  0  0  0  0  0  0  0
  1  2  2  0
  2  3  1  0
  3  4  1  0
  4  5  1  0
  5  6  2  0
  5  7  1  0
  7  8  1  0
  8  9  1  0
  9 10  2  0
  9 11  1  0
 11 12  2  0
 12 13  1  0
 13 14  2  0
 14 15  1  0
 15 16  2  0
 15 17  2  0
 15 18  1  0
 18 19  1  0
 19 20  1  0
 20 21  1  0
 21 22  1  0
 22 23  1  0
 14 24  1  0
 24 25  2  0
  2 26  1  0
 26 27  1  0
 27 28  1  0
 28 29  2  0
 29 30  1  0
 30 31  2  0
 31 32  1  0
 32 33  2  0
 33 34  1  0
 25 11  1  0
 33 28  1  0
 23 18  1  0
  3 35  1  0
  3 36  1  0
  7 37  1  0
  7 38  1  0
 12 39  1  0
 13 40  1  0
 19 41  1  0
 19 42  1  0
 20 43  1  0
 20 44  1  0
 22 45  1  0
 22 46  1  0
 23 47  1  0
 23 48  1  0
 24 49  1  0
 25 50  1  0
 27 51  1  0
 27 52  1  0
 29 53  1  0
 30 54  1  0
 31 55  1  0
 32 56  1  0
 34 57  1  0
M  CHG  3   4  -1   8  -1  26  -1
M  END
>  <UniqueID>  (34) 
32

>  <SMILES>  (34) 
O=C(C[N-]C(=O)C[N-]C(=O)c1ccc(S(=O)(=O)N2CCOCC2)cc1)[N-]Cc1ccccc1O

>  <Energy>  (34) 
61.13175051794703

>  <Genealogy>  (34) 
O=C(C[N-]C(=O)C[N-]C(=O)c1ccc(S(=O)(=O)N2CCOCC2)cc1)[N-]Cc1ccccc1O (protonated)
O=C(C[N-]C(=O)C[N-]C(=O)c1ccc(S(=O)(=O)N2CCOCC2)cc1)[N-]Cc1ccccc1O (3D coordinates assigned)
O=C(C[N-]C(=O)C[N-]C(=O)c1ccc(S(=O)(=O)N2CCOCC2)cc1)[N-]Cc1ccccc1O (nonaromatic ring conformer: 61.13175051794703 kcal/mol)

>  <smiles>  (34) 
O=C(CNC(=O)CNC(=O)c1ccc(S(=O)(=O)N2CCOCC2)cc1)NCc1ccccc1O

>  <score_type>  (34) 
oracle

>  <origin>  (34) 
adg

>  <m_score__min__energy>  (34) 
-14.699999999999999

>  <m_primary>  (34) 
energy

$$$$
34:0
     RDKit          3D

 24 25  0  0  0  0  0  0  0  0999 V2000
   58.6570   27.1460   43.9580 O   0  0  0  0  0  0  0  0  0  0  0  0
   58.0270   27.7350   44.8750 C   0  0  0  0  0  0  0  0  0  0  0  0
   57.6640   26.9600   46.1110 C   0  0  0  0  0  0  0  0  0  0  0  0
   56.9700   25.6730   45.7420 C   0  0  0  0  0  0  0  0  0  0  0  0
   57.7260   24.5240   45.4530 C   0  0  0  0  0  0  0  0  0  0  0  0
   57.0900   23.3210   45.1350 C   0  0  0  0  0  0  0  0  0  0  0  0
   55.6950   23.2520   45.1070 C   0  0  0  0  0  0  0  0  0  0  0  0
   54.9330   24.3860   45.3960 C   0  0  0  0  0  0  0  0  0  0  0  0
   55.5630   25.5950   45.7150 C   0  0  0  0  0  0  0  0  0  0  0  0
   54.7840   26.7110   46.0030 O   0  0  0  0  0  0  0  0  0  0  0  0
   57.6470   29.1580   44.7230 C   0  0  0  0  0  0  0  0  0  0  0  0
   58.7460   30.4230   44.5120 S   0  0  0  0  0  0  0  0  0  0  0  0
   57.5440   31.5820   44.3760 C   0  0  0  0  0  0  0  0  0  0  0  0
   57.7560   32.8080   44.1920 O   0  0  0  0  0  0  0  0  0  0  0  0
   56.3090   31.0550   44.4860 N   0  0  0  0  0  0  0  0  0  0  0  0
   56.3540   29.7110   44.6840 C   0  0  0  0  0  0  0  0  0  0  0  0
   55.1740   28.9870   44.8550 O   0  0  0  0  0  0  0  0  0  0  0  0
   58.5795   26.7288   46.6753 H   0  0  0  0  0  0  0  0  0  0  0  0
   56.9835   27.5679   46.7253 H   0  0  0  0  0  0  0  0  0  0  0  0
   58.8247   24.5719   45.4773 H   0  0  0  0  0  0  0  0  0  0  0  0
   57.6887   22.4270   44.9064 H   0  0  0  0  0  0  0  0  0  0  0  0
   55.1965   22.3038   44.8571 H   0  0  0  0  0  0  0  0  0  0  0  0
   53.8347   24.3292   45.3730 H   0  0  0  0  0  0  0  0  0  0  0  0
   55.1430   27.9780   44.8780 H   0  0  0  0  0  0  0  0  0  0  0  0
  1  2  2  0
  2  3  1  0
  3  4  1  0
  4  5  2  0
  5  6  1  0
  6  7  2  0
  7  8  1  0
  8  9  2  0
  9 10  1  0
  2 11  1  0
 11 12  1  0
 12 13  1  0
 13 14  2  0
 13 15  1  0
 15 16  1  0
 16 17  1  0
  9  4  1  0
 16 11  2  0
  3 18  1  0
  3 19  1  0
  5 20  1  0
  6 21  1  0
  7 22  1  0
  8 23  1  0
 17 24  1  0
M  CHG  2  10  -1  15  -1
M  END
>  <UniqueID>  (35) 
33

>  <SMILES>  (35) 
O=C(Cc1ccccc1[O-])c1sc(=O)[n-]c1O

>  <Energy>  (35) 
56.67477275657738

>  <Genealogy>  (35) 
O=C(Cc1ccccc1[O-])c1sc(=O)[n-]c1O (protonated)
O=C(Cc1ccccc1[O-])c1sc(=O)[n-]c1O (3D coordinates assigned)
O=C(Cc1ccccc1[O-])c1sc(=O)[n-]c1O (optimized conformer: 56.67477275657738 kcal/mol)

>  <smiles>  (35) 
O=C(Cc1ccccc1O)c1sc(=O)[nH]c1O

>  <score_type>  (35) 
oracle

>  <origin>  (35) 
adg

>  <m_score__min__energy>  (35) 
-13.109999999999999

>  <m_primary>  (35) 
energy

$$$$
35:0
     RDKit          3D

 40 42  0  0  0  0  0  0  0  0999 V2000
   56.6760   29.0380   45.3340 O   0  0  0  0  0  0  0  0  0  0  0  0
   57.2460   28.1910   46.0750 C   0  0  0  0  0  0  0  0  0  0  0  0
   58.4540   28.5430   46.7710 N   0  0  0  0  0  0  0  0  0  0  0  0
   58.9150   29.8940   46.9470 C   0  0  0  0  0  0  0  0  0  0  0  0
   59.5100   30.3170   48.1500 C   0  0  0  0  0  0  0  0  0  0  0  0
   59.9730   31.6290   48.2850 C   0  0  0  0  0  0  0  0  0  0  0  0
   59.8650   32.5310   47.2190 C   0  0  0  0  0  0  0  0  0  0  0  0
   60.4670   34.1840   47.3870 S   0  0  0  0  0  0  0  0  0  0  0  0
   60.2350   34.9270   46.1000 O   0  0  0  0  0  0  0  0  0  0  0  0
   59.7010   34.8830   48.4740 O   0  0  0  0  0  0  0  0  0  0  0  0
   62.1750   34.2130   47.7680 N   0  0  0  0  0  0  0  0  0  0  0  0
   62.9630   33.3990   46.8170 C   0  0  0  0  0  0  0  0  0  0  0  0
   63.4210   32.0670   47.4370 C   0  0  0  0  0  0  0  0  0  0  0  0
   64.2100   32.2340   48.6070 O   0  0  0  0  0  0  0  0  0  0  0  0
   63.8440   33.3640   49.3900 C   0  0  0  0  0  0  0  0  0  0  0  0
   62.3950   33.8330   49.1770 C   0  0  0  0  0  0  0  0  0  0  0  0
   59.2820   32.1100   46.0160 C   0  0  0  0  0  0  0  0  0  0  0  0
   58.8200   30.7980   45.8790 C   0  0  0  0  0  0  0  0  0  0  0  0
   56.6870   26.8270   46.1930 C   0  0  0  0  0  0  0  0  0  0  0  0
   57.4770   25.7550   46.6370 C   0  0  0  0  0  0  0  0  0  0  0  0
   56.8960   24.4880   46.7240 C   0  0  0  0  0  0  0  0  0  0  0  0
   57.5780   23.5060   47.1200 O   0  0  0  0  0  0  0  0  0  0  0  0
   55.5950   24.3130   46.3810 N   0  0  0  0  0  0  0  0  0  0  0  0
   54.8410   25.3580   45.9510 C   0  0  0  0  0  0  0  0  0  0  0  0
   53.6370   25.1770   45.6360 O   0  0  0  0  0  0  0  0  0  0  0  0
   55.3870   26.5980   45.8590 N   0  0  0  0  0  0  0  0  0  0  0  0
   59.0830   27.7720   47.0910 H   0  0  0  0  0  0  0  0  0  0  0  0
   59.6112   29.6118   48.9882 H   0  0  0  0  0  0  0  0  0  0  0  0
   60.4246   31.9548   49.2336 H   0  0  0  0  0  0  0  0  0  0  0  0
   62.3424   33.1847   45.9344 H   0  0  0  0  0  0  0  0  0  0  0  0
   63.8612   33.9721   46.5435 H   0  0  0  0  0  0  0  0  0  0  0  0
   62.5292   31.4785   47.6983 H   0  0  0  0  0  0  0  0  0  0  0  0
   64.0487   31.5586   46.6903 H   0  0  0  0  0  0  0  0  0  0  0  0
   63.9705   33.1044   50.4514 H   0  0  0  0  0  0  0  0  0  0  0  0
   64.4951   34.1926   49.0747 H   0  0  0  0  0  0  0  0  0  0  0  0
   61.7077   33.0164   49.4429 H   0  0  0  0  0  0  0  0  0  0  0  0
   62.2082   34.7097   49.8146 H   0  0  0  0  0  0  0  0  0  0  0  0
   59.1877   32.8147   45.1766 H   0  0  0  0  0  0  0  0  0  0  0  0
   58.3783   30.4719   44.9258 H   0  0  0  0  0  0  0  0  0  0  0  0
   58.5312   25.9096   46.9106 H   0  0  0  0  0  0  0  0  0  0  0  0
  1  2  2  0
  2  3  1  0
  3  4  1  0
  4  5  2  0
  5  6  1  0
  6  7  2  0
  7  8  1  0
  8  9  2  0
  8 10  2  0
  8 11  1  0
 11 12  1  0
 12 13  1  0
 13 14  1  0
 14 15  1  0
 15 16  1  0
  7 17  1  0
 17 18  2  0
  2 19  1  0
 19 20  2  0
 20 21  1  0
 21 22  2  0
 21 23  1  0
 23 24  1  0
 24 25  2  0
 24 26  1  0
 18  4  1  0
 26 19  1  0
 16 11  1  0
  3 27  1  0
  5 28  1  0
  6 29  1  0
 12 30  1  0
 12 31  1  0
 13 32  1  0
 13 33  1  0
 15 34  1  0
 15 35  1  0
 16 36  1  0
 16 37  1  0
 17 38  1  0
 18 39  1  0
 20 40  1  0
M  CHG  2  23  -1  26  -1
M  END
>  <UniqueID>  (36) 
34

>  <SMILES>  (36) 
O=C(Nc1ccc(S(=O)(=O)N2CCOCC2)cc1)c1cc(=O)[n-]c(=O)[n-]1

>  <Energy>  (36) 
58.43741613260765

>  <Genealogy>  (36) 
O=C(Nc1ccc(S(=O)(=O)N2CCOCC2)cc1)c1cc(=O)[n-]c(=O)[n-]1 (protonated)
O=C(Nc1ccc(S(=O)(=O)N2CCOCC2)cc1)c1cc(=O)[n-]c(=O)[n-]1 (3D coordinates assigned)
O=C(Nc1ccc(S(=O)(=O)N2CCOCC2)cc1)c1cc(=O)[n-]c(=O)[n-]1 (nonaromatic ring conformer: 58.43741613260765 kcal/mol)

>  <smiles>  (36) 
O=C(Nc1ccc(S(=O)(=O)N2CCOCC2)cc1)c1cc(=O)[nH]c(=O)[nH]1

>  <score_type>  (36) 
oracle

>  <origin>  (36) 
adg

>  <m_score__min__energy>  (36) 
-11.949999999999999

>  <m_primary>  (36) 
energy

$$$$
36:0
     RDKit          3D

 31 33  0  0  0  0  0  0  0  0999 V2000
   52.7757   28.8345   54.4071 H   0  0  0  0  0  0  0  0  0  0  0  0
   53.8410   28.6430   54.2110 C   0  0  0  0  0  0  0  0  0  0  0  0
   54.3545   27.8158   54.7229 H   0  0  0  0  0  0  0  0  0  0  0  0
   54.5120   29.4160   53.3500 C   0  0  0  0  0  0  0  0  0  0  0  0
   54.0110   30.4340   52.5230 C   0  0  0  0  0  0  0  0  0  0  0  0
   52.7950   31.0120   52.4660 C   0  0  0  0  0  0  0  0  0  0  0  0
   52.3851   31.4137   53.4044 H   0  0  0  0  0  0  0  0  0  0  0  0
   51.9690   31.1520   51.2580 C   0  0  0  0  0  0  0  0  0  0  0  0
   51.9810   30.2720   50.2420 N   0  0  0  0  0  0  0  0  0  0  0  0
   51.1940   30.8570   49.3130 C   0  0  0  0  0  0  0  0  0  0  0  0
   50.9430   30.3200   48.2030 O   0  0  0  0  0  0  0  0  0  0  0  0
   50.7060   32.0670   49.6620 N   0  0  0  0  0  0  0  0  0  0  0  0
   51.2190   32.2460   50.8900 C   0  0  0  0  0  0  0  0  0  0  0  0
   51.0270   33.3970   51.6460 O   0  0  0  0  0  0  0  0  0  0  0  0
   55.0600   30.8060   51.6950 C   0  0  0  0  0  0  0  0  0  0  0  0
   55.0328   31.5607   50.8952 H   0  0  0  0  0  0  0  0  0  0  0  0
   56.1420   30.0430   52.0730 C   0  0  0  0  0  0  0  0  0  0  0  0
   57.4160   30.1540   51.5040 O   0  0  0  0  0  0  0  0  0  0  0  0
   58.1570   31.3410   51.4250 C   0  0  0  0  0  0  0  0  0  0  0  0
   59.1930   31.4260   50.4870 C   0  0  0  0  0  0  0  0  0  0  0  0
   59.4018   30.5734   49.8241 H   0  0  0  0  0  0  0  0  0  0  0  0
   59.9640   32.5890   50.3880 C   0  0  0  0  0  0  0  0  0  0  0  0
   60.7689   32.6530   49.6410 H   0  0  0  0  0  0  0  0  0  0  0  0
   59.7120   33.6700   51.2380 C   0  0  0  0  0  0  0  0  0  0  0  0
   60.3140   34.5869   51.1547 H   0  0  0  0  0  0  0  0  0  0  0  0
   58.6950   33.5860   52.1940 C   0  0  0  0  0  0  0  0  0  0  0  0
   58.4550   34.6540   53.0490 O   0  0  0  0  0  0  0  0  0  0  0  0
   57.9220   32.4240   52.2930 C   0  0  0  0  0  0  0  0  0  0  0  0
   57.1282   32.3565   53.0515 H   0  0  0  0  0  0  0  0  0  0  0  0
   55.8190   29.2130   53.0830 N   0  0  0  0  0  0  0  0  0  0  0  0
   56.4530   28.5360   53.5620 H   0  0  0  0  0  0  0  0  0  0  0  0
  1  2  1  0
  2  3  1  0
  2  4  2  0
  4  5  1  0
  5  6  2  0
  6  7  1  0
  6  8  1  0
  8  9  1  0
  9 10  1  0
 10 11  2  0
 10 12  1  0
 12 13  1  0
 13 14  1  0
  5 15  1  0
 15 16  1  0
 15 17  2  0
 17 18  1  0
 18 19  1  0
 19 20  2  0
 20 21  1  0
 20 22  1  0
 22 23  1  0
 22 24  2  0
 24 25  1  0
 24 26  1  0
 26 27  1  0
 26 28  2  0
 28 29  1  0
 17 30  1  0
 30 31  1  0
 30  4  1  0
 13  8  2  0
 28 19  1  0
M  CHG  4   9  -1  12  -1  14  -1  27  -1
M  END
>  <UniqueID>  (37) 
35

>  <SMILES>  (37) 
C=c1[nH]c(Oc2cccc([O-])c2)c/c1=C/c1[n-]c(=O)[n-]c1[O-]

>  <Energy>  (37) 
107.24111171050272

>  <Genealogy>  (37) 
C=c1[nH]c(Oc2cccc([O-])c2)cc1=Cc1[n-]c(=O)[n-]c1[O-] (protonated)
C=c1[nH]c(Oc2cccc([O-])c2)c/c1=C/c1[n-]c(=O)[n-]c1[O-] (cis-trans isomerization)
C=c1[nH]c(Oc2cccc([O-])c2)c/c1=C/c1[n-]c(=O)[n-]c1[O-] (3D coordinates assigned)
C=c1[nH]c(Oc2cccc([O-])c2)c/c1=C/c1[n-]c(=O)[n-]c1[O-] (optimized conformer: 107.24111171050272 kcal/mol)

>  <smiles>  (37) 
C=c1[nH]c(Oc2cccc(O)c2)cc1=Cc1[nH]c(=O)[nH]c1O

>  <score_type>  (37) 
oracle

>  <origin>  (37) 
adg

>  <m_score__min__energy>  (37) 
-16.739999999999998

>  <m_primary>  (37) 
energy

$$$$
37:0
     RDKit          3D

 41 43  0  0  0  0  0  0  0  0999 V2000
   55.0950   26.4910   46.0350 N   0  0  0  0  0  0  0  0  0  0  0  0
   56.5850   25.6200   46.1370 S   0  0  0  0  0  0  0  0  0  0  0  0
   56.4460   24.5480   47.1820 O   0  0  0  0  0  0  0  0  0  0  0  0
   56.8880   24.9750   44.8140 O   0  0  0  0  0  0  0  0  0  0  0  0
   57.8920   26.7330   46.5650 C   0  0  0  0  0  0  0  0  0  0  0  0
   58.8700   26.3240   47.4880 C   0  0  0  0  0  0  0  0  0  0  0  0
   59.9030   27.1880   47.8550 C   0  0  0  0  0  0  0  0  0  0  0  0
   59.9760   28.4660   47.3030 C   0  0  0  0  0  0  0  0  0  0  0  0
   59.0150   28.8860   46.3820 C   0  0  0  0  0  0  0  0  0  0  0  0
   57.9590   28.0340   46.0160 C   0  0  0  0  0  0  0  0  0  0  0  0
   56.9830   28.4900   45.0030 C   0  0  0  0  0  0  0  0  0  0  0  0
   57.2780   29.2810   43.9610 C   0  0  0  0  0  0  0  0  0  0  0  0
   57.4390   30.7480   44.0220 C   0  0  0  0  0  0  0  0  0  0  0  0
   57.4990   31.4840   45.1840 C   0  0  0  0  0  0  0  0  0  0  0  0
   57.7130   32.7780   44.7490 C   0  0  0  0  0  0  0  0  0  0  0  0
   57.7810   34.0010   45.5730 C   0  0  0  0  0  0  0  0  0  0  0  0
   58.6110   34.1990   46.6080 C   0  0  0  0  0  0  0  0  0  0  0  0
   59.9330   33.5580   46.7780 C   0  0  0  0  0  0  0  0  0  0  0  0
   60.0040   32.2620   47.3070 C   0  0  0  0  0  0  0  0  0  0  0  0
   61.2450   31.6480   47.5060 C   0  0  0  0  0  0  0  0  0  0  0  0
   62.4260   32.3310   47.1980 C   0  0  0  0  0  0  0  0  0  0  0  0
   63.6540   31.7060   47.3980 O   0  0  0  0  0  0  0  0  0  0  0  0
   62.3620   33.6380   46.6980 C   0  0  0  0  0  0  0  0  0  0  0  0
   61.1230   34.2540   46.4990 C   0  0  0  0  0  0  0  0  0  0  0  0
   57.7560   32.8000   43.4030 N   0  0  0  0  0  0  0  0  0  0  0  0
   57.6060   31.5610   42.9600 N   0  0  0  0  0  0  0  0  0  0  0  0
   55.1470   27.0860   45.1790 H   0  0  0  0  0  0  0  0  0  0  0  0
   58.8209   25.3155   47.9244 H   0  0  0  0  0  0  0  0  0  0  0  0
   60.6611   26.8598   48.5813 H   0  0  0  0  0  0  0  0  0  0  0  0
   60.7919   29.1442   47.5936 H   0  0  0  0  0  0  0  0  0  0  0  0
   59.0847   29.8907   45.9396 H   0  0  0  0  0  0  0  0  0  0  0  0
   55.9404   28.1565   45.1119 H   0  0  0  0  0  0  0  0  0  0  0  0
   57.4108   28.7982   42.9816 H   0  0  0  0  0  0  0  0  0  0  0  0
   57.3996   31.1251   46.2190 H   0  0  0  0  0  0  0  0  0  0  0  0
   57.0924   34.8196   45.3164 H   0  0  0  0  0  0  0  0  0  0  0  0
   58.2817   34.8945   47.3940 H   0  0  0  0  0  0  0  0  0  0  0  0
   59.0797   31.7253   47.5668 H   0  0  0  0  0  0  0  0  0  0  0  0
   61.2922   30.6244   47.9061 H   0  0  0  0  0  0  0  0  0  0  0  0
   64.5240   32.1440   47.1170 H   0  0  0  0  0  0  0  0  0  0  0  0
   63.2890   34.1809   46.4614 H   0  0  0  0  0  0  0  0  0  0  0  0
   61.0785   35.2867   46.1229 H   0  0  0  0  0  0  0  0  0  0  0  0
  1  2  1  0
  2  3  2  0
  2  4  2  0
  2  5  1  0
  5  6  2  0
  6  7  1  0
  7  8  2  0
  8  9  1  0
  9 10  2  0
 10 11  1  0
 11 12  2  3
 12 13  1  0
 13 14  2  0
 14 15  1  0
 15 16  1  0
 16 17  2  3
 17 18  1  0
 18 19  2  0
 19 20  1  0
 20 21  2  0
 21 22  1  0
 21 23  1  0
 23 24  2  0
 15 25  2  0
 25 26  1  0
 10  5  1  0
 26 13  1  0
 24 18  1  0
  1 27  1  0
  6 28  1  0
  7 29  1  0
  8 30  1  0
  9 31  1  0
 11 32  1  0
 12 33  1  0
 14 34  1  0
 16 35  1  0
 17 36  1  0
 19 37  1  0
 20 38  1  0
 22 39  1  0
 23 40  1  0
 24 41  1  0
M  CHG  2   1  -1  26  -1
M  END
>  <UniqueID>  (38) 
36

>  <SMILES>  (38) 
[NH-]S(=O)(=O)c1ccccc1C=Cc1cc(C=Cc2ccc(O)cc2)n[n-]1

>  <Energy>  (38) 
89.14589019837581

>  <Genealogy>  (38) 
[NH-]S(=O)(=O)c1ccccc1C=Cc1cc(C=Cc2ccc(O)cc2)n[n-]1 (protonated)
[NH-]S(=O)(=O)c1ccccc1C=Cc1cc(C=Cc2ccc(O)cc2)n[n-]1 (3D coordinates assigned)
[NH-]S(=O)(=O)c1ccccc1C=Cc1cc(C=Cc2ccc(O)cc2)n[n-]1 (optimized conformer: 89.14589019837581 kcal/mol)

>  <smiles>  (38) 
NS(=O)(=O)c1ccccc1C=Cc1cc(C=Cc2ccc(O)cc2)n[nH]1

>  <score_type>  (38) 
oracle

>  <origin>  (38) 
adg

>  <m_score__min__energy>  (38) 
-13.880000000000001

>  <m_primary>  (38) 
energy

$$$$
38:0
     RDKit          3D

 71 71  0  0  0  0  0  0  0  0999 V2000
   57.4518   30.7051   43.1124 H   0  0  0  0  0  0  0  0  0  0  0  0
   57.1740   31.4340   43.8880 C   0  0  0  0  0  0  0  0  0  0  0  0
   56.3060   31.1120   44.7410 O   0  0  0  0  0  0  0  0  0  0  0  0
   59.8160   29.9920   47.0330 C   0  0  0  0  0  0  0  0  0  0  0  0
   58.3831   34.5437   47.7442 H   0  0  0  0  0  0  0  0  0  0  0  0
   62.0740   30.9600   47.6760 C   0  0  0  0  0  0  0  0  0  0  0  0
   63.1380   31.5920   47.1360 C   0  0  0  0  0  0  0  0  0  0  0  0
   61.4045   30.2190   45.7047 H   0  0  0  0  0  0  0  0  0  0  0  0
   58.1280   33.5110   47.4640 C   0  0  0  0  0  0  0  0  0  0  0  0
   56.5467   32.9218   46.2192 H   0  0  0  0  0  0  0  0  0  0  0  0
   57.8330   32.7570   43.8920 C   0  0  0  0  0  0  0  0  0  0  0  0
   63.7588   34.9725   47.4813 H   0  0  0  0  0  0  0  0  0  0  0  0
   63.1930   33.0560   46.9290 C   0  0  0  0  0  0  0  0  0  0  0  0
   62.1290   34.1550   49.9930 C   0  0  0  0  0  0  0  0  0  0  0  0
   62.1665   34.3316   51.0781 H   0  0  0  0  0  0  0  0  0  0  0  0
   60.7990   34.2250   49.3340 C   0  0  0  0  0  0  0  0  0  0  0  0
   60.7551   34.6186   48.3078 H   0  0  0  0  0  0  0  0  0  0  0  0
   63.3030   33.8900   49.3610 C   0  0  0  0  0  0  0  0  0  0  0  0
   57.9322   33.2634   42.9206 H   0  0  0  0  0  0  0  0  0  0  0  0
   58.3760   32.4080   48.4170 C   0  0  0  0  0  0  0  0  0  0  0  0
   59.6470   33.8400   49.9070 C   0  0  0  0  0  0  0  0  0  0  0  0
   59.2034   34.5270   50.6427 H   0  0  0  0  0  0  0  0  0  0  0  0
   63.4290   33.9950   47.8630 C   0  0  0  0  0  0  0  0  0  0  0  0
   58.1045   31.3881   48.1071 H   0  0  0  0  0  0  0  0  0  0  0  0
   57.5930   33.2590   46.2580 C   0  0  0  0  0  0  0  0  0  0  0  0
   64.0070   30.9885   46.8350 H   0  0  0  0  0  0  0  0  0  0  0  0
   61.0760   30.3670   46.7440 C   0  0  0  0  0  0  0  0  0  0  0  0
   58.3260   33.4070   44.9700 C   0  0  0  0  0  0  0  0  0  0  0  0
   59.1481   30.7723   47.4267 H   0  0  0  0  0  0  0  0  0  0  0  0
   58.9140   32.5740   49.6420 C   0  0  0  0  0  0  0  0  0  0  0  0
   63.0230   33.4145   45.9030 H   0  0  0  0  0  0  0  0  0  0  0  0
   59.2290   28.6260   46.8750 C   0  0  0  0  0  0  0  0  0  0  0  0
   59.3900   27.6860   47.8490 C   0  0  0  0  0  0  0  0  0  0  0  0
   60.2940   27.9130   49.0440 C   0  0  0  0  0  0  0  0  0  0  0  0
   59.7196   27.7688   49.9709 H   0  0  0  0  0  0  0  0  0  0  0  0
   61.1280   27.1964   49.0142 H   0  0  0  0  0  0  0  0  0  0  0  0
   60.6905   28.9386   49.0142 H   0  0  0  0  0  0  0  0  0  0  0  0
   58.6920   26.3460   47.7360 C   0  0  0  0  0  0  0  0  0  0  0  0
   59.2045   25.6342   48.3999 H   0  0  0  0  0  0  0  0  0  0  0  0
   57.6418   26.5148   48.0164 H   0  0  0  0  0  0  0  0  0  0  0  0
   58.6770   25.7540   46.3160 C   0  0  0  0  0  0  0  0  0  0  0  0
   59.3935   24.9200   46.2827 H   0  0  0  0  0  0  0  0  0  0  0  0
   57.6427   25.4366   46.1175 H   0  0  0  0  0  0  0  0  0  0  0  0
   59.0510   26.7550   45.2100 C   0  0  0  0  0  0  0  0  0  0  0  0
   60.1433   26.7397   45.0810 H   0  0  0  0  0  0  0  0  0  0  0  0
   58.5197   26.4443   44.2983 H   0  0  0  0  0  0  0  0  0  0  0  0
   58.6130   28.2110   45.5210 C   0  0  0  0  0  0  0  0  0  0  0  0
   59.1160   29.0950   44.3510 C   0  0  0  0  0  0  0  0  0  0  0  0
   59.6221   29.9844   44.7547 H   0  0  0  0  0  0  0  0  0  0  0  0
   59.8220   28.5198   43.7341 H   0  0  0  0  0  0  0  0  0  0  0  0
   58.2608   29.4081   43.7341 H   0  0  0  0  0  0  0  0  0  0  0  0
   57.0710   28.3110   45.5650 C   0  0  0  0  0  0  0  0  0  0  0  0
   56.7347   28.3328   46.6121 H   0  0  0  0  0  0  0  0  0  0  0  0
   56.7486   29.2319   45.0571 H   0  0  0  0  0  0  0  0  0  0  0  0
   56.6324   27.4394   45.0571 H   0  0  0  0  0  0  0  0  0  0  0  0
   59.5580   34.2770   44.8840 C   0  0  0  0  0  0  0  0  0  0  0  0
   59.9053   34.5222   45.8985 H   0  0  0  0  0  0  0  0  0  0  0  0
   60.3510   33.7375   44.3454 H   0  0  0  0  0  0  0  0  0  0  0  0
   59.3148   35.2048   44.3454 H   0  0  0  0  0  0  0  0  0  0  0  0
   64.4700   33.4730   50.2240 C   0  0  0  0  0  0  0  0  0  0  0  0
   64.1952   33.5712   51.2846 H   0  0  0  0  0  0  0  0  0  0  0  0
   64.7302   32.4263   50.0080 H   0  0  0  0  0  0  0  0  0  0  0  0
   65.3346   34.1178   50.0080 H   0  0  0  0  0  0  0  0  0  0  0  0
   58.9140   31.4550   50.6580 C   0  0  0  0  0  0  0  0  0  0  0  0
   59.9511   31.1835   50.9045 H   0  0  0  0  0  0  0  0  0  0  0  0
   58.3955   31.7873   51.5694 H   0  0  0  0  0  0  0  0  0  0  0  0
   58.3955   30.5798   50.2395 H   0  0  0  0  0  0  0  0  0  0  0  0
   61.8650   30.9200   49.1700 C   0  0  0  0  0  0  0  0  0  0  0  0
   62.8226   31.1033   49.6792 H   0  0  0  0  0  0  0  0  0  0  0  0
   61.1412   31.6959   49.4599 H   0  0  0  0  0  0  0  0  0  0  0  0
   61.4788   29.9316   49.4599 H   0  0  0  0  0  0  0  0  0  0  0  0
  1  2  1  0
  2  3  2  0
  2  4  1  0
  4  5  1  0
  4  6  2  0
  6  7  1  0
  7  8  1  0
  7  9  2  0
  9 10  1  0
  9 11  1  0
 11 12  1  0
 11 13  2  3
 13 14  1  0
 14 15  1  0
 14 16  2  3
 16 17  1  0
 16 18  1  0
 18 19  1  0
 18 20  2  3
 20 21  1  0
 21 22  1  0
 21 23  2  3
 23 24  1  0
 23 25  1  0
 25 26  1  0
 25 27  2  0
 27 28  1  0
 28 29  1  0
 28 30  2  0
 30 31  1  0
 30 32  1  0
 32 33  2  0
 33 34  1  0
 34 35  1  0
 34 36  1  0
 34 37  1  0
 33 38  1  0
 38 39  1  0
 38 40  1  0
 38 41  1  0
 41 42  1  0
 41 43  1  0
 41 44  1  0
 44 45  1  0
 44 46  1  0
 44 47  1  0
 47 48  1  0
 48 49  1  0
 48 50  1  0
 48 51  1  0
 47 52  1  0
 52 53  1  0
 52 54  1  0
 52 55  1  0
 27 56  1  0
 56 57  1  0
 56 58  1  0
 56 59  1  0
 20 60  1  0
 60 61  1  0
 60 62  1  0
 60 63  1  0
 13 64  1  0
 64 65  1  0
 64 66  1  0
 64 67  1  0
  6 68  1  0
 68 69  1  0
 68 70  1  0
 68 71  1  0
 47 32  1  0
M  END
>  <UniqueID>  (39) 
37

>  <SMILES>  (39) 
CC(C=CC=C(C)/C=C\C1=C(C)CCCC1(C)C)=CC=CC(C)=C/C=C/C(C)=CC=O

>  <Energy>  (39) 
104.74624831779728

>  <Genealogy>  (39) 
CC(C=CC=C(C)/C=C\C1=C(C)CCCC1(C)C)=CC=CC(C)=C/C=C/C(C)=CC=O (cis-trans isomerization)
CC(C=CC=C(C)/C=C\C1=C(C)CCCC1(C)C)=CC=CC(C)=C/C=C/C(C)=CC=O (3D coordinates assigned)
CC(C=CC=C(C)/C=C\C1=C(C)CCCC1(C)C)=CC=CC(C)=C/C=C/C(C)=CC=O (nonaromatic ring conformer: 104.74624831779728 kcal/mol)

>  <smiles>  (39) 
CC(C=CC=C(C)C=CC=C(C)C=CC=C(C)C=CC1=C(C)CCCC1(C)C)=CC=O

>  <score_type>  (39) 
oracle

>  <origin>  (39) 
adg

>  <m_score__min__energy>  (39) 
-8.8900000000000006

>  <m_primary>  (39) 
energy

$$$$
39:0
     RDKit          3D

 47 49  0  0  0  0  0  0  0  0999 V2000
   57.7490   32.9780   46.8280 C   0  0  0  0  0  0  0  0  0  0  0  0
   59.0640   32.2460   46.8570 C   0  0  0  0  0  0  0  0  0  0  0  0
   60.1780   32.8650   47.4530 C   0  0  0  0  0  0  0  0  0  0  0  0
   61.4220   32.2160   47.5110 C   0  0  0  0  0  0  0  0  0  0  0  0
   62.5850   32.8740   48.1510 C   0  0  0  0  0  0  0  0  0  0  0  0
   63.8490   32.2120   48.2180 N   0  0  0  0  0  0  0  0  0  0  0  0
   62.4700   34.0270   48.6490 O   0  0  0  0  0  0  0  0  0  0  0  0
   61.5460   30.9340   46.9550 C   0  0  0  0  0  0  0  0  0  0  0  0
   60.4530   30.3150   46.3460 C   0  0  0  0  0  0  0  0  0  0  0  0
   59.2080   30.9590   46.2840 C   0  0  0  0  0  0  0  0  0  0  0  0
   58.0920   30.2850   45.5840 C   0  0  0  0  0  0  0  0  0  0  0  0
   57.0860   30.9630   45.2410 O   0  0  0  0  0  0  0  0  0  0  0  0
   58.1480   28.8780   45.2690 N   0  0  0  0  0  0  0  0  0  0  0  0
   58.9330   27.9610   46.1130 C   0  0  0  0  0  0  0  0  0  0  0  0
   58.4090   26.5250   46.0010 C   0  0  0  0  0  0  0  0  0  0  0  0
   58.3890   26.0310   44.5350 C   0  0  0  0  0  0  0  0  0  0  0  0
   57.4580   24.8350   44.4130 C   0  0  0  0  0  0  0  0  0  0  0  0
   57.7050   23.9340   43.4190 N   0  0  0  0  0  0  0  0  0  0  0  0
   56.9620   22.8110   43.2440 C   0  0  0  0  0  0  0  0  0  0  0  0
   55.9030   22.5380   44.1040 C   0  0  0  0  0  0  0  0  0  0  0  0
   55.5990   23.4400   45.1200 C   0  0  0  0  0  0  0  0  0  0  0  0
   56.3510   24.6170   45.2810 C   0  0  0  0  0  0  0  0  0  0  0  0
   55.9330   25.5760   46.3300 C   0  0  0  0  0  0  0  0  0  0  0  0
   55.1180   26.6970   45.9890 N   0  0  0  0  0  0  0  0  0  0  0  0
   56.3330   25.4450   47.5190 O   0  0  0  0  0  0  0  0  0  0  0  0
   58.0120   27.1510   43.5230 C   0  0  0  0  0  0  0  0  0  0  0  0
   57.3100   28.3390   44.1870 C   0  0  0  0  0  0  0  0  0  0  0  0
   57.4112   33.1660   47.8578 H   0  0  0  0  0  0  0  0  0  0  0  0
   57.8743   33.9362   46.3025 H   0  0  0  0  0  0  0  0  0  0  0  0
   57.0006   32.3667   46.3025 H   0  0  0  0  0  0  0  0  0  0  0  0
   60.0729   33.8732   47.8803 H   0  0  0  0  0  0  0  0  0  0  0  0
   64.4770   32.1580   47.3840 H   0  0  0  0  0  0  0  0  0  0  0  0
   62.5132   30.4119   46.9993 H   0  0  0  0  0  0  0  0  0  0  0  0
   60.5690   29.3117   45.9101 H   0  0  0  0  0  0  0  0  0  0  0  0
   59.9842   27.9863   45.7901 H   0  0  0  0  0  0  0  0  0  0  0  0
   58.8429   28.2857   47.1601 H   0  0  0  0  0  0  0  0  0  0  0  0
   59.0592   25.8621   46.5908 H   0  0  0  0  0  0  0  0  0  0  0  0
   57.3767   26.5082   46.3806 H   0  0  0  0  0  0  0  0  0  0  0  0
   59.4119   25.7240   44.2714 H   0  0  0  0  0  0  0  0  0  0  0  0
   57.1972   22.1177   42.4230 H   0  0  0  0  0  0  0  0  0  0  0  0
   55.3117   21.6185   43.9824 H   0  0  0  0  0  0  0  0  0  0  0  0
   54.7628   23.2299   45.8031 H   0  0  0  0  0  0  0  0  0  0  0  0
   55.1590   27.1170   45.0350 H   0  0  0  0  0  0  0  0  0  0  0  0
   58.9317   27.5118   43.0393 H   0  0  0  0  0  0  0  0  0  0  0  0
   57.3112   26.7170   42.7946 H   0  0  0  0  0  0  0  0  0  0  0  0
   57.1344   29.1241   43.4368 H   0  0  0  0  0  0  0  0  0  0  0  0
   56.3505   28.0027   44.6068 H   0  0  0  0  0  0  0  0  0  0  0  0
  1  2  1  0
  2  3  2  0
  3  4  1  0
  4  5  1  0
  5  6  1  0
  5  7  2  0
  4  8  2  0
  8  9  1  0
  9 10  2  0
 10 11  1  0
 11 12  2  0
 11 13  1  0
 13 14  1  0
 14 15  1  0
 15 16  1  0
 16 17  1  0
 17 18  2  0
 18 19  1  0
 19 20  2  0
 20 21  1  0
 21 22  2  0
 22 23  1  0
 23 24  1  0
 23 25  2  0
 16 26  1  0
 26 27  1  0
 10  2  1  0
 27 13  1  0
 22 17  1  0
  1 28  1  0
  1 29  1  0
  1 30  1  0
  3 31  1  0
  6 32  1  0
  8 33  1  0
  9 34  1  0
 14 35  1  0
 14 36  1  0
 15 37  1  0
 15 38  1  0
 16 39  1  0
 19 40  1  0
 20 41  1  0
 21 42  1  0
 24 43  1  0
 26 44  1  0
 26 45  1  0
 27 46  1  0
 27 47  1  0
M  CHG  2   6  -1  24  -1
M  END
>  <UniqueID>  (40) 
38

>  <SMILES>  (40) 
Cc1cc(C([NH-])=O)ccc1C(=O)N1CCC(c2ncccc2C([NH-])=O)CC1

>  <Energy>  (40) 
64.20158137419708

>  <Genealogy>  (40) 
Cc1cc(C([NH-])=O)ccc1C(=O)N1CCC(c2ncccc2C([NH-])=O)CC1 (protonated)
Cc1cc(C([NH-])=O)ccc1C(=O)N1CCC(c2ncccc2C([NH-])=O)CC1 (3D coordinates assigned)
Cc1cc(C([NH-])=O)ccc1C(=O)N1CCC(c2ncccc2C([NH-])=O)CC1 (nonaromatic ring conformer: 64.20158137419708 kcal/mol)

>  <smiles>  (40) 
Cc1cc(C(N)=O)ccc1C(=O)N1CCC(c2ncccc2C(N)=O)CC1

>  <score_type>  (40) 
oracle

>  <origin>  (40) 
adg

>  <m_score__min__energy>  (40) 
-12.15

>  <m_primary>  (40) 
energy

$$$$
40:0
     RDKit          3D

 37 39  0  0  0  0  0  0  0  0999 V2000
   58.0780   29.7990   50.6290 O   0  0  0  0  0  0  0  0  0  0  0  0
   58.1320   30.9010   51.2410 C   0  0  0  0  0  0  0  0  0  0  0  0
   59.3200   31.7930   51.0470 C   0  0  0  0  0  0  0  0  0  0  0  0
   59.2080   32.5960   49.7510 C   0  0  0  0  0  0  0  0  0  0  0  0
   58.8730   31.5000   48.3290 S   0  0  0  0  0  0  0  0  0  0  0  0
   58.8790   32.8430   47.1380 C   0  0  0  0  0  0  0  0  0  0  0  0
   59.6410   33.9910   47.3880 C   0  0  0  0  0  0  0  0  0  0  0  0
   59.6510   35.0410   46.4640 C   0  0  0  0  0  0  0  0  0  0  0  0
   58.8980   34.9470   45.2900 C   0  0  0  0  0  0  0  0  0  0  0  0
   58.1330   33.8050   45.0390 C   0  0  0  0  0  0  0  0  0  0  0  0
   58.1200   32.7520   45.9610 C   0  0  0  0  0  0  0  0  0  0  0  0
   57.3750   31.6470   45.7060 F   0  0  0  0  0  0  0  0  0  0  0  0
   57.0940   31.2990   52.1510 N   0  0  0  0  0  0  0  0  0  0  0  0
   55.9610   30.6890   52.3310 C   0  0  0  0  0  0  0  0  0  0  0  0
   54.8510   30.9040   51.5900 N   0  0  0  0  0  0  0  0  0  0  0  0
   53.8170   30.1220   52.0040 C   0  0  0  0  0  0  0  0  0  0  0  0
   52.4640   30.2110   51.3730 C   0  0  0  0  0  0  0  0  0  0  0  0
   51.6550   31.2720   52.0490 C   0  0  0  0  0  0  0  0  0  0  0  0
   51.3690   31.2830   53.3630 N   0  0  0  0  0  0  0  0  0  0  0  0
   50.5760   32.3670   53.5000 C   0  0  0  0  0  0  0  0  0  0  0  0
   50.0980   32.7220   54.6090 O   0  0  0  0  0  0  0  0  0  0  0  0
   50.3290   33.0380   52.3540 N   0  0  0  0  0  0  0  0  0  0  0  0
   51.0140   32.3270   51.4450 C   0  0  0  0  0  0  0  0  0  0  0  0
   51.0490   32.6330   50.0900 O   0  0  0  0  0  0  0  0  0  0  0  0
   54.1000   29.2930   53.0890 C   0  0  0  0  0  0  0  0  0  0  0  0
   55.7070   29.5400   53.5270 S   0  0  0  0  0  0  0  0  0  0  0  0
   59.3867   32.4900   51.8954 H   0  0  0  0  0  0  0  0  0  0  0  0
   60.2200   31.1634   50.9878 H   0  0  0  0  0  0  0  0  0  0  0  0
   58.3869   33.3216   49.8472 H   0  0  0  0  0  0  0  0  0  0  0  0
   60.1622   33.1148   49.5765 H   0  0  0  0  0  0  0  0  0  0  0  0
   60.2325   34.0671   48.3123 H   0  0  0  0  0  0  0  0  0  0  0  0
   60.2517   35.9412   46.6612 H   0  0  0  0  0  0  0  0  0  0  0  0
   58.9077   35.7727   44.5632 H   0  0  0  0  0  0  0  0  0  0  0  0
   57.5400   33.7334   44.1153 H   0  0  0  0  0  0  0  0  0  0  0  0
   52.5744   30.4602   50.3073 H   0  0  0  0  0  0  0  0  0  0  0  0
   51.9515   29.2433   51.4778 H   0  0  0  0  0  0  0  0  0  0  0  0
   53.3970   28.5995   53.5736 H   0  0  0  0  0  0  0  0  0  0  0  0
  1  2  2  0
  2  3  1  0
  3  4  1  0
  4  5  1  0
  5  6  1  0
  6  7  2  0
  7  8  1  0
  8  9  2  0
  9 10  1  0
 10 11  2  0
 11 12  1  0
  2 13  1  0
 13 14  2  3
 14 15  1  0
 15 16  1  0
 16 17  1  0
 17 18  1  0
 18 19  1  0
 19 20  1  0
 20 21  2  0
 20 22  1  0
 22 23  1  0
 23 24  1  0
 16 25  2  0
 25 26  1  0
 11  6  1  0
 26 14  1  0
 23 18  2  0
  3 27  1  0
  3 28  1  0
  4 29  1  0
  4 30  1  0
  7 31  1  0
  8 32  1  0
  9 33  1  0
 10 34  1  0
 17 35  1  0
 17 36  1  0
 25 37  1  0
M  CHG  4  15  -1  19  -1  22  -1  24  -1
M  END
>  <UniqueID>  (41) 
39

>  <SMILES>  (41) 
O=C(CCSc1ccccc1F)N=c1[n-]c(Cc2[n-]c(=O)[n-]c2[O-])cs1

>  <Energy>  (41) 
91.11222959373463

>  <Genealogy>  (41) 
O=C(CCSc1ccccc1F)N=c1[n-]c(Cc2[n-]c(=O)[n-]c2[O-])cs1 (protonated)
O=C(CCSc1ccccc1F)N=c1[n-]c(Cc2[n-]c(=O)[n-]c2[O-])cs1 (3D coordinates assigned)
O=C(CCSc1ccccc1F)N=c1[n-]c(Cc2[n-]c(=O)[n-]c2[O-])cs1 (optimized conformer: 91.11222959373463 kcal/mol)

>  <smiles>  (41) 
O=C(CCSc1ccccc1F)N=c1[nH]c(Cc2[nH]c(=O)[nH]c2O)cs1

>  <score_type>  (41) 
oracle

>  <origin>  (41) 
adg

>  <m_score__min__energy>  (41) 
-18.690000000000001

>  <m_primary>  (41) 
energy

$$$$
41:0
     RDKit          3D

 58 61  0  0  0  0  0  0  0  0999 V2000
   58.5530   28.4930   47.7620 C   0  0  0  0  0  0  0  0  0  0  0  0
   58.1250   29.0550   46.6260 C   0  0  0  0  0  0  0  0  0  0  0  0
   58.0110   30.3920   46.4900 N   0  0  0  0  0  0  0  0  0  0  0  0
   57.7150   30.6340   45.1990 C   0  0  0  0  0  0  0  0  0  0  0  0
   57.4510   32.0060   44.6440 C   0  0  0  0  0  0  0  0  0  0  0  0
   58.4620   33.0090   45.1430 C   0  0  0  0  0  0  0  0  0  0  0  0
   58.2960   34.3780   44.8750 C   0  0  0  0  0  0  0  0  0  0  0  0
   59.2260   35.3070   45.3490 C   0  0  0  0  0  0  0  0  0  0  0  0
   60.3180   34.8840   46.1100 C   0  0  0  0  0  0  0  0  0  0  0  0
   60.4900   33.5220   46.3990 C   0  0  0  0  0  0  0  0  0  0  0  0
   61.6060   33.0810   47.2610 C   0  0  0  0  0  0  0  0  0  0  0  0
   62.7830   33.3990   46.9390 O   0  0  0  0  0  0  0  0  0  0  0  0
   61.3680   32.3410   48.4790 N   0  0  0  0  0  0  0  0  0  0  0  0
   60.1280   32.5640   49.2440 C   0  0  0  0  0  0  0  0  0  0  0  0
   60.2240   32.0070   50.6720 C   0  0  0  0  0  0  0  0  0  0  0  0
   61.5360   32.3170   51.2580 N   0  0  0  0  0  0  0  0  0  0  0  0
   61.6430   32.7390   52.6300 C   0  0  0  0  0  0  0  0  0  0  0  0
   62.7740   33.0200   53.1150 O   0  0  0  0  0  0  0  0  0  0  0  0
   60.4960   32.8260   53.4310 O   0  0  0  0  0  0  0  0  0  0  0  0
   59.7690   34.0350   53.6390 C   0  0  0  0  0  0  0  0  0  0  0  0
   58.5670   34.1090   52.7050 C   0  0  0  0  0  0  0  0  0  0  0  0
   62.7620   32.0860   50.4760 C   0  0  0  0  0  0  0  0  0  0  0  0
   62.4420   31.5420   49.0820 C   0  0  0  0  0  0  0  0  0  0  0  0
   59.5890   32.5860   45.8700 C   0  0  0  0  0  0  0  0  0  0  0  0
   57.6440   29.4520   44.4880 C   0  0  0  0  0  0  0  0  0  0  0  0
   57.8510   28.4290   45.4000 C   0  0  0  0  0  0  0  0  0  0  0  0
   57.7440   27.1260   45.0770 C   0  0  0  0  0  0  0  0  0  0  0  0
   57.2090   26.0680   45.9460 C   0  0  0  0  0  0  0  0  0  0  0  0
   57.9340   25.0170   46.3660 N   0  0  0  0  0  0  0  0  0  0  0  0
   57.0260   24.2450   47.0030 C   0  0  0  0  0  0  0  0  0  0  0  0
   57.3320   23.1580   47.5590 O   0  0  0  0  0  0  0  0  0  0  0  0
   55.7640   24.7230   46.9870 N   0  0  0  0  0  0  0  0  0  0  0  0
   55.8930   25.8700   46.3020 C   0  0  0  0  0  0  0  0  0  0  0  0
   54.8270   26.7020   45.9850 O   0  0  0  0  0  0  0  0  0  0  0  0
   58.6338   27.3986   47.8378 H   0  0  0  0  0  0  0  0  0  0  0  0
   58.8241   29.1253   48.6203 H   0  0  0  0  0  0  0  0  0  0  0  0
   58.1530   31.1110   47.2350 H   0  0  0  0  0  0  0  0  0  0  0  0
   57.5020   31.9632   43.5460 H   0  0  0  0  0  0  0  0  0  0  0  0
   56.4532   32.3269   44.9777 H   0  0  0  0  0  0  0  0  0  0  0  0
   57.4300   34.7202   44.2894 H   0  0  0  0  0  0  0  0  0  0  0  0
   59.0975   36.3756   45.1219 H   0  0  0  0  0  0  0  0  0  0  0  0
   61.0448   35.6203   46.4836 H   0  0  0  0  0  0  0  0  0  0  0  0
   59.9332   33.6453   49.2971 H   0  0  0  0  0  0  0  0  0  0  0  0
   59.3116   32.0371   48.7283 H   0  0  0  0  0  0  0  0  0  0  0  0
   59.4351   32.4593   51.2909 H   0  0  0  0  0  0  0  0  0  0  0  0
   60.0989   30.9147   50.6371 H   0  0  0  0  0  0  0  0  0  0  0  0
   59.4191   34.0710   54.6812 H   0  0  0  0  0  0  0  0  0  0  0  0
   60.4325   34.8869   53.4292 H   0  0  0  0  0  0  0  0  0  0  0  0
   57.6434   34.1659   53.2998 H   0  0  0  0  0  0  0  0  0  0  0  0
   58.6502   35.0037   52.0705 H   0  0  0  0  0  0  0  0  0  0  0  0
   58.5398   33.2108   52.0705 H   0  0  0  0  0  0  0  0  0  0  0  0
   63.3050   33.0370   50.3729 H   0  0  0  0  0  0  0  0  0  0  0  0
   63.3747   31.3415   51.0055 H   0  0  0  0  0  0  0  0  0  0  0  0
   63.3409   31.6001   48.4506 H   0  0  0  0  0  0  0  0  0  0  0  0
   62.1177   30.4940   49.1631 H   0  0  0  0  0  0  0  0  0  0  0  0
   59.7656   31.5114   46.0252 H   0  0  0  0  0  0  0  0  0  0  0  0
   57.4593   29.3437   43.4090 H   0  0  0  0  0  0  0  0  0  0  0  0
   58.0869   26.8273   44.0754 H   0  0  0  0  0  0  0  0  0  0  0  0
  1  2  2  0
  2  3  1  0
  3  4  1  0
  4  5  1  0
  5  6  1  0
  6  7  2  0
  7  8  1  0
  8  9  2  0
  9 10  1  0
 10 11  1  0
 11 12  2  0
 11 13  1  0
 13 14  1  0
 14 15  1  0
 15 16  1  0
 16 17  1  0
 17 18  2  0
 17 19  1  0
 19 20  1  0
 20 21  1  0
 16 22  1  0
 22 23  1  0
 10 24  2  0
  4 25  2  0
 25 26  1  0
 26 27  2  3
 27 28  1  0
 28 29  1  0
 29 30  1  0
 30 31  2  0
 30 32  1  0
 32 33  1  0
 33 34  1  0
 26  2  1  0
 33 28  2  0
 24  6  1  0
 23 13  1  0
  1 35  1  0
  1 36  1  0
  3 37  1  0
  5 38  1  0
  5 39  1  0
  7 40  1  0
  8 41  1  0
  9 42  1  0
 14 43  1  0
 14 44  1  0
 15 45  1  0
 15 46  1  0
 20 47  1  0
 20 48  1  0
 21 49  1  0
 21 50  1  0
 21 51  1  0
 22 52  1  0
 22 53  1  0
 23 54  1  0
 23 55  1  0
 24 56  1  0
 25 57  1  0
 27 58  1  0
M  CHG  3  29  -1  32  -1  34  -1
M  END
>  <UniqueID>  (42) 
40

>  <SMILES>  (42) 
C=c1[nH]c(Cc2cccc(C(=O)N3CCN(C(=O)OCC)CC3)c2)cc1=Cc1[n-]c(=O)[n-]c1[O-]

>  <Energy>  (42) 
127.3864480940765

>  <Genealogy>  (42) 
C=c1[nH]c(Cc2cccc(C(=O)N3CCN(C(=O)OCC)CC3)c2)cc1=Cc1[n-]c(=O)[n-]c1[O-] (protonated)
C=c1[nH]c(Cc2cccc(C(=O)N3CCN(C(=O)OCC)CC3)c2)cc1=Cc1[n-]c(=O)[n-]c1[O-] (3D coordinates assigned)
C=c1[nH]c(Cc2cccc(C(=O)N3CCN(C(=O)OCC)CC3)c2)cc1=Cc1[n-]c(=O)[n-]c1[O-] (nonaromatic ring conformer: 127.3864480940765 kcal/mol)

>  <smiles>  (42) 
C=c1[nH]c(Cc2cccc(C(=O)N3CCN(C(=O)OCC)CC3)c2)cc1=Cc1[nH]c(=O)[nH]c1O

>  <score_type>  (42) 
oracle

>  <origin>  (42) 
adg

>  <m_score__min__energy>  (42) 
-18.390000000000001

>  <m_primary>  (42) 
energy

$$$$
42:0
     RDKit          3D

 59 63  0  0  0  0  0  0  0  0999 V2000
   63.1950   29.9690   51.3030 C   0  0  0  0  0  0  0  0  0  0  0  0
   62.4900   30.9180   50.4430 N   0  0  0  0  0  0  0  0  0  0  0  0
   61.2710   30.7140   49.9080 C   0  0  0  0  0  0  0  0  0  0  0  0
   60.8860   31.8240   49.1800 C   0  0  0  0  0  0  0  0  0  0  0  0
   59.5970   31.9960   48.4840 C   0  0  0  0  0  0  0  0  0  0  0  0
   58.6920   31.1360   48.6610 O   0  0  0  0  0  0  0  0  0  0  0  0
   59.3550   33.1120   47.6050 N   0  0  0  0  0  0  0  0  0  0  0  0
   60.3870   33.5520   46.6530 C   0  0  0  0  0  0  0  0  0  0  0  0
   59.7600   33.8600   45.2860 C   0  0  0  0  0  0  0  0  0  0  0  0
   58.6110   32.9600   45.0710 N   0  0  0  0  0  0  0  0  0  0  0  0
   58.1630   32.9560   43.6640 C   0  0  0  0  0  0  0  0  0  0  0  0
   58.1680   31.5250   43.0870 C   0  0  2  0  0  0  0  0  0  0  0  0
   56.8570   31.2270   42.3180 C   0  0  0  0  0  0  0  0  0  0  0  0
   56.0130   30.2930   43.2050 C   0  0  0  0  0  0  0  0  0  0  0  0
   56.9680   29.8270   44.2370 C   0  0  0  0  0  0  0  0  0  0  0  0
   56.7510   28.8360   45.1980 C   0  0  0  0  0  0  0  0  0  0  0  0
   55.5310   28.1710   45.2720 O   0  0  0  0  0  0  0  0  0  0  0  0
   57.7870   28.5170   46.0890 C   0  0  0  0  0  0  0  0  0  0  0  0
   59.0210   29.1860   46.0050 C   0  0  0  0  0  0  0  0  0  0  0  0
   59.2180   30.1810   45.0370 C   0  0  0  0  0  0  0  0  0  0  0  0
   58.1660   30.4980   44.1680 C   0  0  0  0  0  0  0  0  0  0  0  0
   57.4970   33.2990   45.9870 C   0  0  0  0  0  0  0  0  0  0  0  0
   57.9920   33.6190   47.4140 C   0  0  0  0  0  0  0  0  0  0  0  0
   61.9120   32.7470   49.2840 C   0  0  0  0  0  0  0  0  0  0  0  0
   62.8960   32.1500   50.0540 C   0  0  0  0  0  0  0  0  0  0  0  0
   64.1780   32.7940   50.4180 C   0  0  0  0  0  0  0  0  0  0  0  0
   65.3770   32.3490   49.8360 C   0  0  0  0  0  0  0  0  0  0  0  0
   66.5950   32.9430   50.1860 C   0  0  0  0  0  0  0  0  0  0  0  0
   66.6270   33.9740   51.1280 C   0  0  0  0  0  0  0  0  0  0  0  0
   65.4410   34.4100   51.7260 C   0  0  0  0  0  0  0  0  0  0  0  0
   64.2220   33.8210   51.3780 C   0  0  0  0  0  0  0  0  0  0  0  0
   63.0080   30.2207   52.3574 H   0  0  0  0  0  0  0  0  0  0  0  0
   62.8328   28.9505   51.0994 H   0  0  0  0  0  0  0  0  0  0  0  0
   64.2747   30.0217   51.0994 H   0  0  0  0  0  0  0  0  0  0  0  0
   60.6712   29.8003   50.0319 H   0  0  0  0  0  0  0  0  0  0  0  0
   60.8742   34.4589   47.0406 H   0  0  0  0  0  0  0  0  0  0  0  0
   61.1266   32.7468   46.5322 H   0  0  0  0  0  0  0  0  0  0  0  0
   59.4188   34.9055   45.2639 H   0  0  0  0  0  0  0  0  0  0  0  0
   60.5058   33.7069   44.4920 H   0  0  0  0  0  0  0  0  0  0  0  0
   57.1421   33.3621   43.6102 H   0  0  0  0  0  0  0  0  0  0  0  0
   58.8550   33.5746   43.0738 H   0  0  0  0  0  0  0  0  0  0  0  0
   59.0649   31.4762   42.4521 H   0  0  0  0  0  0  0  0  0  0  0  0
   56.3103   32.1624   42.1279 H   0  0  0  0  0  0  0  0  0  0  0  0
   57.0713   30.7563   41.3472 H   0  0  0  0  0  0  0  0  0  0  0  0
   55.1759   30.8394   43.6640 H   0  0  0  0  0  0  0  0  0  0  0  0
   55.5597   29.4650   42.6402 H   0  0  0  0  0  0  0  0  0  0  0  0
   57.6336   27.7422   46.8546 H   0  0  0  0  0  0  0  0  0  0  0  0
   59.8335   28.9282   46.7002 H   0  0  0  0  0  0  0  0  0  0  0  0
   60.1827   30.7041   44.9612 H   0  0  0  0  0  0  0  0  0  0  0  0
   56.9672   34.1777   45.5905 H   0  0  0  0  0  0  0  0  0  0  0  0
   56.8323   32.4247   46.0483 H   0  0  0  0  0  0  0  0  0  0  0  0
   57.9856   34.7086   47.5646 H   0  0  0  0  0  0  0  0  0  0  0  0
   57.3244   33.1344   48.1417 H   0  0  0  0  0  0  0  0  0  0  0  0
   61.9402   33.7543   48.8428 H   0  0  0  0  0  0  0  0  0  0  0  0
   65.3583   31.5300   49.1019 H   0  0  0  0  0  0  0  0  0  0  0  0
   67.5288   32.5974   49.7185 H   0  0  0  0  0  0  0  0  0  0  0  0
   67.5847   34.4424   51.3990 H   0  0  0  0  0  0  0  0  0  0  0  0
   65.4671   35.2181   52.4718 H   0  0  0  0  0  0  0  0  0  0  0  0
   63.2926   34.1624   51.8573 H   0  0  0  0  0  0  0  0  0  0  0  0
  1  2  1  0
  2  3  1  0
  3  4  2  0
  4  5  1  0
  5  6  2  0
  5  7  1  0
  7  8  1  0
  8  9  1  0
  9 10  1  0
 10 11  1  0
 11 12  1  0
 12 13  1  0
 13 14  1  0
 14 15  1  0
 15 16  2  0
 16 17  1  0
 16 18  1  0
 18 19  2  0
 19 20  1  0
 20 21  2  0
 10 22  1  0
 22 23  1  0
  4 24  1  0
 24 25  2  0
 25 26  1  0
 26 27  2  0
 27 28  1  0
 28 29  2  0
 29 30  1  0
 30 31  2  0
 25  2  1  0
 31 26  1  0
 23  7  1  0
 21 12  1  0
 21 15  1  0
  1 32  1  0
  1 33  1  0
  1 34  1  0
  3 35  1  0
  8 36  1  0
  8 37  1  0
  9 38  1  0
  9 39  1  0
 11 40  1  0
 11 41  1  0
 12 42  1  6
 13 43  1  0
 13 44  1  0
 14 45  1  0
 14 46  1  0
 18 47  1  0
 19 48  1  0
 20 49  1  0
 22 50  1  0
 22 51  1  0
 23 52  1  0
 23 53  1  0
 24 54  1  0
 27 55  1  0
 28 56  1  0
 29 57  1  0
 30 58  1  0
 31 59  1  0
M  CHG  1  17  -1
M  END
>  <UniqueID>  (43) 
41

>  <SMILES>  (43) 
Cn1cc(C(=O)N2CCN(C[C@@H]3CCc4c([O-])cccc43)CC2)cc1-c1ccccc1

>  <Energy>  (43) 
110.58571220567416

>  <Genealogy>  (43) 
Cn1cc(C(=O)N2CCN(CC3CCc4c([O-])cccc43)CC2)cc1-c1ccccc1 (protonated)
Cn1cc(C(=O)N2CCN(C[C@@H]3CCc4c([O-])cccc43)CC2)cc1-c1ccccc1 (chirality)
Cn1cc(C(=O)N2CCN(C[C@@H]3CCc4c([O-])cccc43)CC2)cc1-c1ccccc1 (3D coordinates assigned)
Cn1cc(C(=O)N2CCN(C[C@@H]3CCc4c([O-])cccc43)CC2)cc1-c1ccccc1 (nonaromatic ring conformer: 110.58571220567416 kcal/mol)

>  <smiles>  (43) 
Cn1cc(C(=O)N2CCN(CC3CCc4c(O)cccc43)CC2)cc1-c1ccccc1

>  <score_type>  (43) 
oracle

>  <origin>  (43) 
adg

>  <m_score__min__energy>  (43) 
-13.32

>  <m_primary>  (43) 
energy

$$$$
43:0
     RDKit          3D

 51 52  0  0  0  0  0  0  0  0999 V2000
   54.8870   29.4310   52.7060 C   0  0  0  0  0  0  0  0  0  0  0  0
   56.2520   29.4180   52.2990 O   0  0  0  0  0  0  0  0  0  0  0  0
   57.0120   30.5680   52.0410 C   0  0  0  0  0  0  0  0  0  0  0  0
   57.0390   31.6680   52.9210 C   0  0  0  0  0  0  0  0  0  0  0  0
   57.8340   32.7790   52.6290 C   0  0  0  0  0  0  0  0  0  0  0  0
   58.5840   32.8170   51.4530 C   0  0  0  0  0  0  0  0  0  0  0  0
   58.5380   31.7470   50.5520 C   0  0  0  0  0  0  0  0  0  0  0  0
   59.3410   31.8050   49.3670 N   0  0  0  0  0  0  0  0  0  0  0  0
   60.0230   30.7140   48.7310 C   0  0  0  0  0  0  0  0  0  0  0  0
   60.9720   30.9740   47.9450 O   0  0  0  0  0  0  0  0  0  0  0  0
   59.6100   29.2800   48.9160 C   0  0  0  0  0  0  0  0  0  0  0  0
   60.3770   28.1920   47.6640 S   0  0  0  0  0  0  0  0  0  0  0  0
   58.8310   27.6460   46.9350 C   0  0  0  0  0  0  0  0  0  0  0  0
   58.1850   26.4720   47.3480 C   0  0  0  0  0  0  0  0  0  0  0  0
   56.9870   26.2320   46.6890 C   0  0  0  0  0  0  0  0  0  0  0  0
   56.7200   27.4910   45.6080 S   0  0  0  0  0  0  0  0  0  0  0  0
   58.1250   28.3440   45.9570 C   0  0  0  0  0  0  0  0  0  0  0  0
   58.5130   29.9200   45.2760 S   0  0  0  0  0  0  0  0  0  0  0  0
   59.9100   30.3030   45.6710 O   0  0  0  0  0  0  0  0  0  0  0  0
   58.4390   29.8490   43.7770 O   0  0  0  0  0  0  0  0  0  0  0  0
   57.4000   31.1290   45.8280 N   0  0  0  0  0  0  0  0  0  0  0  0
   57.8330   32.3610   46.4110 C   0  0  0  0  0  0  0  0  0  0  0  0
   57.0070   33.2980   46.5920 O   0  0  0  0  0  0  0  0  0  0  0  0
   59.2160   32.5470   46.7700 N   0  0  0  0  0  0  0  0  0  0  0  0
   59.7770   33.8660   46.3680 C   0  0  0  0  0  0  0  0  0  0  0  0
   59.2750   34.2760   44.9670 C   0  0  0  0  0  0  0  0  0  0  0  0
   59.2980   34.9340   47.3770 C   0  0  0  0  0  0  0  0  0  0  0  0
   61.3240   33.8510   46.3830 C   0  0  0  0  0  0  0  0  0  0  0  0
   57.7770   30.6100   50.8680 C   0  0  0  0  0  0  0  0  0  0  0  0
   54.8320   29.4315   53.8046 H   0  0  0  0  0  0  0  0  0  0  0  0
   54.3960   30.3339   52.3138 H   0  0  0  0  0  0  0  0  0  0  0  0
   54.3789   28.5377   52.3138 H   0  0  0  0  0  0  0  0  0  0  0  0
   56.4333   31.6520   53.8391 H   0  0  0  0  0  0  0  0  0  0  0  0
   57.8689   33.6270   53.3288 H   0  0  0  0  0  0  0  0  0  0  0  0
   59.2140   33.6915   51.2331 H   0  0  0  0  0  0  0  0  0  0  0  0
   59.9196   28.9457   49.9172 H   0  0  0  0  0  0  0  0  0  0  0  0
   58.5176   29.2192   48.8018 H   0  0  0  0  0  0  0  0  0  0  0  0
   58.5898   25.8035   48.1221 H   0  0  0  0  0  0  0  0  0  0  0  0
   56.3263   25.3669   46.8471 H   0  0  0  0  0  0  0  0  0  0  0  0
   59.3060   32.4250   47.8070 H   0  0  0  0  0  0  0  0  0  0  0  0
   59.7730   31.7780   46.3250 H   0  0  0  0  0  0  0  0  0  0  0  0
   58.4268   34.9688   45.0697 H   0  0  0  0  0  0  0  0  0  0  0  0
   60.0884   34.7713   44.4165 H   0  0  0  0  0  0  0  0  0  0  0  0
   58.9521   33.3801   44.4165 H   0  0  0  0  0  0  0  0  0  0  0  0
   59.4615   34.5696   48.4019 H   0  0  0  0  0  0  0  0  0  0  0  0
   59.8653   35.8639   47.2236 H   0  0  0  0  0  0  0  0  0  0  0  0
   58.2263   35.1288   47.2236 H   0  0  0  0  0  0  0  0  0  0  0  0
   61.6806   33.8475   47.4236 H   0  0  0  0  0  0  0  0  0  0  0  0
   61.6870   32.9493   45.8680 H   0  0  0  0  0  0  0  0  0  0  0  0
   61.7044   34.7455   45.8680 H   0  0  0  0  0  0  0  0  0  0  0  0
   57.7815   29.7448   50.1887 H   0  0  0  0  0  0  0  0  0  0  0  0
  1  2  1  0
  2  3  1  0
  3  4  2  0
  4  5  1  0
  5  6  2  0
  6  7  1  0
  7  8  1  0
  8  9  1  0
  9 10  2  0
  9 11  1  0
 11 12  1  0
 12 13  1  0
 13 14  1  0
 14 15  2  0
 15 16  1  0
 16 17  1  0
 17 18  1  0
 18 19  2  0
 18 20  2  0
 18 21  1  0
 21 22  1  0
 22 23  2  0
 22 24  1  0
 24 25  1  0
 25 26  1  0
 25 27  1  0
 25 28  1  0
  7 29  2  0
 29  3  1  0
 17 13  2  0
  1 30  1  0
  1 31  1  0
  1 32  1  0
  4 33  1  0
  5 34  1  0
  6 35  1  0
 11 36  1  0
 11 37  1  0
 14 38  1  0
 15 39  1  0
 24 40  1  0
 24 41  1  0
 26 42  1  0
 26 43  1  0
 26 44  1  0
 27 45  1  0
 27 46  1  0
 27 47  1  0
 28 48  1  0
 28 49  1  0
 28 50  1  0
 29 51  1  0
M  CHG  3   8  -1  21  -1  24   1
M  END
>  <UniqueID>  (44) 
42

>  <SMILES>  (44) 
COc1cccc([N-]C(=O)CSc2ccsc2S(=O)(=O)[N-]C(=O)[NH2+]C(C)(C)C)c1

>  <Energy>  (44) 
74.81954037648181

>  <Genealogy>  (44) 
COc1cccc([N-]C(=O)CSc2ccsc2S(=O)(=O)[N-]C(=O)[NH2+]C(C)(C)C)c1 (protonated)
COc1cccc([N-]C(=O)CSc2ccsc2S(=O)(=O)[N-]C(=O)[NH2+]C(C)(C)C)c1 (3D coordinates assigned)
COc1cccc([N-]C(=O)CSc2ccsc2S(=O)(=O)[N-]C(=O)[NH2+]C(C)(C)C)c1 (optimized conformer: 74.81954037648181 kcal/mol)

>  <smiles>  (44) 
COc1cccc(NC(=O)CSc2ccsc2S(=O)(=O)NC(=O)NC(C)(C)C)c1

>  <score_type>  (44) 
oracle

>  <origin>  (44) 
adg

>  <m_score__min__energy>  (44) 
-9.7599999999999998

>  <m_primary>  (44) 
energy

$$$$
44:0
     RDKit          3D

 43 45  0  0  0  0  0  0  0  0999 V2000
   61.3530   34.5780   49.4840 N   0  0  0  0  0  0  0  0  0  0  0  0
   60.6690   34.3380   48.5830 C   0  0  0  0  0  0  0  0  0  0  0  0
   59.8160   34.0370   47.4580 C   0  0  0  0  0  0  0  0  0  0  0  0
   59.9190   34.8070   46.2960 C   0  0  0  0  0  0  0  0  0  0  0  0
   59.1500   34.5190   45.2130 N   0  0  0  0  0  0  0  0  0  0  0  0
   58.2630   33.4890   45.2020 C   0  0  0  0  0  0  0  0  0  0  0  0
   57.5690   33.2810   44.1180 N   0  0  0  0  0  0  0  0  0  0  0  0
   57.7290   32.1850   43.1600 C   0  0  0  0  0  0  0  0  0  0  0  0
   57.5260   30.8500   43.8270 C   0  0  0  0  0  0  0  0  0  0  0  0
   56.2280   30.3940   44.1140 C   0  0  0  0  0  0  0  0  0  0  0  0
   56.0350   29.1580   44.7360 C   0  0  0  0  0  0  0  0  0  0  0  0
   57.1360   28.3630   45.0830 C   0  0  0  0  0  0  0  0  0  0  0  0
   56.8910   26.8120   45.8790 S   0  0  0  0  0  0  0  0  0  0  0  0
   55.1980   26.4920   46.0100 N   0  0  0  0  0  0  0  0  0  0  0  0
   57.5490   25.7210   45.0800 O   0  0  0  0  0  0  0  0  0  0  0  0
   57.5020   26.8400   47.2510 O   0  0  0  0  0  0  0  0  0  0  0  0
   58.4330   28.8240   44.8190 C   0  0  0  0  0  0  0  0  0  0  0  0
   58.6270   30.0610   44.1970 C   0  0  0  0  0  0  0  0  0  0  0  0
   58.1260   32.6910   46.3560 C   0  0  0  0  0  0  0  0  0  0  0  0
   58.8980   32.9700   47.4910 C   0  0  0  0  0  0  0  0  0  0  0  0
   58.7290   32.1290   48.6920 C   0  0  0  0  0  0  0  0  0  0  0  0
   58.4280   32.6730   49.7860 O   0  0  0  0  0  0  0  0  0  0  0  0
   58.9340   30.7130   48.6470 N   0  0  0  0  0  0  0  0  0  0  0  0
   60.2220   30.0820   48.3690 C   0  0  0  0  0  0  0  0  0  0  0  0
   60.6600   30.2680   46.9200 C   0  0  0  0  0  0  0  0  0  0  0  0
   61.8240   31.1310   47.3870 C   0  0  0  0  0  0  0  0  0  0  0  0
   61.3850   30.9480   48.8340 C   0  0  0  0  0  0  0  0  0  0  0  0
   60.6253   35.6494   46.2579 H   0  0  0  0  0  0  0  0  0  0  0  0
   56.9890   32.3007   42.3544 H   0  0  0  0  0  0  0  0  0  0  0  0
   58.7505   32.2216   42.7536 H   0  0  0  0  0  0  0  0  0  0  0  0
   55.3592   31.0137   43.8474 H   0  0  0  0  0  0  0  0  0  0  0  0
   55.0154   28.8075   44.9542 H   0  0  0  0  0  0  0  0  0  0  0  0
   54.7720   26.7210   45.0850 H   0  0  0  0  0  0  0  0  0  0  0  0
   59.3011   28.2106   45.1021 H   0  0  0  0  0  0  0  0  0  0  0  0
   59.6479   30.4182   43.9964 H   0  0  0  0  0  0  0  0  0  0  0  0
   57.4150   31.8517   46.3651 H   0  0  0  0  0  0  0  0  0  0  0  0
   60.0697   29.0722   48.7778 H   0  0  0  0  0  0  0  0  0  0  0  0
   60.9632   29.3369   46.4188 H   0  0  0  0  0  0  0  0  0  0  0  0
   59.9524   30.6453   46.1671 H   0  0  0  0  0  0  0  0  0  0  0  0
   62.8142   30.7082   47.1619 H   0  0  0  0  0  0  0  0  0  0  0  0
   61.9677   32.1403   46.9738 H   0  0  0  0  0  0  0  0  0  0  0  0
   62.1166   30.4186   49.4621 H   0  0  0  0  0  0  0  0  0  0  0  0
   61.2068   31.8222   49.4774 H   0  0  0  0  0  0  0  0  0  0  0  0
  1  2  3  0
  2  3  1  0
  3  4  2  0
  4  5  1  0
  5  6  1  0
  6  7  2  3
  7  8  1  0
  8  9  1  0
  9 10  2  0
 10 11  1  0
 11 12  2  0
 12 13  1  0
 13 14  1  0
 13 15  2  0
 13 16  2  0
 12 17  1  0
 17 18  2  0
  6 19  1  0
 19 20  2  0
 20 21  1  0
 21 22  2  0
 21 23  1  0
 23 24  1  0
 24 25  1  0
 25 26  1  0
 26 27  1  0
 20  3  1  0
 27 24  1  0
 18  9  1  0
  4 28  1  0
  8 29  1  0
  8 30  1  0
 10 31  1  0
 11 32  1  0
 14 33  1  0
 17 34  1  0
 18 35  1  0
 19 36  1  0
 24 37  1  0
 25 38  1  0
 25 39  1  0
 26 40  1  0
 26 41  1  0
 27 42  1  0
 27 43  1  0
M  CHG  3   5  -1  14  -1  23  -1
M  END
>  <UniqueID>  (45) 
43

>  <SMILES>  (45) 
N#Cc1c[n-]c(=NCc2ccc(S([NH-])(=O)=O)cc2)cc1C(=O)[N-]C1CCC1

>  <Energy>  (45) 
110.03112025341188

>  <Genealogy>  (45) 
N#Cc1c[n-]c(=NCc2ccc(S([NH-])(=O)=O)cc2)cc1C(=O)[N-]C1CCC1 (protonated)
N#Cc1c[n-]c(=NCc2ccc(S([NH-])(=O)=O)cc2)cc1C(=O)[N-]C1CCC1 (3D coordinates assigned)
N#Cc1c[n-]c(=NCc2ccc(S([NH-])(=O)=O)cc2)cc1C(=O)[N-]C1CCC1 (nonaromatic ring conformer: 110.03112025341188 kcal/mol)

>  <smiles>  (45) 
N#Cc1c[nH]c(=NCc2ccc(S(N)(=O)=O)cc2)cc1C(=O)NC1CCC1

>  <score_type>  (45) 
oracle

>  <origin>  (45) 
adg

>  <m_score__min__energy>  (45) 
-12.619999999999999

>  <m_primary>  (45) 
energy

$$$$
45:0
     RDKit          3D

 41 42  0  0  0  0  0  0  0  0999 V2000
   61.2320   28.9390   44.7400 C   0  0  0  0  0  0  0  0  0  0  0  0
   60.0960   29.4220   45.5910 C   0  0  0  0  0  0  0  0  0  0  0  0
   60.2890   30.4290   46.3270 O   0  0  0  0  0  0  0  0  0  0  0  0
   58.7770   28.7260   45.6040 C   0  0  0  0  0  0  0  0  0  0  0  0
   58.6960   27.3820   46.0220 C   0  0  0  0  0  0  0  0  0  0  0  0
   57.4730   26.7100   46.0400 C   0  0  0  0  0  0  0  0  0  0  0  0
   56.3070   27.3720   45.6590 C   0  0  0  0  0  0  0  0  0  0  0  0
   55.0900   26.7020   45.6900 O   0  0  0  0  0  0  0  0  0  0  0  0
   56.3630   28.7030   45.2430 C   0  0  0  0  0  0  0  0  0  0  0  0
   57.5940   29.3880   45.1860 C   0  0  0  0  0  0  0  0  0  0  0  0
   57.6800   30.7180   44.7330 O   0  0  0  0  0  0  0  0  0  0  0  0
   58.1310   31.1570   43.4500 C   0  0  0  0  0  0  0  0  0  0  0  0
   57.7950   32.6370   43.2220 C   0  0  0  0  0  0  0  0  0  0  0  0
   58.7010   33.6170   43.9920 C   0  0  0  0  0  0  0  0  0  0  0  0
   58.8970   33.2230   45.4040 N   0  0  0  0  0  0  0  0  0  0  0  0
   59.9140   34.0550   46.0770 C   0  0  0  0  0  0  0  0  0  0  0  0
   60.1850   33.5250   47.5020 C   0  0  0  0  0  0  0  0  0  0  0  0
   59.1580   32.5760   47.9570 N   0  0  0  0  0  0  0  0  0  0  0  0
   57.8090   33.0680   47.6520 C   0  0  0  0  0  0  0  0  0  0  0  0
   57.6200   33.3320   46.1410 C   0  0  0  0  0  0  0  0  0  0  0  0
   62.0515   28.5906   45.3857 H   0  0  0  0  0  0  0  0  0  0  0  0
   60.8875   28.1095   44.1050 H   0  0  0  0  0  0  0  0  0  0  0  0
   61.5904   29.7626   44.1050 H   0  0  0  0  0  0  0  0  0  0  0  0
   59.6089   26.8560   46.3382 H   0  0  0  0  0  0  0  0  0  0  0  0
   57.4291   25.6570   46.3551 H   0  0  0  0  0  0  0  0  0  0  0  0
   55.4370   29.2231   44.9566 H   0  0  0  0  0  0  0  0  0  0  0  0
   59.2209   31.0224   43.3871 H   0  0  0  0  0  0  0  0  0  0  0  0
   57.6222   30.5607   42.6783 H   0  0  0  0  0  0  0  0  0  0  0  0
   57.8908   32.8507   42.1472 H   0  0  0  0  0  0  0  0  0  0  0  0
   56.7727   32.7903   43.5980 H   0  0  0  0  0  0  0  0  0  0  0  0
   59.6826   33.6520   43.4968 H   0  0  0  0  0  0  0  0  0  0  0  0
   58.2076   34.6001   43.9866 H   0  0  0  0  0  0  0  0  0  0  0  0
   60.8477   34.0270   45.4961 H   0  0  0  0  0  0  0  0  0  0  0  0
   59.5423   35.0881   46.1449 H   0  0  0  0  0  0  0  0  0  0  0  0
   61.1612   33.0182   47.5097 H   0  0  0  0  0  0  0  0  0  0  0  0
   60.1696   34.3861   48.1863 H   0  0  0  0  0  0  0  0  0  0  0  0
   59.2970   31.6600   47.4690 H   0  0  0  0  0  0  0  0  0  0  0  0
   57.0744   32.3162   47.9763 H   0  0  0  0  0  0  0  0  0  0  0  0
   57.6644   34.0193   48.1851 H   0  0  0  0  0  0  0  0  0  0  0  0
   56.9105   32.5953   45.7362 H   0  0  0  0  0  0  0  0  0  0  0  0
   57.2380   34.3560   46.0165 H   0  0  0  0  0  0  0  0  0  0  0  0
  1  2  1  0
  2  3  2  0
  2  4  1  0
  4  5  2  0
  5  6  1  0
  6  7  2  0
  7  8  1  0
  7  9  1  0
  9 10  2  0
 10 11  1  0
 11 12  1  0
 12 13  1  0
 13 14  1  0
 14 15  1  0
 15 16  1  0
 16 17  1  0
 17 18  1  0
 18 19  1  0
 19 20  1  0
 10  4  1  0
 20 15  1  0
  1 21  1  0
  1 22  1  0
  1 23  1  0
  5 24  1  0
  6 25  1  0
  9 26  1  0
 12 27  1  0
 12 28  1  0
 13 29  1  0
 13 30  1  0
 14 31  1  0
 14 32  1  0
 16 33  1  0
 16 34  1  0
 17 35  1  0
 17 36  1  0
 18 37  1  0
 19 38  1  0
 19 39  1  0
 20 40  1  0
 20 41  1  0
M  CHG  1   8  -1
M  END
>  <UniqueID>  (46) 
44

>  <SMILES>  (46) 
CC(=O)c1ccc([O-])cc1OCCCN1CCNCC1

>  <Energy>  (46) 
48.10733410846728

>  <Genealogy>  (46) 
CC(=O)c1ccc([O-])cc1OCCCN1CCNCC1 (protonated)
CC(=O)c1ccc([O-])cc1OCCCN1CCNCC1 (3D coordinates assigned)
CC(=O)c1ccc([O-])cc1OCCCN1CCNCC1 (nonaromatic ring conformer: 48.10733410846728 kcal/mol)

>  <smiles>  (46) 
CC(=O)c1ccc(O)cc1OCCCN1CCNCC1

>  <score_type>  (46) 
oracle

>  <origin>  (46) 
adg

>  <m_score__min__energy>  (46) 
-10.73

>  <m_primary>  (46) 
energy

$$$$
46:0
     RDKit          3D

 45 46  0  0  0  0  0  0  0  0999 V2000
   59.9330   34.4980   48.9820 C   0  0  0  0  0  0  0  0  0  0  0  0
   60.6220   34.5290   47.6200 C   0  0  0  0  0  0  0  0  0  0  0  0
   59.6590   34.5840   46.5680 O   0  0  0  0  0  0  0  0  0  0  0  0
   58.8970   33.5010   46.0990 C   0  0  0  0  0  0  0  0  0  0  0  0
   58.9120   32.3120   46.8380 C   0  0  0  0  0  0  0  0  0  0  0  0
   58.1790   31.1990   46.4170 C   0  0  0  0  0  0  0  0  0  0  0  0
   57.3940   31.2710   45.2620 C   0  0  0  0  0  0  0  0  0  0  0  0
   56.6450   30.1200   44.8590 N   0  0  0  0  0  0  0  0  0  0  0  0
   56.9360   29.2640   43.7420 C   0  0  0  0  0  0  0  0  0  0  0  0
   56.2430   29.3820   42.6990 O   0  0  0  0  0  0  0  0  0  0  0  0
   58.0980   28.2870   43.7390 C   0  0  0  0  0  0  0  0  0  0  0  0
   58.9310   28.3260   44.9690 N   0  0  2  0  0  0  0  0  0  0  0  0
   60.1970   29.0440   44.7470 C   0  0  0  0  0  0  0  0  0  0  0  0
   59.1930   26.9910   45.5570 C   0  0  0  0  0  0  0  0  0  0  0  0
   58.2560   26.6700   46.6960 C   0  0  0  0  0  0  0  0  0  0  0  0
   58.4820   27.1980   47.8190 O   0  0  0  0  0  0  0  0  0  0  0  0
   57.0830   25.7640   46.5270 C   0  0  0  0  0  0  0  0  0  0  0  0
   57.1630   24.4060   46.8940 C   0  0  0  0  0  0  0  0  0  0  0  0
   56.0540   23.5650   46.7580 C   0  0  0  0  0  0  0  0  0  0  0  0
   54.8620   24.0800   46.2520 C   0  0  0  0  0  0  0  0  0  0  0  0
   54.7900   25.3900   45.8880 N   0  0  0  0  0  0  0  0  0  0  0  0
   55.8540   26.2350   46.0070 C   0  0  0  0  0  0  0  0  0  0  0  0
   55.7260   27.4330   45.6340 O   0  0  0  0  0  0  0  0  0  0  0  0
   57.4000   32.4480   44.4950 C   0  0  0  0  0  0  0  0  0  0  0  0
   58.1390   33.5600   44.9130 C   0  0  0  0  0  0  0  0  0  0  0  0
   60.6918   34.5321   49.7776 H   0  0  0  0  0  0  0  0  0  0  0  0
   59.2650   35.3670   49.0749 H   0  0  0  0  0  0  0  0  0  0  0  0
   59.3457   33.5725   49.0749 H   0  0  0  0  0  0  0  0  0  0  0  0
   61.2697   35.4163   47.5632 H   0  0  0  0  0  0  0  0  0  0  0  0
   61.2190   33.6123   47.5050 H   0  0  0  0  0  0  0  0  0  0  0  0
   59.5077   32.2531   47.7609 H   0  0  0  0  0  0  0  0  0  0  0  0
   58.2197   30.2643   46.9955 H   0  0  0  0  0  0  0  0  0  0  0  0
   57.6932   27.2701   43.6288 H   0  0  0  0  0  0  0  0  0  0  0  0
   58.7531   28.5782   42.9047 H   0  0  0  0  0  0  0  0  0  0  0  0
   58.3960   28.8950   45.6670 H   0  0  0  0  0  0  0  0  0  0  0  0
   60.6483   29.3000   45.7169 H   0  0  0  0  0  0  0  0  0  0  0  0
   60.8874   28.4030   44.1791 H   0  0  0  0  0  0  0  0  0  0  0  0
   60.0012   29.9655   44.1791 H   0  0  0  0  0  0  0  0  0  0  0  0
   59.0699   26.2293   44.7730 H   0  0  0  0  0  0  0  0  0  0  0  0
   60.2177   26.9959   45.9569 H   0  0  0  0  0  0  0  0  0  0  0  0
   58.1066   24.0036   47.2912 H   0  0  0  0  0  0  0  0  0  0  0  0
   56.1220   22.5061   47.0479 H   0  0  0  0  0  0  0  0  0  0  0  0
   53.9812   23.4295   46.1469 H   0  0  0  0  0  0  0  0  0  0  0  0
   56.8207   32.4955   43.5611 H   0  0  0  0  0  0  0  0  0  0  0  0
   58.1281   34.4826   44.3141 H   0  0  0  0  0  0  0  0  0  0  0  0
  1  2  1  0
  2  3  1  0
  3  4  1  0
  4  5  2  0
  5  6  1  0
  6  7  2  0
  7  8  1  0
  8  9  1  0
  9 10  2  0
  9 11  1  0
 11 12  1  0
 12 13  1  0
 12 14  1  0
 14 15  1  0
 15 16  2  0
 15 17  1  0
 17 18  2  0
 18 19  1  0
 19 20  2  0
 20 21  1  0
 21 22  1  0
 22 23  2  0
  7 24  1  0
 24 25  2  0
 25  4  1  0
 22 17  1  0
  1 26  1  0
  1 27  1  0
  1 28  1  0
  2 29  1  0
  2 30  1  0
  5 31  1  0
  6 32  1  0
 11 33  1  0
 11 34  1  0
 12 35  1  1
 13 36  1  0
 13 37  1  0
 13 38  1  0
 14 39  1  0
 14 40  1  0
 18 41  1  0
 19 42  1  0
 20 43  1  0
 24 44  1  0
 25 45  1  0
M  CHG  3   8  -1  12   1  21  -1
M  END
>  <UniqueID>  (47) 
45

>  <SMILES>  (47) 
CCOc1ccc([N-]C(=O)C[N@H+](C)CC(=O)c2ccc[n-]c2=O)cc1

>  <Energy>  (47) 
57.165261220692784

>  <Genealogy>  (47) 
CCOc1ccc([N-]C(=O)C[NH+](C)CC(=O)c2ccc[n-]c2=O)cc1 (protonated)
CCOc1ccc([N-]C(=O)C[N@H+](C)CC(=O)c2ccc[n-]c2=O)cc1 (chirality)
CCOc1ccc([N-]C(=O)C[N@H+](C)CC(=O)c2ccc[n-]c2=O)cc1 (3D coordinates assigned)
CCOc1ccc([N-]C(=O)C[N@H+](C)CC(=O)c2ccc[n-]c2=O)cc1 (optimized conformer: 57.165261220692784 kcal/mol)

>  <smiles>  (47) 
CCOc1ccc(NC(=O)CN(C)CC(=O)c2ccc[nH]c2=O)cc1

>  <score_type>  (47) 
oracle

>  <origin>  (47) 
adg

>  <m_score__min__energy>  (47) 
-9.3699999999999992

>  <m_primary>  (47) 
energy

$$$$
47:0
     RDKit          3D

 51 54  0  0  0  0  0  0  0  0999 V2000
   58.1730   32.6000   42.0940 O   0  0  0  0  0  0  0  0  0  0  0  0
   57.7750   32.0890   43.1780 C   0  0  0  0  0  0  0  0  0  0  0  0
   56.8110   30.9300   43.1360 C   0  0  0  0  0  0  0  0  0  0  0  0
   57.2310   29.8280   44.0630 C   0  0  0  0  0  0  0  0  0  0  0  0
   58.8030   29.2450   44.2350 S   0  0  0  0  0  0  0  0  0  0  0  0
   58.3570   28.1710   45.4480 C   0  0  0  0  0  0  0  0  0  0  0  0
   59.1520   27.3860   46.0270 O   0  0  0  0  0  0  0  0  0  0  0  0
   57.0420   28.2380   45.7470 N   0  0  0  0  0  0  0  0  0  0  0  0
   56.4150   29.1670   44.9780 C   0  0  0  0  0  0  0  0  0  0  0  0
   55.0560   29.4350   45.1080 O   0  0  0  0  0  0  0  0  0  0  0  0
   58.2270   32.6780   44.4650 C   0  0  0  0  0  0  0  0  0  0  0  0
   57.7900   32.1620   45.6990 C   0  0  0  0  0  0  0  0  0  0  0  0
   58.2360   32.7220   46.9000 C   0  0  0  0  0  0  0  0  0  0  0  0
   59.1350   33.7990   46.8960 C   0  0  0  0  0  0  0  0  0  0  0  0
   59.6390   34.3930   48.1960 C   0  0  0  0  0  0  0  0  0  0  0  0
   60.5730   33.5120   48.9340 N   0  0  0  0  0  0  0  0  0  0  0  0
   60.9180   34.0120   50.2860 C   0  0  0  0  0  0  0  0  0  0  0  0
   62.1400   33.2930   50.8660 C   0  0  0  0  0  0  0  0  0  0  0  0
   63.2900   33.4550   49.9660 N   0  0  0  0  0  0  0  0  0  0  0  0
   64.6380   33.4410   50.4870 C   0  0  0  0  0  0  0  0  0  0  0  0
   64.9750   34.2050   51.6210 C   0  0  0  0  0  0  0  0  0  0  0  0
   66.2800   34.1900   52.1250 C   0  0  0  0  0  0  0  0  0  0  0  0
   67.2610   33.4130   51.5040 C   0  0  0  0  0  0  0  0  0  0  0  0
   66.9400   32.6530   50.3780 C   0  0  0  0  0  0  0  0  0  0  0  0
   65.6370   32.6640   49.8710 C   0  0  0  0  0  0  0  0  0  0  0  0
   63.0490   33.6390   48.5270 C   0  0  0  0  0  0  0  0  0  0  0  0
   61.7100   33.0070   48.1270 C   0  0  0  0  0  0  0  0  0  0  0  0
   59.5360   34.3430   45.6650 C   0  0  0  0  0  0  0  0  0  0  0  0
   59.0930   33.7860   44.4630 C   0  0  0  0  0  0  0  0  0  0  0  0
   55.8130   31.2850   43.4326 H   0  0  0  0  0  0  0  0  0  0  0  0
   56.7976   30.5308   42.1111 H   0  0  0  0  0  0  0  0  0  0  0  0
   54.3760   28.9620   44.5250 H   0  0  0  0  0  0  0  0  0  0  0  0
   57.0923   31.3118   45.7189 H   0  0  0  0  0  0  0  0  0  0  0  0
   57.8786   32.3142   47.8571 H   0  0  0  0  0  0  0  0  0  0  0  0
   60.1584   35.3355   47.9681 H   0  0  0  0  0  0  0  0  0  0  0  0
   58.7610   34.5412   48.8418 H   0  0  0  0  0  0  0  0  0  0  0  0
   61.1357   35.0884   50.2223 H   0  0  0  0  0  0  0  0  0  0  0  0
   60.0621   33.8192   50.9496 H   0  0  0  0  0  0  0  0  0  0  0  0
   62.3831   33.7223   51.8492 H   0  0  0  0  0  0  0  0  0  0  0  0
   61.9126   32.2221   50.9735 H   0  0  0  0  0  0  0  0  0  0  0  0
   64.2064   34.8182   52.1142 H   0  0  0  0  0  0  0  0  0  0  0  0
   66.5339   34.7905   53.0110 H   0  0  0  0  0  0  0  0  0  0  0  0
   68.2863   33.4001   51.9023 H   0  0  0  0  0  0  0  0  0  0  0  0
   67.7141   32.0439   49.8883 H   0  0  0  0  0  0  0  0  0  0  0  0
   65.3909   32.0612   48.9844 H   0  0  0  0  0  0  0  0  0  0  0  0
   63.0257   34.7145   48.2975 H   0  0  0  0  0  0  0  0  0  0  0  0
   63.8578   33.1511   47.9633 H   0  0  0  0  0  0  0  0  0  0  0  0
   61.5171   33.2329   47.0679 H   0  0  0  0  0  0  0  0  0  0  0  0
   61.7881   31.9244   48.3054 H   0  0  0  0  0  0  0  0  0  0  0  0
   60.2052   35.2159   45.6471 H   0  0  0  0  0  0  0  0  0  0  0  0
   59.4243   34.2176   43.5070 H   0  0  0  0  0  0  0  0  0  0  0  0
  1  2  2  0
  2  3  1  0
  3  4  1  0
  4  5  1  0
  5  6  1  0
  6  7  2  0
  6  8  1  0
  8  9  1  0
  9 10  1  0
  2 11  1  0
 11 12  2  0
 12 13  1  0
 13 14  2  0
 14 15  1  0
 15 16  1  0
 16 17  1  0
 17 18  1  0
 18 19  1  0
 19 20  1  0
 20 21  2  0
 21 22  1  0
 22 23  2  0
 23 24  1  0
 24 25  2  0
 19 26  1  0
 26 27  1  0
 14 28  1  0
 28 29  2  0
  9  4  2  0
 29 11  1  0
 27 16  1  0
 25 20  1  0
  3 30  1  0
  3 31  1  0
 10 32  1  0
 12 33  1  0
 13 34  1  0
 15 35  1  0
 15 36  1  0
 17 37  1  0
 17 38  1  0
 18 39  1  0
 18 40  1  0
 21 41  1  0
 22 42  1  0
 23 43  1  0
 24 44  1  0
 25 45  1  0
 26 46  1  0
 26 47  1  0
 27 48  1  0
 27 49  1  0
 28 50  1  0
 29 51  1  0
M  CHG  1   8  -1
M  END
>  <UniqueID>  (48) 
46

>  <SMILES>  (48) 
O=C(Cc1sc(=O)[n-]c1O)c1ccc(CN2CCN(c3ccccc3)CC2)cc1

>  <Energy>  (48) 
98.46741427465781

>  <Genealogy>  (48) 
O=C(Cc1sc(=O)[n-]c1O)c1ccc(CN2CCN(c3ccccc3)CC2)cc1 (protonated)
O=C(Cc1sc(=O)[n-]c1O)c1ccc(CN2CCN(c3ccccc3)CC2)cc1 (3D coordinates assigned)
O=C(Cc1sc(=O)[n-]c1O)c1ccc(CN2CCN(c3ccccc3)CC2)cc1 (nonaromatic ring conformer: 98.46741427465781 kcal/mol)

>  <smiles>  (48) 
O=C(Cc1sc(=O)[nH]c1O)c1ccc(CN2CCN(c3ccccc3)CC2)cc1

>  <score_type>  (48) 
oracle

>  <origin>  (48) 
adg

>  <m_score__min__energy>  (48) 
-13.039999999999999

>  <m_primary>  (48) 
energy

$$$$
48:0
     RDKit          3D

 70 73  0  0  0  0  0  0  0  0999 V2000
   55.2120   29.9340   53.2790 O   0  0  0  0  0  0  0  0  0  0  0  0
   55.1930   30.9600   52.5470 C   0  0  0  0  0  0  0  0  0  0  0  0
   53.9840   31.3270   51.8640 N   0  0  0  0  0  0  0  0  0  0  0  0
   52.7990   30.4720   51.8580 C   0  0  0  0  0  0  0  0  0  0  0  0
   52.0660   30.6060   50.5470 C   0  0  0  0  0  0  0  0  0  0  0  0
   52.2000   29.6150   49.5600 C   0  0  0  0  0  0  0  0  0  0  0  0
   51.5460   29.7470   48.3320 C   0  0  0  0  0  0  0  0  0  0  0  0
   50.7550   30.8700   48.0770 C   0  0  0  0  0  0  0  0  0  0  0  0
   50.6160   31.8610   49.0520 C   0  0  0  0  0  0  0  0  0  0  0  0
   51.2690   31.7350   50.2830 C   0  0  0  0  0  0  0  0  0  0  0  0
   51.1220   32.7370   51.2370 O   0  0  0  0  0  0  0  0  0  0  0  0
   56.4020   31.8040   52.4230 C   0  0  0  0  0  0  0  0  0  0  0  0
   56.2620   33.0550   52.3630 O   0  0  0  0  0  0  0  0  0  0  0  0
   57.7730   31.2360   52.3840 C   0  0  0  0  0  0  0  0  0  0  0  0
   58.0380   29.9900   51.7870 C   0  0  0  0  0  0  0  0  0  0  0  0
   59.3420   29.4880   51.7370 C   0  0  0  0  0  0  0  0  0  0  0  0
   60.4090   30.2330   52.2620 C   0  0  0  0  0  0  0  0  0  0  0  0
   61.8130   29.6910   52.2200 C   0  0  0  0  0  0  0  0  0  0  0  0
   62.7640   30.7270   51.6790 C   0  0  0  0  0  0  0  0  0  0  0  0
   62.2790   31.7420   51.1070 O   0  0  0  0  0  0  0  0  0  0  0  0
   64.2030   30.5770   51.7650 N   0  0  0  0  0  0  0  0  0  0  0  0
   64.8250   29.2430   51.8170 C   0  0  0  0  0  0  0  0  0  0  0  0
   66.3180   29.3170   52.1830 C   0  0  0  0  0  0  0  0  0  0  0  0
   67.1450   28.2570   51.4950 C   0  0  0  0  0  0  0  0  0  0  0  0
   67.1960   26.9490   52.0100 C   0  0  0  0  0  0  0  0  0  0  0  0
   67.9460   25.9630   51.3600 C   0  0  0  0  0  0  0  0  0  0  0  0
   68.6530   26.2720   50.1960 C   0  0  0  0  0  0  0  0  0  0  0  0
   68.5930   27.5650   49.6660 C   0  0  0  0  0  0  0  0  0  0  0  0
   67.8320   28.5500   50.3020 C   0  0  0  0  0  0  0  0  0  0  0  0
   65.0650   31.7570   51.5970 C   0  0  0  0  0  0  0  0  0  0  0  0
   65.4050   32.0010   50.1160 C   0  0  0  0  0  0  0  0  0  0  0  0
   64.2550   32.6370   49.3710 C   0  0  0  0  0  0  0  0  0  0  0  0
   63.6920   33.8500   49.8150 C   0  0  0  0  0  0  0  0  0  0  0  0
   62.6280   34.4310   49.1210 C   0  0  0  0  0  0  0  0  0  0  0  0
   62.1260   33.8210   47.9690 C   0  0  0  0  0  0  0  0  0  0  0  0
   62.6970   32.6310   47.5030 C   0  0  0  0  0  0  0  0  0  0  0  0
   63.7600   32.0450   48.1960 C   0  0  0  0  0  0  0  0  0  0  0  0
   60.1490   31.4780   52.8560 C   0  0  0  0  0  0  0  0  0  0  0  0
   58.8460   31.9770   52.9110 C   0  0  0  0  0  0  0  0  0  0  0  0
   53.9460   32.2190   51.3220 H   0  0  0  0  0  0  0  0  0  0  0  0
   53.1059   29.4249   51.9972 H   0  0  0  0  0  0  0  0  0  0  0  0
   52.1306   30.7797   52.6757 H   0  0  0  0  0  0  0  0  0  0  0  0
   52.8234   28.7299   49.7550 H   0  0  0  0  0  0  0  0  0  0  0  0
   51.6542   28.9657   47.5653 H   0  0  0  0  0  0  0  0  0  0  0  0
   50.2421   30.9739   47.1095 H   0  0  0  0  0  0  0  0  0  0  0  0
   49.9909   32.7435   48.8511 H   0  0  0  0  0  0  0  0  0  0  0  0
   57.2120   29.4055   51.3557 H   0  0  0  0  0  0  0  0  0  0  0  0
   59.5325   28.5040   51.2838 H   0  0  0  0  0  0  0  0  0  0  0  0
   62.1234   29.4113   53.2376 H   0  0  0  0  0  0  0  0  0  0  0  0
   61.8343   28.8106   51.5609 H   0  0  0  0  0  0  0  0  0  0  0  0
   64.3036   28.6373   52.5728 H   0  0  0  0  0  0  0  0  0  0  0  0
   64.7421   28.7902   50.8179 H   0  0  0  0  0  0  0  0  0  0  0  0
   66.7022   30.3058   51.8918 H   0  0  0  0  0  0  0  0  0  0  0  0
   66.4009   29.1485   53.2669 H   0  0  0  0  0  0  0  0  0  0  0  0
   66.6436   26.7002   52.9281 H   0  0  0  0  0  0  0  0  0  0  0  0
   67.9789   24.9416   51.7669 H   0  0  0  0  0  0  0  0  0  0  0  0
   69.2563   25.4995   49.6966 H   0  0  0  0  0  0  0  0  0  0  0  0
   69.1460   27.8073   48.7465 H   0  0  0  0  0  0  0  0  0  0  0  0
   67.7697   29.5589   49.8681 H   0  0  0  0  0  0  0  0  0  0  0  0
   64.5433   32.6402   51.9941 H   0  0  0  0  0  0  0  0  0  0  0  0
   66.0039   31.5789   52.1418 H   0  0  0  0  0  0  0  0  0  0  0  0
   66.2786   32.6668   50.0568 H   0  0  0  0  0  0  0  0  0  0  0  0
   65.6160   31.0272   49.6499 H   0  0  0  0  0  0  0  0  0  0  0  0
   64.0927   34.3423   50.7134 H   0  0  0  0  0  0  0  0  0  0  0  0
   62.1846   35.3706   49.4823 H   0  0  0  0  0  0  0  0  0  0  0  0
   61.2826   34.2754   47.4285 H   0  0  0  0  0  0  0  0  0  0  0  0
   62.3085   32.1563   46.5899 H   0  0  0  0  0  0  0  0  0  0  0  0
   64.2118   31.1153   47.8198 H   0  0  0  0  0  0  0  0  0  0  0  0
   60.9771   32.0643   53.2809 H   0  0  0  0  0  0  0  0  0  0  0  0
   58.6571   32.9584   53.3706 H   0  0  0  0  0  0  0  0  0  0  0  0
  1  2  2  0
  2  3  1  0
  3  4  1  0
  4  5  1  0
  5  6  2  0
  6  7  1  0
  7  8  2  0
  8  9  1  0
  9 10  2  0
 10 11  1  0
  2 12  1  0
 12 13  2  0
 12 14  1  0
 14 15  2  0
 15 16  1  0
 16 17  2  0
 17 18  1  0
 18 19  1  0
 19 20  2  0
 19 21  1  0
 21 22  1  0
 22 23  1  0
 23 24  1  0
 24 25  2  0
 25 26  1  0
 26 27  2  0
 27 28  1  0
 28 29  2  0
 21 30  1  0
 30 31  1  0
 31 32  1  0
 32 33  2  0
 33 34  1  0
 34 35  2  0
 35 36  1  0
 36 37  2  0
 17 38  1  0
 38 39  2  0
 10  5  1  0
 39 14  1  0
 29 24  1  0
 37 32  1  0
  3 40  1  0
  4 41  1  0
  4 42  1  0
  6 43  1  0
  7 44  1  0
  8 45  1  0
  9 46  1  0
 15 47  1  0
 16 48  1  0
 18 49  1  0
 18 50  1  0
 22 51  1  0
 22 52  1  0
 23 53  1  0
 23 54  1  0
 25 55  1  0
 26 56  1  0
 27 57  1  0
 28 58  1  0
 29 59  1  0
 30 60  1  0
 30 61  1  0
 31 62  1  0
 31 63  1  0
 33 64  1  0
 34 65  1  0
 35 66  1  0
 36 67  1  0
 37 68  1  0
 38 69  1  0
 39 70  1  0
M  CHG  1  11  -1
M  END
>  <UniqueID>  (49) 
47

>  <SMILES>  (49) 
O=C(NCc1ccccc1[O-])C(=O)c1ccc(CC(=O)N(CCc2ccccc2)CCc2ccccc2)cc1

>  <Energy>  (49) 
70.21127981225587

>  <Genealogy>  (49) 
O=C(NCc1ccccc1[O-])C(=O)c1ccc(CC(=O)N(CCc2ccccc2)CCc2ccccc2)cc1 (protonated)
O=C(NCc1ccccc1[O-])C(=O)c1ccc(CC(=O)N(CCc2ccccc2)CCc2ccccc2)cc1 (3D coordinates assigned)
O=C(NCc1ccccc1[O-])C(=O)c1ccc(CC(=O)N(CCc2ccccc2)CCc2ccccc2)cc1 (optimized conformer: 70.21127981225587 kcal/mol)

>  <smiles>  (49) 
O=C(NCc1ccccc1O)C(=O)c1ccc(CC(=O)N(CCc2ccccc2)CCc2ccccc2)cc1

>  <score_type>  (49) 
oracle

>  <origin>  (49) 
adg

>  <m_score__min__energy>  (49) 
-14.550000000000001

>  <m_primary>  (49) 
energy

$$$$
49:0
     RDKit          3D

 50 52  0  0  0  0  0  0  0  0999 V2000
   59.9250   35.4170   46.0090 C   0  0  0  0  0  0  0  0  0  0  0  0
   58.9080   34.9290   44.9810 C   0  0  0  0  0  0  0  0  0  0  0  0
   57.7430   34.1940   45.6570 C   0  0  0  0  0  0  0  0  0  0  0  0
   58.0080   32.7530   45.7250 N   0  0  0  0  0  0  0  0  0  0  0  0
   57.5120   31.8390   44.8650 C   0  0  0  0  0  0  0  0  0  0  0  0
   57.8020   30.5640   45.3150 C   0  0  0  0  0  0  0  0  0  0  0  0
   57.4450   29.2900   44.6630 C   0  0  0  0  0  0  0  0  0  0  0  0
   56.7690   29.3080   43.5990 O   0  0  0  0  0  0  0  0  0  0  0  0
   57.8190   27.9880   45.2500 C   0  0  0  0  0  0  0  0  0  0  0  0
   56.8030   27.1020   45.6410 C   0  0  0  0  0  0  0  0  0  0  0  0
   57.1210   25.8670   46.2100 C   0  0  0  0  0  0  0  0  0  0  0  0
   58.4570   25.5000   46.3850 C   0  0  0  0  0  0  0  0  0  0  0  0
   59.4780   26.3630   45.9810 C   0  0  0  0  0  0  0  0  0  0  0  0
   59.1700   27.6050   45.4080 C   0  0  0  0  0  0  0  0  0  0  0  0
   60.4980   28.6160   44.8450 Cl  0  0  0  0  0  0  0  0  0  0  0  0
   58.4970   30.7030   46.5000 C   0  0  0  0  0  0  0  0  0  0  0  0
   58.6100   32.0630   46.7250 C   0  0  0  0  0  0  0  0  0  0  0  0
   59.2230   32.6480   47.9330 C   0  0  0  0  0  0  0  0  0  0  0  0
   58.5120   32.7700   48.9660 O   0  0  0  0  0  0  0  0  0  0  0  0
   60.6090   33.0450   47.9710 N   0  0  0  0  0  0  0  0  0  0  0  0
   61.0230   34.1040   48.9020 C   0  0  0  0  0  0  0  0  0  0  0  0
   62.5470   34.2240   48.9510 C   0  0  0  0  0  0  0  0  0  0  0  0
   63.1220   32.8720   49.0480 N   0  0  0  0  0  0  0  0  0  0  0  0
   64.5540   32.9420   49.3710 C   0  0  0  0  0  0  0  0  0  0  0  0
   62.9010   32.0800   47.8130 C   0  0  0  0  0  0  0  0  0  0  0  0
   61.6030   32.4530   47.0640 C   0  0  0  0  0  0  0  0  0  0  0  0
   59.5395   35.2320   47.0225 H   0  0  0  0  0  0  0  0  0  0  0  0
   60.8728   34.8756   45.8727 H   0  0  0  0  0  0  0  0  0  0  0  0
   60.0957   36.4951   45.8727 H   0  0  0  0  0  0  0  0  0  0  0  0
   58.5136   35.7943   44.4281 H   0  0  0  0  0  0  0  0  0  0  0  0
   59.4119   34.2288   44.2985 H   0  0  0  0  0  0  0  0  0  0  0  0
   57.6122   34.5855   46.6766 H   0  0  0  0  0  0  0  0  0  0  0  0
   56.8305   34.3580   45.0649 H   0  0  0  0  0  0  0  0  0  0  0  0
   56.9593   32.0733   43.9433 H   0  0  0  0  0  0  0  0  0  0  0  0
   55.7490   27.3824   45.4982 H   0  0  0  0  0  0  0  0  0  0  0  0
   56.3181   25.1824   46.5208 H   0  0  0  0  0  0  0  0  0  0  0  0
   58.7054   24.5305   46.8414 H   0  0  0  0  0  0  0  0  0  0  0  0
   60.5291   26.0668   46.1130 H   0  0  0  0  0  0  0  0  0  0  0  0
   58.8834   29.8941   47.1374 H   0  0  0  0  0  0  0  0  0  0  0  0
   60.5970   35.0622   48.5697 H   0  0  0  0  0  0  0  0  0  0  0  0
   60.6585   33.8491   49.9081 H   0  0  0  0  0  0  0  0  0  0  0  0
   62.9095   34.7161   48.0364 H   0  0  0  0  0  0  0  0  0  0  0  0
   62.8488   34.8240   49.8222 H   0  0  0  0  0  0  0  0  0  0  0  0
   64.6836   32.9483   50.4633 H   0  0  0  0  0  0  0  0  0  0  0  0
   65.0690   32.0680   48.9457 H   0  0  0  0  0  0  0  0  0  0  0  0
   64.9813   33.8621   48.9457 H   0  0  0  0  0  0  0  0  0  0  0  0
   63.7526   32.2453   47.1367 H   0  0  0  0  0  0  0  0  0  0  0  0
   62.8070   31.0271   48.1172 H   0  0  0  0  0  0  0  0  0  0  0  0
   61.8426   33.1792   46.2733 H   0  0  0  0  0  0  0  0  0  0  0  0
   61.1756   31.5345   46.6355 H   0  0  0  0  0  0  0  0  0  0  0  0
  1  2  1  0
  2  3  1  0
  3  4  1  0
  4  5  1  0
  5  6  2  0
  6  7  1  0
  7  8  2  0
  7  9  1  0
  9 10  2  0
 10 11  1  0
 11 12  2  0
 12 13  1  0
 13 14  2  0
 14 15  1  0
  6 16  1  0
 16 17  2  0
 17 18  1  0
 18 19  2  0
 18 20  1  0
 20 21  1  0
 21 22  1  0
 22 23  1  0
 23 24  1  0
 23 25  1  0
 25 26  1  0
 17  4  1  0
 26 20  1  0
 14  9  1  0
  1 27  1  0
  1 28  1  0
  1 29  1  0
  2 30  1  0
  2 31  1  0
  3 32  1  0
  3 33  1  0
  5 34  1  0
 10 35  1  0
 11 36  1  0
 12 37  1  0
 13 38  1  0
 16 39  1  0
 21 40  1  0
 21 41  1  0
 22 42  1  0
 22 43  1  0
 24 44  1  0
 24 45  1  0
 24 46  1  0
 25 47  1  0
 25 48  1  0
 26 49  1  0
 26 50  1  0
M  END
>  <UniqueID>  (50) 
48

>  <SMILES>  (50) 
CCCn1cc(C(=O)c2ccccc2Cl)cc1C(=O)N1CCN(C)CC1

>  <Energy>  (50) 
88.76150980604608

>  <Genealogy>  (50) 
CCCn1cc(C(=O)c2ccccc2Cl)cc1C(=O)N1CCN(C)CC1 (3D coordinates assigned)
CCCn1cc(C(=O)c2ccccc2Cl)cc1C(=O)N1CCN(C)CC1 (nonaromatic ring conformer: 88.76150980604608 kcal/mol)

>  <smiles>  (50) 
CCCn1cc(C(=O)c2ccccc2Cl)cc1C(=O)N1CCN(C)CC1

>  <score_type>  (50) 
oracle

>  <origin>  (50) 
adg

>  <m_score__min__energy>  (50) 
-8.7899999999999991

>  <m_primary>  (50) 
energy

$$$$
50:0
     RDKit          3D

 54 58  0  0  0  0  0  0  0  0999 V2000
   58.4702   28.7383   43.1963 H   0  0  0  0  0  0  0  0  0  0  0  0
   58.1690   27.8010   43.6870 C   0  0  0  0  0  0  0  0  0  0  0  0
   57.6935   27.0012   43.1003 H   0  0  0  0  0  0  0  0  0  0  0  0
   58.3820   27.6330   45.0040 C   0  0  0  0  0  0  0  0  0  0  0  0
   58.0500   26.4940   45.7570 C   0  0  0  0  0  0  0  0  0  0  0  0
   57.6770   25.2570   45.3750 C   0  0  0  0  0  0  0  0  0  0  0  0
   58.4270   24.6447   44.8530 H   0  0  0  0  0  0  0  0  0  0  0  0
   56.3520   24.6540   45.5960 C   0  0  0  0  0  0  0  0  0  0  0  0
   56.1170   23.3320   45.6900 N   0  0  0  0  0  0  0  0  0  0  0  0
   54.8100   23.2710   46.0280 C   0  0  0  0  0  0  0  0  0  0  0  0
   54.2040   22.1820   46.1960 O   0  0  0  0  0  0  0  0  0  0  0  0
   54.2090   24.4700   46.1840 N   0  0  0  0  0  0  0  0  0  0  0  0
   55.2030   25.3330   45.9210 C   0  0  0  0  0  0  0  0  0  0  0  0
   55.0650   26.7130   45.9820 O   0  0  0  0  0  0  0  0  0  0  0  0
   58.2020   26.8470   47.0840 C   0  0  0  0  0  0  0  0  0  0  0  0
   57.9674   26.2236   47.9594 H   0  0  0  0  0  0  0  0  0  0  0  0
   58.7040   28.1300   47.1000 C   0  0  0  0  0  0  0  0  0  0  0  0
   59.0740   28.8430   48.3390 C   0  0  0  0  0  0  0  0  0  0  0  0
   58.1570   29.2480   49.0980 O   0  0  0  0  0  0  0  0  0  0  0  0
   60.4400   29.0930   48.7110 N   0  0  0  0  0  0  0  0  0  0  0  0
   61.0740   30.2250   48.6110 C   0  0  0  0  0  0  0  0  0  0  0  0
   61.7900   30.5920   47.5150 N   0  0  0  0  0  0  0  0  0  0  0  0
   62.2530   31.7990   47.8660 C   0  0  0  0  0  0  0  0  0  0  0  0
   63.0530   32.6560   47.1150 C   0  0  0  0  0  0  0  0  0  0  0  0
   63.3881   32.3821   46.1037 H   0  0  0  0  0  0  0  0  0  0  0  0
   63.4180   33.8860   47.6960 C   0  0  0  0  0  0  0  0  0  0  0  0
   64.0484   34.5910   47.1342 H   0  0  0  0  0  0  0  0  0  0  0  0
   62.9780   34.2190   48.9980 C   0  0  0  0  0  0  0  0  0  0  0  0
   63.2689   35.1816   49.4439 H   0  0  0  0  0  0  0  0  0  0  0  0
   62.1700   33.3260   49.7270 C   0  0  0  0  0  0  0  0  0  0  0  0
   61.8204   33.5718   50.7406 H   0  0  0  0  0  0  0  0  0  0  0  0
   61.8290   32.1200   49.1190 C   0  0  0  0  0  0  0  0  0  0  0  0
   61.0760   31.1310   49.6230 N   0  0  0  0  0  0  0  0  0  0  0  0
   58.8100   28.6220   45.8400 N   0  0  0  0  0  0  0  0  0  0  0  0
   59.2060   30.0010   45.4930 C   0  0  0  0  0  0  0  0  0  0  0  0
   60.1311   30.2504   46.0333 H   0  0  0  0  0  0  0  0  0  0  0  0
   59.3537   30.0457   44.4039 H   0  0  0  0  0  0  0  0  0  0  0  0
   58.1170   31.0340   45.8670 C   0  0  0  0  0  0  0  0  0  0  0  0
   57.3239   30.5111   46.4215 H   0  0  0  0  0  0  0  0  0  0  0  0
   58.7290   32.1260   46.7880 C   0  0  0  0  0  0  0  0  0  0  0  0
   58.6944   31.7730   47.8293 H   0  0  0  0  0  0  0  0  0  0  0  0
   59.7648   32.3039   46.4632 H   0  0  0  0  0  0  0  0  0  0  0  0
   57.9670   33.4510   46.6890 C   0  0  0  0  0  0  0  0  0  0  0  0
   56.9165   33.2814   46.9679 H   0  0  0  0  0  0  0  0  0  0  0  0
   58.4398   34.1740   47.3700 H   0  0  0  0  0  0  0  0  0  0  0  0
   58.0200   34.0250   45.2590 C   0  0  0  0  0  0  0  0  0  0  0  0
   57.1191   34.6342   45.0943 H   0  0  0  0  0  0  0  0  0  0  0  0
   58.9432   34.6181   45.1814 H   0  0  0  0  0  0  0  0  0  0  0  0
   58.0830   32.9390   44.1640 C   0  0  0  0  0  0  0  0  0  0  0  0
   57.5689   33.3083   43.2644 H   0  0  0  0  0  0  0  0  0  0  0  0
   59.1407   32.7250   43.9508 H   0  0  0  0  0  0  0  0  0  0  0  0
   57.4130   31.6400   44.6220 C   0  0  0  0  0  0  0  0  0  0  0  0
   56.3633   31.8508   44.8743 H   0  0  0  0  0  0  0  0  0  0  0  0
   57.4844   30.9113   43.8011 H   0  0  0  0  0  0  0  0  0  0  0  0
  1  2  1  0
  2  3  1  0
  2  4  2  0
  4  5  1  0
  5  6  2  0
  6  7  1  0
  6  8  1  0
  8  9  1  0
  9 10  1  0
 10 11  2  0
 10 12  1  0
 12 13  1  0
 13 14  1  0
  5 15  1  0
 15 16  1  0
 15 17  2  0
 17 18  1  0
 18 19  2  0
 18 20  1  0
 20 21  2  3
 21 22  1  0
 22 23  1  0
 23 24  2  0
 24 25  1  0
 24 26  1  0
 26 27  1  0
 26 28  2  0
 28 29  1  0
 28 30  1  0
 30 31  1  0
 30 32  2  0
 32 33  1  0
 17 34  1  0
 34 35  1  0
 35 36  1  0
 35 37  1  0
 35 38  1  0
 38 39  1  0
 38 40  1  0
 40 41  1  0
 40 42  1  0
 40 43  1  0
 43 44  1  0
 43 45  1  0
 43 46  1  0
 46 47  1  0
 46 48  1  0
 46 49  1  0
 49 50  1  0
 49 51  1  0
 49 52  1  0
 52 53  1  0
 52 54  1  0
 34  4  1  0
 52 38  1  0
 13  8  2  0
 33 21  1  0
 32 23  1  0
M  CHG  5   9  -1  12  -1  14  -1  22  -1  33  -1
M  END
>  <UniqueID>  (51) 
49

>  <SMILES>  (51) 
C=c1/c(=C\c2[n-]c(=O)[n-]c2[O-])cc(C(=O)N=c2[n-]c3ccccc3[n-]2)n1CC1CCCCC1

>  <Energy>  (51) 
173.13500875654674

>  <Genealogy>  (51) 
C=c1c(=Cc2[n-]c(=O)[n-]c2[O-])cc(C(=O)N=c2[n-]c3ccccc3[n-]2)n1CC1CCCCC1 (protonated)
C=c1/c(=C\c2[n-]c(=O)[n-]c2[O-])cc(C(=O)N=c2[n-]c3ccccc3[n-]2)n1CC1CCCCC1 (cis-trans isomerization)
C=c1/c(=C\c2[n-]c(=O)[n-]c2[O-])cc(C(=O)N=c2[n-]c3ccccc3[n-]2)n1CC1CCCCC1 (3D coordinates assigned)
C=c1/c(=C\c2[n-]c(=O)[n-]c2[O-])cc(C(=O)N=c2[n-]c3ccccc3[n-]2)n1CC1CCCCC1 (nonaromatic ring conformer: 173.13500875654674 kcal/mol)

>  <smiles>  (51) 
C=c1c(=Cc2[nH]c(=O)[nH]c2O)cc(C(=O)N=c2[nH]c3ccccc3[nH]2)n1CC1CCCCC1

>  <score_type>  (51) 
oracle

>  <origin>  (51) 
adg

>  <m_score__min__energy>  (51) 
-18.82

>  <m_primary>  (51) 
energy

$$$$
51:0
     RDKit          3D

 50 52  0  0  0  0  0  0  0  0999 V2000
   57.1222   31.3308   51.9115 H   0  0  0  0  0  0  0  0  0  0  0  0
   56.0400   31.4240   52.0850 C   0  0  0  0  0  0  0  0  0  0  0  0
   55.5376   32.3886   51.9203 H   0  0  0  0  0  0  0  0  0  0  0  0
   55.3320   30.3600   52.4980 C   0  0  0  0  0  0  0  0  0  0  0  0
   53.9520   30.3220   52.7610 C   0  0  0  0  0  0  0  0  0  0  0  0
   52.9720   31.2040   52.4840 C   0  0  0  0  0  0  0  0  0  0  0  0
   52.6935   31.9119   53.2786 H   0  0  0  0  0  0  0  0  0  0  0  0
   52.2420   31.3020   51.2100 C   0  0  0  0  0  0  0  0  0  0  0  0
   52.2280   30.3480   50.2590 N   0  0  0  0  0  0  0  0  0  0  0  0
   51.3330   30.8160   49.3630 C   0  0  0  0  0  0  0  0  0  0  0  0
   51.0470   30.1980   48.3040 O   0  0  0  0  0  0  0  0  0  0  0  0
   50.7580   31.9920   49.6960 N   0  0  0  0  0  0  0  0  0  0  0  0
   51.3350   32.2760   50.8740 C   0  0  0  0  0  0  0  0  0  0  0  0
   51.0380   33.4050   51.6280 O   0  0  0  0  0  0  0  0  0  0  0  0
   53.7130   29.1160   53.3960 C   0  0  0  0  0  0  0  0  0  0  0  0
   52.7483   28.7629   53.7892 H   0  0  0  0  0  0  0  0  0  0  0  0
   54.9150   28.4410   53.4420 C   0  0  0  0  0  0  0  0  0  0  0  0
   55.0970   27.0700   54.0180 C   0  0  0  0  0  0  0  0  0  0  0  0
   55.0891   27.1297   55.1164 H   0  0  0  0  0  0  0  0  0  0  0  0
   54.2774   26.4186   53.6803 H   0  0  0  0  0  0  0  0  0  0  0  0
   56.0581   26.6550   53.6803 H   0  0  0  0  0  0  0  0  0  0  0  0
   55.8960   29.1830   52.8770 N   0  0  0  0  0  0  0  0  0  0  0  0
   57.3190   28.8120   52.8260 C   0  0  0  0  0  0  0  0  0  0  0  0
   57.4244   27.7466   53.0787 H   0  0  0  0  0  0  0  0  0  0  0  0
   57.6993   29.0009   51.8113 H   0  0  0  0  0  0  0  0  0  0  0  0
   58.1280   29.6480   53.8210 C   0  0  0  0  0  0  0  0  0  0  0  0
   57.8075   30.6984   53.7580 H   0  0  0  0  0  0  0  0  0  0  0  0
   57.9555   29.2628   54.8368 H   0  0  0  0  0  0  0  0  0  0  0  0
   59.5090   29.5620   53.5230 O   0  0  0  0  0  0  0  0  0  0  0  0
   59.7350   29.4770   52.1260 C   0  0  0  0  0  0  0  0  0  0  0  0
   60.6836   28.9500   51.9460 H   0  0  0  0  0  0  0  0  0  0  0  0
   58.8984   28.9296   51.6673 H   0  0  0  0  0  0  0  0  0  0  0  0
   59.8100   30.8800   51.4950 C   0  0  0  0  0  0  0  0  0  0  0  0
   60.5647   30.8671   50.6949 H   0  0  0  0  0  0  0  0  0  0  0  0
   58.8112   31.1249   51.1047 H   0  0  0  0  0  0  0  0  0  0  0  0
   60.1800   31.9310   52.4840 N   0  0  0  0  0  0  0  0  0  0  0  0
   60.5410   31.4630   53.3490 H   0  0  0  0  0  0  0  0  0  0  0  0
   61.2850   32.7770   51.9820 C   0  0  0  0  0  0  0  0  0  0  0  0
   61.6432   33.4176   52.8014 H   0  0  0  0  0  0  0  0  0  0  0  0
   62.0844   32.1143   51.6189 H   0  0  0  0  0  0  0  0  0  0  0  0
   60.8340   33.6750   50.8050 C   0  0  0  0  0  0  0  0  0  0  0  0
   61.2823   34.6712   50.9338 H   0  0  0  0  0  0  0  0  0  0  0  0
   61.1674   33.1883   49.8766 H   0  0  0  0  0  0  0  0  0  0  0  0
   59.4260   33.8220   50.7210 O   0  0  0  0  0  0  0  0  0  0  0  0
   58.8830   34.0410   52.0040 C   0  0  0  0  0  0  0  0  0  0  0  0
   59.4201   34.8706   52.4870 H   0  0  0  0  0  0  0  0  0  0  0  0
   57.8161   34.2876   51.9000 H   0  0  0  0  0  0  0  0  0  0  0  0
   59.0180   32.7740   52.8750 C   0  0  0  0  0  0  0  0  0  0  0  0
   59.1420   33.0796   53.9244 H   0  0  0  0  0  0  0  0  0  0  0  0
   58.1078   32.1732   52.7318 H   0  0  0  0  0  0  0  0  0  0  0  0
  1  2  1  0
  2  3  1  0
  2  4  2  0
  4  5  1  0
  5  6  2  0
  6  7  1  0
  6  8  1  0
  8  9  1  0
  9 10  1  0
 10 11  2  0
 10 12  1  0
 12 13  1  0
 13 14  1  0
  5 15  1  0
 15 16  1  0
 15 17  2  0
 17 18  1  0
 18 19  1  0
 18 20  1  0
 18 21  1  0
 17 22  1  0
 22 23  1  0
 23 24  1  0
 23 25  1  0
 23 26  1  0
 26 27  1  0
 26 28  1  0
 26 29  1  0
 29 30  1  0
 30 31  1  0
 30 32  1  0
 30 33  1  0
 33 34  1  0
 33 35  1  0
 33 36  1  0
 36 37  1  0
 36 38  1  0
 38 39  1  0
 38 40  1  0
 38 41  1  0
 41 42  1  0
 41 43  1  0
 41 44  1  0
 44 45  1  0
 45 46  1  0
 45 47  1  0
 45 48  1  0
 48 49  1  0
 48 50  1  0
 22  4  1  0
 48 36  1  0
 13  8  2  0
M  CHG  4   9  -1  12  -1  14  -1  36   1
M  END
>  <UniqueID>  (52) 
50

>  <SMILES>  (52) 
C=c1/c(=C\c2[n-]c(=O)[n-]c2[O-])cc(C)n1CCOCC[NH+]1CCOCC1

>  <Energy>  (52) 
132.01894808500228

>  <Genealogy>  (52) 
C=c1c(=Cc2[n-]c(=O)[n-]c2[O-])cc(C)n1CCOCC[NH+]1CCOCC1 (protonated)
C=c1/c(=C\c2[n-]c(=O)[n-]c2[O-])cc(C)n1CCOCC[NH+]1CCOCC1 (cis-trans isomerization)
C=c1/c(=C\c2[n-]c(=O)[n-]c2[O-])cc(C)n1CCOCC[NH+]1CCOCC1 (3D coordinates assigned)
C=c1/c(=C\c2[n-]c(=O)[n-]c2[O-])cc(C)n1CCOCC[NH+]1CCOCC1 (nonaromatic ring conformer: 132.01894808500228 kcal/mol)

>  <smiles>  (52) 
C=c1c(=Cc2[nH]c(=O)[nH]c2O)cc(C)n1CCOCCN1CCOCC1

>  <score_type>  (52) 
oracle

>  <origin>  (52) 
adg

>  <m_score__min__energy>  (52) 
-13.550000000000001

>  <m_primary>  (52) 
energy

$$$$
52:0
     RDKit          3D

 27 28  0  0  0  0  0  0  0  0999 V2000
   58.9690   31.9830   48.2630 C   0  0  0  0  0  0  0  0  0  0  0  0
   58.6660   31.8290   46.9720 C   0  0  0  0  0  0  0  0  0  0  0  0
   57.8190   32.7650   46.3700 O   0  0  0  0  0  0  0  0  0  0  0  0
   57.4120   32.6670   45.0330 C   0  0  0  0  0  0  0  0  0  0  0  0
   57.6650   31.5750   44.2970 C   0  0  0  0  0  0  0  0  0  0  0  0
   57.3350   31.6100   42.8900 C   0  0  0  0  0  0  0  0  0  0  0  0
   57.0740   31.6390   41.7630 N   0  0  0  0  0  0  0  0  0  0  0  0
   58.3790   30.4120   44.9100 C   0  0  0  0  0  0  0  0  0  0  0  0
   58.2760   29.1420   44.4490 C   0  0  0  0  0  0  0  0  0  0  0  0
   57.6640   28.0160   45.1860 C   0  0  0  0  0  0  0  0  0  0  0  0
   56.2750   27.9640   45.3660 C   0  0  0  0  0  0  0  0  0  0  0  0
   55.4640   28.9900   44.8890 O   0  0  0  0  0  0  0  0  0  0  0  0
   55.7110   26.9110   46.0160 N   0  0  0  0  0  0  0  0  0  0  0  0
   56.4780   25.8900   46.4870 C   0  0  0  0  0  0  0  0  0  0  0  0
   55.9430   24.9240   47.0920 O   0  0  0  0  0  0  0  0  0  0  0  0
   57.8220   25.9070   46.3000 N   0  0  0  0  0  0  0  0  0  0  0  0
   58.4300   26.9360   45.6560 C   0  0  0  0  0  0  0  0  0  0  0  0
   59.6770   26.9050   45.4800 O   0  0  0  0  0  0  0  0  0  0  0  0
   59.1590   30.6960   46.1460 C   0  0  0  0  0  0  0  0  0  0  0  0
   60.3020   30.0490   46.4290 C   0  0  0  0  0  0  0  0  0  0  0  0
   59.6329   31.2617   48.7620 H   0  0  0  0  0  0  0  0  0  0  0  0
   58.5548   32.8312   48.8278 H   0  0  0  0  0  0  0  0  0  0  0  0
   56.8707   33.5079   44.5750 H   0  0  0  0  0  0  0  0  0  0  0  0
   58.6796   28.9323   43.4474 H   0  0  0  0  0  0  0  0  0  0  0  0
   54.6760   26.8880   46.1560 H   0  0  0  0  0  0  0  0  0  0  0  0
   60.8531   30.2839   47.3516 H   0  0  0  0  0  0  0  0  0  0  0  0
   60.6867   29.2843   45.7381 H   0  0  0  0  0  0  0  0  0  0  0  0
  1  2  2  0
  2  3  1  0
  3  4  1  0
  4  5  2  0
  5  6  1  0
  6  7  3  0
  5  8  1  0
  8  9  2  3
  9 10  1  0
 10 11  2  0
 11 12  1  0
 11 13  1  0
 13 14  1  0
 14 15  2  0
 14 16  1  0
 16 17  1  0
 17 18  2  0
  8 19  1  0
 19 20  2  0
 19  2  1  0
 17 10  1  0
  1 21  1  0
  1 22  1  0
  4 23  1  0
  9 24  1  0
 13 25  1  0
 20 26  1  0
 20 27  1  0
M  CHG  2  12  -1  16  -1
M  END
>  <UniqueID>  (53) 
51

>  <SMILES>  (53) 
C=C1OC=C(C#N)C(=Cc2c([O-])[nH]c(=O)[n-]c2=O)C1=C

>  <Energy>  (53) 
46.872338616243596

>  <Genealogy>  (53) 
C=C1OC=C(C#N)C(=Cc2c([O-])[nH]c(=O)[n-]c2=O)C1=C (protonated)
C=C1OC=C(C#N)C(=Cc2c([O-])[nH]c(=O)[n-]c2=O)C1=C (3D coordinates assigned)
C=C1OC=C(C#N)C(=Cc2c([O-])[nH]c(=O)[n-]c2=O)C1=C (nonaromatic ring conformer: 46.872338616243596 kcal/mol)

>  <smiles>  (53) 
C=C1OC=C(C#N)C(=Cc2c(O)[nH]c(=O)[nH]c2=O)C1=C

>  <score_type>  (53) 
oracle

>  <origin>  (53) 
adg

>  <m_score__min__energy>  (53) 
-12.44

>  <m_primary>  (53) 
energy

$$$$
53:0
     RDKit          3D

 67 71  0  0  0  0  0  0  0  0999 V2000
   61.7870   32.7530   46.6130 O   0  0  0  0  0  0  0  0  0  0  0  0
   61.4960   32.7100   47.8390 C   0  0  0  0  0  0  0  0  0  0  0  0
   61.9170   33.8370   48.7350 C   0  0  0  0  0  0  0  0  0  0  0  0
   63.1520   33.4660   49.5110 C   0  0  0  0  0  0  0  0  0  0  0  0
   63.4890   34.1680   50.6800 C   0  0  0  0  0  0  0  0  0  0  0  0
   64.6520   33.8440   51.3860 C   0  0  0  0  0  0  0  0  0  0  0  0
   65.4910   32.8220   50.9260 C   0  0  0  0  0  0  0  0  0  0  0  0
   65.1670   32.1260   49.7580 C   0  0  0  0  0  0  0  0  0  0  0  0
   64.0050   32.4490   49.0480 C   0  0  0  0  0  0  0  0  0  0  0  0
   60.8260   31.5630   48.3860 N   0  0  0  0  0  0  0  0  0  0  0  0
   60.2480   30.5310   47.5740 C   0  0  0  0  0  0  0  0  0  0  0  0
   60.8610   30.1810   46.3640 C   0  0  0  0  0  0  0  0  0  0  0  0
   60.3040   29.1890   45.5520 C   0  0  0  0  0  0  0  0  0  0  0  0
   59.1370   28.5150   45.9480 C   0  0  0  0  0  0  0  0  0  0  0  0
   58.5170   27.5480   45.0710 N   0  0  0  0  0  0  0  0  0  0  0  0
   58.5100   26.1250   45.4590 C   0  0  0  0  0  0  0  0  0  0  0  0
   57.1140   25.5020   45.2960 C   0  0  0  0  0  0  0  0  0  0  0  0
   57.1700   24.1400   44.6490 C   0  0  0  0  0  0  0  0  0  0  0  0
   56.2790   23.8100   43.6110 C   0  0  0  0  0  0  0  0  0  0  0  0
   56.3800   22.5770   42.9630 C   0  0  0  0  0  0  0  0  0  0  0  0
   57.3570   21.6570   43.3540 C   0  0  0  0  0  0  0  0  0  0  0  0
   58.2280   21.9660   44.4010 C   0  0  0  0  0  0  0  0  0  0  0  0
   58.1390   23.2020   45.0470 C   0  0  0  0  0  0  0  0  0  0  0  0
   57.7730   27.9660   43.9060 C   0  0  0  0  0  0  0  0  0  0  0  0
   58.0520   27.4790   42.7760 O   0  0  0  0  0  0  0  0  0  0  0  0
   56.6500   28.9650   44.0010 C   0  0  0  0  0  0  0  0  0  0  0  0
   57.1760   30.3250   44.0050 N   0  0  0  0  0  0  0  0  0  0  0  0
   57.3770   31.0520   42.9200 N   0  0  0  0  0  0  0  0  0  0  0  0
   57.8940   32.2170   43.2750 N   0  0  0  0  0  0  0  0  0  0  0  0
   58.0000   32.1570   44.6200 C   0  0  0  0  0  0  0  0  0  0  0  0
   58.5120   33.2550   45.4670 C   0  0  0  0  0  0  0  0  0  0  0  0
   59.2040   34.3360   44.8920 C   0  0  0  0  0  0  0  0  0  0  0  0
   59.6580   35.3890   45.6920 C   0  0  0  0  0  0  0  0  0  0  0  0
   59.4360   35.3680   47.0710 C   0  0  0  0  0  0  0  0  0  0  0  0
   58.7560   34.2940   47.6530 C   0  0  0  0  0  0  0  0  0  0  0  0
   58.2880   33.2460   46.8570 C   0  0  0  0  0  0  0  0  0  0  0  0
   57.5590   30.9740   45.0920 N   0  0  0  0  0  0  0  0  0  0  0  0
   58.5520   28.8340   47.1850 C   0  0  0  0  0  0  0  0  0  0  0  0
   59.1010   29.8370   47.9900 C   0  0  0  0  0  0  0  0  0  0  0  0
   62.1288   34.7257   48.1224 H   0  0  0  0  0  0  0  0  0  0  0  0
   61.1033   34.0480   49.4445 H   0  0  0  0  0  0  0  0  0  0  0  0
   62.8357   34.9757   51.0416 H   0  0  0  0  0  0  0  0  0  0  0  0
   64.9079   34.3930   52.3042 H   0  0  0  0  0  0  0  0  0  0  0  0
   66.4044   32.5670   51.4833 H   0  0  0  0  0  0  0  0  0  0  0  0
   65.8263   31.3232   49.3963 H   0  0  0  0  0  0  0  0  0  0  0  0
   63.7582   31.9051   48.1243 H   0  0  0  0  0  0  0  0  0  0  0  0
   60.8550   31.4170   49.4220 H   0  0  0  0  0  0  0  0  0  0  0  0
   61.7851   30.6893   46.0514 H   0  0  0  0  0  0  0  0  0  0  0  0
   60.7833   28.9341   44.5953 H   0  0  0  0  0  0  0  0  0  0  0  0
   59.2217   25.5779   44.8233 H   0  0  0  0  0  0  0  0  0  0  0  0
   58.7968   26.0554   46.5187 H   0  0  0  0  0  0  0  0  0  0  0  0
   56.6517   25.4037   46.2893 H   0  0  0  0  0  0  0  0  0  0  0  0
   56.5236   26.1620   44.6434 H   0  0  0  0  0  0  0  0  0  0  0  0
   55.5002   24.5257   43.3089 H   0  0  0  0  0  0  0  0  0  0  0  0
   55.6894   22.3294   42.1434 H   0  0  0  0  0  0  0  0  0  0  0  0
   57.4398   20.6896   42.8370 H   0  0  0  0  0  0  0  0  0  0  0  0
   58.9860   21.2346   44.7180 H   0  0  0  0  0  0  0  0  0  0  0  0
   58.8291   23.4418   45.8693 H   0  0  0  0  0  0  0  0  0  0  0  0
   55.9791   28.8388   43.1384 H   0  0  0  0  0  0  0  0  0  0  0  0
   56.0993   28.7935   44.9377 H   0  0  0  0  0  0  0  0  0  0  0  0
   59.3889   34.3531   43.8078 H   0  0  0  0  0  0  0  0  0  0  0  0
   60.1910   36.2356   45.2346 H   0  0  0  0  0  0  0  0  0  0  0  0
   59.7961   36.1963   47.6988 H   0  0  0  0  0  0  0  0  0  0  0  0
   58.5892   34.2743   48.7401 H   0  0  0  0  0  0  0  0  0  0  0  0
   57.7420   32.4098   47.3182 H   0  0  0  0  0  0  0  0  0  0  0  0
   57.6566   28.2914   47.5223 H   0  0  0  0  0  0  0  0  0  0  0  0
   58.6317   30.0833   48.9539 H   0  0  0  0  0  0  0  0  0  0  0  0
  1  2  2  0
  2  3  1  0
  3  4  1  0
  4  5  2  0
  5  6  1  0
  6  7  2  0
  7  8  1  0
  8  9  2  0
  2 10  1  0
 10 11  1  0
 11 12  2  0
 12 13  1  0
 13 14  2  0
 14 15  1  0
 15 16  1  0
 16 17  1  0
 17 18  1  0
 18 19  2  0
 19 20  1  0
 20 21  2  0
 21 22  1  0
 22 23  2  0
 15 24  1  0
 24 25  2  0
 24 26  1  0
 26 27  1  0
 27 28  1  0
 28 29  2  0
 29 30  1  0
 30 31  1  0
 31 32  2  0
 32 33  1  0
 33 34  2  0
 34 35  1  0
 35 36  2  0
 30 37  2  0
 14 38  1  0
 38 39  2  0
  9  4  1  0
 39 11  1  0
 23 18  1  0
 37 27  1  0
 36 31  1  0
  3 40  1  0
  3 41  1  0
  5 42  1  0
  6 43  1  0
  7 44  1  0
  8 45  1  0
  9 46  1  0
 10 47  1  0
 12 48  1  0
 13 49  1  0
 16 50  1  0
 16 51  1  0
 17 52  1  0
 17 53  1  0
 19 54  1  0
 20 55  1  0
 21 56  1  0
 22 57  1  0
 23 58  1  0
 26 59  1  0
 26 60  1  0
 32 61  1  0
 33 62  1  0
 34 63  1  0
 35 64  1  0
 36 65  1  0
 38 66  1  0
 39 67  1  0
M  END
>  <UniqueID>  (54) 
52

>  <SMILES>  (54) 
O=C(Cc1ccccc1)Nc1ccc(N(CCc2ccccc2)C(=O)Cn2nnc(-c3ccccc3)n2)cc1

>  <Energy>  (54) 
114.17740498456821

>  <Genealogy>  (54) 
O=C(Cc1ccccc1)Nc1ccc(N(CCc2ccccc2)C(=O)Cn2nnc(-c3ccccc3)n2)cc1 (3D coordinates assigned)
O=C(Cc1ccccc1)Nc1ccc(N(CCc2ccccc2)C(=O)Cn2nnc(-c3ccccc3)n2)cc1 (optimized conformer: 114.17740498456821 kcal/mol)

>  <smiles>  (54) 
O=C(Cc1ccccc1)Nc1ccc(N(CCc2ccccc2)C(=O)Cn2nnc(-c3ccccc3)n2)cc1

>  <score_type>  (54) 
oracle

>  <origin>  (54) 
adg

>  <m_score__min__energy>  (54) 
-11.4

>  <m_primary>  (54) 
energy

$$$$
54:0
     RDKit          3D

 22 23  0  0  0  0  0  0  0  0999 V2000
   54.3750   26.7210   46.7320 H   0  0  0  0  0  0  0  0  0  0  0  0
   55.0290   26.2900   46.0400 N   0  0  0  0  0  0  0  0  0  0  0  0
   56.2310   26.7400   45.8720 C   0  0  0  0  0  0  0  0  0  0  0  0
   56.4430   28.0730   45.7220 N   0  0  0  0  0  0  0  0  0  0  0  0
   57.6920   28.5790   45.5440 C   0  0  0  0  0  0  0  0  0  0  0  0
   57.8500   30.0390   45.3740 C   0  0  0  0  0  0  0  0  0  0  0  0
   58.5440   30.7790   46.3460 C   0  0  0  0  0  0  0  0  0  0  0  0
   58.9460   30.2712   47.2351 H   0  0  0  0  0  0  0  0  0  0  0  0
   58.7270   32.1550   46.1910 C   0  0  0  0  0  0  0  0  0  0  0  0
   59.2663   32.7273   46.9602 H   0  0  0  0  0  0  0  0  0  0  0  0
   58.2260   32.8060   45.0600 C   0  0  0  0  0  0  0  0  0  0  0  0
   58.4570   34.5340   44.8670 Cl  0  0  0  0  0  0  0  0  0  0  0  0
   57.5410   32.0780   44.0810 C   0  0  0  0  0  0  0  0  0  0  0  0
   57.1484   32.5918   43.1911 H   0  0  0  0  0  0  0  0  0  0  0  0
   57.3530   30.6980   44.2290 C   0  0  0  0  0  0  0  0  0  0  0  0
   56.4570   29.8360   42.9830 Cl  0  0  0  0  0  0  0  0  0  0  0  0
   58.7930   27.7050   45.5210 C   0  0  0  0  0  0  0  0  0  0  0  0
   60.4480   28.2980   45.3600 Cl  0  0  0  0  0  0  0  0  0  0  0  0
   58.5540   26.3340   45.6760 C   0  0  0  0  0  0  0  0  0  0  0  0
   59.5150   25.5160   45.6640 O   0  0  0  0  0  0  0  0  0  0  0  0
   57.2830   25.8780   45.8450 N   0  0  0  0  0  0  0  0  0  0  0  0
   57.1160   24.8510   45.9600 H   0  0  0  0  0  0  0  0  0  0  0  0
  1  2  1  0
  2  3  2  0
  3  4  1  0
  4  5  1  0
  5  6  1  0
  6  7  2  0
  7  8  1  0
  7  9  1  0
  9 10  1  0
  9 11  2  0
 11 12  1  0
 11 13  1  0
 13 14  1  0
 13 15  2  0
 15 16  1  0
  5 17  2  0
 17 18  1  0
 17 19  1  0
 19 20  2  0
 19 21  1  0
 21 22  1  0
 21  3  1  0
 15  6  1  0
M  CHG  1   4  -1
M  END
>  <UniqueID>  (55) 
53

>  <SMILES>  (55) 
[H]/N=c1\[n-]c(-c2ccc(Cl)cc2Cl)c(Cl)c(=O)[nH]1

>  <Energy>  (55) 
32.33402680677275

>  <Genealogy>  (55) 
N=c1[n-]c(-c2ccc(Cl)cc2Cl)c(Cl)c(=O)[nH]1 (protonated)
[H]/N=c1\[n-]c(-c2ccc(Cl)cc2Cl)c(Cl)c(=O)[nH]1 (cis-trans isomerization)
[H]/N=c1\[n-]c(-c2ccc(Cl)cc2Cl)c(Cl)c(=O)[nH]1 (3D coordinates assigned)
[H]/N=c1\[n-]c(-c2ccc(Cl)cc2Cl)c(Cl)c(=O)[nH]1 (optimized conformer: 32.33402680677275 kcal/mol)

>  <smiles>  (55) 
N=c1[nH]c(-c2ccc(Cl)cc2Cl)c(Cl)c(=O)[nH]1

>  <score_type>  (55) 
oracle

>  <origin>  (55) 
adg

>  <m_score__min__energy>  (55) 
-9.3499999999999996

>  <m_primary>  (55) 
energy

$$$$
55:0
     RDKit          3D

 57 60  0  0  0  0  0  0  0  0999 V2000
   58.0230   26.3710   43.1640 O   0  0  0  0  0  0  0  0  0  0  0  0
   57.8890   27.4690   43.7700 C   0  0  0  0  0  0  0  0  0  0  0  0
   57.1820   28.5980   43.0690 C   0  0  0  0  0  0  0  0  0  0  0  0
   56.0250   29.4430   44.2020 S   0  0  0  0  0  0  0  0  0  0  0  0
   56.8930   31.0090   44.1470 C   0  0  0  0  0  0  0  0  0  0  0  0
   57.0350   31.7460   45.2780 N   0  0  0  0  0  0  0  0  0  0  0  0
   57.6940   32.9360   45.2660 C   0  0  0  0  0  0  0  0  0  0  0  0
   57.7850   33.7470   46.5250 C   0  0  0  0  0  0  0  0  0  0  0  0
   59.1920   33.7180   47.0550 C   0  0  0  0  0  0  0  0  0  0  0  0
   60.1120   32.7740   46.5670 C   0  0  0  0  0  0  0  0  0  0  0  0
   61.4120   32.7250   47.0840 C   0  0  0  0  0  0  0  0  0  0  0  0
   61.7970   33.6090   48.0960 C   0  0  0  0  0  0  0  0  0  0  0  0
   60.8820   34.5420   48.5960 C   0  0  0  0  0  0  0  0  0  0  0  0
   59.5830   34.5940   48.0810 C   0  0  0  0  0  0  0  0  0  0  0  0
   58.2160   33.4220   44.0610 C   0  0  0  0  0  0  0  0  0  0  0  0
   58.0560   32.6520   42.9080 C   0  0  0  0  0  0  0  0  0  0  0  0
   58.5140   33.0570   41.8070 O   0  0  0  0  0  0  0  0  0  0  0  0
   57.3990   31.4650   42.9710 N   0  0  0  0  0  0  0  0  0  0  0  0
   58.3880   27.6020   45.1150 N   0  0  0  0  0  0  0  0  0  0  0  0
   58.8340   28.9040   45.6350 C   0  0  0  0  0  0  0  0  0  0  0  0
   60.0700   28.7700   46.5450 C   0  0  0  0  0  0  0  0  0  0  0  0
   60.1020   27.4750   47.4050 C   0  0  0  0  0  0  0  0  0  0  0  0
   60.6020   27.7450   48.8420 C   0  0  0  0  0  0  0  0  0  0  0  0
   60.2270   29.1280   49.3150 C   0  0  0  0  0  0  0  0  0  0  0  0
   61.2140   30.0210   49.7660 C   0  0  0  0  0  0  0  0  0  0  0  0
   60.8560   31.2960   50.2150 C   0  0  0  0  0  0  0  0  0  0  0  0
   59.5140   31.6900   50.2210 C   0  0  0  0  0  0  0  0  0  0  0  0
   58.5270   30.8060   49.7790 C   0  0  0  0  0  0  0  0  0  0  0  0
   58.8790   29.5290   49.3270 C   0  0  0  0  0  0  0  0  0  0  0  0
   58.7320   26.7800   47.4350 C   0  0  0  0  0  0  0  0  0  0  0  0
   58.2950   26.4380   46.0080 C   0  0  0  0  0  0  0  0  0  0  0  0
   57.9277   29.3222   42.7092 H   0  0  0  0  0  0  0  0  0  0  0  0
   56.6101   28.1854   42.2248 H   0  0  0  0  0  0  0  0  0  0  0  0
   57.4981   34.7869   46.3099 H   0  0  0  0  0  0  0  0  0  0  0  0
   57.1064   33.3210   47.2787 H   0  0  0  0  0  0  0  0  0  0  0  0
   59.8095   32.0715   45.7764 H   0  0  0  0  0  0  0  0  0  0  0  0
   62.1313   31.9901   46.6934 H   0  0  0  0  0  0  0  0  0  0  0  0
   62.8196   33.5712   48.4994 H   0  0  0  0  0  0  0  0  0  0  0  0
   61.1847   35.2351   49.3948 H   0  0  0  0  0  0  0  0  0  0  0  0
   58.8642   35.3242   48.4811 H   0  0  0  0  0  0  0  0  0  0  0  0
   58.7401   34.3884   44.0240 H   0  0  0  0  0  0  0  0  0  0  0  0
   59.0867   29.5573   44.7869 H   0  0  0  0  0  0  0  0  0  0  0  0
   58.0154   29.3286   46.2346 H   0  0  0  0  0  0  0  0  0  0  0  0
   60.9674   28.7820   45.9090 H   0  0  0  0  0  0  0  0  0  0  0  0
   60.0308   29.6127   47.2509 H   0  0  0  0  0  0  0  0  0  0  0  0
   60.8206   26.7972   46.9211 H   0  0  0  0  0  0  0  0  0  0  0  0
   60.1546   27.0033   49.5200 H   0  0  0  0  0  0  0  0  0  0  0  0
   61.6994   27.6693   48.8422 H   0  0  0  0  0  0  0  0  0  0  0  0
   62.2709   29.7162   49.7658 H   0  0  0  0  0  0  0  0  0  0  0  0
   61.6328   31.9918   50.5648 H   0  0  0  0  0  0  0  0  0  0  0  0
   59.2363   32.6944   50.5732 H   0  0  0  0  0  0  0  0  0  0  0  0
   57.4710   31.1140   49.7862 H   0  0  0  0  0  0  0  0  0  0  0  0
   58.0983   28.8363   48.9798 H   0  0  0  0  0  0  0  0  0  0  0  0
   58.8039   25.8555   48.0268 H   0  0  0  0  0  0  0  0  0  0  0  0
   57.9917   27.4540   47.8908 H   0  0  0  0  0  0  0  0  0  0  0  0
   58.9426   25.6383   45.6193 H   0  0  0  0  0  0  0  0  0  0  0  0
   57.2440   26.1149   46.0403 H   0  0  0  0  0  0  0  0  0  0  0  0
  1  2  2  0
  2  3  1  0
  3  4  1  0
  4  5  1  0
  5  6  2  0
  6  7  1  0
  7  8  1  0
  8  9  1  0
  9 10  2  0
 10 11  1  0
 11 12  2  0
 12 13  1  0
 13 14  2  0
  7 15  2  0
 15 16  1  0
 16 17  2  0
 16 18  1  0
  2 19  1  0
 19 20  1  0
 20 21  1  0
 21 22  1  0
 22 23  1  0
 23 24  1  0
 24 25  2  0
 25 26  1  0
 26 27  2  0
 27 28  1  0
 28 29  2  0
 22 30  1  0
 30 31  1  0
 18  5  1  0
 31 19  1  0
 14  9  1  0
 29 24  1  0
  3 32  1  0
  3 33  1  0
  8 34  1  0
  8 35  1  0
 10 36  1  0
 11 37  1  0
 12 38  1  0
 13 39  1  0
 14 40  1  0
 15 41  1  0
 20 42  1  0
 20 43  1  0
 21 44  1  0
 21 45  1  0
 22 46  1  0
 23 47  1  0
 23 48  1  0
 25 49  1  0
 26 50  1  0
 27 51  1  0
 28 52  1  0
 29 53  1  0
 30 54  1  0
 30 55  1  0
 31 56  1  0
 31 57  1  0
M  CHG  1  18  -1
M  END
>  <UniqueID>  (56) 
54

>  <SMILES>  (56) 
O=C(CSc1nc(Cc2ccccc2)cc(=O)[n-]1)N1CCC(Cc2ccccc2)CC1

>  <Energy>  (56) 
55.59679805910023

>  <Genealogy>  (56) 
O=C(CSc1nc(Cc2ccccc2)cc(=O)[n-]1)N1CCC(Cc2ccccc2)CC1 (protonated)
O=C(CSc1nc(Cc2ccccc2)cc(=O)[n-]1)N1CCC(Cc2ccccc2)CC1 (3D coordinates assigned)
O=C(CSc1nc(Cc2ccccc2)cc(=O)[n-]1)N1CCC(Cc2ccccc2)CC1 (nonaromatic ring conformer: 55.59679805910023 kcal/mol)

>  <smiles>  (56) 
O=C(CSc1nc(Cc2ccccc2)cc(=O)[nH]1)N1CCC(Cc2ccccc2)CC1

>  <score_type>  (56) 
oracle

>  <origin>  (56) 
adg

>  <m_score__min__energy>  (56) 
-11.17

>  <m_primary>  (56) 
energy

$$$$
56:0
     RDKit          3D

 45 47  0  0  0  0  0  0  0  0999 V2000
   55.6990   22.9590   43.6170 C   0  0  0  0  0  0  0  0  0  0  0  0
   56.0630   24.1930   44.3890 C   0  0  0  0  0  0  0  0  0  0  0  0
   57.3310   24.7690   44.2460 C   0  0  0  0  0  0  0  0  0  0  0  0
   57.6790   25.8900   45.0010 C   0  0  0  0  0  0  0  0  0  0  0  0
   56.7570   26.4260   45.9080 C   0  0  0  0  0  0  0  0  0  0  0  0
   57.0980   27.4580   46.6240 N   0  0  0  0  0  0  0  0  0  0  0  0
   57.4180   28.7790   46.1510 C   0  0  0  0  0  0  0  0  0  0  0  0
   56.6990   29.3400   45.2790 O   0  0  0  0  0  0  0  0  0  0  0  0
   58.6010   29.4870   46.6950 C   0  0  0  0  0  0  0  0  0  0  0  0
   58.8900   29.4410   48.0690 C   0  0  0  0  0  0  0  0  0  0  0  0
   59.9930   30.1250   48.5890 C   0  0  0  0  0  0  0  0  0  0  0  0
   60.8380   30.8610   47.7410 C   0  0  0  0  0  0  0  0  0  0  0  0
   61.9930   31.5550   48.2420 N   0  0  0  0  0  0  0  0  0  0  0  0
   62.3260   33.2270   47.9160 S   0  0  0  0  0  0  0  0  0  0  0  0
   62.5780   33.3910   46.4420 O   0  0  0  0  0  0  0  0  0  0  0  0
   63.5540   33.6620   48.6680 O   0  0  0  0  0  0  0  0  0  0  0  0
   60.9130   34.2150   48.3780 C   0  0  0  0  0  0  0  0  0  0  0  0
   59.8150   34.0870   47.3610 C   0  0  0  0  0  0  0  0  0  0  0  0
   59.9440   34.6930   46.0990 C   0  0  0  0  0  0  0  0  0  0  0  0
   58.9240   34.5710   45.1520 C   0  0  0  0  0  0  0  0  0  0  0  0
   57.7640   33.8500   45.4600 C   0  0  0  0  0  0  0  0  0  0  0  0
   57.6200   33.2580   46.7180 C   0  0  0  0  0  0  0  0  0  0  0  0
   58.6390   33.3790   47.6690 C   0  0  0  0  0  0  0  0  0  0  0  0
   60.5650   30.8880   46.3650 C   0  0  0  0  0  0  0  0  0  0  0  0
   59.4470   30.2260   45.8490 C   0  0  0  0  0  0  0  0  0  0  0  0
   55.5300   25.8470   46.0370 N   0  0  0  0  0  0  0  0  0  0  0  0
   55.1690   24.7550   45.3120 C   0  0  0  0  0  0  0  0  0  0  0  0
   55.4591   22.1456   44.3176 H   0  0  0  0  0  0  0  0  0  0  0  0
   54.8241   23.1674   42.9837 H   0  0  0  0  0  0  0  0  0  0  0  0
   56.5470   22.6592   42.9837 H   0  0  0  0  0  0  0  0  0  0  0  0
   58.0537   24.3376   43.5378 H   0  0  0  0  0  0  0  0  0  0  0  0
   58.6716   26.3496   44.8842 H   0  0  0  0  0  0  0  0  0  0  0  0
   58.2420   28.8610   48.7426 H   0  0  0  0  0  0  0  0  0  0  0  0
   60.2006   30.0868   49.6686 H   0  0  0  0  0  0  0  0  0  0  0  0
   62.7490   31.0050   48.7060 H   0  0  0  0  0  0  0  0  0  0  0  0
   60.5400   33.8755   49.3556 H   0  0  0  0  0  0  0  0  0  0  0  0
   61.2228   35.2692   48.4305 H   0  0  0  0  0  0  0  0  0  0  0  0
   60.8514   35.2654   45.8562 H   0  0  0  0  0  0  0  0  0  0  0  0
   59.0324   35.0417   44.1637 H   0  0  0  0  0  0  0  0  0  0  0  0
   56.9648   33.7493   44.7109 H   0  0  0  0  0  0  0  0  0  0  0  0
   56.7054   32.6969   46.9603 H   0  0  0  0  0  0  0  0  0  0  0  0
   58.5202   32.9189   48.6611 H   0  0  0  0  0  0  0  0  0  0  0  0
   61.2364   31.4347   45.6865 H   0  0  0  0  0  0  0  0  0  0  0  0
   59.2273   30.2836   44.7727 H   0  0  0  0  0  0  0  0  0  0  0  0
   54.1722   24.3107   45.4498 H   0  0  0  0  0  0  0  0  0  0  0  0
  1  2  1  0
  2  3  1  0
  3  4  2  0
  4  5  1  0
  5  6  2  3
  6  7  1  0
  7  8  2  0
  7  9  1  0
  9 10  2  0
 10 11  1  0
 11 12  2  0
 12 13  1  0
 13 14  1  0
 14 15  2  0
 14 16  2  0
 14 17  1  0
 17 18  1  0
 18 19  2  0
 19 20  1  0
 20 21  2  0
 21 22  1  0
 22 23  2  0
 12 24  1  0
 24 25  2  0
  5 26  1  0
 26 27  1  0
 27  2  2  0
 25  9  1  0
 23 18  1  0
  1 28  1  0
  1 29  1  0
  1 30  1  0
  3 31  1  0
  4 32  1  0
 10 33  1  0
 11 34  1  0
 13 35  1  0
 17 36  1  0
 17 37  1  0
 19 38  1  0
 20 39  1  0
 21 40  1  0
 22 41  1  0
 23 42  1  0
 24 43  1  0
 25 44  1  0
 27 45  1  0
M  CHG  1  26  -1
M  END
>  <UniqueID>  (57) 
55

>  <SMILES>  (57) 
Cc1ccc(=NC(=O)c2ccc(NS(=O)(=O)Cc3ccccc3)cc2)[n-]c1

>  <Energy>  (57) 
49.592085726329316

>  <Genealogy>  (57) 
Cc1ccc(=NC(=O)c2ccc(NS(=O)(=O)Cc3ccccc3)cc2)[n-]c1 (protonated)
Cc1ccc(=NC(=O)c2ccc(NS(=O)(=O)Cc3ccccc3)cc2)[n-]c1 (3D coordinates assigned)
Cc1ccc(=NC(=O)c2ccc(NS(=O)(=O)Cc3ccccc3)cc2)[n-]c1 (optimized conformer: 49.592085726329316 kcal/mol)

>  <smiles>  (57) 
Cc1ccc(=NC(=O)c2ccc(NS(=O)(=O)Cc3ccccc3)cc2)[nH]c1

>  <score_type>  (57) 
oracle

>  <origin>  (57) 
adg

>  <m_score__min__energy>  (57) 
-10.449999999999999

>  <m_primary>  (57) 
energy

$$$$
57:0
     RDKit          3D

 46 49  0  0  0  0  0  0  0  0999 V2000
   60.1860   28.1410   45.0940 C   0  0  0  0  0  0  0  0  0  0  0  0
   60.0220   28.1830   46.4320 C   0  0  0  0  0  0  0  0  0  0  0  0
   60.4590   29.3250   47.1560 C   0  0  0  0  0  0  0  0  0  0  0  0
   60.9430   30.8730   46.3700 S   0  0  0  0  0  0  0  0  0  0  0  0
   59.6060   31.7980   47.1320 C   0  0  0  0  0  0  0  0  0  0  0  0
   59.7480   32.4120   48.3200 N   0  0  0  0  0  0  0  0  0  0  0  0
   58.6220   33.1060   48.5480 C   0  0  0  0  0  0  0  0  0  0  0  0
   57.7480   32.9540   47.4920 C   0  0  0  0  0  0  0  0  0  0  0  0
   58.3570   32.0990   46.5910 C   0  0  0  0  0  0  0  0  0  0  0  0
   57.7820   31.7300   45.2790 C   0  0  0  0  0  0  0  0  0  0  0  0
   58.2150   32.3030   44.0770 C   0  0  0  0  0  0  0  0  0  0  0  0
   57.6510   31.8600   42.8790 C   0  0  0  0  0  0  0  0  0  0  0  0
   56.7130   30.8810   42.8910 N   0  0  0  0  0  0  0  0  0  0  0  0
   56.3060   30.3270   44.0600 C   0  0  0  0  0  0  0  0  0  0  0  0
   55.4190   29.3900   44.0640 N   0  0  0  0  0  0  0  0  0  0  0  0
   56.8480   30.7460   45.2330 N   0  0  0  0  0  0  0  0  0  0  0  0
   60.5570   29.2750   48.5080 N   0  0  0  0  0  0  0  0  0  0  0  0
   60.2610   28.1610   49.2220 C   0  0  0  0  0  0  0  0  0  0  0  0
   60.3870   28.1920   50.7150 C   0  0  0  0  0  0  0  0  0  0  0  0
   59.7920   29.4800   51.2740 C   0  0  0  0  0  0  0  0  0  0  0  0
   59.7530   27.0350   48.5680 C   0  0  0  0  0  0  0  0  0  0  0  0
   59.5370   27.0560   47.1780 C   0  0  0  0  0  0  0  0  0  0  0  0
   58.8570   26.0080   46.6540 C   0  0  0  0  0  0  0  0  0  0  0  0
   57.4290   26.0040   46.2810 C   0  0  0  0  0  0  0  0  0  0  0  0
   56.6690   24.8930   46.2540 N   0  0  0  0  0  0  0  0  0  0  0  0
   55.4270   25.3680   46.0120 C   0  0  0  0  0  0  0  0  0  0  0  0
   54.4220   24.6170   45.9070 O   0  0  0  0  0  0  0  0  0  0  0  0
   55.3420   26.7110   45.9120 N   0  0  0  0  0  0  0  0  0  0  0  0
   56.6140   27.1000   46.1010 C   0  0  0  0  0  0  0  0  0  0  0  0
   57.0130   28.4300   46.1580 O   0  0  0  0  0  0  0  0  0  0  0  0
   59.8505   27.2607   44.5261 H   0  0  0  0  0  0  0  0  0  0  0  0
   60.6553   28.9871   44.5706 H   0  0  0  0  0  0  0  0  0  0  0  0
   60.5850   32.3750   48.9430 H   0  0  0  0  0  0  0  0  0  0  0  0
   58.4248   33.7087   49.4468 H   0  0  0  0  0  0  0  0  0  0  0  0
   56.7582   33.4221   47.3866 H   0  0  0  0  0  0  0  0  0  0  0  0
   58.9856   33.0880   44.0765 H   0  0  0  0  0  0  0  0  0  0  0  0
   57.9679   32.3057   41.9246 H   0  0  0  0  0  0  0  0  0  0  0  0
   55.5930   28.4710   44.5280 H   0  0  0  0  0  0  0  0  0  0  0  0
   59.8517   27.3309   51.1415 H   0  0  0  0  0  0  0  0  0  0  0  0
   61.4528   28.1464   50.9833 H   0  0  0  0  0  0  0  0  0  0  0  0
   59.8084   29.4446   52.3733 H   0  0  0  0  0  0  0  0  0  0  0  0
   60.3846   30.3389   50.9260 H   0  0  0  0  0  0  0  0  0  0  0  0
   58.7539   29.5856   50.9260 H   0  0  0  0  0  0  0  0  0  0  0  0
   59.5207   26.1269   49.1437 H   0  0  0  0  0  0  0  0  0  0  0  0
   59.4195   25.0767   46.4920 H   0  0  0  0  0  0  0  0  0  0  0  0
   57.1560   28.9570   45.3070 H   0  0  0  0  0  0  0  0  0  0  0  0
  1  2  2  0
  2  3  1  0
  3  4  1  0
  4  5  1  0
  5  6  1  0
  6  7  1  0
  7  8  2  0
  8  9  1  0
  9 10  1  0
 10 11  1  0
 11 12  2  0
 12 13  1  0
 13 14  1  0
 14 15  2  3
 14 16  1  0
  3 17  2  0
 17 18  1  0
 18 19  1  0
 19 20  1  0
 18 21  2  0
 21 22  1  0
 22 23  2  3
 23 24  1  0
 24 25  1  0
 25 26  1  0
 26 27  2  0
 26 28  1  0
 28 29  1  0
 29 30  1  0
 22  2  1  0
 29 24  2  0
  9  5  2  0
 16 10  2  0
  1 31  1  0
  1 32  1  0
  6 33  1  0
  7 34  1  0
  8 35  1  0
 11 36  1  0
 12 37  1  0
 15 38  1  0
 19 39  1  0
 19 40  1  0
 20 41  1  0
 20 42  1  0
 20 43  1  0
 21 44  1  0
 23 45  1  0
 30 46  1  0
M  CHG  3  13  -1  25  -1  28  -1
M  END
>  <UniqueID>  (58) 
56

>  <SMILES>  (58) 
C=c1c(Sc2[nH]ccc2-c2cc[n-]c(=N)n2)nc(CC)cc1=Cc1[n-]c(=O)[n-]c1O

>  <Energy>  (58) 
122.72621107655665

>  <Genealogy>  (58) 
C=c1c(Sc2[nH]ccc2-c2cc[n-]c(=N)n2)nc(CC)cc1=Cc1[n-]c(=O)[n-]c1O (protonated)
C=c1c(Sc2[nH]ccc2-c2cc[n-]c(=N)n2)nc(CC)cc1=Cc1[n-]c(=O)[n-]c1O (3D coordinates assigned)
C=c1c(Sc2[nH]ccc2-c2cc[n-]c(=N)n2)nc(CC)cc1=Cc1[n-]c(=O)[n-]c1O (optimized conformer: 122.72621107655665 kcal/mol)

>  <smiles>  (58) 
C=c1c(Sc2[nH]ccc2-c2cc[nH]c(=N)n2)nc(CC)cc1=Cc1[nH]c(=O)[nH]c1O

>  <score_type>  (58) 
oracle

>  <origin>  (58) 
adg

>  <m_score__min__energy>  (58) 
-15.199999999999999

>  <m_primary>  (58) 
energy

$$$$
58:0
     RDKit          3D

 50 53  0  0  0  0  0  0  0  0999 V2000
   62.3190   33.4850   48.1930 C   0  0  0  0  0  0  0  0  0  0  0  0
   61.0520   33.0770   48.8240 N   0  0  0  0  0  0  0  0  0  0  0  0
   60.1800   34.2220   49.1470 C   0  0  0  0  0  0  0  0  0  0  0  0
   59.6950   34.9620   47.8910 C   0  0  0  0  0  0  0  0  0  0  0  0
   59.2520   34.0170   46.8060 C   0  0  0  0  0  0  0  0  0  0  0  0
   58.5440   34.5220   45.7060 C   0  0  0  0  0  0  0  0  0  0  0  0
   58.1780   33.6820   44.6520 C   0  0  0  0  0  0  0  0  0  0  0  0
   58.5190   32.3220   44.6740 C   0  0  0  0  0  0  0  0  0  0  0  0
   58.1560   31.4900   43.5580 N   0  0  0  0  0  0  0  0  0  0  0  0
   56.8270   30.3720   43.5820 S   0  0  0  0  0  0  0  0  0  0  0  0
   56.2590   30.2450   42.1970 O   0  0  0  0  0  0  0  0  0  0  0  0
   55.7640   30.8990   44.5050 O   0  0  0  0  0  0  0  0  0  0  0  0
   57.3740   28.7850   44.1180 C   0  0  0  0  0  0  0  0  0  0  0  0
   57.7720   27.8200   43.1830 C   0  0  0  0  0  0  0  0  0  0  0  0
   58.1470   26.5420   43.6100 C   0  0  0  0  0  0  0  0  0  0  0  0
   58.1060   26.2090   44.9680 C   0  0  0  0  0  0  0  0  0  0  0  0
   58.4570   24.9100   45.3600 O   0  0  0  0  0  0  0  0  0  0  0  0
   57.9430   23.7350   44.7900 C   0  0  0  0  0  0  0  0  0  0  0  0
   56.5720   23.6580   44.5190 C   0  0  0  0  0  0  0  0  0  0  0  0
   56.0260   22.4980   43.9590 C   0  0  0  0  0  0  0  0  0  0  0  0
   56.8460   21.4010   43.6810 C   0  0  0  0  0  0  0  0  0  0  0  0
   56.3160   20.2770   43.1390 F   0  0  0  0  0  0  0  0  0  0  0  0
   58.2130   21.4610   43.9690 C   0  0  0  0  0  0  0  0  0  0  0  0
   58.7620   22.6190   44.5250 C   0  0  0  0  0  0  0  0  0  0  0  0
   57.7430   27.1890   45.9070 C   0  0  0  0  0  0  0  0  0  0  0  0
   57.3830   28.4710   45.4840 C   0  0  0  0  0  0  0  0  0  0  0  0
   59.2160   31.8110   45.7830 C   0  0  0  0  0  0  0  0  0  0  0  0
   59.6130   32.6540   46.8330 C   0  0  0  0  0  0  0  0  0  0  0  0
   60.3380   32.0640   48.0220 C   0  0  0  0  0  0  0  0  0  0  0  0
   63.0572   33.7227   48.9731 H   0  0  0  0  0  0  0  0  0  0  0  0
   62.6982   32.6636   47.5674 H   0  0  0  0  0  0  0  0  0  0  0  0
   62.1476   34.3734   47.5674 H   0  0  0  0  0  0  0  0  0  0  0  0
   59.3036   33.8535   49.7003 H   0  0  0  0  0  0  0  0  0  0  0  0
   60.7674   34.9316   49.7482 H   0  0  0  0  0  0  0  0  0  0  0  0
   58.8475   35.6072   48.1658 H   0  0  0  0  0  0  0  0  0  0  0  0
   60.5383   35.5506   47.5007 H   0  0  0  0  0  0  0  0  0  0  0  0
   58.2748   35.5880   45.6730 H   0  0  0  0  0  0  0  0  0  0  0  0
   57.6179   34.0904   43.7979 H   0  0  0  0  0  0  0  0  0  0  0  0
   58.7870   31.4550   42.7250 H   0  0  0  0  0  0  0  0  0  0  0  0
   57.7895   28.0680   42.1115 H   0  0  0  0  0  0  0  0  0  0  0  0
   58.4762   25.7942   42.8735 H   0  0  0  0  0  0  0  0  0  0  0  0
   55.9203   24.5142   44.7476 H   0  0  0  0  0  0  0  0  0  0  0  0
   54.9497   22.4493   43.7372 H   0  0  0  0  0  0  0  0  0  0  0  0
   58.8572   20.5949   43.7574 H   0  0  0  0  0  0  0  0  0  0  0  0
   59.8366   22.6600   44.7566 H   0  0  0  0  0  0  0  0  0  0  0  0
   57.7422   26.9459   46.9798 H   0  0  0  0  0  0  0  0  0  0  0  0
   57.1060   29.2356   46.2247 H   0  0  0  0  0  0  0  0  0  0  0  0
   59.4531   30.7378   45.8284 H   0  0  0  0  0  0  0  0  0  0  0  0
   59.6022   31.5614   48.6670 H   0  0  0  0  0  0  0  0  0  0  0  0
   61.0907   31.3625   47.6330 H   0  0  0  0  0  0  0  0  0  0  0  0
  1  2  1  0
  2  3  1  0
  3  4  1  0
  4  5  1  0
  5  6  2  0
  6  7  1  0
  7  8  2  0
  8  9  1  0
  9 10  1  0
 10 11  2  0
 10 12  2  0
 10 13  1  0
 13 14  2  0
 14 15  1  0
 15 16  2  0
 16 17  1  0
 17 18  1  0
 18 19  2  0
 19 20  1  0
 20 21  2  0
 21 22  1  0
 21 23  1  0
 23 24  2  0
 16 25  1  0
 25 26  2  0
  8 27  1  0
 27 28  2  0
 28 29  1  0
 29  2  1  0
 28  5  1  0
 26 13  1  0
 24 18  1  0
  1 30  1  0
  1 31  1  0
  1 32  1  0
  3 33  1  0
  3 34  1  0
  4 35  1  0
  4 36  1  0
  6 37  1  0
  7 38  1  0
  9 39  1  0
 14 40  1  0
 15 41  1  0
 19 42  1  0
 20 43  1  0
 23 44  1  0
 24 45  1  0
 25 46  1  0
 26 47  1  0
 27 48  1  0
 29 49  1  0
 29 50  1  0
M  END
>  <UniqueID>  (59) 
57

>  <SMILES>  (59) 
CN1CCc2ccc(NS(=O)(=O)c3ccc(Oc4ccc(F)cc4)cc3)cc2C1

>  <Energy>  (59) 
66.00335943477602

>  <Genealogy>  (59) 
CN1CCc2ccc(NS(=O)(=O)c3ccc(Oc4ccc(F)cc4)cc3)cc2C1 (3D coordinates assigned)
CN1CCc2ccc(NS(=O)(=O)c3ccc(Oc4ccc(F)cc4)cc3)cc2C1 (nonaromatic ring conformer: 66.00335943477602 kcal/mol)

>  <smiles>  (59) 
CN1CCc2ccc(NS(=O)(=O)c3ccc(Oc4ccc(F)cc4)cc3)cc2C1

>  <score_type>  (59) 
oracle

>  <origin>  (59) 
adg

>  <m_score__min__energy>  (59) 
-9.4900000000000002

>  <m_primary>  (59) 
energy

$$$$
59:0
     RDKit          3D

 46 49  0  0  1  0  0  0  0  0999 V2000
   52.6410   23.3820   44.8410 N   0  0  0  0  0  0  0  0  0  0  0  0
   53.5560   23.6190   45.4990 C   0  0  0  0  0  0  0  0  0  0  0  0
   54.7040   23.9350   46.3520 C   0  0  0  0  0  0  0  0  0  0  0  0
   55.1520   25.2900   46.1140 N   0  0  0  0  0  0  0  0  0  0  0  0
   56.4130   25.5420   46.0710 C   0  0  0  0  0  0  0  0  0  0  0  0
   57.2840   24.4780   46.0260 C   0  0  0  0  0  0  0  0  0  0  0  0
   58.6260   24.7790   45.9800 C   0  0  0  0  0  0  0  0  0  0  0  0
   59.0070   26.0490   45.9820 N   0  0  0  0  0  0  0  0  0  0  0  0
   58.1990   27.1010   46.0260 C   0  0  0  0  0  0  0  0  0  0  0  0
   58.6320   28.4950   45.9470 C   0  0  0  0  0  0  0  0  0  0  0  0
   59.7550   28.8790   46.6610 C   0  0  0  0  0  0  0  0  0  0  0  0
   60.2120   30.2030   46.6630 C   0  0  0  0  0  0  0  0  0  0  0  0
   59.5480   31.1700   45.9450 C   0  0  0  0  0  0  0  0  0  0  0  0
   59.9140   32.5670   46.0040 C   0  0  0  0  0  0  0  0  0  0  0  0
   60.1370   33.2900   47.0610 C   0  0  0  0  0  0  0  0  0  0  0  0
   59.2130   34.2790   47.6160 C   0  0  0  0  0  0  0  0  0  0  0  0
   58.0870   34.6030   47.1440 O   0  0  0  0  0  0  0  0  0  0  0  0
   59.8330   34.7950   48.7810 N   0  0  0  0  0  0  0  0  0  0  0  0
   61.0890   34.1360   48.9210 C   0  0  0  0  0  0  0  0  0  0  0  0
   62.0260   34.3030   49.9150 C   0  0  0  0  0  0  0  0  0  0  0  0
   63.1690   33.5550   49.8880 C   0  0  0  0  0  0  0  0  0  0  0  0
   63.3870   32.6490   48.8890 C   0  0  0  0  0  0  0  0  0  0  0  0
   64.5370   31.9240   48.9010 F   0  0  0  0  0  0  0  0  0  0  0  0
   62.4320   32.4790   47.8760 C   0  0  0  0  0  0  0  0  0  0  0  0
   61.2920   33.2310   47.9070 C   0  0  0  0  0  0  0  0  0  0  0  0
   58.4370   30.7730   45.2400 C   0  0  0  0  0  0  0  0  0  0  0  0
   57.9610   29.4510   45.2230 C   0  0  0  0  0  0  0  0  0  0  0  0
   56.8590   29.2080   44.3240 C   0  0  0  0  0  0  0  0  0  0  0  0
   56.8740   28.9580   42.9410 N   0  0  0  0  0  0  0  0  0  0  0  0
   55.6910   29.2290   44.8470 O   0  0  0  0  0  0  0  0  0  0  0  0
   56.8730   26.8340   46.0700 N   0  0  0  0  0  0  0  0  0  0  0  0
   54.4112   23.8302   47.4071 H   0  0  0  0  0  0  0  0  0  0  0  0
   55.5248   23.2415   46.1166 H   0  0  0  0  0  0  0  0  0  0  0  0
   56.9254   23.4381   46.0268 H   0  0  0  0  0  0  0  0  0  0  0  0
   59.3750   23.9743   45.9420 H   0  0  0  0  0  0  0  0  0  0  0  0
   60.3032   28.1232   47.2426 H   0  0  0  0  0  0  0  0  0  0  0  0
   61.1077   30.4711   47.2425 H   0  0  0  0  0  0  0  0  0  0  0  0
   60.0163   33.0809   45.0368 H   0  0  0  0  0  0  0  0  0  0  0  0
   59.3980   35.5260   49.3860 H   0  0  0  0  0  0  0  0  0  0  0  0
   61.8566   35.0307   50.7223 H   0  0  0  0  0  0  0  0  0  0  0  0
   63.9221   33.6837   50.6794 H   0  0  0  0  0  0  0  0  0  0  0  0
   62.5985   31.7509   47.0685 H   0  0  0  0  0  0  0  0  0  0  0  0
   57.8914   31.5304   44.6581 H   0  0  0  0  0  0  0  0  0  0  0  0
   57.4760   29.6130   42.3520 H   0  0  0  0  0  0  0  0  0  0  0  0
   56.3300   28.1940   42.4790 H   0  0  0  0  0  0  0  0  0  0  0  0
   56.1300   27.5430   46.1170 H   0  0  0  0  0  0  0  0  0  0  0  0
  1  2  3  0
  2  3  1  0
  3  4  1  0
  4  5  2  0
  5  6  1  0
  6  7  2  0
  7  8  1  0
  8  9  2  0
  9 10  1  0
 10 11  2  0
 11 12  1  0
 12 13  2  0
 13 14  1  0
 14 15  2  0
 15 16  1  0
 16 17  2  0
 16 18  1  0
 18 19  1  0
 19 20  2  0
 20 21  1  0
 21 22  2  0
 22 23  1  0
 22 24  1  0
 24 25  2  0
 13 26  1  0
 26 27  2  0
 27 28  1  0
 28 29  1  0
 28 30  2  0
  9 31  1  0
 31  5  1  0
 27 10  1  0
 25 15  1  0
 25 19  1  0
  3 32  1  0
  3 33  1  0
  6 34  1  0
  7 35  1  0
 11 36  1  0
 12 37  1  0
 14 38  1  0
 18 39  1  0
 20 40  1  0
 21 41  1  0
 24 42  1  0
 26 43  1  0
 29 44  1  0
 29 45  1  0
 31 46  1  0
M  END
>  <smiles>  (60) 
N#CCN=c1ccnc(-c2ccc(C=C3C(=O)Nc4ccc(F)cc43)cc2C(N)=O)[nH]1

>  <score_type>  (60) 
oracle

>  <origin>  (60) 
adg

>  <m_score__min__energy>  (60) 
-10.15

>  <m_primary>  (60) 
energy

$$$$
60:0
     RDKit          3D

 25 26  0  0  0  0  0  0  0  0999 V2000
   57.6570   27.0710   47.1900 O   0  0  0  0  0  0  0  0  0  0  0  0
   56.8110   26.6440   46.0240 S   0  0  0  0  0  0  0  0  0  0  0  0
   55.8970   27.7570   45.5990 O   0  0  0  0  0  0  0  0  0  0  0  0
   55.8910   25.2480   46.4220 N   0  0  0  0  0  0  0  0  0  0  0  0
   56.4560   24.2050   45.5630 C   0  0  0  0  0  0  0  0  0  0  0  0
   57.0900   24.8440   44.3140 C   0  0  0  0  0  0  0  0  0  0  0  0
   57.7960   26.0540   44.7420 N   0  0  0  0  0  0  0  0  0  0  0  0
   58.1450   27.0510   43.7040 C   0  0  0  0  0  0  0  0  0  0  0  0
   58.0240   28.5070   44.1110 C   0  0  0  0  0  0  0  0  0  0  0  0
   57.1070   29.3490   43.4590 C   0  0  0  0  0  0  0  0  0  0  0  0
   57.0100   30.6970   43.8090 C   0  0  0  0  0  0  0  0  0  0  0  0
   57.8420   31.2310   44.7970 C   0  0  0  0  0  0  0  0  0  0  0  0
   57.6910   32.9330   45.2110 Cl  0  0  0  0  0  0  0  0  0  0  0  0
   58.7890   30.4090   45.4290 C   0  0  0  0  0  0  0  0  0  0  0  0
   59.8780   31.0470   46.6540 Cl  0  0  0  0  0  0  0  0  0  0  0  0
   58.8840   29.0570   45.0760 C   0  0  0  0  0  0  0  0  0  0  0  0
   57.2256   23.6505   46.1200 H   0  0  0  0  0  0  0  0  0  0  0  0
   55.6554   23.5176   45.2523 H   0  0  0  0  0  0  0  0  0  0  0  0
   57.7984   24.1406   43.8520 H   0  0  0  0  0  0  0  0  0  0  0  0
   56.3157   25.0917   43.5730 H   0  0  0  0  0  0  0  0  0  0  0  0
   59.1876   26.8717   43.4026 H   0  0  0  0  0  0  0  0  0  0  0  0
   57.4112   26.9074   42.8972 H   0  0  0  0  0  0  0  0  0  0  0  0
   56.4608   28.9429   42.6669 H   0  0  0  0  0  0  0  0  0  0  0  0
   56.2753   31.3419   43.3048 H   0  0  0  0  0  0  0  0  0  0  0  0
   59.6393   28.4197   45.5590 H   0  0  0  0  0  0  0  0  0  0  0  0
  1  2  2  0
  2  3  2  0
  2  4  1  0
  4  5  1  0
  5  6  1  0
  6  7  1  0
  7  8  1  0
  8  9  1  0
  9 10  2  0
 10 11  1  0
 11 12  2  0
 12 13  1  0
 12 14  1  0
 14 15  1  0
 14 16  2  0
  7  2  1  0
 16  9  1  0
  5 17  1  0
  5 18  1  0
  6 19  1  0
  6 20  1  0
  8 21  1  0
  8 22  1  0
 10 23  1  0
 11 24  1  0
 16 25  1  0
M  CHG  1   4  -1
M  END
>  <UniqueID>  (61) 
58

>  <SMILES>  (61) 
O=S1(=O)[N-]CCN1Cc1ccc(Cl)c(Cl)c1

>  <Energy>  (61) 
33.556111592935636

>  <Genealogy>  (61) 
O=S1(=O)[N-]CCN1Cc1ccc(Cl)c(Cl)c1 (protonated)
O=S1(=O)[N-]CCN1Cc1ccc(Cl)c(Cl)c1 (3D coordinates assigned)
O=S1(=O)[N-]CCN1Cc1ccc(Cl)c(Cl)c1 (nonaromatic ring conformer: 33.556111592935636 kcal/mol)

>  <smiles>  (61) 
O=S1(=O)NCCN1Cc1ccc(Cl)c(Cl)c1

>  <score_type>  (61) 
oracle

>  <origin>  (61) 
adg

>  <m_score__min__energy>  (61) 
-8.2699999999999996

>  <m_primary>  (61) 
energy

$$$$
61:0
     RDKit          3D

 41 44  0  0  0  0  0  0  0  0999 V2000
   57.4060   26.8000   45.5850 C   0  0  0  0  0  0  0  0  0  0  0  0
   58.1140   27.8310   46.0790 C   0  0  0  0  0  0  0  0  0  0  0  0
   59.0070   27.6040   47.2370 C   0  0  0  0  0  0  0  0  0  0  0  0
   59.2150   26.4380   47.6780 O   0  0  0  0  0  0  0  0  0  0  0  0
   59.6540   28.7580   47.8780 C   0  0  0  0  0  0  0  0  0  0  0  0
   60.4760   28.6070   48.8690 N   0  0  0  0  0  0  0  0  0  0  0  0
   59.3910   30.0720   47.3800 N   0  0  0  0  0  0  0  0  0  0  0  0
   58.4590   30.3220   46.3090 C   0  0  0  0  0  0  0  0  0  0  0  0
   57.9670   29.2280   45.5500 C   0  0  0  0  0  0  0  0  0  0  0  0
   57.3880   29.4800   44.2900 C   0  0  0  0  0  0  0  0  0  0  0  0
   57.2460   30.7810   43.8180 C   0  0  0  0  0  0  0  0  0  0  0  0
   57.6050   31.8640   44.6150 C   0  0  0  0  0  0  0  0  0  0  0  0
   57.4190   33.1230   44.1390 N   0  0  0  0  0  0  0  0  0  0  0  0
   57.7130   34.2190   44.8780 C   0  0  0  0  0  0  0  0  0  0  0  0
   58.1630   34.0790   46.1860 C   0  0  0  0  0  0  0  0  0  0  0  0
   58.3560   32.7980   46.7300 C   0  0  0  0  0  0  0  0  0  0  0  0
   58.5720   32.6670   48.1460 N   0  0  0  0  0  0  0  0  0  0  0  0
   59.5550   33.4620   48.8800 C   0  0  0  0  0  0  0  0  0  0  0  0
   60.9240   33.2380   48.3000 C   0  0  0  0  0  0  0  0  0  0  0  0
   61.3860   34.0390   47.2420 C   0  0  0  0  0  0  0  0  0  0  0  0
   62.6350   33.7910   46.6640 C   0  0  0  0  0  0  0  0  0  0  0  0
   63.4260   32.7380   47.1320 C   0  0  0  0  0  0  0  0  0  0  0  0
   62.9690   31.9290   48.1760 C   0  0  0  0  0  0  0  0  0  0  0  0
   61.7200   32.1730   48.7550 C   0  0  0  0  0  0  0  0  0  0  0  0
   58.1510   31.6550   45.9050 C   0  0  0  0  0  0  0  0  0  0  0  0
   56.7381   26.9536   44.7246 H   0  0  0  0  0  0  0  0  0  0  0  0
   57.4947   25.8031   46.0413 H   0  0  0  0  0  0  0  0  0  0  0  0
   60.7160   27.6710   49.2680 H   0  0  0  0  0  0  0  0  0  0  0  0
   60.0450   30.8250   47.6850 H   0  0  0  0  0  0  0  0  0  0  0  0
   57.0441   28.6375   43.6720 H   0  0  0  0  0  0  0  0  0  0  0  0
   56.8471   30.9549   42.8077 H   0  0  0  0  0  0  0  0  0  0  0  0
   57.5955   35.2223   44.4425 H   0  0  0  0  0  0  0  0  0  0  0  0
   58.3680   34.9716   46.7953 H   0  0  0  0  0  0  0  0  0  0  0  0
   57.9210   32.0570   48.6910 H   0  0  0  0  0  0  0  0  0  0  0  0
   59.2949   34.5279   48.8018 H   0  0  0  0  0  0  0  0  0  0  0  0
   59.5533   33.1575   49.9370 H   0  0  0  0  0  0  0  0  0  0  0  0
   60.7629   34.8643   46.8670 H   0  0  0  0  0  0  0  0  0  0  0  0
   62.9952   34.4251   45.8405 H   0  0  0  0  0  0  0  0  0  0  0  0
   64.4094   32.5458   46.6781 H   0  0  0  0  0  0  0  0  0  0  0  0
   63.5923   31.0999   48.5423 H   0  0  0  0  0  0  0  0  0  0  0  0
   61.3589   31.5286   49.5701 H   0  0  0  0  0  0  0  0  0  0  0  0
  1  2  2  0
  2  3  1  0
  3  4  2  0
  3  5  1  0
  5  6  2  3
  5  7  1  0
  7  8  1  0
  8  9  2  0
  9 10  1  0
 10 11  2  0
 11 12  1  0
 12 13  2  0
 13 14  1  0
 14 15  2  0
 15 16  1  0
 16 17  1  0
 17 18  1  0
 18 19  1  0
 19 20  2  0
 20 21  1  0
 21 22  2  0
 22 23  1  0
 23 24  2  0
 16 25  2  0
  9  2  1  0
 25 12  1  0
 25  8  1  0
 24 19  1  0
  1 26  1  0
  1 27  1  0
  6 28  1  0
  7 29  1  0
 10 30  1  0
 11 31  1  0
 14 32  1  0
 15 33  1  0
 17 34  1  0
 18 35  1  0
 18 36  1  0
 20 37  1  0
 21 38  1  0
 22 39  1  0
 23 40  1  0
 24 41  1  0
M  END
>  <UniqueID>  (62) 
59

>  <SMILES>  (62) 
C=C1C(=O)C(=N)Nc2c1ccc1nccc(NCc3ccccc3)c21

>  <Energy>  (62) 
64.96984385373291

>  <Genealogy>  (62) 
C=C1C(=O)C(=N)Nc2c1ccc1nccc(NCc3ccccc3)c21 (3D coordinates assigned)
C=C1C(=O)C(=N)Nc2c1ccc1nccc(NCc3ccccc3)c21 (nonaromatic ring conformer: 64.96984385373291 kcal/mol)

>  <smiles>  (62) 
C=C1C(=O)C(=N)Nc2c1ccc1nccc(NCc3ccccc3)c21

>  <score_type>  (62) 
oracle

>  <origin>  (62) 
adg

>  <m_score__min__energy>  (62) 
-7.7300000000000004

>  <m_primary>  (62) 
energy

$$$$
62:0
     RDKit          3D

 49 52  0  0  0  0  0  0  0  0999 V2000
   56.3654   30.4397   42.1904 H   0  0  0  0  0  0  0  0  0  0  0  0
   56.2720   29.5190   42.7850 C   0  0  0  0  0  0  0  0  0  0  0  0
   55.6463   28.6906   42.4214 H   0  0  0  0  0  0  0  0  0  0  0  0
   56.9180   29.4070   43.9480 C   0  0  0  0  0  0  0  0  0  0  0  0
   57.7100   30.3750   44.5620 C   0  0  0  0  0  0  0  0  0  0  0  0
   58.1220   31.6990   44.0480 C   0  0  0  0  0  0  0  0  0  0  0  0
   58.5260   31.8090   42.8590 O   0  0  0  0  0  0  0  0  0  0  0  0
   58.1400   32.8510   44.9080 N   0  0  0  0  0  0  0  0  0  0  0  0
   56.9770   33.2000   45.7260 C   0  0  0  0  0  0  0  0  0  0  0  0
   56.4404   34.0395   45.2599 H   0  0  0  0  0  0  0  0  0  0  0  0
   56.3079   32.3300   45.7992 H   0  0  0  0  0  0  0  0  0  0  0  0
   57.4380   33.6060   47.1290 C   0  0  0  0  0  0  0  0  0  0  0  0
   56.5900   34.0694   47.6545 H   0  0  0  0  0  0  0  0  0  0  0  0
   57.7898   32.6936   47.6327 H   0  0  0  0  0  0  0  0  0  0  0  0
   58.5690   34.5670   47.1210 N   0  0  0  0  0  0  0  0  0  0  0  0
   59.5800   34.3500   48.1810 C   0  0  0  0  0  0  0  0  0  0  0  0
   60.1351   35.2880   48.3292 H   0  0  0  0  0  0  0  0  0  0  0  0
   59.0370   34.0374   49.0851 H   0  0  0  0  0  0  0  0  0  0  0  0
   60.5720   33.2530   47.8580 C   0  0  0  0  0  0  0  0  0  0  0  0
   61.8790   33.5770   47.4510 C   0  0  0  0  0  0  0  0  0  0  0  0
   62.1878   34.6312   47.3931 H   0  0  0  0  0  0  0  0  0  0  0  0
   62.7870   32.5690   47.1200 C   0  0  0  0  0  0  0  0  0  0  0  0
   63.8038   32.8321   46.7931 H   0  0  0  0  0  0  0  0  0  0  0  0
   62.4070   31.2270   47.2030 C   0  0  0  0  0  0  0  0  0  0  0  0
   63.1194   30.4353   46.9278 H   0  0  0  0  0  0  0  0  0  0  0  0
   61.1210   30.8910   47.6360 C   0  0  0  0  0  0  0  0  0  0  0  0
   60.6460   29.2060   47.7540 Cl  0  0  0  0  0  0  0  0  0  0  0  0
   60.2120   31.8990   47.9770 C   0  0  0  0  0  0  0  0  0  0  0  0
   59.2092   31.6302   48.3405 H   0  0  0  0  0  0  0  0  0  0  0  0
   59.0990   34.9650   45.7980 C   0  0  0  0  0  0  0  0  0  0  0  0
   58.3995   35.6797   45.3398 H   0  0  0  0  0  0  0  0  0  0  0  0
   60.0913   35.4114   45.9595 H   0  0  0  0  0  0  0  0  0  0  0  0
   59.2780   33.7710   44.8430 C   0  0  0  0  0  0  0  0  0  0  0  0
   59.3732   34.1484   43.8142 H   0  0  0  0  0  0  0  0  0  0  0  0
   60.1814   33.2215   45.1460 H   0  0  0  0  0  0  0  0  0  0  0  0
   58.1280   29.8270   45.7630 C   0  0  0  0  0  0  0  0  0  0  0  0
   58.7645   30.3086   46.5199 H   0  0  0  0  0  0  0  0  0  0  0  0
   57.5880   28.5550   45.8240 C   0  0  0  0  0  0  0  0  0  0  0  0
   57.7590   27.7140   46.8550 C   0  0  0  0  0  0  0  0  0  0  0  0
   58.3352   28.0711   47.7213 H   0  0  0  0  0  0  0  0  0  0  0  0
   57.2240   26.3430   46.9000 C   0  0  0  0  0  0  0  0  0  0  0  0
   57.9660   25.2720   47.2330 N   0  0  0  0  0  0  0  0  0  0  0  0
   57.1180   24.2360   47.0560 C   0  0  0  0  0  0  0  0  0  0  0  0
   57.4500   23.0430   47.2840 O   0  0  0  0  0  0  0  0  0  0  0  0
   55.8920   24.5770   46.6060 N   0  0  0  0  0  0  0  0  0  0  0  0
   55.9780   25.9120   46.4980 C   0  0  0  0  0  0  0  0  0  0  0  0
   54.9560   26.7100   46.0000 O   0  0  0  0  0  0  0  0  0  0  0  0
   56.8460   28.3060   44.7250 N   0  0  0  0  0  0  0  0  0  0  0  0
   56.2760   27.4530   44.5230 H   0  0  0  0  0  0  0  0  0  0  0  0
  1  2  1  0
  2  3  1  0
  2  4  2  0
  4  5  1  0
  5  6  1  0
  6  7  2  0
  6  8  1  0
  8  9  1  0
  9 10  1  0
  9 11  1  0
  9 12  1  0
 12 13  1  0
 12 14  1  0
 12 15  1  0
 15 16  1  0
 16 17  1  0
 16 18  1  0
 16 19  1  0
 19 20  2  0
 20 21  1  0
 20 22  1  0
 22 23  1  0
 22 24  2  0
 24 25  1  0
 24 26  1  0
 26 27  1  0
 26 28  2  0
 28 29  1  0
 15 30  1  0
 30 31  1  0
 30 32  1  0
 30 33  1  0
 33 34  1  0
 33 35  1  0
  5 36  2  0
 36 37  1  0
 36 38  1  0
 38 39  2  0
 39 40  1  0
 39 41  1  0
 41 42  1  0
 42 43  1  0
 43 44  2  0
 43 45  1  0
 45 46  1  0
 46 47  1  0
 38 48  1  0
 48 49  1  0
 48  4  1  0
 33  8  1  0
 46 41  2  0
 28 19  1  0
M  CHG  3  42  -1  45  -1  47  -1
M  END
>  <UniqueID>  (63) 
60

>  <SMILES>  (63) 
C=c1[nH]/c(=C\c2[n-]c(=O)[n-]c2[O-])cc1C(=O)N1CCN(Cc2cccc(Cl)c2)CC1

>  <Energy>  (63) 
127.35803728829207

>  <Genealogy>  (63) 
C=c1[nH]c(=Cc2[n-]c(=O)[n-]c2[O-])cc1C(=O)N1CCN(Cc2cccc(Cl)c2)CC1 (protonated)
C=c1[nH]/c(=C\c2[n-]c(=O)[n-]c2[O-])cc1C(=O)N1CCN(Cc2cccc(Cl)c2)CC1 (cis-trans isomerization)
C=c1[nH]/c(=C\c2[n-]c(=O)[n-]c2[O-])cc1C(=O)N1CCN(Cc2cccc(Cl)c2)CC1 (3D coordinates assigned)
C=c1[nH]/c(=C\c2[n-]c(=O)[n-]c2[O-])cc1C(=O)N1CCN(Cc2cccc(Cl)c2)CC1 (nonaromatic ring conformer: 127.35803728829207 kcal/mol)

>  <smiles>  (63) 
C=c1[nH]c(=Cc2[nH]c(=O)[nH]c2O)cc1C(=O)N1CCN(Cc2cccc(Cl)c2)CC1

>  <score_type>  (63) 
oracle

>  <origin>  (63) 
adg

>  <m_score__min__energy>  (63) 
-18.420000000000002

>  <m_primary>  (63) 
energy

$$$$
63:0
     RDKit          3D

 50 52  0  0  0  0  0  0  0  0999 V2000
   64.8240   32.6820   47.2020 H   0  0  0  0  0  0  0  0  0  0  0  0
   64.1220   33.2900   47.6100 O   0  0  0  0  0  0  0  0  0  0  0  0
   62.7750   32.9380   47.6260 C   0  0  0  0  0  0  0  0  0  0  0  0
   61.8350   33.8360   48.1400 C   0  0  0  0  0  0  0  0  0  0  0  0
   62.1625   34.8099   48.5328 H   0  0  0  0  0  0  0  0  0  0  0  0
   60.4800   33.4970   48.1550 C   0  0  0  0  0  0  0  0  0  0  0  0
   59.7423   34.2077   48.5559 H   0  0  0  0  0  0  0  0  0  0  0  0
   60.0570   32.2590   47.6630 C   0  0  0  0  0  0  0  0  0  0  0  0
   58.9873   32.0026   47.6728 H   0  0  0  0  0  0  0  0  0  0  0  0
   60.9950   31.3370   47.1540 C   0  0  0  0  0  0  0  0  0  0  0  0
   60.6060   30.0120   46.6110 C   0  0  0  0  0  0  0  0  0  0  0  0
   60.9232   29.1164   47.1652 H   0  0  0  0  0  0  0  0  0  0  0  0
   59.8950   29.8350   45.4920 C   0  0  0  0  0  0  0  0  0  0  0  0
   60.3213   30.1597   44.5313 H   0  0  0  0  0  0  0  0  0  0  0  0
   58.5580   29.2180   45.5090 C   0  0  0  0  0  0  0  0  0  0  0  0
   58.3980   27.9070   45.7980 N   0  0  0  0  0  0  0  0  0  0  0  0
   57.0770   27.6850   45.6470 C   0  0  0  0  0  0  0  0  0  0  0  0
   56.4140   26.3720   45.7800 C   0  0  0  0  0  0  0  0  0  0  0  0
   55.3151   26.3513   45.7346 H   0  0  0  0  0  0  0  0  0  0  0  0
   57.0490   25.2020   45.9520 C   0  0  0  0  0  0  0  0  0  0  0  0
   57.6536   25.0821   46.8631 H   0  0  0  0  0  0  0  0  0  0  0  0
   56.9990   24.0630   45.0130 C   0  0  0  0  0  0  0  0  0  0  0  0
   56.1130   24.0560   43.9200 C   0  0  0  0  0  0  0  0  0  0  0  0
   55.4201   24.8972   43.7708 H   0  0  0  0  0  0  0  0  0  0  0  0
   56.1100   22.9840   43.0230 C   0  0  0  0  0  0  0  0  0  0  0  0
   55.4028   22.9748   42.1805 H   0  0  0  0  0  0  0  0  0  0  0  0
   57.0040   21.9240   43.1950 C   0  0  0  0  0  0  0  0  0  0  0  0
   56.9951   21.0776   42.4925 H   0  0  0  0  0  0  0  0  0  0  0  0
   57.9090   21.9390   44.2590 C   0  0  0  0  0  0  0  0  0  0  0  0
   58.6172   21.1075   44.3894 H   0  0  0  0  0  0  0  0  0  0  0  0
   57.9160   23.0100   45.1590 C   0  0  0  0  0  0  0  0  0  0  0  0
   58.6429   23.0272   45.9844 H   0  0  0  0  0  0  0  0  0  0  0  0
   56.4770   28.8450   45.2220 C   0  0  0  0  0  0  0  0  0  0  0  0
   55.1420   28.9810   44.8560 O   0  0  0  0  0  0  0  0  0  0  0  0
   57.3950   29.8280   45.1580 N   0  0  0  0  0  0  0  0  0  0  0  0
   57.1950   31.1590   44.5640 C   0  0  0  0  0  0  0  0  0  0  0  0
   56.1503   31.2457   44.2308 H   0  0  0  0  0  0  0  0  0  0  0  0
   57.8922   31.2620   43.7195 H   0  0  0  0  0  0  0  0  0  0  0  0
   57.4920   32.2880   45.5650 C   0  0  0  0  0  0  0  0  0  0  0  0
   58.4654   32.0927   46.0386 H   0  0  0  0  0  0  0  0  0  0  0  0
   56.6782   32.3018   46.3050 H   0  0  0  0  0  0  0  0  0  0  0  0
   57.5380   33.6660   44.8970 C   0  0  0  0  0  0  0  0  0  0  0  0
   56.8106   34.3281   45.3895 H   0  0  0  0  0  0  0  0  0  0  0  0
   57.2927   33.5453   43.8315 H   0  0  0  0  0  0  0  0  0  0  0  0
   58.9280   34.2850   45.0060 C   0  0  0  0  0  0  0  0  0  0  0  0
   59.1944   34.4036   46.0666 H   0  0  0  0  0  0  0  0  0  0  0  0
   59.6613   33.6284   44.5150 H   0  0  0  0  0  0  0  0  0  0  0  0
   58.9306   35.2693   44.5150 H   0  0  0  0  0  0  0  0  0  0  0  0
   62.3540   31.6950   47.1300 C   0  0  0  0  0  0  0  0  0  0  0  0
   63.0947   30.9937   46.7183 H   0  0  0  0  0  0  0  0  0  0  0  0
  1  2  1  0
  2  3  1  0
  3  4  2  0
  4  5  1  0
  4  6  1  0
  6  7  1  0
  6  8  2  0
  8  9  1  0
  8 10  1  0
 10 11  1  0
 11 12  1  0
 11 13  2  0
 13 14  1  0
 13 15  1  0
 15 16  2  0
 16 17  1  0
 17 18  1  0
 18 19  1  0
 18 20  2  0
 20 21  1  0
 20 22  1  0
 22 23  2  0
 23 24  1  0
 23 25  1  0
 25 26  1  0
 25 27  2  0
 27 28  1  0
 27 29  1  0
 29 30  1  0
 29 31  2  0
 31 32  1  0
 17 33  2  0
 33 34  1  0
 33 35  1  0
 35 36  1  0
 36 37  1  0
 36 38  1  0
 36 39  1  0
 39 40  1  0
 39 41  1  0
 39 42  1  0
 42 43  1  0
 42 44  1  0
 42 45  1  0
 45 46  1  0
 45 47  1  0
 45 48  1  0
 10 49  2  0
 49 50  1  0
 49  3  1  0
 35 15  1  0
 31 22  1  0
M  CHG  1  34  -1
M  END
>  <UniqueID>  (64) 
61

>  <SMILES>  (64) 
CCCCn1c(/C=C/c2cccc(O)c2)nc(/C=C\c2ccccc2)c1[O-]

>  <Energy>  (64) 
90.32020614070915

>  <Genealogy>  (64) 
CCCCn1c(C=Cc2cccc(O)c2)nc(C=Cc2ccccc2)c1[O-] (protonated)
CCCCn1c(/C=C/c2cccc(O)c2)nc(/C=C\c2ccccc2)c1[O-] (cis-trans isomerization)
CCCCn1c(/C=C/c2cccc(O)c2)nc(/C=C\c2ccccc2)c1[O-] (3D coordinates assigned)
CCCCn1c(/C=C/c2cccc(O)c2)nc(/C=C\c2ccccc2)c1[O-] (optimized conformer: 90.32020614070915 kcal/mol)

>  <smiles>  (64) 
CCCCn1c(C=Cc2cccc(O)c2)nc(C=Cc2ccccc2)c1O

>  <score_type>  (64) 
oracle

>  <origin>  (64) 
adg

>  <m_score__min__energy>  (64) 
-11.68

>  <m_primary>  (64) 
energy

$$$$
64:0
     RDKit          3D

 62 64  0  0  0  0  0  0  0  0999 V2000
   59.0600   21.9050   44.9330 C   0  0  0  0  0  0  0  0  0  0  0  0
   57.6290   21.3430   44.9990 C   0  0  0  0  0  0  0  0  0  0  0  0
   56.5710   22.3580   44.7840 N   0  0  0  0  0  0  0  0  0  0  0  0
   56.3020   22.6290   43.3560 C   0  0  0  0  0  0  0  0  0  0  0  0
   56.6670   24.0700   43.0030 C   0  0  0  0  0  0  0  0  0  0  0  0
   55.3490   22.0870   45.5750 C   0  0  0  0  0  0  0  0  0  0  0  0
   54.4830   23.3050   45.5690 C   0  0  0  0  0  0  0  0  0  0  0  0
   53.4290   23.3240   44.8760 O   0  0  0  0  0  0  0  0  0  0  0  0
   54.8580   24.4400   46.3640 N   0  0  0  0  0  0  0  0  0  0  0  0
   55.8630   25.2470   46.1690 C   0  0  0  0  0  0  0  0  0  0  0  0
   57.1970   24.7970   46.0890 C   0  0  0  0  0  0  0  0  0  0  0  0
   58.2290   25.7270   45.9510 C   0  0  0  0  0  0  0  0  0  0  0  0
   57.9420   27.0960   45.8920 C   0  0  0  0  0  0  0  0  0  0  0  0
   59.0020   28.0700   45.8160 N   0  0  0  0  0  0  0  0  0  0  0  0
   60.3830   27.5950   45.6620 C   0  0  0  0  0  0  0  0  0  0  0  0
   58.6920   29.4850   45.7460 C   0  0  0  0  0  0  0  0  0  0  0  0
   58.2770   30.0830   44.5410 C   0  0  0  0  0  0  0  0  0  0  0  0
   57.9890   31.4510   44.4850 C   0  0  0  0  0  0  0  0  0  0  0  0
   58.0960   32.2530   45.6310 C   0  0  0  0  0  0  0  0  0  0  0  0
   57.7730   33.7020   45.6100 C   0  0  0  0  0  0  0  0  0  0  0  0
   56.7960   34.1060   44.9250 O   0  0  0  0  0  0  0  0  0  0  0  0
   58.4600   34.6490   46.4400 N   0  0  0  0  0  0  0  0  0  0  0  0
   59.8390   35.1020   46.2600 C   0  0  0  0  0  0  0  0  0  0  0  0
   60.8100   34.2470   47.0310 C   0  0  0  0  0  0  0  0  0  0  0  0
   61.9980   33.8040   46.4230 C   0  0  0  0  0  0  0  0  0  0  0  0
   62.9030   33.0130   47.1400 C   0  0  0  0  0  0  0  0  0  0  0  0
   62.6280   32.6580   48.4660 C   0  0  0  0  0  0  0  0  0  0  0  0
   61.4460   33.0890   49.0740 C   0  0  0  0  0  0  0  0  0  0  0  0
   60.5370   33.8770   48.3590 C   0  0  0  0  0  0  0  0  0  0  0  0
   58.5140   31.6590   46.8330 C   0  0  0  0  0  0  0  0  0  0  0  0
   58.8200   30.2980   46.8870 C   0  0  0  0  0  0  0  0  0  0  0  0
   56.6030   27.5040   45.9630 C   0  0  0  0  0  0  0  0  0  0  0  0
   55.6140   26.5830   46.1060 N   0  0  0  0  0  0  0  0  0  0  0  0
   59.4424   22.0552   45.9534 H   0  0  0  0  0  0  0  0  0  0  0  0
   59.7086   21.1948   44.3992 H   0  0  0  0  0  0  0  0  0  0  0  0
   59.0520   22.8668   44.3992 H   0  0  0  0  0  0  0  0  0  0  0  0
   57.5262   20.5675   44.2257 H   0  0  0  0  0  0  0  0  0  0  0  0
   57.4891   20.9489   46.0164 H   0  0  0  0  0  0  0  0  0  0  0  0
   56.9010   21.9430   42.7390 H   0  0  0  0  0  0  0  0  0  0  0  0
   55.2297   22.4777   43.1626 H   0  0  0  0  0  0  0  0  0  0  0  0
   56.8134   24.6481   43.9273 H   0  0  0  0  0  0  0  0  0  0  0  0
   57.5958   24.0792   42.4138 H   0  0  0  0  0  0  0  0  0  0  0  0
   55.8545   24.5202   42.4138 H   0  0  0  0  0  0  0  0  0  0  0  0
   54.8014   21.2434   45.1296 H   0  0  0  0  0  0  0  0  0  0  0  0
   55.6253   21.8336   46.6091 H   0  0  0  0  0  0  0  0  0  0  0  0
   57.4227   23.7214   46.1350 H   0  0  0  0  0  0  0  0  0  0  0  0
   59.2719   25.3827   45.8884 H   0  0  0  0  0  0  0  0  0  0  0  0
   60.8307   27.4410   46.6549 H   0  0  0  0  0  0  0  0  0  0  0  0
   60.3843   26.6448   45.1079 H   0  0  0  0  0  0  0  0  0  0  0  0
   60.9685   28.3434   45.1079 H   0  0  0  0  0  0  0  0  0  0  0  0
   58.1781   29.4684   43.6341 H   0  0  0  0  0  0  0  0  0  0  0  0
   57.6753   31.9025   43.5322 H   0  0  0  0  0  0  0  0  0  0  0  0
   60.0932   35.0550   45.1908 H   0  0  0  0  0  0  0  0  0  0  0  0
   59.9140   36.1325   46.6374 H   0  0  0  0  0  0  0  0  0  0  0  0
   62.2167   34.0799   45.3809 H   0  0  0  0  0  0  0  0  0  0  0  0
   63.8318   32.6697   46.6609 H   0  0  0  0  0  0  0  0  0  0  0  0
   63.3425   32.0397   49.0293 H   0  0  0  0  0  0  0  0  0  0  0  0
   61.2298   32.8087   50.1155 H   0  0  0  0  0  0  0  0  0  0  0  0
   59.6043   34.2084   48.8388 H   0  0  0  0  0  0  0  0  0  0  0  0
   58.6012   32.2728   47.7417 H   0  0  0  0  0  0  0  0  0  0  0  0
   59.1654   29.8559   47.8332 H   0  0  0  0  0  0  0  0  0  0  0  0
   56.3518   28.5732   45.9028 H   0  0  0  0  0  0  0  0  0  0  0  0
  1  2  1  0
  2  3  1  0
  3  4  1  0
  4  5  1  0
  3  6  1  0
  6  7  1  0
  7  8  2  0
  7  9  1  0
  9 10  2  3
 10 11  1  0
 11 12  2  0
 12 13  1  0
 13 14  1  0
 14 15  1  0
 14 16  1  0
 16 17  2  0
 17 18  1  0
 18 19  2  0
 19 20  1  0
 20 21  2  0
 20 22  1  0
 22 23  1  0
 23 24  1  0
 24 25  2  0
 25 26  1  0
 26 27  2  0
 27 28  1  0
 28 29  2  0
 19 30  1  0
 30 31  2  0
 13 32  2  0
 32 33  1  0
 33 10  1  0
 31 16  1  0
 29 24  1  0
  1 34  1  0
  1 35  1  0
  1 36  1  0
  2 37  1  0
  2 38  1  0
  4 39  1  0
  4 40  1  0
  5 41  1  0
  5 42  1  0
  5 43  1  0
  6 44  1  0
  6 45  1  0
 11 46  1  0
 12 47  1  0
 15 48  1  0
 15 49  1  0
 15 50  1  0
 17 51  1  0
 18 52  1  0
 23 53  1  0
 23 54  1  0
 25 55  1  0
 26 56  1  0
 27 57  1  0
 28 58  1  0
 29 59  1  0
 30 60  1  0
 31 61  1  0
 32 62  1  0
M  CHG  2  22  -1  33  -1
M  END
>  <UniqueID>  (65) 
62

>  <SMILES>  (65) 
CCN(CC)CC(=O)N=c1ccc(N(C)c2ccc(C(=O)[N-]Cc3ccccc3)cc2)c[n-]1

>  <Energy>  (65) 
93.01739010650007

>  <Genealogy>  (65) 
CCN(CC)CC(=O)N=c1ccc(N(C)c2ccc(C(=O)[N-]Cc3ccccc3)cc2)c[n-]1 (protonated)
CCN(CC)CC(=O)N=c1ccc(N(C)c2ccc(C(=O)[N-]Cc3ccccc3)cc2)c[n-]1 (3D coordinates assigned)
CCN(CC)CC(=O)N=c1ccc(N(C)c2ccc(C(=O)[N-]Cc3ccccc3)cc2)c[n-]1 (optimized conformer: 93.01739010650007 kcal/mol)

>  <smiles>  (65) 
CCN(CC)CC(=O)N=c1ccc(N(C)c2ccc(C(=O)NCc3ccccc3)cc2)c[nH]1

>  <score_type>  (65) 
oracle

>  <origin>  (65) 
adg

>  <m_score__min__energy>  (65) 
-11.92

>  <m_primary>  (65) 
energy

$$$$
65:0
     RDKit          3D

 36 38  0  0  0  0  0  0  0  0999 V2000
   56.4440   26.7460   44.8670 H   0  0  0  0  0  0  0  0  0  0  0  0
   57.2540   27.2020   45.2710 O   0  0  0  0  0  0  0  0  0  0  0  0
   57.5190   28.5510   45.0410 C   0  0  0  0  0  0  0  0  0  0  0  0
   58.8360   29.0240   45.0260 C   0  0  0  0  0  0  0  0  0  0  0  0
   59.6698   28.3274   45.1975 H   0  0  0  0  0  0  0  0  0  0  0  0
   59.0970   30.3780   44.7940 C   0  0  0  0  0  0  0  0  0  0  0  0
   60.1351   30.7417   44.7909 H   0  0  0  0  0  0  0  0  0  0  0  0
   58.0380   31.2800   44.5640 C   0  0  0  0  0  0  0  0  0  0  0  0
   58.2580   32.7280   44.3250 C   0  0  0  0  0  0  0  0  0  0  0  0
   58.4205   33.0639   43.2902 H   0  0  0  0  0  0  0  0  0  0  0  0
   58.2700   33.6510   45.2990 C   0  0  0  0  0  0  0  0  0  0  0  0
   57.4714   34.4073   45.3093 H   0  0  0  0  0  0  0  0  0  0  0  0
   59.3030   33.7060   46.3630 C   0  0  0  0  0  0  0  0  0  0  0  0
   58.8890   33.9370   47.6870 C   0  0  0  0  0  0  0  0  0  0  0  0
   57.8198   34.0785   47.9032 H   0  0  0  0  0  0  0  0  0  0  0  0
   59.8230   33.9900   48.7410 C   0  0  0  0  0  0  0  0  0  0  0  0
   59.4390   34.2310   50.0700 O   0  0  0  0  0  0  0  0  0  0  0  0
   59.4560   33.2530   51.1040 C   0  0  0  0  0  0  0  0  0  0  0  0
   59.4473   33.7543   52.0831 H   0  0  0  0  0  0  0  0  0  0  0  0
   58.5689   32.6088   51.0140 H   0  0  0  0  0  0  0  0  0  0  0  0
   60.3649   32.6400   51.0140 H   0  0  0  0  0  0  0  0  0  0  0  0
   61.1820   33.7980   48.4630 C   0  0  0  0  0  0  0  0  0  0  0  0
   62.0740   33.8460   49.4500 O   0  0  0  0  0  0  0  0  0  0  0  0
   63.3770   33.6660   49.2520 C   0  0  0  0  0  0  0  0  0  0  0  0
   64.1700   33.7240   50.2260 O   0  0  0  0  0  0  0  0  0  0  0  0
   63.8670   33.4100   47.9680 C   0  0  0  0  0  0  0  0  0  0  0  0
   64.9435   33.2575   47.8012 H   0  0  0  0  0  0  0  0  0  0  0  0
   62.9700   33.3510   46.9020 C   0  0  0  0  0  0  0  0  0  0  0  0
   63.3325   33.1512   45.8829 H   0  0  0  0  0  0  0  0  0  0  0  0
   61.6050   33.5480   47.1390 C   0  0  0  0  0  0  0  0  0  0  0  0
   60.6700   33.4970   46.0990 C   0  0  0  0  0  0  0  0  0  0  0  0
   61.0045   33.2928   45.0712 H   0  0  0  0  0  0  0  0  0  0  0  0
   56.7180   30.7970   44.5990 C   0  0  0  0  0  0  0  0  0  0  0  0
   55.8797   31.4918   44.4423 H   0  0  0  0  0  0  0  0  0  0  0  0
   56.4600   29.4420   44.8310 C   0  0  0  0  0  0  0  0  0  0  0  0
   55.1480   28.9840   44.8500 O   0  0  0  0  0  0  0  0  0  0  0  0
  1  2  1  0
  2  3  1  0
  3  4  2  0
  4  5  1  0
  4  6  1  0
  6  7  1  0
  6  8  2  0
  8  9  1  0
  9 10  1  0
  9 11  2  0
 11 12  1  0
 11 13  1  0
 13 14  2  0
 14 15  1  0
 14 16  1  0
 16 17  1  0
 17 18  1  0
 18 19  1  0
 18 20  1  0
 18 21  1  0
 16 22  2  0
 22 23  1  0
 23 24  1  0
 24 25  2  0
 24 26  1  0
 26 27  1  0
 26 28  2  0
 28 29  1  0
 28 30  1  0
 30 31  2  0
 31 32  1  0
  8 33  1  0
 33 34  1  0
 33 35  2  0
 35 36  1  0
 35  3  1  0
 31 13  1  0
 30 22  1  0
M  CHG  1  36  -1
M  END
>  <UniqueID>  (66) 
63

>  <SMILES>  (66) 
COc1cc(/C=C/c2ccc(O)c([O-])c2)cc2ccc(=O)oc12

>  <Energy>  (66) 
47.48237717147879

>  <Genealogy>  (66) 
COc1cc(C=Cc2ccc(O)c([O-])c2)cc2ccc(=O)oc12 (protonated)
COc1cc(/C=C/c2ccc(O)c([O-])c2)cc2ccc(=O)oc12 (cis-trans isomerization)
COc1cc(/C=C/c2ccc(O)c([O-])c2)cc2ccc(=O)oc12 (3D coordinates assigned)
COc1cc(/C=C/c2ccc(O)c([O-])c2)cc2ccc(=O)oc12 (optimized conformer: 47.48237717147879 kcal/mol)

>  <smiles>  (66) 
COc1cc(C=Cc2ccc(O)c(O)c2)cc2ccc(=O)oc12

>  <score_type>  (66) 
oracle

>  <origin>  (66) 
adg

>  <m_score__min__energy>  (66) 
-11.449999999999999

>  <m_primary>  (66) 
energy

$$$$
66:0
     RDKit          3D

 46 48  0  0  0  0  0  0  0  0999 V2000
   60.3210   29.0680   47.3570 C   0  0  0  0  0  0  0  0  0  0  0  0
   59.4310   29.6890   46.5580 C   0  0  0  0  0  0  0  0  0  0  0  0
   59.2850   31.0970   46.6550 C   0  0  0  0  0  0  0  0  0  0  0  0
   59.8240   31.8360   47.7670 N   0  0  0  0  0  0  0  0  0  0  0  0
   58.9070   32.3430   48.7940 C   0  0  0  0  0  0  0  0  0  0  0  0
   59.6170   32.4680   50.1420 C   0  0  0  0  0  0  0  0  0  0  0  0
   60.8800   33.2650   49.9960 C   0  0  0  0  0  0  0  0  0  0  0  0
   61.2710   33.9810   50.9580 O   0  0  0  0  0  0  0  0  0  0  0  0
   61.6670   33.1580   48.7950 N   0  0  0  0  0  0  0  0  0  0  0  0
   63.0030   33.7660   48.7190 C   0  0  0  0  0  0  0  0  0  0  0  0
   64.0790   32.6840   48.7260 C   0  0  0  0  0  0  0  0  0  0  0  0
   63.5870   31.5400   49.3250 F   0  0  0  0  0  0  0  0  0  0  0  0
   61.1690   32.3460   47.7140 C   0  0  0  0  0  0  0  0  0  0  0  0
   61.9160   32.0620   46.7370 O   0  0  0  0  0  0  0  0  0  0  0  0
   58.6580   31.7850   45.6650 N   0  0  0  0  0  0  0  0  0  0  0  0
   58.1270   31.1760   44.5780 C   0  0  0  0  0  0  0  0  0  0  0  0
   57.5040   32.0100   43.4960 C   0  0  0  0  0  0  0  0  0  0  0  0
   57.0220   31.1300   42.3490 C   0  0  0  0  0  0  0  0  0  0  0  0
   58.1760   29.7840   44.4720 C   0  0  0  0  0  0  0  0  0  0  0  0
   58.7410   29.0080   45.5010 C   0  0  0  0  0  0  0  0  0  0  0  0
   58.5670   27.6640   45.4220 C   0  0  0  0  0  0  0  0  0  0  0  0
   57.3440   26.9220   45.7890 C   0  0  0  0  0  0  0  0  0  0  0  0
   57.3520   25.6450   46.2050 N   0  0  0  0  0  0  0  0  0  0  0  0
   56.0410   25.3470   46.3300 C   0  0  0  0  0  0  0  0  0  0  0  0
   55.6360   24.2220   46.7210 O   0  0  0  0  0  0  0  0  0  0  0  0
   55.1980   26.3460   45.9940 N   0  0  0  0  0  0  0  0  0  0  0  0
   56.0370   27.3330   45.6400 C   0  0  0  0  0  0  0  0  0  0  0  0
   55.6200   28.5710   45.1630 O   0  0  0  0  0  0  0  0  0  0  0  0
   60.4477   27.9770   47.2957 H   0  0  0  0  0  0  0  0  0  0  0  0
   60.9208   29.6521   48.0705 H   0  0  0  0  0  0  0  0  0  0  0  0
   58.5355   33.3324   48.4890 H   0  0  0  0  0  0  0  0  0  0  0  0
   58.0710   31.6360   48.9001 H   0  0  0  0  0  0  0  0  0  0  0  0
   58.9507   32.9725   50.8572 H   0  0  0  0  0  0  0  0  0  0  0  0
   59.8703   31.4616   50.5066 H   0  0  0  0  0  0  0  0  0  0  0  0
   63.0830   34.3512   47.7910 H   0  0  0  0  0  0  0  0  0  0  0  0
   63.1482   34.4204   49.5912 H   0  0  0  0  0  0  0  0  0  0  0  0
   64.3750   32.4563   47.6913 H   0  0  0  0  0  0  0  0  0  0  0  0
   64.9523   33.0432   49.2902 H   0  0  0  0  0  0  0  0  0  0  0  0
   56.6482   32.5615   43.9125 H   0  0  0  0  0  0  0  0  0  0  0  0
   58.2587   32.7116   43.1110 H   0  0  0  0  0  0  0  0  0  0  0  0
   56.5310   30.2337   42.7559 H   0  0  0  0  0  0  0  0  0  0  0  0
   56.3058   31.6920   41.7316 H   0  0  0  0  0  0  0  0  0  0  0  0
   57.8812   30.8291   41.7316 H   0  0  0  0  0  0  0  0  0  0  0  0
   57.7696   29.2904   43.5769 H   0  0  0  0  0  0  0  0  0  0  0  0
   59.4164   27.0723   45.0498 H   0  0  0  0  0  0  0  0  0  0  0  0
   54.7340   28.9650   45.4560 H   0  0  0  0  0  0  0  0  0  0  0  0
  1  2  2  0
  2  3  1  0
  3  4  1  0
  4  5  1  0
  5  6  1  0
  6  7  1  0
  7  8  2  0
  7  9  1  0
  9 10  1  0
 10 11  1  0
 11 12  1  0
  9 13  1  0
 13 14  2  0
  3 15  2  0
 15 16  1  0
 16 17  1  0
 17 18  1  0
 16 19  2  0
 19 20  1  0
 20 21  2  3
 21 22  1  0
 22 23  1  0
 23 24  1  0
 24 25  2  0
 24 26  1  0
 26 27  1  0
 27 28  1  0
 20  2  1  0
 27 22  2  0
 13  4  1  0
  1 29  1  0
  1 30  1  0
  5 31  1  0
  5 32  1  0
  6 33  1  0
  6 34  1  0
 10 35  1  0
 10 36  1  0
 11 37  1  0
 11 38  1  0
 17 39  1  0
 17 40  1  0
 18 41  1  0
 18 42  1  0
 18 43  1  0
 19 44  1  0
 21 45  1  0
 28 46  1  0
M  CHG  2  23  -1  26  -1
M  END
>  <UniqueID>  (67) 
64

>  <SMILES>  (67) 
C=c1c(N2CCC(=O)N(CCF)C2=O)nc(CC)cc1=Cc1[n-]c(=O)[n-]c1O

>  <Energy>  (67) 
96.84053883579737

>  <Genealogy>  (67) 
C=c1c(N2CCC(=O)N(CCF)C2=O)nc(CC)cc1=Cc1[n-]c(=O)[n-]c1O (protonated)
C=c1c(N2CCC(=O)N(CCF)C2=O)nc(CC)cc1=Cc1[n-]c(=O)[n-]c1O (3D coordinates assigned)
C=c1c(N2CCC(=O)N(CCF)C2=O)nc(CC)cc1=Cc1[n-]c(=O)[n-]c1O (nonaromatic ring conformer: 96.84053883579737 kcal/mol)

>  <smiles>  (67) 
C=c1c(N2CCC(=O)N(CCF)C2=O)nc(CC)cc1=Cc1[nH]c(=O)[nH]c1O

>  <score_type>  (67) 
oracle

>  <origin>  (67) 
adg

>  <m_score__min__energy>  (67) 
-12.26

>  <m_primary>  (67) 
energy

$$$$
67:0
     RDKit          3D

 47 49  0  0  0  0  0  0  0  0999 V2000
   54.7950   26.2420   45.9880 N   0  0  0  0  0  0  0  0  0  0  0  0
   56.3870   25.6190   46.2330 S   0  0  0  0  0  0  0  0  0  0  0  0
   56.4220   24.8260   47.5100 O   0  0  0  0  0  0  0  0  0  0  0  0
   56.7540   24.7110   45.0930 O   0  0  0  0  0  0  0  0  0  0  0  0
   57.5340   26.9520   46.3260 C   0  0  0  0  0  0  0  0  0  0  0  0
   57.5120   27.9670   45.3610 C   0  0  0  0  0  0  0  0  0  0  0  0
   58.4140   29.0330   45.4390 C   0  0  0  0  0  0  0  0  0  0  0  0
   59.3370   29.1030   46.4930 C   0  0  0  0  0  0  0  0  0  0  0  0
   60.3310   30.2260   46.5570 C   0  0  0  0  0  0  0  0  0  0  0  0
   61.0390   30.1700   47.8300 N   0  0  0  0  0  0  0  0  0  0  0  0
   61.1170   31.2520   48.7640 C   0  0  0  0  0  0  0  0  0  0  0  0
   60.3820   31.2190   49.7870 O   0  0  0  0  0  0  0  0  0  0  0  0
   61.9950   32.4570   48.5160 C   0  0  1  0  0  0  0  0  0  0  0  0
   63.2510   32.0780   47.7310 C   0  0  0  0  0  0  0  0  0  0  0  0
   63.4840   33.2310   46.7610 C   0  0  0  0  0  0  0  0  0  0  0  0
   62.1230   33.8840   46.5670 C   0  0  0  0  0  0  0  0  0  0  0  0
   61.3130   33.4550   47.6990 N   0  0  0  0  0  0  0  0  0  0  0  0
   60.1720   34.1980   48.1710 C   0  0  0  0  0  0  0  0  0  0  0  0
   60.1200   34.5670   49.3750 O   0  0  0  0  0  0  0  0  0  0  0  0
   59.1170   34.5910   47.2850 N   0  0  0  0  0  0  0  0  0  0  0  0
   58.6470   33.8340   46.1640 C   0  0  0  0  0  0  0  0  0  0  0  0
   57.8470   32.7060   46.3910 C   0  0  0  0  0  0  0  0  0  0  0  0
   57.3940   31.9340   45.3170 C   0  0  0  0  0  0  0  0  0  0  0  0
   57.7520   32.2740   44.0080 C   0  0  0  0  0  0  0  0  0  0  0  0
   57.1830   31.3040   42.6610 Cl  0  0  0  0  0  0  0  0  0  0  0  0
   58.5710   33.3830   43.7750 C   0  0  0  0  0  0  0  0  0  0  0  0
   59.0250   34.1560   44.8480 C   0  0  0  0  0  0  0  0  0  0  0  0
   59.3630   28.0800   47.4550 C   0  0  0  0  0  0  0  0  0  0  0  0
   58.4610   27.0150   47.3750 C   0  0  0  0  0  0  0  0  0  0  0  0
   54.7100   27.1010   46.5780 H   0  0  0  0  0  0  0  0  0  0  0  0
   56.7825   27.9255   44.5387 H   0  0  0  0  0  0  0  0  0  0  0  0
   58.3996   29.8199   44.6705 H   0  0  0  0  0  0  0  0  0  0  0  0
   61.0510   30.1270   45.7313 H   0  0  0  0  0  0  0  0  0  0  0  0
   59.8060   31.1886   46.4691 H   0  0  0  0  0  0  0  0  0  0  0  0
   62.2434   32.8525   49.5119 H   0  0  0  0  0  0  0  0  0  0  0  0
   64.1098   31.9658   48.4092 H   0  0  0  0  0  0  0  0  0  0  0  0
   63.1319   31.1188   47.2060 H   0  0  0  0  0  0  0  0  0  0  0  0
   64.1986   33.9515   47.1856 H   0  0  0  0  0  0  0  0  0  0  0  0
   63.9075   32.8817   45.8078 H   0  0  0  0  0  0  0  0  0  0  0  0
   62.2212   34.9796   46.5594 H   0  0  0  0  0  0  0  0  0  0  0  0
   61.6669   33.5933   45.6091 H   0  0  0  0  0  0  0  0  0  0  0  0
   57.5741   32.4266   47.4193 H   0  0  0  0  0  0  0  0  0  0  0  0
   56.7550   31.0578   45.5015 H   0  0  0  0  0  0  0  0  0  0  0  0
   58.8584   33.6476   42.7467 H   0  0  0  0  0  0  0  0  0  0  0  0
   59.6805   35.0196   44.6622 H   0  0  0  0  0  0  0  0  0  0  0  0
   60.0959   28.1170   48.2745 H   0  0  0  0  0  0  0  0  0  0  0  0
   58.4790   26.2233   48.1385 H   0  0  0  0  0  0  0  0  0  0  0  0
  1  2  1  0
  2  3  2  0
  2  4  2  0
  2  5  1  0
  5  6  2  0
  6  7  1  0
  7  8  2  0
  8  9  1  0
  9 10  1  0
 10 11  1  0
 11 12  2  0
 11 13  1  0
 13 14  1  0
 14 15  1  0
 15 16  1  0
 16 17  1  0
 17 18  1  0
 18 19  2  0
 18 20  1  0
 20 21  1  0
 21 22  2  0
 22 23  1  0
 23 24  2  0
 24 25  1  0
 24 26  1  0
 26 27  2  0
  8 28  1  0
 28 29  2  0
 29  5  1  0
 17 13  1  0
 27 21  1  0
  1 30  1  0
  6 31  1  0
  7 32  1  0
  9 33  1  0
  9 34  1  0
 13 35  1  1
 14 36  1  0
 14 37  1  0
 15 38  1  0
 15 39  1  0
 16 40  1  0
 16 41  1  0
 22 42  1  0
 23 43  1  0
 26 44  1  0
 27 45  1  0
 28 46  1  0
 29 47  1  0
M  CHG  3   1  -1  10  -1  20  -1
M  END
>  <UniqueID>  (68) 
65

>  <SMILES>  (68) 
[NH-]S(=O)(=O)c1ccc(C[N-]C(=O)[C@H]2CCCN2C(=O)[N-]c2ccc(Cl)cc2)cc1

>  <Energy>  (68) 
50.85891673081892

>  <Genealogy>  (68) 
[NH-]S(=O)(=O)c1ccc(C[N-]C(=O)C2CCCN2C(=O)[N-]c2ccc(Cl)cc2)cc1 (protonated)
[NH-]S(=O)(=O)c1ccc(C[N-]C(=O)[C@H]2CCCN2C(=O)[N-]c2ccc(Cl)cc2)cc1 (chirality)
[NH-]S(=O)(=O)c1ccc(C[N-]C(=O)[C@H]2CCCN2C(=O)[N-]c2ccc(Cl)cc2)cc1 (3D coordinates assigned)
[NH-]S(=O)(=O)c1ccc(C[N-]C(=O)[C@H]2CCCN2C(=O)[N-]c2ccc(Cl)cc2)cc1 (nonaromatic ring conformer: 50.85891673081892 kcal/mol)

>  <smiles>  (68) 
NS(=O)(=O)c1ccc(CNC(=O)C2CCCN2C(=O)Nc2ccc(Cl)cc2)cc1

>  <score_type>  (68) 
oracle

>  <origin>  (68) 
adg

>  <m_score__min__energy>  (68) 
-14

>  <m_primary>  (68) 
energy

$$$$
68:0
     RDKit          3D

 48 51  0  0  0  0  0  0  0  0999 V2000
   55.2350   30.4600   45.2810 H   0  0  0  0  0  0  0  0  0  0  0  0
   55.9380   30.0160   44.7030 O   0  0  0  0  0  0  0  0  0  0  0  0
   56.6000   28.8680   45.1350 C   0  0  0  0  0  0  0  0  0  0  0  0
   55.8790   27.8070   45.5850 N   0  0  0  0  0  0  0  0  0  0  0  0
   56.4880   26.6610   45.9820 C   0  0  0  0  0  0  0  0  0  0  0  0
   55.7990   25.6950   46.3970 O   0  0  0  0  0  0  0  0  0  0  0  0
   57.8390   26.5550   45.9230 N   0  0  0  0  0  0  0  0  0  0  0  0
   58.6070   27.5850   45.4830 C   0  0  0  0  0  0  0  0  0  0  0  0
   59.8590   27.4500   45.4380 O   0  0  0  0  0  0  0  0  0  0  0  0
   58.0020   28.7920   45.0920 C   0  0  0  0  0  0  0  0  0  0  0  0
   58.8240   29.9120   44.5840 C   0  0  0  0  0  0  0  0  0  0  0  0
   59.5931   29.6934   43.8285 H   0  0  0  0  0  0  0  0  0  0  0  0
   58.6800   31.1850   44.9980 C   0  0  0  0  0  0  0  0  0  0  0  0
   59.4830   31.8410   45.9360 C   0  0  0  0  0  0  0  0  0  0  0  0
   60.6160   31.2470   46.7430 C   0  0  0  0  0  0  0  0  0  0  0  0
   61.1237   30.4788   46.1413 H   0  0  0  0  0  0  0  0  0  0  0  0
   61.3191   32.0500   47.0093 H   0  0  0  0  0  0  0  0  0  0  0  0
   60.0960   30.6190   48.0100 C   0  0  0  0  0  0  0  0  0  0  0  0
   59.3790   31.3860   48.9460 C   0  0  0  0  0  0  0  0  0  0  0  0
   59.2078   32.4566   48.7603 H   0  0  0  0  0  0  0  0  0  0  0  0
   58.8830   30.7940   50.1110 C   0  0  0  0  0  0  0  0  0  0  0  0
   58.3209   31.3988   50.8378 H   0  0  0  0  0  0  0  0  0  0  0  0
   59.1000   29.4350   50.3540 C   0  0  0  0  0  0  0  0  0  0  0  0
   58.7071   28.9706   51.2705 H   0  0  0  0  0  0  0  0  0  0  0  0
   59.8160   28.6660   49.4330 C   0  0  0  0  0  0  0  0  0  0  0  0
   59.9884   27.5969   49.6264 H   0  0  0  0  0  0  0  0  0  0  0  0
   60.3140   29.2540   48.2650 C   0  0  0  0  0  0  0  0  0  0  0  0
   60.8785   28.6454   47.5433 H   0  0  0  0  0  0  0  0  0  0  0  0
   58.9290   33.1130   46.0990 C   0  0  0  0  0  0  0  0  0  0  0  0
   59.3790   34.1660   47.0330 C   0  0  0  0  0  0  0  0  0  0  0  0
   58.5750   34.6120   47.8930 O   0  0  0  0  0  0  0  0  0  0  0  0
   60.7460   34.6070   47.0020 N   0  0  0  0  0  0  0  0  0  0  0  0
   61.8070   34.0680   47.5350 C   0  0  0  0  0  0  0  0  0  0  0  0
   61.8140   33.8680   48.8830 N   0  0  0  0  0  0  0  0  0  0  0  0
   62.8690   33.3080   49.5330 C   0  0  0  0  0  0  0  0  0  0  0  0
   62.8328   33.1714   50.6239 H   0  0  0  0  0  0  0  0  0  0  0  0
   63.9960   32.9070   48.8180 C   0  0  0  0  0  0  0  0  0  0  0  0
   64.8565   32.4613   49.3386 H   0  0  0  0  0  0  0  0  0  0  0  0
   64.0190   33.0780   47.4340 C   0  0  0  0  0  0  0  0  0  0  0  0
   64.8992   32.7600   46.8560 H   0  0  0  0  0  0  0  0  0  0  0  0
   62.9270   33.6520   46.7810 C   0  0  0  0  0  0  0  0  0  0  0  0
   62.9384   33.7794   45.6885 H   0  0  0  0  0  0  0  0  0  0  0  0
   57.8290   33.1690   45.2480 C   0  0  0  0  0  0  0  0  0  0  0  0
   57.0160   34.2120   45.0590 C   0  0  0  0  0  0  0  0  0  0  0  0
   57.1759   35.1432   45.6224 H   0  0  0  0  0  0  0  0  0  0  0  0
   56.1867   34.1397   44.3400 H   0  0  0  0  0  0  0  0  0  0  0  0
   57.6850   32.0030   44.5890 N   0  0  0  0  0  0  0  0  0  0  0  0
   56.9190   31.7780   43.9160 H   0  0  0  0  0  0  0  0  0  0  0  0
  1  2  1  0
  2  3  1  0
  3  4  1  0
  4  5  1  0
  5  6  2  0
  5  7  1  0
  7  8  1  0
  8  9  2  0
  8 10  1  0
 10 11  1  0
 11 12  1  0
 11 13  2  0
 13 14  1  0
 14 15  1  0
 15 16  1  0
 15 17  1  0
 15 18  1  0
 18 19  2  0
 19 20  1  0
 19 21  1  0
 21 22  1  0
 21 23  2  0
 23 24  1  0
 23 25  1  0
 25 26  1  0
 25 27  2  0
 27 28  1  0
 14 29  2  0
 29 30  1  0
 30 31  2  0
 30 32  1  0
 32 33  2  3
 33 34  1  0
 34 35  1  0
 35 36  1  0
 35 37  2  0
 37 38  1  0
 37 39  1  0
 39 40  1  0
 39 41  2  0
 41 42  1  0
 29 43  1  0
 43 44  2  0
 44 45  1  0
 44 46  1  0
 43 47  1  0
 47 48  1  0
 10  3  2  0
 47 13  1  0
 27 18  1  0
 41 33  1  0
M  CHG  3   4  -1   7  -1  34  -1
M  END
>  <UniqueID>  (69) 
66

>  <SMILES>  (69) 
C=c1[nH]/c(=C\c2c(O)[n-]c(=O)[n-]c2=O)c(Cc2ccccc2)c1C(=O)N=c1cccc[n-]1

>  <Energy>  (69) 
99.31095859516323

>  <Genealogy>  (69) 
C=c1[nH]c(=Cc2c(O)[n-]c(=O)[n-]c2=O)c(Cc2ccccc2)c1C(=O)N=c1cccc[n-]1 (protonated)
C=c1[nH]/c(=C\c2c(O)[n-]c(=O)[n-]c2=O)c(Cc2ccccc2)c1C(=O)N=c1cccc[n-]1 (cis-trans isomerization)
C=c1[nH]/c(=C\c2c(O)[n-]c(=O)[n-]c2=O)c(Cc2ccccc2)c1C(=O)N=c1cccc[n-]1 (3D coordinates assigned)
C=c1[nH]/c(=C\c2c(O)[n-]c(=O)[n-]c2=O)c(Cc2ccccc2)c1C(=O)N=c1cccc[n-]1 (optimized conformer: 99.31095859516323 kcal/mol)

>  <smiles>  (69) 
C=c1[nH]c(=Cc2c(O)[nH]c(=O)[nH]c2=O)c(Cc2ccccc2)c1C(=O)N=c1cccc[nH]1

>  <score_type>  (69) 
oracle

>  <origin>  (69) 
adg

>  <m_score__min__energy>  (69) 
-14.289999999999999

>  <m_primary>  (69) 
energy

$$$$
69:0
     RDKit          3D

 39 41  0  0  0  0  0  0  0  0999 V2000
   58.5272   27.0301   47.8745 H   0  0  0  0  0  0  0  0  0  0  0  0
   58.8320   28.0800   47.9960 C   0  0  0  0  0  0  0  0  0  0  0  0
   59.2802   28.4166   48.9424 H   0  0  0  0  0  0  0  0  0  0  0  0
   58.6560   28.9550   46.9840 C   0  0  0  0  0  0  0  0  0  0  0  0
   59.0510   30.3180   47.1400 C   0  0  0  0  0  0  0  0  0  0  0  0
   59.9600   30.7900   48.2630 C   0  0  0  0  0  0  0  0  0  0  0  0
   59.3479   31.2653   49.0437 H   0  0  0  0  0  0  0  0  0  0  0  0
   60.4958   29.9178   48.6657 H   0  0  0  0  0  0  0  0  0  0  0  0
   60.9800   31.7870   47.7620 C   0  0  0  0  0  0  0  0  0  0  0  0
   62.3230   31.4040   47.6180 C   0  0  0  0  0  0  0  0  0  0  0  0
   62.6348   30.3861   47.8947 H   0  0  0  0  0  0  0  0  0  0  0  0
   63.2380   32.2840   47.1390 N   0  0  0  0  0  0  0  0  0  0  0  0
   62.8770   33.5420   46.7830 C   0  0  0  0  0  0  0  0  0  0  0  0
   63.7410   34.3430   46.3420 O   0  0  0  0  0  0  0  0  0  0  0  0
   61.5820   33.9360   46.8950 N   0  0  0  0  0  0  0  0  0  0  0  0
   60.6280   33.0910   47.3670 C   0  0  0  0  0  0  0  0  0  0  0  0
   59.4350   33.4890   47.4380 O   0  0  0  0  0  0  0  0  0  0  0  0
   58.6040   31.2550   46.2510 N   0  0  0  0  0  0  0  0  0  0  0  0
   58.8860   32.2540   46.3730 H   0  0  0  0  0  0  0  0  0  0  0  0
   57.7690   30.9460   45.2250 C   0  0  0  0  0  0  0  0  0  0  0  0
   57.2370   32.0390   44.3350 C   0  0  0  0  0  0  0  0  0  0  0  0
   57.7838   32.0264   43.3806 H   0  0  0  0  0  0  0  0  0  0  0  0
   56.1648   31.8648   44.1615 H   0  0  0  0  0  0  0  0  0  0  0  0
   57.4130   33.4010   44.9950 C   0  0  0  0  0  0  0  0  0  0  0  0
   57.3978   33.2832   46.0886 H   0  0  0  0  0  0  0  0  0  0  0  0
   58.3749   33.8364   44.6865 H   0  0  0  0  0  0  0  0  0  0  0  0
   56.5934   34.0666   44.6865 H   0  0  0  0  0  0  0  0  0  0  0  0
   57.4110   29.6170   44.9990 C   0  0  0  0  0  0  0  0  0  0  0  0
   56.7110   29.3712   44.1869 H   0  0  0  0  0  0  0  0  0  0  0  0
   57.9370   28.5900   45.8000 C   0  0  0  0  0  0  0  0  0  0  0  0
   57.7440   27.3180   45.3630 C   0  0  0  0  0  0  0  0  0  0  0  0
   57.9960   27.1054   44.3136 H   0  0  0  0  0  0  0  0  0  0  0  0
   57.2260   26.1950   46.1710 C   0  0  0  0  0  0  0  0  0  0  0  0
   57.9740   25.1930   46.6720 N   0  0  0  0  0  0  0  0  0  0  0  0
   57.0610   24.3670   47.2250 C   0  0  0  0  0  0  0  0  0  0  0  0
   57.3790   23.3010   47.8140 O   0  0  0  0  0  0  0  0  0  0  0  0
   55.7790   24.7660   47.0870 N   0  0  0  0  0  0  0  0  0  0  0  0
   55.9010   25.9190   46.4090 C   0  0  0  0  0  0  0  0  0  0  0  0
   54.8230   26.6960   46.0060 O   0  0  0  0  0  0  0  0  0  0  0  0
  1  2  1  0
  2  3  1  0
  2  4  2  0
  4  5  1  0
  5  6  1  0
  6  7  1  0
  6  8  1  0
  6  9  1  0
  9 10  2  0
 10 11  1  0
 10 12  1  0
 12 13  1  0
 13 14  2  0
 13 15  1  0
 15 16  1  0
 16 17  2  0
  5 18  2  0
 18 19  1  0
 18 20  1  0
 20 21  1  0
 21 22  1  0
 21 23  1  0
 21 24  1  0
 24 25  1  0
 24 26  1  0
 24 27  1  0
 20 28  2  0
 28 29  1  0
 28 30  1  0
 30 31  2  0
 31 32  1  0
 31 33  1  0
 33 34  1  0
 34 35  1  0
 35 36  2  0
 35 37  1  0
 37 38  1  0
 38 39  1  0
 30  4  1  0
 38 33  2  0
 16  9  1  0
M  CHG  6  12  -1  15  -1  18   1  34  -1  37  -1  39  -1
M  END
>  <UniqueID>  (70) 
67

>  <SMILES>  (70) 
C=c1c(Cc2c[n-]c(=O)[n-]c2=O)[nH+]c(CC)c/c1=C/c1[n-]c(=O)[n-]c1[O-]

>  <Energy>  (70) 
93.62973296288088

>  <Genealogy>  (70) 
C=c1c(Cc2c[n-]c(=O)[n-]c2=O)[nH+]c(CC)cc1=Cc1[n-]c(=O)[n-]c1[O-] (protonated)
C=c1c(Cc2c[n-]c(=O)[n-]c2=O)[nH+]c(CC)c/c1=C/c1[n-]c(=O)[n-]c1[O-] (cis-trans isomerization)
C=c1c(Cc2c[n-]c(=O)[n-]c2=O)[nH+]c(CC)c/c1=C/c1[n-]c(=O)[n-]c1[O-] (3D coordinates assigned)
C=c1c(Cc2c[n-]c(=O)[n-]c2=O)[nH+]c(CC)c/c1=C/c1[n-]c(=O)[n-]c1[O-] (optimized conformer: 93.62973296288088 kcal/mol)

>  <smiles>  (70) 
C=c1c(Cc2c[nH]c(=O)[nH]c2=O)nc(CC)cc1=Cc1[nH]c(=O)[nH]c1O

>  <score_type>  (70) 
oracle

>  <origin>  (70) 
adg

>  <m_score__min__energy>  (70) 
-15.300000000000001

>  <m_primary>  (70) 
energy

$$$$
70:0
     RDKit          3D

 37 39  0  0  0  0  0  0  0  0999 V2000
   56.8460   22.1240   46.9860 C   0  0  0  0  0  0  0  0  0  0  0  0
   56.7820   23.5780   46.6580 C   0  0  0  0  0  0  0  0  0  0  0  0
   55.5940   24.1470   46.3230 N   0  0  0  0  0  0  0  0  0  0  0  0
   55.5080   25.4600   45.9860 C   0  0  0  0  0  0  0  0  0  0  0  0
   54.3850   25.9480   45.6900 O   0  0  0  0  0  0  0  0  0  0  0  0
   56.6690   26.2520   45.9690 C   0  0  0  0  0  0  0  0  0  0  0  0
   56.6480   27.6170   45.6300 C   0  0  0  0  0  0  0  0  0  0  0  0
   57.8410   28.3630   45.6150 C   0  0  0  0  0  0  0  0  0  0  0  0
   57.8430   29.7650   45.2940 N   0  0  0  0  0  0  0  0  0  0  0  0
   57.3640   30.3090   44.0540 C   0  0  0  0  0  0  0  0  0  0  0  0
   57.1110   29.5550   43.0750 O   0  0  0  0  0  0  0  0  0  0  0  0
   57.2010   31.7870   43.9040 C   0  0  0  0  0  0  0  0  0  0  0  0
   57.0570   32.3750   45.1950 O   0  0  0  0  0  0  0  0  0  0  0  0
   58.0070   33.2160   45.7940 C   0  0  0  0  0  0  0  0  0  0  0  0
   58.6170   34.1990   45.0040 C   0  0  0  0  0  0  0  0  0  0  0  0
   59.5690   35.0610   45.5560 C   0  0  0  0  0  0  0  0  0  0  0  0
   59.9200   34.9470   46.9030 C   0  0  0  0  0  0  0  0  0  0  0  0
   59.3180   33.9690   47.7020 C   0  0  0  0  0  0  0  0  0  0  0  0
   59.7590   33.8270   49.3940 Cl  0  0  0  0  0  0  0  0  0  0  0  0
   58.3650   33.1040   47.1530 C   0  0  0  0  0  0  0  0  0  0  0  0
   59.0460   27.7410   45.9760 C   0  0  0  0  0  0  0  0  0  0  0  0
   59.0730   26.3860   46.3130 C   0  0  0  0  0  0  0  0  0  0  0  0
   57.8920   25.6380   46.3080 C   0  0  0  0  0  0  0  0  0  0  0  0
   57.9200   24.3210   46.6390 N   0  0  0  0  0  0  0  0  0  0  0  0
   56.8517   21.9944   48.0783 H   0  0  0  0  0  0  0  0  0  0  0  0
   55.9695   21.6133   46.5608 H   0  0  0  0  0  0  0  0  0  0  0  0
   57.7640   21.6923   46.5608 H   0  0  0  0  0  0  0  0  0  0  0  0
   55.6948   28.1034   45.3755 H   0  0  0  0  0  0  0  0  0  0  0  0
   58.2960   30.4230   45.9690 H   0  0  0  0  0  0  0  0  0  0  0  0
   58.0872   32.2064   43.4052 H   0  0  0  0  0  0  0  0  0  0  0  0
   56.3083   32.0013   43.2980 H   0  0  0  0  0  0  0  0  0  0  0  0
   58.3451   34.2932   43.9423 H   0  0  0  0  0  0  0  0  0  0  0  0
   60.0425   35.8304   44.9284 H   0  0  0  0  0  0  0  0  0  0  0  0
   60.6696   35.6260   47.3356 H   0  0  0  0  0  0  0  0  0  0  0  0
   57.8942   32.3350   47.7831 H   0  0  0  0  0  0  0  0  0  0  0  0
   59.9775   28.3258   45.9937 H   0  0  0  0  0  0  0  0  0  0  0  0
   60.0254   25.9064   46.5829 H   0  0  0  0  0  0  0  0  0  0  0  0
  1  2  1  0
  2  3  2  0
  3  4  1  0
  4  5  2  0
  4  6  1  0
  6  7  2  0
  7  8  1  0
  8  9  1  0
  9 10  1  0
 10 11  2  0
 10 12  1  0
 12 13  1  0
 13 14  1  0
 14 15  2  0
 15 16  1  0
 16 17  2  0
 17 18  1  0
 18 19  1  0
 18 20  2  0
  8 21  2  0
 21 22  1  0
 22 23  2  0
 23 24  1  0
 24  2  1  0
 23  6  1  0
 20 14  1  0
  1 25  1  0
  1 26  1  0
  1 27  1  0
  7 28  1  0
  9 29  1  0
 12 30  1  0
 12 31  1  0
 15 32  1  0
 16 33  1  0
 17 34  1  0
 20 35  1  0
 21 36  1  0
 22 37  1  0
M  CHG  1  24  -1
M  END
>  <UniqueID>  (71) 
68

>  <SMILES>  (71) 
Cc1nc(=O)c2cc(NC(=O)COc3cccc(Cl)c3)ccc2[n-]1

>  <Energy>  (71) 
44.41785489172449

>  <Genealogy>  (71) 
Cc1nc(=O)c2cc(NC(=O)COc3cccc(Cl)c3)ccc2[n-]1 (protonated)
Cc1nc(=O)c2cc(NC(=O)COc3cccc(Cl)c3)ccc2[n-]1 (3D coordinates assigned)
Cc1nc(=O)c2cc(NC(=O)COc3cccc(Cl)c3)ccc2[n-]1 (optimized conformer: 44.41785489172449 kcal/mol)

>  <smiles>  (71) 
Cc1nc(=O)c2cc(NC(=O)COc3cccc(Cl)c3)ccc2[nH]1

>  <score_type>  (71) 
oracle

>  <origin>  (71) 
adg

>  <m_score__min__energy>  (71) 
-10.65

>  <m_primary>  (71) 
energy

$$$$
71:0
     RDKit          3D

 27 27  0  0  0  0  0  0  0  0999 V2000
   55.1440   29.4260   44.8550 N   0  0  0  0  0  0  0  0  0  0  0  0
   56.0500   30.2270   44.0980 C   0  0  0  0  0  0  0  0  0  0  0  0
   56.3860   29.8480   42.9460 O   0  0  0  0  0  0  0  0  0  0  0  0
   56.5670   31.4710   44.5980 N   0  0  0  0  0  0  0  0  0  0  0  0
   57.4390   31.6790   45.5430 C   0  0  0  0  0  0  0  0  0  0  0  0
   58.9250   31.7790   45.3290 C   0  0  0  0  0  0  0  0  0  0  0  0
   59.5790   30.5680   45.7090 O   0  0  0  0  0  0  0  0  0  0  0  0
   59.0050   29.2870   45.6850 C   0  0  0  0  0  0  0  0  0  0  0  0
   58.7540   28.5950   44.4840 C   0  0  0  0  0  0  0  0  0  0  0  0
   58.1800   27.3220   44.5080 C   0  0  0  0  0  0  0  0  0  0  0  0
   57.8580   26.7120   45.7290 C   0  0  0  0  0  0  0  0  0  0  0  0
   57.2100   25.3540   45.7510 C   0  0  0  0  0  0  0  0  0  0  0  0
   55.7530   25.4870   46.0570 C   0  0  0  0  0  0  0  0  0  0  0  0
   55.0840   24.4790   46.4070 O   0  0  0  0  0  0  0  0  0  0  0  0
   55.1420   26.7340   46.0030 O   0  0  0  0  0  0  0  0  0  0  0  0
   58.0980   27.4020   46.9250 C   0  0  0  0  0  0  0  0  0  0  0  0
   58.6720   28.6780   46.9060 C   0  0  0  0  0  0  0  0  0  0  0  0
   58.9580   29.5140   48.4240 Cl  0  0  0  0  0  0  0  0  0  0  0  0
   55.4760   28.8540   45.6620 H   0  0  0  0  0  0  0  0  0  0  0  0
   57.0622   31.7894   46.5706 H   0  0  0  0  0  0  0  0  0  0  0  0
   59.1228   31.9762   44.2650 H   0  0  0  0  0  0  0  0  0  0  0  0
   59.3145   32.5980   45.9514 H   0  0  0  0  0  0  0  0  0  0  0  0
   59.0117   29.0602   43.5211 H   0  0  0  0  0  0  0  0  0  0  0  0
   57.9793   26.7948   43.5637 H   0  0  0  0  0  0  0  0  0  0  0  0
   57.3335   24.8756   44.7682 H   0  0  0  0  0  0  0  0  0  0  0  0
   57.6872   24.7390   46.5282 H   0  0  0  0  0  0  0  0  0  0  0  0
   57.8331   26.9369   47.8860 H   0  0  0  0  0  0  0  0  0  0  0  0
  1  2  1  0
  2  3  2  0
  2  4  1  0
  4  5  2  3
  5  6  1  0
  6  7  1  0
  7  8  1  0
  8  9  2  0
  9 10  1  0
 10 11  2  0
 11 12  1  0
 12 13  1  0
 13 14  2  0
 13 15  1  0
 11 16  1  0
 16 17  2  0
 17 18  1  0
 17  8  1  0
  1 19  1  0
  5 20  1  0
  6 21  1  0
  6 22  1  0
  9 23  1  0
 10 24  1  0
 12 25  1  0
 12 26  1  0
 16 27  1  0
M  CHG  2   1  -1  15  -1
M  END
>  <UniqueID>  (72) 
69

>  <SMILES>  (72) 
[NH-]C(=O)N=CCOc1ccc(CC(=O)[O-])cc1Cl

>  <Energy>  (72) 
26.07074297454192

>  <Genealogy>  (72) 
[NH-]C(=O)N=CCOc1ccc(CC(=O)[O-])cc1Cl (protonated)
[NH-]C(=O)N=CCOc1ccc(CC(=O)[O-])cc1Cl (3D coordinates assigned)
[NH-]C(=O)N=CCOc1ccc(CC(=O)[O-])cc1Cl (optimized conformer: 26.07074297454192 kcal/mol)

>  <smiles>  (72) 
NC(=O)N=CCOc1ccc(CC(=O)O)cc1Cl

>  <score_type>  (72) 
oracle

>  <origin>  (72) 
adg

>  <m_score__min__energy>  (72) 
-10.84

>  <m_primary>  (72) 
energy

$$$$
72:0
     RDKit          3D

 59 61  0  0  0  0  0  0  0  0999 V2000
   56.9950   34.5350   45.0010 C   0  0  0  0  0  0  0  0  0  0  0  0
   57.9570   33.4170   45.1930 N   0  0  0  0  0  0  0  0  0  0  0  0
   57.7740   32.8150   46.5450 C   0  0  0  0  0  0  0  0  0  0  0  0
   57.7310   32.3660   44.1440 C   0  0  0  0  0  0  0  0  0  0  0  0
   57.5400   30.9620   44.6760 C   0  0  0  0  0  0  0  0  0  0  0  0
   56.3710   30.5200   44.8270 O   0  0  0  0  0  0  0  0  0  0  0  0
   58.6840   30.1360   44.9670 N   0  0  0  0  0  0  0  0  0  0  0  0
   58.6530   28.8910   45.6950 C   0  0  0  0  0  0  0  0  0  0  0  0
   59.6980   28.6040   46.5920 C   0  0  0  0  0  0  0  0  0  0  0  0
   59.7050   27.4090   47.3230 C   0  0  0  0  0  0  0  0  0  0  0  0
   58.6740   26.4830   47.1590 C   0  0  0  0  0  0  0  0  0  0  0  0
   57.6120   26.7590   46.2830 C   0  0  0  0  0  0  0  0  0  0  0  0
   56.3220   25.5750   46.0650 S   0  0  0  0  0  0  0  0  0  0  0  0
   55.0000   26.2890   45.9840 O   0  0  0  0  0  0  0  0  0  0  0  0
   56.2930   24.6610   47.2600 O   0  0  0  0  0  0  0  0  0  0  0  0
   56.5800   24.6270   44.6180 N   0  0  0  0  0  0  0  0  0  0  0  0
   55.2920   24.1130   44.1230 C   0  0  0  0  0  0  0  0  0  0  0  0
   55.5180   23.0070   43.0760 C   0  0  0  0  0  0  0  0  0  0  0  0
   56.3540   21.9330   43.4910 O   0  0  0  0  0  0  0  0  0  0  0  0
   56.9730   22.1490   44.7470 C   0  0  0  0  0  0  0  0  0  0  0  0
   57.5770   23.5570   44.8610 C   0  0  0  0  0  0  0  0  0  0  0  0
   57.5880   27.9750   45.5760 C   0  0  0  0  0  0  0  0  0  0  0  0
   59.3650   33.9140   45.0090 C   0  0  0  0  0  0  0  0  0  0  0  0
   60.1320   34.2930   46.2680 C   0  0  0  0  0  0  0  0  0  0  0  0
   59.7680   35.2810   46.9590 O   0  0  0  0  0  0  0  0  0  0  0  0
   61.2550   33.4620   46.7760 C   0  0  0  0  0  0  0  0  0  0  0  0
   60.9890   32.1920   47.3370 C   0  0  0  0  0  0  0  0  0  0  0  0
   62.0360   31.3700   47.7690 C   0  0  0  0  0  0  0  0  0  0  0  0
   63.3610   31.8050   47.6470 C   0  0  0  0  0  0  0  0  0  0  0  0
   63.6380   33.0590   47.1010 C   0  0  0  0  0  0  0  0  0  0  0  0
   62.5950   33.8820   46.6560 C   0  0  0  0  0  0  0  0  0  0  0  0
   56.6705   34.9121   45.9821 H   0  0  0  0  0  0  0  0  0  0  0  0
   57.4823   35.3457   44.4395 H   0  0  0  0  0  0  0  0  0  0  0  0
   56.1207   34.1741   44.4395 H   0  0  0  0  0  0  0  0  0  0  0  0
   58.0025   33.5666   47.3150 H   0  0  0  0  0  0  0  0  0  0  0  0
   56.7329   32.4784   46.6586 H   0  0  0  0  0  0  0  0  0  0  0  0
   58.4516   31.9559   46.6586 H   0  0  0  0  0  0  0  0  0  0  0  0
   56.8309   32.6405   43.5743 H   0  0  0  0  0  0  0  0  0  0  0  0
   58.6446   32.3412   43.5318 H   0  0  0  0  0  0  0  0  0  0  0  0
   59.6020   30.4440   44.5740 H   0  0  0  0  0  0  0  0  0  0  0  0
   60.5183   29.3255   46.7207 H   0  0  0  0  0  0  0  0  0  0  0  0
   60.5241   27.2004   48.0270 H   0  0  0  0  0  0  0  0  0  0  0  0
   58.6933   25.5352   47.7170 H   0  0  0  0  0  0  0  0  0  0  0  0
   54.7187   23.7010   44.9665 H   0  0  0  0  0  0  0  0  0  0  0  0
   54.7368   24.9385   43.6536 H   0  0  0  0  0  0  0  0  0  0  0  0
   54.5367   22.5886   42.8076 H   0  0  0  0  0  0  0  0  0  0  0  0
   56.0393   23.4884   42.2355 H   0  0  0  0  0  0  0  0  0  0  0  0
   56.2209   22.0208   45.5394 H   0  0  0  0  0  0  0  0  0  0  0  0
   57.7910   21.4209   44.8503 H   0  0  0  0  0  0  0  0  0  0  0  0
   57.9889   23.6827   45.8732 H   0  0  0  0  0  0  0  0  0  0  0  0
   58.3573   23.6479   44.0910 H   0  0  0  0  0  0  0  0  0  0  0  0
   56.7328   28.2126   44.9262 H   0  0  0  0  0  0  0  0  0  0  0  0
   59.9331   33.1216   44.4997 H   0  0  0  0  0  0  0  0  0  0  0  0
   59.2663   34.8506   44.4407 H   0  0  0  0  0  0  0  0  0  0  0  0
   59.9492   31.8466   47.4349 H   0  0  0  0  0  0  0  0  0  0  0  0
   61.8181   30.3834   48.2039 H   0  0  0  0  0  0  0  0  0  0  0  0
   64.1848   31.1575   47.9819 H   0  0  0  0  0  0  0  0  0  0  0  0
   64.6797   33.4029   47.0196 H   0  0  0  0  0  0  0  0  0  0  0  0
   62.8233   34.8615   46.2105 H   0  0  0  0  0  0  0  0  0  0  0  0
  1  2  1  0
  2  3  1  0
  2  4  1  0
  4  5  1  0
  5  6  2  0
  5  7  1  0
  7  8  1  0
  8  9  2  0
  9 10  1  0
 10 11  2  0
 11 12  1  0
 12 13  1  0
 13 14  2  0
 13 15  2  0
 13 16  1  0
 16 17  1  0
 17 18  1  0
 18 19  1  0
 19 20  1  0
 20 21  1  0
 12 22  2  0
  2 23  1  0
 23 24  1  0
 24 25  2  0
 24 26  1  0
 26 27  2  0
 27 28  1  0
 28 29  2  0
 29 30  1  0
 30 31  2  0
 22  8  1  0
 31 26  1  0
 21 16  1  0
  1 32  1  0
  1 33  1  0
  1 34  1  0
  3 35  1  0
  3 36  1  0
  3 37  1  0
  4 38  1  0
  4 39  1  0
  7 40  1  0
  9 41  1  0
 10 42  1  0
 11 43  1  0
 17 44  1  0
 17 45  1  0
 18 46  1  0
 18 47  1  0
 20 48  1  0
 20 49  1  0
 21 50  1  0
 21 51  1  0
 22 52  1  0
 23 53  1  0
 23 54  1  0
 27 55  1  0
 28 56  1  0
 29 57  1  0
 30 58  1  0
 31 59  1  0
M  CHG  1   2   1
M  END
>  <UniqueID>  (73) 
70

>  <SMILES>  (73) 
C[N+](C)(CC(=O)Nc1cccc(S(=O)(=O)N2CCOCC2)c1)CC(=O)c1ccccc1

>  <Energy>  (73) 
92.19914301604787

>  <Genealogy>  (73) 
C[N+](C)(CC(=O)Nc1cccc(S(=O)(=O)N2CCOCC2)c1)CC(=O)c1ccccc1 (3D coordinates assigned)
C[N+](C)(CC(=O)Nc1cccc(S(=O)(=O)N2CCOCC2)c1)CC(=O)c1ccccc1 (nonaromatic ring conformer: 92.19914301604787 kcal/mol)

>  <smiles>  (73) 
C[N+](C)(CC(=O)Nc1cccc(S(=O)(=O)N2CCOCC2)c1)CC(=O)c1ccccc1

>  <score_type>  (73) 
oracle

>  <origin>  (73) 
adg

>  <m_score__min__energy>  (73) 
-9.1300000000000008

>  <m_primary>  (73) 
energy

$$$$
73:0
     RDKit          3D

 45 47  0  0  0  0  0  0  0  0999 V2000
   57.1490   31.6520   42.8320 C   0  0  0  0  0  0  0  0  0  0  0  0
   57.6250   30.9090   43.8320 C   0  0  0  0  0  0  0  0  0  0  0  0
   57.8180   29.5770   43.7400 N   0  0  0  0  0  0  0  0  0  0  0  0
   58.3000   29.1640   44.9330 C   0  0  0  0  0  0  0  0  0  0  0  0
   58.5740   27.8850   45.2440 C   0  0  0  0  0  0  0  0  0  0  0  0
   57.5390   26.8900   45.6030 C   0  0  0  0  0  0  0  0  0  0  0  0
   56.1870   27.2630   45.6290 C   0  0  0  0  0  0  0  0  0  0  0  0
   55.8010   28.5540   45.2820 O   0  0  0  0  0  0  0  0  0  0  0  0
   55.2400   26.3580   45.9850 N   0  0  0  0  0  0  0  0  0  0  0  0
   55.5770   25.0900   46.3350 C   0  0  0  0  0  0  0  0  0  0  0  0
   54.6810   24.2670   46.6560 O   0  0  0  0  0  0  0  0  0  0  0  0
   56.8810   24.7120   46.3450 N   0  0  0  0  0  0  0  0  0  0  0  0
   57.8670   25.5800   45.9980 C   0  0  0  0  0  0  0  0  0  0  0  0
   59.0670   25.2030   46.0530 O   0  0  0  0  0  0  0  0  0  0  0  0
   58.4000   30.2460   45.8050 C   0  0  0  0  0  0  0  0  0  0  0  0
   58.8920   30.2230   47.1970 C   0  0  0  0  0  0  0  0  0  0  0  0
   58.1480   29.7460   48.0960 O   0  0  0  0  0  0  0  0  0  0  0  0
   60.1890   30.7480   47.5370 N   0  0  0  0  0  0  0  0  0  0  0  0
   60.9170   30.2350   48.7060 C   0  0  0  0  0  0  0  0  0  0  0  0
   61.3140   31.4050   49.6080 C   0  0  0  0  0  0  0  0  0  0  0  0
   62.1450   32.4820   48.8570 C   0  0  0  0  0  0  0  0  0  0  0  0
   61.7090   33.8940   49.2700 C   0  0  0  0  0  0  0  0  0  0  0  0
   62.1090   32.3190   47.3170 C   0  0  0  0  0  0  0  0  0  0  0  0
   60.7220   31.9080   46.8020 C   0  0  0  0  0  0  0  0  0  0  0  0
   57.9850   31.3650   45.0930 C   0  0  0  0  0  0  0  0  0  0  0  0
   57.9550   32.7870   45.5750 C   0  0  0  0  0  0  0  0  0  0  0  0
   57.0134   32.7351   42.9678 H   0  0  0  0  0  0  0  0  0  0  0  0
   56.8920   31.1817   41.8714 H   0  0  0  0  0  0  0  0  0  0  0  0
   57.5960   28.9850   42.9080 H   0  0  0  0  0  0  0  0  0  0  0  0
   59.6249   27.5604   45.2309 H   0  0  0  0  0  0  0  0  0  0  0  0
   60.2716   29.5421   49.2657 H   0  0  0  0  0  0  0  0  0  0  0  0
   61.8206   29.7033   48.3731 H   0  0  0  0  0  0  0  0  0  0  0  0
   60.3994   31.8748   49.9990 H   0  0  0  0  0  0  0  0  0  0  0  0
   61.9415   31.0041   50.4176 H   0  0  0  0  0  0  0  0  0  0  0  0
   63.1922   32.3304   49.1575 H   0  0  0  0  0  0  0  0  0  0  0  0
   61.6872   33.9647   50.3675 H   0  0  0  0  0  0  0  0  0  0  0  0
   62.4218   34.6298   48.8693 H   0  0  0  0  0  0  0  0  0  0  0  0
   60.7055   34.0998   48.8693 H   0  0  0  0  0  0  0  0  0  0  0  0
   62.3876   33.2772   46.8541 H   0  0  0  0  0  0  0  0  0  0  0  0
   62.8157   31.5199   47.0486 H   0  0  0  0  0  0  0  0  0  0  0  0
   60.0311   32.7552   46.9239 H   0  0  0  0  0  0  0  0  0  0  0  0
   60.8191   31.6274   45.7428 H   0  0  0  0  0  0  0  0  0  0  0  0
   57.9547   32.8014   46.6749 H   0  0  0  0  0  0  0  0  0  0  0  0
   58.8421   33.3195   45.2016 H   0  0  0  0  0  0  0  0  0  0  0  0
   57.0462   33.2816   45.2016 H   0  0  0  0  0  0  0  0  0  0  0  0
  1  2  2  0
  2  3  1  0
  3  4  1  0
  4  5  2  3
  5  6  1  0
  6  7  2  0
  7  8  1  0
  7  9  1  0
  9 10  1  0
 10 11  2  0
 10 12  1  0
 12 13  1  0
 13 14  2  0
  4 15  1  0
 15 16  1  0
 16 17  2  0
 16 18  1  0
 18 19  1  0
 19 20  1  0
 20 21  1  0
 21 22  1  0
 21 23  1  0
 23 24  1  0
 15 25  2  0
 25 26  1  0
 25  2  1  0
 13  6  1  0
 24 18  1  0
  1 27  1  0
  1 28  1  0
  3 29  1  0
  5 30  1  0
 19 31  1  0
 19 32  1  0
 20 33  1  0
 20 34  1  0
 21 35  1  0
 22 36  1  0
 22 37  1  0
 22 38  1  0
 23 39  1  0
 23 40  1  0
 24 41  1  0
 24 42  1  0
 26 43  1  0
 26 44  1  0
 26 45  1  0
M  CHG  3   8  -1   9  -1  12  -1
M  END
>  <UniqueID>  (74) 
71

>  <SMILES>  (74) 
C=c1[nH]c(=Cc2c([O-])[n-]c(=O)[n-]c2=O)c(C(=O)N2CCC(C)CC2)c1C

>  <Energy>  (74) 
88.38009980095516

>  <Genealogy>  (74) 
C=c1[nH]c(=Cc2c([O-])[n-]c(=O)[n-]c2=O)c(C(=O)N2CCC(C)CC2)c1C (protonated)
C=c1[nH]c(=Cc2c([O-])[n-]c(=O)[n-]c2=O)c(C(=O)N2CCC(C)CC2)c1C (3D coordinates assigned)
C=c1[nH]c(=Cc2c([O-])[n-]c(=O)[n-]c2=O)c(C(=O)N2CCC(C)CC2)c1C (nonaromatic ring conformer: 88.38009980095516 kcal/mol)

>  <smiles>  (74) 
C=c1[nH]c(=Cc2c(O)[nH]c(=O)[nH]c2=O)c(C(=O)N2CCC(C)CC2)c1C

>  <score_type>  (74) 
oracle

>  <origin>  (74) 
adg

>  <m_score__min__energy>  (74) 
-15.4

>  <m_primary>  (74) 
energy

$$$$
74:0
     RDKit          3D

 58 61  0  0  0  0  0  0  0  0999 V2000
   52.8730   30.2560   49.0420 H   0  0  0  0  0  0  0  0  0  0  0  0
   52.0160   30.1840   49.5730 O   0  0  0  0  0  0  0  0  0  0  0  0
   51.7780   30.9690   50.6900 C   0  0  0  0  0  0  0  0  0  0  0  0
   50.8980   31.9850   50.6970 N   0  0  0  0  0  0  0  0  0  0  0  0
   50.9870   32.4490   51.9560 C   0  0  0  0  0  0  0  0  0  0  0  0
   50.3000   33.4160   52.3810 O   0  0  0  0  0  0  0  0  0  0  0  0
   51.8700   31.7910   52.7380 N   0  0  0  0  0  0  0  0  0  0  0  0
   52.3730   30.8430   51.9330 C   0  0  0  0  0  0  0  0  0  0  0  0
   53.4120   29.8580   52.3160 C   0  0  0  0  0  0  0  0  0  0  0  0
   53.0663   28.8528   52.5988 H   0  0  0  0  0  0  0  0  0  0  0  0
   54.7390   30.0790   52.3500 C   0  0  0  0  0  0  0  0  0  0  0  0
   55.6310   29.2540   53.0100 C   0  0  0  0  0  0  0  0  0  0  0  0
   55.3909   28.3202   53.5395 H   0  0  0  0  0  0  0  0  0  0  0  0
   56.8850   29.8280   52.8770 C   0  0  0  0  0  0  0  0  0  0  0  0
   58.0840   29.3550   53.6020 C   0  0  0  0  0  0  0  0  0  0  0  0
   57.9860   28.5350   54.5580 O   0  0  0  0  0  0  0  0  0  0  0  0
   59.3820   29.7520   53.1410 N   0  0  0  0  0  0  0  0  0  0  0  0
   60.3960   28.7840   52.7360 C   0  0  0  0  0  0  0  0  0  0  0  0
   61.3954   29.1876   52.9556 H   0  0  0  0  0  0  0  0  0  0  0  0
   60.2467   27.8459   53.2908 H   0  0  0  0  0  0  0  0  0  0  0  0
   60.2780   28.5140   51.2560 C   0  0  0  0  0  0  0  0  0  0  0  0
   59.4550   29.3290   50.4630 C   0  0  0  0  0  0  0  0  0  0  0  0
   58.9968   30.2297   50.8976 H   0  0  0  0  0  0  0  0  0  0  0  0
   59.2140   29.0050   49.1280 C   0  0  0  0  0  0  0  0  0  0  0  0
   58.5338   29.6295   48.5302 H   0  0  0  0  0  0  0  0  0  0  0  0
   59.8320   27.8880   48.5390 C   0  0  0  0  0  0  0  0  0  0  0  0
   59.5170   27.4910   47.1420 C   0  0  0  0  0  0  0  0  0  0  0  0
   59.9540   26.3970   46.6960 O   0  0  0  0  0  0  0  0  0  0  0  0
   58.6730   28.2970   46.2970 N   0  0  0  0  0  0  0  0  0  0  0  0
   58.9840   29.7120   46.0430 C   0  0  0  0  0  0  0  0  0  0  0  0
   58.1571   30.3394   46.4073 H   0  0  0  0  0  0  0  0  0  0  0  0
   59.9114   29.9818   46.5695 H   0  0  0  0  0  0  0  0  0  0  0  0
   59.1700   29.9370   44.5380 C   0  0  0  0  0  0  0  0  0  0  0  0
   59.2351   31.0155   44.3317 H   0  0  0  0  0  0  0  0  0  0  0  0
   60.0960   29.4481   44.2011 H   0  0  0  0  0  0  0  0  0  0  0  0
   58.0170   29.3660   43.8210 N   0  0  0  0  0  0  0  0  0  0  0  0
   57.0820   30.1700   43.0650 C   0  0  0  0  0  0  0  0  0  0  0  0
   56.0330   29.6480   42.6090 O   0  0  0  0  0  0  0  0  0  0  0  0
   57.3480   31.6040   42.7350 C   0  0  0  0  0  0  0  0  0  0  0  0
   57.4550   32.1807   43.6656 H   0  0  0  0  0  0  0  0  0  0  0  0
   58.2754   31.6793   42.1483 H   0  0  0  0  0  0  0  0  0  0  0  0
   56.5093   32.0069   42.1483 H   0  0  0  0  0  0  0  0  0  0  0  0
   57.7790   27.9300   44.0400 C   0  0  0  0  0  0  0  0  0  0  0  0
   56.8783   27.6181   43.4910 H   0  0  0  0  0  0  0  0  0  0  0  0
   58.6422   27.3521   43.6783 H   0  0  0  0  0  0  0  0  0  0  0  0
   57.5800   27.6770   45.5380 C   0  0  0  0  0  0  0  0  0  0  0  0
   56.6213   28.1115   45.8575 H   0  0  0  0  0  0  0  0  0  0  0  0
   57.5768   26.5932   45.7258 H   0  0  0  0  0  0  0  0  0  0  0  0
   60.7000   27.1040   49.3220 C   0  0  0  0  0  0  0  0  0  0  0  0
   61.2143   26.2434   48.8694 H   0  0  0  0  0  0  0  0  0  0  0  0
   60.9150   27.4090   50.6710 C   0  0  0  0  0  0  0  0  0  0  0  0
   61.5858   26.7802   51.2748 H   0  0  0  0  0  0  0  0  0  0  0  0
   56.7010   30.9850   52.1150 C   0  0  0  0  0  0  0  0  0  0  0  0
   57.6370   31.8520   51.7220 C   0  0  0  0  0  0  0  0  0  0  0  0
   58.6880   31.6925   52.0049 H   0  0  0  0  0  0  0  0  0  0  0  0
   57.3573   32.7258   51.1152 H   0  0  0  0  0  0  0  0  0  0  0  0
   55.3970   31.1280   51.7990 N   0  0  0  0  0  0  0  0  0  0  0  0
   55.0040   31.9240   51.2590 H   0  0  0  0  0  0  0  0  0  0  0  0
  1  2  1  0
  2  3  1  0
  3  4  1  0
  4  5  1  0
  5  6  2  0
  5  7  1  0
  7  8  1  0
  8  9  1  0
  9 10  1  0
  9 11  2  0
 11 12  1  0
 12 13  1  0
 12 14  2  0
 14 15  1  0
 15 16  2  0
 15 17  1  0
 17 18  1  0
 18 19  1  0
 18 20  1  0
 18 21  1  0
 21 22  2  0
 22 23  1  0
 22 24  1  0
 24 25  1  0
 24 26  2  0
 26 27  1  0
 27 28  2  0
 27 29  1  0
 29 30  1  0
 30 31  1  0
 30 32  1  0
 30 33  1  0
 33 34  1  0
 33 35  1  0
 33 36  1  0
 36 37  1  0
 37 38  2  0
 37 39  1  0
 39 40  1  0
 39 41  1  0
 39 42  1  0
 36 43  1  0
 43 44  1  0
 43 45  1  0
 43 46  1  0
 46 47  1  0
 46 48  1  0
 26 49  1  0
 49 50  1  0
 49 51  2  0
 51 52  1  0
 14 53  1  0
 53 54  2  0
 54 55  1  0
 54 56  1  0
 53 57  1  0
 57 58  1  0
  8  3  2  0
 57 11  1  0
 51 21  1  0
 46 29  1  0
M  CHG  3   4  -1   7  -1  17  -1
M  END
>  <UniqueID>  (75) 
72

>  <SMILES>  (75) 
C=c1[nH]/c(=C\c2[n-]c(=O)[n-]c2O)cc1C(=O)[N-]Cc1ccc(C(=O)N2CCN(C(C)=O)CC2)cc1

>  <Energy>  (75) 
129.375457226781

>  <Genealogy>  (75) 
C=c1[nH]c(=Cc2[n-]c(=O)[n-]c2O)cc1C(=O)[N-]Cc1ccc(C(=O)N2CCN(C(C)=O)CC2)cc1 (protonated)
C=c1[nH]/c(=C\c2[n-]c(=O)[n-]c2O)cc1C(=O)[N-]Cc1ccc(C(=O)N2CCN(C(C)=O)CC2)cc1 (cis-trans isomerization)
C=c1[nH]/c(=C\c2[n-]c(=O)[n-]c2O)cc1C(=O)[N-]Cc1ccc(C(=O)N2CCN(C(C)=O)CC2)cc1 (3D coordinates assigned)
C=c1[nH]/c(=C\c2[n-]c(=O)[n-]c2O)cc1C(=O)[N-]Cc1ccc(C(=O)N2CCN(C(C)=O)CC2)cc1 (nonaromatic ring conformer: 129.375457226781 kcal/mol)

>  <smiles>  (75) 
C=c1[nH]c(=Cc2[nH]c(=O)[nH]c2O)cc1C(=O)NCc1ccc(C(=O)N2CCN(C(C)=O)CC2)cc1

>  <score_type>  (75) 
oracle

>  <origin>  (75) 
adg

>  <m_score__min__energy>  (75) 
-15.94

>  <m_primary>  (75) 
energy

$$$$
75:0
     RDKit          3D

 50 53  0  0  0  0  0  0  0  0999 V2000
   59.5480   35.5740   45.3370 C   0  0  0  0  0  0  0  0  0  0  0  0
   58.9440   34.2020   45.3980 C   0  0  0  0  0  0  0  0  0  0  0  0
   58.7670   33.4420   44.2310 C   0  0  0  0  0  0  0  0  0  0  0  0
   58.1880   32.1720   44.2990 C   0  0  0  0  0  0  0  0  0  0  0  0
   57.7820   31.6390   45.5310 C   0  0  0  0  0  0  0  0  0  0  0  0
   57.1650   30.3420   45.5690 N   0  0  0  0  0  0  0  0  0  0  0  0
   57.8850   29.1080   45.4160 C   0  0  0  0  0  0  0  0  0  0  0  0
   59.0710   29.1180   44.9880 O   0  0  0  0  0  0  0  0  0  0  0  0
   57.2230   27.8240   45.7270 C   0  0  0  0  0  0  0  0  0  0  0  0
   55.9020   27.6210   45.5680 N   0  0  0  0  0  0  0  0  0  0  0  0
   55.7230   26.3520   45.9870 C   0  0  0  0  0  0  0  0  0  0  0  0
   54.5970   25.7900   45.9910 O   0  0  0  0  0  0  0  0  0  0  0  0
   56.8460   25.7340   46.4030 N   0  0  0  0  0  0  0  0  0  0  0  0
   57.8010   26.6660   46.2300 C   0  0  0  0  0  0  0  0  0  0  0  0
   59.2400   26.4390   46.5960 C   0  0  0  0  0  0  0  0  0  0  0  0
   59.5850   27.0030   47.9540 C   0  0  0  0  0  0  0  0  0  0  0  0
   60.3870   26.3780   48.6990 O   0  0  0  0  0  0  0  0  0  0  0  0
   59.0410   28.2420   48.4390 N   0  0  0  0  0  0  0  0  0  0  0  0
   59.5790   29.4260   48.3980 C   0  0  0  0  0  0  0  0  0  0  0  0
   59.2660   30.4440   49.2310 N   0  0  0  0  0  0  0  0  0  0  0  0
   59.9780   31.5650   48.9430 C   0  0  0  0  0  0  0  0  0  0  0  0
   60.8460   31.4390   47.8630 C   0  0  0  0  0  0  0  0  0  0  0  0
   61.8050   32.4810   47.3840 C   0  0  0  0  0  0  0  0  0  0  0  0
   62.7730   32.8310   48.4800 C   0  0  0  0  0  0  0  0  0  0  0  0
   62.4980   33.8980   49.3510 C   0  0  0  0  0  0  0  0  0  0  0  0
   63.3750   34.1940   50.4000 C   0  0  0  0  0  0  0  0  0  0  0  0
   64.5260   33.4250   50.5900 C   0  0  0  0  0  0  0  0  0  0  0  0
   64.8000   32.3560   49.7340 C   0  0  0  0  0  0  0  0  0  0  0  0
   63.9260   32.0550   48.6850 C   0  0  0  0  0  0  0  0  0  0  0  0
   60.7390   29.8670   47.2650 S   0  0  0  0  0  0  0  0  0  0  0  0
   57.9370   32.4120   46.6960 C   0  0  0  0  0  0  0  0  0  0  0  0
   58.5210   33.6810   46.6290 C   0  0  0  0  0  0  0  0  0  0  0  0
   59.7126   35.9479   46.3583 H   0  0  0  0  0  0  0  0  0  0  0  0
   60.5091   35.5281   44.8040 H   0  0  0  0  0  0  0  0  0  0  0  0
   58.8651   36.2519   44.8040 H   0  0  0  0  0  0  0  0  0  0  0  0
   59.0853   33.8477   43.2594 H   0  0  0  0  0  0  0  0  0  0  0  0
   58.0496   31.5856   43.3787 H   0  0  0  0  0  0  0  0  0  0  0  0
   56.1220   30.3000   45.6200 H   0  0  0  0  0  0  0  0  0  0  0  0
   59.4362   25.3567   46.6029 H   0  0  0  0  0  0  0  0  0  0  0  0
   59.8612   26.9567   45.8503 H   0  0  0  0  0  0  0  0  0  0  0  0
   59.8762   32.4974   49.5177 H   0  0  0  0  0  0  0  0  0  0  0  0
   62.3605   32.0939   46.5171 H   0  0  0  0  0  0  0  0  0  0  0  0
   61.2446   33.3825   47.0954 H   0  0  0  0  0  0  0  0  0  0  0  0
   61.5903   34.5027   49.2079 H   0  0  0  0  0  0  0  0  0  0  0  0
   63.1580   35.0338   51.0765 H   0  0  0  0  0  0  0  0  0  0  0  0
   65.2160   33.6614   51.4134 H   0  0  0  0  0  0  0  0  0  0  0  0
   65.7052   31.7496   49.8854 H   0  0  0  0  0  0  0  0  0  0  0  0
   64.1420   31.2075   48.0178 H   0  0  0  0  0  0  0  0  0  0  0  0
   57.5972   32.0164   47.6645 H   0  0  0  0  0  0  0  0  0  0  0  0
   58.6491   34.2735   47.5469 H   0  0  0  0  0  0  0  0  0  0  0  0
  1  2  1  0
  2  3  2  0
  3  4  1  0
  4  5  2  0
  5  6  1  0
  6  7  1  0
  7  8  2  0
  7  9  1  0
  9 10  1  0
 10 11  1  0
 11 12  2  0
 11 13  1  0
 13 14  1  0
 14 15  1  0
 15 16  1  0
 16 17  2  0
 16 18  1  0
 18 19  2  3
 19 20  1  0
 20 21  1  0
 21 22  2  0
 22 23  1  0
 23 24  1  0
 24 25  2  0
 25 26  1  0
 26 27  2  0
 27 28  1  0
 28 29  2  0
 22 30  1  0
  5 31  1  0
 31 32  2  0
 32  2  1  0
 14  9  2  0
 30 19  1  0
 29 24  1  0
  1 33  1  0
  1 34  1  0
  1 35  1  0
  3 36  1  0
  4 37  1  0
  6 38  1  0
 15 39  1  0
 15 40  1  0
 21 41  1  0
 23 42  1  0
 23 43  1  0
 25 44  1  0
 26 45  1  0
 27 46  1  0
 28 47  1  0
 29 48  1  0
 31 49  1  0
 32 50  1  0
M  CHG  3  10  -1  13  -1  20  -1
M  END
>  <UniqueID>  (76) 
73

>  <SMILES>  (76) 
Cc1ccc(NC(=O)c2[n-]c(=O)[n-]c2CC(=O)N=c2[n-]cc(Cc3ccccc3)s2)cc1

>  <Energy>  (76) 
117.08125961926609

>  <Genealogy>  (76) 
Cc1ccc(NC(=O)c2[n-]c(=O)[n-]c2CC(=O)N=c2[n-]cc(Cc3ccccc3)s2)cc1 (protonated)
Cc1ccc(NC(=O)c2[n-]c(=O)[n-]c2CC(=O)N=c2[n-]cc(Cc3ccccc3)s2)cc1 (3D coordinates assigned)
Cc1ccc(NC(=O)c2[n-]c(=O)[n-]c2CC(=O)N=c2[n-]cc(Cc3ccccc3)s2)cc1 (optimized conformer: 117.08125961926609 kcal/mol)

>  <smiles>  (76) 
Cc1ccc(NC(=O)c2[nH]c(=O)[nH]c2CC(=O)N=c2[nH]cc(Cc3ccccc3)s2)cc1

>  <score_type>  (76) 
oracle

>  <origin>  (76) 
adg

>  <m_score__min__energy>  (76) 
-13.949999999999999

>  <m_primary>  (76) 
energy

$$$$
76:0
     RDKit          3D

 57 59  0  0  0  0  0  0  0  0999 V2000
   58.0420   32.0120   50.8180 C   0  0  0  0  0  0  0  0  0  0  0  0
   58.5230   30.2690   50.6230 S   0  0  0  0  0  0  0  0  0  0  0  0
   59.8030   30.6210   49.4080 C   0  0  0  0  0  0  0  0  0  0  0  0
   60.6850   31.6820   49.6430 C   0  0  0  0  0  0  0  0  0  0  0  0
   61.6970   31.9750   48.7260 C   0  0  0  0  0  0  0  0  0  0  0  0
   61.8330   31.2080   47.5680 C   0  0  0  0  0  0  0  0  0  0  0  0
   60.9530   30.1500   47.3210 C   0  0  0  0  0  0  0  0  0  0  0  0
   59.9250   29.8540   48.2320 C   0  0  0  0  0  0  0  0  0  0  0  0
   59.0140   28.7730   47.9760 N   0  0  0  0  0  0  0  0  0  0  0  0
   59.4260   27.3950   47.9650 C   0  0  0  0  0  0  0  0  0  0  0  0
   60.5550   27.0660   48.4200 O   0  0  0  0  0  0  0  0  0  0  0  0
   58.5720   26.3410   47.3220 C   0  0  0  0  0  0  0  0  0  0  0  0
   57.2760   26.8850   46.9220 N   0  0  0  0  0  0  0  0  0  0  0  0
   56.3480   26.2940   46.0000 C   0  0  0  0  0  0  0  0  0  0  0  0
   55.1520   26.6920   46.0190 O   0  0  0  0  0  0  0  0  0  0  0  0
   56.7610   25.2490   44.9970 C   0  0  0  0  0  0  0  0  0  0  0  0
   57.9590   25.6880   44.2870 N   0  0  0  0  0  0  0  0  0  0  0  0
   58.0140   26.8050   43.3920 C   0  0  0  0  0  0  0  0  0  0  0  0
   58.1350   26.5820   42.1580 O   0  0  0  0  0  0  0  0  0  0  0  0
   57.8890   28.2020   43.8580 C   0  0  0  0  0  0  0  0  0  0  0  0
   56.8530   29.0260   43.3900 C   0  0  0  0  0  0  0  0  0  0  0  0
   56.8210   30.3840   43.7260 C   0  0  0  0  0  0  0  0  0  0  0  0
   57.8250   30.9380   44.5310 C   0  0  0  0  0  0  0  0  0  0  0  0
   57.8650   32.6770   44.8440 S   0  0  0  0  0  0  0  0  0  0  0  0
   58.2170   33.3910   43.5680 O   0  0  0  0  0  0  0  0  0  0  0  0
   56.4920   33.1280   45.2600 O   0  0  0  0  0  0  0  0  0  0  0  0
   59.0130   33.1370   46.0770 N   0  0  0  0  0  0  0  0  0  0  0  0
   58.3970   33.2580   47.3980 C   0  0  0  0  0  0  0  0  0  0  0  0
   59.2530   34.2450   48.1840 C   0  0  0  0  0  0  0  0  0  0  0  0
   60.1140   34.9510   47.1450 C   0  0  0  0  0  0  0  0  0  0  0  0
   59.6150   34.4390   45.8050 C   0  0  0  0  0  0  0  0  0  0  0  0
   58.8540   30.1150   45.0090 C   0  0  0  0  0  0  0  0  0  0  0  0
   58.8880   28.7590   44.6730 C   0  0  0  0  0  0  0  0  0  0  0  0
   57.9746   32.2562   51.8884 H   0  0  0  0  0  0  0  0  0  0  0  0
   58.7960   32.6559   50.3418 H   0  0  0  0  0  0  0  0  0  0  0  0
   57.0644   32.1781   50.3418 H   0  0  0  0  0  0  0  0  0  0  0  0
   60.5806   32.2884   50.5548 H   0  0  0  0  0  0  0  0  0  0  0  0
   62.3868   32.8103   48.9165 H   0  0  0  0  0  0  0  0  0  0  0  0
   62.6335   31.4361   46.8488 H   0  0  0  0  0  0  0  0  0  0  0  0
   61.0660   29.5461   46.4086 H   0  0  0  0  0  0  0  0  0  0  0  0
   58.0700   29.0150   47.6060 H   0  0  0  0  0  0  0  0  0  0  0  0
   59.0891   25.9536   46.4318 H   0  0  0  0  0  0  0  0  0  0  0  0
   58.4024   25.5358   48.0520 H   0  0  0  0  0  0  0  0  0  0  0  0
   56.9724   24.3047   45.5201 H   0  0  0  0  0  0  0  0  0  0  0  0
   55.9459   25.0989   44.2738 H   0  0  0  0  0  0  0  0  0  0  0  0
   56.0614   28.6013   42.7551 H   0  0  0  0  0  0  0  0  0  0  0  0
   56.0032   31.0200   43.3561 H   0  0  0  0  0  0  0  0  0  0  0  0
   57.3685   33.6367   47.3048 H   0  0  0  0  0  0  0  0  0  0  0  0
   58.3460   32.2830   47.9048 H   0  0  0  0  0  0  0  0  0  0  0  0
   58.6168   34.9697   48.7132 H   0  0  0  0  0  0  0  0  0  0  0  0
   59.8641   33.7396   48.9464 H   0  0  0  0  0  0  0  0  0  0  0  0
   59.9863   36.0414   47.2138 H   0  0  0  0  0  0  0  0  0  0  0  0
   61.1854   34.7489   47.2908 H   0  0  0  0  0  0  0  0  0  0  0  0
   58.8662   35.1275   45.3864 H   0  0  0  0  0  0  0  0  0  0  0  0
   60.4307   34.3630   45.0709 H   0  0  0  0  0  0  0  0  0  0  0  0
   59.6392   30.5389   45.6522 H   0  0  0  0  0  0  0  0  0  0  0  0
   59.7030   28.1234   45.0495 H   0  0  0  0  0  0  0  0  0  0  0  0
  1  2  1  0
  2  3  1  0
  3  4  2  0
  4  5  1  0
  5  6  2  0
  6  7  1  0
  7  8  2  0
  8  9  1  0
  9 10  1  0
 10 11  2  0
 10 12  1  0
 12 13  1  0
 13 14  1  0
 14 15  2  0
 14 16  1  0
 16 17  1  0
 17 18  1  0
 18 19  2  0
 18 20  1  0
 20 21  2  0
 21 22  1  0
 22 23  2  0
 23 24  1  0
 24 25  2  0
 24 26  2  0
 24 27  1  0
 27 28  1  0
 28 29  1  0
 29 30  1  0
 30 31  1  0
 23 32  1  0
 32 33  2  0
  8  3  1  0
 33 20  1  0
 31 27  1  0
  1 34  1  0
  1 35  1  0
  1 36  1  0
  4 37  1  0
  5 38  1  0
  6 39  1  0
  7 40  1  0
  9 41  1  0
 12 42  1  0
 12 43  1  0
 16 44  1  0
 16 45  1  0
 21 46  1  0
 22 47  1  0
 28 48  1  0
 28 49  1  0
 29 50  1  0
 29 51  1  0
 30 52  1  0
 30 53  1  0
 31 54  1  0
 31 55  1  0
 32 56  1  0
 33 57  1  0
M  CHG  2  13  -1  17  -1
M  END
>  <UniqueID>  (77) 
74

>  <SMILES>  (77) 
CSc1ccccc1NC(=O)C[N-]C(=O)C[N-]C(=O)c1ccc(S(=O)(=O)N2CCCC2)cc1

>  <Energy>  (77) 
60.218063997759714

>  <Genealogy>  (77) 
CSc1ccccc1NC(=O)C[N-]C(=O)C[N-]C(=O)c1ccc(S(=O)(=O)N2CCCC2)cc1 (protonated)
CSc1ccccc1NC(=O)C[N-]C(=O)C[N-]C(=O)c1ccc(S(=O)(=O)N2CCCC2)cc1 (3D coordinates assigned)
CSc1ccccc1NC(=O)C[N-]C(=O)C[N-]C(=O)c1ccc(S(=O)(=O)N2CCCC2)cc1 (nonaromatic ring conformer: 60.218063997759714 kcal/mol)

>  <smiles>  (77) 
CSc1ccccc1NC(=O)CNC(=O)CNC(=O)c1ccc(S(=O)(=O)N2CCCC2)cc1

>  <score_type>  (77) 
oracle

>  <origin>  (77) 
adg

>  <m_score__min__energy>  (77) 
-13.31

>  <m_primary>  (77) 
energy

$$$$
77:0
     RDKit          3D

 68 71  0  0  0  0  0  0  0  0999 V2000
   64.6680   33.0550   48.9450 C   0  0  0  0  0  0  0  0  0  0  0  0
   63.3260   33.2920   49.5810 C   0  0  0  0  0  0  0  0  0  0  0  0
   62.2570   33.4840   48.7610 N   0  0  0  0  0  0  0  0  0  0  0  0
   60.9940   33.6790   49.2210 C   0  0  0  0  0  0  0  0  0  0  0  0
   59.9210   33.8100   48.2730 N   0  0  0  0  0  0  0  0  0  0  0  0
   59.9140   34.9020   47.2870 C   0  0  0  0  0  0  0  0  0  0  0  0
   59.4820   34.3830   45.9060 C   0  0  0  0  0  0  0  0  0  0  0  0
   58.3300   33.4720   45.9930 N   0  0  0  0  0  0  0  0  0  0  0  0
   57.7490   32.9650   44.7780 C   0  0  0  0  0  0  0  0  0  0  0  0
   57.6840   33.7120   43.7650 O   0  0  0  0  0  0  0  0  0  0  0  0
   57.1120   31.5990   44.7430 C   0  0  0  0  0  0  0  0  0  0  0  0
   57.8990   30.6060   43.8780 C   0  0  0  0  0  0  0  0  0  0  0  0
   58.0010   29.2760   44.5780 C   0  0  0  0  0  0  0  0  0  0  0  0
   57.1570   28.2650   44.3320 N   0  0  0  0  0  0  0  0  0  0  0  0
   57.5150   27.2370   45.0790 N   0  0  0  0  0  0  0  0  0  0  0  0
   58.5760   27.6330   45.8060 C   0  0  0  0  0  0  0  0  0  0  0  0
   59.3200   26.6420   46.6830 C   0  0  0  0  0  0  0  0  0  0  0  0
   60.8130   26.5030   46.3700 C   0  0  0  0  0  0  0  0  0  0  0  0
   58.6180   25.2800   46.7140 C   0  0  0  0  0  0  0  0  0  0  0  0
   58.9120   28.9230   45.5160 N   0  0  0  0  0  0  0  0  0  0  0  0
   60.0480   29.7290   45.9940 C   0  0  0  0  0  0  0  0  0  0  0  0
   60.0540   29.8390   47.5000 C   0  0  0  0  0  0  0  0  0  0  0  0
   58.8930   29.5600   48.2430 C   0  0  0  0  0  0  0  0  0  0  0  0
   58.8960   29.7000   49.6340 C   0  0  0  0  0  0  0  0  0  0  0  0
   60.0570   30.1140   50.2950 C   0  0  0  0  0  0  0  0  0  0  0  0
   61.2260   30.3510   49.5700 C   0  0  0  0  0  0  0  0  0  0  0  0
   61.2290   30.2010   48.1790 C   0  0  0  0  0  0  0  0  0  0  0  0
   57.7390   33.1720   47.3060 C   0  0  0  0  0  0  0  0  0  0  0  0
   58.8480   32.8090   48.2920 C   0  0  0  0  0  0  0  0  0  0  0  0
   60.7560   33.6510   50.6020 C   0  0  0  0  0  0  0  0  0  0  0  0
   59.1360   33.7650   51.2690 Cl  0  0  0  0  0  0  0  0  0  0  0  0
   61.8300   33.4500   51.4720 C   0  0  0  0  0  0  0  0  0  0  0  0
   63.1370   33.2770   50.9840 C   0  0  0  0  0  0  0  0  0  0  0  0
   64.2820   33.0080   51.9390 C   0  0  0  0  0  0  0  0  0  0  0  0
   65.2460   33.9860   51.7880 F   0  0  0  0  0  0  0  0  0  0  0  0
   63.8320   33.0120   53.2450 F   0  0  0  0  0  0  0  0  0  0  0  0
   64.8670   31.7780   51.6940 F   0  0  0  0  0  0  0  0  0  0  0  0
   65.4271   32.9209   49.7297 H   0  0  0  0  0  0  0  0  0  0  0  0
   64.6230   32.1509   48.3200 H   0  0  0  0  0  0  0  0  0  0  0  0
   64.9354   33.9198   48.3200 H   0  0  0  0  0  0  0  0  0  0  0  0
   59.2110   35.6814   47.6161 H   0  0  0  0  0  0  0  0  0  0  0  0
   60.9307   35.3144   47.2081 H   0  0  0  0  0  0  0  0  0  0  0  0
   59.2089   35.2410   45.2741 H   0  0  0  0  0  0  0  0  0  0  0  0
   60.3252   33.8229   45.4755 H   0  0  0  0  0  0  0  0  0  0  0  0
   57.0593   31.2079   45.7698 H   0  0  0  0  0  0  0  0  0  0  0  0
   56.1111   31.7081   44.3000 H   0  0  0  0  0  0  0  0  0  0  0  0
   57.3820   30.4721   42.9163 H   0  0  0  0  0  0  0  0  0  0  0  0
   58.9113   31.0012   43.7074 H   0  0  0  0  0  0  0  0  0  0  0  0
   56.3690   28.2580   43.6480 H   0  0  0  0  0  0  0  0  0  0  0  0
   59.2848   27.0753   47.6935 H   0  0  0  0  0  0  0  0  0  0  0  0
   61.3814   26.4501   47.3103 H   0  0  0  0  0  0  0  0  0  0  0  0
   60.9816   25.5853   45.7875 H   0  0  0  0  0  0  0  0  0  0  0  0
   61.1481   27.3738   45.7875 H   0  0  0  0  0  0  0  0  0  0  0  0
   58.4597   24.9728   47.7583 H   0  0  0  0  0  0  0  0  0  0  0  0
   57.6469   25.3563   46.2030 H   0  0  0  0  0  0  0  0  0  0  0  0
   59.2436   24.5333   46.2030 H   0  0  0  0  0  0  0  0  0  0  0  0
   60.9852   29.2553   45.6665 H   0  0  0  0  0  0  0  0  0  0  0  0
   59.9534   30.7415   45.5745 H   0  0  0  0  0  0  0  0  0  0  0  0
   57.9789   29.2303   47.7276 H   0  0  0  0  0  0  0  0  0  0  0  0
   57.9838   29.4842   50.2096 H   0  0  0  0  0  0  0  0  0  0  0  0
   60.0488   30.2528   51.3862 H   0  0  0  0  0  0  0  0  0  0  0  0
   62.1449   30.6557   50.0923 H   0  0  0  0  0  0  0  0  0  0  0  0
   62.1576   30.3677   47.6134 H   0  0  0  0  0  0  0  0  0  0  0  0
   57.1956   34.0548   47.6739 H   0  0  0  0  0  0  0  0  0  0  0  0
   57.0420   32.3264   47.2101 H   0  0  0  0  0  0  0  0  0  0  0  0
   58.4242   32.7560   49.3057 H   0  0  0  0  0  0  0  0  0  0  0  0
   59.2718   31.8372   47.9986 H   0  0  0  0  0  0  0  0  0  0  0  0
   61.6502   33.4267   52.5570 H   0  0  0  0  0  0  0  0  0  0  0  0
  1  2  1  0
  2  3  2  0
  3  4  1  0
  4  5  1  0
  5  6  1  0
  6  7  1  0
  7  8  1  0
  8  9  1  0
  9 10  2  0
  9 11  1  0
 11 12  1  0
 12 13  1  0
 13 14  2  0
 14 15  1  0
 15 16  2  0
 16 17  1  0
 17 18  1  0
 17 19  1  0
 16 20  1  0
 20 21  1  0
 21 22  1  0
 22 23  2  0
 23 24  1  0
 24 25  2  0
 25 26  1  0
 26 27  2  0
  8 28  1  0
 28 29  1  0
  4 30  2  0
 30 31  1  0
 30 32  1  0
 32 33  2  0
 33 34  1  0
 34 35  1  0
 34 36  1  0
 34 37  1  0
 33  2  1  0
 29  5  1  0
 20 13  1  0
 27 22  1  0
  1 38  1  0
  1 39  1  0
  1 40  1  0
  6 41  1  0
  6 42  1  0
  7 43  1  0
  7 44  1  0
 11 45  1  0
 11 46  1  0
 12 47  1  0
 12 48  1  0
 14 49  1  0
 17 50  1  0
 18 51  1  0
 18 52  1  0
 18 53  1  0
 19 54  1  0
 19 55  1  0
 19 56  1  0
 21 57  1  0
 21 58  1  0
 23 59  1  0
 24 60  1  0
 25 61  1  0
 26 62  1  0
 27 63  1  0
 28 64  1  0
 28 65  1  0
 29 66  1  0
 29 67  1  0
 32 68  1  0
M  CHG  1  14   1
M  END
>  <UniqueID>  (78) 
75

>  <SMILES>  (78) 
Cc1nc(N2CCN(C(=O)CCc3[nH+]nc(C(C)C)n3Cc3ccccc3)CC2)c(Cl)cc1C(F)(F)F

>  <Energy>  (78) 
113.33965713264357

>  <Genealogy>  (78) 
Cc1nc(N2CCN(C(=O)CCc3[nH+]nc(C(C)C)n3Cc3ccccc3)CC2)c(Cl)cc1C(F)(F)F (protonated)
Cc1nc(N2CCN(C(=O)CCc3[nH+]nc(C(C)C)n3Cc3ccccc3)CC2)c(Cl)cc1C(F)(F)F (3D coordinates assigned)
Cc1nc(N2CCN(C(=O)CCc3[nH+]nc(C(C)C)n3Cc3ccccc3)CC2)c(Cl)cc1C(F)(F)F (nonaromatic ring conformer: 113.33965713264357 kcal/mol)

>  <smiles>  (78) 
Cc1nc(N2CCN(C(=O)CCc3nnc(C(C)C)n3Cc3ccccc3)CC2)c(Cl)cc1C(F)(F)F

>  <score_type>  (78) 
oracle

>  <origin>  (78) 
adg

>  <m_score__min__energy>  (78) 
-7.2599999999999998

>  <m_primary>  (78) 
energy

$$$$
78:0
     RDKit          3D

 53 57  0  0  0  0  0  0  0  0999 V2000
   57.1910   20.7200   43.3230 N   0  0  0  0  0  0  0  0  0  0  0  0
   56.6050   22.0130   43.1570 C   0  0  0  0  0  0  0  0  0  0  0  0
   55.8030   22.2040   42.2040 O   0  0  0  0  0  0  0  0  0  0  0  0
   56.9190   23.1260   44.0730 C   0  0  0  0  0  0  0  0  0  0  0  0
   57.1430   24.4570   43.7030 C   0  0  0  0  0  0  0  0  0  0  0  0
   57.3880   25.1030   44.8900 C   0  0  0  0  0  0  0  0  0  0  0  0
   57.6610   26.4120   45.1110 N   0  0  0  0  0  0  0  0  0  0  0  0
   57.8790   26.8480   46.3920 C   0  0  0  0  0  0  0  0  0  0  0  0
   58.1450   28.2430   46.6290 N   0  0  0  0  0  0  0  0  0  0  0  0
   58.8870   28.6290   47.8380 C   0  0  0  0  0  0  0  0  0  0  0  0
   59.2290   30.1270   47.8380 C   0  0  0  0  0  0  0  0  0  0  0  0
   59.7450   30.5570   46.4480 C   0  0  0  0  0  0  0  0  0  0  0  0
   60.1200   31.9890   46.4430 N   0  0  0  0  0  0  0  0  0  0  0  0
   59.1980   32.9990   45.9060 C   0  0  0  0  0  0  0  0  0  0  0  0
   58.8160   33.9660   47.0240 C   0  0  0  0  0  0  0  0  0  0  0  0
   60.0610   34.6780   47.5680 C   0  0  0  0  0  0  0  0  0  0  0  0
   61.2400   33.7520   47.7650 C   0  0  0  0  0  0  0  0  0  0  0  0
   62.3570   34.2200   48.4760 C   0  0  0  0  0  0  0  0  0  0  0  0
   63.5050   33.4350   48.5840 C   0  0  0  0  0  0  0  0  0  0  0  0
   63.5620   32.1890   47.9590 C   0  0  0  0  0  0  0  0  0  0  0  0
   62.4630   31.7130   47.2420 C   0  0  0  0  0  0  0  0  0  0  0  0
   61.2800   32.4740   47.1590 C   0  0  0  0  0  0  0  0  0  0  0  0
   58.7430   30.2380   45.3040 C   0  0  0  0  0  0  0  0  0  0  0  0
   57.6170   29.2870   45.7380 C   0  0  0  0  0  0  0  0  0  0  0  0
   57.7880   25.9270   47.4730 C   0  0  0  0  0  0  0  0  0  0  0  0
   57.5050   24.5730   47.2220 C   0  0  0  0  0  0  0  0  0  0  0  0
   57.3110   24.1930   45.9000 C   0  0  0  0  0  0  0  0  0  0  0  0
   57.0230   22.9740   45.4180 N   0  0  0  0  0  0  0  0  0  0  0  0
   56.9530   19.9490   42.6600 H   0  0  0  0  0  0  0  0  0  0  0  0
   57.8590   20.5140   44.0980 H   0  0  0  0  0  0  0  0  0  0  0  0
   57.1266   24.8880   42.6911 H   0  0  0  0  0  0  0  0  0  0  0  0
   58.2719   28.4033   48.7216 H   0  0  0  0  0  0  0  0  0  0  0  0
   59.8289   28.0612   47.8594 H   0  0  0  0  0  0  0  0  0  0  0  0
   58.3267   30.7055   48.0854 H   0  0  0  0  0  0  0  0  0  0  0  0
   60.0134   30.3157   48.5858 H   0  0  0  0  0  0  0  0  0  0  0  0
   60.6453   29.9572   46.2486 H   0  0  0  0  0  0  0  0  0  0  0  0
   59.6897   33.5518   45.0919 H   0  0  0  0  0  0  0  0  0  0  0  0
   58.2951   32.5078   45.5142 H   0  0  0  0  0  0  0  0  0  0  0  0
   58.1137   34.7154   46.6300 H   0  0  0  0  0  0  0  0  0  0  0  0
   58.3462   33.3978   47.8404 H   0  0  0  0  0  0  0  0  0  0  0  0
   60.3509   35.4664   46.8578 H   0  0  0  0  0  0  0  0  0  0  0  0
   59.7982   35.0863   48.5551 H   0  0  0  0  0  0  0  0  0  0  0  0
   62.3264   35.2118   48.9507 H   0  0  0  0  0  0  0  0  0  0  0  0
   64.3667   33.7989   49.1628 H   0  0  0  0  0  0  0  0  0  0  0  0
   64.4753   31.5802   48.0314 H   0  0  0  0  0  0  0  0  0  0  0  0
   62.5209   30.7369   46.7382 H   0  0  0  0  0  0  0  0  0  0  0  0
   58.2922   31.1807   44.9602 H   0  0  0  0  0  0  0  0  0  0  0  0
   59.3069   29.7358   44.5041 H   0  0  0  0  0  0  0  0  0  0  0  0
   56.8429   29.8600   46.2694 H   0  0  0  0  0  0  0  0  0  0  0  0
   57.1870   28.8107   44.8446 H   0  0  0  0  0  0  0  0  0  0  0  0
   57.9392   26.2747   48.5056 H   0  0  0  0  0  0  0  0  0  0  0  0
   57.4397   23.8421   48.0415 H   0  0  0  0  0  0  0  0  0  0  0  0
   56.9020   22.0940   45.9690 H   0  0  0  0  0  0  0  0  0  0  0  0
  1  2  1  0
  2  3  2  0
  2  4  1  0
  4  5  2  0
  5  6  1  0
  6  7  2  0
  7  8  1  0
  8  9  1  0
  9 10  1  0
 10 11  1  0
 11 12  1  0
 12 13  1  0
 13 14  1  0
 14 15  1  0
 15 16  1  0
 16 17  1  0
 17 18  2  0
 18 19  1  0
 19 20  2  0
 20 21  1  0
 21 22  2  0
 12 23  1  0
 23 24  1  0
  8 25  2  0
 25 26  1  0
 26 27  2  0
 27 28  1  0
 28  4  1  0
 27  6  1  0
 24  9  1  0
 22 13  1  0
 22 17  1  0
  1 29  1  0
  1 30  1  0
  5 31  1  0
 10 32  1  0
 10 33  1  0
 11 34  1  0
 11 35  1  0
 12 36  1  0
 14 37  1  0
 14 38  1  0
 15 39  1  0
 15 40  1  0
 16 41  1  0
 16 42  1  0
 18 43  1  0
 19 44  1  0
 20 45  1  0
 21 46  1  0
 23 47  1  0
 23 48  1  0
 24 49  1  0
 24 50  1  0
 25 51  1  0
 26 52  1  0
 28 53  1  0
M  END
>  <UniqueID>  (79) 
76

>  <SMILES>  (79) 
NC(=O)c1cc2nc(N3CCC(N4CCCc5ccccc54)CC3)ccc2[nH]1

>  <Energy>  (79) 
100.06874882489822

>  <Genealogy>  (79) 
NC(=O)c1cc2nc(N3CCC(N4CCCc5ccccc54)CC3)ccc2[nH]1 (3D coordinates assigned)
NC(=O)c1cc2nc(N3CCC(N4CCCc5ccccc54)CC3)ccc2[nH]1 (nonaromatic ring conformer: 100.06874882489822 kcal/mol)

>  <smiles>  (79) 
NC(=O)c1cc2nc(N3CCC(N4CCCc5ccccc54)CC3)ccc2[nH]1

>  <score_type>  (79) 
oracle

>  <origin>  (79) 
adg

>  <m_score__min__energy>  (79) 
-9.2599999999999998

>  <m_primary>  (79) 
energy

$$$$
79:0
     RDKit          3D

 76 79  0  0  0  0  0  0  0  0999 V2000
   60.7720   22.6000   45.6060 O   0  0  0  0  0  0  0  0  0  0  0  0
   59.5680   22.9590   45.4680 C   0  0  0  0  0  0  0  0  0  0  0  0
   58.6540   22.1840   44.5570 C   0  0  0  0  0  0  0  0  0  0  0  0
   57.2450   22.7240   44.5800 C   0  0  0  0  0  0  0  0  0  0  0  0
   56.5260   22.8200   45.7920 C   0  0  0  0  0  0  0  0  0  0  0  0
   55.2010   23.2650   45.7890 C   0  0  0  0  0  0  0  0  0  0  0  0
   54.5390   23.4870   44.5810 C   0  0  0  0  0  0  0  0  0  0  0  0
   55.2330   23.3530   43.3730 C   0  0  0  0  0  0  0  0  0  0  0  0
   56.5960   23.0440   43.3710 C   0  0  0  0  0  0  0  0  0  0  0  0
   59.0820   24.1470   46.1040 N   0  0  0  0  0  0  0  0  0  0  0  0
   59.0200   25.5000   45.5470 C   0  0  0  0  0  0  0  0  0  0  0  0
   60.2470   26.2700   46.0410 C   0  0  0  0  0  0  0  0  0  0  0  0
   60.2390   26.3580   47.5830 C   0  0  0  0  0  0  0  0  0  0  0  0
   58.9980   26.9760   48.1150 N   0  0  0  0  0  0  0  0  0  0  0  0
   59.0360   28.4560   48.0560 C   0  0  0  0  0  0  0  0  0  0  0  0
   60.4370   29.0080   47.6860 C   0  0  0  0  0  0  0  0  0  0  0  0
   60.5140   29.6370   46.2920 C   0  0  0  0  0  0  0  0  0  0  0  0
   59.4730   30.6460   46.1580 N   0  0  0  0  0  0  0  0  0  0  0  0
   58.2490   30.6270   45.6860 C   0  0  0  0  0  0  0  0  0  0  0  0
   57.6660   29.3530   45.6130 C   0  0  0  0  0  0  0  0  0  0  0  0
   56.4640   29.1550   44.9450 C   0  0  0  0  0  0  0  0  0  0  0  0
   55.8240   30.2040   44.3750 N   0  0  0  0  0  0  0  0  0  0  0  0
   56.3020   31.4720   44.4790 C   0  0  0  0  0  0  0  0  0  0  0  0
   57.5100   31.7400   45.1600 C   0  0  0  0  0  0  0  0  0  0  0  0
   57.9250   33.4600   45.3440 S   0  0  0  0  0  0  0  0  0  0  0  0
   59.1290   33.8130   44.5200 O   0  0  0  0  0  0  0  0  0  0  0  0
   56.7420   34.2970   44.9490 O   0  0  0  0  0  0  0  0  0  0  0  0
   58.2920   33.8060   46.9980 N   0  0  0  0  0  0  0  0  0  0  0  0
   59.6520   33.9010   47.4060 C   0  0  0  0  0  0  0  0  0  0  0  0
   59.9560   34.6320   48.3890 O   0  0  0  0  0  0  0  0  0  0  0  0
   60.6320   33.0720   46.7680 N   0  0  0  0  0  0  0  0  0  0  0  0
   61.8480   32.5750   47.4300 C   0  0  0  0  0  0  0  0  0  0  0  0
   61.5750   32.1780   48.8950 C   0  0  0  0  0  0  0  0  0  0  0  0
   62.8030   31.4860   49.5210 C   0  0  0  0  0  0  0  0  0  0  0  0
   64.1480   32.0340   48.9940 C   0  0  0  0  0  0  0  0  0  0  0  0
   64.0270   33.4780   48.4780 C   0  0  0  0  0  0  0  0  0  0  0  0
   63.0080   33.5990   47.3260 C   0  0  0  0  0  0  0  0  0  0  0  0
   57.7560   26.3730   47.5570 C   0  0  0  0  0  0  0  0  0  0  0  0
   57.7700   26.2580   46.0250 C   0  0  0  0  0  0  0  0  0  0  0  0
   59.0413   22.2449   43.5292 H   0  0  0  0  0  0  0  0  0  0  0  0
   58.6253   21.1423   44.9093 H   0  0  0  0  0  0  0  0  0  0  0  0
   57.0100   22.5439   46.7404 H   0  0  0  0  0  0  0  0  0  0  0  0
   54.6790   23.4406   46.7412 H   0  0  0  0  0  0  0  0  0  0  0  0
   53.4751   23.7664   44.5781 H   0  0  0  0  0  0  0  0  0  0  0  0
   54.7025   23.4917   42.4194 H   0  0  0  0  0  0  0  0  0  0  0  0
   57.1611   23.0506   42.4273 H   0  0  0  0  0  0  0  0  0  0  0  0
   58.9861   25.4221   44.4503 H   0  0  0  0  0  0  0  0  0  0  0  0
   61.1587   25.7499   45.7119 H   0  0  0  0  0  0  0  0  0  0  0  0
   60.2227   27.2877   45.6242 H   0  0  0  0  0  0  0  0  0  0  0  0
   60.3303   25.3418   47.9940 H   0  0  0  0  0  0  0  0  0  0  0  0
   61.0833   26.9957   47.8839 H   0  0  0  0  0  0  0  0  0  0  0  0
   58.3135   28.7960   47.2995 H   0  0  0  0  0  0  0  0  0  0  0  0
   58.7861   28.8334   49.0585 H   0  0  0  0  0  0  0  0  0  0  0  0
   60.7129   29.7737   48.4260 H   0  0  0  0  0  0  0  0  0  0  0  0
   61.1254   28.1500   47.6849 H   0  0  0  0  0  0  0  0  0  0  0  0
   61.4995   30.1061   46.1551 H   0  0  0  0  0  0  0  0  0  0  0  0
   60.3704   28.8577   45.5291 H   0  0  0  0  0  0  0  0  0  0  0  0
   58.1676   28.4989   46.0914 H   0  0  0  0  0  0  0  0  0  0  0  0
   56.0317   28.1457   44.8789 H   0  0  0  0  0  0  0  0  0  0  0  0
   55.7397   32.3019   44.0261 H   0  0  0  0  0  0  0  0  0  0  0  0
   60.3560   32.6080   45.8720 H   0  0  0  0  0  0  0  0  0  0  0  0
   62.1621   31.6648   46.8981 H   0  0  0  0  0  0  0  0  0  0  0  0
   61.3384   33.0827   49.4742 H   0  0  0  0  0  0  0  0  0  0  0  0
   60.7298   31.4743   48.9145 H   0  0  0  0  0  0  0  0  0  0  0  0
   62.7689   31.6331   50.6106 H   0  0  0  0  0  0  0  0  0  0  0  0
   62.7538   30.4224   49.2446 H   0  0  0  0  0  0  0  0  0  0  0  0
   64.8842   32.0106   49.8110 H   0  0  0  0  0  0  0  0  0  0  0  0
   64.4631   31.4005   48.1517 H   0  0  0  0  0  0  0  0  0  0  0  0
   63.7038   34.1250   49.3069 H   0  0  0  0  0  0  0  0  0  0  0  0
   65.0111   33.7839   48.0934 H   0  0  0  0  0  0  0  0  0  0  0  0
   62.5821   34.6131   47.3404 H   0  0  0  0  0  0  0  0  0  0  0  0
   63.5458   33.3914   46.3892 H   0  0  0  0  0  0  0  0  0  0  0  0
   57.6362   25.3653   47.9815 H   0  0  0  0  0  0  0  0  0  0  0  0
   56.9223   27.0384   47.8256 H   0  0  0  0  0  0  0  0  0  0  0  0
   56.8713   25.7160   45.6956 H   0  0  0  0  0  0  0  0  0  0  0  0
   57.7849   27.2703   45.5950 H   0  0  0  0  0  0  0  0  0  0  0  0
  1  2  2  0
  2  3  1  0
  3  4  1  0
  4  5  2  0
  5  6  1  0
  6  7  2  0
  7  8  1  0
  8  9  2  0
  2 10  1  0
 10 11  1  0
 11 12  1  0
 12 13  1  0
 13 14  1  0
 14 15  1  0
 15 16  1  0
 16 17  1  0
 17 18  1  0
 18 19  2  3
 19 20  1  0
 20 21  2  0
 21 22  1  0
 22 23  1  0
 23 24  2  0
 24 25  1  0
 25 26  2  0
 25 27  2  0
 25 28  1  0
 28 29  1  0
 29 30  2  0
 29 31  1  0
 31 32  1  0
 32 33  1  0
 33 34  1  0
 34 35  1  0
 35 36  1  0
 36 37  1  0
 14 38  1  0
 38 39  1  0
  9  4  1  0
 39 11  1  0
 24 19  1  0
 37 32  1  0
  3 40  1  0
  3 41  1  0
  5 42  1  0
  6 43  1  0
  7 44  1  0
  8 45  1  0
  9 46  1  0
 11 47  1  0
 12 48  1  0
 12 49  1  0
 13 50  1  0
 13 51  1  0
 15 52  1  0
 15 53  1  0
 16 54  1  0
 16 55  1  0
 17 56  1  0
 17 57  1  0
 20 58  1  0
 21 59  1  0
 23 60  1  0
 31 61  1  0
 32 62  1  0
 33 63  1  0
 33 64  1  0
 34 65  1  0
 34 66  1  0
 35 67  1  0
 35 68  1  0
 36 69  1  0
 36 70  1  0
 37 71  1  0
 37 72  1  0
 38 73  1  0
 38 74  1  0
 39 75  1  0
 39 76  1  0
M  CHG  3  10  -1  22  -1  28  -1
M  END
>  <UniqueID>  (80) 
77

>  <SMILES>  (80) 
O=C(Cc1ccccc1)[N-]C1CCN(CCCN=c2cc[n-]cc2S(=O)(=O)[N-]C(=O)NC2CCCCC2)CC1

>  <Energy>  (80) 
106.40967688580345

>  <Genealogy>  (80) 
O=C(Cc1ccccc1)[N-]C1CCN(CCCN=c2cc[n-]cc2S(=O)(=O)[N-]C(=O)NC2CCCCC2)CC1 (protonated)
O=C(Cc1ccccc1)[N-]C1CCN(CCCN=c2cc[n-]cc2S(=O)(=O)[N-]C(=O)NC2CCCCC2)CC1 (3D coordinates assigned)
O=C(Cc1ccccc1)[N-]C1CCN(CCCN=c2cc[n-]cc2S(=O)(=O)[N-]C(=O)NC2CCCCC2)CC1 (nonaromatic ring conformer: 106.40967688580345 kcal/mol)

>  <smiles>  (80) 
O=C(Cc1ccccc1)NC1CCN(CCCN=c2cc[nH]cc2S(=O)(=O)NC(=O)NC2CCCCC2)CC1

>  <score_type>  (80) 
oracle

>  <origin>  (80) 
adg

>  <m_score__min__energy>  (80) 
-13.57

>  <m_primary>  (80) 
energy

$$$$
80:0
     RDKit          3D

 58 60  0  0  0  0  0  0  0  0999 V2000
   59.8550   26.2020   46.7530 C   0  0  0  0  0  0  0  0  0  0  0  0
   58.4210   26.5240   47.1570 C   0  0  0  0  0  0  0  0  0  0  0  0
   57.4690   26.1150   46.1120 N   0  0  0  0  0  0  0  0  0  0  0  0
   57.7790   26.4250   44.7060 C   0  0  0  0  0  0  0  0  0  0  0  0
   58.2370   27.8480   44.5510 C   0  0  0  0  0  0  0  0  0  0  0  0
   59.4590   28.0810   44.3410 O   0  0  0  0  0  0  0  0  0  0  0  0
   57.2890   28.9240   44.6140 N   0  0  0  0  0  0  0  0  0  0  0  0
   57.6520   30.3140   44.6820 C   0  0  0  0  0  0  0  0  0  0  0  0
   57.4430   31.1770   43.5970 C   0  0  0  0  0  0  0  0  0  0  0  0
   57.8220   32.5170   43.6820 C   0  0  0  0  0  0  0  0  0  0  0  0
   58.4370   33.0130   44.8370 C   0  0  0  0  0  0  0  0  0  0  0  0
   58.8410   34.7260   44.8560 Cl  0  0  0  0  0  0  0  0  0  0  0  0
   58.6950   32.1430   45.9240 C   0  0  0  0  0  0  0  0  0  0  0  0
   59.5110   32.6680   47.4150 S   0  0  0  0  0  0  0  0  0  0  0  0
   59.0110   31.8220   48.5550 O   0  0  0  0  0  0  0  0  0  0  0  0
   59.1660   34.0950   47.7340 O   0  0  0  0  0  0  0  0  0  0  0  0
   61.2510   32.5080   47.3110 N   0  0  0  0  0  0  0  0  0  0  0  0
   61.8220   33.5480   46.4320 C   0  0  0  0  0  0  0  0  0  0  0  0
   63.3110   33.7660   46.7430 C   0  0  0  0  0  0  0  0  0  0  0  0
   63.5600   34.1990   48.0750 O   0  0  0  0  0  0  0  0  0  0  0  0
   62.5620   33.7970   49.0050 C   0  0  0  0  0  0  0  0  0  0  0  0
   61.8890   32.4610   48.6430 C   0  0  0  0  0  0  0  0  0  0  0  0
   58.2850   30.8020   45.8310 C   0  0  0  0  0  0  0  0  0  0  0  0
   56.3430   25.2610   46.4220 C   0  0  0  0  0  0  0  0  0  0  0  0
   55.1940   25.5680   45.9960 O   0  0  0  0  0  0  0  0  0  0  0  0
   56.4960   24.0610   47.3210 C   0  0  0  0  0  0  0  0  0  0  0  0
   57.7730   23.3990   47.0800 N   0  0  0  0  0  0  0  0  0  0  0  0
   58.3890   23.1420   45.8080 C   0  0  0  0  0  0  0  0  0  0  0  0
   59.6250   23.3530   45.7010 O   0  0  0  0  0  0  0  0  0  0  0  0
   57.6580   22.6330   44.6220 C   0  0  0  0  0  0  0  0  0  0  0  0
   57.7520   21.3310   44.1350 C   0  0  0  0  0  0  0  0  0  0  0  0
   56.9920   21.1000   42.9820 C   0  0  0  0  0  0  0  0  0  0  0  0
   56.2970   22.2170   42.5400 C   0  0  0  0  0  0  0  0  0  0  0  0
   56.6360   23.4850   43.5870 S   0  0  0  0  0  0  0  0  0  0  0  0
   60.4682   26.0643   47.6558 H   0  0  0  0  0  0  0  0  0  0  0  0
   59.8691   25.2783   46.1558 H   0  0  0  0  0  0  0  0  0  0  0  0
   60.2626   27.0310   46.1558 H   0  0  0  0  0  0  0  0  0  0  0  0
   58.1823   25.9902   48.0887 H   0  0  0  0  0  0  0  0  0  0  0  0
   58.3353   27.6113   47.3000 H   0  0  0  0  0  0  0  0  0  0  0  0
   58.5760   25.7517   44.3575 H   0  0  0  0  0  0  0  0  0  0  0  0
   56.8653   26.2864   44.1093 H   0  0  0  0  0  0  0  0  0  0  0  0
   56.2770   28.6920   44.5040 H   0  0  0  0  0  0  0  0  0  0  0  0
   56.9785   30.7962   42.6754 H   0  0  0  0  0  0  0  0  0  0  0  0
   57.6355   33.1905   42.8325 H   0  0  0  0  0  0  0  0  0  0  0  0
   61.7146   33.2332   45.3835 H   0  0  0  0  0  0  0  0  0  0  0  0
   61.2833   34.4913   46.6048 H   0  0  0  0  0  0  0  0  0  0  0  0
   63.8420   32.8163   46.5817 H   0  0  0  0  0  0  0  0  0  0  0  0
   63.6654   34.5642   46.0742 H   0  0  0  0  0  0  0  0  0  0  0  0
   63.0298   33.6943   49.9953 H   0  0  0  0  0  0  0  0  0  0  0  0
   61.7780   34.5685   48.9924 H   0  0  0  0  0  0  0  0  0  0  0  0
   62.6506   31.6673   48.6446 H   0  0  0  0  0  0  0  0  0  0  0  0
   61.1058   32.2609   49.3890 H   0  0  0  0  0  0  0  0  0  0  0  0
   58.4650   30.1229   46.6774 H   0  0  0  0  0  0  0  0  0  0  0  0
   56.4503   24.3873   48.3705 H   0  0  0  0  0  0  0  0  0  0  0  0
   55.6828   23.3517   47.1074 H   0  0  0  0  0  0  0  0  0  0  0  0
   58.3676   20.5548   44.6131 H   0  0  0  0  0  0  0  0  0  0  0  0
   56.9498   20.1251   42.4743 H   0  0  0  0  0  0  0  0  0  0  0  0
   55.6399   22.2634   41.6591 H   0  0  0  0  0  0  0  0  0  0  0  0
  1  2  1  0
  2  3  1  0
  3  4  1  0
  4  5  1  0
  5  6  2  0
  5  7  1  0
  7  8  1  0
  8  9  2  0
  9 10  1  0
 10 11  2  0
 11 12  1  0
 11 13  1  0
 13 14  1  0
 14 15  2  0
 14 16  2  0
 14 17  1  0
 17 18  1  0
 18 19  1  0
 19 20  1  0
 20 21  1  0
 21 22  1  0
 13 23  2  0
  3 24  1  0
 24 25  2  0
 24 26  1  0
 26 27  1  0
 27 28  1  0
 28 29  2  0
 28 30  1  0
 30 31  2  0
 31 32  1  0
 32 33  2  0
 33 34  1  0
 23  8  1  0
 34 30  1  0
 22 17  1  0
  1 35  1  0
  1 36  1  0
  1 37  1  0
  2 38  1  0
  2 39  1  0
  4 40  1  0
  4 41  1  0
  7 42  1  0
  9 43  1  0
 10 44  1  0
 18 45  1  0
 18 46  1  0
 19 47  1  0
 19 48  1  0
 21 49  1  0
 21 50  1  0
 22 51  1  0
 22 52  1  0
 23 53  1  0
 26 54  1  0
 26 55  1  0
 31 56  1  0
 32 57  1  0
 33 58  1  0
M  CHG  1  27  -1
M  END
>  <UniqueID>  (81) 
78

>  <SMILES>  (81) 
CCN(CC(=O)Nc1ccc(Cl)c(S(=O)(=O)N2CCOCC2)c1)C(=O)C[N-]C(=O)c1cccs1

>  <Energy>  (81) 
100.99494377631821

>  <Genealogy>  (81) 
CCN(CC(=O)Nc1ccc(Cl)c(S(=O)(=O)N2CCOCC2)c1)C(=O)C[N-]C(=O)c1cccs1 (protonated)
CCN(CC(=O)Nc1ccc(Cl)c(S(=O)(=O)N2CCOCC2)c1)C(=O)C[N-]C(=O)c1cccs1 (3D coordinates assigned)
CCN(CC(=O)Nc1ccc(Cl)c(S(=O)(=O)N2CCOCC2)c1)C(=O)C[N-]C(=O)c1cccs1 (nonaromatic ring conformer: 100.99494377631821 kcal/mol)

>  <smiles>  (81) 
CCN(CC(=O)Nc1ccc(Cl)c(S(=O)(=O)N2CCOCC2)c1)C(=O)CNC(=O)c1cccs1

>  <score_type>  (81) 
oracle

>  <origin>  (81) 
adg

>  <m_score__min__energy>  (81) 
-11.039999999999999

>  <m_primary>  (81) 
energy

$$$$
81:0
     RDKit          3D

 53 56  0  0  0  0  0  0  0  0999 V2000
   51.5881   29.4795   52.2652 H   0  0  0  0  0  0  0  0  0  0  0  0
   52.2520   30.0790   51.6250 C   0  0  0  0  0  0  0  0  0  0  0  0
   51.7220   30.6140   50.5050 C   0  0  0  0  0  0  0  0  0  0  0  0
   51.7790   29.9190   49.2390 C   0  0  0  0  0  0  0  0  0  0  0  0
   51.8230   29.3650   48.2240 N   0  0  0  0  0  0  0  0  0  0  0  0
   51.1280   31.9700   50.5300 C   0  0  0  0  0  0  0  0  0  0  0  0
   51.0300   32.6010   51.6170 O   0  0  0  0  0  0  0  0  0  0  0  0
   50.6730   32.5700   49.3600 O   0  0  0  0  0  0  0  0  0  0  0  0
   53.6610   30.2380   52.0580 C   0  0  0  0  0  0  0  0  0  0  0  0
   54.3160   31.4810   52.0090 C   0  0  0  0  0  0  0  0  0  0  0  0
   53.7678   32.3757   51.6787 H   0  0  0  0  0  0  0  0  0  0  0  0
   55.6610   31.5860   52.3780 C   0  0  0  0  0  0  0  0  0  0  0  0
   56.1579   32.5672   52.3589 H   0  0  0  0  0  0  0  0  0  0  0  0
   56.3780   30.4520   52.7710 C   0  0  0  0  0  0  0  0  0  0  0  0
   57.7230   30.6020   53.1390 O   0  0  0  0  0  0  0  0  0  0  0  0
   58.5680   29.5670   53.5720 C   0  0  0  0  0  0  0  0  0  0  0  0
   59.8510   29.3770   53.0280 C   0  0  0  0  0  0  0  0  0  0  0  0
   60.2131   30.0443   52.2320 H   0  0  0  0  0  0  0  0  0  0  0  0
   60.6670   28.3440   53.4950 C   0  0  0  0  0  0  0  0  0  0  0  0
   61.6619   28.1912   53.0514 H   0  0  0  0  0  0  0  0  0  0  0  0
   60.2260   27.4980   54.5280 C   0  0  0  0  0  0  0  0  0  0  0  0
   61.0540   26.4130   54.9910 N   0  0  0  0  0  0  0  0  0  0  0  0
   60.4500   25.6160   55.3010 H   0  0  0  0  0  0  0  0  0  0  0  0
   61.6160   26.7090   55.8240 H   0  0  0  0  0  0  0  0  0  0  0  0
   61.9420   25.9970   53.9340 C   0  0  0  0  0  0  0  0  0  0  0  0
   61.5660   24.9770   53.0440 C   0  0  0  0  0  0  0  0  0  0  0  0
   60.5995   24.4675   53.1721 H   0  0  0  0  0  0  0  0  0  0  0  0
   62.4130   24.6070   51.9980 C   0  0  0  0  0  0  0  0  0  0  0  0
   62.1105   23.8101   51.3027 H   0  0  0  0  0  0  0  0  0  0  0  0
   63.6450   25.2470   51.8320 C   0  0  0  0  0  0  0  0  0  0  0  0
   64.3026   24.9599   50.9983 H   0  0  0  0  0  0  0  0  0  0  0  0
   64.0460   26.2510   52.7210 C   0  0  0  0  0  0  0  0  0  0  0  0
   65.3020   26.9100   52.5000 N   0  0  0  0  0  0  0  0  0  0  0  0
   66.6080   26.3390   52.6380 C   0  0  0  0  0  0  0  0  0  0  0  0
   66.9310   25.8390   53.7480 O   0  0  0  0  0  0  0  0  0  0  0  0
   67.6120   26.4050   51.5110 C   0  0  0  0  0  0  0  0  0  0  0  0
   68.3730   25.7949   52.0196 H   0  0  0  0  0  0  0  0  0  0  0  0
   67.0570   26.4390   50.0910 C   0  0  0  0  0  0  0  0  0  0  0  0
   67.6139   25.9615   49.2713 H   0  0  0  0  0  0  0  0  0  0  0  0
   66.1085   26.1424   49.6195 H   0  0  0  0  0  0  0  0  0  0  0  0
   67.5880   27.7130   50.7300 C   0  0  0  0  0  0  0  0  0  0  0  0
   68.5287   28.1568   50.3719 H   0  0  0  0  0  0  0  0  0  0  0  0
   67.1819   28.7191   50.9114 H   0  0  0  0  0  0  0  0  0  0  0  0
   63.1800   26.6410   53.7560 C   0  0  0  0  0  0  0  0  0  0  0  0
   63.4724   27.4570   54.4332 H   0  0  0  0  0  0  0  0  0  0  0  0
   58.9510   27.7040   55.0820 C   0  0  0  0  0  0  0  0  0  0  0  0
   58.5936   27.0488   55.8901 H   0  0  0  0  0  0  0  0  0  0  0  0
   58.1340   28.7370   54.6120 C   0  0  0  0  0  0  0  0  0  0  0  0
   57.1436   28.8983   55.0627 H   0  0  0  0  0  0  0  0  0  0  0  0
   55.7260   29.2080   52.8240 C   0  0  0  0  0  0  0  0  0  0  0  0
   56.2749   28.3158   53.1596 H   0  0  0  0  0  0  0  0  0  0  0  0
   54.3830   29.1000   52.4520 C   0  0  0  0  0  0  0  0  0  0  0  0
   53.8887   28.1175   52.4680 H   0  0  0  0  0  0  0  0  0  0  0  0
  1  2  1  0
  2  3  2  0
  3  4  1  0
  4  5  3  0
  3  6  1  0
  6  7  2  0
  6  8  1  0
  2  9  1  0
  9 10  2  0
 10 11  1  0
 10 12  1  0
 12 13  1  0
 12 14  2  0
 14 15  1  0
 15 16  1  0
 16 17  2  0
 17 18  1  0
 17 19  1  0
 19 20  1  0
 19 21  2  0
 21 22  1  0
 22 23  1  0
 22 24  1  0
 22 25  1  0
 25 26  2  0
 26 27  1  0
 26 28  1  0
 28 29  1  0
 28 30  2  0
 30 31  1  0
 30 32  1  0
 32 33  1  0
 33 34  1  0
 34 35  2  0
 34 36  1  0
 36 37  1  0
 36 38  1  0
 38 39  1  0
 38 40  1  0
 38 41  1  0
 41 42  1  0
 41 43  1  0
 32 44  2  0
 44 45  1  0
 21 46  1  0
 46 47  1  0
 46 48  2  0
 48 49  1  0
 14 50  1  0
 50 51  1  0
 50 52  2  0
 52 53  1  0
 52  9  1  0
 48 16  1  0
 44 25  1  0
 41 36  1  0
M  CHG  3   8  -1  22   1  33  -1
M  END
>  <UniqueID>  (82) 
79

>  <SMILES>  (82) 
N#C/C(=C\c1ccc(Oc2ccc([NH2+]c3cccc([N-]C(=O)C4CC4)c3)cc2)cc1)C(=O)[O-]

>  <Energy>  (82) 
338.5639087819888

>  <Genealogy>  (82) 
N#CC(=Cc1ccc(Oc2ccc([NH2+]c3cccc([N-]C(=O)C4CC4)c3)cc2)cc1)C(=O)[O-] (protonated)
N#C/C(=C\c1ccc(Oc2ccc([NH2+]c3cccc([N-]C(=O)C4CC4)c3)cc2)cc1)C(=O)[O-] (cis-trans isomerization)
N#C/C(=C\c1ccc(Oc2ccc([NH2+]c3cccc([N-]C(=O)C4CC4)c3)cc2)cc1)C(=O)[O-] (3D coordinates assigned)
N#C/C(=C\c1ccc(Oc2ccc([NH2+]c3cccc([N-]C(=O)C4CC4)c3)cc2)cc1)C(=O)[O-] (nonaromatic ring conformer: 338.5639087819888 kcal/mol)

>  <smiles>  (82) 
N#CC(=Cc1ccc(Oc2ccc(Nc3cccc(NC(=O)C4CC4)c3)cc2)cc1)C(=O)O

>  <score_type>  (82) 
oracle

>  <origin>  (82) 
adg

>  <m_score__min__energy>  (82) 
-10.699999999999999

>  <m_primary>  (82) 
energy

$$$$
82:0
     RDKit          3D

 29 31  0  0  0  0  0  0  0  0999 V2000
   52.2873   28.5979   53.0823 H   0  0  0  0  0  0  0  0  0  0  0  0
   53.3340   28.2620   53.1220 C   0  0  0  0  0  0  0  0  0  0  0  0
   53.5692   27.2283   53.4155 H   0  0  0  0  0  0  0  0  0  0  0  0
   54.3190   29.1090   52.8140 C   0  0  0  0  0  0  0  0  0  0  0  0
   55.6180   28.7470   52.8470 N   0  0  0  0  0  0  0  0  0  0  0  0
   56.3480   29.7920   52.4870 N   0  0  0  0  0  0  0  0  0  0  0  0
   57.7870   29.7690   52.4390 C   0  0  0  0  0  0  0  0  0  0  0  0
   58.5490   29.4310   53.5740 C   0  0  0  0  0  0  0  0  0  0  0  0
   58.0423   29.1702   54.5149 H   0  0  0  0  0  0  0  0  0  0  0  0
   59.9470   29.4250   53.5120 C   0  0  0  0  0  0  0  0  0  0  0  0
   60.5350   29.1546   54.4014 H   0  0  0  0  0  0  0  0  0  0  0  0
   60.5970   29.7620   52.3220 C   0  0  0  0  0  0  0  0  0  0  0  0
   61.6959   29.7510   52.2732 H   0  0  0  0  0  0  0  0  0  0  0  0
   59.8510   30.1130   51.1940 C   0  0  0  0  0  0  0  0  0  0  0  0
   60.3631   30.3833   50.2587 H   0  0  0  0  0  0  0  0  0  0  0  0
   58.4540   30.1210   51.2530 C   0  0  0  0  0  0  0  0  0  0  0  0
   57.8722   30.4052   50.3638 H   0  0  0  0  0  0  0  0  0  0  0  0
   55.5260   30.8350   52.2390 C   0  0  0  0  0  0  0  0  0  0  0  0
   55.9310   32.0000   51.9850 O   0  0  0  0  0  0  0  0  0  0  0  0
   54.2030   30.4440   52.4140 C   0  0  0  0  0  0  0  0  0  0  0  0
   53.0690   31.1640   52.2940 C   0  0  0  0  0  0  0  0  0  0  0  0
   52.7261   31.7156   53.1818 H   0  0  0  0  0  0  0  0  0  0  0  0
   52.2490   31.2740   51.0710 C   0  0  0  0  0  0  0  0  0  0  0  0
   52.2020   30.3670   50.0780 N   0  0  0  0  0  0  0  0  0  0  0  0
   51.2450   30.8480   49.2560 C   0  0  0  0  0  0  0  0  0  0  0  0
   50.9140   30.2700   48.1880 O   0  0  0  0  0  0  0  0  0  0  0  0
   50.6640   31.9930   49.6730 N   0  0  0  0  0  0  0  0  0  0  0  0
   51.3030   32.2410   50.8270 C   0  0  0  0  0  0  0  0  0  0  0  0
   51.0250   33.3300   51.6450 O   0  0  0  0  0  0  0  0  0  0  0  0
  1  2  1  0
  2  3  1  0
  2  4  2  0
  4  5  1  0
  5  6  1  0
  6  7  1  0
  7  8  2  0
  8  9  1  0
  8 10  1  0
 10 11  1  0
 10 12  2  0
 12 13  1  0
 12 14  1  0
 14 15  1  0
 14 16  2  0
 16 17  1  0
  6 18  1  0
 18 19  2  0
 18 20  1  0
 20 21  2  0
 21 22  1  0
 21 23  1  0
 23 24  1  0
 24 25  1  0
 25 26  2  0
 25 27  1  0
 27 28  1  0
 28 29  1  0
 20  4  1  0
 28 23  2  0
 16  7  1  0
M  CHG  4   5  -1  24  -1  27  -1  29  -1
M  END
>  <UniqueID>  (83) 
80

>  <SMILES>  (83) 
C=c1[n-]n(-c2ccccc2)c(=O)/c1=C\c1[n-]c(=O)[n-]c1[O-]

>  <Energy>  (83) 
105.6552477855547

>  <Genealogy>  (83) 
C=c1[n-]n(-c2ccccc2)c(=O)c1=Cc1[n-]c(=O)[n-]c1[O-] (protonated)
C=c1[n-]n(-c2ccccc2)c(=O)/c1=C\c1[n-]c(=O)[n-]c1[O-] (cis-trans isomerization)
C=c1[n-]n(-c2ccccc2)c(=O)/c1=C\c1[n-]c(=O)[n-]c1[O-] (3D coordinates assigned)
C=c1[n-]n(-c2ccccc2)c(=O)/c1=C\c1[n-]c(=O)[n-]c1[O-] (optimized conformer: 105.6552477855547 kcal/mol)

>  <smiles>  (83) 
C=c1[nH]n(-c2ccccc2)c(=O)c1=Cc1[nH]c(=O)[nH]c1O

>  <score_type>  (83) 
oracle

>  <origin>  (83) 
adg

>  <m_score__min__energy>  (83) 
-16.09

>  <m_primary>  (83) 
energy

$$$$
83:0
     RDKit          3D

 32 33  0  0  0  0  0  0  0  0999 V2000
   59.2350   27.9970   46.8860 C   0  0  0  0  0  0  0  0  0  0  0  0
   58.4390   28.6300   46.0050 C   0  0  0  0  0  0  0  0  0  0  0  0
   58.2800   30.0200   46.1590 C   0  0  0  0  0  0  0  0  0  0  0  0
   57.7030   30.8100   45.1550 C   0  0  0  0  0  0  0  0  0  0  0  0
   57.5820   32.2970   45.3750 C   0  0  0  0  0  0  0  0  0  0  0  0
   57.2670   30.1990   43.9600 C   0  0  0  0  0  0  0  0  0  0  0  0
   56.7060   30.9980   42.8020 C   0  0  0  0  0  0  0  0  0  0  0  0
   57.7380   31.9930   42.2800 C   0  0  0  0  0  0  0  0  0  0  0  0
   57.3780   28.8080   43.8180 C   0  0  0  0  0  0  0  0  0  0  0  0
   57.8720   27.9900   44.8560 C   0  0  0  0  0  0  0  0  0  0  0  0
   57.7500   26.6490   44.6870 C   0  0  0  0  0  0  0  0  0  0  0  0
   57.1940   25.7000   45.6740 C   0  0  0  0  0  0  0  0  0  0  0  0
   57.8860   24.6920   46.2360 N   0  0  0  0  0  0  0  0  0  0  0  0
   57.0200   24.1820   47.1380 C   0  0  0  0  0  0  0  0  0  0  0  0
   57.3030   23.1980   47.8700 O   0  0  0  0  0  0  0  0  0  0  0  0
   55.8300   24.8170   47.2010 N   0  0  0  0  0  0  0  0  0  0  0  0
   55.9580   25.7810   46.2760 C   0  0  0  0  0  0  0  0  0  0  0  0
   54.9580   26.7090   45.9950 O   0  0  0  0  0  0  0  0  0  0  0  0
   59.3898   26.9109   46.8058 H   0  0  0  0  0  0  0  0  0  0  0  0
   59.7310   28.5656   47.6864 H   0  0  0  0  0  0  0  0  0  0  0  0
   58.6169   30.4984   47.0905 H   0  0  0  0  0  0  0  0  0  0  0  0
   57.5649   32.5077   46.4545 H   0  0  0  0  0  0  0  0  0  0  0  0
   58.4416   32.8068   44.9155 H   0  0  0  0  0  0  0  0  0  0  0  0
   56.6513   32.6611   44.9155 H   0  0  0  0  0  0  0  0  0  0  0  0
   56.4263   30.3097   41.9909 H   0  0  0  0  0  0  0  0  0  0  0  0
   55.8247   31.5553   43.1523 H   0  0  0  0  0  0  0  0  0  0  0  0
   58.2415   32.4784   43.1290 H   0  0  0  0  0  0  0  0  0  0  0  0
   58.4817   31.4624   41.6673 H   0  0  0  0  0  0  0  0  0  0  0  0
   57.2349   32.7556   41.6673 H   0  0  0  0  0  0  0  0  0  0  0  0
   57.0711   28.3415   42.8703 H   0  0  0  0  0  0  0  0  0  0  0  0
   58.0958   26.2312   43.7300 H   0  0  0  0  0  0  0  0  0  0  0  0
   55.1450   27.5350   45.4390 H   0  0  0  0  0  0  0  0  0  0  0  0
  1  2  2  0
  2  3  1  0
  3  4  2  0
  4  5  1  0
  4  6  1  0
  6  7  1  0
  7  8  1  0
  6  9  2  0
  9 10  1  0
 10 11  2  3
 11 12  1  0
 12 13  1  0
 13 14  1  0
 14 15  2  0
 14 16  1  0
 16 17  1  0
 17 18  1  0
 10  2  1  0
 17 12  2  0
  1 19  1  0
  1 20  1  0
  3 21  1  0
  5 22  1  0
  5 23  1  0
  5 24  1  0
  7 25  1  0
  7 26  1  0
  8 27  1  0
  8 28  1  0
  8 29  1  0
  9 30  1  0
 11 31  1  0
 18 32  1  0
M  CHG  2  13  -1  16  -1
M  END
>  <UniqueID>  (84) 
81

>  <SMILES>  (84) 
C=c1cc(C)c(CC)cc1=Cc1[n-]c(=O)[n-]c1O

>  <Energy>  (84) 
79.30259632078536

>  <Genealogy>  (84) 
C=c1cc(C)c(CC)cc1=Cc1[n-]c(=O)[n-]c1O (protonated)
C=c1cc(C)c(CC)cc1=Cc1[n-]c(=O)[n-]c1O (3D coordinates assigned)
C=c1cc(C)c(CC)cc1=Cc1[n-]c(=O)[n-]c1O (optimized conformer: 79.30259632078536 kcal/mol)

>  <smiles>  (84) 
C=c1cc(C)c(CC)cc1=Cc1[nH]c(=O)[nH]c1O

>  <score_type>  (84) 
oracle

>  <origin>  (84) 
adg

>  <m_score__min__energy>  (84) 
-11.5

>  <m_primary>  (84) 
energy

$$$$
84:0
     RDKit          3D

 44 46  0  0  0  0  0  0  0  0999 V2000
   51.8662   22.2486   45.7403 H   0  0  0  0  0  0  0  0  0  0  0  0
   52.4470   23.1710   45.8880 C   0  0  0  0  0  0  0  0  0  0  0  0
   51.9670   24.1511   45.7503 H   0  0  0  0  0  0  0  0  0  0  0  0
   53.7330   23.1010   46.2340 C   0  0  0  0  0  0  0  0  0  0  0  0
   54.4670   21.9440   46.4420 C   0  0  0  0  0  0  0  0  0  0  0  0
   53.9900   20.5310   46.3160 C   0  0  0  0  0  0  0  0  0  0  0  0
   53.8452   20.1021   47.3185 H   0  0  0  0  0  0  0  0  0  0  0  0
   53.0361   20.5135   45.7684 H   0  0  0  0  0  0  0  0  0  0  0  0
   54.7381   19.9389   45.7684 H   0  0  0  0  0  0  0  0  0  0  0  0
   55.7470   22.3400   46.7790 C   0  0  0  0  0  0  0  0  0  0  0  0
   56.6008   21.6862   47.0105 H   0  0  0  0  0  0  0  0  0  0  0  0
   55.7400   23.7320   46.7670 C   0  0  0  0  0  0  0  0  0  0  0  0
   56.7640   24.5650   47.0270 C   0  0  0  0  0  0  0  0  0  0  0  0
   57.4195   24.3038   47.8708 H   0  0  0  0  0  0  0  0  0  0  0  0
   57.0880   25.8000   46.2810 C   0  0  0  0  0  0  0  0  0  0  0  0
   58.3250   26.2070   45.9250 N   0  0  0  0  0  0  0  0  0  0  0  0
   58.1150   27.3930   45.3150 C   0  0  0  0  0  0  0  0  0  0  0  0
   59.0500   28.0980   44.8490 O   0  0  0  0  0  0  0  0  0  0  0  0
   56.8150   27.7520   45.2640 N   0  0  0  0  0  0  0  0  0  0  0  0
   56.2480   28.9990   44.7540 C   0  0  0  0  0  0  0  0  0  0  0  0
   56.2512   28.9778   43.6542 H   0  0  0  0  0  0  0  0  0  0  0  0
   55.2167   29.1041   45.1219 H   0  0  0  0  0  0  0  0  0  0  0  0
   57.0610   30.1630   45.2300 C   0  0  0  0  0  0  0  0  0  0  0  0
   56.9900   31.2590   44.6080 O   0  0  0  0  0  0  0  0  0  0  0  0
   57.9810   29.9980   46.3210 N   0  0  0  0  0  0  0  0  0  0  0  0
   58.1990   29.0250   46.6310 H   0  0  0  0  0  0  0  0  0  0  0  0
   58.7170   31.0760   46.9240 C   0  0  0  0  0  0  0  0  0  0  0  0
   58.1370   32.3420   47.1200 C   0  0  0  0  0  0  0  0  0  0  0  0
   57.1018   32.5254   46.7964 H   0  0  0  0  0  0  0  0  0  0  0  0
   58.8690   33.3690   47.7240 C   0  0  0  0  0  0  0  0  0  0  0  0
   58.4076   34.3567   47.8711 H   0  0  0  0  0  0  0  0  0  0  0  0
   60.1880   33.1460   48.1430 C   0  0  0  0  0  0  0  0  0  0  0  0
   60.9590   34.2380   48.8240 C   0  0  0  0  0  0  0  0  0  0  0  0
   60.8759   34.1203   49.9145 H   0  0  0  0  0  0  0  0  0  0  0  0
   62.0169   34.1792   48.5284 H   0  0  0  0  0  0  0  0  0  0  0  0
   60.5495   35.2152   48.5284 H   0  0  0  0  0  0  0  0  0  0  0  0
   60.7530   31.8710   47.9880 C   0  0  0  0  0  0  0  0  0  0  0  0
   61.7763   31.6785   48.3426 H   0  0  0  0  0  0  0  0  0  0  0  0
   60.0210   30.8450   47.3850 C   0  0  0  0  0  0  0  0  0  0  0  0
   60.4713   29.8479   47.2710 H   0  0  0  0  0  0  0  0  0  0  0  0
   56.1720   26.7530   45.8880 C   0  0  0  0  0  0  0  0  0  0  0  0
   54.7980   26.7100   46.1030 O   0  0  0  0  0  0  0  0  0  0  0  0
   54.5100   24.1820   46.4330 N   0  0  0  0  0  0  0  0  0  0  0  0
   54.2160   25.1830   46.3430 H   0  0  0  0  0  0  0  0  0  0  0  0
  1  2  1  0
  2  3  1  0
  2  4  2  0
  4  5  1  0
  5  6  1  0
  6  7  1  0
  6  8  1  0
  6  9  1  0
  5 10  2  0
 10 11  1  0
 10 12  1  0
 12 13  2  0
 13 14  1  0
 13 15  1  0
 15 16  1  0
 16 17  1  0
 17 18  2  0
 17 19  1  0
 19 20  1  0
 20 21  1  0
 20 22  1  0
 20 23  1  0
 23 24  2  0
 23 25  1  0
 25 26  1  0
 25 27  1  0
 27 28  2  0
 28 29  1  0
 28 30  1  0
 30 31  1  0
 30 32  2  0
 32 33  1  0
 33 34  1  0
 33 35  1  0
 33 36  1  0
 32 37  1  0
 37 38  1  0
 37 39  2  0
 39 40  1  0
 19 41  1  0
 41 42  1  0
 12 43  1  0
 43 44  1  0
 43  4  1  0
 41 15  2  0
 39 27  1  0
M  CHG  2  16  -1  42  -1
M  END
>  <UniqueID>  (85) 
82

>  <SMILES>  (85) 
C=c1[nH]/c(=C/c2[n-]c(=O)n(CC(=O)Nc3ccc(C)cc3)c2[O-])cc1C

>  <Energy>  (85) 
106.88286752618616

>  <Genealogy>  (85) 
C=c1[nH]c(=Cc2[n-]c(=O)n(CC(=O)Nc3ccc(C)cc3)c2[O-])cc1C (protonated)
C=c1[nH]/c(=C/c2[n-]c(=O)n(CC(=O)Nc3ccc(C)cc3)c2[O-])cc1C (cis-trans isomerization)
C=c1[nH]/c(=C/c2[n-]c(=O)n(CC(=O)Nc3ccc(C)cc3)c2[O-])cc1C (3D coordinates assigned)
C=c1[nH]/c(=C/c2[n-]c(=O)n(CC(=O)Nc3ccc(C)cc3)c2[O-])cc1C (optimized conformer: 106.88286752618616 kcal/mol)

>  <smiles>  (85) 
C=c1[nH]c(=Cc2[nH]c(=O)n(CC(=O)Nc3ccc(C)cc3)c2O)cc1C

>  <score_type>  (85) 
oracle

>  <origin>  (85) 
adg

>  <m_score__min__energy>  (85) 
-11.81

>  <m_primary>  (85) 
energy

$$$$
85:0
     RDKit          3D

 53 56  0  0  0  0  0  0  0  0999 V2000
   59.4410   34.6880   54.8670 C   0  0  0  0  0  0  0  0  0  0  0  0
   59.1840   33.7950   53.6900 C   0  0  0  0  0  0  0  0  0  0  0  0
   58.1770   32.8270   53.7470 C   0  0  0  0  0  0  0  0  0  0  0  0
   57.9660   31.9680   52.6690 C   0  0  0  0  0  0  0  0  0  0  0  0
   58.7540   32.0590   51.5080 C   0  0  0  0  0  0  0  0  0  0  0  0
   58.5080   31.0650   50.4050 C   0  0  0  0  0  0  0  0  0  0  0  0
   59.7870   33.0340   51.4460 C   0  0  0  0  0  0  0  0  0  0  0  0
   60.8700   33.2380   50.0440 S   0  0  0  0  0  0  0  0  0  0  0  0
   61.5480   34.5740   50.1660 O   0  0  0  0  0  0  0  0  0  0  0  0
   61.9490   32.1920   50.0440 O   0  0  0  0  0  0  0  0  0  0  0  0
   60.0160   33.1920   48.5170 N   0  0  0  0  0  0  0  0  0  0  0  0
   59.7600   34.5470   48.0110 C   0  0  0  0  0  0  0  0  0  0  0  0
   58.7560   34.4770   46.8550 C   0  0  0  0  0  0  0  0  0  0  0  0
   58.8880   33.2170   46.1120 N   0  0  0  0  0  0  0  0  0  0  0  0
   57.8670   32.8590   45.1650 C   0  0  0  0  0  0  0  0  0  0  0  0
   57.3150   33.7610   44.4790 O   0  0  0  0  0  0  0  0  0  0  0  0
   57.4250   31.4590   45.0120 C   0  0  0  0  0  0  0  0  0  0  0  0
   56.2230   31.2170   44.7160 O   0  0  0  0  0  0  0  0  0  0  0  0
   58.3700   30.3810   45.1310 N   0  0  0  0  0  0  0  0  0  0  0  0
   57.9980   28.9980   45.2510 C   0  0  0  0  0  0  0  0  0  0  0  0
   58.9940   27.9980   45.1040 C   0  0  0  0  0  0  0  0  0  0  0  0
   58.6720   26.6350   45.2390 C   0  0  0  0  0  0  0  0  0  0  0  0
   57.3520   26.3080   45.5330 C   0  0  0  0  0  0  0  0  0  0  0  0
   56.8320   25.0850   45.7140 N   0  0  0  0  0  0  0  0  0  0  0  0
   55.5330   25.3680   45.9870 C   0  0  0  0  0  0  0  0  0  0  0  0
   54.6830   24.4700   46.2240 O   0  0  0  0  0  0  0  0  0  0  0  0
   55.2150   26.6880   45.9890 N   0  0  0  0  0  0  0  0  0  0  0  0
   56.3930   27.2600   45.6950 C   0  0  0  0  0  0  0  0  0  0  0  0
   56.6720   28.6180   45.5690 C   0  0  0  0  0  0  0  0  0  0  0  0
   60.1830   32.5240   46.1030 C   0  0  0  0  0  0  0  0  0  0  0  0
   60.7640   32.3940   47.5270 C   0  0  0  0  0  0  0  0  0  0  0  0
   59.9960   33.8770   52.5510 C   0  0  0  0  0  0  0  0  0  0  0  0
   59.2787   34.1241   55.7974 H   0  0  0  0  0  0  0  0  0  0  0  0
   60.4795   35.0491   54.8335 H   0  0  0  0  0  0  0  0  0  0  0  0
   58.7533   35.5459   54.8335 H   0  0  0  0  0  0  0  0  0  0  0  0
   57.5485   32.7426   54.6458 H   0  0  0  0  0  0  0  0  0  0  0  0
   57.1722   31.2088   52.7277 H   0  0  0  0  0  0  0  0  0  0  0  0
   58.2655   30.0850   50.8419 H   0  0  0  0  0  0  0  0  0  0  0  0
   57.6675   31.4075   49.7835 H   0  0  0  0  0  0  0  0  0  0  0  0
   59.4112   30.9760   49.7835 H   0  0  0  0  0  0  0  0  0  0  0  0
   59.3467   35.1686   48.8190 H   0  0  0  0  0  0  0  0  0  0  0  0
   60.7014   34.9901   47.6540 H   0  0  0  0  0  0  0  0  0  0  0  0
   57.7361   34.5490   47.2608 H   0  0  0  0  0  0  0  0  0  0  0  0
   58.9594   35.3103   46.1663 H   0  0  0  0  0  0  0  0  0  0  0  0
   59.3870   30.6050   45.0520 H   0  0  0  0  0  0  0  0  0  0  0  0
   60.0304   28.2920   44.8818 H   0  0  0  0  0  0  0  0  0  0  0  0
   59.4376   25.8547   45.1163 H   0  0  0  0  0  0  0  0  0  0  0  0
   55.8854   29.3734   45.7123 H   0  0  0  0  0  0  0  0  0  0  0  0
   60.0473   31.5181   45.6790 H   0  0  0  0  0  0  0  0  0  0  0  0
   60.8858   33.1131   45.4956 H   0  0  0  0  0  0  0  0  0  0  0  0
   60.7289   31.3363   47.8272 H   0  0  0  0  0  0  0  0  0  0  0  0
   61.7963   32.7733   47.5029 H   0  0  0  0  0  0  0  0  0  0  0  0
   60.8117   34.6144   52.5211 H   0  0  0  0  0  0  0  0  0  0  0  0
  1  2  1  0
  2  3  2  0
  3  4  1  0
  4  5  2  0
  5  6  1  0
  5  7  1  0
  7  8  1  0
  8  9  2  0
  8 10  2  0
  8 11  1  0
 11 12  1  0
 12 13  1  0
 13 14  1  0
 14 15  1  0
 15 16  2  0
 15 17  1  0
 17 18  2  0
 17 19  1  0
 19 20  1  0
 20 21  2  0
 21 22  1  0
 22 23  2  0
 23 24  1  0
 24 25  1  0
 25 26  2  0
 25 27  1  0
 27 28  1  0
 28 29  2  0
 14 30  1  0
 30 31  1  0
  7 32  2  0
 32  2  1  0
 31 11  1  0
 29 20  1  0
 28 23  1  0
  1 33  1  0
  1 34  1  0
  1 35  1  0
  3 36  1  0
  4 37  1  0
  6 38  1  0
  6 39  1  0
  6 40  1  0
 12 41  1  0
 12 42  1  0
 13 43  1  0
 13 44  1  0
 19 45  1  0
 21 46  1  0
 22 47  1  0
 29 48  1  0
 30 49  1  0
 30 50  1  0
 31 51  1  0
 31 52  1  0
 32 53  1  0
M  CHG  2  24  -1  27  -1
M  END
>  <UniqueID>  (86) 
83

>  <SMILES>  (86) 
Cc1ccc(C)c(S(=O)(=O)N2CCN(C(=O)C(=O)Nc3ccc4[n-]c(=O)[n-]c4c3)CC2)c1

>  <Energy>  (86) 
104.46976448435257

>  <Genealogy>  (86) 
Cc1ccc(C)c(S(=O)(=O)N2CCN(C(=O)C(=O)Nc3ccc4[n-]c(=O)[n-]c4c3)CC2)c1 (protonated)
Cc1ccc(C)c(S(=O)(=O)N2CCN(C(=O)C(=O)Nc3ccc4[n-]c(=O)[n-]c4c3)CC2)c1 (3D coordinates assigned)
Cc1ccc(C)c(S(=O)(=O)N2CCN(C(=O)C(=O)Nc3ccc4[n-]c(=O)[n-]c4c3)CC2)c1 (nonaromatic ring conformer: 104.46976448435257 kcal/mol)

>  <smiles>  (86) 
Cc1ccc(C)c(S(=O)(=O)N2CCN(C(=O)C(=O)Nc3ccc4[nH]c(=O)[nH]c4c3)CC2)c1

>  <score_type>  (86) 
oracle

>  <origin>  (86) 
adg

>  <m_score__min__energy>  (86) 
-12.949999999999999

>  <m_primary>  (86) 
energy

$$$$
86:0
     RDKit          3D

 49 51  0  0  0  0  0  0  0  0999 V2000
   58.0960   32.2890   41.5490 O   0  0  0  0  0  0  0  0  0  0  0  0
   57.5160   31.7600   42.5330 C   0  0  0  0  0  0  0  0  0  0  0  0
   56.6310   30.5760   42.3130 C   0  0  0  0  0  0  0  0  0  0  0  0
   57.0680   29.4860   43.1760 N   0  0  0  0  0  0  0  0  0  0  0  0
   57.0990   29.5340   44.6100 C   0  0  0  0  0  0  0  0  0  0  0  0
   56.1380   30.0720   45.2200 O   0  0  0  0  0  0  0  0  0  0  0  0
   58.2380   29.0090   45.3880 C   0  0  0  0  0  0  0  0  0  0  0  0
   58.9330   27.8680   44.9620 C   0  0  0  0  0  0  0  0  0  0  0  0
   60.0050   27.3740   45.7130 C   0  0  0  0  0  0  0  0  0  0  0  0
   60.3820   28.0090   46.8970 C   0  0  0  0  0  0  0  0  0  0  0  0
   59.6770   29.1330   47.3460 C   0  0  0  0  0  0  0  0  0  0  0  0
   60.1280   29.9470   48.8410 S   0  0  0  0  0  0  0  0  0  0  0  0
   58.8750   30.3570   49.5650 O   0  0  0  0  0  0  0  0  0  0  0  0
   60.9170   29.0150   49.7240 O   0  0  0  0  0  0  0  0  0  0  0  0
   61.0750   31.3610   48.4570 N   0  0  0  0  0  0  0  0  0  0  0  0
   61.6630   31.2610   47.1240 C   0  0  0  0  0  0  0  0  0  0  0  0
   62.9060   32.1370   47.1380 C   0  0  0  0  0  0  0  0  0  0  0  0
   63.2840   32.2670   48.6070 C   0  0  0  0  0  0  0  0  0  0  0  0
   62.2060   31.5120   49.3700 C   0  0  0  0  0  0  0  0  0  0  0  0
   58.6030   29.6250   46.5930 C   0  0  0  0  0  0  0  0  0  0  0  0
   57.6600   32.3230   43.8450 N   0  0  0  0  0  0  0  0  0  0  0  0
   58.5150   33.4770   44.1140 C   0  0  0  0  0  0  0  0  0  0  0  0
   58.7980   33.5870   45.5830 C   0  0  0  0  0  0  0  0  0  0  0  0
   59.7600   34.4880   46.0620 C   0  0  0  0  0  0  0  0  0  0  0  0
   59.9880   34.5810   47.4360 C   0  0  0  0  0  0  0  0  0  0  0  0
   59.2590   33.7790   48.3170 C   0  0  0  0  0  0  0  0  0  0  0  0
   58.3090   32.8930   47.8050 C   0  0  0  0  0  0  0  0  0  0  0  0
   58.0990   32.8180   46.4630 N   0  0  0  0  0  0  0  0  0  0  0  0
   55.5917   30.8431   42.5549 H   0  0  0  0  0  0  0  0  0  0  0  0
   56.6889   30.2610   41.2607 H   0  0  0  0  0  0  0  0  0  0  0  0
   58.6341   27.3593   44.0336 H   0  0  0  0  0  0  0  0  0  0  0  0
   60.5517   26.4834   45.3695 H   0  0  0  0  0  0  0  0  0  0  0  0
   61.2338   27.6264   47.4784 H   0  0  0  0  0  0  0  0  0  0  0  0
   61.9348   30.2178   46.9051 H   0  0  0  0  0  0  0  0  0  0  0  0
   60.9535   31.5867   46.3490 H   0  0  0  0  0  0  0  0  0  0  0  0
   63.7197   31.6616   46.5706 H   0  0  0  0  0  0  0  0  0  0  0  0
   62.7249   33.1164   46.6711 H   0  0  0  0  0  0  0  0  0  0  0  0
   64.2715   31.8188   48.7914 H   0  0  0  0  0  0  0  0  0  0  0  0
   63.3470   33.3192   48.9216 H   0  0  0  0  0  0  0  0  0  0  0  0
   62.5800   30.5242   49.6773 H   0  0  0  0  0  0  0  0  0  0  0  0
   61.9109   32.0547   50.2801 H   0  0  0  0  0  0  0  0  0  0  0  0
   58.0420   30.5012   46.9500 H   0  0  0  0  0  0  0  0  0  0  0  0
   57.1250   31.9080   44.6390 H   0  0  0  0  0  0  0  0  0  0  0  0
   59.4638   33.3598   43.5699 H   0  0  0  0  0  0  0  0  0  0  0  0
   57.9984   34.3892   43.7809 H   0  0  0  0  0  0  0  0  0  0  0  0
   60.3298   35.1158   45.3612 H   0  0  0  0  0  0  0  0  0  0  0  0
   60.7398   35.2841   47.8239 H   0  0  0  0  0  0  0  0  0  0  0  0
   59.4313   33.8446   49.4014 H   0  0  0  0  0  0  0  0  0  0  0  0
   57.7294   32.2545   48.4880 H   0  0  0  0  0  0  0  0  0  0  0  0
  1  2  2  0
  2  3  1  0
  3  4  1  0
  4  5  1  0
  5  6  2  0
  5  7  1  0
  7  8  2  0
  8  9  1  0
  9 10  2  0
 10 11  1  0
 11 12  1  0
 12 13  2  0
 12 14  2  0
 12 15  1  0
 15 16  1  0
 16 17  1  0
 17 18  1  0
 18 19  1  0
 11 20  2  0
  2 21  1  0
 21 22  1  0
 22 23  1  0
 23 24  2  0
 24 25  1  0
 25 26  2  0
 26 27  1  0
 27 28  2  0
 20  7  1  0
 28 23  1  0
 19 15  1  0
  3 29  1  0
  3 30  1  0
  8 31  1  0
  9 32  1  0
 10 33  1  0
 16 34  1  0
 16 35  1  0
 17 36  1  0
 17 37  1  0
 18 38  1  0
 18 39  1  0
 19 40  1  0
 19 41  1  0
 20 42  1  0
 21 43  1  0
 22 44  1  0
 22 45  1  0
 24 46  1  0
 25 47  1  0
 26 48  1  0
 27 49  1  0
M  CHG  1   4  -1
M  END
>  <UniqueID>  (87) 
84

>  <SMILES>  (87) 
O=C(C[N-]C(=O)c1cccc(S(=O)(=O)N2CCCC2)c1)NCc1ccccn1

>  <Energy>  (87) 
50.73604091645977

>  <Genealogy>  (87) 
O=C(C[N-]C(=O)c1cccc(S(=O)(=O)N2CCCC2)c1)NCc1ccccn1 (protonated)
O=C(C[N-]C(=O)c1cccc(S(=O)(=O)N2CCCC2)c1)NCc1ccccn1 (3D coordinates assigned)
O=C(C[N-]C(=O)c1cccc(S(=O)(=O)N2CCCC2)c1)NCc1ccccn1 (nonaromatic ring conformer: 50.73604091645977 kcal/mol)

>  <smiles>  (87) 
O=C(CNC(=O)c1cccc(S(=O)(=O)N2CCCC2)c1)NCc1ccccn1

>  <score_type>  (87) 
oracle

>  <origin>  (87) 
adg

>  <m_score__min__energy>  (87) 
-11.67

>  <m_primary>  (87) 
energy

$$$$
87:0
     RDKit          3D

 40 42  0  0  0  0  0  0  0  0999 V2000
   54.9720   26.3360   45.9850 O   0  0  0  0  0  0  0  0  0  0  0  0
   55.8040   25.3930   46.0410 C   0  0  0  0  0  0  0  0  0  0  0  0
   56.6490   25.0660   44.8390 C   0  0  0  0  0  0  0  0  0  0  0  0
   57.8520   24.2670   45.1780 N   0  0  1  0  0  0  0  0  0  0  0  0
   58.9310   25.0890   45.7050 C   0  0  0  0  0  0  0  0  0  0  0  0
   60.0560   24.5640   45.9430 O   0  0  0  0  0  0  0  0  0  0  0  0
   58.7660   26.5550   45.9430 C   0  0  0  0  0  0  0  0  0  0  0  0
   58.6730   27.0340   47.2620 C   0  0  0  0  0  0  0  0  0  0  0  0
   58.5140   28.3990   47.4960 C   0  0  0  0  0  0  0  0  0  0  0  0
   58.4690   29.2700   46.4570 N   0  0  0  0  0  0  0  0  0  0  0  0
   58.5780   28.8620   45.1650 C   0  0  0  0  0  0  0  0  0  0  0  0
   58.5270   29.7640   44.2250 N   0  0  0  0  0  0  0  0  0  0  0  0
   57.3610   30.4660   43.7740 C   0  0  0  0  0  0  0  0  0  0  0  0
   55.8950   29.8240   44.1180 S   0  0  0  0  0  0  0  0  0  0  0  0
   57.4480   31.9360   43.4650 C   0  0  0  0  0  0  0  0  0  0  0  0
   57.8830   32.6970   44.6800 C   0  0  0  0  0  0  0  0  0  0  0  0
   57.7710   34.0620   44.8580 C   0  0  0  0  0  0  0  0  0  0  0  0
   58.2290   34.3210   46.1340 C   0  0  0  0  0  0  0  0  0  0  0  0
   58.5920   33.1050   46.6790 C   0  0  0  0  0  0  0  0  0  0  0  0
   58.3740   32.1180   45.7910 N   0  0  0  0  0  0  0  0  0  0  0  0
   58.7100   27.4850   44.8870 C   0  0  0  0  0  0  0  0  0  0  0  0
   57.5280   23.1430   46.0870 C   0  0  0  0  0  0  0  0  0  0  0  0
   56.9470   23.6240   47.4250 C   0  0  0  0  0  0  0  0  0  0  0  0
   55.8650   24.5750   47.2090 N   0  0  0  0  0  0  0  0  0  0  0  0
   56.0376   24.4941   44.1255 H   0  0  0  0  0  0  0  0  0  0  0  0
   56.9955   26.0181   44.4107 H   0  0  0  0  0  0  0  0  0  0  0  0
   58.1710   23.8580   44.2690 H   0  0  0  0  0  0  0  0  0  0  0  0
   58.7256   26.3326   48.1077 H   0  0  0  0  0  0  0  0  0  0  0  0
   58.4247   28.7713   48.5272 H   0  0  0  0  0  0  0  0  0  0  0  0
   58.1773   32.0946   42.6569 H   0  0  0  0  0  0  0  0  0  0  0  0
   56.4564   32.2957   43.1530 H   0  0  0  0  0  0  0  0  0  0  0  0
   57.3931   34.7948   44.1299 H   0  0  0  0  0  0  0  0  0  0  0  0
   58.2926   35.3048   46.6220 H   0  0  0  0  0  0  0  0  0  0  0  0
   58.9997   32.9641   47.6909 H   0  0  0  0  0  0  0  0  0  0  0  0
   58.5440   31.0990   45.9440 H   0  0  0  0  0  0  0  0  0  0  0  0
   58.7692   27.1378   43.8449 H   0  0  0  0  0  0  0  0  0  0  0  0
   56.7908   22.4915   45.5951 H   0  0  0  0  0  0  0  0  0  0  0  0
   58.4622   22.6030   46.3006 H   0  0  0  0  0  0  0  0  0  0  0  0
   56.5597   22.7580   47.9818 H   0  0  0  0  0  0  0  0  0  0  0  0
   57.7444   24.1220   47.9961 H   0  0  0  0  0  0  0  0  0  0  0  0
  1  2  2  0
  2  3  1  0
  3  4  1  0
  4  5  1  0
  5  6  2  0
  5  7  1  0
  7  8  1  0
  8  9  2  0
  9 10  1  0
 10 11  1  0
 11 12  2  3
 12 13  1  0
 13 14  2  0
 13 15  1  0
 15 16  1  0
 16 17  2  0
 17 18  1  0
 18 19  2  0
 19 20  1  0
 11 21  1  0
  4 22  1  0
 22 23  1  0
 23 24  1  0
 24  2  1  0
 21  7  2  0
 20 16  1  0
  3 25  1  0
  3 26  1  0
  4 27  1  6
  8 28  1  0
  9 29  1  0
 15 30  1  0
 15 31  1  0
 17 32  1  0
 18 33  1  0
 19 34  1  0
 20 35  1  0
 21 36  1  0
 22 37  1  0
 22 38  1  0
 23 39  1  0
 23 40  1  0
M  CHG  3   4   1  10  -1  24  -1
M  END
>  <UniqueID>  (88) 
85

>  <SMILES>  (88) 
O=C1C[N@@H+](C(=O)c2cc[n-]c(=NC(=S)Cc3ccc[nH]3)c2)CC[N-]1

>  <Energy>  (88) 
81.92219624835623

>  <Genealogy>  (88) 
O=C1C[NH+](C(=O)c2cc[n-]c(=NC(=S)Cc3ccc[nH]3)c2)CC[N-]1 (protonated)
O=C1C[N@@H+](C(=O)c2cc[n-]c(=NC(=S)Cc3ccc[nH]3)c2)CC[N-]1 (chirality)
O=C1C[N@@H+](C(=O)c2cc[n-]c(=NC(=S)Cc3ccc[nH]3)c2)CC[N-]1 (3D coordinates assigned)
O=C1C[N@@H+](C(=O)c2cc[n-]c(=NC(=S)Cc3ccc[nH]3)c2)CC[N-]1 (nonaromatic ring conformer: 81.92219624835623 kcal/mol)

>  <smiles>  (88) 
O=C1CN(C(=O)c2cc[nH]c(=NC(=S)Cc3ccc[nH]3)c2)CCN1

>  <score_type>  (88) 
oracle

>  <origin>  (88) 
adg

>  <m_score__min__energy>  (88) 
-8.9600000000000009

>  <m_primary>  (88) 
energy

$$$$
88:0
     RDKit          3D

 37 39  0  0  0  0  0  0  0  0999 V2000
   60.6650   26.2540   46.7090 C   0  0  0  0  0  0  0  0  0  0  0  0
   60.0070   27.4100   46.8440 C   0  0  0  0  0  0  0  0  0  0  0  0
   60.5600   28.4730   47.4650 N   0  0  0  0  0  0  0  0  0  0  0  0
   59.7330   29.5190   47.2770 C   0  0  0  0  0  0  0  0  0  0  0  0
   59.9470   30.8780   47.8140 C   0  0  0  0  0  0  0  0  0  0  0  0
   61.0150   31.4810   47.5250 O   0  0  0  0  0  0  0  0  0  0  0  0
   59.0140   31.5230   48.6910 N   0  0  0  0  0  0  0  0  0  0  0  0
   58.1420   32.6360   48.3370 C   0  0  0  0  0  0  0  0  0  0  0  0
   58.4080   33.0370   46.9140 C   0  0  0  0  0  0  0  0  0  0  0  0
   59.0920   34.2290   46.6290 C   0  0  0  0  0  0  0  0  0  0  0  0
   59.3080   34.6170   45.3040 C   0  0  0  0  0  0  0  0  0  0  0  0
   58.8330   33.8250   44.2550 C   0  0  0  0  0  0  0  0  0  0  0  0
   58.1370   32.6440   44.5300 C   0  0  0  0  0  0  0  0  0  0  0  0
   57.5310   31.6570   43.2120 Cl  0  0  0  0  0  0  0  0  0  0  0  0
   57.9190   32.2530   45.8550 C   0  0  0  0  0  0  0  0  0  0  0  0
   58.6210   29.1270   46.5580 C   0  0  0  0  0  0  0  0  0  0  0  0
   58.7690   27.7730   46.2970 C   0  0  0  0  0  0  0  0  0  0  0  0
   57.8350   27.0460   45.6550 C   0  0  0  0  0  0  0  0  0  0  0  0
   57.2200   25.8080   46.1610 C   0  0  0  0  0  0  0  0  0  0  0  0
   57.9100   24.7600   46.6470 N   0  0  0  0  0  0  0  0  0  0  0  0
   56.9460   23.9400   47.1160 C   0  0  0  0  0  0  0  0  0  0  0  0
   57.2000   22.8270   47.6450 O   0  0  0  0  0  0  0  0  0  0  0  0
   55.6880   24.4130   46.9840 N   0  0  0  0  0  0  0  0  0  0  0  0
   55.8770   25.6020   46.3900 C   0  0  0  0  0  0  0  0  0  0  0  0
   54.8410   26.4730   46.0680 O   0  0  0  0  0  0  0  0  0  0  0  0
   60.1870   25.4055   46.1976 H   0  0  0  0  0  0  0  0  0  0  0  0
   61.6844   26.1514   47.1093 H   0  0  0  0  0  0  0  0  0  0  0  0
   61.4600   28.4740   47.9940 H   0  0  0  0  0  0  0  0  0  0  0  0
   57.0912   32.3284   48.4425 H   0  0  0  0  0  0  0  0  0  0  0  0
   58.3394   33.4877   49.0046 H   0  0  0  0  0  0  0  0  0  0  0  0
   59.4594   34.8601   47.4516 H   0  0  0  0  0  0  0  0  0  0  0  0
   59.8529   35.5474   45.0863 H   0  0  0  0  0  0  0  0  0  0  0  0
   59.0068   34.1309   43.2128 H   0  0  0  0  0  0  0  0  0  0  0  0
   57.3628   31.3285   46.0691 H   0  0  0  0  0  0  0  0  0  0  0  0
   57.7797   29.7658   46.2513 H   0  0  0  0  0  0  0  0  0  0  0  0
   57.5039   27.4074   44.6702 H   0  0  0  0  0  0  0  0  0  0  0  0
   54.1160   26.7000   46.7380 H   0  0  0  0  0  0  0  0  0  0  0  0
  1  2  2  0
  2  3  1  0
  3  4  1  0
  4  5  1  0
  5  6  2  0
  5  7  1  0
  7  8  1  0
  8  9  1  0
  9 10  2  0
 10 11  1  0
 11 12  2  0
 12 13  1  0
 13 14  1  0
 13 15  2  0
  4 16  2  0
 16 17  1  0
 17 18  2  3
 18 19  1  0
 19 20  1  0
 20 21  1  0
 21 22  2  0
 21 23  1  0
 23 24  1  0
 24 25  1  0
 17  2  1  0
 24 19  2  0
 15  9  1  0
  1 26  1  0
  1 27  1  0
  3 28  1  0
  8 29  1  0
  8 30  1  0
 10 31  1  0
 11 32  1  0
 12 33  1  0
 15 34  1  0
 16 35  1  0
 18 36  1  0
 25 37  1  0
M  CHG  3   7  -1  20  -1  23  -1
M  END
>  <UniqueID>  (89) 
86

>  <SMILES>  (89) 
C=c1[nH]c(C(=O)[N-]Cc2cccc(Cl)c2)cc1=Cc1[n-]c(=O)[n-]c1O

>  <Energy>  (89) 
107.56693626103927

>  <Genealogy>  (89) 
C=c1[nH]c(C(=O)[N-]Cc2cccc(Cl)c2)cc1=Cc1[n-]c(=O)[n-]c1O (protonated)
C=c1[nH]c(C(=O)[N-]Cc2cccc(Cl)c2)cc1=Cc1[n-]c(=O)[n-]c1O (3D coordinates assigned)
C=c1[nH]c(C(=O)[N-]Cc2cccc(Cl)c2)cc1=Cc1[n-]c(=O)[n-]c1O (optimized conformer: 107.56693626103927 kcal/mol)

>  <smiles>  (89) 
C=c1[nH]c(C(=O)NCc2cccc(Cl)c2)cc1=Cc1[nH]c(=O)[nH]c1O

>  <score_type>  (89) 
oracle

>  <origin>  (89) 
adg

>  <m_score__min__energy>  (89) 
-14.380000000000001

>  <m_primary>  (89) 
energy

$$$$
89:0
     RDKit          3D

 43 45  0  0  0  0  0  0  0  0999 V2000
   59.6550   33.6490   49.8470 C   0  0  0  0  0  0  0  0  0  0  0  0
   59.9170   32.1740   49.7790 C   0  0  0  0  0  0  0  0  0  0  0  0
   61.2350   31.6920   49.7380 C   0  0  0  0  0  0  0  0  0  0  0  0
   61.4800   30.3190   49.6370 C   0  0  0  0  0  0  0  0  0  0  0  0
   60.4120   29.4120   49.5730 C   0  0  0  0  0  0  0  0  0  0  0  0
   60.6760   27.9410   49.4230 C   0  0  0  0  0  0  0  0  0  0  0  0
   59.7360   27.3790   48.4630 N   0  0  0  0  0  0  0  0  0  0  0  0
   59.7440   27.7240   47.0740 C   0  0  0  0  0  0  0  0  0  0  0  0
   60.8140   27.6310   46.4120 O   0  0  0  0  0  0  0  0  0  0  0  0
   58.4940   28.1720   46.4110 C   0  0  0  0  0  0  0  0  0  0  0  0
   58.4000   29.4340   45.7840 C   0  0  0  0  0  0  0  0  0  0  0  0
   59.4640   30.3970   45.8820 N   0  0  0  0  0  0  0  0  0  0  0  0
   59.2440   31.8150   45.9910 C   0  0  0  0  0  0  0  0  0  0  0  0
   60.2730   32.6370   46.4770 C   0  0  0  0  0  0  0  0  0  0  0  0
   60.0880   34.0200   46.5730 C   0  0  0  0  0  0  0  0  0  0  0  0
   58.8790   34.5940   46.1740 C   0  0  0  0  0  0  0  0  0  0  0  0
   57.8520   33.7910   45.6690 C   0  0  0  0  0  0  0  0  0  0  0  0
   56.6570   34.3790   45.2610 O   0  0  0  0  0  0  0  0  0  0  0  0
   58.0360   32.4040   45.5720 C   0  0  0  0  0  0  0  0  0  0  0  0
   57.2480   29.7820   45.1530 N   0  0  0  0  0  0  0  0  0  0  0  0
   56.1820   28.9470   45.0990 C   0  0  0  0  0  0  0  0  0  0  0  0
   55.1370   29.3110   44.4970 O   0  0  0  0  0  0  0  0  0  0  0  0
   56.2390   27.7270   45.6990 N   0  0  0  0  0  0  0  0  0  0  0  0
   55.1480   26.8890   45.6410 O   0  0  0  0  0  0  0  0  0  0  0  0
   57.3680   27.3240   46.3480 C   0  0  0  0  0  0  0  0  0  0  0  0
   57.4020   26.1780   46.8740 O   0  0  0  0  0  0  0  0  0  0  0  0
   59.0950   29.8970   49.5790 C   0  0  0  0  0  0  0  0  0  0  0  0
   58.8500   31.2690   49.6800 C   0  0  0  0  0  0  0  0  0  0  0  0
   59.5992   33.9633   50.8997 H   0  0  0  0  0  0  0  0  0  0  0  0
   60.4711   34.1899   49.3456 H   0  0  0  0  0  0  0  0  0  0  0  0
   58.7025   33.8757   49.3456 H   0  0  0  0  0  0  0  0  0  0  0  0
   62.0780   32.3970   49.7855 H   0  0  0  0  0  0  0  0  0  0  0  0
   62.5153   29.9485   49.6076 H   0  0  0  0  0  0  0  0  0  0  0  0
   61.7043   27.7869   49.0639 H   0  0  0  0  0  0  0  0  0  0  0  0
   60.5513   27.4430   50.3959 H   0  0  0  0  0  0  0  0  0  0  0  0
   60.4400   30.0440   45.9990 H   0  0  0  0  0  0  0  0  0  0  0  0
   61.2304   32.1908   46.7841 H   0  0  0  0  0  0  0  0  0  0  0  0
   60.8958   34.6564   46.9633 H   0  0  0  0  0  0  0  0  0  0  0  0
   58.7343   35.6813   46.2573 H   0  0  0  0  0  0  0  0  0  0  0  0
   56.0080   34.7770   45.9300 H   0  0  0  0  0  0  0  0  0  0  0  0
   57.2317   31.7728   45.1662 H   0  0  0  0  0  0  0  0  0  0  0  0
   58.2522   29.1942   49.5039 H   0  0  0  0  0  0  0  0  0  0  0  0
   57.8149   31.6412   49.6819 H   0  0  0  0  0  0  0  0  0  0  0  0
  1  2  1  0
  2  3  2  0
  3  4  1  0
  4  5  2  0
  5  6  1  0
  6  7  1  0
  7  8  1  0
  8  9  2  0
  8 10  1  0
 10 11  2  0
 11 12  1  0
 12 13  1  0
 13 14  2  0
 14 15  1  0
 15 16  2  0
 16 17  1  0
 17 18  1  0
 17 19  2  0
 11 20  1  0
 20 21  1  0
 21 22  2  0
 21 23  1  0
 23 24  1  0
 23 25  1  0
 25 26  2  0
  5 27  1  0
 27 28  2  0
 28  2  1  0
 25 10  1  0
 19 13  1  0
  1 29  1  0
  1 30  1  0
  1 31  1  0
  3 32  1  0
  4 33  1  0
  6 34  1  0
  6 35  1  0
 12 36  1  0
 14 37  1  0
 15 38  1  0
 16 39  1  0
 18 40  1  0
 19 41  1  0
 27 42  1  0
 28 43  1  0
M  CHG  3   7  -1  20  -1  24  -1
M  END
>  <UniqueID>  (90) 
87

>  <SMILES>  (90) 
Cc1ccc(C[N-]C(=O)c2c(Nc3cccc(O)c3)[n-]c(=O)n([O-])c2=O)cc1

>  <Energy>  (90) 
53.60795560145573

>  <Genealogy>  (90) 
Cc1ccc(C[N-]C(=O)c2c(Nc3cccc(O)c3)[n-]c(=O)n([O-])c2=O)cc1 (protonated)
Cc1ccc(C[N-]C(=O)c2c(Nc3cccc(O)c3)[n-]c(=O)n([O-])c2=O)cc1 (3D coordinates assigned)
Cc1ccc(C[N-]C(=O)c2c(Nc3cccc(O)c3)[n-]c(=O)n([O-])c2=O)cc1 (optimized conformer: 53.60795560145573 kcal/mol)

>  <smiles>  (90) 
Cc1ccc(CNC(=O)c2c(Nc3cccc(O)c3)[nH]c(=O)n(O)c2=O)cc1

>  <score_type>  (90) 
oracle

>  <origin>  (90) 
adg

>  <m_score__min__energy>  (90) 
-14.619999999999999

>  <m_primary>  (90) 
energy

$$$$
90:0
     RDKit          3D

 58 61  0  0  0  0  0  0  0  0999 V2000
   56.3910   22.7560   47.6310 H   0  0  0  0  0  0  0  0  0  0  0  0
   57.0020   22.7620   48.4130 O   0  0  0  0  0  0  0  0  0  0  0  0
   56.3190   22.1400   49.4650 C   0  0  0  0  0  0  0  0  0  0  0  0
   55.5539   22.8256   49.8583 H   0  0  0  0  0  0  0  0  0  0  0  0
   57.0356   21.8848   50.2596 H   0  0  0  0  0  0  0  0  0  0  0  0
   55.6440   20.8590   48.9670 C   0  0  0  0  0  0  0  0  0  0  0  0
   54.5525   20.9742   49.0404 H   0  0  0  0  0  0  0  0  0  0  0  0
   55.9821   20.0169   49.5888 H   0  0  0  0  0  0  0  0  0  0  0  0
   56.0100   20.5870   47.5590 N   0  0  0  0  0  0  0  0  0  0  0  0
   57.2780   19.8430   47.4670 C   0  0  0  0  0  0  0  0  0  0  0  0
   57.1237   18.8129   47.8206 H   0  0  0  0  0  0  0  0  0  0  0  0
   58.0365   20.3387   48.0906 H   0  0  0  0  0  0  0  0  0  0  0  0
   57.7600   19.8150   46.0060 C   0  0  0  0  0  0  0  0  0  0  0  0
   58.4229   18.9469   45.8753 H   0  0  0  0  0  0  0  0  0  0  0  0
   58.2761   20.7682   45.8188 H   0  0  0  0  0  0  0  0  0  0  0  0
   56.6550   19.7160   45.0150 N   0  0  0  0  0  0  0  0  0  0  0  0
   56.9680   19.0120   44.3020 H   0  0  0  0  0  0  0  0  0  0  0  0
   56.4430   20.9520   44.2810 C   0  0  0  0  0  0  0  0  0  0  0  0
   56.2610   20.9050   43.0350 O   0  0  0  0  0  0  0  0  0  0  0  0
   56.3890   22.2730   44.9380 C   0  0  0  0  0  0  0  0  0  0  0  0
   55.2200   22.7330   45.5540 C   0  0  0  0  0  0  0  0  0  0  0  0
   54.3155   22.1070   45.5542 H   0  0  0  0  0  0  0  0  0  0  0  0
   55.2020   23.9530   46.1520 N   0  0  0  0  0  0  0  0  0  0  0  0
   56.3040   24.7520   46.2050 C   0  0  0  0  0  0  0  0  0  0  0  0
   56.2600   25.9270   46.7630 N   0  0  0  0  0  0  0  0  0  0  0  0
   57.0440   27.0780   46.4020 C   0  0  0  0  0  0  0  0  0  0  0  0
   57.7770   27.6050   47.2760 O   0  0  0  0  0  0  0  0  0  0  0  0
   57.0270   27.6380   45.0840 N   0  0  0  0  0  0  0  0  0  0  0  0
   56.8900   28.9010   44.8170 C   0  0  0  0  0  0  0  0  0  0  0  0
   55.6980   29.5140   44.6390 N   0  0  0  0  0  0  0  0  0  0  0  0
   55.8540   30.8390   44.3850 C   0  0  0  0  0  0  0  0  0  0  0  0
   55.0035   31.5159   44.2166 H   0  0  0  0  0  0  0  0  0  0  0  0
   57.1750   31.2710   44.3550 C   0  0  0  0  0  0  0  0  0  0  0  0
   57.6300   32.6830   44.1570 C   0  0  0  0  0  0  0  0  0  0  0  0
   58.2740   32.7358   43.2668 H   0  0  0  0  0  0  0  0  0  0  0  0
   56.7494   33.3283   44.0223 H   0  0  0  0  0  0  0  0  0  0  0  0
   58.4040   33.1530   45.3590 C   0  0  0  0  0  0  0  0  0  0  0  0
   58.1630   32.5920   46.6210 C   0  0  0  0  0  0  0  0  0  0  0  0
   57.3988   31.8092   46.7365 H   0  0  0  0  0  0  0  0  0  0  0  0
   58.8900   33.0240   47.7310 C   0  0  0  0  0  0  0  0  0  0  0  0
   58.6898   32.5881   48.7209 H   0  0  0  0  0  0  0  0  0  0  0  0
   59.8730   34.0100   47.5890 C   0  0  0  0  0  0  0  0  0  0  0  0
   60.7800   34.5530   48.9870 Cl  0  0  0  0  0  0  0  0  0  0  0  0
   60.1330   34.5550   46.3340 C   0  0  0  0  0  0  0  0  0  0  0  0
   60.9121   35.3230   46.2190 H   0  0  0  0  0  0  0  0  0  0  0  0
   59.4050   34.1270   45.2210 C   0  0  0  0  0  0  0  0  0  0  0  0
   59.6176   34.5560   44.2307 H   0  0  0  0  0  0  0  0  0  0  0  0
   58.1830   29.9610   44.6840 S   0  0  0  0  0  0  0  0  0  0  0  0
   57.4980   24.3120   45.6250 C   0  0  0  0  0  0  0  0  0  0  0  0
   58.3973   24.9443   45.6618 H   0  0  0  0  0  0  0  0  0  0  0  0
   57.5410   23.0670   45.0000 C   0  0  0  0  0  0  0  0  0  0  0  0
   58.4806   22.7077   44.5550 H   0  0  0  0  0  0  0  0  0  0  0  0
   55.3960   19.1620   45.5660 C   0  0  0  0  0  0  0  0  0  0  0  0
   55.5470   18.0905   45.7637 H   0  0  0  0  0  0  0  0  0  0  0  0
   54.6119   19.3484   44.8174 H   0  0  0  0  0  0  0  0  0  0  0  0
   54.9310   19.8390   46.8800 C   0  0  0  0  0  0  0  0  0  0  0  0
   54.5609   19.0604   47.5633 H   0  0  0  0  0  0  0  0  0  0  0  0
   54.1453   20.5624   46.6166 H   0  0  0  0  0  0  0  0  0  0  0  0
  1  2  1  0
  2  3  1  0
  3  4  1  0
  3  5  1  0
  3  6  1  0
  6  7  1  0
  6  8  1  0
  6  9  1  0
  9 10  1  0
 10 11  1  0
 10 12  1  0
 10 13  1  0
 13 14  1  0
 13 15  1  0
 13 16  1  0
 16 17  1  0
 16 18  1  0
 18 19  2  0
 18 20  1  0
 20 21  2  0
 21 22  1  0
 21 23  1  0
 23 24  1  0
 24 25  2  0
 25 26  1  0
 26 27  2  0
 26 28  1  0
 28 29  2  3
 29 30  1  0
 30 31  1  0
 31 32  1  0
 31 33  2  0
 33 34  1  0
 34 35  1  0
 34 36  1  0
 34 37  1  0
 37 38  2  0
 38 39  1  0
 38 40  1  0
 40 41  1  0
 40 42  2  0
 42 43  1  0
 42 44  1  0
 44 45  1  0
 44 46  2  0
 46 47  1  0
 33 48  1  0
 24 49  1  0
 49 50  1  0
 49 51  2  0
 51 52  1  0
 16 53  1  0
 53 54  1  0
 53 55  1  0
 53 56  1  0
 56 57  1  0
 56 58  1  0
 56  9  1  0
 51 20  1  0
 48 29  1  0
 46 37  1  0
M  CHG  3  16   1  23  -1  30  -1
M  END
>  <UniqueID>  (91) 
88

>  <SMILES>  (91) 
O=C(N=c1[n-]cc(Cc2ccc(Cl)cc2)s1)/N=c1/ccc(C(=O)[NH+]2CCN(CCO)CC2)c[n-]1

>  <Energy>  (91) 
118.1510782145166

>  <Genealogy>  (91) 
O=C(N=c1ccc(C(=O)[NH+]2CCN(CCO)CC2)c[n-]1)N=c1[n-]cc(Cc2ccc(Cl)cc2)s1 (protonated)
O=C(N=c1[n-]cc(Cc2ccc(Cl)cc2)s1)/N=c1/ccc(C(=O)[NH+]2CCN(CCO)CC2)c[n-]1 (cis-trans isomerization)
O=C(N=c1[n-]cc(Cc2ccc(Cl)cc2)s1)/N=c1/ccc(C(=O)[NH+]2CCN(CCO)CC2)c[n-]1 (3D coordinates assigned)
O=C(N=c1[n-]cc(Cc2ccc(Cl)cc2)s1)/N=c1/ccc(C(=O)[NH+]2CCN(CCO)CC2)c[n-]1 (nonaromatic ring conformer: 118.1510782145166 kcal/mol)

>  <smiles>  (91) 
O=C(N=c1ccc(C(=O)N2CCN(CCO)CC2)c[nH]1)N=c1[nH]cc(Cc2ccc(Cl)cc2)s1

>  <score_type>  (91) 
oracle

>  <origin>  (91) 
adg

>  <m_score__min__energy>  (91) 
-11.52

>  <m_primary>  (91) 
energy

$$$$
91:0
     RDKit          3D

 48 50  0  0  0  0  0  0  0  0999 V2000
   55.5490   28.7150   45.2440 N   0  0  0  0  0  0  0  0  0  0  0  0
   55.6770   29.4780   44.0430 C   0  0  0  0  0  0  0  0  0  0  0  0
   54.6620   29.7070   43.3300 O   0  0  0  0  0  0  0  0  0  0  0  0
   57.0130   30.0110   43.6340 C   0  0  0  0  0  0  0  0  0  0  0  0
   57.5710   31.3040   44.7940 S   0  0  0  0  0  0  0  0  0  0  0  0
   58.5430   30.1890   45.8120 C   0  0  0  0  0  0  0  0  0  0  0  0
   58.4110   28.8050   45.6540 C   0  0  0  0  0  0  0  0  0  0  0  0
   59.1910   27.9260   46.4150 C   0  0  0  0  0  0  0  0  0  0  0  0
   59.0200   26.5080   46.2540 N   0  0  0  0  0  0  0  0  0  0  0  0
   57.7430   25.8760   46.0590 C   0  0  0  0  0  0  0  0  0  0  0  0
   56.7020   26.4140   46.5210 O   0  0  0  0  0  0  0  0  0  0  0  0
   57.6380   24.5920   45.3250 C   0  0  0  0  0  0  0  0  0  0  0  0
   56.6820   24.4320   44.3040 C   0  0  0  0  0  0  0  0  0  0  0  0
   56.6090   23.2370   43.5820 C   0  0  0  0  0  0  0  0  0  0  0  0
   57.5010   22.1970   43.8590 C   0  0  0  0  0  0  0  0  0  0  0  0
   58.4510   22.3410   44.8720 C   0  0  0  0  0  0  0  0  0  0  0  0
   58.5210   23.5300   45.6040 C   0  0  0  0  0  0  0  0  0  0  0  0
   60.0840   28.4500   47.3660 C   0  0  0  0  0  0  0  0  0  0  0  0
   60.2000   29.8390   47.5560 C   0  0  0  0  0  0  0  0  0  0  0  0
   61.1180   30.3850   48.5830 C   0  0  0  0  0  0  0  0  0  0  0  0
   61.2120   29.8150   49.7050 O   0  0  0  0  0  0  0  0  0  0  0  0
   61.9000   31.5640   48.3310 N   0  0  0  0  0  0  0  0  0  0  0  0
   61.6550   32.7420   49.1720 C   0  0  0  0  0  0  0  0  0  0  0  0
   62.6860   33.8420   48.9200 C   0  0  0  0  0  0  0  0  0  0  0  0
   62.9390   33.9740   47.5380 O   0  0  0  0  0  0  0  0  0  0  0  0
   63.6720   32.8520   47.1000 C   0  0  0  0  0  0  0  0  0  0  0  0
   62.8430   31.5580   47.1970 C   0  0  0  0  0  0  0  0  0  0  0  0
   59.4430   30.7050   46.7500 C   0  0  0  0  0  0  0  0  0  0  0  0
   55.5290   27.6710   45.2120 H   0  0  0  0  0  0  0  0  0  0  0  0
   57.7442   29.1892   43.6297 H   0  0  0  0  0  0  0  0  0  0  0  0
   56.9273   30.4494   42.6288 H   0  0  0  0  0  0  0  0  0  0  0  0
   57.6893   28.4047   44.9267 H   0  0  0  0  0  0  0  0  0  0  0  0
   59.8570   25.8930   46.3680 H   0  0  0  0  0  0  0  0  0  0  0  0
   55.9875   25.2531   44.0727 H   0  0  0  0  0  0  0  0  0  0  0  0
   55.8494   23.1151   42.7957 H   0  0  0  0  0  0  0  0  0  0  0  0
   57.4544   21.2640   43.2782 H   0  0  0  0  0  0  0  0  0  0  0  0
   59.1455   21.5175   45.0945 H   0  0  0  0  0  0  0  0  0  0  0  0
   59.2699   23.6371   46.4025 H   0  0  0  0  0  0  0  0  0  0  0  0
   60.6993   27.7658   47.9687 H   0  0  0  0  0  0  0  0  0  0  0  0
   60.6522   33.1359   48.9501 H   0  0  0  0  0  0  0  0  0  0  0  0
   61.7337   32.4335   50.2249 H   0  0  0  0  0  0  0  0  0  0  0  0
   62.3009   34.7956   49.3104 H   0  0  0  0  0  0  0  0  0  0  0  0
   63.6235   33.5749   49.4297 H   0  0  0  0  0  0  0  0  0  0  0  0
   63.9696   33.0072   46.0525 H   0  0  0  0  0  0  0  0  0  0  0  0
   64.5542   32.7439   47.7481 H   0  0  0  0  0  0  0  0  0  0  0  0
   62.2708   31.4371   46.2654 H   0  0  0  0  0  0  0  0  0  0  0  0
   63.5458   30.7270   47.3566 H   0  0  0  0  0  0  0  0  0  0  0  0
   59.5585   31.7937   46.8569 H   0  0  0  0  0  0  0  0  0  0  0  0
  1  2  1  0
  2  3  2  0
  2  4  1  0
  4  5  1  0
  5  6  1  0
  6  7  2  0
  7  8  1  0
  8  9  1  0
  9 10  1  0
 10 11  2  0
 10 12  1  0
 12 13  2  0
 13 14  1  0
 14 15  2  0
 15 16  1  0
 16 17  2  0
  8 18  2  0
 18 19  1  0
 19 20  1  0
 20 21  2  0
 20 22  1  0
 22 23  1  0
 23 24  1  0
 24 25  1  0
 25 26  1  0
 26 27  1  0
 19 28  2  0
 28  6  1  0
 17 12  1  0
 27 22  1  0
  1 29  1  0
  4 30  1  0
  4 31  1  0
  7 32  1  0
  9 33  1  0
 13 34  1  0
 14 35  1  0
 15 36  1  0
 16 37  1  0
 17 38  1  0
 18 39  1  0
 23 40  1  0
 23 41  1  0
 24 42  1  0
 24 43  1  0
 26 44  1  0
 26 45  1  0
 27 46  1  0
 27 47  1  0
 28 48  1  0
M  CHG  1   1  -1
M  END
>  <UniqueID>  (92) 
89

>  <SMILES>  (92) 
[NH-]C(=O)CSc1cc(NC(=O)c2ccccc2)cc(C(=O)N2CCOCC2)c1

>  <Energy>  (92) 
57.844823936515134

>  <Genealogy>  (92) 
[NH-]C(=O)CSc1cc(NC(=O)c2ccccc2)cc(C(=O)N2CCOCC2)c1 (protonated)
[NH-]C(=O)CSc1cc(NC(=O)c2ccccc2)cc(C(=O)N2CCOCC2)c1 (3D coordinates assigned)
[NH-]C(=O)CSc1cc(NC(=O)c2ccccc2)cc(C(=O)N2CCOCC2)c1 (nonaromatic ring conformer: 57.844823936515134 kcal/mol)

>  <smiles>  (92) 
NC(=O)CSc1cc(NC(=O)c2ccccc2)cc(C(=O)N2CCOCC2)c1

>  <score_type>  (92) 
oracle

>  <origin>  (92) 
adg

>  <m_score__min__energy>  (92) 
-11.83

>  <m_primary>  (92) 
energy

$$$$
92:0
     RDKit          3D

 54 56  0  0  0  0  0  0  0  0999 V2000
   60.6750   27.4060   48.6560 C   0  0  0  0  0  0  0  0  0  0  0  0
   59.8800   27.1160   47.0890 S   0  0  0  0  0  0  0  0  0  0  0  0
   60.9100   27.2860   46.0070 O   0  0  0  0  0  0  0  0  0  0  0  0
   59.3680   25.7040   47.0560 O   0  0  0  0  0  0  0  0  0  0  0  0
   58.5860   28.2730   46.8460 N   0  0  0  0  0  0  0  0  0  0  0  0
   57.3760   27.6810   46.2430 C   0  0  0  0  0  0  0  0  0  0  0  0
   57.5030   27.4280   44.7320 C   0  0  0  0  0  0  0  0  0  0  0  0
   58.0750   28.6220   43.9400 C   0  0  0  0  0  0  0  0  0  0  0  0
   57.0320   29.6170   43.4630 C   0  0  0  0  0  0  0  0  0  0  0  0
   56.6390   29.5430   42.2670 O   0  0  0  0  0  0  0  0  0  0  0  0
   56.4560   30.6740   44.3170 C   0  0  0  0  0  0  0  0  0  0  0  0
   55.3340   30.4780   44.8560 O   0  0  0  0  0  0  0  0  0  0  0  0
   57.1840   31.8910   44.5920 N   0  0  0  0  0  0  0  0  0  0  0  0
   58.2670   32.3080   43.6860 C   0  0  0  0  0  0  0  0  0  0  0  0
   58.8690   33.6420   44.1160 C   0  0  0  0  0  0  0  0  0  0  0  0
   59.0740   33.6070   45.5730 N   0  0  0  0  0  0  0  0  0  0  0  0
   59.9510   34.7080   46.0190 C   0  0  0  0  0  0  0  0  0  0  0  0
   61.0330   34.1820   46.9260 C   0  0  0  0  0  0  0  0  0  0  0  0
   60.8060   34.0410   48.3050 C   0  0  0  0  0  0  0  0  0  0  0  0
   61.8220   33.5660   49.1410 C   0  0  0  0  0  0  0  0  0  0  0  0
   63.0690   33.2300   48.6060 C   0  0  0  0  0  0  0  0  0  0  0  0
   63.3030   33.3700   47.2360 C   0  0  0  0  0  0  0  0  0  0  0  0
   62.2890   33.8460   46.3970 C   0  0  0  0  0  0  0  0  0  0  0  0
   57.7760   33.6570   46.2830 C   0  0  0  0  0  0  0  0  0  0  0  0
   56.6610   32.8340   45.5950 C   0  0  0  0  0  0  0  0  0  0  0  0
   59.2600   29.2950   44.6540 C   0  0  0  0  0  0  0  0  0  0  0  0
   59.0310   29.4980   46.1580 C   0  0  0  0  0  0  0  0  0  0  0  0
   59.9814   27.1530   49.4714 H   0  0  0  0  0  0  0  0  0  0  0  0
   61.5751   26.7783   48.7322 H   0  0  0  0  0  0  0  0  0  0  0  0
   60.9595   28.4658   48.7322 H   0  0  0  0  0  0  0  0  0  0  0  0
   57.1733   26.7212   46.7406 H   0  0  0  0  0  0  0  0  0  0  0  0
   56.5591   28.4045   46.3817 H   0  0  0  0  0  0  0  0  0  0  0  0
   58.1662   26.5635   44.5809 H   0  0  0  0  0  0  0  0  0  0  0  0
   56.4853   27.2537   44.3526 H   0  0  0  0  0  0  0  0  0  0  0  0
   58.4752   28.1781   43.0165 H   0  0  0  0  0  0  0  0  0  0  0  0
   59.0551   31.5407   43.6932 H   0  0  0  0  0  0  0  0  0  0  0  0
   57.8474   32.4268   42.6761 H   0  0  0  0  0  0  0  0  0  0  0  0
   59.8325   33.7964   43.6082 H   0  0  0  0  0  0  0  0  0  0  0  0
   58.1932   34.4674   43.8476 H   0  0  0  0  0  0  0  0  0  0  0  0
   60.4130   35.1821   45.1405 H   0  0  0  0  0  0  0  0  0  0  0  0
   59.3480   35.4435   46.5716 H   0  0  0  0  0  0  0  0  0  0  0  0
   59.8259   34.3050   48.7290 H   0  0  0  0  0  0  0  0  0  0  0  0
   61.6395   33.4568   50.2202 H   0  0  0  0  0  0  0  0  0  0  0  0
   63.8665   32.8551   49.2643 H   0  0  0  0  0  0  0  0  0  0  0  0
   64.2849   33.1059   46.8163 H   0  0  0  0  0  0  0  0  0  0  0  0
   62.4770   33.9572   45.3189 H   0  0  0  0  0  0  0  0  0  0  0  0
   57.9208   33.2641   47.3002 H   0  0  0  0  0  0  0  0  0  0  0  0
   57.4485   34.7071   46.2825 H   0  0  0  0  0  0  0  0  0  0  0  0
   56.1192   32.2642   46.3643 H   0  0  0  0  0  0  0  0  0  0  0  0
   56.0017   33.5421   45.0717 H   0  0  0  0  0  0  0  0  0  0  0  0
   60.1516   28.6650   44.5191 H   0  0  0  0  0  0  0  0  0  0  0  0
   59.3838   30.2925   44.2072 H   0  0  0  0  0  0  0  0  0  0  0  0
   59.9747   29.8322   46.6137 H   0  0  0  0  0  0  0  0  0  0  0  0
   58.2318   30.2455   46.2699 H   0  0  0  0  0  0  0  0  0  0  0  0
  1  2  1  0
  2  3  2  0
  2  4  2  0
  2  5  1  0
  5  6  1  0
  6  7  1  0
  7  8  1  0
  8  9  1  0
  9 10  2  0
  9 11  1  0
 11 12  2  0
 11 13  1  0
 13 14  1  0
 14 15  1  0
 15 16  1  0
 16 17  1  0
 17 18  1  0
 18 19  2  0
 19 20  1  0
 20 21  2  0
 21 22  1  0
 22 23  2  0
 16 24  1  0
 24 25  1  0
  8 26  1  0
 26 27  1  0
 27  5  1  0
 25 13  1  0
 23 18  1  0
  1 28  1  0
  1 29  1  0
  1 30  1  0
  6 31  1  0
  6 32  1  0
  7 33  1  0
  7 34  1  0
  8 35  1  0
 14 36  1  0
 14 37  1  0
 15 38  1  0
 15 39  1  0
 17 40  1  0
 17 41  1  0
 19 42  1  0
 20 43  1  0
 21 44  1  0
 22 45  1  0
 23 46  1  0
 24 47  1  0
 24 48  1  0
 25 49  1  0
 25 50  1  0
 26 51  1  0
 26 52  1  0
 27 53  1  0
 27 54  1  0
M  END
>  <UniqueID>  (93) 
90

>  <SMILES>  (93) 
CS(=O)(=O)N1CCC(C(=O)C(=O)N2CCN(Cc3ccccc3)CC2)CC1

>  <Energy>  (93) 
66.3722061703986

>  <Genealogy>  (93) 
CS(=O)(=O)N1CCC(C(=O)C(=O)N2CCN(Cc3ccccc3)CC2)CC1 (3D coordinates assigned)
CS(=O)(=O)N1CCC(C(=O)C(=O)N2CCN(Cc3ccccc3)CC2)CC1 (nonaromatic ring conformer: 66.3722061703986 kcal/mol)

>  <smiles>  (93) 
CS(=O)(=O)N1CCC(C(=O)C(=O)N2CCN(Cc3ccccc3)CC2)CC1

>  <score_type>  (93) 
oracle

>  <origin>  (93) 
adg

>  <m_score__min__energy>  (93) 
-9.1999999999999993

>  <m_primary>  (93) 
energy

$$$$
93:0
     RDKit          3D

 41 44  0  0  0  0  0  0  0  0999 V2000
   56.3880   30.8290   44.2250 H   0  0  0  0  0  0  0  0  0  0  0  0
   56.3100   31.6810   44.7650 O   0  0  0  0  0  0  0  0  0  0  0  0
   57.4200   32.3950   45.2150 C   0  0  0  0  0  0  0  0  0  0  0  0
   57.3900   33.8000   45.1540 C   0  0  0  0  0  0  0  0  0  0  0  0
   56.5338   34.3072   44.6853 H   0  0  0  0  0  0  0  0  0  0  0  0
   58.4450   34.5620   45.6870 C   0  0  0  0  0  0  0  0  0  0  0  0
   58.4102   35.6601   45.6317 H   0  0  0  0  0  0  0  0  0  0  0  0
   59.5400   33.9280   46.2880 C   0  0  0  0  0  0  0  0  0  0  0  0
   60.3584   34.5173   46.7272 H   0  0  0  0  0  0  0  0  0  0  0  0
   59.5710   32.5330   46.3180 C   0  0  0  0  0  0  0  0  0  0  0  0
   58.5640   31.7780   45.7690 C   0  0  0  0  0  0  0  0  0  0  0  0
   58.8610   30.3890   45.8790 N   0  0  0  0  0  0  0  0  0  0  0  0
   58.3320   29.3240   45.0810 C   0  0  0  0  0  0  0  0  0  0  0  0
   57.7340   29.6030   44.0060 O   0  0  0  0  0  0  0  0  0  0  0  0
   58.4100   27.9150   45.5180 C   0  0  0  0  0  0  0  0  0  0  0  0
   59.5600   27.1520   45.5160 C   0  0  0  0  0  0  0  0  0  0  0  0
   60.5653   27.4775   45.2102 H   0  0  0  0  0  0  0  0  0  0  0  0
   59.2000   25.8980   45.9740 C   0  0  0  0  0  0  0  0  0  0  0  0
   60.0380   24.8550   45.9980 C   0  0  0  0  0  0  0  0  0  0  0  0
   59.6929   23.8807   46.3744 H   0  0  0  0  0  0  0  0  0  0  0  0
   61.0720   24.9719   45.6414 H   0  0  0  0  0  0  0  0  0  0  0  0
   57.8300   25.9580   46.2800 C   0  0  0  0  0  0  0  0  0  0  0  0
   57.0220   25.0200   46.8200 C   0  0  0  0  0  0  0  0  0  0  0  0
   57.3039   24.6163   47.8036 H   0  0  0  0  0  0  0  0  0  0  0  0
   55.7910   24.4920   46.1980 C   0  0  0  0  0  0  0  0  0  0  0  0
   54.7270   25.3420   45.8450 C   0  0  0  0  0  0  0  0  0  0  0  0
   54.8070   26.7100   46.0720 O   0  0  0  0  0  0  0  0  0  0  0  0
   53.6120   24.8270   45.2650 N   0  0  0  0  0  0  0  0  0  0  0  0
   53.5090   23.5010   45.0020 C   0  0  0  0  0  0  0  0  0  0  0  0
   52.4590   23.0420   44.4790 O   0  0  0  0  0  0  0  0  0  0  0  0
   54.5390   22.6650   45.2960 N   0  0  0  0  0  0  0  0  0  0  0  0
   55.6760   23.1290   45.8750 C   0  0  0  0  0  0  0  0  0  0  0  0
   56.6220   22.3290   46.1190 O   0  0  0  0  0  0  0  0  0  0  0  0
   57.3630   27.1810   45.9480 N   0  0  0  0  0  0  0  0  0  0  0  0
   56.3730   27.5020   46.0340 H   0  0  0  0  0  0  0  0  0  0  0  0
   60.1320   30.2380   46.5950 C   0  0  0  0  0  0  0  0  0  0  0  0
   59.9795   29.6733   47.5266 H   0  0  0  0  0  0  0  0  0  0  0  0
   60.8675   29.6860   45.9914 H   0  0  0  0  0  0  0  0  0  0  0  0
   60.6250   31.6680   46.9110 C   0  0  0  0  0  0  0  0  0  0  0  0
   60.7008   31.8276   47.9967 H   0  0  0  0  0  0  0  0  0  0  0  0
   61.6279   31.8757   46.5097 H   0  0  0  0  0  0  0  0  0  0  0  0
  1  2  1  0
  2  3  1  0
  3  4  2  0
  4  5  1  0
  4  6  1  0
  6  7  1  0
  6  8  2  0
  8  9  1  0
  8 10  1  0
 10 11  2  0
 11 12  1  0
 12 13  1  0
 13 14  2  0
 13 15  1  0
 15 16  2  0
 16 17  1  0
 16 18  1  0
 18 19  2  0
 19 20  1  0
 19 21  1  0
 18 22  1  0
 22 23  2  0
 23 24  1  0
 23 25  1  0
 25 26  2  0
 26 27  1  0
 26 28  1  0
 28 29  1  0
 29 30  2  0
 29 31  1  0
 31 32  1  0
 32 33  2  0
 22 34  1  0
 34 35  1  0
 12 36  1  0
 36 37  1  0
 36 38  1  0
 36 39  1  0
 39 40  1  0
 39 41  1  0
 11  3  1  0
 34 15  1  0
 39 10  1  0
 32 25  1  0
M  CHG  3  27  -1  28  -1  31  -1
M  END
>  <UniqueID>  (94) 
91

>  <SMILES>  (94) 
C=c1cc(C(=O)N2CCc3cccc(O)c32)[nH]/c1=C/c1c([O-])[n-]c(=O)[n-]c1=O

>  <Energy>  (94) 
108.71815700209699

>  <Genealogy>  (94) 
C=c1cc(C(=O)N2CCc3cccc(O)c32)[nH]c1=Cc1c([O-])[n-]c(=O)[n-]c1=O (protonated)
C=c1cc(C(=O)N2CCc3cccc(O)c32)[nH]/c1=C/c1c([O-])[n-]c(=O)[n-]c1=O (cis-trans isomerization)
C=c1cc(C(=O)N2CCc3cccc(O)c32)[nH]/c1=C/c1c([O-])[n-]c(=O)[n-]c1=O (3D coordinates assigned)
C=c1cc(C(=O)N2CCc3cccc(O)c32)[nH]/c1=C/c1c([O-])[n-]c(=O)[n-]c1=O (nonaromatic ring conformer: 108.71815700209699 kcal/mol)

>  <smiles>  (94) 
C=c1cc(C(=O)N2CCc3cccc(O)c32)[nH]c1=Cc1c(O)[nH]c(=O)[nH]c1=O

>  <score_type>  (94) 
oracle

>  <origin>  (94) 
adg

>  <m_score__min__energy>  (94) 
-16.43

>  <m_primary>  (94) 
energy

$$$$
94:0
     RDKit          3D

 56 59  0  0  0  0  0  0  0  0999 V2000
   53.0990   21.9120   45.9380 O   0  0  0  0  0  0  0  0  0  0  0  0
   54.0830   22.5870   46.3420 C   0  0  0  0  0  0  0  0  0  0  0  0
   54.4040   23.8930   45.6930 C   0  0  0  0  0  0  0  0  0  0  0  0
   55.5860   24.4660   46.3260 N   0  0  0  0  0  0  0  0  0  0  0  0
   56.0080   25.8290   46.1900 C   0  0  0  0  0  0  0  0  0  0  0  0
   55.1350   26.7160   45.9910 O   0  0  0  0  0  0  0  0  0  0  0  0
   57.4250   26.2300   46.2930 C   0  0  0  0  0  0  0  0  0  0  0  0
   58.4520   25.3180   45.9990 C   0  0  0  0  0  0  0  0  0  0  0  0
   59.7890   25.7200   46.0560 C   0  0  0  0  0  0  0  0  0  0  0  0
   60.1120   27.0380   46.3900 C   0  0  0  0  0  0  0  0  0  0  0  0
   59.0960   27.9620   46.6650 C   0  0  0  0  0  0  0  0  0  0  0  0
   59.4820   29.6320   47.0710 S   0  0  0  0  0  0  0  0  0  0  0  0
   60.9420   29.8780   46.8110 O   0  0  0  0  0  0  0  0  0  0  0  0
   59.2290   29.8910   48.5320 O   0  0  0  0  0  0  0  0  0  0  0  0
   58.5140   30.7060   46.0950 N   0  0  0  0  0  0  0  0  0  0  0  0
   57.5680   30.1390   45.1300 C   0  0  0  0  0  0  0  0  0  0  0  0
   57.8800   30.6900   43.7410 C   0  0  0  0  0  0  0  0  0  0  0  0
   57.7610   32.2220   43.7270 C   0  0  0  0  0  0  0  0  0  0  0  0
   58.4290   32.8760   44.9170 C   0  0  0  0  0  0  0  0  0  0  0  0
   58.6600   34.2610   44.8930 C   0  0  0  0  0  0  0  0  0  0  0  0
   59.1910   34.9110   46.0110 C   0  0  0  0  0  0  0  0  0  0  0  0
   59.4710   34.1870   47.1700 C   0  0  0  0  0  0  0  0  0  0  0  0
   59.2360   32.8090   47.2120 C   0  0  0  0  0  0  0  0  0  0  0  0
   58.7330   32.1340   46.0840 C   0  0  0  0  0  0  0  0  0  0  0  0
   57.7550   27.5560   46.6130 C   0  0  0  0  0  0  0  0  0  0  0  0
   54.9060   22.1050   47.4100 N   0  0  0  0  0  0  0  0  0  0  0  0
   55.9540   21.1070   47.2320 C   0  0  0  0  0  0  0  0  0  0  0  0
   56.5990   21.2640   45.8820 C   0  0  0  0  0  0  0  0  0  0  0  0
   57.7830   22.0100   45.7340 C   0  0  0  0  0  0  0  0  0  0  0  0
   58.3850   22.1330   44.4760 C   0  0  0  0  0  0  0  0  0  0  0  0
   57.8140   21.5070   43.3630 C   0  0  0  0  0  0  0  0  0  0  0  0
   56.6430   20.7560   43.5050 C   0  0  0  0  0  0  0  0  0  0  0  0
   56.0380   20.6320   44.7600 C   0  0  0  0  0  0  0  0  0  0  0  0
   54.6010   23.7332   44.6226 H   0  0  0  0  0  0  0  0  0  0  0  0
   53.5535   24.5812   45.8075 H   0  0  0  0  0  0  0  0  0  0  0  0
   58.2027   24.2829   45.7227 H   0  0  0  0  0  0  0  0  0  0  0  0
   60.5891   24.9974   45.8375 H   0  0  0  0  0  0  0  0  0  0  0  0
   61.1657   27.3502   46.4370 H   0  0  0  0  0  0  0  0  0  0  0  0
   57.6631   29.0432   45.1214 H   0  0  0  0  0  0  0  0  0  0  0  0
   56.5409   30.4114   45.4144 H   0  0  0  0  0  0  0  0  0  0  0  0
   58.9047   30.4045   43.4607 H   0  0  0  0  0  0  0  0  0  0  0  0
   57.1585   30.2719   43.0236 H   0  0  0  0  0  0  0  0  0  0  0  0
   58.2311   32.6021   42.8080 H   0  0  0  0  0  0  0  0  0  0  0  0
   56.6903   32.4701   43.7722 H   0  0  0  0  0  0  0  0  0  0  0  0
   58.4214   34.8387   43.9878 H   0  0  0  0  0  0  0  0  0  0  0  0
   59.3879   35.9927   45.9768 H   0  0  0  0  0  0  0  0  0  0  0  0
   59.8777   34.7013   48.0532 H   0  0  0  0  0  0  0  0  0  0  0  0
   59.4461   32.2479   48.1345 H   0  0  0  0  0  0  0  0  0  0  0  0
   56.9560   28.2819   46.8245 H   0  0  0  0  0  0  0  0  0  0  0  0
   56.7153   21.2363   48.0154 H   0  0  0  0  0  0  0  0  0  0  0  0
   55.5088   20.1035   47.3019 H   0  0  0  0  0  0  0  0  0  0  0  0
   58.2368   22.4979   46.6092 H   0  0  0  0  0  0  0  0  0  0  0  0
   59.3071   22.7220   44.3628 H   0  0  0  0  0  0  0  0  0  0  0  0
   58.2868   21.6056   42.3747 H   0  0  0  0  0  0  0  0  0  0  0  0
   56.1972   20.2623   42.6289 H   0  0  0  0  0  0  0  0  0  0  0  0
   55.1191   20.0371   44.8688 H   0  0  0  0  0  0  0  0  0  0  0  0
  1  2  2  0
  2  3  1  0
  3  4  1  0
  4  5  1  0
  5  6  2  0
  5  7  1  0
  7  8  2  0
  8  9  1  0
  9 10  2  0
 10 11  1  0
 11 12  1  0
 12 13  2  0
 12 14  2  0
 12 15  1  0
 15 16  1  0
 16 17  1  0
 17 18  1  0
 18 19  1  0
 19 20  2  0
 20 21  1  0
 21 22  2  0
 22 23  1  0
 23 24  2  0
 11 25  2  0
  2 26  1  0
 26 27  1  0
 27 28  1  0
 28 29  2  0
 29 30  1  0
 30 31  2  0
 31 32  1  0
 32 33  2  0
 25  7  1  0
 33 28  1  0
 24 15  1  0
 24 19  1  0
  3 34  1  0
  3 35  1  0
  8 36  1  0
  9 37  1  0
 10 38  1  0
 16 39  1  0
 16 40  1  0
 17 41  1  0
 17 42  1  0
 18 43  1  0
 18 44  1  0
 20 45  1  0
 21 46  1  0
 22 47  1  0
 23 48  1  0
 25 49  1  0
 27 50  1  0
 27 51  1  0
 29 52  1  0
 30 53  1  0
 31 54  1  0
 32 55  1  0
 33 56  1  0
M  CHG  2   4  -1  26  -1
M  END
>  <UniqueID>  (95) 
92

>  <SMILES>  (95) 
O=C(C[N-]C(=O)c1cccc(S(=O)(=O)N2CCCc3ccccc32)c1)[N-]Cc1ccccc1

>  <Energy>  (95) 
63.6958059627554

>  <Genealogy>  (95) 
O=C(C[N-]C(=O)c1cccc(S(=O)(=O)N2CCCc3ccccc32)c1)[N-]Cc1ccccc1 (protonated)
O=C(C[N-]C(=O)c1cccc(S(=O)(=O)N2CCCc3ccccc32)c1)[N-]Cc1ccccc1 (3D coordinates assigned)
O=C(C[N-]C(=O)c1cccc(S(=O)(=O)N2CCCc3ccccc32)c1)[N-]Cc1ccccc1 (nonaromatic ring conformer: 63.6958059627554 kcal/mol)

>  <smiles>  (95) 
O=C(CNC(=O)c1cccc(S(=O)(=O)N2CCCc3ccccc32)c1)NCc1ccccc1

>  <score_type>  (95) 
oracle

>  <origin>  (95) 
adg

>  <m_score__min__energy>  (95) 
-15.199999999999999

>  <m_primary>  (95) 
energy

$$$$
95:0
     RDKit          3D

 55 58  0  0  0  0  0  0  0  0999 V2000
   58.9150   21.9710   44.1400 C   0  0  0  0  0  0  0  0  0  0  0  0
   58.0210   21.3630   43.3620 C   0  0  0  0  0  0  0  0  0  0  0  0
   56.6010   21.7500   43.3360 C   0  0  0  0  0  0  0  0  0  0  0  0
   56.0160   21.9790   42.2420 O   0  0  0  0  0  0  0  0  0  0  0  0
   55.8800   21.8270   44.5690 N   0  0  0  0  0  0  0  0  0  0  0  0
   56.3670   22.4820   45.7480 C   0  0  0  0  0  0  0  0  0  0  0  0
   56.6500   23.8500   45.6880 C   0  0  0  0  0  0  0  0  0  0  0  0
   57.1330   24.5260   46.8190 C   0  0  0  0  0  0  0  0  0  0  0  0
   57.4760   25.9220   46.7750 N   0  0  0  0  0  0  0  0  0  0  0  0
   56.6620   26.9250   46.1430 C   0  0  0  0  0  0  0  0  0  0  0  0
   55.4320   26.7090   45.9630 O   0  0  0  0  0  0  0  0  0  0  0  0
   57.2400   28.2320   45.7430 C   0  0  0  0  0  0  0  0  0  0  0  0
   56.9440   28.7970   44.4920 C   0  0  0  0  0  0  0  0  0  0  0  0
   57.4820   30.0310   44.1260 C   0  0  0  0  0  0  0  0  0  0  0  0
   58.3260   30.7370   45.0050 C   0  0  0  0  0  0  0  0  0  0  0  0
   58.8590   31.9960   44.6750 O   0  0  0  0  0  0  0  0  0  0  0  0
   58.1450   33.0730   44.0710 C   0  0  0  0  0  0  0  0  0  0  0  0
   58.0070   34.2390   45.0610 C   0  0  0  0  0  0  0  0  0  0  0  0
   59.2290   34.5110   45.9240 C   0  0  0  0  0  0  0  0  0  0  0  0
   58.0040   33.8420   46.5280 C   0  0  0  0  0  0  0  0  0  0  0  0
   58.6370   30.1720   46.2590 C   0  0  0  0  0  0  0  0  0  0  0  0
   59.5320   30.8730   47.2110 C   0  0  0  0  0  0  0  0  0  0  0  0
   59.1720   31.0120   48.5620 C   0  0  0  0  0  0  0  0  0  0  0  0
   60.0000   31.6520   49.4310 N   0  0  0  0  0  0  0  0  0  0  0  0
   61.1920   32.1690   49.0330 C   0  0  0  0  0  0  0  0  0  0  0  0
   61.5970   32.0490   47.7030 C   0  0  0  0  0  0  0  0  0  0  0  0
   63.1380   32.7070   47.1830 Cl  0  0  0  0  0  0  0  0  0  0  0  0
   60.7660   31.3960   46.7910 C   0  0  0  0  0  0  0  0  0  0  0  0
   58.0810   28.9320   46.6220 C   0  0  0  0  0  0  0  0  0  0  0  0
   57.3370   23.7980   47.9960 C   0  0  0  0  0  0  0  0  0  0  0  0
   57.0210   22.4790   48.0500 N   0  0  0  0  0  0  0  0  0  0  0  0
   56.5250   21.8050   46.9770 C   0  0  0  0  0  0  0  0  0  0  0  0
   56.1600   20.3600   47.1480 C   0  0  0  0  0  0  0  0  0  0  0  0
   59.9663   21.6476   44.1263 H   0  0  0  0  0  0  0  0  0  0  0  0
   58.6020   22.7965   44.7962 H   0  0  0  0  0  0  0  0  0  0  0  0
   58.3568   20.5400   42.7140 H   0  0  0  0  0  0  0  0  0  0  0  0
   56.4930   24.3998   44.7483 H   0  0  0  0  0  0  0  0  0  0  0  0
   58.3030   26.2400   47.3290 H   0  0  0  0  0  0  0  0  0  0  0  0
   56.2824   28.2621   43.7948 H   0  0  0  0  0  0  0  0  0  0  0  0
   57.2444   30.4572   43.1402 H   0  0  0  0  0  0  0  0  0  0  0  0
   58.6905   33.4159   43.1795 H   0  0  0  0  0  0  0  0  0  0  0  0
   57.1417   32.7234   43.7860 H   0  0  0  0  0  0  0  0  0  0  0  0
   57.3592   34.8505   44.4156 H   0  0  0  0  0  0  0  0  0  0  0  0
   60.1516   33.9324   45.7692 H   0  0  0  0  0  0  0  0  0  0  0  0
   59.8281   35.4012   46.1660 H   0  0  0  0  0  0  0  0  0  0  0  0
   58.0407   32.7795   46.8103 H   0  0  0  0  0  0  0  0  0  0  0  0
   57.3500   34.0480   47.3881 H   0  0  0  0  0  0  0  0  0  0  0  0
   58.2159   30.6013   48.9187 H   0  0  0  0  0  0  0  0  0  0  0  0
   61.8383   32.6826   49.7600 H   0  0  0  0  0  0  0  0  0  0  0  0
   61.0782   31.2909   45.7415 H   0  0  0  0  0  0  0  0  0  0  0  0
   58.3087   28.5045   47.6096 H   0  0  0  0  0  0  0  0  0  0  0  0
   57.7557   24.2970   48.8824 H   0  0  0  0  0  0  0  0  0  0  0  0
   56.0997   20.1214   48.2201 H   0  0  0  0  0  0  0  0  0  0  0  0
   55.1855   20.1695   46.6746 H   0  0  0  0  0  0  0  0  0  0  0  0
   56.9271   19.7295   46.6746 H   0  0  0  0  0  0  0  0  0  0  0  0
  1  2  2  0
  2  3  1  0
  3  4  2  0
  3  5  1  0
  5  6  1  0
  6  7  2  0
  7  8  1  0
  8  9  1  0
  9 10  1  0
 10 11  2  0
 10 12  1  0
 12 13  2  0
 13 14  1  0
 14 15  2  0
 15 16  1  0
 16 17  1  0
 17 18  1  0
 18 19  1  0
 19 20  1  0
 15 21  1  0
 21 22  1  0
 22 23  2  0
 23 24  1  0
 24 25  2  0
 25 26  1  0
 26 27  1  0
 26 28  2  0
 21 29  2  0
  8 30  2  0
 30 31  1  0
 31 32  2  0
 32 33  1  0
 32  6  1  0
 29 12  1  0
 20 18  1  0
 28 22  1  0
  1 34  1  0
  1 35  1  0
  2 36  1  0
  7 37  1  0
  9 38  1  0
 13 39  1  0
 14 40  1  0
 17 41  1  0
 17 42  1  0
 18 43  1  0
 19 44  1  0
 19 45  1  0
 20 46  1  0
 20 47  1  0
 23 48  1  0
 25 49  1  0
 28 50  1  0
 29 51  1  0
 30 52  1  0
 33 53  1  0
 33 54  1  0
 33 55  1  0
M  CHG  1   5  -1
M  END
>  <UniqueID>  (96) 
93

>  <SMILES>  (96) 
C=CC(=O)[N-]c1cc(NC(=O)c2ccc(OCC3CC3)c(-c3cncc(Cl)c3)c2)cnc1C

>  <Energy>  (96) 
338.90488735462293

>  <Genealogy>  (96) 
C=CC(=O)[N-]c1cc(NC(=O)c2ccc(OCC3CC3)c(-c3cncc(Cl)c3)c2)cnc1C (protonated)
C=CC(=O)[N-]c1cc(NC(=O)c2ccc(OCC3CC3)c(-c3cncc(Cl)c3)c2)cnc1C (3D coordinates assigned)
C=CC(=O)[N-]c1cc(NC(=O)c2ccc(OCC3CC3)c(-c3cncc(Cl)c3)c2)cnc1C (nonaromatic ring conformer: 338.90488735462293 kcal/mol)

>  <smiles>  (96) 
C=CC(=O)Nc1cc(NC(=O)c2ccc(OCC3CC3)c(-c3cncc(Cl)c3)c2)cnc1C

>  <score_type>  (96) 
oracle

>  <origin>  (96) 
adg

>  <m_score__min__energy>  (96) 
-12.09

>  <m_primary>  (96) 
energy

$$$$
96:0
     RDKit          3D

 41 43  0  0  0  0  0  0  0  0999 V2000
   57.6250   25.6290   47.7990 O   0  0  0  0  0  0  0  0  0  0  0  0
   57.7880   25.7670   46.5560 C   0  0  0  0  0  0  0  0  0  0  0  0
   57.3380   24.7390   45.6600 N   0  0  0  0  0  0  0  0  0  0  0  0
   55.9850   24.2910   45.4760 C   0  0  0  0  0  0  0  0  0  0  0  0
   55.6760   22.9870   45.0570 C   0  0  0  0  0  0  0  0  0  0  0  0
   54.3800   22.6250   44.8700 N   0  0  0  0  0  0  0  0  0  0  0  0
   53.3700   23.5080   45.0720 C   0  0  0  0  0  0  0  0  0  0  0  0
   52.1770   23.1490   44.8990 O   0  0  0  0  0  0  0  0  0  0  0  0
   53.6470   24.7810   45.4570 N   0  0  0  0  0  0  0  0  0  0  0  0
   54.9270   25.1910   45.6530 C   0  0  0  0  0  0  0  0  0  0  0  0
   55.1520   26.3800   46.0020 O   0  0  0  0  0  0  0  0  0  0  0  0
   58.3920   27.0120   46.0100 C   0  0  0  0  0  0  0  0  0  0  0  0
   57.5560   28.0490   45.5510 C   0  0  0  0  0  0  0  0  0  0  0  0
   58.0950   29.2390   45.0430 C   0  0  0  0  0  0  0  0  0  0  0  0
   57.0280   30.5390   44.5040 S   0  0  0  0  0  0  0  0  0  0  0  0
   55.6050   30.0510   44.5180 O   0  0  0  0  0  0  0  0  0  0  0  0
   57.3770   30.9120   43.0900 O   0  0  0  0  0  0  0  0  0  0  0  0
   57.1730   31.9520   45.5240 N   0  0  0  0  0  0  0  0  0  0  0  0
   57.3410   33.1900   44.7220 C   0  0  0  0  0  0  0  0  0  0  0  0
   58.7880   33.7020   44.7060 C   0  0  0  0  0  0  0  0  0  0  0  0
   59.2940   33.9860   46.1300 C   0  0  0  0  0  0  0  0  0  0  0  0
   58.6570   33.0610   47.1830 C   0  0  0  0  0  0  0  0  0  0  0  0
   58.2120   31.7370   46.5560 C   0  0  0  0  0  0  0  0  0  0  0  0
   59.4830   29.3930   44.9750 C   0  0  0  0  0  0  0  0  0  0  0  0
   60.3260   28.3760   45.4210 C   0  0  0  0  0  0  0  0  0  0  0  0
   59.7930   27.1910   45.9370 C   0  0  0  0  0  0  0  0  0  0  0  0
   60.6710   26.2020   46.3730 O   0  0  0  0  0  0  0  0  0  0  0  0
   56.4821   22.2596   44.8804 H   0  0  0  0  0  0  0  0  0  0  0  0
   56.4640   27.9229   45.5919 H   0  0  0  0  0  0  0  0  0  0  0  0
   57.0312   32.9821   43.6872 H   0  0  0  0  0  0  0  0  0  0  0  0
   56.7208   33.9703   45.1872 H   0  0  0  0  0  0  0  0  0  0  0  0
   59.4325   32.9412   44.2414 H   0  0  0  0  0  0  0  0  0  0  0  0
   58.8189   34.6400   44.1322 H   0  0  0  0  0  0  0  0  0  0  0  0
   60.3846   33.8440   46.1507 H   0  0  0  0  0  0  0  0  0  0  0  0
   59.0131   35.0192   46.3823 H   0  0  0  0  0  0  0  0  0  0  0  0
   59.3941   32.8547   47.9730 H   0  0  0  0  0  0  0  0  0  0  0  0
   57.7729   33.5643   47.6013 H   0  0  0  0  0  0  0  0  0  0  0  0
   59.0824   31.2501   46.0919 H   0  0  0  0  0  0  0  0  0  0  0  0
   57.7876   31.1033   47.3486 H   0  0  0  0  0  0  0  0  0  0  0  0
   59.9118   30.3206   44.5678 H   0  0  0  0  0  0  0  0  0  0  0  0
   61.4168   28.5067   45.3666 H   0  0  0  0  0  0  0  0  0  0  0  0
  1  2  2  0
  2  3  1  0
  3  4  1  0
  4  5  2  0
  5  6  1  0
  6  7  1  0
  7  8  2  0
  7  9  1  0
  9 10  1  0
 10 11  2  0
  2 12  1  0
 12 13  2  0
 13 14  1  0
 14 15  1  0
 15 16  2  0
 15 17  2  0
 15 18  1  0
 18 19  1  0
 19 20  1  0
 20 21  1  0
 21 22  1  0
 22 23  1  0
 14 24  2  0
 24 25  1  0
 25 26  2  0
 26 27  1  0
 10  4  1  0
 26 12  1  0
 23 18  1  0
  5 28  1  0
 13 29  1  0
 19 30  1  0
 19 31  1  0
 20 32  1  0
 20 33  1  0
 21 34  1  0
 21 35  1  0
 22 36  1  0
 22 37  1  0
 23 38  1  0
 23 39  1  0
 24 40  1  0
 25 41  1  0
M  CHG  4   3  -1   6  -1   9  -1  27  -1
M  END
>  <UniqueID>  (97) 
94

>  <SMILES>  (97) 
O=C([N-]c1c[n-]c(=O)[n-]c1=O)c1cc(S(=O)(=O)N2CCCCC2)ccc1[O-]

>  <Energy>  (97) 
54.709662817150296

>  <Genealogy>  (97) 
O=C([N-]c1c[n-]c(=O)[n-]c1=O)c1cc(S(=O)(=O)N2CCCCC2)ccc1[O-] (protonated)
O=C([N-]c1c[n-]c(=O)[n-]c1=O)c1cc(S(=O)(=O)N2CCCCC2)ccc1[O-] (3D coordinates assigned)
O=C([N-]c1c[n-]c(=O)[n-]c1=O)c1cc(S(=O)(=O)N2CCCCC2)ccc1[O-] (nonaromatic ring conformer: 54.709662817150296 kcal/mol)

>  <smiles>  (97) 
O=C(Nc1c[nH]c(=O)[nH]c1=O)c1cc(S(=O)(=O)N2CCCCC2)ccc1O

>  <score_type>  (97) 
oracle

>  <origin>  (97) 
adg

>  <m_score__min__energy>  (97) 
-15.619999999999999

>  <m_primary>  (97) 
energy

$$$$
97:0
     RDKit          3D

 34 36  0  0  0  0  0  0  0  0999 V2000
   53.1475   32.0570   53.0012 H   0  0  0  0  0  0  0  0  0  0  0  0
   53.1550   31.2300   52.2760 C   0  0  0  0  0  0  0  0  0  0  0  0
   53.9390   30.2180   52.4610 N   0  0  0  0  0  0  0  0  0  0  0  0
   55.0910   30.0820   51.7200 O   0  0  0  0  0  0  0  0  0  0  0  0
   56.3460   30.1130   52.3290 C   0  0  0  0  0  0  0  0  0  0  0  0
   56.4460   30.4130   53.5490 O   0  0  0  0  0  0  0  0  0  0  0  0
   57.5350   29.8080   51.5880 N   0  0  0  0  0  0  0  0  0  0  0  0
   58.0940   30.5730   50.6990 C   0  0  0  0  0  0  0  0  0  0  0  0
   58.6300   30.1280   49.5380 N   0  0  0  0  0  0  0  0  0  0  0  0
   59.1470   31.1490   48.8060 C   0  0  0  0  0  0  0  0  0  0  0  0
   59.6352   30.9928   47.8327 H   0  0  0  0  0  0  0  0  0  0  0  0
   59.0110   32.4070   49.3830 C   0  0  0  0  0  0  0  0  0  0  0  0
   59.5540   33.6870   48.8330 C   0  0  0  0  0  0  0  0  0  0  0  0
   59.2335   34.5229   49.4721 H   0  0  0  0  0  0  0  0  0  0  0  0
   60.6525   33.6332   48.8115 H   0  0  0  0  0  0  0  0  0  0  0  0
   59.0430   33.9050   47.4340 C   0  0  0  0  0  0  0  0  0  0  0  0
   57.7630   33.4550   47.0690 C   0  0  0  0  0  0  0  0  0  0  0  0
   57.1424   32.9165   47.8003 H   0  0  0  0  0  0  0  0  0  0  0  0
   57.2750   33.6890   45.7800 C   0  0  0  0  0  0  0  0  0  0  0  0
   56.2751   33.3283   45.4968 H   0  0  0  0  0  0  0  0  0  0  0  0
   58.0570   34.3810   44.8510 C   0  0  0  0  0  0  0  0  0  0  0  0
   57.6732   34.5630   43.8363 H   0  0  0  0  0  0  0  0  0  0  0  0
   59.3270   34.8420   45.2110 C   0  0  0  0  0  0  0  0  0  0  0  0
   59.9411   35.3879   44.4796 H   0  0  0  0  0  0  0  0  0  0  0  0
   59.8170   34.6100   46.4990 C   0  0  0  0  0  0  0  0  0  0  0  0
   60.8132   34.9813   46.7813 H   0  0  0  0  0  0  0  0  0  0  0  0
   58.2410   32.2380   50.8710 S   0  0  0  0  0  0  0  0  0  0  0  0
   52.2760   31.2790   51.1030 C   0  0  0  0  0  0  0  0  0  0  0  0
   52.2740   30.3710   50.1110 N   0  0  0  0  0  0  0  0  0  0  0  0
   51.3170   30.8290   49.2740 C   0  0  0  0  0  0  0  0  0  0  0  0
   51.0110   30.2380   48.2060 O   0  0  0  0  0  0  0  0  0  0  0  0
   50.7120   31.9690   49.6730 N   0  0  0  0  0  0  0  0  0  0  0  0
   51.3320   32.2400   50.8320 C   0  0  0  0  0  0  0  0  0  0  0  0
   51.0410   33.3420   51.6270 O   0  0  0  0  0  0  0  0  0  0  0  0
  1  2  1  0
  2  3  2  0
  3  4  1  0
  4  5  1  0
  5  6  2  0
  5  7  1  0
  7  8  2  3
  8  9  1  0
  9 10  1  0
 10 11  1  0
 10 12  2  0
 12 13  1  0
 13 14  1  0
 13 15  1  0
 13 16  1  0
 16 17  2  0
 17 18  1  0
 17 19  1  0
 19 20  1  0
 19 21  2  0
 21 22  1  0
 21 23  1  0
 23 24  1  0
 23 25  2  0
 25 26  1  0
 12 27  1  0
  2 28  1  0
 28 29  1  0
 29 30  1  0
 30 31  2  0
 30 32  1  0
 32 33  1  0
 33 34  1  0
 27  8  1  0
 33 28  2  0
 25 16  1  0
M  CHG  4   9  -1  29  -1  32  -1  34  -1
M  END
>  <UniqueID>  (98) 
95

>  <SMILES>  (98) 
O=C(N=c1[n-]cc(Cc2ccccc2)s1)O/N=C/c1[n-]c(=O)[n-]c1[O-]

>  <Energy>  (98) 
91.38467254465593

>  <Genealogy>  (98) 
O=C(N=c1[n-]cc(Cc2ccccc2)s1)ON=Cc1[n-]c(=O)[n-]c1[O-] (protonated)
O=C(N=c1[n-]cc(Cc2ccccc2)s1)O/N=C/c1[n-]c(=O)[n-]c1[O-] (cis-trans isomerization)
O=C(N=c1[n-]cc(Cc2ccccc2)s1)O/N=C/c1[n-]c(=O)[n-]c1[O-] (3D coordinates assigned)
O=C(N=c1[n-]cc(Cc2ccccc2)s1)O/N=C/c1[n-]c(=O)[n-]c1[O-] (optimized conformer: 91.38467254465593 kcal/mol)

>  <smiles>  (98) 
O=C(N=c1[nH]cc(Cc2ccccc2)s1)ON=Cc1[nH]c(=O)[nH]c1O

>  <score_type>  (98) 
oracle

>  <origin>  (98) 
adg

>  <m_score__min__energy>  (98) 
-18.84

>  <m_primary>  (98) 
energy

$$$$
