0:0
     RDKit          3D

 56 59  0  0  0  0  0  0  0  0999 V2000
   56.0450   19.2500   45.4450 C   0  0  0  0  0  0  0  0  0  0  0  0
   55.8860   20.0980   46.7040 C   0  0  0  0  0  0  0  0  0  0  0  0
   55.3610   21.4210   46.3710 N   0  0  0  0  0  0  0  0  0  0  0  0
   56.1610   22.6110   46.4690 C   0  0  0  0  0  0  0  0  0  0  0  0
   57.3680   22.5270   46.8210 O   0  0  0  0  0  0  0  0  0  0  0  0
   55.5810   23.9380   46.1660 C   0  0  0  0  0  0  0  0  0  0  0  0
   54.2560   24.2170   45.8660 C   0  0  0  0  0  0  0  0  0  0  0  0
   54.0730   25.5380   45.6530 N   0  0  0  0  0  0  0  0  0  0  0  0
   55.2840   26.1010   45.8220 C   0  0  0  0  0  0  0  0  0  0  0  0
   55.5240   27.4550   45.6330 O   0  0  0  0  0  0  0  0  0  0  0  0
   56.2320   25.1580   46.1610 C   0  0  0  0  0  0  0  0  0  0  0  0
   57.6450   25.3710   46.3030 N   0  0  0  0  0  0  0  0  0  0  0  0
   58.2510   26.6650   46.4580 C   0  0  0  0  0  0  0  0  0  0  0  0
   58.2700   27.3200   47.7010 C   0  0  0  0  0  0  0  0  0  0  0  0
   58.8840   28.5690   47.8330 C   0  0  0  0  0  0  0  0  0  0  0  0
   59.5050   29.1800   46.7290 C   0  0  0  0  0  0  0  0  0  0  0  0
   60.1500   30.5130   46.8670 C   0  0  0  0  0  0  0  0  0  0  0  0
   61.5340   30.6240   47.0770 C   0  0  0  0  0  0  0  0  0  0  0  0
   62.1150   31.8480   47.1840 N   0  0  0  0  0  0  0  0  0  0  0  0
   61.3930   32.9950   47.1070 C   0  0  0  0  0  0  0  0  0  0  0  0
   60.0060   32.9440   46.9220 C   0  0  0  0  0  0  0  0  0  0  0  0
   59.2260   34.1940   46.8280 C   0  0  0  0  0  0  0  0  0  0  0  0
   59.5950   35.1950   47.4970 O   0  0  0  0  0  0  0  0  0  0  0  0
   58.0360   34.3000   46.0350 N   0  0  0  0  0  0  0  0  0  0  0  0
   57.9940   34.3150   44.5780 C   0  0  0  0  0  0  0  0  0  0  0  0
   57.6140   32.9510   44.0800 C   0  0  0  0  0  0  0  0  0  0  0  0
   57.0170   32.0190   44.9470 C   0  0  0  0  0  0  0  0  0  0  0  0
   56.6310   30.7630   44.4700 C   0  0  0  0  0  0  0  0  0  0  0  0
   56.8270   30.4320   43.1250 C   0  0  0  0  0  0  0  0  0  0  0  0
   57.4050   31.3590   42.2540 C   0  0  0  0  0  0  0  0  0  0  0  0
   57.7950   32.6160   42.7270 C   0  0  0  0  0  0  0  0  0  0  0  0
   59.3900   31.6920   46.7820 C   0  0  0  0  0  0  0  0  0  0  0  0
   59.5070   28.5090   45.4940 C   0  0  0  0  0  0  0  0  0  0  0  0
   58.8910   27.2610   45.3630 C   0  0  0  0  0  0  0  0  0  0  0  0
   56.2408   18.2054   45.7288 H   0  0  0  0  0  0  0  0  0  0  0  0
   55.1216   19.3012   44.8494 H   0  0  0  0  0  0  0  0  0  0  0  0
   56.8871   19.6322   44.8494 H   0  0  0  0  0  0  0  0  0  0  0  0
   55.1903   19.5959   47.3924 H   0  0  0  0  0  0  0  0  0  0  0  0
   56.8715   20.2168   47.1780 H   0  0  0  0  0  0  0  0  0  0  0  0
   54.4000   21.4760   45.9690 H   0  0  0  0  0  0  0  0  0  0  0  0
   53.4586   23.4614   45.8090 H   0  0  0  0  0  0  0  0  0  0  0  0
   58.2730   24.5370   46.2530 H   0  0  0  0  0  0  0  0  0  0  0  0
   57.7990   26.8472   48.5754 H   0  0  0  0  0  0  0  0  0  0  0  0
   58.8814   29.0779   48.8082 H   0  0  0  0  0  0  0  0  0  0  0  0
   62.1506   29.7164   47.1552 H   0  0  0  0  0  0  0  0  0  0  0  0
   61.8994   33.9680   47.1902 H   0  0  0  0  0  0  0  0  0  0  0  0
   57.2497   35.0507   44.2392 H   0  0  0  0  0  0  0  0  0  0  0  0
   58.9832   34.5897   44.1831 H   0  0  0  0  0  0  0  0  0  0  0  0
   56.8533   32.2788   46.0033 H   0  0  0  0  0  0  0  0  0  0  0  0
   56.1722   30.0335   45.1536 H   0  0  0  0  0  0  0  0  0  0  0  0
   56.5259   29.4415   42.7530 H   0  0  0  0  0  0  0  0  0  0  0  0
   57.5534   31.0999   41.1953 H   0  0  0  0  0  0  0  0  0  0  0  0
   58.2451   33.3453   42.0375 H   0  0  0  0  0  0  0  0  0  0  0  0
   58.3060   31.6325   46.6047 H   0  0  0  0  0  0  0  0  0  0  0  0
   59.9972   28.9696   44.6236 H   0  0  0  0  0  0  0  0  0  0  0  0
   58.9088   26.7428   44.3929 H   0  0  0  0  0  0  0  0  0  0  0  0
  1  2  1  0
  2  3  1  0
  3  4  1  0
  4  5  2  0
  4  6  1  0
  6  7  2  0
  7  8  1  0
  8  9  1  0
  9 10  1  0
  9 11  2  0
 11 12  1  0
 12 13  1  0
 13 14  2  0
 14 15  1  0
 15 16  2  0
 16 17  1  0
 17 18  2  0
 18 19  1  0
 19 20  2  0
 20 21  1  0
 21 22  1  0
 22 23  2  0
 22 24  1  0
 24 25  1  0
 25 26  1  0
 26 27  2  0
 27 28  1  0
 28 29  2  0
 29 30  1  0
 30 31  2  0
 21 32  2  0
 16 33  1  0
 33 34  2  0
 11  6  1  0
 34 13  1  0
 32 17  1  0
 31 26  1  0
  1 35  1  0
  1 36  1  0
  1 37  1  0
  2 38  1  0
  2 39  1  0
  3 40  1  0
  7 41  1  0
 12 42  1  0
 14 43  1  0
 15 44  1  0
 18 45  1  0
 20 46  1  0
 25 47  1  0
 25 48  1  0
 27 49  1  0
 28 50  1  0
 29 51  1  0
 30 52  1  0
 31 53  1  0
 32 54  1  0
 33 55  1  0
 34 56  1  0
M  CHG  3   8  -1  10  -1  24  -1
M  END
>  <UniqueID>  (1) 
1

>  <SMILES>  (1) 
CCNC(=O)c1c[n-]c([O-])c1Nc1ccc(-c2cncc(C(=O)[N-]Cc3ccccc3)c2)cc1

>  <Energy>  (1) 
98.13675104216095

>  <Genealogy>  (1) 
CCNC(=O)c1c[n-]c([O-])c1Nc1ccc(-c2cncc(C(=O)[N-]Cc3ccccc3)c2)cc1 (protonated)
CCNC(=O)c1c[n-]c([O-])c1Nc1ccc(-c2cncc(C(=O)[N-]Cc3ccccc3)c2)cc1 (3D coordinates assigned)
CCNC(=O)c1c[n-]c([O-])c1Nc1ccc(-c2cncc(C(=O)[N-]Cc3ccccc3)c2)cc1 (optimized conformer: 98.13675104216095 kcal/mol)

>  <smiles>  (1) 
CCNC(=O)c1c[nH]c(O)c1Nc1ccc(-c2cncc(C(=O)NCc3ccccc3)c2)cc1

>  <score_type>  (1) 
oracle

>  <origin>  (1) 
adg

>  <m_score__min__energy>  (1) 
-14.710000000000001

>  <m_primary>  (1) 
energy

$$$$
1:0
     RDKit          3D

 37 39  0  0  0  0  0  0  0  0999 V2000
   62.9280   33.4730   47.1170 C   0  0  0  0  0  0  0  0  0  0  0  0
   61.9000   32.5530   46.7690 O   0  0  0  0  0  0  0  0  0  0  0  0
   60.5380   32.8770   46.6660 C   0  0  0  0  0  0  0  0  0  0  0  0
   60.1080   34.1890   46.3850 C   0  0  0  0  0  0  0  0  0  0  0  0
   58.7450   34.4850   46.3040 C   0  0  0  0  0  0  0  0  0  0  0  0
   57.7980   33.4810   46.5070 C   0  0  0  0  0  0  0  0  0  0  0  0
   58.2090   32.1770   46.7870 C   0  0  0  0  0  0  0  0  0  0  0  0
   59.5760   31.8610   46.8580 C   0  0  0  0  0  0  0  0  0  0  0  0
   60.0000   30.4580   47.2130 C   0  0  0  0  0  0  0  0  0  0  0  0
   59.9040   29.5780   46.0000 C   0  0  0  0  0  0  0  0  0  0  0  0
   60.9490   29.3100   45.3480 O   0  0  0  0  0  0  0  0  0  0  0  0
   58.6290   29.1090   45.5260 N   0  0  0  0  0  0  0  0  0  0  0  0
   57.8620   29.9540   44.5970 C   0  0  0  0  0  0  0  0  0  0  0  0
   56.3840   29.7360   44.7480 C   0  0  0  0  0  0  0  0  0  0  0  0
   55.5750   30.6300   44.3870 O   0  0  0  0  0  0  0  0  0  0  0  0
   55.8900   28.4870   45.2290 N   0  0  0  0  0  0  0  0  0  0  0  0
   56.7850   27.4880   45.7180 C   0  0  0  0  0  0  0  0  0  0  0  0
   56.2950   26.2200   46.0510 C   0  0  0  0  0  0  0  0  0  0  0  0
   57.1680   25.2340   46.5200 C   0  0  0  0  0  0  0  0  0  0  0  0
   58.5290   25.5130   46.6570 C   0  0  0  0  0  0  0  0  0  0  0  0
   59.0230   26.7810   46.3350 C   0  0  0  0  0  0  0  0  0  0  0  0
   58.1510   27.7870   45.8690 C   0  0  0  0  0  0  0  0  0  0  0  0
   63.0039   33.5409   48.2123 H   0  0  0  0  0  0  0  0  0  0  0  0
   63.8864   33.1254   46.7039 H   0  0  0  0  0  0  0  0  0  0  0  0
   62.6885   34.4639   46.7039 H   0  0  0  0  0  0  0  0  0  0  0  0
   60.8503   34.9855   46.2284 H   0  0  0  0  0  0  0  0  0  0  0  0
   58.4182   35.5111   46.0799 H   0  0  0  0  0  0  0  0  0  0  0  0
   56.7254   33.7175   46.4463 H   0  0  0  0  0  0  0  0  0  0  0  0
   57.4574   31.3912   46.9532 H   0  0  0  0  0  0  0  0  0  0  0  0
   61.0388   30.4704   47.5744 H   0  0  0  0  0  0  0  0  0  0  0  0
   59.3395   30.0661   48.0005 H   0  0  0  0  0  0  0  0  0  0  0  0
   58.0905   31.0102   44.8027 H   0  0  0  0  0  0  0  0  0  0  0  0
   58.1476   29.6848   43.5694 H   0  0  0  0  0  0  0  0  0  0  0  0
   55.2227   25.9992   45.9437 H   0  0  0  0  0  0  0  0  0  0  0  0
   56.7822   24.2375   46.7813 H   0  0  0  0  0  0  0  0  0  0  0  0
   59.2149   24.7331   47.0193 H   0  0  0  0  0  0  0  0  0  0  0  0
   60.0963   26.9948   46.4456 H   0  0  0  0  0  0  0  0  0  0  0  0
  1  2  1  0
  2  3  1  0
  3  4  2  0
  4  5  1  0
  5  6  2  0
  6  7  1  0
  7  8  2  0
  8  9  1  0
  9 10  1  0
 10 11  2  0
 10 12  1  0
 12 13  1  0
 13 14  1  0
 14 15  2  0
 14 16  1  0
 16 17  1  0
 17 18  2  0
 18 19  1  0
 19 20  2  0
 20 21  1  0
 21 22  2  0
  8  3  1  0
 22 12  1  0
 22 17  1  0
  1 23  1  0
  1 24  1  0
  1 25  1  0
  4 26  1  0
  5 27  1  0
  6 28  1  0
  7 29  1  0
  9 30  1  0
  9 31  1  0
 13 32  1  0
 13 33  1  0
 18 34  1  0
 19 35  1  0
 20 36  1  0
 21 37  1  0
M  CHG  1  16  -1
M  END
>  <UniqueID>  (2) 
2

>  <SMILES>  (2) 
COc1ccccc1CC(=O)N1CC(=O)[N-]c2ccccc21

>  <Energy>  (2) 
42.65927450028654

>  <Genealogy>  (2) 
COc1ccccc1CC(=O)N1CC(=O)[N-]c2ccccc21 (protonated)
COc1ccccc1CC(=O)N1CC(=O)[N-]c2ccccc21 (3D coordinates assigned)
COc1ccccc1CC(=O)N1CC(=O)[N-]c2ccccc21 (nonaromatic ring conformer: 42.65927450028654 kcal/mol)

>  <smiles>  (2) 
COc1ccccc1CC(=O)N1CC(=O)Nc2ccccc21

>  <score_type>  (2) 
oracle

>  <origin>  (2) 
adg

>  <m_score__min__energy>  (2) 
-9.3200000000000003

>  <m_primary>  (2) 
energy

$$$$
2:0
     RDKit          3D

 54 57  0  0  0  0  0  0  0  0999 V2000
   57.7600   31.9640   42.2260 C   0  0  0  0  0  0  0  0  0  0  0  0
   57.3450   31.0670   43.3470 C   0  0  0  0  0  0  0  0  0  0  0  0
   56.5370   29.6050   43.1080 S   0  0  0  0  0  0  0  0  0  0  0  0
   56.4590   29.2780   44.7460 C   0  0  0  0  0  0  0  0  0  0  0  0
   55.9080   28.2230   45.2500 N   0  0  0  0  0  0  0  0  0  0  0  0
   57.0270   30.2450   45.4930 N   0  0  0  0  0  0  0  0  0  0  0  0
   57.5250   31.2590   44.7300 C   0  0  0  0  0  0  0  0  0  0  0  0
   58.1600   32.4390   45.3700 C   0  0  0  0  0  0  0  0  0  0  0  0
   57.5800   34.0220   45.3840 S   0  0  0  0  0  0  0  0  0  0  0  0
   58.7910   34.6930   46.3340 C   0  0  0  0  0  0  0  0  0  0  0  0
   59.6790   33.6830   46.6680 C   0  0  0  0  0  0  0  0  0  0  0  0
   59.3340   32.4360   46.1300 C   0  0  0  0  0  0  0  0  0  0  0  0
   60.0990   31.2610   46.3910 N   0  0  0  0  0  0  0  0  0  0  0  0
   59.7720   30.3020   47.7910 S   0  0  0  0  0  0  0  0  0  0  0  0
   58.5230   30.7930   48.4680 O   0  0  0  0  0  0  0  0  0  0  0  0
   60.9200   30.4230   48.7530 O   0  0  0  0  0  0  0  0  0  0  0  0
   59.5810   28.6260   47.2940 C   0  0  0  0  0  0  0  0  0  0  0  0
   60.4950   28.0410   46.4070 C   0  0  0  0  0  0  0  0  0  0  0  0
   60.2920   26.7380   45.9460 C   0  0  0  0  0  0  0  0  0  0  0  0
   59.1780   26.0000   46.3760 C   0  0  0  0  0  0  0  0  0  0  0  0
   58.9480   24.6040   45.8590 C   0  0  0  0  0  0  0  0  0  0  0  0
   58.0750   24.5990   44.6000 C   0  0  0  0  0  0  0  0  0  0  0  0
   57.0040   25.5930   44.7150 N   0  0  0  0  0  0  0  0  0  0  0  0
   55.5480   24.8320   45.2820 S   0  0  0  0  0  0  0  0  0  0  0  0
   54.8200   24.2120   44.1220 O   0  0  0  0  0  0  0  0  0  0  0  0
   54.6620   25.8630   45.9200 O   0  0  0  0  0  0  0  0  0  0  0  0
   55.9450   23.6050   46.4820 C   0  0  0  0  0  0  0  0  0  0  0  0
   55.8950   22.2490   46.1280 C   0  0  0  0  0  0  0  0  0  0  0  0
   56.1980   21.2640   47.0730 C   0  0  0  0  0  0  0  0  0  0  0  0
   56.5530   21.6300   48.3760 C   0  0  0  0  0  0  0  0  0  0  0  0
   56.8450   20.6740   49.2920 F   0  0  0  0  0  0  0  0  0  0  0  0
   56.6060   22.9820   48.7330 C   0  0  0  0  0  0  0  0  0  0  0  0
   56.3040   23.9690   47.7880 C   0  0  0  0  0  0  0  0  0  0  0  0
   58.2600   26.5910   47.2590 C   0  0  0  0  0  0  0  0  0  0  0  0
   58.4600   27.8970   47.7140 C   0  0  0  0  0  0  0  0  0  0  0  0
   58.1885   32.8901   42.6368 H   0  0  0  0  0  0  0  0  0  0  0  0
   58.5136   31.4539   41.6080 H   0  0  0  0  0  0  0  0  0  0  0  0
   56.8834   32.2082   41.6080 H   0  0  0  0  0  0  0  0  0  0  0  0
   56.0740   27.2780   44.8380 H   0  0  0  0  0  0  0  0  0  0  0  0
   58.8661   35.7476   46.6375 H   0  0  0  0  0  0  0  0  0  0  0  0
   60.5685   33.8445   47.2947 H   0  0  0  0  0  0  0  0  0  0  0  0
   61.3752   28.6098   46.0727 H   0  0  0  0  0  0  0  0  0  0  0  0
   61.0084   26.2882   45.2428 H   0  0  0  0  0  0  0  0  0  0  0  0
   59.9202   24.1485   45.6197 H   0  0  0  0  0  0  0  0  0  0  0  0
   58.4245   24.0327   46.6397 H   0  0  0  0  0  0  0  0  0  0  0  0
   58.6986   24.8380   43.7259 H   0  0  0  0  0  0  0  0  0  0  0  0
   57.6247   23.6023   44.4828 H   0  0  0  0  0  0  0  0  0  0  0  0
   56.7970   25.9620   43.7590 H   0  0  0  0  0  0  0  0  0  0  0  0
   55.6166   21.9594   45.1040 H   0  0  0  0  0  0  0  0  0  0  0  0
   56.1573   20.2013   46.7921 H   0  0  0  0  0  0  0  0  0  0  0  0
   56.8853   23.2692   49.7574 H   0  0  0  0  0  0  0  0  0  0  0  0
   56.3482   25.0314   48.0698 H   0  0  0  0  0  0  0  0  0  0  0  0
   57.3794   26.0233   47.5941 H   0  0  0  0  0  0  0  0  0  0  0  0
   57.7355   28.3543   48.4039 H   0  0  0  0  0  0  0  0  0  0  0  0
  1  2  1  0
  2  3  1  0
  3  4  1  0
  4  5  2  3
  4  6  1  0
  6  7  1  0
  7  8  1  0
  8  9  1  0
  9 10  1  0
 10 11  2  0
 11 12  1  0
 12 13  1  0
 13 14  1  0
 14 15  2  0
 14 16  2  0
 14 17  1  0
 17 18  2  0
 18 19  1  0
 19 20  2  0
 20 21  1  0
 21 22  1  0
 22 23  1  0
 23 24  1  0
 24 25  2  0
 24 26  2  0
 24 27  1  0
 27 28  2  0
 28 29  1  0
 29 30  2  0
 30 31  1  0
 30 32  1  0
 32 33  2  0
 20 34  1  0
 34 35  2  0
  7  2  2  0
 12  8  2  0
 35 17  1  0
 33 27  1  0
  1 36  1  0
  1 37  1  0
  1 38  1  0
  5 39  1  0
 10 40  1  0
 11 41  1  0
 18 42  1  0
 19 43  1  0
 21 44  1  0
 21 45  1  0
 22 46  1  0
 22 47  1  0
 23 48  1  0
 28 49  1  0
 29 50  1  0
 32 51  1  0
 33 52  1  0
 34 53  1  0
 35 54  1  0
M  CHG  2   6  -1  13  -1
M  END
>  <UniqueID>  (3) 
3

>  <SMILES>  (3) 
Cc1sc(=N)[n-]c1-c1sccc1[N-]S(=O)(=O)c1ccc(CCNS(=O)(=O)c2ccc(F)cc2)cc1

>  <Energy>  (3) 
113.90792238374954

>  <Genealogy>  (3) 
Cc1sc(=N)[n-]c1-c1sccc1[N-]S(=O)(=O)c1ccc(CCNS(=O)(=O)c2ccc(F)cc2)cc1 (protonated)
Cc1sc(=N)[n-]c1-c1sccc1[N-]S(=O)(=O)c1ccc(CCNS(=O)(=O)c2ccc(F)cc2)cc1 (3D coordinates assigned)
Cc1sc(=N)[n-]c1-c1sccc1[N-]S(=O)(=O)c1ccc(CCNS(=O)(=O)c2ccc(F)cc2)cc1 (optimized conformer: 113.90792238374954 kcal/mol)

>  <smiles>  (3) 
Cc1sc(=N)[nH]c1-c1sccc1NS(=O)(=O)c1ccc(CCNS(=O)(=O)c2ccc(F)cc2)cc1

>  <score_type>  (3) 
oracle

>  <origin>  (3) 
adg

>  <m_score__min__energy>  (3) 
-14.24

>  <m_primary>  (3) 
energy

$$$$
3:0
     RDKit          3D

 57 60  0  0  0  0  0  0  0  0999 V2000
   60.2704   31.3268   50.6433 H   0  0  0  0  0  0  0  0  0  0  0  0
   60.4120   30.6950   49.7540 C   0  0  0  0  0  0  0  0  0  0  0  0
   59.8360   29.4650   49.6980 N   0  0  0  0  0  0  0  0  0  0  0  0
   59.9950   28.6370   48.6260 C   0  0  0  0  0  0  0  0  0  0  0  0
   59.4110   27.4730   48.5800 N   0  0  0  0  0  0  0  0  0  0  0  0
   58.7860   26.8770   47.4310 C   0  0  0  0  0  0  0  0  0  0  0  0
   58.9950   25.6570   47.1940 O   0  0  0  0  0  0  0  0  0  0  0  0
   57.8760   27.6350   46.5400 C   0  0  0  0  0  0  0  0  0  0  0  0
   58.2350   28.9190   46.1170 C   0  0  0  0  0  0  0  0  0  0  0  0
   59.1928   29.3505   46.4434 H   0  0  0  0  0  0  0  0  0  0  0  0
   57.3890   29.6630   45.2820 C   0  0  0  0  0  0  0  0  0  0  0  0
   57.7790   31.0490   44.9180 C   0  0  0  0  0  0  0  0  0  0  0  0
   57.8860   31.4300   43.5720 C   0  0  0  0  0  0  0  0  0  0  0  0
   57.7141   30.6887   42.7777 H   0  0  0  0  0  0  0  0  0  0  0  0
   58.2100   32.7470   43.2360 C   0  0  0  0  0  0  0  0  0  0  0  0
   58.3079   33.0354   42.1790 H   0  0  0  0  0  0  0  0  0  0  0  0
   58.4100   33.6990   44.2400 C   0  0  0  0  0  0  0  0  0  0  0  0
   58.6684   34.7332   43.9684 H   0  0  0  0  0  0  0  0  0  0  0  0
   58.2840   33.3460   45.5860 C   0  0  0  0  0  0  0  0  0  0  0  0
   58.4670   34.3450   46.5540 O   0  0  0  0  0  0  0  0  0  0  0  0
   59.6680   34.5330   47.2960 C   0  0  0  0  0  0  0  0  0  0  0  0
   59.4434   34.4978   48.3722 H   0  0  0  0  0  0  0  0  0  0  0  0
   60.3830   33.7358   47.0444 H   0  0  0  0  0  0  0  0  0  0  0  0
   60.1052   35.5105   47.0444 H   0  0  0  0  0  0  0  0  0  0  0  0
   57.9710   32.0130   45.9230 C   0  0  0  0  0  0  0  0  0  0  0  0
   57.8763   31.7253   46.9805 H   0  0  0  0  0  0  0  0  0  0  0  0
   56.1890   29.0650   44.8310 C   0  0  0  0  0  0  0  0  0  0  0  0
   55.2430   29.7620   43.8940 C   0  0  0  0  0  0  0  0  0  0  0  0
   54.4916   30.3156   44.4763 H   0  0  0  0  0  0  0  0  0  0  0  0
   55.8052   30.4634   43.2600 H   0  0  0  0  0  0  0  0  0  0  0  0
   54.7397   29.0172   43.2600 H   0  0  0  0  0  0  0  0  0  0  0  0
   55.8630   27.8150   45.2590 N   0  0  0  0  0  0  0  0  0  0  0  0
   56.6590   27.0950   46.0910 C   0  0  0  0  0  0  0  0  0  0  0  0
   56.3020   25.9360   46.4370 O   0  0  0  0  0  0  0  0  0  0  0  0
   60.7700   29.0580   47.5400 C   0  0  0  0  0  0  0  0  0  0  0  0
   60.9065   28.4004   46.6688 H   0  0  0  0  0  0  0  0  0  0  0  0
   61.3690   30.3190   47.5700 C   0  0  0  0  0  0  0  0  0  0  0  0
   61.9848   30.6535   46.7221 H   0  0  0  0  0  0  0  0  0  0  0  0
   61.1880   31.1620   48.6790 C   0  0  0  0  0  0  0  0  0  0  0  0
   61.8050   32.4650   48.7230 N   0  0  0  0  0  0  0  0  0  0  0  0
   62.6940   32.8960   47.6360 C   0  0  0  0  0  0  0  0  0  0  0  0
   63.3034   32.0410   47.3081 H   0  0  0  0  0  0  0  0  0  0  0  0
   62.0786   33.2690   46.8041 H   0  0  0  0  0  0  0  0  0  0  0  0
   63.6240   34.0270   48.1070 C   0  0  0  0  0  0  0  0  0  0  0  0
   64.5010   34.0667   47.4442 H   0  0  0  0  0  0  0  0  0  0  0  0
   63.0605   34.9711   48.0723 H   0  0  0  0  0  0  0  0  0  0  0  0
   64.0830   33.8150   49.4970 N   0  0  0  0  0  0  0  0  0  0  0  0
   64.9920   32.6590   49.6010 C   0  0  0  0  0  0  0  0  0  0  0  0
   65.1729   32.4290   50.6614 H   0  0  0  0  0  0  0  0  0  0  0  0
   64.5347   31.7876   49.1096 H   0  0  0  0  0  0  0  0  0  0  0  0
   65.9467   32.8979   49.1096 H   0  0  0  0  0  0  0  0  0  0  0  0
   62.9710   33.7320   50.4830 C   0  0  0  0  0  0  0  0  0  0  0  0
   63.2256   32.9647   51.2289 H   0  0  0  0  0  0  0  0  0  0  0  0
   62.8622   34.7322   50.9277 H   0  0  0  0  0  0  0  0  0  0  0  0
   61.6110   33.3690   49.8580 C   0  0  0  0  0  0  0  0  0  0  0  0
   60.9834   32.8745   50.6140 H   0  0  0  0  0  0  0  0  0  0  0  0
   61.1191   34.2880   49.5067 H   0  0  0  0  0  0  0  0  0  0  0  0
  1  2  1  0
  2  3  1  0
  3  4  1  0
  4  5  2  0
  5  6  1  0
  6  7  2  0
  6  8  1  0
  8  9  2  0
  9 10  1  0
  9 11  1  0
 11 12  1  0
 12 13  2  0
 13 14  1  0
 13 15  1  0
 15 16  1  0
 15 17  2  0
 17 18  1  0
 17 19  1  0
 19 20  1  0
 20 21  1  0
 21 22  1  0
 21 23  1  0
 21 24  1  0
 19 25  2  0
 25 26  1  0
 11 27  2  0
 27 28  1  0
 28 29  1  0
 28 30  1  0
 28 31  1  0
 27 32  1  0
 32 33  1  0
 33 34  2  0
  4 35  1  0
 35 36  1  0
 35 37  2  0
 37 38  1  0
 37 39  1  0
 39 40  1  0
 40 41  1  0
 41 42  1  0
 41 43  1  0
 41 44  1  0
 44 45  1  0
 44 46  1  0
 44 47  1  0
 47 48  1  0
 48 49  1  0
 48 50  1  0
 48 51  1  0
 47 52  1  0
 52 53  1  0
 52 54  1  0
 52 55  1  0
 55 56  1  0
 55 57  1  0
 39  2  2  0
 55 40  1  0
 33  8  1  0
 25 12  1  0
M  CHG  2   3  -1  32  -1
M  END
>  <UniqueID>  (4) 
4

>  <SMILES>  (4) 
COc1cccc(-c2cc(C(=O)/N=c3/ccc(N4CCN(C)CC4)c[n-]3)c(=O)[n-]c2C)c1

>  <Energy>  (4) 
88.6374147436005

>  <Genealogy>  (4) 
COc1cccc(-c2cc(C(=O)N=c3ccc(N4CCN(C)CC4)c[n-]3)c(=O)[n-]c2C)c1 (protonated)
COc1cccc(-c2cc(C(=O)/N=c3/ccc(N4CCN(C)CC4)c[n-]3)c(=O)[n-]c2C)c1 (cis-trans isomerization)
COc1cccc(-c2cc(C(=O)/N=c3/ccc(N4CCN(C)CC4)c[n-]3)c(=O)[n-]c2C)c1 (3D coordinates assigned)
COc1cccc(-c2cc(C(=O)/N=c3/ccc(N4CCN(C)CC4)c[n-]3)c(=O)[n-]c2C)c1 (nonaromatic ring conformer: 88.6374147436005 kcal/mol)

>  <smiles>  (4) 
COc1cccc(-c2cc(C(=O)N=c3ccc(N4CCN(C)CC4)c[nH]3)c(=O)[nH]c2C)c1

>  <score_type>  (4) 
oracle

>  <origin>  (4) 
adg

>  <m_score__min__energy>  (4) 
-11.51

>  <m_primary>  (4) 
energy

$$$$
4:0
     RDKit          3D

 67 70  0  0  0  0  0  0  0  0999 V2000
   59.6670   26.4660   47.7650 C   0  0  0  0  0  0  0  0  0  0  0  0
   60.2690   27.5930   46.9800 C   0  0  0  0  0  0  0  0  0  0  0  0
   60.6720   27.3560   45.8080 O   0  0  0  0  0  0  0  0  0  0  0  0
   60.4170   28.9190   47.5390 N   0  0  0  0  0  0  0  0  0  0  0  0
   60.0900   29.1820   48.9480 C   0  0  0  0  0  0  0  0  0  0  0  0
   60.9530   30.3220   49.5110 C   0  0  0  0  0  0  0  0  0  0  0  0
   60.9920   31.5070   48.6340 N   0  0  0  0  0  0  0  0  0  0  0  0
   59.5340   32.4720   48.7110 S   0  0  0  0  0  0  0  0  0  0  0  0
   59.7210   33.6760   49.5910 O   0  0  0  0  0  0  0  0  0  0  0  0
   58.4090   31.6480   49.2720 O   0  0  0  0  0  0  0  0  0  0  0  0
   59.0890   32.9910   47.0870 C   0  0  0  0  0  0  0  0  0  0  0  0
   59.6480   34.1570   46.5530 C   0  0  0  0  0  0  0  0  0  0  0  0
   59.2740   34.5950   45.2810 C   0  0  0  0  0  0  0  0  0  0  0  0
   58.3400   33.8710   44.5340 C   0  0  0  0  0  0  0  0  0  0  0  0
   57.7820   32.6900   45.0550 C   0  0  0  0  0  0  0  0  0  0  0  0
   56.7930   31.9360   44.3390 N   0  0  0  0  0  0  0  0  0  0  0  0
   56.5650   30.5250   44.4390 C   0  0  0  0  0  0  0  0  0  0  0  0
   55.4620   30.0870   44.8650 O   0  0  0  0  0  0  0  0  0  0  0  0
   57.5710   29.6200   43.9640 N   0  0  0  0  0  0  0  0  0  0  0  0
   57.5650   28.2000   44.1940 C   0  0  0  0  0  0  0  0  0  0  0  0
   57.8000   27.2830   43.1510 C   0  0  0  0  0  0  0  0  0  0  0  0
   57.7690   25.9080   43.4000 C   0  0  0  0  0  0  0  0  0  0  0  0
   57.4880   25.4290   44.6860 C   0  0  0  0  0  0  0  0  0  0  0  0
   57.4290   23.6970   45.0050 S   0  0  0  0  0  0  0  0  0  0  0  0
   57.7520   22.9340   43.7490 O   0  0  0  0  0  0  0  0  0  0  0  0
   58.4610   23.3630   46.0450 O   0  0  0  0  0  0  0  0  0  0  0  0
   55.8410   23.2600   45.5840 N   0  0  0  0  0  0  0  0  0  0  0  0
   55.7550   23.4860   47.0380 C   0  0  0  0  0  0  0  0  0  0  0  0
   54.4400   22.9100   47.5960 C   0  0  0  0  0  0  0  0  0  0  0  0
   53.3450   22.7950   46.5230 C   0  0  0  0  0  0  0  0  0  0  0  0
   53.4250   23.9600   45.5330 C   0  0  0  0  0  0  0  0  0  0  0  0
   54.8160   24.0480   44.8670 C   0  0  0  0  0  0  0  0  0  0  0  0
   57.2190   26.3370   45.7170 C   0  0  0  0  0  0  0  0  0  0  0  0
   57.2530   27.7120   45.4720 C   0  0  0  0  0  0  0  0  0  0  0  0
   58.1470   32.2670   46.3410 C   0  0  0  0  0  0  0  0  0  0  0  0
   61.3920   31.1760   47.2550 C   0  0  0  0  0  0  0  0  0  0  0  0
   60.5290   30.0710   46.6340 C   0  0  0  0  0  0  0  0  0  0  0  0
   59.7756   26.6693   48.8406 H   0  0  0  0  0  0  0  0  0  0  0  0
   58.5997   26.3742   47.5151 H   0  0  0  0  0  0  0  0  0  0  0  0
   60.1841   25.5278   47.5151 H   0  0  0  0  0  0  0  0  0  0  0  0
   59.0291   29.4626   49.0246 H   0  0  0  0  0  0  0  0  0  0  0  0
   60.2910   28.2705   49.5301 H   0  0  0  0  0  0  0  0  0  0  0  0
   60.5430   30.6221   50.4866 H   0  0  0  0  0  0  0  0  0  0  0  0
   61.9821   29.9428   49.5950 H   0  0  0  0  0  0  0  0  0  0  0  0
   60.3837   34.7300   47.1364 H   0  0  0  0  0  0  0  0  0  0  0  0
   59.7157   35.5127   44.8653 H   0  0  0  0  0  0  0  0  0  0  0  0
   58.0410   34.2259   43.5367 H   0  0  0  0  0  0  0  0  0  0  0  0
   58.3240   30.0180   43.3580 H   0  0  0  0  0  0  0  0  0  0  0  0
   58.0089   27.6508   42.1356 H   0  0  0  0  0  0  0  0  0  0  0  0
   57.9661   25.1989   42.5825 H   0  0  0  0  0  0  0  0  0  0  0  0
   56.6049   22.9925   47.5320 H   0  0  0  0  0  0  0  0  0  0  0  0
   55.7802   24.5684   47.2321 H   0  0  0  0  0  0  0  0  0  0  0  0
   54.6392   21.9086   48.0053 H   0  0  0  0  0  0  0  0  0  0  0  0
   54.0761   23.5994   48.3721 H   0  0  0  0  0  0  0  0  0  0  0  0
   53.4740   21.8489   45.9769 H   0  0  0  0  0  0  0  0  0  0  0  0
   52.3634   22.8221   47.0186 H   0  0  0  0  0  0  0  0  0  0  0  0
   52.6639   23.8171   44.7518 H   0  0  0  0  0  0  0  0  0  0  0  0
   53.2499   24.8940   46.0870 H   0  0  0  0  0  0  0  0  0  0  0  0
   54.7379   23.6700   43.8370 H   0  0  0  0  0  0  0  0  0  0  0  0
   55.1300   25.1020   44.8899 H   0  0  0  0  0  0  0  0  0  0  0  0
   56.9798   25.9662   46.7246 H   0  0  0  0  0  0  0  0  0  0  0  0
   57.0335   28.4173   46.2871 H   0  0  0  0  0  0  0  0  0  0  0  0
   57.6916   31.3612   46.7679 H   0  0  0  0  0  0  0  0  0  0  0  0
   61.3024   32.0811   46.6364 H   0  0  0  0  0  0  0  0  0  0  0  0
   62.4274   30.8064   47.2906 H   0  0  0  0  0  0  0  0  0  0  0  0
   59.5237   30.4698   46.4333 H   0  0  0  0  0  0  0  0  0  0  0  0
   61.0051   29.7378   45.7000 H   0  0  0  0  0  0  0  0  0  0  0  0
  1  2  1  0
  2  3  2  0
  2  4  1  0
  4  5  1  0
  5  6  1  0
  6  7  1  0
  7  8  1  0
  8  9  2  0
  8 10  2  0
  8 11  1  0
 11 12  2  0
 12 13  1  0
 13 14  2  0
 14 15  1  0
 15 16  1  0
 16 17  1  0
 17 18  2  0
 17 19  1  0
 19 20  1  0
 20 21  2  0
 21 22  1  0
 22 23  2  0
 23 24  1  0
 24 25  2  0
 24 26  2  0
 24 27  1  0
 27 28  1  0
 28 29  1  0
 29 30  1  0
 30 31  1  0
 31 32  1  0
 23 33  1  0
 33 34  2  0
 15 35  2  0
  7 36  1  0
 36 37  1  0
 37  4  1  0
 35 11  1  0
 34 20  1  0
 32 27  1  0
  1 38  1  0
  1 39  1  0
  1 40  1  0
  5 41  1  0
  5 42  1  0
  6 43  1  0
  6 44  1  0
 12 45  1  0
 13 46  1  0
 14 47  1  0
 19 48  1  0
 21 49  1  0
 22 50  1  0
 28 51  1  0
 28 52  1  0
 29 53  1  0
 29 54  1  0
 30 55  1  0
 30 56  1  0
 31 57  1  0
 31 58  1  0
 32 59  1  0
 32 60  1  0
 33 61  1  0
 34 62  1  0
 35 63  1  0
 36 64  1  0
 36 65  1  0
 37 66  1  0
 37 67  1  0
M  CHG  1  16  -1
M  END
>  <UniqueID>  (5) 
5

>  <SMILES>  (5) 
CC(=O)N1CCN(S(=O)(=O)c2cccc([N-]C(=O)Nc3ccc(S(=O)(=O)N4CCCCC4)cc3)c2)CC1

>  <Energy>  (5) 
80.8920122948473

>  <Genealogy>  (5) 
CC(=O)N1CCN(S(=O)(=O)c2cccc([N-]C(=O)Nc3ccc(S(=O)(=O)N4CCCCC4)cc3)c2)CC1 (protonated)
CC(=O)N1CCN(S(=O)(=O)c2cccc([N-]C(=O)Nc3ccc(S(=O)(=O)N4CCCCC4)cc3)c2)CC1 (3D coordinates assigned)
CC(=O)N1CCN(S(=O)(=O)c2cccc([N-]C(=O)Nc3ccc(S(=O)(=O)N4CCCCC4)cc3)c2)CC1 (nonaromatic ring conformer: 80.8920122948473 kcal/mol)

>  <smiles>  (5) 
CC(=O)N1CCN(S(=O)(=O)c2cccc(NC(=O)Nc3ccc(S(=O)(=O)N4CCCCC4)cc3)c2)CC1

>  <score_type>  (5) 
oracle

>  <origin>  (5) 
adg

>  <m_score__min__energy>  (5) 
-12.27

>  <m_primary>  (5) 
energy

$$$$
5:0
     RDKit          3D

 52 55  0  0  0  0  0  0  0  0999 V2000
   56.9890   32.7920   48.7430 H   0  0  0  0  0  0  0  0  0  0  0  0
   57.4130   33.1070   47.8780 O   0  0  0  0  0  0  0  0  0  0  0  0
   58.7800   32.9760   47.6460 C   0  0  0  0  0  0  0  0  0  0  0  0
   59.3900   32.5250   46.4910 C   0  0  0  0  0  0  0  0  0  0  0  0
   58.7270   32.1230   45.2430 C   0  0  0  0  0  0  0  0  0  0  0  0
   58.7961   32.8111   44.3876 H   0  0  0  0  0  0  0  0  0  0  0  0
   58.0420   30.9790   45.0650 C   0  0  0  0  0  0  0  0  0  0  0  0
   56.6940   30.9820   44.9920 N   0  0  0  0  0  0  0  0  0  0  0  0
   56.3580   29.6800   44.9140 C   0  0  0  0  0  0  0  0  0  0  0  0
   55.1630   29.2880   44.8550 O   0  0  0  0  0  0  0  0  0  0  0  0
   57.4180   28.8460   44.9090 N   0  0  0  0  0  0  0  0  0  0  0  0
   57.3690   27.3780   44.8630 C   0  0  0  0  0  0  0  0  0  0  0  0
   56.8595   27.0635   43.9402 H   0  0  0  0  0  0  0  0  0  0  0  0
   58.3986   26.9914   44.8846 H   0  0  0  0  0  0  0  0  0  0  0  0
   56.6260   26.8290   46.0460 C   0  0  0  0  0  0  0  0  0  0  0  0
   55.3720   26.7150   45.9950 O   0  0  0  0  0  0  0  0  0  0  0  0
   57.3460   26.3660   47.1930 N   0  0  0  0  0  0  0  0  0  0  0  0
   58.8000   26.3560   47.2910 C   0  0  0  0  0  0  0  0  0  0  0  0
   59.1205   25.4471   47.8212 H   0  0  0  0  0  0  0  0  0  0  0  0
   59.2243   26.3737   46.2763 H   0  0  0  0  0  0  0  0  0  0  0  0
   59.2880   27.5660   48.0430 C   0  0  0  0  0  0  0  0  0  0  0  0
   58.5550   28.7650   48.0080 C   0  0  0  0  0  0  0  0  0  0  0  0
   57.6320   28.8248   47.4126 H   0  0  0  0  0  0  0  0  0  0  0  0
   58.9930   29.8820   48.7260 C   0  0  0  0  0  0  0  0  0  0  0  0
   58.4160   30.8179   48.6924 H   0  0  0  0  0  0  0  0  0  0  0  0
   60.1630   29.8100   49.4860 C   0  0  0  0  0  0  0  0  0  0  0  0
   60.5085   30.6903   50.0478 H   0  0  0  0  0  0  0  0  0  0  0  0
   60.8950   28.6200   49.5330 C   0  0  0  0  0  0  0  0  0  0  0  0
   61.8149   28.5642   50.1336 H   0  0  0  0  0  0  0  0  0  0  0  0
   60.4590   27.5000   48.8170 C   0  0  0  0  0  0  0  0  0  0  0  0
   61.0351   26.5639   48.8601 H   0  0  0  0  0  0  0  0  0  0  0  0
   58.5020   29.6560   44.9790 C   0  0  0  0  0  0  0  0  0  0  0  0
   59.7680   29.2230   44.8720 C   0  0  0  0  0  0  0  0  0  0  0  0
   59.9774   28.1447   44.8136 H   0  0  0  0  0  0  0  0  0  0  0  0
   60.5961   29.9465   44.8427 H   0  0  0  0  0  0  0  0  0  0  0  0
   60.7300   32.5960   46.6340 N   0  0  0  0  0  0  0  0  0  0  0  0
   60.8930   33.0570   47.8940 C   0  0  0  0  0  0  0  0  0  0  0  0
   62.0260   33.2440   48.4110 O   0  0  0  0  0  0  0  0  0  0  0  0
   59.7300   33.3010   48.5370 N   0  0  0  0  0  0  0  0  0  0  0  0
   59.5370   33.8040   49.8960 C   0  0  0  0  0  0  0  0  0  0  0  0
   60.4935   34.1864   50.2818 H   0  0  0  0  0  0  0  0  0  0  0  0
   58.7909   34.6121   49.8786 H   0  0  0  0  0  0  0  0  0  0  0  0
   59.0470   32.7020   50.7880 C   0  0  0  0  0  0  0  0  0  0  0  0
   57.7950   32.1980   50.6040 N   0  0  0  0  0  0  0  0  0  0  0  0
   57.2950   31.2110   51.3960 C   0  0  0  0  0  0  0  0  0  0  0  0
   56.2805   30.8248   51.2181 H   0  0  0  0  0  0  0  0  0  0  0  0
   58.0680   30.6880   52.4340 C   0  0  0  0  0  0  0  0  0  0  0  0
   57.6711   29.8855   53.0731 H   0  0  0  0  0  0  0  0  0  0  0  0
   59.3510   31.1950   52.6520 C   0  0  0  0  0  0  0  0  0  0  0  0
   59.9711   30.7942   53.4674 H   0  0  0  0  0  0  0  0  0  0  0  0
   59.8440   32.2110   51.8330 C   0  0  0  0  0  0  0  0  0  0  0  0
   60.8490   32.6236   52.0051 H   0  0  0  0  0  0  0  0  0  0  0  0
  1  2  1  0
  2  3  1  0
  3  4  2  0
  4  5  1  0
  5  6  1  0
  5  7  2  0
  7  8  1  0
  8  9  1  0
  9 10  2  0
  9 11  1  0
 11 12  1  0
 12 13  1  0
 12 14  1  0
 12 15  1  0
 15 16  2  0
 15 17  1  0
 17 18  1  0
 18 19  1  0
 18 20  1  0
 18 21  1  0
 21 22  2  0
 22 23  1  0
 22 24  1  0
 24 25  1  0
 24 26  2  0
 26 27  1  0
 26 28  1  0
 28 29  1  0
 28 30  2  0
 30 31  1  0
 11 32  1  0
 32 33  2  0
 33 34  1  0
 33 35  1  0
  4 36  1  0
 36 37  1  0
 37 38  2  0
 37 39  1  0
 39 40  1  0
 40 41  1  0
 40 42  1  0
 40 43  1  0
 43 44  2  0
 44 45  1  0
 45 46  1  0
 45 47  2  0
 47 48  1  0
 47 49  1  0
 49 50  1  0
 49 51  2  0
 51 52  1  0
 39  3  1  0
 51 43  1  0
 32  7  1  0
 30 21  1  0
M  CHG  3   8  -1  17  -1  36  -1
M  END
>  <UniqueID>  (6) 
6

>  <SMILES>  (6) 
C=c1/c(=C\c2[n-]c(=O)n(Cc3ccccn3)c2O)[n-]c(=O)n1CC(=O)[N-]Cc1ccccc1

>  <Energy>  (6) 
125.4717143450804

>  <Genealogy>  (6) 
C=c1c(=Cc2[n-]c(=O)n(Cc3ccccn3)c2O)[n-]c(=O)n1CC(=O)[N-]Cc1ccccc1 (protonated)
C=c1/c(=C\c2[n-]c(=O)n(Cc3ccccn3)c2O)[n-]c(=O)n1CC(=O)[N-]Cc1ccccc1 (cis-trans isomerization)
C=c1/c(=C\c2[n-]c(=O)n(Cc3ccccn3)c2O)[n-]c(=O)n1CC(=O)[N-]Cc1ccccc1 (3D coordinates assigned)
C=c1/c(=C\c2[n-]c(=O)n(Cc3ccccn3)c2O)[n-]c(=O)n1CC(=O)[N-]Cc1ccccc1 (optimized conformer: 125.4717143450804 kcal/mol)

>  <smiles>  (6) 
C=c1c(=Cc2[nH]c(=O)n(Cc3ccccn3)c2O)[nH]c(=O)n1CC(=O)NCc1ccccc1

>  <score_type>  (6) 
oracle

>  <origin>  (6) 
adg

>  <m_score__min__energy>  (6) 
-13.960000000000001

>  <m_primary>  (6) 
energy

$$$$
6:0
     RDKit          3D

 57 60  0  0  0  0  0  0  0  0999 V2000
   55.1410   29.3220   44.8340 O   0  0  0  0  0  0  0  0  0  0  0  0
   56.3820   29.5100   44.9500 C   0  0  0  0  0  0  0  0  0  0  0  0
   57.1700   28.5180   45.6200 N   0  0  0  0  0  0  0  0  0  0  0  0
   58.6090   28.3530   45.4560 C   0  0  0  0  0  0  0  0  0  0  0  0
   59.3170   29.0070   46.6070 C   0  0  0  0  0  0  0  0  0  0  0  0
   59.3150   28.4030   47.8740 C   0  0  0  0  0  0  0  0  0  0  0  0
   59.9480   29.0280   48.9500 C   0  0  0  0  0  0  0  0  0  0  0  0
   60.5710   30.2660   48.7780 C   0  0  0  0  0  0  0  0  0  0  0  0
   60.5540   30.9010   47.5240 C   0  0  0  0  0  0  0  0  0  0  0  0
   61.2160   32.2110   47.3360 C   0  0  0  0  0  0  0  0  0  0  0  0
   60.9380   32.9050   46.3210 O   0  0  0  0  0  0  0  0  0  0  0  0
   62.1780   32.7020   48.2840 N   0  0  0  0  0  0  0  0  0  0  0  0
   61.7910   32.7980   49.7040 C   0  0  0  0  0  0  0  0  0  0  0  0
   62.9260   33.3770   50.5580 C   0  0  0  0  0  0  0  0  0  0  0  0
   64.2630   32.7320   50.1280 C   0  0  0  0  0  0  0  0  0  0  0  0
   65.4140   33.0170   51.0230 N   0  0  0  0  0  0  0  0  0  0  0  0
   66.7580   32.8920   50.4470 C   0  0  0  0  0  0  0  0  0  0  0  0
   67.6720   33.6620   51.3760 C   0  0  0  0  0  0  0  0  0  0  0  0
   66.7960   34.7640   51.9470 C   0  0  0  0  0  0  0  0  0  0  0  0
   65.3580   34.3360   51.6650 C   0  0  0  0  0  0  0  0  0  0  0  0
   64.6110   33.1080   48.6680 C   0  0  0  0  0  0  0  0  0  0  0  0
   63.3730   33.4040   47.7940 C   0  0  0  0  0  0  0  0  0  0  0  0
   59.9310   30.2600   46.4390 C   0  0  0  0  0  0  0  0  0  0  0  0
   56.9810   30.7290   44.3700 C   0  0  0  0  0  0  0  0  0  0  0  0
   57.3930   31.7830   45.2010 C   0  0  0  0  0  0  0  0  0  0  0  0
   57.9480   32.9420   44.6500 C   0  0  0  0  0  0  0  0  0  0  0  0
   58.4630   34.2520   45.6960 Cl  0  0  0  0  0  0  0  0  0  0  0  0
   58.0830   33.0610   43.2630 C   0  0  0  0  0  0  0  0  0  0  0  0
   57.6560   32.0250   42.4280 C   0  0  0  0  0  0  0  0  0  0  0  0
   57.1010   30.8640   42.9750 C   0  0  0  0  0  0  0  0  0  0  0  0
   56.7010   29.8660   42.1460 F   0  0  0  0  0  0  0  0  0  0  0  0
   58.8559   27.2813   45.4336 H   0  0  0  0  0  0  0  0  0  0  0  0
   58.9287   28.8202   44.5129 H   0  0  0  0  0  0  0  0  0  0  0  0
   58.8135   27.4349   48.0195 H   0  0  0  0  0  0  0  0  0  0  0  0
   59.9561   28.5433   49.9374 H   0  0  0  0  0  0  0  0  0  0  0  0
   61.0775   30.7466   49.6280 H   0  0  0  0  0  0  0  0  0  0  0  0
   60.9097   33.4504   49.7910 H   0  0  0  0  0  0  0  0  0  0  0  0
   61.5661   31.7852   50.0697 H   0  0  0  0  0  0  0  0  0  0  0  0
   62.9785   34.4659   50.4113 H   0  0  0  0  0  0  0  0  0  0  0  0
   62.7364   33.1630   51.6202 H   0  0  0  0  0  0  0  0  0  0  0  0
   64.0919   31.6483   50.2080 H   0  0  0  0  0  0  0  0  0  0  0  0
   67.0593   31.8351   50.4009 H   0  0  0  0  0  0  0  0  0  0  0  0
   66.7986   33.2830   49.4196 H   0  0  0  0  0  0  0  0  0  0  0  0
   68.0490   33.0105   52.1781 H   0  0  0  0  0  0  0  0  0  0  0  0
   68.5570   34.0587   50.8569 H   0  0  0  0  0  0  0  0  0  0  0  0
   66.9614   34.8631   53.0300 H   0  0  0  0  0  0  0  0  0  0  0  0
   67.0252   35.7403   51.4950 H   0  0  0  0  0  0  0  0  0  0  0  0
   64.7924   34.2729   52.6063 H   0  0  0  0  0  0  0  0  0  0  0  0
   64.8548   35.0656   51.0135 H   0  0  0  0  0  0  0  0  0  0  0  0
   65.2489   34.0041   48.6823 H   0  0  0  0  0  0  0  0  0  0  0  0
   65.1193   32.2396   48.2237 H   0  0  0  0  0  0  0  0  0  0  0  0
   63.1796   34.4868   47.8057 H   0  0  0  0  0  0  0  0  0  0  0  0
   63.5826   33.0506   46.7736 H   0  0  0  0  0  0  0  0  0  0  0  0
   59.9240   30.7429   45.4507 H   0  0  0  0  0  0  0  0  0  0  0  0
   57.2785   31.6965   46.2916 H   0  0  0  0  0  0  0  0  0  0  0  0
   58.5253   33.9701   42.8294 H   0  0  0  0  0  0  0  0  0  0  0  0
   57.7568   32.1232   41.3370 H   0  0  0  0  0  0  0  0  0  0  0  0
  1  2  2  0
  2  3  1  0
  3  4  1  0
  4  5  1  0
  5  6  2  0
  6  7  1  0
  7  8  2  0
  8  9  1  0
  9 10  1  0
 10 11  2  0
 10 12  1  0
 12 13  1  0
 13 14  1  0
 14 15  1  0
 15 16  1  0
 16 17  1  0
 17 18  1  0
 18 19  1  0
 19 20  1  0
 15 21  1  0
 21 22  1  0
  9 23  2  0
  2 24  1  0
 24 25  2  0
 25 26  1  0
 26 27  1  0
 26 28  2  0
 28 29  1  0
 29 30  2  0
 30 31  1  0
 23  5  1  0
 30 24  1  0
 22 12  1  0
 20 16  1  0
  4 32  1  0
  4 33  1  0
  6 34  1  0
  7 35  1  0
  8 36  1  0
 13 37  1  0
 13 38  1  0
 14 39  1  0
 14 40  1  0
 15 41  1  0
 17 42  1  0
 17 43  1  0
 18 44  1  0
 18 45  1  0
 19 46  1  0
 19 47  1  0
 20 48  1  0
 20 49  1  0
 21 50  1  0
 21 51  1  0
 22 52  1  0
 22 53  1  0
 23 54  1  0
 25 55  1  0
 28 56  1  0
 29 57  1  0
M  CHG  1   3  -1
M  END
>  <UniqueID>  (7) 
7

>  <SMILES>  (7) 
O=C([N-]Cc1cccc(C(=O)N2CCC(N3CCCC3)CC2)c1)c1cc(Cl)ccc1F

>  <Energy>  (7) 
78.39255998020562

>  <Genealogy>  (7) 
O=C([N-]Cc1cccc(C(=O)N2CCC(N3CCCC3)CC2)c1)c1cc(Cl)ccc1F (protonated)
O=C([N-]Cc1cccc(C(=O)N2CCC(N3CCCC3)CC2)c1)c1cc(Cl)ccc1F (3D coordinates assigned)
O=C([N-]Cc1cccc(C(=O)N2CCC(N3CCCC3)CC2)c1)c1cc(Cl)ccc1F (nonaromatic ring conformer: 78.39255998020562 kcal/mol)

>  <smiles>  (7) 
O=C(NCc1cccc(C(=O)N2CCC(N3CCCC3)CC2)c1)c1cc(Cl)ccc1F

>  <score_type>  (7) 
oracle

>  <origin>  (7) 
adg

>  <m_score__min__energy>  (7) 
-12.27

>  <m_primary>  (7) 
energy

$$$$
7:0
     RDKit          3D

 48 50  0  0  0  0  0  0  0  0999 V2000
   59.9220   28.4810   48.8070 C   0  0  0  0  0  0  0  0  0  0  0  0
   59.7110   29.7500   49.1390 C   0  0  0  0  0  0  0  0  0  0  0  0
   58.5810   30.2240   49.7930 O   0  0  0  0  0  0  0  0  0  0  0  0
   58.7190   31.6080   49.9300 C   0  0  0  0  0  0  0  0  0  0  0  0
   59.8770   32.0410   49.4230 C   0  0  0  0  0  0  0  0  0  0  0  0
   60.2850   33.4760   49.2660 C   0  0  0  0  0  0  0  0  0  0  0  0
   60.8650   33.7040   47.8990 C   0  0  0  0  0  0  0  0  0  0  0  0
   62.1050   33.8950   47.7710 O   0  0  0  0  0  0  0  0  0  0  0  0
   60.0350   33.6460   46.7300 N   0  0  0  0  0  0  0  0  0  0  0  0
   59.9900   34.7820   45.8000 C   0  0  0  0  0  0  0  0  0  0  0  0
   58.5840   34.9460   45.2220 C   0  0  0  0  0  0  0  0  0  0  0  0
   58.1240   33.6800   44.4870 C   0  0  0  0  0  0  0  0  0  0  0  0
   58.5790   32.3630   45.1700 C   0  0  2  0  0  0  0  0  0  0  0  0
   57.5260   31.2780   45.0350 C   0  0  0  0  0  0  0  0  0  0  0  0
   56.3410   31.6280   44.7850 O   0  0  0  0  0  0  0  0  0  0  0  0
   57.8230   29.8290   45.1420 C   0  0  0  0  0  0  0  0  0  0  0  0
   59.1650   29.4160   45.1280 C   0  0  0  0  0  0  0  0  0  0  0  0
   59.4950   28.0660   45.2540 C   0  0  0  0  0  0  0  0  0  0  0  0
   58.4970   27.0990   45.3860 C   0  0  0  0  0  0  0  0  0  0  0  0
   58.8810   25.7580   45.5300 O   0  0  0  0  0  0  0  0  0  0  0  0
   58.0220   24.6440   45.2990 C   0  0  0  0  0  0  0  0  0  0  0  0
   57.1490   27.4980   45.3670 C   0  0  0  0  0  0  0  0  0  0  0  0
   56.8080   28.8530   45.2400 C   0  0  0  0  0  0  0  0  0  0  0  0
   55.4640   29.2220   45.2050 O   0  0  0  0  0  0  0  0  0  0  0  0
   59.0690   32.5470   46.6240 C   0  0  0  0  0  0  0  0  0  0  0  0
   60.5760   30.8830   48.8830 C   0  0  0  0  0  0  0  0  0  0  0  0
   61.6820   30.8770   48.2790 O   0  0  0  0  0  0  0  0  0  0  0  0
   60.8491   28.1949   48.2887 H   0  0  0  0  0  0  0  0  0  0  0  0
   59.1696   27.7164   49.0504 H   0  0  0  0  0  0  0  0  0  0  0  0
   57.9669   32.2605   50.3976 H   0  0  0  0  0  0  0  0  0  0  0  0
   59.4039   34.1209   49.3990 H   0  0  0  0  0  0  0  0  0  0  0  0
   61.0452   33.7179   50.0233 H   0  0  0  0  0  0  0  0  0  0  0  0
   60.2701   35.7004   46.3367 H   0  0  0  0  0  0  0  0  0  0  0  0
   60.6938   34.5947   44.9756 H   0  0  0  0  0  0  0  0  0  0  0  0
   57.8829   35.1567   46.0430 H   0  0  0  0  0  0  0  0  0  0  0  0
   58.6037   35.7752   44.4995 H   0  0  0  0  0  0  0  0  0  0  0  0
   57.0250   33.6854   44.4402 H   0  0  0  0  0  0  0  0  0  0  0  0
   58.5863   33.7014   43.4891 H   0  0  0  0  0  0  0  0  0  0  0  0
   59.4710   32.0261   44.6216 H   0  0  0  0  0  0  0  0  0  0  0  0
   59.9639   30.1639   45.0166 H   0  0  0  0  0  0  0  0  0  0  0  0
   60.5518   27.7609   45.2493 H   0  0  0  0  0  0  0  0  0  0  0  0
   57.6984   24.2244   46.2630 H   0  0  0  0  0  0  0  0  0  0  0  0
   57.1411   24.9725   44.7279 H   0  0  0  0  0  0  0  0  0  0  0  0
   58.5636   23.8756   44.7279 H   0  0  0  0  0  0  0  0  0  0  0  0
   56.3550   26.7415   45.4524 H   0  0  0  0  0  0  0  0  0  0  0  0
   55.1370   30.0880   45.6170 H   0  0  0  0  0  0  0  0  0  0  0  0
   58.2045   32.7675   47.2675 H   0  0  0  0  0  0  0  0  0  0  0  0
   59.5660   31.6184   46.9412 H   0  0  0  0  0  0  0  0  0  0  0  0
  1  2  2  0
  2  3  1  0
  3  4  1  0
  4  5  2  0
  5  6  1  0
  6  7  1  0
  7  8  2  0
  7  9  1  0
  9 10  1  0
 10 11  1  0
 11 12  1  0
 12 13  1  0
 13 14  1  0
 14 15  2  0
 14 16  1  0
 16 17  2  0
 17 18  1  0
 18 19  2  0
 19 20  1  0
 20 21  1  0
 19 22  1  0
 22 23  2  0
 23 24  1  0
 13 25  1  0
  5 26  1  0
 26 27  2  0
 26  2  1  0
 25  9  1  0
 23 16  1  0
  1 28  1  0
  1 29  1  0
  4 30  1  0
  6 31  1  0
  6 32  1  0
 10 33  1  0
 10 34  1  0
 11 35  1  0
 11 36  1  0
 12 37  1  0
 12 38  1  0
 13 39  1  6
 17 40  1  0
 18 41  1  0
 21 42  1  0
 21 43  1  0
 21 44  1  0
 22 45  1  0
 24 46  1  0
 25 47  1  0
 25 48  1  0
M  END
>  <UniqueID>  (8) 
8

>  <SMILES>  (8) 
C=C1OC=C(CC(=O)N2CCC[C@H](C(=O)c3ccc(OC)cc3O)C2)C1=O

>  <Energy>  (8) 
82.6902935369293

>  <Genealogy>  (8) 
C=C1OC=C(CC(=O)N2CCC[C@H](C(=O)c3ccc(OC)cc3O)C2)C1=O (chirality)
C=C1OC=C(CC(=O)N2CCC[C@H](C(=O)c3ccc(OC)cc3O)C2)C1=O (3D coordinates assigned)
C=C1OC=C(CC(=O)N2CCC[C@H](C(=O)c3ccc(OC)cc3O)C2)C1=O (nonaromatic ring conformer: 82.6902935369293 kcal/mol)

>  <smiles>  (8) 
C=C1OC=C(CC(=O)N2CCCC(C(=O)c3ccc(OC)cc3O)C2)C1=O

>  <score_type>  (8) 
oracle

>  <origin>  (8) 
adg

>  <m_score__min__energy>  (8) 
-9.6899999999999995

>  <m_primary>  (8) 
energy

$$$$
8:0
     RDKit          3D

 44 47  0  0  0  0  0  0  0  0999 V2000
   58.8750   34.8220   52.3620 N   0  0  0  0  0  0  0  0  0  0  0  0
   58.3810   33.1660   52.3670 S   0  0  0  0  0  0  0  0  0  0  0  0
   56.8800   33.0910   52.3670 O   0  0  0  0  0  0  0  0  0  0  0  0
   58.8980   32.4870   53.6050 O   0  0  0  0  0  0  0  0  0  0  0  0
   59.0180   32.3610   50.9370 C   0  0  0  0  0  0  0  0  0  0  0  0
   58.9830   33.0060   49.6930 C   0  0  0  0  0  0  0  0  0  0  0  0
   59.4750   32.3630   48.5530 C   0  0  0  0  0  0  0  0  0  0  0  0
   60.0100   31.0680   48.6450 C   0  0  0  0  0  0  0  0  0  0  0  0
   60.5070   30.3570   47.4140 C   0  0  0  0  0  0  0  0  0  0  0  0
   59.3950   29.6890   46.7280 N   0  0  0  0  0  0  0  0  0  0  0  0
   58.9210   30.2060   45.4240 C   0  0  0  0  0  0  0  0  0  0  0  0
   57.4020   29.9940   45.2230 C   0  0  0  0  0  0  0  0  0  0  0  0
   57.0140   28.6060   45.6300 C   0  0  0  0  0  0  0  0  0  0  0  0
   55.9160   27.9320   45.2540 N   0  0  0  0  0  0  0  0  0  0  0  0
   55.9880   26.8010   46.0020 C   0  0  0  0  0  0  0  0  0  0  0  0
   55.1280   25.8280   45.9230 N   0  0  0  0  0  0  0  0  0  0  0  0
   55.4040   24.4660   45.5590 C   0  0  0  0  0  0  0  0  0  0  0  0
   56.0500   24.1300   44.3540 C   0  0  0  0  0  0  0  0  0  0  0  0
   56.2570   22.7850   44.0390 C   0  0  0  0  0  0  0  0  0  0  0  0
   55.8100   21.7900   44.9080 C   0  0  0  0  0  0  0  0  0  0  0  0
   55.1480   22.1570   46.0810 C   0  0  0  0  0  0  0  0  0  0  0  0
   54.9560   23.4710   46.3720 N   0  0  0  0  0  0  0  0  0  0  0  0
   57.0620   26.7370   46.8260 N   0  0  0  0  0  0  0  0  0  0  0  0
   57.6840   27.8980   46.5750 C   0  0  0  0  0  0  0  0  0  0  0  0
   58.8920   28.4210   47.2020 C   0  0  0  0  0  0  0  0  0  0  0  0
   59.4540   27.7960   48.1400 O   0  0  0  0  0  0  0  0  0  0  0  0
   60.0310   30.4200   49.8900 C   0  0  0  0  0  0  0  0  0  0  0  0
   59.5390   31.0630   51.0300 C   0  0  0  0  0  0  0  0  0  0  0  0
   58.8360   35.1550   53.3520 H   0  0  0  0  0  0  0  0  0  0  0  0
   58.1480   35.3560   51.8350 H   0  0  0  0  0  0  0  0  0  0  0  0
   58.5672   34.0212   49.6133 H   0  0  0  0  0  0  0  0  0  0  0  0
   59.4428   32.8741   47.5795 H   0  0  0  0  0  0  0  0  0  0  0  0
   60.9665   31.0885   46.7331 H   0  0  0  0  0  0  0  0  0  0  0  0
   61.2491   29.6017   47.7120 H   0  0  0  0  0  0  0  0  0  0  0  0
   59.1375   31.2832   45.3712 H   0  0  0  0  0  0  0  0  0  0  0  0
   59.4450   29.6505   44.6323 H   0  0  0  0  0  0  0  0  0  0  0  0
   56.8496   30.7203   45.8372 H   0  0  0  0  0  0  0  0  0  0  0  0
   57.1577   30.1373   44.1601 H   0  0  0  0  0  0  0  0  0  0  0  0
   56.3886   24.9194   43.6669 H   0  0  0  0  0  0  0  0  0  0  0  0
   56.7720   22.5109   43.1065 H   0  0  0  0  0  0  0  0  0  0  0  0
   55.9771   20.7287   44.6720 H   0  0  0  0  0  0  0  0  0  0  0  0
   54.7814   21.3822   46.7705 H   0  0  0  0  0  0  0  0  0  0  0  0
   60.4368   29.4007   49.9692 H   0  0  0  0  0  0  0  0  0  0  0  0
   59.5609   30.5490   52.0023 H   0  0  0  0  0  0  0  0  0  0  0  0
  1  2  1  0
  2  3  2  0
  2  4  2  0
  2  5  1  0
  5  6  2  0
  6  7  1  0
  7  8  2  0
  8  9  1  0
  9 10  1  0
 10 11  1  0
 11 12  1  0
 12 13  1  0
 13 14  1  0
 14 15  1  0
 15 16  2  3
 16 17  1  0
 17 18  2  0
 18 19  1  0
 19 20  2  0
 20 21  1  0
 21 22  2  0
 15 23  1  0
 23 24  1  0
 24 25  1  0
 25 26  2  0
  8 27  1  0
 27 28  2  0
 28  5  1  0
 25 10  1  0
 24 13  2  0
 22 17  1  0
  1 29  1  0
  1 30  1  0
  6 31  1  0
  7 32  1  0
  9 33  1  0
  9 34  1  0
 11 35  1  0
 11 36  1  0
 12 37  1  0
 12 38  1  0
 18 39  1  0
 19 40  1  0
 20 41  1  0
 21 42  1  0
 27 43  1  0
 28 44  1  0
M  CHG  2  14  -1  23  -1
M  END
>  <UniqueID>  (9) 
9

>  <SMILES>  (9) 
NS(=O)(=O)c1ccc(CN2CCc3[n-]c(=Nc4ccccn4)[n-]c3C2=O)cc1

>  <Energy>  (9) 
83.11744315076692

>  <Genealogy>  (9) 
NS(=O)(=O)c1ccc(CN2CCc3[n-]c(=Nc4ccccn4)[n-]c3C2=O)cc1 (protonated)
NS(=O)(=O)c1ccc(CN2CCc3[n-]c(=Nc4ccccn4)[n-]c3C2=O)cc1 (3D coordinates assigned)
NS(=O)(=O)c1ccc(CN2CCc3[n-]c(=Nc4ccccn4)[n-]c3C2=O)cc1 (nonaromatic ring conformer: 83.11744315076692 kcal/mol)

>  <smiles>  (9) 
NS(=O)(=O)c1ccc(CN2CCc3[nH]c(=Nc4ccccn4)[nH]c3C2=O)cc1

>  <score_type>  (9) 
oracle

>  <origin>  (9) 
adg

>  <m_score__min__energy>  (9) 
-11.75

>  <m_primary>  (9) 
energy

$$$$
9:0
     RDKit          3D

 52 54  0  0  0  0  0  0  0  0999 V2000
   59.3424   30.6689   48.8797 H   0  0  0  0  0  0  0  0  0  0  0  0
   59.1100   29.8720   48.1580 C   0  0  0  0  0  0  0  0  0  0  0  0
   59.2076   28.8169   48.4534 H   0  0  0  0  0  0  0  0  0  0  0  0
   58.7060   30.1880   46.9130 C   0  0  0  0  0  0  0  0  0  0  0  0
   58.3840   29.2640   45.9140 C   0  0  0  0  0  0  0  0  0  0  0  0
   58.4040   27.9180   45.9990 C   0  0  0  0  0  0  0  0  0  0  0  0
   59.3817   27.4140   46.0006 H   0  0  0  0  0  0  0  0  0  0  0  0
   57.1920   27.0820   46.0900 C   0  0  0  0  0  0  0  0  0  0  0  0
   57.2060   25.8070   46.5150 N   0  0  0  0  0  0  0  0  0  0  0  0
   55.9250   25.4090   46.3550 C   0  0  0  0  0  0  0  0  0  0  0  0
   55.5310   24.2540   46.6620 O   0  0  0  0  0  0  0  0  0  0  0  0
   55.1020   26.3430   45.8330 N   0  0  0  0  0  0  0  0  0  0  0  0
   55.9210   27.3930   45.6590 C   0  0  0  0  0  0  0  0  0  0  0  0
   55.5230   28.5890   45.0730 O   0  0  0  0  0  0  0  0  0  0  0  0
   57.9720   30.0020   44.8190 C   0  0  0  0  0  0  0  0  0  0  0  0
   57.6272   29.6040   43.8532 H   0  0  0  0  0  0  0  0  0  0  0  0
   58.0760   31.3320   45.1690 C   0  0  0  0  0  0  0  0  0  0  0  0
   57.5800   32.4460   44.2850 C   0  0  0  0  0  0  0  0  0  0  0  0
   56.5143   32.6224   44.4930 H   0  0  0  0  0  0  0  0  0  0  0  0
   58.1699   33.3498   44.4974 H   0  0  0  0  0  0  0  0  0  0  0  0
   57.7480   32.0930   42.8120 C   0  0  0  0  0  0  0  0  0  0  0  0
   58.2192   31.1030   42.7236 H   0  0  0  0  0  0  0  0  0  0  0  0
   56.7621   32.0747   42.3246 H   0  0  0  0  0  0  0  0  0  0  0  0
   58.3840   32.8466   42.3246 H   0  0  0  0  0  0  0  0  0  0  0  0
   58.5450   31.4590   46.4400 N   0  0  0  0  0  0  0  0  0  0  0  0
   58.7610   32.7310   47.1640 C   0  0  0  0  0  0  0  0  0  0  0  0
   58.5260   33.5655   46.4870 H   0  0  0  0  0  0  0  0  0  0  0  0
   58.1049   32.7263   48.0469 H   0  0  0  0  0  0  0  0  0  0  0  0
   60.1900   32.8910   47.6550 C   0  0  0  0  0  0  0  0  0  0  0  0
   61.2180   32.8860   46.6920 C   0  0  0  0  0  0  0  0  0  0  0  0
   60.9626   32.7883   45.6265 H   0  0  0  0  0  0  0  0  0  0  0  0
   62.5530   33.0030   47.0700 C   0  0  0  0  0  0  0  0  0  0  0  0
   63.3440   32.9878   46.3057 H   0  0  0  0  0  0  0  0  0  0  0  0
   62.8870   33.1390   48.4130 C   0  0  0  0  0  0  0  0  0  0  0  0
   63.9433   33.2144   48.7106 H   0  0  0  0  0  0  0  0  0  0  0  0
   61.8870   33.1800   49.3830 C   0  0  0  0  0  0  0  0  0  0  0  0
   62.1651   33.2834   50.4422 H   0  0  0  0  0  0  0  0  0  0  0  0
   60.5230   33.0910   49.0290 C   0  0  0  0  0  0  0  0  0  0  0  0
   59.4260   33.1530   50.0850 C   0  0  0  0  0  0  0  0  0  0  0  0
   59.8202   33.7195   50.9416 H   0  0  0  0  0  0  0  0  0  0  0  0
   58.5667   33.6189   49.5805 H   0  0  0  0  0  0  0  0  0  0  0  0
   58.8990   31.8070   50.6190 C   0  0  0  0  0  0  0  0  0  0  0  0
   59.0250   31.0398   49.8408 H   0  0  0  0  0  0  0  0  0  0  0  0
   59.4705   31.5466   51.5221 H   0  0  0  0  0  0  0  0  0  0  0  0
   57.4830   31.8900   50.9800 N   0  0  0  0  0  0  0  0  0  0  0  0
   56.9330   32.7190   50.6610 H   0  0  0  0  0  0  0  0  0  0  0  0
   56.7880   30.8200   51.6370 C   0  0  0  0  0  0  0  0  0  0  0  0
   57.3730   29.7310   51.8840 O   0  0  0  0  0  0  0  0  0  0  0  0
   55.3500   30.9840   52.0050 C   0  0  0  0  0  0  0  0  0  0  0  0
   55.2508   30.9953   53.1005 H   0  0  0  0  0  0  0  0  0  0  0  0
   54.9717   31.9311   51.5928 H   0  0  0  0  0  0  0  0  0  0  0  0
   54.7682   30.1464   51.5928 H   0  0  0  0  0  0  0  0  0  0  0  0
  1  2  1  0
  2  3  1  0
  2  4  2  0
  4  5  1  0
  5  6  2  0
  6  7  1  0
  6  8  1  0
  8  9  1  0
  9 10  1  0
 10 11  2  0
 10 12  1  0
 12 13  1  0
 13 14  1  0
  5 15  1  0
 15 16  1  0
 15 17  2  0
 17 18  1  0
 18 19  1  0
 18 20  1  0
 18 21  1  0
 21 22  1  0
 21 23  1  0
 21 24  1  0
 17 25  1  0
 25 26  1  0
 26 27  1  0
 26 28  1  0
 26 29  1  0
 29 30  2  0
 30 31  1  0
 30 32  1  0
 32 33  1  0
 32 34  2  0
 34 35  1  0
 34 36  1  0
 36 37  1  0
 36 38  2  0
 38 39  1  0
 39 40  1  0
 39 41  1  0
 39 42  1  0
 42 43  1  0
 42 44  1  0
 42 45  1  0
 45 46  1  0
 45 47  1  0
 47 48  2  0
 47 49  1  0
 49 50  1  0
 49 51  1  0
 49 52  1  0
 25  4  1  0
 38 29  1  0
 13  8  2  0
M  CHG  3   9  -1  12  -1  14  -1
M  END
>  <UniqueID>  (10) 
10

>  <SMILES>  (10) 
C=c1/c(=C/c2[n-]c(=O)[n-]c2[O-])cc(CC)n1Cc1ccccc1CCNC(C)=O

>  <Energy>  (10) 
117.88489752626363

>  <Genealogy>  (10) 
C=c1c(=Cc2[n-]c(=O)[n-]c2[O-])cc(CC)n1Cc1ccccc1CCNC(C)=O (protonated)
C=c1/c(=C/c2[n-]c(=O)[n-]c2[O-])cc(CC)n1Cc1ccccc1CCNC(C)=O (cis-trans isomerization)
C=c1/c(=C/c2[n-]c(=O)[n-]c2[O-])cc(CC)n1Cc1ccccc1CCNC(C)=O (3D coordinates assigned)
C=c1/c(=C/c2[n-]c(=O)[n-]c2[O-])cc(CC)n1Cc1ccccc1CCNC(C)=O (optimized conformer: 117.88489752626363 kcal/mol)

>  <smiles>  (10) 
C=c1c(=Cc2[nH]c(=O)[nH]c2O)cc(CC)n1Cc1ccccc1CCNC(C)=O

>  <score_type>  (10) 
oracle

>  <origin>  (10) 
adg

>  <m_score__min__energy>  (10) 
-16.390000000000001

>  <m_primary>  (10) 
energy

$$$$
10:0
     RDKit          3D

 63 66  0  0  0  0  0  0  0  0999 V2000
   61.9090   32.1260   47.6380 C   0  0  0  0  0  0  0  0  0  0  0  0
   62.9240   33.2470   47.9100 C   0  0  0  0  0  0  0  0  0  0  0  0
   63.3800   33.8430   46.5660 C   0  0  0  0  0  0  0  0  0  0  0  0
   64.1240   32.6590   48.6790 C   0  0  0  0  0  0  0  0  0  0  0  0
   62.2550   34.2390   48.7010 O   0  0  0  0  0  0  0  0  0  0  0  0
   60.9140   34.2110   49.1180 C   0  0  0  0  0  0  0  0  0  0  0  0
   60.5940   33.7380   50.2390 O   0  0  0  0  0  0  0  0  0  0  0  0
   59.8930   34.7730   48.2880 N   0  0  0  0  0  0  0  0  0  0  0  0
   59.3850   34.1930   47.0780 C   0  0  0  0  0  0  0  0  0  0  0  0
   59.6610   34.8380   45.8480 C   0  0  0  0  0  0  0  0  0  0  0  0
   59.1790   34.3120   44.6350 C   0  0  0  0  0  0  0  0  0  0  0  0
   58.4150   33.1490   44.6920 C   0  0  0  0  0  0  0  0  0  0  0  0
   57.8580   32.4820   43.6720 N   0  0  0  0  0  0  0  0  0  0  0  0
   57.2340   31.4520   44.3030 C   0  0  0  0  0  0  0  0  0  0  0  0
   56.4480   30.4090   43.5640 C   0  0  0  0  0  0  0  0  0  0  0  0
   56.7280   29.0040   44.1110 C   0  0  0  0  0  0  0  0  0  0  0  0
   58.0790   28.5540   43.7040 N   0  0  0  0  0  0  0  0  0  0  0  0
   58.1410   27.1060   43.4200 C   0  0  0  0  0  0  0  0  0  0  0  0
   58.1880   26.2580   44.7110 C   0  0  0  0  0  0  0  0  0  0  0  0
   59.0020   26.8550   45.7990 N   0  0  0  0  0  0  0  0  0  0  0  0
   58.1750   27.3020   46.9420 C   0  0  0  0  0  0  0  0  0  0  0  0
   58.9710   28.1640   47.8900 C   0  0  0  0  0  0  0  0  0  0  0  0
   58.6920   29.5350   48.0120 C   0  0  0  0  0  0  0  0  0  0  0  0
   59.4350   30.3280   48.8930 C   0  0  0  0  0  0  0  0  0  0  0  0
   60.4600   29.7590   49.6530 C   0  0  0  0  0  0  0  0  0  0  0  0
   60.7440   28.3950   49.5340 C   0  0  0  0  0  0  0  0  0  0  0  0
   60.0030   27.5990   48.6570 C   0  0  0  0  0  0  0  0  0  0  0  0
   59.9240   27.8980   45.3070 C   0  0  0  0  0  0  0  0  0  0  0  0
   59.1810   29.0320   44.5760 C   0  0  0  0  0  0  0  0  0  0  0  0
   57.3680   31.4530   45.6550 N   0  0  0  0  0  0  0  0  0  0  0  0
   58.1270   32.5350   45.8710 C   0  0  0  0  0  0  0  0  0  0  0  0
   58.5840   33.0240   47.0920 C   0  0  0  0  0  0  0  0  0  0  0  0
   61.5436   31.7224   48.5938 H   0  0  0  0  0  0  0  0  0  0  0  0
   61.0626   32.5294   47.0627 H   0  0  0  0  0  0  0  0  0  0  0  0
   62.3942   31.3237   47.0627 H   0  0  0  0  0  0  0  0  0  0  0  0
   64.0388   34.7041   46.7515 H   0  0  0  0  0  0  0  0  0  0  0  0
   63.9268   33.0796   45.9931 H   0  0  0  0  0  0  0  0  0  0  0  0
   62.5002   34.1711   45.9931 H   0  0  0  0  0  0  0  0  0  0  0  0
   63.9449   32.7468   49.7608 H   0  0  0  0  0  0  0  0  0  0  0  0
   64.2464   31.5988   48.4124 H   0  0  0  0  0  0  0  0  0  0  0  0
   65.0368   33.2119   48.4124 H   0  0  0  0  0  0  0  0  0  0  0  0
   60.2592   35.7611   45.8406 H   0  0  0  0  0  0  0  0  0  0  0  0
   59.3981   34.8025   43.6751 H   0  0  0  0  0  0  0  0  0  0  0  0
   55.3752   30.6272   43.6708 H   0  0  0  0  0  0  0  0  0  0  0  0
   56.7486   30.4345   42.5062 H   0  0  0  0  0  0  0  0  0  0  0  0
   56.6675   29.0234   45.2092 H   0  0  0  0  0  0  0  0  0  0  0  0
   55.9809   28.3063   43.7048 H   0  0  0  0  0  0  0  0  0  0  0  0
   57.2503   26.8204   42.8411 H   0  0  0  0  0  0  0  0  0  0  0  0
   59.0652   26.9124   42.8557 H   0  0  0  0  0  0  0  0  0  0  0  0
   57.1591   26.1317   45.0789 H   0  0  0  0  0  0  0  0  0  0  0  0
   58.6648   25.3028   44.4458 H   0  0  0  0  0  0  0  0  0  0  0  0
   57.3211   27.8818   46.5615 H   0  0  0  0  0  0  0  0  0  0  0  0
   57.8285   26.4127   47.4889 H   0  0  0  0  0  0  0  0  0  0  0  0
   57.8872   29.9865   47.4133 H   0  0  0  0  0  0  0  0  0  0  0  0
   59.2119   31.4010   48.9875 H   0  0  0  0  0  0  0  0  0  0  0  0
   61.0436   30.3840   50.3450 H   0  0  0  0  0  0  0  0  0  0  0  0
   61.5520   27.9481   50.1318 H   0  0  0  0  0  0  0  0  0  0  0  0
   60.2286   26.5262   48.5669 H   0  0  0  0  0  0  0  0  0  0  0  0
   60.4665   28.3243   46.1637 H   0  0  0  0  0  0  0  0  0  0  0  0
   60.6140   27.4287   44.5903 H   0  0  0  0  0  0  0  0  0  0  0  0
   58.7582   29.7130   45.3293 H   0  0  0  0  0  0  0  0  0  0  0  0
   59.9140   29.5315   43.9255 H   0  0  0  0  0  0  0  0  0  0  0  0
   58.3316   32.5195   48.0364 H   0  0  0  0  0  0  0  0  0  0  0  0
  1  2  1  0
  2  3  1  0
  2  4  1  0
  2  5  1  0
  5  6  1  0
  6  7  2  0
  6  8  1  0
  8  9  1  0
  9 10  2  0
 10 11  1  0
 11 12  2  0
 12 13  1  0
 13 14  1  0
 14 15  1  0
 15 16  1  0
 16 17  1  0
 17 18  1  0
 18 19  1  0
 19 20  1  0
 20 21  1  0
 21 22  1  0
 22 23  2  0
 23 24  1  0
 24 25  2  0
 25 26  1  0
 26 27  2  0
 20 28  1  0
 28 29  1  0
 14 30  2  0
 30 31  1  0
 31 32  2  0
 32  9  1  0
 31 12  1  0
 29 17  1  0
 27 22  1  0
  1 33  1  0
  1 34  1  0
  1 35  1  0
  3 36  1  0
  3 37  1  0
  3 38  1  0
  4 39  1  0
  4 40  1  0
  4 41  1  0
 10 42  1  0
 11 43  1  0
 15 44  1  0
 15 45  1  0
 16 46  1  0
 16 47  1  0
 18 48  1  0
 18 49  1  0
 19 50  1  0
 19 51  1  0
 21 52  1  0
 21 53  1  0
 23 54  1  0
 24 55  1  0
 25 56  1  0
 26 57  1  0
 27 58  1  0
 28 59  1  0
 28 60  1  0
 29 61  1  0
 29 62  1  0
 32 63  1  0
M  CHG  2   8  -1  13  -1
M  END
>  <UniqueID>  (11) 
11

>  <SMILES>  (11) 
CC(C)(C)OC(=O)[N-]c1ccc2[n-]c(CCN3CCN(Cc4ccccc4)CC3)nc2c1

>  <Energy>  (11) 
112.5708456753883

>  <Genealogy>  (11) 
CC(C)(C)OC(=O)[N-]c1ccc2[n-]c(CCN3CCN(Cc4ccccc4)CC3)nc2c1 (protonated)
CC(C)(C)OC(=O)[N-]c1ccc2[n-]c(CCN3CCN(Cc4ccccc4)CC3)nc2c1 (3D coordinates assigned)
CC(C)(C)OC(=O)[N-]c1ccc2[n-]c(CCN3CCN(Cc4ccccc4)CC3)nc2c1 (nonaromatic ring conformer: 112.5708456753883 kcal/mol)

>  <smiles>  (11) 
CC(C)(C)OC(=O)Nc1ccc2[nH]c(CCN3CCN(Cc4ccccc4)CC3)nc2c1

>  <score_type>  (11) 
oracle

>  <origin>  (11) 
adg

>  <m_score__min__energy>  (11) 
-12.34

>  <m_primary>  (11) 
energy

$$$$
11:0
     RDKit          3D

 60 62  0  0  0  0  0  0  0  0999 V2000
   58.5240   32.1240   49.5440 C   0  0  0  0  0  0  0  0  0  0  0  0
   59.8770   31.4460   49.8090 C   0  0  1  0  0  0  0  0  0  0  0  0
   59.7000   30.1190   50.5540 C   0  0  0  0  0  0  0  0  0  0  0  0
   59.7680   29.0360   49.4820 C   0  0  0  0  0  0  0  0  0  0  0  0
   60.5560   29.6490   48.3330 C   0  0  0  0  0  0  0  0  0  0  0  0
   60.5260   31.0880   48.5510 N   0  0  0  0  0  0  0  0  0  0  0  0
   60.9850   32.0260   47.5580 C   0  0  0  0  0  0  0  0  0  0  0  0
   62.2230   32.2050   47.3960 O   0  0  0  0  0  0  0  0  0  0  0  0
   60.0450   32.7660   46.6930 C   0  0  0  0  0  0  0  0  0  0  0  0
   60.1680   34.1540   46.5170 C   0  0  0  0  0  0  0  0  0  0  0  0
   59.2590   34.8450   45.7090 C   0  0  0  0  0  0  0  0  0  0  0  0
   58.2310   34.1550   45.0590 C   0  0  0  0  0  0  0  0  0  0  0  0
   58.1220   32.7600   45.1920 C   0  0  0  0  0  0  0  0  0  0  0  0
   57.0220   32.0080   44.4930 C   0  0  0  0  0  0  0  0  0  0  0  0
   56.7440   30.7490   45.1760 N   0  0  0  0  0  0  0  0  0  0  0  0
   57.0090   29.4480   44.6290 C   0  0  0  0  0  0  0  0  0  0  0  0
   56.3160   29.0330   43.6640 O   0  0  0  0  0  0  0  0  0  0  0  0
   58.1270   28.6170   45.1190 C   0  0  0  0  0  0  0  0  0  0  0  0
   59.4400   29.0760   44.9130 C   0  0  0  0  0  0  0  0  0  0  0  0
   60.5320   28.3450   45.3900 C   0  0  0  0  0  0  0  0  0  0  0  0
   60.3210   27.1580   46.0950 C   0  0  0  0  0  0  0  0  0  0  0  0
   59.0190   26.6970   46.3220 C   0  0  0  0  0  0  0  0  0  0  0  0
   57.9050   27.4110   45.8380 C   0  0  0  0  0  0  0  0  0  0  0  0
   56.5420   26.8720   46.0940 C   0  0  0  0  0  0  0  0  0  0  0  0
   55.5270   27.4630   45.6320 O   0  0  0  0  0  0  0  0  0  0  0  0
   56.3890   25.6600   46.8500 N   0  0  0  0  0  0  0  0  0  0  0  0
   56.0630   24.3280   46.3250 C   0  0  0  0  0  0  0  0  0  0  0  0
   56.0430   23.2910   47.4670 C   0  0  0  0  0  0  0  0  0  0  0  0
   57.1560   23.9440   45.3180 C   0  0  0  0  0  0  0  0  0  0  0  0
   54.7040   24.3570   45.6010 C   0  0  0  0  0  0  0  0  0  0  0  0
   59.0300   32.0720   46.0140 C   0  0  0  0  0  0  0  0  0  0  0  0
   58.0412   32.3659   50.5023 H   0  0  0  0  0  0  0  0  0  0  0  0
   58.6834   33.0487   48.9700 H   0  0  0  0  0  0  0  0  0  0  0  0
   57.8787   31.4428   48.9700 H   0  0  0  0  0  0  0  0  0  0  0  0
   60.4683   32.1641   50.3961 H   0  0  0  0  0  0  0  0  0  0  0  0
   60.5053   29.9816   51.2906 H   0  0  0  0  0  0  0  0  0  0  0  0
   58.7498   30.0858   51.1072 H   0  0  0  0  0  0  0  0  0  0  0  0
   60.2831   28.1443   49.8687 H   0  0  0  0  0  0  0  0  0  0  0  0
   58.7656   28.7143   49.1631 H   0  0  0  0  0  0  0  0  0  0  0  0
   61.5930   29.2823   48.3418 H   0  0  0  0  0  0  0  0  0  0  0  0
   60.1239   29.3793   47.3580 H   0  0  0  0  0  0  0  0  0  0  0  0
   60.9822   34.6997   47.0164 H   0  0  0  0  0  0  0  0  0  0  0  0
   59.3531   35.9339   45.5846 H   0  0  0  0  0  0  0  0  0  0  0  0
   57.5056   34.7055   44.4419 H   0  0  0  0  0  0  0  0  0  0  0  0
   56.1108   32.6242   44.4864 H   0  0  0  0  0  0  0  0  0  0  0  0
   57.3418   31.7891   43.4635 H   0  0  0  0  0  0  0  0  0  0  0  0
   59.6094   30.0185   44.3718 H   0  0  0  0  0  0  0  0  0  0  0  0
   61.5560   28.7042   45.2103 H   0  0  0  0  0  0  0  0  0  0  0  0
   61.1800   26.5840   46.4728 H   0  0  0  0  0  0  0  0  0  0  0  0
   58.8635   25.7652   46.8856 H   0  0  0  0  0  0  0  0  0  0  0  0
   56.0530   23.8121   48.4357 H   0  0  0  0  0  0  0  0  0  0  0  0
   55.1329   22.6781   47.3898 H   0  0  0  0  0  0  0  0  0  0  0  0
   56.9288   22.6434   47.3898 H   0  0  0  0  0  0  0  0  0  0  0  0
   58.0590   23.6268   45.8602 H   0  0  0  0  0  0  0  0  0  0  0  0
   56.7984   23.1177   44.6861 H   0  0  0  0  0  0  0  0  0  0  0  0
   57.3938   24.8124   44.6861 H   0  0  0  0  0  0  0  0  0  0  0  0
   53.8930   24.3743   46.3440 H   0  0  0  0  0  0  0  0  0  0  0  0
   54.6433   25.2566   44.9710 H   0  0  0  0  0  0  0  0  0  0  0  0
   54.6050   23.4608   44.9710 H   0  0  0  0  0  0  0  0  0  0  0  0
   58.9454   30.9811   46.1268 H   0  0  0  0  0  0  0  0  0  0  0  0
  1  2  1  0
  2  3  1  0
  3  4  1  0
  4  5  1  0
  5  6  1  0
  6  7  1  0
  7  8  2  0
  7  9  1  0
  9 10  2  0
 10 11  1  0
 11 12  2  0
 12 13  1  0
 13 14  1  0
 14 15  1  0
 15 16  1  0
 16 17  2  0
 16 18  1  0
 18 19  2  0
 19 20  1  0
 20 21  2  0
 21 22  1  0
 22 23  2  0
 23 24  1  0
 24 25  2  0
 24 26  1  0
 26 27  1  0
 27 28  1  0
 27 29  1  0
 27 30  1  0
 13 31  2  0
  6  2  1  0
 31  9  1  0
 23 18  1  0
  1 32  1  0
  1 33  1  0
  1 34  1  0
  2 35  1  1
  3 36  1  0
  3 37  1  0
  4 38  1  0
  4 39  1  0
  5 40  1  0
  5 41  1  0
 10 42  1  0
 11 43  1  0
 12 44  1  0
 14 45  1  0
 14 46  1  0
 19 47  1  0
 20 48  1  0
 21 49  1  0
 22 50  1  0
 28 51  1  0
 28 52  1  0
 28 53  1  0
 29 54  1  0
 29 55  1  0
 29 56  1  0
 30 57  1  0
 30 58  1  0
 30 59  1  0
 31 60  1  0
M  CHG  2  15  -1  26  -1
M  END
>  <UniqueID>  (12) 
12

>  <SMILES>  (12) 
C[C@H]1CCCN1C(=O)c1cccc(C[N-]C(=O)c2ccccc2C(=O)[N-]C(C)(C)C)c1

>  <Energy>  (12) 
66.11145625057812

>  <Genealogy>  (12) 
CC1CCCN1C(=O)c1cccc(C[N-]C(=O)c2ccccc2C(=O)[N-]C(C)(C)C)c1 (protonated)
C[C@H]1CCCN1C(=O)c1cccc(C[N-]C(=O)c2ccccc2C(=O)[N-]C(C)(C)C)c1 (chirality)
C[C@H]1CCCN1C(=O)c1cccc(C[N-]C(=O)c2ccccc2C(=O)[N-]C(C)(C)C)c1 (3D coordinates assigned)
C[C@H]1CCCN1C(=O)c1cccc(C[N-]C(=O)c2ccccc2C(=O)[N-]C(C)(C)C)c1 (nonaromatic ring conformer: 66.11145625057812 kcal/mol)

>  <smiles>  (12) 
CC1CCCN1C(=O)c1cccc(CNC(=O)c2ccccc2C(=O)NC(C)(C)C)c1

>  <score_type>  (12) 
oracle

>  <origin>  (12) 
adg

>  <m_score__min__energy>  (12) 
-12.84

>  <m_primary>  (12) 
energy

$$$$
12:0
     RDKit          3D

 49 52  0  0  0  0  0  0  0  0999 V2000
   55.3050   27.6690   53.8680 C   0  0  0  0  0  0  0  0  0  0  0  0
   55.0900   28.7480   53.1120 C   0  0  0  0  0  0  0  0  0  0  0  0
   53.8700   29.0240   52.5940 N   0  0  0  0  0  0  0  0  0  0  0  0
   54.0300   30.1940   51.9440 C   0  0  0  0  0  0  0  0  0  0  0  0
   53.0320   30.7820   51.2660 C   0  0  0  0  0  0  0  0  0  0  0  0
   51.8900   31.4640   51.8920 C   0  0  0  0  0  0  0  0  0  0  0  0
   51.6330   31.4320   53.2110 N   0  0  0  0  0  0  0  0  0  0  0  0
   50.5830   32.2700   53.3440 C   0  0  0  0  0  0  0  0  0  0  0  0
   50.0340   32.4970   54.4530 O   0  0  0  0  0  0  0  0  0  0  0  0
   50.1770   32.8570   52.1980 N   0  0  0  0  0  0  0  0  0  0  0  0
   51.0230   32.3450   51.2900 C   0  0  0  0  0  0  0  0  0  0  0  0
   51.0310   32.7090   49.9500 O   0  0  0  0  0  0  0  0  0  0  0  0
   55.3510   30.5920   52.0670 C   0  0  0  0  0  0  0  0  0  0  0  0
   55.8860   31.5880   51.5080 O   0  0  0  0  0  0  0  0  0  0  0  0
   56.0220   29.6880   52.8080 N   0  0  0  0  0  0  0  0  0  0  0  0
   57.4380   29.6670   53.0830 C   0  0  0  0  0  0  0  0  0  0  0  0
   57.8500   29.1690   54.1690 O   0  0  0  0  0  0  0  0  0  0  0  0
   58.3930   30.1840   52.1240 N   0  0  0  0  0  0  0  0  0  0  0  0
   59.4770   29.1950   51.8820 C   0  0  0  0  0  0  0  0  0  0  0  0
   60.8790   29.8250   51.7080 C   0  0  0  0  0  0  0  0  0  0  0  0
   60.8510   31.1450   51.0460 N   0  0  0  0  0  0  0  0  0  0  0  0
   61.0800   31.1390   49.5850 C   0  0  0  0  0  0  0  0  0  0  0  0
   60.3130   32.2140   48.8440 C   0  0  0  0  0  0  0  0  0  0  0  0
   60.8640   33.4990   48.6940 C   0  0  0  0  0  0  0  0  0  0  0  0
   60.1530   34.4990   48.0240 C   0  0  0  0  0  0  0  0  0  0  0  0
   58.8780   34.2330   47.5190 C   0  0  0  0  0  0  0  0  0  0  0  0
   58.3120   32.9660   47.6840 C   0  0  0  0  0  0  0  0  0  0  0  0
   59.0240   31.9600   48.3450 C   0  0  0  0  0  0  0  0  0  0  0  0
   59.8240   32.0960   51.5250 C   0  0  0  0  0  0  0  0  0  0  0  0
   58.9050   31.4850   52.5890 C   0  0  0  0  0  0  0  0  0  0  0  0
   56.3083   27.4730   54.2740 H   0  0  0  0  0  0  0  0  0  0  0  0
   54.4788   26.9759   54.0849 H   0  0  0  0  0  0  0  0  0  0  0  0
   53.0713   30.7515   50.1671 H   0  0  0  0  0  0  0  0  0  0  0  0
   57.8930   30.3580   51.2200 H   0  0  0  0  0  0  0  0  0  0  0  0
   59.5122   28.5047   52.7377 H   0  0  0  0  0  0  0  0  0  0  0  0
   59.2377   28.6870   50.9361 H   0  0  0  0  0  0  0  0  0  0  0  0
   61.3339   29.9433   52.7025 H   0  0  0  0  0  0  0  0  0  0  0  0
   61.4603   29.1503   51.0624 H   0  0  0  0  0  0  0  0  0  0  0  0
   62.1540   31.2895   49.4013 H   0  0  0  0  0  0  0  0  0  0  0  0
   60.7212   30.1701   49.2075 H   0  0  0  0  0  0  0  0  0  0  0  0
   61.8600   33.7186   49.1061 H   0  0  0  0  0  0  0  0  0  0  0  0
   60.5981   35.4965   47.8943 H   0  0  0  0  0  0  0  0  0  0  0  0
   58.3197   35.0206   46.9917 H   0  0  0  0  0  0  0  0  0  0  0  0
   57.3047   32.7596   47.2933 H   0  0  0  0  0  0  0  0  0  0  0  0
   58.5729   30.9652   48.4749 H   0  0  0  0  0  0  0  0  0  0  0  0
   60.3295   32.9722   51.9572 H   0  0  0  0  0  0  0  0  0  0  0  0
   59.1984   32.3724   50.6635 H   0  0  0  0  0  0  0  0  0  0  0  0
   59.4713   31.3418   53.5211 H   0  0  0  0  0  0  0  0  0  0  0  0
   58.0581   32.1637   52.7683 H   0  0  0  0  0  0  0  0  0  0  0  0
  1  2  2  0
  2  3  1  0
  3  4  1  0
  4  5  2  3
  5  6  1  0
  6  7  1  0
  7  8  1  0
  8  9  2  0
  8 10  1  0
 10 11  1  0
 11 12  1  0
  4 13  1  0
 13 14  2  0
 13 15  1  0
 15 16  1  0
 16 17  2  0
 16 18  1  0
 18 19  1  0
 19 20  1  0
 20 21  1  0
 21 22  1  0
 22 23  1  0
 23 24  2  0
 24 25  1  0
 25 26  2  0
 26 27  1  0
 27 28  2  0
 21 29  1  0
 29 30  1  0
 15  2  1  0
 30 18  1  0
 11  6  2  0
 28 23  1  0
  1 31  1  0
  1 32  1  0
  5 33  1  0
 18 34  1  0
 19 35  1  0
 19 36  1  0
 20 37  1  0
 20 38  1  0
 22 39  1  0
 22 40  1  0
 24 41  1  0
 25 42  1  0
 26 43  1  0
 27 44  1  0
 28 45  1  0
 29 46  1  0
 29 47  1  0
 30 48  1  0
 30 49  1  0
M  CHG  5   3  -1   7  -1  10  -1  12  -1  18   1
M  END
>  <UniqueID>  (13) 
13

>  <SMILES>  (13) 
C=c1[n-]c(=Cc2[n-]c(=O)[n-]c2[O-])c(=O)n1C(=O)[NH+]1CCN(Cc2ccccc2)CC1

>  <Energy>  (13) 
142.53872847496893

>  <Genealogy>  (13) 
C=c1[n-]c(=Cc2[n-]c(=O)[n-]c2[O-])c(=O)n1C(=O)[NH+]1CCN(Cc2ccccc2)CC1 (protonated)
C=c1[n-]c(=Cc2[n-]c(=O)[n-]c2[O-])c(=O)n1C(=O)[NH+]1CCN(Cc2ccccc2)CC1 (3D coordinates assigned)
C=c1[n-]c(=Cc2[n-]c(=O)[n-]c2[O-])c(=O)n1C(=O)[NH+]1CCN(Cc2ccccc2)CC1 (nonaromatic ring conformer: 142.53872847496893 kcal/mol)

>  <smiles>  (13) 
C=c1[nH]c(=Cc2[nH]c(=O)[nH]c2O)c(=O)n1C(=O)N1CCN(Cc2ccccc2)CC1

>  <score_type>  (13) 
oracle

>  <origin>  (13) 
adg

>  <m_score__min__energy>  (13) 
-17.52

>  <m_primary>  (13) 
energy

$$$$
13:0
     RDKit          3D

 56 59  0  0  0  0  0  0  0  0999 V2000
   58.2370   33.0430   51.9920 C   0  0  0  0  0  0  0  0  0  0  0  0
   57.9650   32.2520   50.9560 C   0  0  0  0  0  0  0  0  0  0  0  0
   58.1300   30.7900   51.0090 C   0  0  0  0  0  0  0  0  0  0  0  0
   57.1920   30.0870   51.4710 O   0  0  0  0  0  0  0  0  0  0  0  0
   59.3190   30.1710   50.4950 N   0  0  0  0  0  0  0  0  0  0  0  0
   59.9490   30.4500   49.2360 C   0  0  0  0  0  0  0  0  0  0  0  0
   59.2710   30.2600   48.0180 C   0  0  0  0  0  0  0  0  0  0  0  0
   59.9020   30.5480   46.7970 C   0  0  0  0  0  0  0  0  0  0  0  0
   59.2370   30.3180   45.5450 N   0  0  0  0  0  0  0  0  0  0  0  0
   58.0600   29.7860   45.3470 C   0  0  0  0  0  0  0  0  0  0  0  0
   57.0220   30.4880   44.6960 C   0  0  0  0  0  0  0  0  0  0  0  0
   55.7840   29.8790   44.4960 C   0  0  0  0  0  0  0  0  0  0  0  0
   55.5720   28.6060   44.9130 N   0  0  0  0  0  0  0  0  0  0  0  0
   56.5440   27.8820   45.5280 C   0  0  0  0  0  0  0  0  0  0  0  0
   56.2760   26.5690   45.9310 C   0  0  0  0  0  0  0  0  0  0  0  0
   57.2680   25.8110   46.5610 C   0  0  0  0  0  0  0  0  0  0  0  0
   56.9260   24.1660   47.0650 Cl  0  0  0  0  0  0  0  0  0  0  0  0
   58.5310   26.3650   46.7910 C   0  0  0  0  0  0  0  0  0  0  0  0
   58.8090   27.6750   46.3940 C   0  0  0  0  0  0  0  0  0  0  0  0
   57.8200   28.4530   45.7560 C   0  0  0  0  0  0  0  0  0  0  0  0
   61.2370   30.9580   46.7940 C   0  0  0  0  0  0  0  0  0  0  0  0
   61.9280   31.1210   47.9960 C   0  0  0  0  0  0  0  0  0  0  0  0
   61.2980   30.8460   49.2220 C   0  0  0  0  0  0  0  0  0  0  0  0
   61.9840   31.0360   50.4700 N   0  0  0  0  0  0  0  0  0  0  0  0
   61.7950   32.1190   51.3880 C   0  0  0  0  0  0  0  0  0  0  0  0
   61.9760   31.9030   52.6170 O   0  0  0  0  0  0  0  0  0  0  0  0
   61.5270   33.4910   50.9020 C   0  0  0  0  0  0  0  0  0  0  0  0
   61.9990   34.0170   49.7630 C   0  0  0  0  0  0  0  0  0  0  0  0
   61.1790   34.2600   48.5560 C   0  0  0  0  0  0  0  0  0  0  0  0
   59.8610   34.0200   48.4880 C   0  0  0  0  0  0  0  0  0  0  0  0
   59.0540   34.0400   47.2470 C   0  0  0  0  0  0  0  0  0  0  0  0
   59.6170   34.5710   46.0750 C   0  0  0  0  0  0  0  0  0  0  0  0
   58.8920   34.5670   44.8790 C   0  0  0  0  0  0  0  0  0  0  0  0
   57.6100   34.0160   44.8390 C   0  0  0  0  0  0  0  0  0  0  0  0
   57.0520   33.4590   45.9930 C   0  0  0  0  0  0  0  0  0  0  0  0
   57.7730   33.4600   47.1910 C   0  0  0  0  0  0  0  0  0  0  0  0
   58.0981   34.1307   51.9049 H   0  0  0  0  0  0  0  0  0  0  0  0
   58.6006   32.6088   52.9350 H   0  0  0  0  0  0  0  0  0  0  0  0
   57.6026   32.7091   50.0234 H   0  0  0  0  0  0  0  0  0  0  0  0
   58.2378   29.8826   48.0222 H   0  0  0  0  0  0  0  0  0  0  0  0
   57.1905   31.5172   44.3461 H   0  0  0  0  0  0  0  0  0  0  0  0
   54.9753   30.4336   43.9976 H   0  0  0  0  0  0  0  0  0  0  0  0
   55.2825   26.1320   45.7518 H   0  0  0  0  0  0  0  0  0  0  0  0
   59.3093   25.7664   47.2869 H   0  0  0  0  0  0  0  0  0  0  0  0
   59.8052   28.1027   46.5799 H   0  0  0  0  0  0  0  0  0  0  0  0
   61.7469   31.1536   45.8392 H   0  0  0  0  0  0  0  0  0  0  0  0
   62.9721   31.4668   47.9836 H   0  0  0  0  0  0  0  0  0  0  0  0
   60.8878   34.1319   51.5270 H   0  0  0  0  0  0  0  0  0  0  0  0
   63.0650   34.2853   49.7233 H   0  0  0  0  0  0  0  0  0  0  0  0
   61.6792   34.6609   47.6621 H   0  0  0  0  0  0  0  0  0  0  0  0
   59.3387   33.7902   49.4284 H   0  0  0  0  0  0  0  0  0  0  0  0
   60.6330   34.9920   46.0978 H   0  0  0  0  0  0  0  0  0  0  0  0
   59.3327   34.9988   43.9683 H   0  0  0  0  0  0  0  0  0  0  0  0
   57.0388   34.0202   43.8989 H   0  0  0  0  0  0  0  0  0  0  0  0
   56.0443   33.0193   45.9587 H   0  0  0  0  0  0  0  0  0  0  0  0
   57.3373   33.0057   48.0931 H   0  0  0  0  0  0  0  0  0  0  0  0
  1  2  2  0
  2  3  1  0
  3  4  2  0
  3  5  1  0
  5  6  1  0
  6  7  2  0
  7  8  1  0
  8  9  1  0
  9 10  2  3
 10 11  1  0
 11 12  2  0
 12 13  1  0
 13 14  1  0
 14 15  2  0
 15 16  1  0
 16 17  1  0
 16 18  2  0
 18 19  1  0
 19 20  2  0
  8 21  2  0
 21 22  1  0
 22 23  2  0
 23 24  1  0
 24 25  1  0
 25 26  2  0
 25 27  1  0
 27 28  2  3
 28 29  1  0
 29 30  2  3
 30 31  1  0
 31 32  2  0
 32 33  1  0
 33 34  2  0
 34 35  1  0
 35 36  2  0
 23  6  1  0
 36 31  1  0
 20 10  1  0
 20 14  1  0
  1 37  1  0
  1 38  1  0
  2 39  1  0
  7 40  1  0
 11 41  1  0
 12 42  1  0
 15 43  1  0
 18 44  1  0
 19 45  1  0
 21 46  1  0
 22 47  1  0
 27 48  1  0
 28 49  1  0
 29 50  1  0
 30 51  1  0
 32 52  1  0
 33 53  1  0
 34 54  1  0
 35 55  1  0
 36 56  1  0
M  CHG  3   5  -1  13  -1  24  -1
M  END
>  <UniqueID>  (14) 
14

>  <SMILES>  (14) 
C=CC(=O)[N-]c1cc(N=c2cc[n-]c3cc(Cl)ccc23)ccc1[N-]C(=O)C=CC=Cc1ccccc1

>  <Energy>  (14) 
89.75175253640872

>  <Genealogy>  (14) 
C=CC(=O)[N-]c1cc(N=c2cc[n-]c3cc(Cl)ccc23)ccc1[N-]C(=O)C=CC=Cc1ccccc1 (protonated)
C=CC(=O)[N-]c1cc(N=c2cc[n-]c3cc(Cl)ccc23)ccc1[N-]C(=O)C=CC=Cc1ccccc1 (3D coordinates assigned)
C=CC(=O)[N-]c1cc(N=c2cc[n-]c3cc(Cl)ccc23)ccc1[N-]C(=O)C=CC=Cc1ccccc1 (optimized conformer: 89.75175253640872 kcal/mol)

>  <smiles>  (14) 
C=CC(=O)Nc1cc(N=c2cc[nH]c3cc(Cl)ccc23)ccc1NC(=O)C=CC=Cc1ccccc1

>  <score_type>  (14) 
oracle

>  <origin>  (14) 
adg

>  <m_score__min__energy>  (14) 
-14.92

>  <m_primary>  (14) 
energy

$$$$
14:0
     RDKit          3D

 60 63  0  0  0  0  0  0  0  0999 V2000
   59.2990   30.4760   51.6540 C   0  0  0  0  0  0  0  0  0  0  0  0
   59.0720   31.8260   51.2600 O   0  0  0  0  0  0  0  0  0  0  0  0
   59.3380   32.3360   49.9810 C   0  0  0  0  0  0  0  0  0  0  0  0
   58.5210   32.0340   48.8740 C   0  0  0  0  0  0  0  0  0  0  0  0
   58.7920   32.6050   47.6230 C   0  0  0  0  0  0  0  0  0  0  0  0
   58.0000   32.3080   46.5090 C   0  0  0  0  0  0  0  0  0  0  0  0
   58.2580   32.9210   45.2720 C   0  0  0  0  0  0  0  0  0  0  0  0
   57.4030   32.5850   44.0640 C   0  0  0  0  0  0  0  0  0  0  0  0
   57.5910   31.2040   43.5660 N   0  0  0  0  0  0  0  0  0  0  0  0
   58.5260   30.3580   44.3420 C   0  0  0  0  0  0  0  0  0  0  0  0
   57.9490   28.9750   44.6860 C   0  0  0  0  0  0  0  0  0  0  0  0
   56.4950   29.0940   45.1500 C   0  0  0  0  0  0  0  0  0  0  0  0
   56.0030   27.7590   45.4980 N   0  0  0  0  0  0  0  0  0  0  0  0
   56.6730   26.9070   46.4340 C   0  0  0  0  0  0  0  0  0  0  0  0
   56.1080   25.8390   46.7930 O   0  0  0  0  0  0  0  0  0  0  0  0
   57.9830   27.2880   47.0200 C   0  0  0  0  0  0  0  0  0  0  0  0
   58.1560   28.5830   47.5400 C   0  0  0  0  0  0  0  0  0  0  0  0
   59.3440   28.9360   48.1860 C   0  0  0  0  0  0  0  0  0  0  0  0
   60.3730   28.0060   48.3140 C   0  0  0  0  0  0  0  0  0  0  0  0
   60.2290   26.7250   47.7850 C   0  0  0  0  0  0  0  0  0  0  0  0
   59.0370   26.3500   47.1310 C   0  0  0  0  0  0  0  0  0  0  0  0
   58.8730   25.0670   46.5840 O   0  0  0  0  0  0  0  0  0  0  0  0
   58.4900   24.8070   45.2360 C   0  0  0  0  0  0  0  0  0  0  0  0
   55.6080   29.7200   44.0540 C   0  0  0  0  0  0  0  0  0  0  0  0
   56.3970   30.5360   43.0100 C   0  0  0  0  0  0  0  0  0  0  0  0
   59.3540   33.8050   45.1780 C   0  0  0  0  0  0  0  0  0  0  0  0
   59.6380   34.3640   44.0840 O   0  0  0  0  0  0  0  0  0  0  0  0
   60.1260   34.0600   46.2670 N   0  0  0  0  0  0  0  0  0  0  0  0
   59.8790   33.4870   47.4730 C   0  0  0  0  0  0  0  0  0  0  0  0
   60.7140   33.7610   48.5590 C   0  0  0  0  0  0  0  0  0  0  0  0
   60.4460   33.1860   49.8190 C   0  0  0  0  0  0  0  0  0  0  0  0
   61.2510   33.4510   50.9400 O   0  0  0  0  0  0  0  0  0  0  0  0
   62.6260   33.7900   50.8820 C   0  0  0  0  0  0  0  0  0  0  0  0
   59.3099   30.4114   52.7520 H   0  0  0  0  0  0  0  0  0  0  0  0
   58.4955   29.8381   51.2571 H   0  0  0  0  0  0  0  0  0  0  0  0
   60.2669   30.1360   51.2571 H   0  0  0  0  0  0  0  0  0  0  0  0
   57.6686   31.3487   48.9916 H   0  0  0  0  0  0  0  0  0  0  0  0
   57.1711   31.5909   46.6022 H   0  0  0  0  0  0  0  0  0  0  0  0
   56.3461   32.7133   44.3404 H   0  0  0  0  0  0  0  0  0  0  0  0
   57.7111   33.2628   43.2543 H   0  0  0  0  0  0  0  0  0  0  0  0
   59.4427   30.2170   43.7506 H   0  0  0  0  0  0  0  0  0  0  0  0
   58.7227   30.8755   45.2925 H   0  0  0  0  0  0  0  0  0  0  0  0
   57.9915   28.3340   43.7931 H   0  0  0  0  0  0  0  0  0  0  0  0
   58.5447   28.5365   45.5002 H   0  0  0  0  0  0  0  0  0  0  0  0
   56.4509   29.7545   46.0285 H   0  0  0  0  0  0  0  0  0  0  0  0
   57.3497   29.3242   47.4375 H   0  0  0  0  0  0  0  0  0  0  0  0
   59.4666   29.9501   48.5941 H   0  0  0  0  0  0  0  0  0  0  0  0
   61.3017   28.2835   48.8340 H   0  0  0  0  0  0  0  0  0  0  0  0
   61.0515   26.0005   47.8782 H   0  0  0  0  0  0  0  0  0  0  0  0
   57.5799   24.1892   45.2261 H   0  0  0  0  0  0  0  0  0  0  0  0
   58.2928   25.7587   44.7208 H   0  0  0  0  0  0  0  0  0  0  0  0
   59.3017   24.2725   44.7208 H   0  0  0  0  0  0  0  0  0  0  0  0
   55.0765   28.9103   43.5326 H   0  0  0  0  0  0  0  0  0  0  0  0
   54.9211   30.4176   44.5555 H   0  0  0  0  0  0  0  0  0  0  0  0
   56.7200   29.8560   42.2080 H   0  0  0  0  0  0  0  0  0  0  0  0
   55.7259   31.3258   42.6414 H   0  0  0  0  0  0  0  0  0  0  0  0
   61.5812   34.4257   48.4315 H   0  0  0  0  0  0  0  0  0  0  0  0
   63.0229   33.8879   51.9032 H   0  0  0  0  0  0  0  0  0  0  0  0
   63.1761   33.0006   50.3489 H   0  0  0  0  0  0  0  0  0  0  0  0
   62.7461   34.7447   50.3489 H   0  0  0  0  0  0  0  0  0  0  0  0
  1  2  1  0
  2  3  1  0
  3  4  2  0
  4  5  1  0
  5  6  1  0
  6  7  2  0
  7  8  1  0
  8  9  1  0
  9 10  1  0
 10 11  1  0
 11 12  1  0
 12 13  1  0
 13 14  1  0
 14 15  2  0
 14 16  1  0
 16 17  2  0
 17 18  1  0
 18 19  2  0
 19 20  1  0
 20 21  2  0
 21 22  1  0
 22 23  1  0
 12 24  1  0
 24 25  1  0
  7 26  1  0
 26 27  2  0
 26 28  1  0
 28 29  1  0
 29 30  1  0
 30 31  2  0
 31 32  1  0
 32 33  1  0
 31  3  1  0
 29  5  2  0
 25  9  1  0
 21 16  1  0
  1 34  1  0
  1 35  1  0
  1 36  1  0
  4 37  1  0
  6 38  1  0
  8 39  1  0
  8 40  1  0
 10 41  1  0
 10 42  1  0
 11 43  1  0
 11 44  1  0
 12 45  1  0
 17 46  1  0
 18 47  1  0
 19 48  1  0
 20 49  1  0
 23 50  1  0
 23 51  1  0
 23 52  1  0
 24 53  1  0
 24 54  1  0
 25 55  1  0
 25 56  1  0
 30 57  1  0
 33 58  1  0
 33 59  1  0
 33 60  1  0
M  CHG  2  13  -1  28  -1
M  END
>  <UniqueID>  (15) 
15

>  <SMILES>  (15) 
COc1cc2cc(CN3CCC([N-]C(=O)c4ccccc4OC)CC3)c(=O)[n-]c2cc1OC

>  <Energy>  (15) 
79.71012015851544

>  <Genealogy>  (15) 
COc1cc2cc(CN3CCC([N-]C(=O)c4ccccc4OC)CC3)c(=O)[n-]c2cc1OC (protonated)
COc1cc2cc(CN3CCC([N-]C(=O)c4ccccc4OC)CC3)c(=O)[n-]c2cc1OC (3D coordinates assigned)
COc1cc2cc(CN3CCC([N-]C(=O)c4ccccc4OC)CC3)c(=O)[n-]c2cc1OC (nonaromatic ring conformer: 79.71012015851544 kcal/mol)

>  <smiles>  (15) 
COc1cc2cc(CN3CCC(NC(=O)c4ccccc4OC)CC3)c(=O)[nH]c2cc1OC

>  <score_type>  (15) 
oracle

>  <origin>  (15) 
adg

>  <m_score__min__energy>  (15) 
-11.15

>  <m_primary>  (15) 
energy

$$$$
15:0
     RDKit          3D

 57 60  0  0  0  0  0  0  0  0999 V2000
   51.0810   20.0640   48.6220 C   0  0  0  0  0  0  0  0  0  0  0  0
   51.0880   21.3880   48.0970 O   0  0  0  0  0  0  0  0  0  0  0  0
   52.2470   22.0920   47.7390 C   0  0  0  0  0  0  0  0  0  0  0  0
   53.2570   22.2390   48.6970 C   0  0  0  0  0  0  0  0  0  0  0  0
   54.4310   22.9340   48.3910 C   0  0  0  0  0  0  0  0  0  0  0  0
   54.6070   23.5010   47.1190 C   0  0  0  0  0  0  0  0  0  0  0  0
   55.8160   24.2090   46.8030 N   0  0  0  0  0  0  0  0  0  0  0  0
   57.0760   23.8140   47.0890 C   0  0  0  0  0  0  0  0  0  0  0  0
   57.3900   22.6280   47.7440 O   0  0  0  0  0  0  0  0  0  0  0  0
   58.0060   24.7280   46.6350 C   0  0  0  0  0  0  0  0  0  0  0  0
   57.2720   25.7290   46.0230 C   0  0  0  0  0  0  0  0  0  0  0  0
   57.8070   26.9300   45.4410 N   0  0  0  0  0  0  0  0  0  0  0  0
   56.9300   28.0470   45.0620 C   0  0  0  0  0  0  0  0  0  0  0  0
   57.4610   29.3500   45.6700 C   0  0  0  0  0  0  0  0  0  0  0  0
   58.9250   29.4420   45.5450 N   0  0  0  0  0  0  0  0  0  0  0  0
   59.6370   30.4550   46.2800 C   0  0  0  0  0  0  0  0  0  0  0  0
   60.7980   30.1290   46.9950 C   0  0  0  0  0  0  0  0  0  0  0  0
   61.4750   31.1040   47.7310 C   0  0  0  0  0  0  0  0  0  0  0  0
   60.9980   32.4280   47.7690 C   0  0  0  0  0  0  0  0  0  0  0  0
   61.6560   33.4310   48.5010 O   0  0  0  0  0  0  0  0  0  0  0  0
   62.9870   33.8700   48.2530 C   0  0  0  0  0  0  0  0  0  0  0  0
   59.8280   32.7570   47.0610 C   0  0  0  0  0  0  0  0  0  0  0  0
   59.2060   34.4110   47.1020 S   0  0  0  0  0  0  0  0  0  0  0  0
   60.0860   35.4300   46.0160 N   0  0  0  0  0  0  0  0  0  0  0  0
   59.3400   34.9570   48.4970 O   0  0  0  0  0  0  0  0  0  0  0  0
   57.7580   34.4090   46.7000 O   0  0  0  0  0  0  0  0  0  0  0  0
   59.1570   31.7730   46.3210 C   0  0  0  0  0  0  0  0  0  0  0  0
   59.6500   28.4420   44.7480 C   0  0  0  0  0  0  0  0  0  0  0  0
   59.2550   27.0320   45.2020 C   0  0  0  0  0  0  0  0  0  0  0  0
   55.9340   25.3950   46.1640 C   0  0  0  0  0  0  0  0  0  0  0  0
   54.8620   26.1990   45.7790 O   0  0  0  0  0  0  0  0  0  0  0  0
   53.6010   23.3470   46.1540 C   0  0  0  0  0  0  0  0  0  0  0  0
   52.4280   22.6520   46.4600 C   0  0  0  0  0  0  0  0  0  0  0  0
   51.0812   20.1054   49.7212 H   0  0  0  0  0  0  0  0  0  0  0  0
   50.1801   19.5368   48.2751 H   0  0  0  0  0  0  0  0  0  0  0  0
   51.9763   19.5273   48.2751 H   0  0  0  0  0  0  0  0  0  0  0  0
   53.1260   21.8041   49.6989 H   0  0  0  0  0  0  0  0  0  0  0  0
   55.2202   23.0369   49.1504 H   0  0  0  0  0  0  0  0  0  0  0  0
   59.0997   24.6723   46.7380 H   0  0  0  0  0  0  0  0  0  0  0  0
   56.9065   28.1378   43.9660 H   0  0  0  0  0  0  0  0  0  0  0  0
   55.9142   27.8566   45.4387 H   0  0  0  0  0  0  0  0  0  0  0  0
   57.0026   30.2022   45.1469 H   0  0  0  0  0  0  0  0  0  0  0  0
   57.2026   29.3644   46.7391 H   0  0  0  0  0  0  0  0  0  0  0  0
   61.1788   29.0972   46.9762 H   0  0  0  0  0  0  0  0  0  0  0  0
   62.3869   30.8356   48.2846 H   0  0  0  0  0  0  0  0  0  0  0  0
   63.5015   34.0397   49.2103 H   0  0  0  0  0  0  0  0  0  0  0  0
   63.5254   33.1018   47.6785 H   0  0  0  0  0  0  0  0  0  0  0  0
   62.9628   34.8077   47.6785 H   0  0  0  0  0  0  0  0  0  0  0  0
   61.0920   35.1580   46.0890 H   0  0  0  0  0  0  0  0  0  0  0  0
   58.2444   32.0371   45.7666 H   0  0  0  0  0  0  0  0  0  0  0  0
   59.3963   28.5681   43.6851 H   0  0  0  0  0  0  0  0  0  0  0  0
   60.7322   28.5796   44.8891 H   0  0  0  0  0  0  0  0  0  0  0  0
   59.5403   26.3117   44.4211 H   0  0  0  0  0  0  0  0  0  0  0  0
   59.7774   26.8133   46.1450 H   0  0  0  0  0  0  0  0  0  0  0  0
   54.0600   26.3430   46.3750 H   0  0  0  0  0  0  0  0  0  0  0  0
   53.7362   23.7759   45.1501 H   0  0  0  0  0  0  0  0  0  0  0  0
   51.6423   22.5419   45.6980 H   0  0  0  0  0  0  0  0  0  0  0  0
  1  2  1  0
  2  3  1  0
  3  4  2  0
  4  5  1  0
  5  6  2  0
  6  7  1  0
  7  8  1  0
  8  9  1  0
  8 10  2  0
 10 11  1  0
 11 12  1  0
 12 13  1  0
 13 14  1  0
 14 15  1  0
 15 16  1  0
 16 17  2  0
 17 18  1  0
 18 19  2  0
 19 20  1  0
 20 21  1  0
 19 22  1  0
 22 23  1  0
 23 24  1  0
 23 25  2  0
 23 26  2  0
 22 27  2  0
 15 28  1  0
 28 29  1  0
 11 30  2  0
 30 31  1  0
  6 32  1  0
 32 33  2  0
 33  3  1  0
 30  7  1  0
 29 12  1  0
 27 16  1  0
  1 34  1  0
  1 35  1  0
  1 36  1  0
  4 37  1  0
  5 38  1  0
 10 39  1  0
 13 40  1  0
 13 41  1  0
 14 42  1  0
 14 43  1  0
 17 44  1  0
 18 45  1  0
 21 46  1  0
 21 47  1  0
 21 48  1  0
 24 49  1  0
 27 50  1  0
 28 51  1  0
 28 52  1  0
 29 53  1  0
 29 54  1  0
 31 55  1  0
 32 56  1  0
 33 57  1  0
M  CHG  2   9  -1  24  -1
M  END
>  <UniqueID>  (16) 
16

>  <SMILES>  (16) 
COc1ccc(-n2c([O-])cc(N3CCN(c4ccc(OC)c(S([NH-])(=O)=O)c4)CC3)c2O)cc1

>  <Energy>  (16) 
101.95866020639228

>  <Genealogy>  (16) 
COc1ccc(-n2c([O-])cc(N3CCN(c4ccc(OC)c(S([NH-])(=O)=O)c4)CC3)c2O)cc1 (protonated)
COc1ccc(-n2c([O-])cc(N3CCN(c4ccc(OC)c(S([NH-])(=O)=O)c4)CC3)c2O)cc1 (3D coordinates assigned)
COc1ccc(-n2c([O-])cc(N3CCN(c4ccc(OC)c(S([NH-])(=O)=O)c4)CC3)c2O)cc1 (nonaromatic ring conformer: 101.95866020639228 kcal/mol)

>  <smiles>  (16) 
COc1ccc(-n2c(O)cc(N3CCN(c4ccc(OC)c(S(N)(=O)=O)c4)CC3)c2O)cc1

>  <score_type>  (16) 
oracle

>  <origin>  (16) 
adg

>  <m_score__min__energy>  (16) 
-10.02

>  <m_primary>  (16) 
energy

$$$$
16:0
     RDKit          3D

 71 73  0  0  0  0  0  0  0  0999 V2000
   57.2310   28.7840   43.5340 N   0  0  0  0  0  0  0  0  0  0  0  0
   56.3180   29.7750   44.0210 C   0  0  0  0  0  0  0  0  0  0  0  0
   55.1410   29.3540   44.7120 N   0  0  0  0  0  0  0  0  0  0  0  0
   56.5370   31.0520   43.8810 N   0  0  0  0  0  0  0  0  0  0  0  0
   57.8100   31.7680   43.9820 C   0  0  0  0  0  0  0  0  0  0  0  0
   58.8620   30.9200   44.7140 C   0  0  0  0  0  0  0  0  0  0  0  0
   58.5070   30.5570   46.1700 C   0  0  0  0  0  0  0  0  0  0  0  0
   59.5700   29.8410   47.0710 C   0  0  2  0  0  0  0  0  0  0  0  0
   59.4320   28.3940   46.8910 N   0  0  0  0  0  0  0  0  0  0  0  0
   58.8000   27.7620   45.7740 C   0  0  0  0  0  0  0  0  0  0  0  0
   59.2670   27.9030   44.6100 O   0  0  0  0  0  0  0  0  0  0  0  0
   57.6160   26.9270   45.9960 C   0  0  0  0  0  0  0  0  0  0  0  0
   57.6170   25.6630   46.5600 C   0  0  0  0  0  0  0  0  0  0  0  0
   56.3010   25.2690   46.6190 C   0  0  0  0  0  0  0  0  0  0  0  0
   55.5750   26.3150   46.0940 C   0  0  0  0  0  0  0  0  0  0  0  0
   54.1920   26.3340   45.9700 O   0  0  0  0  0  0  0  0  0  0  0  0
   56.3630   27.3360   45.7130 N   0  0  0  0  0  0  0  0  0  0  0  0
   59.5890   30.2110   48.5560 C   0  0  0  0  0  0  0  0  0  0  0  0
   59.5150   29.3200   49.3890 O   0  0  0  0  0  0  0  0  0  0  0  0
   59.5360   31.6620   49.0370 C   0  0  2  0  0  0  0  0  0  0  0  0
   59.4570   31.7390   50.5780 C   0  0  0  0  0  0  0  0  0  0  0  0
   58.3720   32.7200   51.1050 C   0  0  0  0  0  0  0  0  0  0  0  0
   59.0140   34.0050   51.6790 C   0  0  0  0  0  0  0  0  0  0  0  0
   59.7290   33.7480   53.0140 C   0  0  0  0  0  0  0  0  0  0  0  0
   58.7810   33.1130   54.0390 C   0  0  0  0  0  0  0  0  0  0  0  0
   58.1260   31.8400   53.4940 C   0  0  0  0  0  0  0  0  0  0  0  0
   57.4190   32.1090   52.1580 C   0  0  0  0  0  0  0  0  0  0  0  0
   58.3760   32.3440   48.4580 N   0  0  0  0  0  0  0  0  0  0  0  0
   58.4130   33.4820   47.5850 C   0  0  0  0  0  0  0  0  0  0  0  0
   57.6120   33.5190   46.6120 O   0  0  0  0  0  0  0  0  0  0  0  0
   59.3310   34.6540   47.8290 C   0  0  0  0  0  0  0  0  0  0  0  0
   60.7730   34.2120   47.8630 C   0  0  0  0  0  0  0  0  0  0  0  0
   61.4170   33.7760   46.6920 C   0  0  0  0  0  0  0  0  0  0  0  0
   62.7470   33.3440   46.7400 C   0  0  0  0  0  0  0  0  0  0  0  0
   63.4400   33.3380   47.9530 C   0  0  0  0  0  0  0  0  0  0  0  0
   62.8090   33.7720   49.1230 C   0  0  0  0  0  0  0  0  0  0  0  0
   63.6760   33.7540   50.6500 Cl  0  0  0  0  0  0  0  0  0  0  0  0
   61.4820   34.2110   49.0790 C   0  0  0  0  0  0  0  0  0  0  0  0
   58.1090   29.0170   43.0260 H   0  0  0  0  0  0  0  0  0  0  0  0
   57.0180   27.7710   43.6780 H   0  0  0  0  0  0  0  0  0  0  0  0
   54.9450   28.3380   44.8580 H   0  0  0  0  0  0  0  0  0  0  0  0
   54.4420   30.0540   45.0430 H   0  0  0  0  0  0  0  0  0  0  0  0
   58.1744   31.9985   42.9700 H   0  0  0  0  0  0  0  0  0  0  0  0
   57.6470   32.6940   44.5530 H   0  0  0  0  0  0  0  0  0  0  0  0
   58.9973   29.9841   44.1521 H   0  0  0  0  0  0  0  0  0  0  0  0
   59.7728   31.5348   44.7634 H   0  0  0  0  0  0  0  0  0  0  0  0
   58.2391   31.4958   46.6769 H   0  0  0  0  0  0  0  0  0  0  0  0
   57.7134   29.8032   46.0606 H   0  0  0  0  0  0  0  0  0  0  0  0
   60.5450   30.2118   46.7219 H   0  0  0  0  0  0  0  0  0  0  0  0
   58.4941   25.0892   46.8938 H   0  0  0  0  0  0  0  0  0  0  0  0
   55.9094   24.3164   47.0052 H   0  0  0  0  0  0  0  0  0  0  0  0
   60.4611   32.1578   48.7077 H   0  0  0  0  0  0  0  0  0  0  0  0
   59.2319   30.7338   50.9639 H   0  0  0  0  0  0  0  0  0  0  0  0
   60.4280   32.1184   50.9289 H   0  0  0  0  0  0  0  0  0  0  0  0
   57.7589   32.9614   50.2242 H   0  0  0  0  0  0  0  0  0  0  0  0
   59.7455   34.3904   50.9535 H   0  0  0  0  0  0  0  0  0  0  0  0
   58.2097   34.7331   51.8606 H   0  0  0  0  0  0  0  0  0  0  0  0
   60.5774   33.0693   52.8416 H   0  0  0  0  0  0  0  0  0  0  0  0
   60.0776   34.7120   53.4131 H   0  0  0  0  0  0  0  0  0  0  0  0
   59.3526   32.8601   54.9441 H   0  0  0  0  0  0  0  0  0  0  0  0
   57.9851   33.8380   54.2645 H   0  0  0  0  0  0  0  0  0  0  0  0
   58.9009   31.0742   53.3423 H   0  0  0  0  0  0  0  0  0  0  0  0
   57.3770   31.4942   54.2216 H   0  0  0  0  0  0  0  0  0  0  0  0
   57.0236   31.1591   51.7690 H   0  0  0  0  0  0  0  0  0  0  0  0
   56.6118   32.8330   52.3431 H   0  0  0  0  0  0  0  0  0  0  0  0
   59.1988   35.3890   47.0213 H   0  0  0  0  0  0  0  0  0  0  0  0
   59.0781   35.1013   48.8016 H   0  0  0  0  0  0  0  0  0  0  0  0
   60.8739   33.7744   45.7354 H   0  0  0  0  0  0  0  0  0  0  0  0
   63.2482   33.0082   45.8202 H   0  0  0  0  0  0  0  0  0  0  0  0
   64.4834   32.9914   47.9878 H   0  0  0  0  0  0  0  0  0  0  0  0
   60.9896   34.5574   49.9996 H   0  0  0  0  0  0  0  0  0  0  0  0
  1  2  1  0
  2  3  1  0
  2  4  2  3
  4  5  1  0
  5  6  1  0
  6  7  1  0
  7  8  1  0
  8  9  1  0
  9 10  1  0
 10 11  2  0
 10 12  1  0
 12 13  2  0
 13 14  1  0
 14 15  2  0
 15 16  1  0
 15 17  1  0
  8 18  1  0
 18 19  2  0
 18 20  1  0
 20 21  1  0
 21 22  1  0
 22 23  1  0
 23 24  1  0
 24 25  1  0
 25 26  1  0
 26 27  1  0
 20 28  1  0
 28 29  1  0
 29 30  2  0
 29 31  1  0
 31 32  1  0
 32 33  2  0
 33 34  1  0
 34 35  2  0
 35 36  1  0
 36 37  1  0
 36 38  2  0
 17 12  1  0
 27 22  1  0
 38 32  1  0
  1 39  1  0
  1 40  1  0
  3 41  1  0
  3 42  1  0
  5 43  1  0
  5 44  1  0
  6 45  1  0
  6 46  1  0
  7 47  1  0
  7 48  1  0
  8 49  1  6
 13 50  1  0
 14 51  1  0
 20 52  1  6
 21 53  1  0
 21 54  1  0
 22 55  1  0
 23 56  1  0
 23 57  1  0
 24 58  1  0
 24 59  1  0
 25 60  1  0
 25 61  1  0
 26 62  1  0
 26 63  1  0
 27 64  1  0
 27 65  1  0
 31 66  1  0
 31 67  1  0
 33 68  1  0
 34 69  1  0
 35 70  1  0
 38 71  1  0
M  CHG  4   9  -1  16  -1  17  -1  28  -1
M  END
>  <UniqueID>  (17) 
17

>  <SMILES>  (17) 
NC(N)=NCCC[C@H]([N-]C(=O)c1ccc([O-])[n-]1)C(=O)[C@H](CC1CCCCC1)[N-]C(=O)Cc1cccc(Cl)c1

>  <Energy>  (17) 
92.14677720625022

>  <Genealogy>  (17) 
NC(N)=NCCCC([N-]C(=O)c1ccc([O-])[n-]1)C(=O)C(CC1CCCCC1)[N-]C(=O)Cc1cccc(Cl)c1 (protonated)
NC(N)=NCCC[C@H]([N-]C(=O)c1ccc([O-])[n-]1)C(=O)[C@H](CC1CCCCC1)[N-]C(=O)Cc1cccc(Cl)c1 (chirality)
NC(N)=NCCC[C@H]([N-]C(=O)c1ccc([O-])[n-]1)C(=O)[C@H](CC1CCCCC1)[N-]C(=O)Cc1cccc(Cl)c1 (3D coordinates assigned)
NC(N)=NCCC[C@H]([N-]C(=O)c1ccc([O-])[n-]1)C(=O)[C@H](CC1CCCCC1)[N-]C(=O)Cc1cccc(Cl)c1 (nonaromatic ring conformer: 92.14677720625022 kcal/mol)

>  <smiles>  (17) 
NC(N)=NCCCC(NC(=O)c1ccc(O)[nH]1)C(=O)C(CC1CCCCC1)NC(=O)Cc1cccc(Cl)c1

>  <score_type>  (17) 
oracle

>  <origin>  (17) 
adg

>  <m_score__min__energy>  (17) 
-18.43

>  <m_primary>  (17) 
energy

$$$$
17:0
     RDKit          3D

 61 64  0  0  0  0  0  0  0  0999 V2000
   54.7720   26.0180   45.9860 N   0  0  0  0  0  0  0  0  0  0  0  0
   54.7800   24.2960   45.8720 S   0  0  0  0  0  0  0  0  0  0  0  0
   53.7620   23.8500   44.8600 O   0  0  0  0  0  0  0  0  0  0  0  0
   54.4020   23.7260   47.2110 O   0  0  0  0  0  0  0  0  0  0  0  0
   56.3920   23.7340   45.3980 C   0  0  0  0  0  0  0  0  0  0  0  0
   56.4810   22.7470   44.4010 C   0  0  0  0  0  0  0  0  0  0  0  0
   57.7210   22.2480   44.0040 C   0  0  0  0  0  0  0  0  0  0  0  0
   58.8910   22.7210   44.5970 C   0  0  0  0  0  0  0  0  0  0  0  0
   58.8240   23.7020   45.5860 C   0  0  0  0  0  0  0  0  0  0  0  0
   57.5840   24.2270   45.9990 C   0  0  0  0  0  0  0  0  0  0  0  0
   57.5930   25.3050   47.0650 C   0  0  0  0  0  0  0  0  0  0  0  0
   57.6950   26.6820   46.4540 C   0  0  0  0  0  0  0  0  0  0  0  0
   58.1410   27.7730   47.2190 C   0  0  0  0  0  0  0  0  0  0  0  0
   58.2470   29.0450   46.6490 C   0  0  0  0  0  0  0  0  0  0  0  0
   57.9180   29.2490   45.2970 C   0  0  0  0  0  0  0  0  0  0  0  0
   58.0200   30.5990   44.6950 C   0  0  0  0  0  0  0  0  0  0  0  0
   58.7980   30.8090   43.7280 O   0  0  0  0  0  0  0  0  0  0  0  0
   57.2250   31.6700   45.2060 N   0  0  0  0  0  0  0  0  0  0  0  0
   57.8280   33.2740   45.4570 S   0  0  0  0  0  0  0  0  0  0  0  0
   58.8150   33.6080   44.3730 O   0  0  0  0  0  0  0  0  0  0  0  0
   56.6840   34.2540   45.4370 O   0  0  0  0  0  0  0  0  0  0  0  0
   58.6270   33.3450   47.0260 C   0  0  0  0  0  0  0  0  0  0  0  0
   59.2160   34.5350   47.4620 C   0  0  0  0  0  0  0  0  0  0  0  0
   59.8270   34.5930   48.7180 C   0  0  0  0  0  0  0  0  0  0  0  0
   59.8570   33.4620   49.5410 C   0  0  0  0  0  0  0  0  0  0  0  0
   59.2740   32.2570   49.1130 C   0  0  0  0  0  0  0  0  0  0  0  0
   59.2990   31.0490   49.9630 C   0  0  0  0  0  0  0  0  0  0  0  0
   58.2450   30.3820   50.1520 O   0  0  0  0  0  0  0  0  0  0  0  0
   60.5000   30.6530   50.5600 O   0  0  0  0  0  0  0  0  0  0  0  0
   61.5980   30.1190   49.8310 C   0  0  0  0  0  0  0  0  0  0  0  0
   62.3210   31.2500   49.1560 C   0  0  0  0  0  0  0  0  0  0  0  0
   63.1990   32.0640   49.8890 C   0  0  0  0  0  0  0  0  0  0  0  0
   63.9290   33.0690   49.2470 C   0  0  0  0  0  0  0  0  0  0  0  0
   63.7930   33.2610   47.8680 C   0  0  0  0  0  0  0  0  0  0  0  0
   62.9310   32.4450   47.1300 C   0  0  0  0  0  0  0  0  0  0  0  0
   62.2020   31.4370   47.7680 C   0  0  0  0  0  0  0  0  0  0  0  0
   58.6520   32.2130   47.8540 C   0  0  0  0  0  0  0  0  0  0  0  0
   57.4880   28.1500   44.5280 C   0  0  0  0  0  0  0  0  0  0  0  0
   57.3770   26.8810   45.1010 C   0  0  0  0  0  0  0  0  0  0  0  0
   53.7700   26.3190   45.9920 H   0  0  0  0  0  0  0  0  0  0  0  0
   55.5636   22.3647   43.9295 H   0  0  0  0  0  0  0  0  0  0  0  0
   57.7764   21.4783   43.2201 H   0  0  0  0  0  0  0  0  0  0  0  0
   59.8667   22.3204   44.2848 H   0  0  0  0  0  0  0  0  0  0  0  0
   59.7512   24.0703   46.0493 H   0  0  0  0  0  0  0  0  0  0  0  0
   56.6624   25.2400   47.6479 H   0  0  0  0  0  0  0  0  0  0  0  0
   58.4694   25.1466   47.7107 H   0  0  0  0  0  0  0  0  0  0  0  0
   58.4090   27.6249   48.2755 H   0  0  0  0  0  0  0  0  0  0  0  0
   58.5899   29.8917   47.2618 H   0  0  0  0  0  0  0  0  0  0  0  0
   59.1988   35.4259   46.8170 H   0  0  0  0  0  0  0  0  0  0  0  0
   60.2862   35.5320   49.0607 H   0  0  0  0  0  0  0  0  0  0  0  0
   60.3394   33.5162   50.5281 H   0  0  0  0  0  0  0  0  0  0  0  0
   62.2819   29.5999   50.5186 H   0  0  0  0  0  0  0  0  0  0  0  0
   61.2366   29.4021   49.0790 H   0  0  0  0  0  0  0  0  0  0  0  0
   63.3131   31.9106   50.9723 H   0  0  0  0  0  0  0  0  0  0  0  0
   64.6106   33.7090   49.8266 H   0  0  0  0  0  0  0  0  0  0  0  0
   64.3646   34.0544   47.3643 H   0  0  0  0  0  0  0  0  0  0  0  0
   62.8260   32.5961   46.0455 H   0  0  0  0  0  0  0  0  0  0  0  0
   61.5337   30.7887   47.1823 H   0  0  0  0  0  0  0  0  0  0  0  0
   58.1791   31.2800   47.5136 H   0  0  0  0  0  0  0  0  0  0  0  0
   57.2373   28.2924   43.4665 H   0  0  0  0  0  0  0  0  0  0  0  0
   57.0384   26.0324   44.4885 H   0  0  0  0  0  0  0  0  0  0  0  0
  1  2  1  0
  2  3  2  0
  2  4  2  0
  2  5  1  0
  5  6  2  0
  6  7  1  0
  7  8  2  0
  8  9  1  0
  9 10  2  0
 10 11  1  0
 11 12  1  0
 12 13  2  0
 13 14  1  0
 14 15  2  0
 15 16  1  0
 16 17  2  0
 16 18  1  0
 18 19  1  0
 19 20  2  0
 19 21  2  0
 19 22  1  0
 22 23  2  0
 23 24  1  0
 24 25  2  0
 25 26  1  0
 26 27  1  0
 27 28  2  0
 27 29  1  0
 29 30  1  0
 30 31  1  0
 31 32  2  0
 32 33  1  0
 33 34  2  0
 34 35  1  0
 35 36  2  0
 26 37  2  0
 15 38  1  0
 38 39  2  0
 10  5  1  0
 39 12  1  0
 37 22  1  0
 36 31  1  0
  1 40  1  0
  6 41  1  0
  7 42  1  0
  8 43  1  0
  9 44  1  0
 11 45  1  0
 11 46  1  0
 13 47  1  0
 14 48  1  0
 23 49  1  0
 24 50  1  0
 25 51  1  0
 30 52  1  0
 30 53  1  0
 32 54  1  0
 33 55  1  0
 34 56  1  0
 35 57  1  0
 36 58  1  0
 37 59  1  0
 38 60  1  0
 39 61  1  0
M  CHG  2   1  -1  18  -1
M  END
>  <UniqueID>  (18) 
18

>  <SMILES>  (18) 
[NH-]S(=O)(=O)c1ccccc1Cc1ccc(C(=O)[N-]S(=O)(=O)c2cccc(C(=O)OCc3ccccc3)c2)cc1

>  <Energy>  (18) 
67.84262189317724

>  <Genealogy>  (18) 
[NH-]S(=O)(=O)c1ccccc1Cc1ccc(C(=O)[N-]S(=O)(=O)c2cccc(C(=O)OCc3ccccc3)c2)cc1 (protonated)
[NH-]S(=O)(=O)c1ccccc1Cc1ccc(C(=O)[N-]S(=O)(=O)c2cccc(C(=O)OCc3ccccc3)c2)cc1 (3D coordinates assigned)
[NH-]S(=O)(=O)c1ccccc1Cc1ccc(C(=O)[N-]S(=O)(=O)c2cccc(C(=O)OCc3ccccc3)c2)cc1 (optimized conformer: 67.84262189317724 kcal/mol)

>  <smiles>  (18) 
NS(=O)(=O)c1ccccc1Cc1ccc(C(=O)NS(=O)(=O)c2cccc(C(=O)OCc3ccccc3)c2)cc1

>  <score_type>  (18) 
oracle

>  <origin>  (18) 
adg

>  <m_score__min__energy>  (18) 
-14.800000000000001

>  <m_primary>  (18) 
energy

$$$$
18:0
     RDKit          3D

 50 53  0  0  0  0  0  0  0  0999 V2000
   57.9070   26.6250   42.7410 C   0  0  0  0  0  0  0  0  0  0  0  0
   57.9640   27.4720   43.7760 C   0  0  0  0  0  0  0  0  0  0  0  0
   57.9740   28.8090   43.5920 N   0  0  0  0  0  0  0  0  0  0  0  0
   58.2250   29.3790   44.7830 C   0  0  0  0  0  0  0  0  0  0  0  0
   58.3270   30.8610   44.9800 C   0  0  0  0  0  0  0  0  0  0  0  0
   58.3870   28.4030   45.7560 C   0  0  0  0  0  0  0  0  0  0  0  0
   58.6340   28.6530   47.1910 C   0  0  0  0  0  0  0  0  0  0  0  0
   58.1470   27.8700   48.0500 O   0  0  0  0  0  0  0  0  0  0  0  0
   59.3930   29.7970   47.6150 N   0  0  0  0  0  0  0  0  0  0  0  0
   60.6670   30.1040   46.9450 C   0  0  0  0  0  0  0  0  0  0  0  0
   61.2430   31.4210   47.4580 C   0  0  0  0  0  0  0  0  0  0  0  0
   60.1290   32.3800   47.6120 N   0  0  0  0  0  0  0  0  0  0  0  0
   60.4890   33.8220   47.6680 C   0  0  0  0  0  0  0  0  0  0  0  0
   60.9780   34.4630   46.3660 C   0  0  0  0  0  0  0  0  0  0  0  0
   59.7510   35.3710   46.3650 C   0  0  0  0  0  0  0  0  0  0  0  0
   59.2760   34.7520   47.6760 C   0  0  0  0  0  0  0  0  0  0  0  0
   59.2680   32.0110   48.7560 C   0  0  0  0  0  0  0  0  0  0  0  0
   59.0370   30.4860   48.8630 C   0  0  0  0  0  0  0  0  0  0  0  0
   58.1710   27.1730   45.1320 C   0  0  0  0  0  0  0  0  0  0  0  0
   58.1970   25.9810   45.7660 C   0  0  0  0  0  0  0  0  0  0  0  0
   57.0290   25.1170   46.0060 C   0  0  0  0  0  0  0  0  0  0  0  0
   57.0770   23.7720   46.0550 N   0  0  0  0  0  0  0  0  0  0  0  0
   55.7780   23.4180   46.1510 C   0  0  0  0  0  0  0  0  0  0  0  0
   55.4070   22.2190   46.2360 O   0  0  0  0  0  0  0  0  0  0  0  0
   54.9070   24.4490   46.1400 N   0  0  0  0  0  0  0  0  0  0  0  0
   55.7130   25.5180   46.0340 C   0  0  0  0  0  0  0  0  0  0  0  0
   55.2450   26.8280   45.9650 O   0  0  0  0  0  0  0  0  0  0  0  0
   57.9001   25.5394   42.9184 H   0  0  0  0  0  0  0  0  0  0  0  0
   57.8670   27.0146   41.7131 H   0  0  0  0  0  0  0  0  0  0  0  0
   57.8610   29.3150   42.6830 H   0  0  0  0  0  0  0  0  0  0  0  0
   58.3426   31.0876   46.0563 H   0  0  0  0  0  0  0  0  0  0  0  0
   59.2527   31.2300   44.5142 H   0  0  0  0  0  0  0  0  0  0  0  0
   57.4606   31.3533   44.5142 H   0  0  0  0  0  0  0  0  0  0  0  0
   61.3842   29.2942   47.1446 H   0  0  0  0  0  0  0  0  0  0  0  0
   60.4850   30.1950   45.8640 H   0  0  0  0  0  0  0  0  0  0  0  0
   61.7336   31.2602   48.4293 H   0  0  0  0  0  0  0  0  0  0  0  0
   61.9881   31.8127   46.7499 H   0  0  0  0  0  0  0  0  0  0  0  0
   61.1813   33.7665   48.5210 H   0  0  0  0  0  0  0  0  0  0  0  0
   61.9346   34.9981   46.4586 H   0  0  0  0  0  0  0  0  0  0  0  0
   61.2158   33.8414   45.4902 H   0  0  0  0  0  0  0  0  0  0  0  0
   59.9878   36.4428   46.4365 H   0  0  0  0  0  0  0  0  0  0  0  0
   59.0827   35.3957   45.4916 H   0  0  0  0  0  0  0  0  0  0  0  0
   59.2525   35.4538   48.5227 H   0  0  0  0  0  0  0  0  0  0  0  0
   58.2587   34.3433   47.7651 H   0  0  0  0  0  0  0  0  0  0  0  0
   59.7462   32.3602   49.6831 H   0  0  0  0  0  0  0  0  0  0  0  0
   58.2877   32.4849   48.5998 H   0  0  0  0  0  0  0  0  0  0  0  0
   59.6562   30.0875   49.6801 H   0  0  0  0  0  0  0  0  0  0  0  0
   57.9687   30.3124   49.0596 H   0  0  0  0  0  0  0  0  0  0  0  0
   59.1712   25.6261   46.1335 H   0  0  0  0  0  0  0  0  0  0  0  0
   54.3540   27.0900   46.3680 H   0  0  0  0  0  0  0  0  0  0  0  0
  1  2  2  0
  2  3  1  0
  3  4  1  0
  4  5  1  0
  4  6  2  0
  6  7  1  0
  7  8  2  0
  7  9  1  0
  9 10  1  0
 10 11  1  0
 11 12  1  0
 12 13  1  0
 13 14  1  0
 14 15  1  0
 15 16  1  0
 12 17  1  0
 17 18  1  0
  6 19  1  0
 19 20  2  3
 20 21  1  0
 21 22  1  0
 22 23  1  0
 23 24  2  0
 23 25  1  0
 25 26  1  0
 26 27  1  0
 19  2  1  0
 26 21  2  0
 18  9  1  0
 16 13  1  0
  1 28  1  0
  1 29  1  0
  3 30  1  0
  5 31  1  0
  5 32  1  0
  5 33  1  0
 10 34  1  0
 10 35  1  0
 11 36  1  0
 11 37  1  0
 13 38  1  0
 14 39  1  0
 14 40  1  0
 15 41  1  0
 15 42  1  0
 16 43  1  0
 16 44  1  0
 17 45  1  0
 17 46  1  0
 18 47  1  0
 18 48  1  0
 20 49  1  0
 27 50  1  0
M  CHG  2  22  -1  25  -1
M  END
>  <UniqueID>  (19) 
19

>  <SMILES>  (19) 
C=c1[nH]c(C)c(C(=O)N2CCN(C3CCC3)CC2)c1=Cc1[n-]c(=O)[n-]c1O

>  <Energy>  (19) 
194.97955233062382

>  <Genealogy>  (19) 
C=c1[nH]c(C)c(C(=O)N2CCN(C3CCC3)CC2)c1=Cc1[n-]c(=O)[n-]c1O (protonated)
C=c1[nH]c(C)c(C(=O)N2CCN(C3CCC3)CC2)c1=Cc1[n-]c(=O)[n-]c1O (3D coordinates assigned)
C=c1[nH]c(C)c(C(=O)N2CCN(C3CCC3)CC2)c1=Cc1[n-]c(=O)[n-]c1O (nonaromatic ring conformer: 194.97955233062382 kcal/mol)

>  <smiles>  (19) 
C=c1[nH]c(C)c(C(=O)N2CCN(C3CCC3)CC2)c1=Cc1[nH]c(=O)[nH]c1O

>  <score_type>  (19) 
oracle

>  <origin>  (19) 
adg

>  <m_score__min__energy>  (19) 
-12.460000000000001

>  <m_primary>  (19) 
energy

$$$$
19:0
     RDKit          3D

 42 44  0  0  0  0  0  0  0  0999 V2000
   56.6530   22.3850   43.0880 C   0  0  0  0  0  0  0  0  0  0  0  0
   56.8000   21.5640   44.1310 C   0  0  0  0  0  0  0  0  0  0  0  0
   56.7930   22.0790   45.5420 C   0  0  0  0  0  0  0  0  0  0  0  0
   57.4140   23.4010   45.6110 N   0  0  0  0  0  0  0  0  0  0  0  0
   56.6930   24.5620   46.0570 C   0  0  0  0  0  0  0  0  0  0  0  0
   55.5230   24.4310   46.5140 O   0  0  0  0  0  0  0  0  0  0  0  0
   57.3050   25.9120   46.0110 C   0  0  0  0  0  0  0  0  0  0  0  0
   58.6650   26.1040   46.3170 C   0  0  0  0  0  0  0  0  0  0  0  0
   59.2260   27.3840   46.2710 C   0  0  0  0  0  0  0  0  0  0  0  0
   58.4440   28.4810   45.9090 C   0  0  0  0  0  0  0  0  0  0  0  0
   57.0920   28.3030   45.5680 C   0  0  0  0  0  0  0  0  0  0  0  0
   56.2590   29.4120   45.2100 N   0  0  0  0  0  0  0  0  0  0  0  0
   56.6840   30.5580   44.4630 C   0  0  0  0  0  0  0  0  0  0  0  0
   56.5060   30.5730   43.2170 O   0  0  0  0  0  0  0  0  0  0  0  0
   57.3500   31.6590   45.1010 N   0  0  0  0  0  0  0  0  0  0  0  0
   57.5210   32.9660   44.4610 C   0  0  0  0  0  0  0  0  0  0  0  0
   58.4650   33.6630   45.3670 C   0  0  0  0  0  0  0  0  0  0  0  0
   58.9690   34.9590   45.2470 C   0  0  0  0  0  0  0  0  0  0  0  0
   59.8640   35.4240   46.2250 C   0  0  0  0  0  0  0  0  0  0  0  0
   60.2390   34.5900   47.2960 C   0  0  0  0  0  0  0  0  0  0  0  0
   59.7200   33.2890   47.3960 C   0  0  0  0  0  0  0  0  0  0  0  0
   58.8310   32.8490   46.4130 C   0  0  0  0  0  0  0  0  0  0  0  0
   58.1600   31.5310   46.3160 C   0  0  0  0  0  0  0  0  0  0  0  0
   56.5290   27.0230   45.6350 C   0  0  0  0  0  0  0  0  0  0  0  0
   56.6619   21.9813   42.0648 H   0  0  0  0  0  0  0  0  0  0  0  0
   56.5230   23.4649   43.2521 H   0  0  0  0  0  0  0  0  0  0  0  0
   56.9291   20.4862   43.9528 H   0  0  0  0  0  0  0  0  0  0  0  0
   55.7539   22.1489   45.8961 H   0  0  0  0  0  0  0  0  0  0  0  0
   57.3652   21.3852   46.1753 H   0  0  0  0  0  0  0  0  0  0  0  0
   58.4260   23.4750   45.3690 H   0  0  0  0  0  0  0  0  0  0  0  0
   59.2903   25.2424   46.5939 H   0  0  0  0  0  0  0  0  0  0  0  0
   60.2877   27.5264   46.5211 H   0  0  0  0  0  0  0  0  0  0  0  0
   58.8865   29.4879   45.8904 H   0  0  0  0  0  0  0  0  0  0  0  0
   57.9475   32.8592   43.4527 H   0  0  0  0  0  0  0  0  0  0  0  0
   56.5735   33.5077   44.3240 H   0  0  0  0  0  0  0  0  0  0  0  0
   58.6721   35.6020   44.4054 H   0  0  0  0  0  0  0  0  0  0  0  0
   60.2731   36.4426   46.1540 H   0  0  0  0  0  0  0  0  0  0  0  0
   60.9416   34.9593   48.0576 H   0  0  0  0  0  0  0  0  0  0  0  0
   60.0072   32.6314   48.2297 H   0  0  0  0  0  0  0  0  0  0  0  0
   58.8960   30.7196   46.2163 H   0  0  0  0  0  0  0  0  0  0  0  0
   57.5658   31.2816   47.2075 H   0  0  0  0  0  0  0  0  0  0  0  0
   55.4656   26.8844   45.3903 H   0  0  0  0  0  0  0  0  0  0  0  0
  1  2  2  0
  2  3  1  0
  3  4  1  0
  4  5  1  0
  5  6  2  0
  5  7  1  0
  7  8  2  0
  8  9  1  0
  9 10  2  0
 10 11  1  0
 11 12  1  0
 12 13  1  0
 13 14  2  0
 13 15  1  0
 15 16  1  0
 16 17  1  0
 17 18  2  0
 18 19  1  0
 19 20  2  0
 20 21  1  0
 21 22  2  0
 22 23  1  0
 11 24  2  0
 24  7  1  0
 23 15  1  0
 22 17  1  0
  1 25  1  0
  1 26  1  0
  2 27  1  0
  3 28  1  0
  3 29  1  0
  4 30  1  0
  8 31  1  0
  9 32  1  0
 10 33  1  0
 16 34  1  0
 16 35  1  0
 18 36  1  0
 19 37  1  0
 20 38  1  0
 21 39  1  0
 23 40  1  0
 23 41  1  0
 24 42  1  0
M  CHG  1  12  -1
M  END
>  <UniqueID>  (20) 
20

>  <SMILES>  (20) 
C=CCNC(=O)c1cccc([N-]C(=O)N2Cc3ccccc3C2)c1

>  <Energy>  (20) 
56.87155176248463

>  <Genealogy>  (20) 
C=CCNC(=O)c1cccc([N-]C(=O)N2Cc3ccccc3C2)c1 (protonated)
C=CCNC(=O)c1cccc([N-]C(=O)N2Cc3ccccc3C2)c1 (3D coordinates assigned)
C=CCNC(=O)c1cccc([N-]C(=O)N2Cc3ccccc3C2)c1 (nonaromatic ring conformer: 56.87155176248463 kcal/mol)

>  <smiles>  (20) 
C=CCNC(=O)c1cccc(NC(=O)N2Cc3ccccc3C2)c1

>  <score_type>  (20) 
oracle

>  <origin>  (20) 
adg

>  <m_score__min__energy>  (20) 
-9.3599999999999994

>  <m_primary>  (20) 
energy

$$$$
20:0
     RDKit          3D

 38 40  0  0  0  0  0  0  0  0999 V2000
   57.0563   34.1874   43.9092 H   0  0  0  0  0  0  0  0  0  0  0  0
   57.4490   34.5570   44.8680 C   0  0  0  0  0  0  0  0  0  0  0  0
   57.5287   35.6390   45.0493 H   0  0  0  0  0  0  0  0  0  0  0  0
   57.8290   33.6920   45.8120 C   0  0  0  0  0  0  0  0  0  0  0  0
   59.1430   31.5690   46.1470 C   0  0  0  0  0  0  0  0  0  0  0  0
   59.6460   30.4560   45.6830 N   0  0  0  0  0  0  0  0  0  0  0  0
   56.9370   30.9290   43.6630 C   0  0  0  0  0  0  0  0  0  0  0  0
   56.5893   31.7000   42.9596 H   0  0  0  0  0  0  0  0  0  0  0  0
   57.9302   30.5649   43.3613 H   0  0  0  0  0  0  0  0  0  0  0  0
   55.9510   29.7550   43.6550 C   0  0  0  0  0  0  0  0  0  0  0  0
   55.2747   29.8648   42.7945 H   0  0  0  0  0  0  0  0  0  0  0  0
   56.5318   28.8233   43.5874 H   0  0  0  0  0  0  0  0  0  0  0  0
   55.1540   29.7030   44.8780 N   0  0  0  0  0  0  0  0  0  0  0  0
   55.7830   29.8640   45.6970 H   0  0  0  0  0  0  0  0  0  0  0  0
   54.4480   30.4730   44.8620 H   0  0  0  0  0  0  0  0  0  0  0  0
   57.9700   32.2420   45.5330 C   0  0  0  0  0  0  0  0  0  0  0  0
   57.0280   31.5060   45.0070 N   0  0  0  0  0  0  0  0  0  0  0  0
   59.0020   29.1760   45.6060 C   0  0  0  0  0  0  0  0  0  0  0  0
   58.3750   28.6550   46.7440 C   0  0  0  0  0  0  0  0  0  0  0  0
   58.3645   29.2359   47.6781 H   0  0  0  0  0  0  0  0  0  0  0  0
   57.7620   27.3990   46.6980 C   0  0  0  0  0  0  0  0  0  0  0  0
   57.2545   27.0028   47.5899 H   0  0  0  0  0  0  0  0  0  0  0  0
   57.7930   26.6450   45.5190 C   0  0  0  0  0  0  0  0  0  0  0  0
   57.0210   25.0720   45.4620 Cl  0  0  0  0  0  0  0  0  0  0  0  0
   58.4520   27.1440   44.3910 C   0  0  0  0  0  0  0  0  0  0  0  0
   58.4879   26.5475   43.4674 H   0  0  0  0  0  0  0  0  0  0  0  0
   59.0650   28.3990   44.4350 C   0  0  0  0  0  0  0  0  0  0  0  0
   59.5982   28.7803   43.5517 H   0  0  0  0  0  0  0  0  0  0  0  0
   59.6860   32.1480   47.4010 C   0  0  0  0  0  0  0  0  0  0  0  0
   60.6230   31.4630   48.1910 C   0  0  0  0  0  0  0  0  0  0  0  0
   60.9879   30.4738   47.8774 H   0  0  0  0  0  0  0  0  0  0  0  0
   61.0790   32.0210   49.3420 N   0  0  0  0  0  0  0  0  0  0  0  0
   60.6490   33.2420   49.7470 C   0  0  0  0  0  0  0  0  0  0  0  0
   61.0303   33.6755   50.6833 H   0  0  0  0  0  0  0  0  0  0  0  0
   59.7490   33.9300   48.9990 N   0  0  0  0  0  0  0  0  0  0  0  0
   59.2560   33.4160   47.8420 C   0  0  0  0  0  0  0  0  0  0  0  0
   58.3390   34.1900   47.0570 N   0  0  0  0  0  0  0  0  0  0  0  0
   58.1190   35.1680   47.3580 H   0  0  0  0  0  0  0  0  0  0  0  0
  1  2  1  0
  2  3  1  0
  2  4  2  0
  4  5  1  0
  5  6  2  0
  6  7  1  0
  7  8  1  0
  7  9  1  0
  7 10  1  0
 10 11  1  0
 10 12  1  0
 10 13  1  0
 13 14  1  0
 13 15  1  0
  5 16  1  0
 16 17  2  0
 17 18  1  0
 18 19  2  0
 19 20  1  0
 19 21  1  0
 21 22  1  0
 21 23  2  0
 23 24  1  0
 23 25  1  0
 25 26  1  0
 25 27  2  0
 27 28  1  0
 16 29  1  0
 29 30  2  0
 30 31  1  0
 30 32  1  0
 32 33  2  0
 33 34  1  0
 33 35  1  0
 35 36  2  0
 36 37  1  0
 37 38  1  0
 37  4  1  0
 27 18  1  0
 36 29  1  0
M  END
>  <UniqueID>  (21) 
21

>  <SMILES>  (21) 
C=C1Nc2ncncc2/C(=N/c2ccc(Cl)cc2)C1=NCCN

>  <Energy>  (21) 
59.78787103377967

>  <Genealogy>  (21) 
C=C1Nc2ncncc2/C(=N/c2ccc(Cl)cc2)C1=NCCN (cis-trans isomerization)
C=C1Nc2ncncc2/C(=N/c2ccc(Cl)cc2)C1=NCCN (3D coordinates assigned)
C=C1Nc2ncncc2/C(=N/c2ccc(Cl)cc2)C1=NCCN (nonaromatic ring conformer: 59.78787103377967 kcal/mol)

>  <smiles>  (21) 
C=C1Nc2ncncc2C(=Nc2ccc(Cl)cc2)C1=NCCN

>  <score_type>  (21) 
oracle

>  <origin>  (21) 
adg

>  <m_score__min__energy>  (21) 
-7.9800000000000004

>  <m_primary>  (21) 
energy

$$$$
21:0
     RDKit          3D

 46 49  0  0  0  0  0  0  0  0999 V2000
   56.8640   24.0790   47.0180 C   0  0  0  0  0  0  0  0  0  0  0  0
   57.6720   25.0110   47.9140 C   0  0  0  0  0  0  0  0  0  0  0  0
   58.4470   25.9610   47.1040 N   0  0  0  0  0  0  0  0  0  0  0  0
   58.3480   25.9030   45.6360 C   0  0  0  0  0  0  0  0  0  0  0  0
   57.8700   27.2280   45.0840 C   0  0  0  0  0  0  0  0  0  0  0  0
   58.7810   27.9960   44.3340 C   0  0  0  0  0  0  0  0  0  0  0  0
   58.4190   29.2460   43.8320 C   0  0  0  0  0  0  0  0  0  0  0  0
   57.1440   29.7530   44.0720 C   0  0  0  0  0  0  0  0  0  0  0  0
   56.2230   29.0100   44.8120 C   0  0  0  0  0  0  0  0  0  0  0  0
   54.9530   29.5290   45.0390 O   0  0  0  0  0  0  0  0  0  0  0  0
   56.5670   27.7480   45.3210 C   0  0  0  0  0  0  0  0  0  0  0  0
   55.5900   27.0550   46.0420 O   0  0  0  0  0  0  0  0  0  0  0  0
   59.2460   26.9820   47.7390 C   0  0  0  0  0  0  0  0  0  0  0  0
   59.2280   28.2800   47.3660 N   0  0  0  0  0  0  0  0  0  0  0  0
   60.0560   29.0570   48.1210 C   0  0  0  0  0  0  0  0  0  0  0  0
   60.1730   30.5200   47.8740 C   0  0  0  0  0  0  0  0  0  0  0  0
   60.9780   31.3450   48.6870 C   0  0  0  0  0  0  0  0  0  0  0  0
   61.0730   32.7170   48.4420 C   0  0  0  0  0  0  0  0  0  0  0  0
   60.3660   33.2970   47.3810 C   0  0  0  0  0  0  0  0  0  0  0  0
   60.4550   34.6750   47.1290 C   0  0  0  0  0  0  0  0  0  0  0  0
   59.7420   35.2420   46.0680 C   0  0  0  0  0  0  0  0  0  0  0  0
   59.8340   36.6070   45.8220 O   0  0  0  0  0  0  0  0  0  0  0  0
   58.9380   34.4390   45.2540 C   0  0  0  0  0  0  0  0  0  0  0  0
   58.8400   33.0660   45.4970 C   0  0  0  0  0  0  0  0  0  0  0  0
   59.5510   32.4850   46.5580 C   0  0  0  0  0  0  0  0  0  0  0  0
   59.4610   31.1080   46.8110 C   0  0  0  0  0  0  0  0  0  0  0  0
   60.7520   28.3570   49.1130 C   0  0  0  0  0  0  0  0  0  0  0  0
   60.3010   26.7380   49.0270 S   0  0  0  0  0  0  0  0  0  0  0  0
   56.2704   23.3943   47.6416 H   0  0  0  0  0  0  0  0  0  0  0  0
   56.1907   24.6734   46.3830 H   0  0  0  0  0  0  0  0  0  0  0  0
   57.5479   23.4968   46.3830 H   0  0  0  0  0  0  0  0  0  0  0  0
   56.9858   25.5689   48.5682 H   0  0  0  0  0  0  0  0  0  0  0  0
   58.3671   24.4092   48.5179 H   0  0  0  0  0  0  0  0  0  0  0  0
   59.3377   25.6716   45.2154 H   0  0  0  0  0  0  0  0  0  0  0  0
   57.6257   25.1210   45.3589 H   0  0  0  0  0  0  0  0  0  0  0  0
   59.7911   27.6053   44.1415 H   0  0  0  0  0  0  0  0  0  0  0  0
   59.1416   29.8324   43.2456 H   0  0  0  0  0  0  0  0  0  0  0  0
   56.8626   30.7406   43.6777 H   0  0  0  0  0  0  0  0  0  0  0  0
   54.7350   27.4640   46.3870 H   0  0  0  0  0  0  0  0  0  0  0  0
   61.5378   30.9026   49.5242 H   0  0  0  0  0  0  0  0  0  0  0  0
   61.7063   33.3452   49.0857 H   0  0  0  0  0  0  0  0  0  0  0  0
   61.0868   35.3101   47.7673 H   0  0  0  0  0  0  0  0  0  0  0  0
   58.3805   34.8891   44.4194 H   0  0  0  0  0  0  0  0  0  0  0  0
   58.2038   32.4393   44.8547 H   0  0  0  0  0  0  0  0  0  0  0  0
   58.8255   30.4791   46.1702 H   0  0  0  0  0  0  0  0  0  0  0  0
   61.4695   28.7900   49.8255 H   0  0  0  0  0  0  0  0  0  0  0  0
  1  2  1  0
  2  3  1  0
  3  4  1  0
  4  5  1  0
  5  6  2  0
  6  7  1  0
  7  8  2  0
  8  9  1  0
  9 10  1  0
  9 11  2  0
 11 12  1  0
  3 13  1  0
 13 14  2  0
 14 15  1  0
 15 16  1  0
 16 17  2  0
 17 18  1  0
 18 19  2  0
 19 20  1  0
 20 21  2  0
 21 22  1  0
 21 23  1  0
 23 24  2  0
 24 25  1  0
 25 26  2  0
 15 27  2  0
 27 28  1  0
 11  5  1  0
 28 13  1  0
 26 16  1  0
 25 19  1  0
  1 29  1  0
  1 30  1  0
  1 31  1  0
  2 32  1  0
  2 33  1  0
  4 34  1  0
  4 35  1  0
  6 36  1  0
  7 37  1  0
  8 38  1  0
 12 39  1  0
 17 40  1  0
 18 41  1  0
 20 42  1  0
 23 43  1  0
 24 44  1  0
 26 45  1  0
 27 46  1  0
M  CHG  2  10  -1  22  -1
M  END
>  <UniqueID>  (22) 
22

>  <SMILES>  (22) 
CCN(Cc1cccc([O-])c1O)c1nc(-c2ccc3cc([O-])ccc3c2)cs1

>  <Energy>  (22) 
84.36030694116512

>  <Genealogy>  (22) 
CCN(Cc1cccc([O-])c1O)c1nc(-c2ccc3cc([O-])ccc3c2)cs1 (protonated)
CCN(Cc1cccc([O-])c1O)c1nc(-c2ccc3cc([O-])ccc3c2)cs1 (3D coordinates assigned)
CCN(Cc1cccc([O-])c1O)c1nc(-c2ccc3cc([O-])ccc3c2)cs1 (optimized conformer: 84.36030694116512 kcal/mol)

>  <smiles>  (22) 
CCN(Cc1cccc(O)c1O)c1nc(-c2ccc3cc(O)ccc3c2)cs1

>  <score_type>  (22) 
oracle

>  <origin>  (22) 
adg

>  <m_score__min__energy>  (22) 
-13.699999999999999

>  <m_primary>  (22) 
energy

$$$$
22:0
     RDKit          3D

 50 52  0  0  0  0  0  0  0  0999 V2000
   59.7260   35.6610   46.0120 C   0  0  0  0  0  0  0  0  0  0  0  0
   59.4050   34.5680   46.9990 C   0  0  0  0  0  0  0  0  0  0  0  0
   60.1150   34.5230   48.2140 C   0  0  0  0  0  0  0  0  0  0  0  0
   59.8650   33.5160   49.1470 C   0  0  0  0  0  0  0  0  0  0  0  0
   58.9140   32.5340   48.8770 C   0  0  0  0  0  0  0  0  0  0  0  0
   58.2090   32.5560   47.6730 C   0  0  0  0  0  0  0  0  0  0  0  0
   58.4420   33.5630   46.7200 C   0  0  0  0  0  0  0  0  0  0  0  0
   57.5140   33.5380   45.2050 S   0  0  0  0  0  0  0  0  0  0  0  0
   58.4410   33.7710   44.0430 O   0  0  0  0  0  0  0  0  0  0  0  0
   56.5160   34.6620   45.2310 O   0  0  0  0  0  0  0  0  0  0  0  0
   56.6640   32.0370   44.9320 N   0  0  0  0  0  0  0  0  0  0  0  0
   57.0080   31.4220   43.6490 C   0  0  0  0  0  0  0  0  0  0  0  0
   58.4820   31.0070   43.5910 C   0  0  0  0  0  0  0  0  0  0  0  0
   58.6820   29.7240   44.3500 C   0  0  0  0  0  0  0  0  0  0  0  0
   59.3460   29.7290   45.5890 C   0  0  0  0  0  0  0  0  0  0  0  0
   59.4250   28.5610   46.3520 C   0  0  0  0  0  0  0  0  0  0  0  0
   58.8290   27.3790   45.8950 C   0  0  0  0  0  0  0  0  0  0  0  0
   58.8260   25.9490   46.9240 S   0  0  0  0  0  0  0  0  0  0  0  0
   59.4190   26.3220   48.2530 O   0  0  0  0  0  0  0  0  0  0  0  0
   59.6550   24.8550   46.3100 O   0  0  0  0  0  0  0  0  0  0  0  0
   57.2070   25.3650   47.1730 N   0  0  0  0  0  0  0  0  0  0  0  0
   56.1840   25.2650   46.1730 C   0  0  0  0  0  0  0  0  0  0  0  0
   55.2370   26.0960   46.1950 O   0  0  0  0  0  0  0  0  0  0  0  0
   56.2040   24.2320   45.1140 C   0  0  0  0  0  0  0  0  0  0  0  0
   56.6720   24.5320   43.8280 C   0  0  0  0  0  0  0  0  0  0  0  0
   56.6890   23.5730   42.8650 N   0  0  0  0  0  0  0  0  0  0  0  0
   56.2700   22.3080   43.1320 C   0  0  0  0  0  0  0  0  0  0  0  0
   56.2860   21.4300   42.2280 O   0  0  0  0  0  0  0  0  0  0  0  0
   55.8340   21.9860   44.3770 N   0  0  0  0  0  0  0  0  0  0  0  0
   55.7940   22.9120   45.3690 C   0  0  0  0  0  0  0  0  0  0  0  0
   55.3790   22.5750   46.5110 O   0  0  0  0  0  0  0  0  0  0  0  0
   58.1850   27.3640   44.6500 C   0  0  0  0  0  0  0  0  0  0  0  0
   58.1080   28.5300   43.8840 C   0  0  0  0  0  0  0  0  0  0  0  0
   59.9955   36.5785   46.5557 H   0  0  0  0  0  0  0  0  0  0  0  0
   60.5702   35.3480   45.3800 H   0  0  0  0  0  0  0  0  0  0  0  0
   58.8467   35.8542   45.3800 H   0  0  0  0  0  0  0  0  0  0  0  0
   60.8742   35.2892   48.4298 H   0  0  0  0  0  0  0  0  0  0  0  0
   60.4194   33.4973   50.0969 H   0  0  0  0  0  0  0  0  0  0  0  0
   58.7188   31.7407   49.6136 H   0  0  0  0  0  0  0  0  0  0  0  0
   57.4616   31.7757   47.4669 H   0  0  0  0  0  0  0  0  0  0  0  0
   56.3814   30.5298   43.5030 H   0  0  0  0  0  0  0  0  0  0  0  0
   56.8316   32.1646   42.8569 H   0  0  0  0  0  0  0  0  0  0  0  0
   58.7788   30.8604   42.5420 H   0  0  0  0  0  0  0  0  0  0  0  0
   59.0990   31.7966   44.0448 H   0  0  0  0  0  0  0  0  0  0  0  0
   59.8057   30.6570   45.9598 H   0  0  0  0  0  0  0  0  0  0  0  0
   59.9571   28.5700   47.3147 H   0  0  0  0  0  0  0  0  0  0  0  0
   57.0269   25.5472   43.5969 H   0  0  0  0  0  0  0  0  0  0  0  0
   57.0250   23.8230   41.9060 H   0  0  0  0  0  0  0  0  0  0  0  0
   57.7388   26.4312   44.2748 H   0  0  0  0  0  0  0  0  0  0  0  0
   57.5952   28.5127   42.9110 H   0  0  0  0  0  0  0  0  0  0  0  0
  1  2  1  0
  2  3  2  0
  3  4  1  0
  4  5  2  0
  5  6  1  0
  6  7  2  0
  7  8  1  0
  8  9  2  0
  8 10  2  0
  8 11  1  0
 11 12  1  0
 12 13  1  0
 13 14  1  0
 14 15  2  0
 15 16  1  0
 16 17  2  0
 17 18  1  0
 18 19  2  0
 18 20  2  0
 18 21  1  0
 21 22  1  0
 22 23  2  0
 22 24  1  0
 24 25  2  0
 25 26  1  0
 26 27  1  0
 27 28  2  0
 27 29  1  0
 29 30  1  0
 30 31  2  0
 17 32  1  0
 32 33  2  0
  7  2  1  0
 33 14  1  0
 30 24  1  0
  1 34  1  0
  1 35  1  0
  1 36  1  0
  3 37  1  0
  4 38  1  0
  5 39  1  0
  6 40  1  0
 12 41  1  0
 12 42  1  0
 13 43  1  0
 13 44  1  0
 15 45  1  0
 16 46  1  0
 25 47  1  0
 26 48  1  0
 32 49  1  0
 33 50  1  0
M  CHG  3  11  -1  21  -1  29  -1
M  END
>  <UniqueID>  (23) 
23

>  <SMILES>  (23) 
Cc1ccccc1S(=O)(=O)[N-]CCc1ccc(S(=O)(=O)[N-]C(=O)c2c[nH]c(=O)[n-]c2=O)cc1

>  <Energy>  (23) 
55.39616196134495

>  <Genealogy>  (23) 
Cc1ccccc1S(=O)(=O)[N-]CCc1ccc(S(=O)(=O)[N-]C(=O)c2c[nH]c(=O)[n-]c2=O)cc1 (protonated)
Cc1ccccc1S(=O)(=O)[N-]CCc1ccc(S(=O)(=O)[N-]C(=O)c2c[nH]c(=O)[n-]c2=O)cc1 (3D coordinates assigned)
Cc1ccccc1S(=O)(=O)[N-]CCc1ccc(S(=O)(=O)[N-]C(=O)c2c[nH]c(=O)[n-]c2=O)cc1 (optimized conformer: 55.39616196134495 kcal/mol)

>  <smiles>  (23) 
Cc1ccccc1S(=O)(=O)NCCc1ccc(S(=O)(=O)NC(=O)c2c[nH]c(=O)[nH]c2=O)cc1

>  <score_type>  (23) 
oracle

>  <origin>  (23) 
adg

>  <m_score__min__energy>  (23) 
-14.449999999999999

>  <m_primary>  (23) 
energy

$$$$
23:0
     RDKit          3D

 49 52  0  0  0  0  0  0  0  0999 V2000
   60.0971   25.6406   46.6929 H   0  0  0  0  0  0  0  0  0  0  0  0
   60.5910   26.3550   47.3680 C   0  0  0  0  0  0  0  0  0  0  0  0
   61.4494   26.0337   47.9762 H   0  0  0  0  0  0  0  0  0  0  0  0
   60.1440   27.6250   47.4500 C   0  0  0  0  0  0  0  0  0  0  0  0
   60.8230   28.4850   48.3340 C   0  0  0  0  0  0  0  0  0  0  0  0
   61.7072   28.1100   48.8703 H   0  0  0  0  0  0  0  0  0  0  0  0
   60.4060   29.8020   48.5500 C   0  0  0  0  0  0  0  0  0  0  0  0
   61.2080   30.6580   49.4550 C   0  0  0  0  0  0  0  0  0  0  0  0
   61.1910   30.4130   50.6930 O   0  0  0  0  0  0  0  0  0  0  0  0
   61.9920   31.7590   48.9520 N   0  0  0  0  0  0  0  0  0  0  0  0
   62.3600   31.8430   47.5340 C   0  0  0  0  0  0  0  0  0  0  0  0
   62.4344   30.8281   47.1162 H   0  0  0  0  0  0  0  0  0  0  0  0
   61.5896   32.4132   46.9942 H   0  0  0  0  0  0  0  0  0  0  0  0
   63.7080   32.5530   47.3840 C   0  0  0  0  0  0  0  0  0  0  0  0
   64.5004   31.9149   47.8023 H   0  0  0  0  0  0  0  0  0  0  0  0
   63.8916   32.7399   46.3156 H   0  0  0  0  0  0  0  0  0  0  0  0
   63.7010   33.7920   48.0670 O   0  0  0  0  0  0  0  0  0  0  0  0
   63.5780   33.5680   49.4580 C   0  0  0  0  0  0  0  0  0  0  0  0
   64.3782   32.8881   49.7858 H   0  0  0  0  0  0  0  0  0  0  0  0
   63.6583   34.5335   49.9788 H   0  0  0  0  0  0  0  0  0  0  0  0
   62.2190   32.9420   49.7910 C   0  0  0  0  0  0  0  0  0  0  0  0
   62.2042   32.6456   50.8502 H   0  0  0  0  0  0  0  0  0  0  0  0
   61.4252   33.6788   49.5986 H   0  0  0  0  0  0  0  0  0  0  0  0
   59.2870   30.2970   47.8540 C   0  0  0  0  0  0  0  0  0  0  0  0
   58.7710   31.6740   48.0780 C   0  0  0  0  0  0  0  0  0  0  0  0
   58.3320   31.9900   49.2170 O   0  0  0  0  0  0  0  0  0  0  0  0
   58.7660   32.6820   46.9880 C   0  0  0  0  0  0  0  0  0  0  0  0
   58.2670   32.3220   45.7220 C   0  0  0  0  0  0  0  0  0  0  0  0
   57.8813   31.3051   45.5573 H   0  0  0  0  0  0  0  0  0  0  0  0
   58.2570   33.2440   44.6730 C   0  0  0  0  0  0  0  0  0  0  0  0
   57.8636   32.9513   43.6883 H   0  0  0  0  0  0  0  0  0  0  0  0
   58.7450   34.5350   44.8720 C   0  0  0  0  0  0  0  0  0  0  0  0
   58.7392   35.2585   44.0435 H   0  0  0  0  0  0  0  0  0  0  0  0
   59.2410   34.9100   46.1220 C   0  0  0  0  0  0  0  0  0  0  0  0
   59.6225   35.9303   46.2749 H   0  0  0  0  0  0  0  0  0  0  0  0
   59.2560   33.9950   47.1830 C   0  0  0  0  0  0  0  0  0  0  0  0
   59.8380   34.5580   48.7470 Cl  0  0  0  0  0  0  0  0  0  0  0  0
   58.6130   29.4600   46.9520 C   0  0  0  0  0  0  0  0  0  0  0  0
   57.7455   29.8577   46.4049 H   0  0  0  0  0  0  0  0  0  0  0  0
   59.0110   28.1220   46.7220 C   0  0  0  0  0  0  0  0  0  0  0  0
   58.3590   27.3690   45.7930 C   0  0  0  0  0  0  0  0  0  0  0  0
   58.8121   27.3049   44.7927 H   0  0  0  0  0  0  0  0  0  0  0  0
   57.0950   26.6290   46.0090 C   0  0  0  0  0  0  0  0  0  0  0  0
   57.0040   25.3400   46.3860 N   0  0  0  0  0  0  0  0  0  0  0  0
   55.6770   25.0910   46.3340 C   0  0  0  0  0  0  0  0  0  0  0  0
   55.1850   23.9720   46.6350 O   0  0  0  0  0  0  0  0  0  0  0  0
   54.9210   26.1310   45.9230 N   0  0  0  0  0  0  0  0  0  0  0  0
   55.8350   27.0910   45.7110 C   0  0  0  0  0  0  0  0  0  0  0  0
   55.5250   28.3650   45.2510 O   0  0  0  0  0  0  0  0  0  0  0  0
  1  2  1  0
  2  3  1  0
  2  4  2  0
  4  5  1  0
  5  6  1  0
  5  7  2  0
  7  8  1  0
  8  9  2  0
  8 10  1  0
 10 11  1  0
 11 12  1  0
 11 13  1  0
 11 14  1  0
 14 15  1  0
 14 16  1  0
 14 17  1  0
 17 18  1  0
 18 19  1  0
 18 20  1  0
 18 21  1  0
 21 22  1  0
 21 23  1  0
  7 24  1  0
 24 25  1  0
 25 26  2  0
 25 27  1  0
 27 28  2  0
 28 29  1  0
 28 30  1  0
 30 31  1  0
 30 32  2  0
 32 33  1  0
 32 34  1  0
 34 35  1  0
 34 36  2  0
 36 37  1  0
 24 38  2  0
 38 39  1  0
 38 40  1  0
 40 41  2  0
 41 42  1  0
 41 43  1  0
 43 44  1  0
 44 45  1  0
 45 46  2  0
 45 47  1  0
 47 48  1  0
 48 49  1  0
 40  4  1  0
 48 43  2  0
 21 10  1  0
 36 27  1  0
M  CHG  3  44  -1  47  -1  49  -1
M  END
>  <UniqueID>  (24) 
24

>  <SMILES>  (24) 
C=c1cc(C(=O)N2CCOCC2)c(C(=O)c2ccccc2Cl)c/c1=C\c1[n-]c(=O)[n-]c1[O-]

>  <Energy>  (24) 
115.66633859923716

>  <Genealogy>  (24) 
C=c1cc(C(=O)N2CCOCC2)c(C(=O)c2ccccc2Cl)cc1=Cc1[n-]c(=O)[n-]c1[O-] (protonated)
C=c1cc(C(=O)N2CCOCC2)c(C(=O)c2ccccc2Cl)c/c1=C\c1[n-]c(=O)[n-]c1[O-] (cis-trans isomerization)
C=c1cc(C(=O)N2CCOCC2)c(C(=O)c2ccccc2Cl)c/c1=C\c1[n-]c(=O)[n-]c1[O-] (3D coordinates assigned)
C=c1cc(C(=O)N2CCOCC2)c(C(=O)c2ccccc2Cl)c/c1=C\c1[n-]c(=O)[n-]c1[O-] (nonaromatic ring conformer: 115.66633859923716 kcal/mol)

>  <smiles>  (24) 
C=c1cc(C(=O)N2CCOCC2)c(C(=O)c2ccccc2Cl)cc1=Cc1[nH]c(=O)[nH]c1O

>  <score_type>  (24) 
oracle

>  <origin>  (24) 
adg

>  <m_score__min__energy>  (24) 
-17.09

>  <m_primary>  (24) 
energy

$$$$
24:0
     RDKit          3D

 57 60  0  0  0  0  0  0  0  0999 V2000
   56.7970   24.4630   43.2910 C   0  0  0  0  0  0  0  0  0  0  0  0
   57.3190   24.9910   44.4040 C   0  0  0  0  0  0  0  0  0  0  0  0
   58.3320   25.8810   44.3600 N   0  0  0  0  0  0  0  0  0  0  0  0
   58.7590   26.0600   45.6250 C   0  0  0  0  0  0  0  0  0  0  0  0
   59.8530   26.9750   45.9980 C   0  0  0  0  0  0  0  0  0  0  0  0
   61.0270   26.5260   46.0900 O   0  0  0  0  0  0  0  0  0  0  0  0
   59.6060   28.3660   46.2490 N   0  0  0  0  0  0  0  0  0  0  0  0
   60.4490   29.3830   45.6110 C   0  0  0  0  0  0  0  0  0  0  0  0
   61.0330   30.3110   46.6780 C   0  0  0  0  0  0  0  0  0  0  0  0
   59.9860   30.8180   47.5820 N   0  0  0  0  0  0  0  0  0  0  0  0
   60.2090   32.0420   48.3100 C   0  0  0  0  0  0  0  0  0  0  0  0
   59.2550   32.8510   48.4700 O   0  0  0  0  0  0  0  0  0  0  0  0
   61.5070   32.3720   48.8390 N   0  0  0  0  0  0  0  0  0  0  0  0
   62.3700   31.3340   49.4140 C   0  0  0  0  0  0  0  0  0  0  0  0
   62.9920   31.8260   50.7260 C   0  0  0  0  0  0  0  0  0  0  0  0
   63.5710   33.1740   50.5870 N   0  0  0  0  0  0  0  0  0  0  0  0
   64.4160   33.7100   51.6300 C   0  0  0  0  0  0  0  0  0  0  0  0
   64.5330   33.0370   52.9660 C   0  0  0  0  0  0  0  0  0  0  0  0
   65.0930   34.7550   51.4220 O   0  0  0  0  0  0  0  0  0  0  0  0
   63.3790   33.9250   49.3360 C   0  0  0  0  0  0  0  0  0  0  0  0
   61.9360   33.7760   48.8420 C   0  0  0  0  0  0  0  0  0  0  0  0
   58.6220   30.2720   47.5080 C   0  0  0  0  0  0  0  0  0  0  0  0
   58.6520   28.7530   47.3000 C   0  0  0  0  0  0  0  0  0  0  0  0
   58.0030   25.3030   46.4990 C   0  0  0  0  0  0  0  0  0  0  0  0
   57.0540   24.6410   45.7360 C   0  0  0  0  0  0  0  0  0  0  0  0
   56.0970   23.8620   46.2720 C   0  0  0  0  0  0  0  0  0  0  0  0
   54.6660   23.9020   45.9280 C   0  0  0  0  0  0  0  0  0  0  0  0
   53.9160   22.8220   45.6380 N   0  0  0  0  0  0  0  0  0  0  0  0
   52.7390   23.3560   45.2470 C   0  0  0  0  0  0  0  0  0  0  0  0
   51.7540   22.6500   44.9040 O   0  0  0  0  0  0  0  0  0  0  0  0
   52.7020   24.7060   45.2410 N   0  0  0  0  0  0  0  0  0  0  0  0
   53.9350   25.0340   45.6600 C   0  0  0  0  0  0  0  0  0  0  0  0
   54.3860   26.3410   45.7880 O   0  0  0  0  0  0  0  0  0  0  0  0
   55.9713   23.7396   43.3603 H   0  0  0  0  0  0  0  0  0  0  0  0
   57.1936   24.7523   42.3066 H   0  0  0  0  0  0  0  0  0  0  0  0
   58.7510   26.3080   43.5030 H   0  0  0  0  0  0  0  0  0  0  0  0
   61.2681   28.8902   45.0668 H   0  0  0  0  0  0  0  0  0  0  0  0
   59.8411   29.9721   44.9085 H   0  0  0  0  0  0  0  0  0  0  0  0
   61.7763   29.7547   47.2679 H   0  0  0  0  0  0  0  0  0  0  0  0
   61.4987   31.1697   46.1722 H   0  0  0  0  0  0  0  0  0  0  0  0
   61.7712   30.4327   49.6118 H   0  0  0  0  0  0  0  0  0  0  0  0
   63.1750   31.1025   48.7010 H   0  0  0  0  0  0  0  0  0  0  0  0
   62.2124   31.8518   51.5016 H   0  0  0  0  0  0  0  0  0  0  0  0
   63.8013   31.1336   51.0008 H   0  0  0  0  0  0  0  0  0  0  0  0
   64.4034   33.7823   53.7646 H   0  0  0  0  0  0  0  0  0  0  0  0
   63.7558   32.2638   53.0564 H   0  0  0  0  0  0  0  0  0  0  0  0
   65.5255   32.5715   53.0564 H   0  0  0  0  0  0  0  0  0  0  0  0
   63.5932   34.9890   49.5150 H   0  0  0  0  0  0  0  0  0  0  0  0
   64.0618   33.5265   48.5712 H   0  0  0  0  0  0  0  0  0  0  0  0
   61.2712   34.3508   49.5036 H   0  0  0  0  0  0  0  0  0  0  0  0
   61.8855   34.1529   47.8098 H   0  0  0  0  0  0  0  0  0  0  0  0
   58.0925   30.4969   48.4456 H   0  0  0  0  0  0  0  0  0  0  0  0
   58.1041   30.7338   46.6545 H   0  0  0  0  0  0  0  0  0  0  0  0
   58.9458   28.2698   48.2435 H   0  0  0  0  0  0  0  0  0  0  0  0
   57.6480   28.4300   46.9874 H   0  0  0  0  0  0  0  0  0  0  0  0
   58.1297   25.2382   47.5898 H   0  0  0  0  0  0  0  0  0  0  0  0
   56.4107   23.1322   47.0329 H   0  0  0  0  0  0  0  0  0  0  0  0
  1  2  2  0
  2  3  1  0
  3  4  1  0
  4  5  1  0
  5  6  2  0
  5  7  1  0
  7  8  1  0
  8  9  1  0
  9 10  1  0
 10 11  1  0
 11 12  2  0
 11 13  1  0
 13 14  1  0
 14 15  1  0
 15 16  1  0
 16 17  1  0
 17 18  1  0
 17 19  2  0
 16 20  1  0
 20 21  1  0
 10 22  1  0
 22 23  1  0
  4 24  2  0
 24 25  1  0
 25 26  2  3
 26 27  1  0
 27 28  1  0
 28 29  1  0
 29 30  2  0
 29 31  1  0
 31 32  1  0
 32 33  1  0
 25  2  1  0
 32 27  2  0
 23  7  1  0
 21 13  1  0
  1 34  1  0
  1 35  1  0
  3 36  1  0
  8 37  1  0
  8 38  1  0
  9 39  1  0
  9 40  1  0
 14 41  1  0
 14 42  1  0
 15 43  1  0
 15 44  1  0
 18 45  1  0
 18 46  1  0
 18 47  1  0
 20 48  1  0
 20 49  1  0
 21 50  1  0
 21 51  1  0
 22 52  1  0
 22 53  1  0
 23 54  1  0
 23 55  1  0
 24 56  1  0
 26 57  1  0
M  CHG  3  28  -1  31  -1  33  -1
M  END
>  <UniqueID>  (25) 
25

>  <SMILES>  (25) 
C=c1[nH]c(C(=O)N2CCN(C(=O)N3CCN(C(C)=O)CC3)CC2)cc1=Cc1[n-]c(=O)[n-]c1[O-]

>  <Energy>  (25) 
132.25762651810248

>  <Genealogy>  (25) 
C=c1[nH]c(C(=O)N2CCN(C(=O)N3CCN(C(C)=O)CC3)CC2)cc1=Cc1[n-]c(=O)[n-]c1[O-] (protonated)
C=c1[nH]c(C(=O)N2CCN(C(=O)N3CCN(C(C)=O)CC3)CC2)cc1=Cc1[n-]c(=O)[n-]c1[O-] (3D coordinates assigned)
C=c1[nH]c(C(=O)N2CCN(C(=O)N3CCN(C(C)=O)CC3)CC2)cc1=Cc1[n-]c(=O)[n-]c1[O-] (nonaromatic ring conformer: 132.25762651810248 kcal/mol)

>  <smiles>  (25) 
C=c1[nH]c(C(=O)N2CCN(C(=O)N3CCN(C(C)=O)CC3)CC2)cc1=Cc1[nH]c(=O)[nH]c1O

>  <score_type>  (25) 
oracle

>  <origin>  (25) 
adg

>  <m_score__min__energy>  (25) 
-17.809999999999999

>  <m_primary>  (25) 
energy

$$$$
25:0
     RDKit          3D

 39 42  0  0  0  0  0  0  0  0999 V2000
   57.5710   32.3100   50.8780 N   0  0  0  0  0  0  0  0  0  0  0  0
   58.4280   33.1990   51.5940 C   0  0  0  0  0  0  0  0  0  0  0  0
   57.9280   34.0800   52.3440 O   0  0  0  0  0  0  0  0  0  0  0  0
   59.9120   33.1190   51.4240 C   0  0  0  0  0  0  0  0  0  0  0  0
   60.2830   33.4060   50.0010 C   0  0  0  0  0  0  0  0  0  0  0  0
   59.4230   33.8220   48.9910 C   0  0  0  0  0  0  0  0  0  0  0  0
   60.1170   34.0580   47.8530 N   0  0  0  0  0  0  0  0  0  0  0  0
   59.5470   34.4970   46.6130 C   0  0  0  0  0  0  0  0  0  0  0  0
   59.6480   35.7090   46.2810 O   0  0  0  0  0  0  0  0  0  0  0  0
   58.8860   33.5500   45.6970 C   0  0  0  0  0  0  0  0  0  0  0  0
   58.2320   32.3820   46.0900 C   0  0  0  0  0  0  0  0  0  0  0  0
   57.7520   31.8340   44.9210 C   0  0  0  0  0  0  0  0  0  0  0  0
   57.0210   30.6680   44.6990 C   0  0  0  0  0  0  0  0  0  0  0  0
   56.6600   30.3640   43.3740 C   0  0  0  0  0  0  0  0  0  0  0  0
   57.0320   31.2220   42.3150 C   0  0  0  0  0  0  0  0  0  0  0  0
   57.7690   32.3920   42.5720 C   0  0  0  0  0  0  0  0  0  0  0  0
   58.1140   32.6670   43.8950 C   0  0  0  0  0  0  0  0  0  0  0  0
   58.8050   33.7230   44.3550 N   0  0  0  0  0  0  0  0  0  0  0  0
   61.4110   33.7810   48.1300 C   0  0  0  0  0  0  0  0  0  0  0  0
   62.5100   33.8120   47.2660 C   0  0  0  0  0  0  0  0  0  0  0  0
   63.7710   33.4730   47.7880 C   0  0  0  0  0  0  0  0  0  0  0  0
   63.9100   33.1020   49.1440 C   0  0  0  0  0  0  0  0  0  0  0  0
   65.4910   32.6830   49.7760 Cl  0  0  0  0  0  0  0  0  0  0  0  0
   62.7850   33.0520   49.9860 C   0  0  0  0  0  0  0  0  0  0  0  0
   61.5460   33.3920   49.4410 C   0  0  0  0  0  0  0  0  0  0  0  0
   56.5350   32.3740   50.9860 H   0  0  0  0  0  0  0  0  0  0  0  0
   57.9700   31.5890   50.2360 H   0  0  0  0  0  0  0  0  0  0  0  0
   60.3940   33.8573   52.0817 H   0  0  0  0  0  0  0  0  0  0  0  0
   60.2506   32.1061   51.6873 H   0  0  0  0  0  0  0  0  0  0  0  0
   58.3351   33.9421   49.1008 H   0  0  0  0  0  0  0  0  0  0  0  0
   58.1234   31.9854   47.1103 H   0  0  0  0  0  0  0  0  0  0  0  0
   56.7362   30.0081   45.5317 H   0  0  0  0  0  0  0  0  0  0  0  0
   56.0838   29.4516   43.1607 H   0  0  0  0  0  0  0  0  0  0  0  0
   56.7434   30.9734   41.2830 H   0  0  0  0  0  0  0  0  0  0  0  0
   58.0637   33.0682   41.7560 H   0  0  0  0  0  0  0  0  0  0  0  0
   59.1790   34.5180   43.7910 H   0  0  0  0  0  0  0  0  0  0  0  0
   62.3916   34.0933   46.2092 H   0  0  0  0  0  0  0  0  0  0  0  0
   64.6561   33.4969   47.1353 H   0  0  0  0  0  0  0  0  0  0  0  0
   62.8785   32.7543   51.0408 H   0  0  0  0  0  0  0  0  0  0  0  0
  1  2  1  0
  2  3  2  0
  2  4  1  0
  4  5  1  0
  5  6  2  0
  6  7  1  0
  7  8  1  0
  8  9  2  0
  8 10  1  0
 10 11  2  0
 11 12  1  0
 12 13  2  0
 13 14  1  0
 14 15  2  0
 15 16  1  0
 16 17  2  0
 17 18  1  0
  7 19  1  0
 19 20  2  0
 20 21  1  0
 21 22  2  0
 22 23  1  0
 22 24  1  0
 24 25  2  0
 25  5  1  0
 18 10  1  0
 25 19  1  0
 17 12  1  0
  1 26  1  0
  1 27  1  0
  4 28  1  0
  4 29  1  0
  6 30  1  0
 11 31  1  0
 13 32  1  0
 14 33  1  0
 15 34  1  0
 16 35  1  0
 18 36  1  0
 20 37  1  0
 21 38  1  0
 24 39  1  0
M  END
>  <UniqueID>  (26) 
26

>  <SMILES>  (26) 
NC(=O)Cc1cn(C(=O)c2cc3ccccc3[nH]2)c2ccc(Cl)cc12

>  <Energy>  (26) 
110.19676687837591

>  <Genealogy>  (26) 
NC(=O)Cc1cn(C(=O)c2cc3ccccc3[nH]2)c2ccc(Cl)cc12 (3D coordinates assigned)
NC(=O)Cc1cn(C(=O)c2cc3ccccc3[nH]2)c2ccc(Cl)cc12 (optimized conformer: 110.19676687837591 kcal/mol)

>  <smiles>  (26) 
NC(=O)Cc1cn(C(=O)c2cc3ccccc3[nH]2)c2ccc(Cl)cc12

>  <score_type>  (26) 
oracle

>  <origin>  (26) 
adg

>  <m_score__min__energy>  (26) 
-9.0999999999999996

>  <m_primary>  (26) 
energy

$$$$
26:0
     RDKit          3D

 47 49  0  0  0  0  0  0  0  0999 V2000
   59.6067   35.9923   45.7355 H   0  0  0  0  0  0  0  0  0  0  0  0
   59.2270   35.3750   44.9080 C   0  0  0  0  0  0  0  0  0  0  0  0
   59.2100   35.7775   43.8844 H   0  0  0  0  0  0  0  0  0  0  0  0
   58.7850   34.1320   45.1470 C   0  0  0  0  0  0  0  0  0  0  0  0
   58.3270   33.4160   44.0830 N   0  0  0  0  0  0  0  0  0  0  0  0
   57.8840   32.1390   44.2000 C   0  0  0  0  0  0  0  0  0  0  0  0
   57.5154   31.5965   43.3169 H   0  0  0  0  0  0  0  0  0  0  0  0
   57.9000   31.5200   45.4500 C   0  0  0  0  0  0  0  0  0  0  0  0
   57.4530   30.1280   45.6280 C   0  0  0  0  0  0  0  0  0  0  0  0
   56.6950   29.6030   44.7670 O   0  0  0  0  0  0  0  0  0  0  0  0
   57.8660   29.3930   46.7450 O   0  0  0  0  0  0  0  0  0  0  0  0
   58.9920   28.5250   46.7180 C   0  0  0  0  0  0  0  0  0  0  0  0
   59.7345   28.9085   46.0027 H   0  0  0  0  0  0  0  0  0  0  0  0
   59.4430   28.4752   47.7201 H   0  0  0  0  0  0  0  0  0  0  0  0
   58.5530   27.1590   46.2980 C   0  0  0  0  0  0  0  0  0  0  0  0
   59.4200   26.2550   46.1470 O   0  0  0  0  0  0  0  0  0  0  0  0
   57.1730   26.9050   46.0040 N   0  0  0  0  0  0  0  0  0  0  0  0
   56.5450   27.7290   45.8580 H   0  0  0  0  0  0  0  0  0  0  0  0
   56.6550   25.6010   45.6900 C   0  0  0  0  0  0  0  0  0  0  0  0
   57.5480   24.5850   45.3130 C   0  0  0  0  0  0  0  0  0  0  0  0
   58.6266   24.7957   45.2661 H   0  0  0  0  0  0  0  0  0  0  0  0
   57.0760   23.3080   44.9970 C   0  0  0  0  0  0  0  0  0  0  0  0
   57.7835   22.5152   44.7127 H   0  0  0  0  0  0  0  0  0  0  0  0
   55.7060   23.0380   45.0420 C   0  0  0  0  0  0  0  0  0  0  0  0
   55.3369   22.0291   44.8056 H   0  0  0  0  0  0  0  0  0  0  0  0
   54.8040   24.0480   45.3870 C   0  0  0  0  0  0  0  0  0  0  0  0
   53.7254   23.8340   45.4154 H   0  0  0  0  0  0  0  0  0  0  0  0
   55.2700   25.3330   45.6970 C   0  0  0  0  0  0  0  0  0  0  0  0
   54.3500   26.3360   45.9800 O   0  0  0  0  0  0  0  0  0  0  0  0
   58.3410   32.2260   46.5230 N   0  0  0  0  0  0  0  0  0  0  0  0
   58.7820   33.5120   46.4330 C   0  0  0  0  0  0  0  0  0  0  0  0
   59.1520   34.1370   47.5700 C   0  0  0  0  0  0  0  0  0  0  0  0
   58.4236   34.7686   48.0996 H   0  0  0  0  0  0  0  0  0  0  0  0
   60.4770   33.9940   48.1020 N   0  0  0  0  0  0  0  0  0  0  0  0
   60.8600   33.8740   49.3930 C   0  0  0  0  0  0  0  0  0  0  0  0
   59.9200   33.8450   50.5580 C   0  0  0  0  0  0  0  0  0  0  0  0
   60.4964   33.8628   51.4947 H   0  0  0  0  0  0  0  0  0  0  0  0
   59.2588   34.7232   50.5176 H   0  0  0  0  0  0  0  0  0  0  0  0
   59.3142   32.9277   50.5176 H   0  0  0  0  0  0  0  0  0  0  0  0
   62.1910   33.6850   49.5250 N   0  0  0  0  0  0  0  0  0  0  0  0
   62.6470   33.6950   48.2560 C   0  0  0  0  0  0  0  0  0  0  0  0
   64.0700   33.4480   47.8800 C   0  0  0  0  0  0  0  0  0  0  0  0
   64.6770   33.3426   48.7913 H   0  0  0  0  0  0  0  0  0  0  0  0
   64.1373   32.5247   47.2858 H   0  0  0  0  0  0  0  0  0  0  0  0
   64.4445   34.2946   47.2858 H   0  0  0  0  0  0  0  0  0  0  0  0
   61.5970   33.8540   47.3770 C   0  0  0  0  0  0  0  0  0  0  0  0
   61.6652   33.8642   46.2792 H   0  0  0  0  0  0  0  0  0  0  0  0
  1  2  1  0
  2  3  1  0
  2  4  2  0
  4  5  1  0
  5  6  2  0
  6  7  1  0
  6  8  1  0
  8  9  1  0
  9 10  2  0
  9 11  1  0
 11 12  1  0
 12 13  1  0
 12 14  1  0
 12 15  1  0
 15 16  2  0
 15 17  1  0
 17 18  1  0
 17 19  1  0
 19 20  2  0
 20 21  1  0
 20 22  1  0
 22 23  1  0
 22 24  2  0
 24 25  1  0
 24 26  1  0
 26 27  1  0
 26 28  2  0
 28 29  1  0
  8 30  2  0
 30 31  1  0
 31 32  2  0
 32 33  1  0
 32 34  1  0
 34 35  1  0
 35 36  1  0
 36 37  1  0
 36 38  1  0
 36 39  1  0
 35 40  2  0
 40 41  1  0
 41 42  1  0
 42 43  1  0
 42 44  1  0
 42 45  1  0
 41 46  2  0
 46 47  1  0
 31  4  1  0
 46 34  1  0
 28 19  1  0
M  CHG  1  29  -1
M  END
>  <UniqueID>  (27) 
27

>  <SMILES>  (27) 
C=c1ncc(C(=O)OCC(=O)Nc2ccccc2[O-])n/c1=C\n1cc(C)nc1C

>  <Energy>  (27) 
91.12136459210505

>  <Genealogy>  (27) 
C=c1ncc(C(=O)OCC(=O)Nc2ccccc2[O-])nc1=Cn1cc(C)nc1C (protonated)
C=c1ncc(C(=O)OCC(=O)Nc2ccccc2[O-])n/c1=C\n1cc(C)nc1C (cis-trans isomerization)
C=c1ncc(C(=O)OCC(=O)Nc2ccccc2[O-])n/c1=C\n1cc(C)nc1C (3D coordinates assigned)
C=c1ncc(C(=O)OCC(=O)Nc2ccccc2[O-])n/c1=C\n1cc(C)nc1C (optimized conformer: 91.12136459210505 kcal/mol)

>  <smiles>  (27) 
C=c1ncc(C(=O)OCC(=O)Nc2ccccc2O)nc1=Cn1cc(C)nc1C

>  <score_type>  (27) 
oracle

>  <origin>  (27) 
adg

>  <m_score__min__energy>  (27) 
-12.470000000000001

>  <m_primary>  (27) 
energy

$$$$
27:0
     RDKit          3D

 40 42  0  0  0  0  0  0  0  0999 V2000
   55.1340   30.0930   45.6590 H   0  0  0  0  0  0  0  0  0  0  0  0
   55.4040   29.4050   44.9670 O   0  0  0  0  0  0  0  0  0  0  0  0
   56.2860   28.3590   45.2420 C   0  0  0  0  0  0  0  0  0  0  0  0
   55.7810   27.1940   45.7230 N   0  0  0  0  0  0  0  0  0  0  0  0
   56.5840   26.1370   46.0030 C   0  0  0  0  0  0  0  0  0  0  0  0
   55.9390   24.7520   46.5770 S   0  0  0  0  0  0  0  0  0  0  0  0
   57.9240   26.2330   45.8150 N   0  0  0  0  0  0  0  0  0  0  0  0
   58.4860   27.3740   45.3400 C   0  0  0  0  0  0  0  0  0  0  0  0
   59.7370   27.4340   45.2070 O   0  0  0  0  0  0  0  0  0  0  0  0
   57.6720   28.4770   45.0190 C   0  0  0  0  0  0  0  0  0  0  0  0
   58.2580   29.7460   44.5290 C   0  0  0  0  0  0  0  0  0  0  0  0
   58.2401   29.9475   43.4478 H   0  0  0  0  0  0  0  0  0  0  0  0
   58.8110   30.6640   45.3420 C   0  0  0  0  0  0  0  0  0  0  0  0
   59.9960   30.5390   46.0500 C   0  0  0  0  0  0  0  0  0  0  0  0
   60.6629   29.6646   46.0764 H   0  0  0  0  0  0  0  0  0  0  0  0
   60.1690   31.7430   46.7190 C   0  0  0  0  0  0  0  0  0  0  0  0
   61.2900   32.1120   47.6150 C   0  0  0  0  0  0  0  0  0  0  0  0
   62.2450   33.0430   47.1820 C   0  0  0  0  0  0  0  0  0  0  0  0
   62.1535   33.4908   46.1814 H   0  0  0  0  0  0  0  0  0  0  0  0
   63.3110   33.4080   48.0070 C   0  0  0  0  0  0  0  0  0  0  0  0
   64.0495   34.1398   47.6478 H   0  0  0  0  0  0  0  0  0  0  0  0
   63.4530   32.8510   49.2940 C   0  0  0  0  0  0  0  0  0  0  0  0
   64.5610   33.2300   50.1530 N   0  0  0  0  0  0  0  0  0  0  0  0
   64.3670   34.2050   51.2340 C   0  0  0  0  0  0  0  0  0  0  0  0
   64.4675   33.6997   52.2059 H   0  0  0  0  0  0  0  0  0  0  0  0
   65.1250   34.9980   51.1529 H   0  0  0  0  0  0  0  0  0  0  0  0
   63.3632   34.6475   51.1529 H   0  0  0  0  0  0  0  0  0  0  0  0
   65.8930   32.6440   49.9570 C   0  0  0  0  0  0  0  0  0  0  0  0
   66.3523   32.4419   50.9359 H   0  0  0  0  0  0  0  0  0  0  0  0
   65.8006   31.7034   49.3942 H   0  0  0  0  0  0  0  0  0  0  0  0
   66.5239   33.3476   49.3942 H   0  0  0  0  0  0  0  0  0  0  0  0
   62.4890   31.9170   49.7240 C   0  0  0  0  0  0  0  0  0  0  0  0
   62.5766   31.4686   50.7246 H   0  0  0  0  0  0  0  0  0  0  0  0
   61.4240   31.5530   48.8970 C   0  0  0  0  0  0  0  0  0  0  0  0
   60.6832   30.8218   49.2527 H   0  0  0  0  0  0  0  0  0  0  0  0
   59.1680   32.5510   46.4410 O   0  0  0  0  0  0  0  0  0  0  0  0
   58.3400   31.9450   45.6220 C   0  0  0  0  0  0  0  0  0  0  0  0
   57.2290   32.5240   45.1630 C   0  0  0  0  0  0  0  0  0  0  0  0
   56.5657   31.9756   44.4780 H   0  0  0  0  0  0  0  0  0  0  0  0
   56.9764   33.5497   45.4696 H   0  0  0  0  0  0  0  0  0  0  0  0
  1  2  1  0
  2  3  1  0
  3  4  1  0
  4  5  1  0
  5  6  2  0
  5  7  1  0
  7  8  1  0
  8  9  2  0
  8 10  1  0
 10 11  1  0
 11 12  1  0
 11 13  2  0
 13 14  1  0
 14 15  1  0
 14 16  2  0
 16 17  1  0
 17 18  2  0
 18 19  1  0
 18 20  1  0
 20 21  1  0
 20 22  2  0
 22 23  1  0
 23 24  1  0
 24 25  1  0
 24 26  1  0
 24 27  1  0
 23 28  1  0
 28 29  1  0
 28 30  1  0
 28 31  1  0
 22 32  1  0
 32 33  1  0
 32 34  2  0
 34 35  1  0
 16 36  1  0
 36 37  1  0
 37 38  2  0
 38 39  1  0
 38 40  1  0
 10  3  2  0
 37 13  1  0
 34 17  1  0
M  CHG  2   4  -1   7  -1
M  END
>  <UniqueID>  (28) 
28

>  <SMILES>  (28) 
C=c1oc(-c2ccc(N(C)C)cc2)c/c1=C\c1c(O)[n-]c(=S)[n-]c1=O

>  <Energy>  (28) 
82.71791652053423

>  <Genealogy>  (28) 
C=c1oc(-c2ccc(N(C)C)cc2)cc1=Cc1c(O)[n-]c(=S)[n-]c1=O (protonated)
C=c1oc(-c2ccc(N(C)C)cc2)c/c1=C\c1c(O)[n-]c(=S)[n-]c1=O (cis-trans isomerization)
C=c1oc(-c2ccc(N(C)C)cc2)c/c1=C\c1c(O)[n-]c(=S)[n-]c1=O (3D coordinates assigned)
C=c1oc(-c2ccc(N(C)C)cc2)c/c1=C\c1c(O)[n-]c(=S)[n-]c1=O (optimized conformer: 82.71791652053423 kcal/mol)

>  <smiles>  (28) 
C=c1oc(-c2ccc(N(C)C)cc2)cc1=Cc1c(O)[nH]c(=S)[nH]c1=O

>  <score_type>  (28) 
oracle

>  <origin>  (28) 
adg

>  <m_score__min__energy>  (28) 
-11.66

>  <m_primary>  (28) 
energy

$$$$
28:0
     RDKit          3D

 41 45  0  0  0  0  0  0  0  0999 V2000
   66.0830   33.0030   51.8930 H   0  0  0  0  0  0  0  0  0  0  0  0
   65.8250   33.6810   51.1430 N   0  0  0  0  0  0  0  0  0  0  0  0
   64.8190   33.4710   50.3580 C   0  0  0  0  0  0  0  0  0  0  0  0
   64.8900   32.5180   49.3920 N   0  0  0  0  0  0  0  0  0  0  0  0
   63.8440   32.2820   48.5610 C   0  0  0  0  0  0  0  0  0  0  0  0
   63.9220   31.5026   47.7887 H   0  0  0  0  0  0  0  0  0  0  0  0
   62.6620   33.0300   48.6840 C   0  0  0  0  0  0  0  0  0  0  0  0
   61.5030   32.7930   47.7850 C   0  0  0  0  0  0  0  0  0  0  0  0
   60.6520   33.8490   47.4240 C   0  0  0  0  0  0  0  0  0  0  0  0
   60.8447   34.8607   47.8105 H   0  0  0  0  0  0  0  0  0  0  0  0
   59.5620   33.6270   46.5780 C   0  0  0  0  0  0  0  0  0  0  0  0
   58.9079   34.4686   46.3063 H   0  0  0  0  0  0  0  0  0  0  0  0
   59.2870   32.3420   46.0670 C   0  0  0  0  0  0  0  0  0  0  0  0
   58.0830   32.1340   45.1420 C   0  0  0  0  0  0  0  0  0  0  0  0
   57.3910   30.8000   45.1220 C   0  0  0  0  0  0  0  0  0  0  0  0
   56.1890   30.5920   44.5480 N   0  0  0  0  0  0  0  0  0  0  0  0
   55.9190   29.3460   44.7900 O   0  0  0  0  0  0  0  0  0  0  0  0
   56.8940   28.8100   45.4820 C   0  0  0  0  0  0  0  0  0  0  0  0
   56.9160   27.4150   45.9310 C   0  0  0  0  0  0  0  0  0  0  0  0
   55.7600   26.7050   46.0230 N   0  0  0  0  0  0  0  0  0  0  0  0
   55.7680   25.4350   46.4300 N   0  0  0  0  0  0  0  0  0  0  0  0
   56.9300   24.8140   46.7640 C   0  0  0  0  0  0  0  0  0  0  0  0
   56.9290   23.5820   47.1570 N   0  0  0  0  0  0  0  0  0  0  0  0
   56.1740   23.2050   47.7720 H   0  0  0  0  0  0  0  0  0  0  0  0
   58.1230   25.5300   46.6740 C   0  0  0  0  0  0  0  0  0  0  0  0
   59.0786   25.0530   46.9373 H   0  0  0  0  0  0  0  0  0  0  0  0
   58.0930   26.8220   46.2580 N   0  0  0  0  0  0  0  0  0  0  0  0
   57.8730   29.7000   45.7360 N   0  0  0  0  0  0  0  0  0  0  0  0
   58.0900   32.8500   43.7930 C   0  0  0  0  0  0  0  0  0  0  0  0
   58.9529   33.4673   43.5027 H   0  0  0  0  0  0  0  0  0  0  0  0
   57.9612   32.5373   42.7463 H   0  0  0  0  0  0  0  0  0  0  0  0
   57.1530   33.3220   44.9000 C   0  0  0  0  0  0  0  0  0  0  0  0
   57.3404   34.2795   45.4080 H   0  0  0  0  0  0  0  0  0  0  0  0
   56.0691   33.4904   44.9821 H   0  0  0  0  0  0  0  0  0  0  0  0
   60.1490   31.2860   46.4360 C   0  0  0  0  0  0  0  0  0  0  0  0
   59.9602   30.2725   46.0525 H   0  0  0  0  0  0  0  0  0  0  0  0
   61.2390   31.5110   47.2820 C   0  0  0  0  0  0  0  0  0  0  0  0
   61.8968   30.6731   47.5561 H   0  0  0  0  0  0  0  0  0  0  0  0
   62.6150   34.0090   49.6890 C   0  0  0  0  0  0  0  0  0  0  0  0
   61.7080   34.6174   49.8203 H   0  0  0  0  0  0  0  0  0  0  0  0
   63.6870   34.2070   50.5000 N   0  0  0  0  0  0  0  0  0  0  0  0
  1  2  1  0
  2  3  2  3
  3  4  1  0
  4  5  2  0
  5  6  1  0
  5  7  1  0
  7  8  1  0
  8  9  2  0
  9 10  1  0
  9 11  1  0
 11 12  1  0
 11 13  2  0
 13 14  1  0
 14 15  1  0
 15 16  2  0
 16 17  1  0
 17 18  1  0
 18 19  1  0
 19 20  2  0
 20 21  1  0
 21 22  1  0
 22 23  2  0
 23 24  1  0
 22 25  1  0
 25 26  1  0
 25 27  2  0
 18 28  2  0
 14 29  1  0
 29 30  1  0
 29 31  1  0
 29 32  1  0
 32 33  1  0
 32 34  1  0
 13 35  1  0
 35 36  1  0
 35 37  2  0
 37 38  1  0
  7 39  2  0
 39 40  1  0
 39 41  1  0
 41  3  1  0
 37  8  1  0
 32 14  1  0
 28 15  1  0
 27 19  1  0
M  CHG  2  21  -1  41  -1
M  END
>  <UniqueID>  (29) 
29

>  <SMILES>  (29) 
[H]/N=c1/cnc(-c2nc(C3(c4ccc(-c5cnc(=N)[n-]c5)cc4)CC3)no2)n[n-]1

>  <Energy>  (29) 
357.83747501793476

>  <Genealogy>  (29) 
N=c1cnc(-c2nc(C3(c4ccc(-c5cnc(=N)[n-]c5)cc4)CC3)no2)n[n-]1 (protonated)
[H]/N=c1/cnc(-c2nc(C3(c4ccc(-c5cnc(=N)[n-]c5)cc4)CC3)no2)n[n-]1 (cis-trans isomerization)
[H]/N=c1/cnc(-c2nc(C3(c4ccc(-c5cnc(=N)[n-]c5)cc4)CC3)no2)n[n-]1 (3D coordinates assigned)
[H]/N=c1/cnc(-c2nc(C3(c4ccc(-c5cnc(=N)[n-]c5)cc4)CC3)no2)n[n-]1 (nonaromatic ring conformer: 357.83747501793476 kcal/mol)

>  <smiles>  (29) 
N=c1cnc(-c2nc(C3(c4ccc(-c5cnc(=N)[nH]c5)cc4)CC3)no2)n[nH]1

>  <score_type>  (29) 
oracle

>  <origin>  (29) 
adg

>  <m_score__min__energy>  (29) 
-11.48

>  <m_primary>  (29) 
energy

$$$$
29:0
     RDKit          3D

 69 72  0  0  0  0  0  0  0  0999 V2000
   57.3054   31.0927   43.2746 H   0  0  0  0  0  0  0  0  0  0  0  0
   57.2570   31.5750   44.2620 C   0  0  0  0  0  0  0  0  0  0  0  0
   57.0702   30.9697   45.1613 H   0  0  0  0  0  0  0  0  0  0  0  0
   57.4250   32.8950   44.3690 C   0  0  0  0  0  0  0  0  0  0  0  0
   57.6110   33.4858   43.4599 H   0  0  0  0  0  0  0  0  0  0  0  0
   57.3670   33.5980   45.7000 C   0  0  0  0  0  0  0  0  0  0  0  0
   57.0284   34.6337   45.5495 H   0  0  0  0  0  0  0  0  0  0  0  0
   56.6641   33.0650   46.3572 H   0  0  0  0  0  0  0  0  0  0  0  0
   58.7030   33.6080   46.3300 N   0  0  0  0  0  0  0  0  0  0  0  0
   59.6010   34.6080   46.0420 C   0  0  0  0  0  0  0  0  0  0  0  0
   59.3000   35.5370   45.2420 O   0  0  0  0  0  0  0  0  0  0  0  0
   60.8320   34.6140   46.6160 N   0  0  0  0  0  0  0  0  0  0  0  0
   61.2240   33.6310   47.4610 C   0  0  0  0  0  0  0  0  0  0  0  0
   62.4950   33.6790   48.0250 O   0  0  0  0  0  0  0  0  0  0  0  0
   60.3600   32.5720   47.7410 C   0  0  0  0  0  0  0  0  0  0  0  0
   60.7790   31.4860   48.6460 C   0  0  0  0  0  0  0  0  0  0  0  0
   61.2596   31.7707   49.5936 H   0  0  0  0  0  0  0  0  0  0  0  0
   60.6170   30.1660   48.3990 C   0  0  0  0  0  0  0  0  0  0  0  0
   60.3850   29.2140   49.3840 C   0  0  0  0  0  0  0  0  0  0  0  0
   60.3520   29.3960   50.8500 C   0  0  0  0  0  0  0  0  0  0  0  0
   61.3440   29.0370   51.5400 O   0  0  0  0  0  0  0  0  0  0  0  0
   59.1820   29.9240   51.4990 N   0  0  0  0  0  0  0  0  0  0  0  0
   58.4610   31.0580   50.8960 C   0  0  0  0  0  0  0  0  0  0  0  0
   59.1847   31.8465   50.6422 H   0  0  0  0  0  0  0  0  0  0  0  0
   57.9420   30.6958   49.9963 H   0  0  0  0  0  0  0  0  0  0  0  0
   57.4110   31.6360   51.8550 C   0  0  0  0  0  0  0  0  0  0  0  0
   57.9245   32.1497   52.6811 H   0  0  0  0  0  0  0  0  0  0  0  0
   56.7775   32.3386   51.2937 H   0  0  0  0  0  0  0  0  0  0  0  0
   56.5150   30.5310   52.4330 C   0  0  0  0  0  0  0  0  0  0  0  0
   55.9394   30.9531   53.2699 H   0  0  0  0  0  0  0  0  0  0  0  0
   55.8697   30.1796   51.6144 H   0  0  0  0  0  0  0  0  0  0  0  0
   57.2980   29.3020   52.9500 C   0  0  0  0  0  0  0  0  0  0  0  0
   57.0371   29.1421   54.0066 H   0  0  0  0  0  0  0  0  0  0  0  0
   57.0152   28.4481   52.3168 H   0  0  0  0  0  0  0  0  0  0  0  0
   58.8200   29.4580   52.8440 C   0  0  0  0  0  0  0  0  0  0  0  0
   59.1644   30.1906   53.5888 H   0  0  0  0  0  0  0  0  0  0  0  0
   59.2978   28.4850   53.0311 H   0  0  0  0  0  0  0  0  0  0  0  0
   60.2000   28.0140   48.7380 C   0  0  0  0  0  0  0  0  0  0  0  0
   60.0150   26.7990   49.3870 O   0  0  0  0  0  0  0  0  0  0  0  0
   60.2720   28.1570   47.3970 N   0  0  0  0  0  0  0  0  0  0  0  0
   60.1600   27.0670   46.4050 C   0  0  0  0  0  0  0  0  0  0  0  0
   60.4594   27.4527   45.4193 H   0  0  0  0  0  0  0  0  0  0  0  0
   60.8163   26.2459   46.7291 H   0  0  0  0  0  0  0  0  0  0  0  0
   58.7330   26.5190   46.3080 C   0  0  0  0  0  0  0  0  0  0  0  0
   57.6450   27.4220   46.1480 C   0  0  0  0  0  0  0  0  0  0  0  0
   57.9300   28.9220   46.1620 C   0  0  0  0  0  0  0  0  0  0  0  0
   57.9967   29.2729   47.2024 H   0  0  0  0  0  0  0  0  0  0  0  0
   58.8817   29.1192   45.6468 H   0  0  0  0  0  0  0  0  0  0  0  0
   57.1170   29.4545   45.6468 H   0  0  0  0  0  0  0  0  0  0  0  0
   56.3150   27.0790   45.8030 C   0  0  0  0  0  0  0  0  0  0  0  0
   55.5230   28.0950   45.2590 O   0  0  0  0  0  0  0  0  0  0  0  0
   55.6490   25.8610   45.9890 C   0  0  0  0  0  0  0  0  0  0  0  0
   54.2710   25.8990   45.6850 O   0  0  0  0  0  0  0  0  0  0  0  0
   53.4590   24.7910   45.3120 C   0  0  0  0  0  0  0  0  0  0  0  0
   53.0892   24.2864   46.2168 H   0  0  0  0  0  0  0  0  0  0  0  0
   52.6057   25.1461   44.7155 H   0  0  0  0  0  0  0  0  0  0  0  0
   54.0546   24.0843   44.7155 H   0  0  0  0  0  0  0  0  0  0  0  0
   56.2100   24.6680   46.4650 C   0  0  0  0  0  0  0  0  0  0  0  0
   55.4884   23.9134   46.8112 H   0  0  0  0  0  0  0  0  0  0  0  0
   57.5420   24.3030   46.5620 C   0  0  0  0  0  0  0  0  0  0  0  0
   57.7720   23.0930   46.8390 O   0  0  0  0  0  0  0  0  0  0  0  0
   58.6470   25.1200   46.3760 C   0  0  0  0  0  0  0  0  0  0  0  0
   59.6041   24.5894   46.2645 H   0  0  0  0  0  0  0  0  0  0  0  0
   60.5910   29.4640   47.1740 C   0  0  0  0  0  0  0  0  0  0  0  0
   60.9430   29.9470   45.9690 C   0  0  0  0  0  0  0  0  0  0  0  0
   61.1892   31.0129   45.8542 H   0  0  0  0  0  0  0  0  0  0  0  0
   60.9847   29.2761   45.0983 H   0  0  0  0  0  0  0  0  0  0  0  0
   59.0750   32.5910   47.1720 C   0  0  0  0  0  0  0  0  0  0  0  0
   58.2630   31.6620   47.4470 O   0  0  0  0  0  0  0  0  0  0  0  0
  1  2  1  0
  2  3  1  0
  2  4  2  0
  4  5  1  0
  4  6  1  0
  6  7  1  0
  6  8  1  0
  6  9  1  0
  9 10  1  0
 10 11  2  0
 10 12  1  0
 12 13  1  0
 13 14  1  0
 13 15  2  0
 15 16  1  0
 16 17  1  0
 16 18  2  0
 18 19  1  0
 19 20  1  0
 20 21  2  0
 20 22  1  0
 22 23  1  0
 23 24  1  0
 23 25  1  0
 23 26  1  0
 26 27  1  0
 26 28  1  0
 26 29  1  0
 29 30  1  0
 29 31  1  0
 29 32  1  0
 32 33  1  0
 32 34  1  0
 32 35  1  0
 35 36  1  0
 35 37  1  0
 19 38  2  0
 38 39  1  0
 38 40  1  0
 40 41  1  0
 41 42  1  0
 41 43  1  0
 41 44  1  0
 44 45  1  0
 45 46  1  0
 46 47  1  0
 46 48  1  0
 46 49  1  0
 45 50  2  0
 50 51  1  0
 50 52  1  0
 52 53  1  0
 53 54  1  0
 54 55  1  0
 54 56  1  0
 54 57  1  0
 52 58  2  0
 58 59  1  0
 58 60  1  0
 60 61  2  0
 60 62  1  0
 62 63  1  0
 40 64  1  0
 64 65  2  0
 65 66  1  0
 65 67  1  0
 15 68  1  0
 68 69  2  0
 68  9  1  0
 64 18  1  0
 35 22  1  0
 62 44  2  0
M  CHG  4  12  -1  14  -1  39  -1  51  -1
M  END
>  <UniqueID>  (30) 
30

>  <SMILES>  (30) 
C=CCn1c(=O)[n-]c([O-])c(/C=c2/c(C(=O)N3CCCCC3)c([O-])n(Cc3cc(=O)cc(OC)c([O-])c3C)c2=C)c1=O

>  <Energy>  (30) 
159.7541844001007

>  <Genealogy>  (30) 
C=CCn1c(=O)[n-]c([O-])c(C=c2c(C(=O)N3CCCCC3)c([O-])n(Cc3cc(=O)cc(OC)c([O-])c3C)c2=C)c1=O (protonated)
C=CCn1c(=O)[n-]c([O-])c(/C=c2/c(C(=O)N3CCCCC3)c([O-])n(Cc3cc(=O)cc(OC)c([O-])c3C)c2=C)c1=O (cis-trans isomerization)
C=CCn1c(=O)[n-]c([O-])c(/C=c2/c(C(=O)N3CCCCC3)c([O-])n(Cc3cc(=O)cc(OC)c([O-])c3C)c2=C)c1=O (3D coordinates assigned)
C=CCn1c(=O)[n-]c([O-])c(/C=c2/c(C(=O)N3CCCCC3)c([O-])n(Cc3cc(=O)cc(OC)c([O-])c3C)c2=C)c1=O (nonaromatic ring conformer: 159.7541844001007 kcal/mol)

>  <smiles>  (30) 
C=CCn1c(=O)[nH]c(O)c(C=c2c(C(=O)N3CCCCC3)c(O)n(Cc3cc(=O)cc(OC)c(O)c3C)c2=C)c1=O

>  <score_type>  (30) 
oracle

>  <origin>  (30) 
adg

>  <m_score__min__energy>  (30) 
-17.59

>  <m_primary>  (30) 
energy

$$$$
30:0
     RDKit          3D

 40 42  0  0  0  0  0  0  0  0999 V2000
   51.5480   22.6320   47.2880 C   0  0  0  0  0  0  0  0  0  0  0  0
   52.1110   22.3250   45.6260 S   0  0  0  0  0  0  0  0  0  0  0  0
   51.3870   21.1460   45.0390 O   0  0  0  0  0  0  0  0  0  0  0  0
   51.8200   23.5350   44.7860 O   0  0  0  0  0  0  0  0  0  0  0  0
   53.8200   22.0400   45.6190 N   0  0  0  0  0  0  0  0  0  0  0  0
   54.8390   23.0430   45.5030 C   0  0  0  0  0  0  0  0  0  0  0  0
   56.1210   22.6490   45.1000 C   0  0  0  0  0  0  0  0  0  0  0  0
   57.1440   23.5900   44.9720 C   0  0  0  0  0  0  0  0  0  0  0  0
   56.8980   24.9350   45.2580 C   0  0  0  0  0  0  0  0  0  0  0  0
   55.6320   25.3450   45.6920 C   0  0  0  0  0  0  0  0  0  0  0  0
   55.4250   26.7320   45.9950 N   0  0  0  0  0  0  0  0  0  0  0  0
   56.2490   27.8290   45.5820 C   0  0  0  0  0  0  0  0  0  0  0  0
   57.4730   27.8200   45.8760 O   0  0  0  0  0  0  0  0  0  0  0  0
   55.7050   28.9540   44.8880 N   0  0  0  0  0  0  0  0  0  0  0  0
   56.4780   29.7160   43.9160 C   0  0  0  0  0  0  0  0  0  0  0  0
   57.1850   30.8520   44.5850 C   0  0  0  0  0  0  0  0  0  0  0  0
   57.4220   32.0980   44.0090 C   0  0  0  0  0  0  0  0  0  0  0  0
   58.2090   32.7640   44.9250 C   0  0  0  0  0  0  0  0  0  0  0  0
   58.7970   34.0260   44.8660 C   0  0  0  0  0  0  0  0  0  0  0  0
   59.6090   34.4210   45.9430 C   0  0  0  0  0  0  0  0  0  0  0  0
   59.8170   33.5540   47.0390 C   0  0  0  0  0  0  0  0  0  0  0  0
   59.2140   32.2830   47.0670 C   0  0  0  0  0  0  0  0  0  0  0  0
   58.4100   31.9220   45.9870 C   0  0  0  0  0  0  0  0  0  0  0  0
   57.7880   30.7480   45.7920 N   0  0  0  0  0  0  0  0  0  0  0  0
   54.5940   24.4000   45.7850 C   0  0  0  0  0  0  0  0  0  0  0  0
   52.2816   22.2320   48.0034 H   0  0  0  0  0  0  0  0  0  0  0  0
   51.4374   23.7153   47.4434 H   0  0  0  0  0  0  0  0  0  0  0  0
   50.5774   22.1383   47.4434 H   0  0  0  0  0  0  0  0  0  0  0  0
   56.3234   21.5898   44.8827 H   0  0  0  0  0  0  0  0  0  0  0  0
   58.1451   23.2720   44.6455 H   0  0  0  0  0  0  0  0  0  0  0  0
   57.7031   25.6755   45.1416 H   0  0  0  0  0  0  0  0  0  0  0  0
   57.2201   29.0547   43.4448 H   0  0  0  0  0  0  0  0  0  0  0  0
   55.7941   30.1205   43.1553 H   0  0  0  0  0  0  0  0  0  0  0  0
   57.0612   32.4687   43.0382 H   0  0  0  0  0  0  0  0  0  0  0  0
   58.6312   34.6907   44.0054 H   0  0  0  0  0  0  0  0  0  0  0  0
   60.0860   35.4122   45.9326 H   0  0  0  0  0  0  0  0  0  0  0  0
   60.4546   33.8748   47.8760 H   0  0  0  0  0  0  0  0  0  0  0  0
   59.3717   31.5974   47.9126 H   0  0  0  0  0  0  0  0  0  0  0  0
   57.8040   29.9140   46.4200 H   0  0  0  0  0  0  0  0  0  0  0  0
   53.5849   24.7236   46.0799 H   0  0  0  0  0  0  0  0  0  0  0  0
  1  2  1  0
  2  3  2  0
  2  4  2  0
  2  5  1  0
  5  6  1  0
  6  7  2  0
  7  8  1  0
  8  9  2  0
  9 10  1  0
 10 11  1  0
 11 12  1  0
 12 13  2  0
 12 14  1  0
 14 15  1  0
 15 16  1  0
 16 17  2  0
 17 18  1  0
 18 19  2  0
 19 20  1  0
 20 21  2  0
 21 22  1  0
 22 23  2  0
 23 24  1  0
 10 25  2  0
 25  6  1  0
 24 16  1  0
 23 18  1  0
  1 26  1  0
  1 27  1  0
  1 28  1  0
  7 29  1  0
  8 30  1  0
  9 31  1  0
 15 32  1  0
 15 33  1  0
 17 34  1  0
 19 35  1  0
 20 36  1  0
 21 37  1  0
 22 38  1  0
 24 39  1  0
 25 40  1  0
M  CHG  3   5  -1  11  -1  14  -1
M  END
>  <UniqueID>  (31) 
31

>  <SMILES>  (31) 
CS(=O)(=O)[N-]c1cccc([N-]C(=O)[N-]Cc2cc3ccccc3[nH]2)c1

>  <Energy>  (31) 
76.02858562061694

>  <Genealogy>  (31) 
CS(=O)(=O)[N-]c1cccc([N-]C(=O)[N-]Cc2cc3ccccc3[nH]2)c1 (protonated)
CS(=O)(=O)[N-]c1cccc([N-]C(=O)[N-]Cc2cc3ccccc3[nH]2)c1 (3D coordinates assigned)
CS(=O)(=O)[N-]c1cccc([N-]C(=O)[N-]Cc2cc3ccccc3[nH]2)c1 (optimized conformer: 76.02858562061694 kcal/mol)

>  <smiles>  (31) 
CS(=O)(=O)Nc1cccc(NC(=O)NCc2cc3ccccc3[nH]2)c1

>  <score_type>  (31) 
oracle

>  <origin>  (31) 
adg

>  <m_score__min__energy>  (31) 
-13.539999999999999

>  <m_primary>  (31) 
energy

$$$$
31:0
     RDKit          3D

 77 81  0  0  0  0  0  0  0  0999 V2000
   60.6240   28.6300   47.0820 O   0  0  0  0  0  0  0  0  0  0  0  0
   60.5760   27.6350   47.8570 C   0  0  0  0  0  0  0  0  0  0  0  0
   60.2200   26.2890   47.2970 C   0  0  0  0  0  0  0  0  0  0  0  0
   58.7970   26.2840   46.8120 C   0  0  0  0  0  0  0  0  0  0  0  0
   57.9870   25.1580   47.0110 C   0  0  0  0  0  0  0  0  0  0  0  0
   56.6450   25.1600   46.6070 C   0  0  0  0  0  0  0  0  0  0  0  0
   55.7960   23.9420   46.8820 C   0  0  0  0  0  0  0  0  0  0  0  0
   55.8090   23.0410   45.7150 N   0  0  0  0  0  0  0  0  0  0  0  0
   55.2950   23.6820   44.4990 C   0  0  0  0  0  0  0  0  0  0  0  0
   55.9470   22.9750   43.3210 C   0  0  0  0  0  0  0  0  0  0  0  0
   57.1590   22.2610   43.8970 C   0  0  0  0  0  0  0  0  0  0  0  0
   57.1680   22.6120   45.3760 C   0  0  0  0  0  0  0  0  0  0  0  0
   56.0980   26.3180   46.0200 C   0  0  0  0  0  0  0  0  0  0  0  0
   54.7600   26.3380   45.6360 O   0  0  0  0  0  0  0  0  0  0  0  0
   56.9020   27.4610   45.8290 C   0  0  0  0  0  0  0  0  0  0  0  0
   56.3370   28.7320   45.2410 C   0  0  0  0  0  0  0  0  0  0  0  0
   57.3740   29.4610   44.4770 N   0  0  0  0  0  0  0  0  0  0  0  0
   56.7750   30.5310   43.6690 C   0  0  0  0  0  0  0  0  0  0  0  0
   56.7740   31.8010   44.5050 C   0  0  0  0  0  0  0  0  0  0  0  0
   57.8140   31.5710   45.5860 C   0  0  0  0  0  0  0  0  0  0  0  0
   58.3200   30.1520   45.3680 C   0  0  0  0  0  0  0  0  0  0  0  0
   58.2480   27.4330   46.2280 C   0  0  0  0  0  0  0  0  0  0  0  0
   60.9110   27.7730   49.2470 N   0  0  0  0  0  0  0  0  0  0  0  0
   61.0440   29.0330   49.9290 C   0  0  0  0  0  0  0  0  0  0  0  0
   61.9340   29.1390   51.0080 C   0  0  0  0  0  0  0  0  0  0  0  0
   62.0620   30.3430   51.7060 C   0  0  0  0  0  0  0  0  0  0  0  0
   61.2970   31.4520   51.3370 C   0  0  0  0  0  0  0  0  0  0  0  0
   60.3950   31.3600   50.2710 C   0  0  0  0  0  0  0  0  0  0  0  0
   59.4160   32.7560   49.8240 S   0  0  0  0  0  0  0  0  0  0  0  0
   57.9660   32.4040   50.0000 O   0  0  0  0  0  0  0  0  0  0  0  0
   59.7400   33.9130   50.7280 O   0  0  0  0  0  0  0  0  0  0  0  0
   59.7180   33.1930   48.1600 N   0  0  0  0  0  0  0  0  0  0  0  0
   61.1680   33.2770   47.9170 C   0  0  0  0  0  0  0  0  0  0  0  0
   61.4550   33.4580   46.4140 C   0  0  0  0  0  0  0  0  0  0  0  0
   60.2690   34.0820   45.6600 C   0  0  0  0  0  0  0  0  0  0  0  0
   59.5420   35.1070   46.5340 C   0  0  0  0  0  0  0  0  0  0  0  0
   59.0570   34.4820   47.8610 C   0  0  0  0  0  0  0  0  0  0  0  0
   60.2580   30.1470   49.5810 C   0  0  0  0  0  0  0  0  0  0  0  0
   60.8905   26.0571   46.4563 H   0  0  0  0  0  0  0  0  0  0  0  0
   60.3306   25.5324   48.0878 H   0  0  0  0  0  0  0  0  0  0  0  0
   58.4093   24.2622   47.4898 H   0  0  0  0  0  0  0  0  0  0  0  0
   56.1965   23.4095   47.7572 H   0  0  0  0  0  0  0  0  0  0  0  0
   54.7619   24.2611   47.0788 H   0  0  0  0  0  0  0  0  0  0  0  0
   54.2015   23.5743   44.4473 H   0  0  0  0  0  0  0  0  0  0  0  0
   55.5264   24.7574   44.4915 H   0  0  0  0  0  0  0  0  0  0  0  0
   55.2504   22.2505   42.8738 H   0  0  0  0  0  0  0  0  0  0  0  0
   56.2286   23.6811   42.5259 H   0  0  0  0  0  0  0  0  0  0  0  0
   57.0664   21.1735   43.7599 H   0  0  0  0  0  0  0  0  0  0  0  0
   58.0902   22.5673   43.3978 H   0  0  0  0  0  0  0  0  0  0  0  0
   57.4476   21.7314   45.9729 H   0  0  0  0  0  0  0  0  0  0  0  0
   57.8985   23.4061   45.5898 H   0  0  0  0  0  0  0  0  0  0  0  0
   55.5037   28.4796   44.5687 H   0  0  0  0  0  0  0  0  0  0  0  0
   55.9844   29.3749   46.0610 H   0  0  0  0  0  0  0  0  0  0  0  0
   57.3670   30.6854   42.7549 H   0  0  0  0  0  0  0  0  0  0  0  0
   55.7489   30.2629   43.3770 H   0  0  0  0  0  0  0  0  0  0  0  0
   57.0465   32.6691   43.8869 H   0  0  0  0  0  0  0  0  0  0  0  0
   55.7813   32.0111   44.9297 H   0  0  0  0  0  0  0  0  0  0  0  0
   58.6382   32.2926   45.4863 H   0  0  0  0  0  0  0  0  0  0  0  0
   57.3921   31.7036   46.5932 H   0  0  0  0  0  0  0  0  0  0  0  0
   59.3172   30.1788   44.9044 H   0  0  0  0  0  0  0  0  0  0  0  0
   58.3947   29.6222   46.3291 H   0  0  0  0  0  0  0  0  0  0  0  0
   58.8780   28.3226   46.0805 H   0  0  0  0  0  0  0  0  0  0  0  0
   61.1530   26.9040   49.7760 H   0  0  0  0  0  0  0  0  0  0  0  0
   62.5357   28.2680   51.3070 H   0  0  0  0  0  0  0  0  0  0  0  0
   62.7665   30.4175   52.5475 H   0  0  0  0  0  0  0  0  0  0  0  0
   61.4038   32.3995   51.8854 H   0  0  0  0  0  0  0  0  0  0  0  0
   61.5783   34.1351   48.4695 H   0  0  0  0  0  0  0  0  0  0  0  0
   61.6401   32.3442   48.2590 H   0  0  0  0  0  0  0  0  0  0  0  0
   62.3309   34.1133   46.2984 H   0  0  0  0  0  0  0  0  0  0  0  0
   61.6368   32.4613   45.9856 H   0  0  0  0  0  0  0  0  0  0  0  0
   60.6416   34.5818   44.7537 H   0  0  0  0  0  0  0  0  0  0  0  0
   59.5617   33.2822   45.3956 H   0  0  0  0  0  0  0  0  0  0  0  0
   60.2299   35.9351   46.7600 H   0  0  0  0  0  0  0  0  0  0  0  0
   58.6615   35.4669   45.9815 H   0  0  0  0  0  0  0  0  0  0  0  0
   59.2701   35.1850   48.6797 H   0  0  0  0  0  0  0  0  0  0  0  0
   57.9789   34.2875   47.7622 H   0  0  0  0  0  0  0  0  0  0  0  0
   59.5298   30.0656   48.7606 H   0  0  0  0  0  0  0  0  0  0  0  0
  1  2  2  0
  2  3  1  0
  3  4  1  0
  4  5  2  0
  5  6  1  0
  6  7  1  0
  7  8  1  0
  8  9  1  0
  9 10  1  0
 10 11  1  0
 11 12  1  0
  6 13  2  0
 13 14  1  0
 13 15  1  0
 15 16  1  0
 16 17  1  0
 17 18  1  0
 18 19  1  0
 19 20  1  0
 20 21  1  0
 15 22  2  0
  2 23  1  0
 23 24  1  0
 24 25  2  0
 25 26  1  0
 26 27  2  0
 27 28  1  0
 28 29  1  0
 29 30  2  0
 29 31  2  0
 29 32  1  0
 32 33  1  0
 33 34  1  0
 34 35  1  0
 35 36  1  0
 36 37  1  0
 28 38  2  0
 22  4  1  0
 38 24  1  0
 12  8  1  0
 21 17  1  0
 37 32  1  0
  3 39  1  0
  3 40  1  0
  5 41  1  0
  7 42  1  0
  7 43  1  0
  9 44  1  0
  9 45  1  0
 10 46  1  0
 10 47  1  0
 11 48  1  0
 11 49  1  0
 12 50  1  0
 12 51  1  0
 16 52  1  0
 16 53  1  0
 18 54  1  0
 18 55  1  0
 19 56  1  0
 19 57  1  0
 20 58  1  0
 20 59  1  0
 21 60  1  0
 21 61  1  0
 22 62  1  0
 23 63  1  0
 25 64  1  0
 26 65  1  0
 27 66  1  0
 33 67  1  0
 33 68  1  0
 34 69  1  0
 34 70  1  0
 35 71  1  0
 35 72  1  0
 36 73  1  0
 36 74  1  0
 37 75  1  0
 37 76  1  0
 38 77  1  0
M  CHG  1  14  -1
M  END
>  <UniqueID>  (32) 
32

>  <SMILES>  (32) 
O=C(Cc1cc(CN2CCCC2)c([O-])c(CN2CCCC2)c1)Nc1cccc(S(=O)(=O)N2CCCCC2)c1

>  <Energy>  (32) 
88.66929396858481

>  <Genealogy>  (32) 
O=C(Cc1cc(CN2CCCC2)c([O-])c(CN2CCCC2)c1)Nc1cccc(S(=O)(=O)N2CCCCC2)c1 (protonated)
O=C(Cc1cc(CN2CCCC2)c([O-])c(CN2CCCC2)c1)Nc1cccc(S(=O)(=O)N2CCCCC2)c1 (3D coordinates assigned)
O=C(Cc1cc(CN2CCCC2)c([O-])c(CN2CCCC2)c1)Nc1cccc(S(=O)(=O)N2CCCCC2)c1 (nonaromatic ring conformer: 88.66929396858481 kcal/mol)

>  <smiles>  (32) 
O=C(Cc1cc(CN2CCCC2)c(O)c(CN2CCCC2)c1)Nc1cccc(S(=O)(=O)N2CCCCC2)c1

>  <score_type>  (32) 
oracle

>  <origin>  (32) 
adg

>  <m_score__min__energy>  (32) 
-13.91

>  <m_primary>  (32) 
energy

$$$$
32:0
     RDKit          3D

 55 58  0  0  0  0  0  0  0  0999 V2000
   51.8671   29.1186   55.1053 H   0  0  0  0  0  0  0  0  0  0  0  0
   52.9170   28.7920   55.0740 C   0  0  0  0  0  0  0  0  0  0  0  0
   53.2712   28.0120   55.7641 H   0  0  0  0  0  0  0  0  0  0  0  0
   53.7610   29.3420   54.1990 C   0  0  0  0  0  0  0  0  0  0  0  0
   55.0220   28.9760   54.1340 O   0  0  0  0  0  0  0  0  0  0  0  0
   55.5990   29.5970   53.1320 C   0  0  0  0  0  0  0  0  0  0  0  0
   57.0100   29.4030   52.7610 C   0  0  0  0  0  0  0  0  0  0  0  0
   57.5560   28.2930   53.0070 O   0  0  0  0  0  0  0  0  0  0  0  0
   57.7720   30.4400   52.1160 N   0  0  0  0  0  0  0  0  0  0  0  0
   58.6530   30.1210   50.9880 C   0  0  0  0  0  0  0  0  0  0  0  0
   58.6599   29.0326   50.8285 H   0  0  0  0  0  0  0  0  0  0  0  0
   58.2811   30.6297   50.0864 H   0  0  0  0  0  0  0  0  0  0  0  0
   60.0820   30.6000   51.2810 C   0  0  0  0  0  0  0  0  0  0  0  0
   60.5086   29.9744   52.0788 H   0  0  0  0  0  0  0  0  0  0  0  0
   60.6637   30.5152   50.3512 H   0  0  0  0  0  0  0  0  0  0  0  0
   60.1220   32.0800   51.7330 C   0  0  0  0  0  0  0  0  0  0  0  0
   61.1516   32.3036   52.0491 H   0  0  0  0  0  0  0  0  0  0  0  0
   59.8240   33.0580   50.6050 C   0  0  0  0  0  0  0  0  0  0  0  0
   58.9630   33.9660   50.7710 O   0  0  0  0  0  0  0  0  0  0  0  0
   60.5110   32.9740   49.3420 N   0  0  0  0  0  0  0  0  0  0  0  0
   60.8260   34.2200   48.6310 C   0  0  0  0  0  0  0  0  0  0  0  0
   59.8902   34.6811   48.2823 H   0  0  0  0  0  0  0  0  0  0  0  0
   61.3543   34.8929   49.3225 H   0  0  0  0  0  0  0  0  0  0  0  0
   61.7310   33.9530   47.4260 C   0  0  0  0  0  0  0  0  0  0  0  0
   61.1226   33.6133   46.5748 H   0  0  0  0  0  0  0  0  0  0  0  0
   62.2593   34.8756   47.1437 H   0  0  0  0  0  0  0  0  0  0  0  0
   62.7050   32.9090   47.7860 N   0  0  0  0  0  0  0  0  0  0  0  0
   63.7720   32.8290   46.7770 C   0  0  0  0  0  0  0  0  0  0  0  0
   64.7475   32.7559   47.2800 H   0  0  0  0  0  0  0  0  0  0  0  0
   63.6161   31.9400   46.1482 H   0  0  0  0  0  0  0  0  0  0  0  0
   63.7504   33.7313   46.1482 H   0  0  0  0  0  0  0  0  0  0  0  0
   62.0420   31.5940   47.9410 C   0  0  0  0  0  0  0  0  0  0  0  0
   61.8947   31.1557   46.9429 H   0  0  0  0  0  0  0  0  0  0  0  0
   62.6922   30.9695   48.5713 H   0  0  0  0  0  0  0  0  0  0  0  0
   60.6700   31.6900   48.6440 C   0  0  0  0  0  0  0  0  0  0  0  0
   59.8746   31.5919   47.8905 H   0  0  0  0  0  0  0  0  0  0  0  0
   60.6062   30.8824   49.3881 H   0  0  0  0  0  0  0  0  0  0  0  0
   59.1670   32.2830   52.9310 C   0  0  0  0  0  0  0  0  0  0  0  0
   59.5422   31.7042   53.7879 H   0  0  0  0  0  0  0  0  0  0  0  0
   59.1341   33.3574   53.1647 H   0  0  0  0  0  0  0  0  0  0  0  0
   57.7440   31.8220   52.6060 C   0  0  0  0  0  0  0  0  0  0  0  0
   57.1259   31.8755   53.5143 H   0  0  0  0  0  0  0  0  0  0  0  0
   57.3177   32.4750   51.8302 H   0  0  0  0  0  0  0  0  0  0  0  0
   54.6830   30.4090   52.4910 C   0  0  0  0  0  0  0  0  0  0  0  0
   54.8596   31.0291   51.5998 H   0  0  0  0  0  0  0  0  0  0  0  0
   53.4990   30.2850   53.1960 C   0  0  0  0  0  0  0  0  0  0  0  0
   52.3830   30.9750   52.8920 C   0  0  0  0  0  0  0  0  0  0  0  0
   51.8539   31.4657   53.7222 H   0  0  0  0  0  0  0  0  0  0  0  0
   51.8110   31.1290   51.5470 C   0  0  0  0  0  0  0  0  0  0  0  0
   51.9310   30.2050   50.5780 N   0  0  0  0  0  0  0  0  0  0  0  0
   51.3880   30.8130   49.4990 C   0  0  0  0  0  0  0  0  0  0  0  0
   51.3010   30.2500   48.3780 O   0  0  0  0  0  0  0  0  0  0  0  0
   50.9600   32.0750   49.7160 N   0  0  0  0  0  0  0  0  0  0  0  0
   51.2490   32.2650   51.0120 C   0  0  0  0  0  0  0  0  0  0  0  0
   51.0260   33.4600   51.6860 O   0  0  0  0  0  0  0  0  0  0  0  0
  1  2  1  0
  2  3  1  0
  2  4  2  0
  4  5  1  0
  5  6  1  0
  6  7  1  0
  7  8  2  0
  7  9  1  0
  9 10  1  0
 10 11  1  0
 10 12  1  0
 10 13  1  0
 13 14  1  0
 13 15  1  0
 13 16  1  0
 16 17  1  0
 16 18  1  0
 18 19  2  0
 18 20  1  0
 20 21  1  0
 21 22  1  0
 21 23  1  0
 21 24  1  0
 24 25  1  0
 24 26  1  0
 24 27  1  0
 27 28  1  0
 28 29  1  0
 28 30  1  0
 28 31  1  0
 27 32  1  0
 32 33  1  0
 32 34  1  0
 32 35  1  0
 35 36  1  0
 35 37  1  0
 16 38  1  0
 38 39  1  0
 38 40  1  0
 38 41  1  0
 41 42  1  0
 41 43  1  0
  6 44  2  0
 44 45  1  0
 44 46  1  0
 46 47  2  0
 47 48  1  0
 47 49  1  0
 49 50  1  0
 50 51  1  0
 51 52  2  0
 51 53  1  0
 53 54  1  0
 54 55  1  0
 46  4  1  0
 54 49  2  0
 41  9  1  0
 35 20  1  0
M  CHG  3  50  -1  53  -1  55  -1
M  END
>  <UniqueID>  (33) 
33

>  <SMILES>  (33) 
C=c1oc(C(=O)N2CCC(C(=O)N3CCN(C)CC3)CC2)c/c1=C/c1[n-]c(=O)[n-]c1[O-]

>  <Energy>  (33) 
133.83299021204914

>  <Genealogy>  (33) 
C=c1oc(C(=O)N2CCC(C(=O)N3CCN(C)CC3)CC2)cc1=Cc1[n-]c(=O)[n-]c1[O-] (protonated)
C=c1oc(C(=O)N2CCC(C(=O)N3CCN(C)CC3)CC2)c/c1=C/c1[n-]c(=O)[n-]c1[O-] (cis-trans isomerization)
C=c1oc(C(=O)N2CCC(C(=O)N3CCN(C)CC3)CC2)c/c1=C/c1[n-]c(=O)[n-]c1[O-] (3D coordinates assigned)
C=c1oc(C(=O)N2CCC(C(=O)N3CCN(C)CC3)CC2)c/c1=C/c1[n-]c(=O)[n-]c1[O-] (nonaromatic ring conformer: 133.83299021204914 kcal/mol)

>  <smiles>  (33) 
C=c1oc(C(=O)N2CCC(C(=O)N3CCN(C)CC3)CC2)cc1=Cc1[nH]c(=O)[nH]c1O

>  <score_type>  (33) 
oracle

>  <origin>  (33) 
adg

>  <m_score__min__energy>  (33) 
-18.27

>  <m_primary>  (33) 
energy

$$$$
33:0
     RDKit          3D

 56 58  0  0  0  0  0  0  0  0999 V2000
   55.0860   23.8980   45.2930 C   0  0  0  0  0  0  0  0  0  0  0  0
   56.0580   23.1930   44.4390 N   0  0  0  0  0  0  0  0  0  0  0  0
   57.1210   22.5330   45.2430 C   0  0  0  0  0  0  0  0  0  0  0  0
   58.4780   23.2630   45.2060 C   0  0  0  0  0  0  0  0  0  0  0  0
   58.2750   24.7080   45.0640 N   0  0  0  0  0  0  0  0  0  0  0  0
   58.8300   25.6360   46.0150 C   0  0  0  0  0  0  0  0  0  0  0  0
   57.9910   26.4920   46.7490 C   0  0  0  0  0  0  0  0  0  0  0  0
   58.5280   27.3770   47.6880 C   0  0  0  0  0  0  0  0  0  0  0  0
   59.9140   27.4290   47.9010 C   0  0  0  0  0  0  0  0  0  0  0  0
   60.4870   28.3910   48.9050 C   0  0  0  0  0  0  0  0  0  0  0  0
   59.9600   29.7360   48.6850 N   0  0  0  0  0  0  0  0  0  0  0  0
   58.8530   30.2580   49.4400 C   0  0  0  0  0  0  0  0  0  0  0  0
   58.2490   29.5160   50.2600 O   0  0  0  0  0  0  0  0  0  0  0  0
   58.3770   31.6770   49.2800 C   0  0  0  0  0  0  0  0  0  0  0  0
   59.3320   32.4950   48.5350 N   0  0  0  0  0  0  0  0  0  0  0  0
   59.8390   32.2220   47.2210 C   0  0  0  0  0  0  0  0  0  0  0  0
   61.0800   32.0660   47.0780 O   0  0  0  0  0  0  0  0  0  0  0  0
   58.9700   32.1490   46.0280 C   0  0  0  0  0  0  0  0  0  0  0  0
   58.8480   33.2660   45.1850 C   0  0  0  0  0  0  0  0  0  0  0  0
   58.0480   33.2030   44.0420 C   0  0  0  0  0  0  0  0  0  0  0  0
   57.3730   32.0240   43.7200 C   0  0  0  0  0  0  0  0  0  0  0  0
   57.4970   30.8980   44.5440 C   0  0  0  0  0  0  0  0  0  0  0  0
   56.6890   29.3930   44.1250 S   0  0  0  0  0  0  0  0  0  0  0  0
   55.1430   29.3510   44.8980 N   0  0  0  0  0  0  0  0  0  0  0  0
   56.5170   29.3150   42.6340 O   0  0  0  0  0  0  0  0  0  0  0  0
   57.5100   28.2190   44.5810 O   0  0  0  0  0  0  0  0  0  0  0  0
   58.3060   30.9580   45.6860 C   0  0  0  0  0  0  0  0  0  0  0  0
   60.7520   26.5640   47.1820 C   0  0  0  0  0  0  0  0  0  0  0  0
   60.2150   25.6730   46.2490 C   0  0  0  0  0  0  0  0  0  0  0  0
   57.4640   25.1960   43.9450 C   0  0  0  0  0  0  0  0  0  0  0  0
   56.5900   24.0670   43.3720 C   0  0  0  0  0  0  0  0  0  0  0  0
   55.3307   23.7205   46.3507 H   0  0  0  0  0  0  0  0  0  0  0  0
   55.1282   24.9769   45.0829 H   0  0  0  0  0  0  0  0  0  0  0  0
   54.0735   23.5229   45.0829 H   0  0  0  0  0  0  0  0  0  0  0  0
   56.7833   22.4831   46.2887 H   0  0  0  0  0  0  0  0  0  0  0  0
   57.2823   21.5380   44.8025 H   0  0  0  0  0  0  0  0  0  0  0  0
   59.0230   23.0633   46.1404 H   0  0  0  0  0  0  0  0  0  0  0  0
   59.0577   22.8970   44.3458 H   0  0  0  0  0  0  0  0  0  0  0  0
   56.9039   26.4652   46.5832 H   0  0  0  0  0  0  0  0  0  0  0  0
   57.8608   28.0361   48.2629 H   0  0  0  0  0  0  0  0  0  0  0  0
   60.2186   28.0586   49.9186 H   0  0  0  0  0  0  0  0  0  0  0  0
   61.5807   28.4147   48.7903 H   0  0  0  0  0  0  0  0  0  0  0  0
   60.4390   30.3310   47.9730 H   0  0  0  0  0  0  0  0  0  0  0  0
   57.4182   31.6711   48.7409 H   0  0  0  0  0  0  0  0  0  0  0  0
   58.2669   32.1133   50.2838 H   0  0  0  0  0  0  0  0  0  0  0  0
   59.3853   34.1950   45.4264 H   0  0  0  0  0  0  0  0  0  0  0  0
   57.9493   34.0856   43.3930 H   0  0  0  0  0  0  0  0  0  0  0  0
   56.7436   31.9793   42.8190 H   0  0  0  0  0  0  0  0  0  0  0  0
   55.1770   28.5930   45.6140 H   0  0  0  0  0  0  0  0  0  0  0  0
   58.4226   30.0666   46.3199 H   0  0  0  0  0  0  0  0  0  0  0  0
   61.8383   26.5871   47.3536 H   0  0  0  0  0  0  0  0  0  0  0  0
   60.8811   24.9960   45.6940 H   0  0  0  0  0  0  0  0  0  0  0  0
   56.8150   26.0109   44.2982 H   0  0  0  0  0  0  0  0  0  0  0  0
   58.1363   25.5584   43.1534 H   0  0  0  0  0  0  0  0  0  0  0  0
   55.7475   24.5122   42.8225 H   0  0  0  0  0  0  0  0  0  0  0  0
   57.2147   23.4539   42.7058 H   0  0  0  0  0  0  0  0  0  0  0  0
  1  2  1  0
  2  3  1  0
  3  4  1  0
  4  5  1  0
  5  6  1  0
  6  7  2  0
  7  8  1  0
  8  9  2  0
  9 10  1  0
 10 11  1  0
 11 12  1  0
 12 13  2  0
 12 14  1  0
 14 15  1  0
 15 16  1  0
 16 17  2  0
 16 18  1  0
 18 19  2  0
 19 20  1  0
 20 21  2  0
 21 22  1  0
 22 23  1  0
 23 24  1  0
 23 25  2  0
 23 26  2  0
 22 27  2  0
  9 28  1  0
 28 29  2  0
  5 30  1  0
 30 31  1  0
 31  2  1  0
 29  6  1  0
 27 18  1  0
  1 32  1  0
  1 33  1  0
  1 34  1  0
  3 35  1  0
  3 36  1  0
  4 37  1  0
  4 38  1  0
  7 39  1  0
  8 40  1  0
 10 41  1  0
 10 42  1  0
 11 43  1  0
 14 44  1  0
 14 45  1  0
 19 46  1  0
 20 47  1  0
 21 48  1  0
 24 49  1  0
 27 50  1  0
 28 51  1  0
 29 52  1  0
 30 53  1  0
 30 54  1  0
 31 55  1  0
 31 56  1  0
M  CHG  2  15  -1  24  -1
M  END
>  <UniqueID>  (34) 
34

>  <SMILES>  (34) 
CN1CCN(c2ccc(CNC(=O)C[N-]C(=O)c3cccc(S([NH-])(=O)=O)c3)cc2)CC1

>  <Energy>  (34) 
66.9196777395403

>  <Genealogy>  (34) 
CN1CCN(c2ccc(CNC(=O)C[N-]C(=O)c3cccc(S([NH-])(=O)=O)c3)cc2)CC1 (protonated)
CN1CCN(c2ccc(CNC(=O)C[N-]C(=O)c3cccc(S([NH-])(=O)=O)c3)cc2)CC1 (3D coordinates assigned)
CN1CCN(c2ccc(CNC(=O)C[N-]C(=O)c3cccc(S([NH-])(=O)=O)c3)cc2)CC1 (nonaromatic ring conformer: 66.9196777395403 kcal/mol)

>  <smiles>  (34) 
CN1CCN(c2ccc(CNC(=O)CNC(=O)c3cccc(S(N)(=O)=O)c3)cc2)CC1

>  <score_type>  (34) 
oracle

>  <origin>  (34) 
adg

>  <m_score__min__energy>  (34) 
-13.390000000000001

>  <m_primary>  (34) 
energy

$$$$
34:0
     RDKit          3D

 53 55  0  0  0  0  0  0  0  0999 V2000
   65.2080   26.8090   52.9910 C   0  0  0  0  0  0  0  0  0  0  0  0
   64.1610   27.6580   52.3330 C   0  0  0  0  0  0  0  0  0  0  0  0
   63.0730   27.1150   51.9950 O   0  0  0  0  0  0  0  0  0  0  0  0
   64.3740   29.0620   52.0660 N   0  0  0  0  0  0  0  0  0  0  0  0
   63.2050   29.8990   51.7500 C   0  0  0  0  0  0  0  0  0  0  0  0
   63.5620   31.3870   51.7170 C   0  0  0  0  0  0  0  0  0  0  0  0
   64.7770   31.5920   50.9220 N   0  0  0  0  0  0  0  0  0  0  0  0
   64.9070   32.7450   50.0700 C   0  0  0  0  0  0  0  0  0  0  0  0
   65.9550   33.4450   50.1330 O   0  0  0  0  0  0  0  0  0  0  0  0
   63.8450   33.1180   49.1070 C   0  0  0  0  0  0  0  0  0  0  0  0
   64.0760   33.0470   47.7240 C   0  0  0  0  0  0  0  0  0  0  0  0
   63.0740   33.4110   46.8190 C   0  0  0  0  0  0  0  0  0  0  0  0
   61.8270   33.8620   47.2760 C   0  0  0  0  0  0  0  0  0  0  0  0
   60.8160   34.2280   46.3180 N   0  0  0  0  0  0  0  0  0  0  0  0
   59.3900   34.2980   46.6420 C   0  0  0  0  0  0  0  0  0  0  0  0
   58.6750   33.0640   46.1580 C   0  0  0  0  0  0  0  0  0  0  0  0
   58.8360   31.8430   46.8310 C   0  0  0  0  0  0  0  0  0  0  0  0
   58.2040   30.6890   46.3590 C   0  0  0  0  0  0  0  0  0  0  0  0
   57.4090   30.7410   45.2060 C   0  0  0  0  0  0  0  0  0  0  0  0
   56.6290   29.2840   44.6010 S   0  0  0  0  0  0  0  0  0  0  0  0
   56.8930   29.1480   42.8980 N   0  0  0  0  0  0  0  0  0  0  0  0
   57.1960   28.0770   45.2940 O   0  0  0  0  0  0  0  0  0  0  0  0
   55.1520   29.3470   44.8760 O   0  0  0  0  0  0  0  0  0  0  0  0
   57.2670   31.9540   44.5190 C   0  0  0  0  0  0  0  0  0  0  0  0
   57.8990   33.1090   44.9900 C   0  0  0  0  0  0  0  0  0  0  0  0
   61.6010   33.9490   48.6630 C   0  0  0  0  0  0  0  0  0  0  0  0
   62.6040   33.5850   49.5680 C   0  0  0  0  0  0  0  0  0  0  0  0
   65.9480   30.7310   51.1370 C   0  0  0  0  0  0  0  0  0  0  0  0
   65.6990   29.6830   52.2300 C   0  0  0  0  0  0  0  0  0  0  0  0
   65.1106   26.8880   54.0838 H   0  0  0  0  0  0  0  0  0  0  0  0
   65.0749   25.7606   52.6859 H   0  0  0  0  0  0  0  0  0  0  0  0
   66.2063   27.1558   52.6859 H   0  0  0  0  0  0  0  0  0  0  0  0
   62.8128   29.6052   50.7652 H   0  0  0  0  0  0  0  0  0  0  0  0
   62.4526   29.7458   52.5376 H   0  0  0  0  0  0  0  0  0  0  0  0
   62.7320   31.9512   51.2665 H   0  0  0  0  0  0  0  0  0  0  0  0
   63.7378   31.7398   52.7440 H   0  0  0  0  0  0  0  0  0  0  0  0
   65.0515   32.7028   47.3499 H   0  0  0  0  0  0  0  0  0  0  0  0
   63.2657   33.3429   45.7380 H   0  0  0  0  0  0  0  0  0  0  0  0
   61.1220   34.4540   45.3430 H   0  0  0  0  0  0  0  0  0  0  0  0
   59.2707   34.3806   47.7324 H   0  0  0  0  0  0  0  0  0  0  0  0
   58.9560   35.1775   46.1439 H   0  0  0  0  0  0  0  0  0  0  0  0
   59.4623   31.7939   47.7339 H   0  0  0  0  0  0  0  0  0  0  0  0
   58.3311   29.7366   46.8945 H   0  0  0  0  0  0  0  0  0  0  0  0
   57.9190   29.2580   42.7390 H   0  0  0  0  0  0  0  0  0  0  0  0
   56.6490   28.1690   42.6290 H   0  0  0  0  0  0  0  0  0  0  0  0
   56.6559   31.9978   43.6054 H   0  0  0  0  0  0  0  0  0  0  0  0
   57.7873   34.0566   44.4426 H   0  0  0  0  0  0  0  0  0  0  0  0
   60.6300   34.3053   49.0374 H   0  0  0  0  0  0  0  0  0  0  0  0
   62.4187   33.6654   50.6493 H   0  0  0  0  0  0  0  0  0  0  0  0
   66.1854   30.2131   50.1960 H   0  0  0  0  0  0  0  0  0  0  0  0
   66.7831   31.3688   51.4622 H   0  0  0  0  0  0  0  0  0  0  0  0
   66.4729   28.9040   52.1658 H   0  0  0  0  0  0  0  0  0  0  0  0
   65.7368   30.1800   53.2106 H   0  0  0  0  0  0  0  0  0  0  0  0
  1  2  1  0
  2  3  2  0
  2  4  1  0
  4  5  1  0
  5  6  1  0
  6  7  1  0
  7  8  1  0
  8  9  2  0
  8 10  1  0
 10 11  2  0
 11 12  1  0
 12 13  2  0
 13 14  1  0
 14 15  1  0
 15 16  1  0
 16 17  2  0
 17 18  1  0
 18 19  2  0
 19 20  1  0
 20 21  1  0
 20 22  2  0
 20 23  2  0
 19 24  1  0
 24 25  2  0
 13 26  1  0
 26 27  2  0
  7 28  1  0
 28 29  1  0
 29  4  1  0
 27 10  1  0
 25 16  1  0
  1 30  1  0
  1 31  1  0
  1 32  1  0
  5 33  1  0
  5 34  1  0
  6 35  1  0
  6 36  1  0
 11 37  1  0
 12 38  1  0
 14 39  1  0
 15 40  1  0
 15 41  1  0
 17 42  1  0
 18 43  1  0
 21 44  1  0
 21 45  1  0
 24 46  1  0
 25 47  1  0
 26 48  1  0
 27 49  1  0
 28 50  1  0
 28 51  1  0
 29 52  1  0
 29 53  1  0
M  END
>  <UniqueID>  (35) 
35

>  <SMILES>  (35) 
CC(=O)N1CCN(C(=O)c2ccc(NCc3ccc(S(N)(=O)=O)cc3)cc2)CC1

>  <Energy>  (35) 
56.436841379373355

>  <Genealogy>  (35) 
CC(=O)N1CCN(C(=O)c2ccc(NCc3ccc(S(N)(=O)=O)cc3)cc2)CC1 (3D coordinates assigned)
CC(=O)N1CCN(C(=O)c2ccc(NCc3ccc(S(N)(=O)=O)cc3)cc2)CC1 (nonaromatic ring conformer: 56.436841379373355 kcal/mol)

>  <smiles>  (35) 
CC(=O)N1CCN(C(=O)c2ccc(NCc3ccc(S(N)(=O)=O)cc3)cc2)CC1

>  <score_type>  (35) 
oracle

>  <origin>  (35) 
adg

>  <m_score__min__energy>  (35) 
-9.2200000000000006

>  <m_primary>  (35) 
energy

$$$$
35:0
     RDKit          3D

 31 33  0  0  0  0  0  0  0  0999 V2000
   59.2380   34.4150   46.7640 C   0  0  0  0  0  0  0  0  0  0  0  0
   58.9110   33.2270   46.2260 C   0  0  0  0  0  0  0  0  0  0  0  0
   57.8340   33.0930   45.3010 C   0  0  0  0  0  0  0  0  0  0  0  0
   56.9930   34.2750   44.8810 C   0  0  0  0  0  0  0  0  0  0  0  0
   57.5300   31.8250   44.7500 C   0  0  0  0  0  0  0  0  0  0  0  0
   58.2770   30.6700   45.0650 C   0  0  0  0  0  0  0  0  0  0  0  0
   57.9560   29.5080   44.4500 C   0  0  0  0  0  0  0  0  0  0  0  0
   57.4040   28.3070   45.1040 C   0  0  0  0  0  0  0  0  0  0  0  0
   56.0190   28.1590   45.2610 C   0  0  0  0  0  0  0  0  0  0  0  0
   55.1480   29.1630   44.8540 O   0  0  0  0  0  0  0  0  0  0  0  0
   55.5180   27.0290   45.8260 N   0  0  0  0  0  0  0  0  0  0  0  0
   56.3370   26.0250   46.2300 C   0  0  0  0  0  0  0  0  0  0  0  0
   55.8500   24.9900   46.7550 O   0  0  0  0  0  0  0  0  0  0  0  0
   57.6800   26.1330   46.0640 N   0  0  0  0  0  0  0  0  0  0  0  0
   58.2300   27.2420   45.5030 C   0  0  0  0  0  0  0  0  0  0  0  0
   59.4790   27.3020   45.3480 O   0  0  0  0  0  0  0  0  0  0  0  0
   59.3120   30.8250   46.0150 C   0  0  0  0  0  0  0  0  0  0  0  0
   60.1400   29.9020   46.6440 C   0  0  0  0  0  0  0  0  0  0  0  0
   60.9280   30.6260   47.5200 C   0  0  0  0  0  0  0  0  0  0  0  0
   60.6130   31.9340   47.4700 N   0  0  0  0  0  0  0  0  0  0  0  0
   59.6190   32.0550   46.5650 C   0  0  0  0  0  0  0  0  0  0  0  0
   60.0745   34.4853   47.4749 H   0  0  0  0  0  0  0  0  0  0  0  0
   58.6690   35.3167   46.4933 H   0  0  0  0  0  0  0  0  0  0  0  0
   56.6216   34.7970   45.7752 H   0  0  0  0  0  0  0  0  0  0  0  0
   57.6042   34.9652   44.2809 H   0  0  0  0  0  0  0  0  0  0  0  0
   56.1406   33.9238   44.2809 H   0  0  0  0  0  0  0  0  0  0  0  0
   56.6834   31.7371   44.0532 H   0  0  0  0  0  0  0  0  0  0  0  0
   58.1219   29.4545   43.3639 H   0  0  0  0  0  0  0  0  0  0  0  0
   60.1635   28.8148   46.4782 H   0  0  0  0  0  0  0  0  0  0  0  0
   61.7045   30.1932   48.1678 H   0  0  0  0  0  0  0  0  0  0  0  0
   61.0500   32.6760   48.0580 H   0  0  0  0  0  0  0  0  0  0  0  0
  1  2  2  0
  2  3  1  0
  3  4  1  0
  3  5  2  0
  5  6  1  0
  6  7  2  3
  7  8  1  0
  8  9  2  0
  9 10  1  0
  9 11  1  0
 11 12  1  0
 12 13  2  0
 12 14  1  0
 14 15  1  0
 15 16  2  0
  6 17  1  0
 17 18  1  0
 18 19  2  0
 19 20  1  0
 20 21  1  0
 21  2  1  0
 15  8  1  0
 21 17  2  0
  1 22  1  0
  1 23  1  0
  4 24  1  0
  4 25  1  0
  4 26  1  0
  5 27  1  0
  7 28  1  0
 18 29  1  0
 19 30  1  0
 20 31  1  0
M  CHG  3  10  -1  11  -1  14  -1
M  END
>  <UniqueID>  (36) 
36

>  <SMILES>  (36) 
C=c1c(C)cc(=Cc2c([O-])[n-]c(=O)[n-]c2=O)c2cc[nH]c12

>  <Energy>  (36) 
86.0411340762021

>  <Genealogy>  (36) 
C=c1c(C)cc(=Cc2c([O-])[n-]c(=O)[n-]c2=O)c2cc[nH]c12 (protonated)
C=c1c(C)cc(=Cc2c([O-])[n-]c(=O)[n-]c2=O)c2cc[nH]c12 (3D coordinates assigned)
C=c1c(C)cc(=Cc2c([O-])[n-]c(=O)[n-]c2=O)c2cc[nH]c12 (optimized conformer: 86.0411340762021 kcal/mol)

>  <smiles>  (36) 
C=c1c(C)cc(=Cc2c(O)[nH]c(=O)[nH]c2=O)c2cc[nH]c12

>  <score_type>  (36) 
oracle

>  <origin>  (36) 
adg

>  <m_score__min__energy>  (36) 
-14.57

>  <m_primary>  (36) 
energy

$$$$
36:0
     RDKit          3D

 36 38  0  0  0  0  0  0  0  0999 V2000
   58.7769   32.6446   43.0140 H   0  0  0  0  0  0  0  0  0  0  0  0
   57.9360   31.9400   43.0950 C   0  0  0  0  0  0  0  0  0  0  0  0
   57.4250   31.5868   42.1872 H   0  0  0  0  0  0  0  0  0  0  0  0
   57.5360   31.5140   44.2940 C   0  0  0  0  0  0  0  0  0  0  0  0
   56.1650   30.3660   44.4160 S   0  0  0  0  0  0  0  0  0  0  0  0
   57.2340   29.1190   45.1290 C   0  0  0  0  0  0  0  0  0  0  0  0
   57.3660   27.9350   44.5120 C   0  0  0  0  0  0  0  0  0  0  0  0
   57.5701   27.9444   43.4311 H   0  0  0  0  0  0  0  0  0  0  0  0
   57.2580   26.6230   45.1740 C   0  0  0  0  0  0  0  0  0  0  0  0
   58.3100   25.7930   45.3440 N   0  0  0  0  0  0  0  0  0  0  0  0
   57.8030   24.7730   46.0700 C   0  0  0  0  0  0  0  0  0  0  0  0
   58.4970   23.7910   46.4450 O   0  0  0  0  0  0  0  0  0  0  0  0
   56.4970   24.9180   46.3720 N   0  0  0  0  0  0  0  0  0  0  0  0
   55.6810   24.0770   47.2400 C   0  0  0  0  0  0  0  0  0  0  0  0
   55.9057   24.3086   48.2916 H   0  0  0  0  0  0  0  0  0  0  0  0
   54.6163   24.2695   47.0416 H   0  0  0  0  0  0  0  0  0  0  0  0
   55.9055   23.0186   47.0416 H   0  0  0  0  0  0  0  0  0  0  0  0
   56.1610   26.1020   45.8370 C   0  0  0  0  0  0  0  0  0  0  0  0
   54.9220   26.7140   45.9960 O   0  0  0  0  0  0  0  0  0  0  0  0
   57.9260   29.4960   46.3800 C   0  0  0  0  0  0  0  0  0  0  0  0
   58.1210   28.6490   47.2910 O   0  0  0  0  0  0  0  0  0  0  0  0
   58.3550   30.8500   46.5710 N   0  0  0  0  0  0  0  0  0  0  0  0
   58.2570   31.8540   45.5460 C   0  0  0  0  0  0  0  0  0  0  0  0
   58.7500   33.0880   45.7490 C   0  0  0  0  0  0  0  0  0  0  0  0
   58.4013   33.8964   45.0895 H   0  0  0  0  0  0  0  0  0  0  0  0
   59.7320   33.4290   46.8030 C   0  0  0  0  0  0  0  0  0  0  0  0
   59.3310   33.9210   48.0610 C   0  0  0  0  0  0  0  0  0  0  0  0
   58.2634   34.0830   48.2709 H   0  0  0  0  0  0  0  0  0  0  0  0
   60.2840   34.2040   49.0430 C   0  0  0  0  0  0  0  0  0  0  0  0
   59.9651   34.6003   50.0183 H   0  0  0  0  0  0  0  0  0  0  0  0
   61.6420   33.9850   48.7900 C   0  0  0  0  0  0  0  0  0  0  0  0
   62.9400   34.3700   50.1360 Br  0  0  0  0  0  0  0  0  0  0  0  0
   62.0450   33.4710   47.5550 C   0  0  0  0  0  0  0  0  0  0  0  0
   63.1120   33.2908   47.3575 H   0  0  0  0  0  0  0  0  0  0  0  0
   61.0950   33.1850   46.5690 C   0  0  0  0  0  0  0  0  0  0  0  0
   61.4176   32.7663   45.6043 H   0  0  0  0  0  0  0  0  0  0  0  0
  1  2  1  0
  2  3  1  0
  2  4  2  0
  4  5  1  0
  5  6  1  0
  6  7  2  0
  7  8  1  0
  7  9  1  0
  9 10  1  0
 10 11  1  0
 11 12  2  0
 11 13  1  0
 13 14  1  0
 14 15  1  0
 14 16  1  0
 14 17  1  0
 13 18  1  0
 18 19  1  0
  6 20  1  0
 20 21  2  0
 20 22  1  0
 22 23  1  0
 23 24  2  3
 24 25  1  0
 24 26  1  0
 26 27  2  0
 27 28  1  0
 27 29  1  0
 29 30  1  0
 29 31  2  0
 31 32  1  0
 31 33  1  0
 33 34  1  0
 33 35  2  0
 35 36  1  0
 23  4  1  0
 35 26  1  0
 18  9  2  0
M  CHG  3  10  -1  19  -1  22  -1
M  END
>  <UniqueID>  (37) 
37

>  <SMILES>  (37) 
C=C1S/C(=C/c2[n-]c(=O)n(C)c2[O-])C(=O)[N-]C1=Cc1ccc(Br)cc1

>  <Energy>  (37) 
87.94446969554184

>  <Genealogy>  (37) 
C=C1SC(=Cc2[n-]c(=O)n(C)c2[O-])C(=O)[N-]C1=Cc1ccc(Br)cc1 (protonated)
C=C1S/C(=C/c2[n-]c(=O)n(C)c2[O-])C(=O)[N-]C1=Cc1ccc(Br)cc1 (cis-trans isomerization)
C=C1S/C(=C/c2[n-]c(=O)n(C)c2[O-])C(=O)[N-]C1=Cc1ccc(Br)cc1 (3D coordinates assigned)
C=C1S/C(=C/c2[n-]c(=O)n(C)c2[O-])C(=O)[N-]C1=Cc1ccc(Br)cc1 (nonaromatic ring conformer: 87.94446969554184 kcal/mol)

>  <smiles>  (37) 
C=C1SC(=Cc2[nH]c(=O)n(C)c2O)C(=O)NC1=Cc1ccc(Br)cc1

>  <score_type>  (37) 
oracle

>  <origin>  (37) 
adg

>  <m_score__min__energy>  (37) 
-15.41

>  <m_primary>  (37) 
energy

$$$$
37:0
     RDKit          3D

 47 49  0  0  0  0  0  0  0  0999 V2000
   59.0670   32.0230   49.0650 C   0  0  0  0  0  0  0  0  0  0  0  0
   58.9100   31.5700   47.6670 N   0  0  0  0  0  0  0  0  0  0  0  0
   58.8980   32.7300   46.7500 C   0  0  0  0  0  0  0  0  0  0  0  0
   58.3100   32.3450   45.4170 C   0  0  0  0  0  0  0  0  0  0  0  0
   58.6410   33.0630   44.2570 C   0  0  0  0  0  0  0  0  0  0  0  0
   58.0900   32.7000   43.0280 C   0  0  0  0  0  0  0  0  0  0  0  0
   57.1980   31.6280   42.9440 C   0  0  0  0  0  0  0  0  0  0  0  0
   56.8400   30.9060   44.0970 C   0  0  0  0  0  0  0  0  0  0  0  0
   55.8920   29.7700   43.9940 C   0  0  0  0  0  0  0  0  0  0  0  0
   55.7770   28.7960   45.0350 N   0  0  0  0  0  0  0  0  0  0  0  0
   55.1560   29.6620   42.9770 O   0  0  0  0  0  0  0  0  0  0  0  0
   57.4120   31.2680   45.3310 C   0  0  0  0  0  0  0  0  0  0  0  0
   60.0000   30.6400   47.3020 C   0  0  0  0  0  0  0  0  0  0  0  0
   59.4830   29.2350   47.2100 C   0  0  0  0  0  0  0  0  0  0  0  0
   60.3120   28.1160   47.2520 C   0  0  0  0  0  0  0  0  0  0  0  0
   59.3470   26.7480   47.0750 S   0  0  0  0  0  0  0  0  0  0  0  0
   57.9310   27.6400   46.9470 C   0  0  0  0  0  0  0  0  0  0  0  0
   56.7580   27.1040   46.7810 N   0  0  0  0  0  0  0  0  0  0  0  0
   56.3970   26.1490   45.7720 C   0  0  0  0  0  0  0  0  0  0  0  0
   55.1810   25.8540   45.6260 O   0  0  0  0  0  0  0  0  0  0  0  0
   57.3970   25.4890   44.9850 N   0  0  0  0  0  0  0  0  0  0  0  0
   57.2990   24.1700   44.4300 C   0  0  0  0  0  0  0  0  0  0  0  0
   56.3160   23.9210   43.4640 C   0  0  0  0  0  0  0  0  0  0  0  0
   56.1750   22.6460   42.9090 C   0  0  0  0  0  0  0  0  0  0  0  0
   57.0040   21.6050   43.3300 C   0  0  0  0  0  0  0  0  0  0  0  0
   57.9670   21.8340   44.3160 C   0  0  0  0  0  0  0  0  0  0  0  0
   58.1130   23.1080   44.8760 C   0  0  0  0  0  0  0  0  0  0  0  0
   59.0010   23.2820   45.8860 F   0  0  0  0  0  0  0  0  0  0  0  0
   58.1600   28.9690   47.0370 N   0  0  0  0  0  0  0  0  0  0  0  0
   58.7847   31.2085   49.7483 H   0  0  0  0  0  0  0  0  0  0  0  0
   60.1152   32.3047   49.2436 H   0  0  0  0  0  0  0  0  0  0  0  0
   58.4180   32.8930   49.2436 H   0  0  0  0  0  0  0  0  0  0  0  0
   58.2934   33.5351   47.1931 H   0  0  0  0  0  0  0  0  0  0  0  0
   59.9322   33.0719   46.5965 H   0  0  0  0  0  0  0  0  0  0  0  0
   59.3361   33.9134   44.3173 H   0  0  0  0  0  0  0  0  0  0  0  0
   58.3591   33.2605   42.1206 H   0  0  0  0  0  0  0  0  0  0  0  0
   56.7726   31.3466   41.9694 H   0  0  0  0  0  0  0  0  0  0  0  0
   56.2400   28.9230   45.9620 H   0  0  0  0  0  0  0  0  0  0  0  0
   55.1440   27.9740   44.9110 H   0  0  0  0  0  0  0  0  0  0  0  0
   57.1532   30.7016   46.2378 H   0  0  0  0  0  0  0  0  0  0  0  0
   60.4180   30.9364   46.3286 H   0  0  0  0  0  0  0  0  0  0  0  0
   60.7786   30.6825   48.0778 H   0  0  0  0  0  0  0  0  0  0  0  0
   61.4047   28.1249   47.3785 H   0  0  0  0  0  0  0  0  0  0  0  0
   55.6503   24.7345   43.1398 H   0  0  0  0  0  0  0  0  0  0  0  0
   55.4102   22.4628   42.1399 H   0  0  0  0  0  0  0  0  0  0  0  0
   56.8991   20.6043   42.8855 H   0  0  0  0  0  0  0  0  0  0  0  0
   58.6127   21.0098   44.6533 H   0  0  0  0  0  0  0  0  0  0  0  0
  1  2  1  0
  2  3  1  0
  3  4  1  0
  4  5  2  0
  5  6  1  0
  6  7  2  0
  7  8  1  0
  8  9  1  0
  9 10  1  0
  9 11  2  0
  8 12  2  0
  2 13  1  0
 13 14  1  0
 14 15  2  0
 15 16  1  0
 16 17  1  0
 17 18  2  3
 18 19  1  0
 19 20  2  0
 19 21  1  0
 21 22  1  0
 22 23  2  0
 23 24  1  0
 24 25  2  0
 25 26  1  0
 26 27  2  0
 27 28  1  0
 17 29  1  0
 12  4  1  0
 29 14  1  0
 27 22  1  0
  1 30  1  0
  1 31  1  0
  1 32  1  0
  3 33  1  0
  3 34  1  0
  5 35  1  0
  6 36  1  0
  7 37  1  0
 10 38  1  0
 10 39  1  0
 12 40  1  0
 13 41  1  0
 13 42  1  0
 15 43  1  0
 23 44  1  0
 24 45  1  0
 25 46  1  0
 26 47  1  0
M  CHG  2  21  -1  29  -1
M  END
>  <UniqueID>  (38) 
38

>  <SMILES>  (38) 
CN(Cc1cccc(C(N)=O)c1)Cc1csc(=NC(=O)[N-]c2ccccc2F)[n-]1

>  <Energy>  (38) 
87.01759963354684

>  <Genealogy>  (38) 
CN(Cc1cccc(C(N)=O)c1)Cc1csc(=NC(=O)[N-]c2ccccc2F)[n-]1 (protonated)
CN(Cc1cccc(C(N)=O)c1)Cc1csc(=NC(=O)[N-]c2ccccc2F)[n-]1 (3D coordinates assigned)
CN(Cc1cccc(C(N)=O)c1)Cc1csc(=NC(=O)[N-]c2ccccc2F)[n-]1 (optimized conformer: 87.01759963354684 kcal/mol)

>  <smiles>  (38) 
CN(Cc1cccc(C(N)=O)c1)Cc1csc(=NC(=O)Nc2ccccc2F)[nH]1

>  <score_type>  (38) 
oracle

>  <origin>  (38) 
adg

>  <m_score__min__energy>  (38) 
-11.77

>  <m_primary>  (38) 
energy

$$$$
38:0
     RDKit          3D

 52 55  0  0  0  0  0  0  0  0999 V2000
   58.4560   32.8730   42.4650 C   0  0  0  0  0  0  0  0  0  0  0  0
   58.5180   33.0770   43.7910 C   0  0  0  0  0  0  0  0  0  0  0  0
   59.2910   34.1120   44.2010 N   0  0  0  0  0  0  0  0  0  0  0  0
   59.4210   34.4660   45.4960 C   0  0  0  0  0  0  0  0  0  0  0  0
   60.1620   35.4450   45.7860 O   0  0  0  0  0  0  0  0  0  0  0  0
   58.7650   33.7680   46.4720 N   0  0  0  0  0  0  0  0  0  0  0  0
   58.9430   34.1330   47.8950 C   0  0  0  0  0  0  0  0  0  0  0  0
   60.3670   34.6350   48.1740 C   0  0  0  0  0  0  0  0  0  0  0  0
   61.3950   33.5600   47.9390 C   0  0  0  0  0  0  0  0  0  0  0  0
   62.4470   33.7710   47.0300 C   0  0  0  0  0  0  0  0  0  0  0  0
   63.4270   32.7890   46.8480 C   0  0  0  0  0  0  0  0  0  0  0  0
   63.3640   31.5950   47.5710 C   0  0  0  0  0  0  0  0  0  0  0  0
   62.3250   31.3810   48.4810 C   0  0  0  0  0  0  0  0  0  0  0  0
   61.3450   32.3600   48.6680 C   0  0  0  0  0  0  0  0  0  0  0  0
   57.9830   32.6920   46.1330 C   0  0  0  0  0  0  0  0  0  0  0  0
   57.4480   32.0170   47.0570 O   0  0  0  0  0  0  0  0  0  0  0  0
   57.8060   32.3100   44.7680 C   0  0  0  0  0  0  0  0  0  0  0  0
   57.0290   31.2450   44.4100 C   0  0  0  0  0  0  0  0  0  0  0  0
   57.2150   29.8440   44.8540 C   0  0  0  0  0  0  0  0  0  0  0  0
   58.4670   29.3980   45.3170 C   0  0  0  0  0  0  0  0  0  0  0  0
   59.5480   30.2970   45.3220 O   0  0  0  0  0  0  0  0  0  0  0  0
   60.7640   30.0960   46.0330 C   0  0  0  0  0  0  0  0  0  0  0  0
   58.6010   28.0700   45.7620 C   0  0  0  0  0  0  0  0  0  0  0  0
   57.4870   27.2170   45.7620 C   0  0  0  0  0  0  0  0  0  0  0  0
   57.5800   25.8130   46.2200 C   0  0  0  0  0  0  0  0  0  0  0  0
   57.0620   25.3150   47.4030 C   0  0  0  0  0  0  0  0  0  0  0  0
   57.3740   23.9710   47.4300 C   0  0  0  0  0  0  0  0  0  0  0  0
   58.0550   23.6320   46.3210 N   0  0  0  0  0  0  0  0  0  0  0  0
   58.1870   24.7450   45.5770 C   0  0  0  0  0  0  0  0  0  0  0  0
   56.2860   27.6910   45.3330 N   0  0  0  0  0  0  0  0  0  0  0  0
   56.1210   28.9650   44.8930 C   0  0  0  0  0  0  0  0  0  0  0  0
   54.9800   29.3420   44.5120 O   0  0  0  0  0  0  0  0  0  0  0  0
   57.8468   32.0500   42.0630 H   0  0  0  0  0  0  0  0  0  0  0  0
   59.0144   33.5289   41.7809 H   0  0  0  0  0  0  0  0  0  0  0  0
   58.2272   34.9276   48.1523 H   0  0  0  0  0  0  0  0  0  0  0  0
   58.7680   33.2351   48.5058 H   0  0  0  0  0  0  0  0  0  0  0  0
   60.5817   35.4845   47.5090 H   0  0  0  0  0  0  0  0  0  0  0  0
   60.4225   34.9361   49.2305 H   0  0  0  0  0  0  0  0  0  0  0  0
   62.4996   34.7106   46.4605 H   0  0  0  0  0  0  0  0  0  0  0  0
   64.2477   32.9571   46.1351 H   0  0  0  0  0  0  0  0  0  0  0  0
   64.1331   30.8225   47.4238 H   0  0  0  0  0  0  0  0  0  0  0  0
   62.2784   30.4411   49.0506 H   0  0  0  0  0  0  0  0  0  0  0  0
   60.5315   32.1903   49.3887 H   0  0  0  0  0  0  0  0  0  0  0  0
   56.1883   31.4461   43.7298 H   0  0  0  0  0  0  0  0  0  0  0  0
   60.5661   30.1287   47.1146 H   0  0  0  0  0  0  0  0  0  0  0  0
   61.1865   29.1158   45.7671 H   0  0  0  0  0  0  0  0  0  0  0  0
   61.4795   30.8881   45.7671 H   0  0  0  0  0  0  0  0  0  0  0  0
   59.5774   27.7011   46.1093 H   0  0  0  0  0  0  0  0  0  0  0  0
   56.5107   25.8789   48.1699 H   0  0  0  0  0  0  0  0  0  0  0  0
   57.1048   23.2779   48.2406 H   0  0  0  0  0  0  0  0  0  0  0  0
   58.4140   22.6830   46.0810 H   0  0  0  0  0  0  0  0  0  0  0  0
   58.6992   24.7996   44.6051 H   0  0  0  0  0  0  0  0  0  0  0  0
  1  2  2  0
  2  3  1  0
  3  4  1  0
  4  5  2  0
  4  6  1  0
  6  7  1  0
  7  8  1  0
  8  9  1  0
  9 10  2  0
 10 11  1  0
 11 12  2  0
 12 13  1  0
 13 14  2  0
  6 15  1  0
 15 16  2  0
 15 17  1  0
 17 18  2  3
 18 19  1  0
 19 20  2  0
 20 21  1  0
 21 22  1  0
 20 23  1  0
 23 24  2  0
 24 25  1  0
 25 26  1  0
 26 27  2  0
 27 28  1  0
 28 29  1  0
 24 30  1  0
 30 31  1  0
 31 32  2  0
 17  2  1  0
 31 19  1  0
 14  9  1  0
 29 25  2  0
  1 33  1  0
  1 34  1  0
  7 35  1  0
  7 36  1  0
  8 37  1  0
  8 38  1  0
 10 39  1  0
 11 40  1  0
 12 41  1  0
 13 42  1  0
 14 43  1  0
 18 44  1  0
 22 45  1  0
 22 46  1  0
 22 47  1  0
 23 48  1  0
 26 49  1  0
 27 50  1  0
 28 51  1  0
 29 52  1  0
M  CHG  2   3  -1  30  -1
M  END
>  <UniqueID>  (39) 
39

>  <SMILES>  (39) 
C=c1[n-]c(=O)n(CCc2ccccc2)c(=O)c1=Cc1c(OC)cc(-c2cc[nH]c2)[n-]c1=O

>  <Energy>  (39) 
105.2481197613647

>  <Genealogy>  (39) 
C=c1[n-]c(=O)n(CCc2ccccc2)c(=O)c1=Cc1c(OC)cc(-c2cc[nH]c2)[n-]c1=O (protonated)
C=c1[n-]c(=O)n(CCc2ccccc2)c(=O)c1=Cc1c(OC)cc(-c2cc[nH]c2)[n-]c1=O (3D coordinates assigned)
C=c1[n-]c(=O)n(CCc2ccccc2)c(=O)c1=Cc1c(OC)cc(-c2cc[nH]c2)[n-]c1=O (optimized conformer: 105.2481197613647 kcal/mol)

>  <smiles>  (39) 
C=c1[nH]c(=O)n(CCc2ccccc2)c(=O)c1=Cc1c(OC)cc(-c2cc[nH]c2)[nH]c1=O

>  <score_type>  (39) 
oracle

>  <origin>  (39) 
adg

>  <m_score__min__energy>  (39) 
-12.18

>  <m_primary>  (39) 
energy

$$$$
39:0
     RDKit          3D

 40 43  0  0  0  0  0  0  0  0999 V2000
   56.8340   19.5250   43.0230 H   0  0  0  0  0  0  0  0  0  0  0  0
   56.3450   20.4110   43.0500 O   0  0  0  0  0  0  0  0  0  0  0  0
   56.8090   21.4770   43.8160 C   0  0  0  0  0  0  0  0  0  0  0  0
   58.1730   21.5700   44.1100 C   0  0  0  0  0  0  0  0  0  0  0  0
   58.8683   20.8030   43.7381 H   0  0  0  0  0  0  0  0  0  0  0  0
   58.6540   22.6350   44.8750 C   0  0  0  0  0  0  0  0  0  0  0  0
   59.7280   22.7066   45.1018 H   0  0  0  0  0  0  0  0  0  0  0  0
   57.7740   23.6100   45.3530 C   0  0  0  0  0  0  0  0  0  0  0  0
   58.1603   24.4516   45.9467 H   0  0  0  0  0  0  0  0  0  0  0  0
   56.3970   23.5210   45.0790 C   0  0  0  0  0  0  0  0  0  0  0  0
   55.4710   24.5660   45.5800 C   0  0  0  0  0  0  0  0  0  0  0  0
   54.2460   24.4870   45.3000 O   0  0  0  0  0  0  0  0  0  0  0  0
   55.9140   25.6410   46.4230 N   0  0  0  0  0  0  0  0  0  0  0  0
   56.5270   26.7130   46.0190 C   0  0  0  0  0  0  0  0  0  0  0  0
   55.8970   27.8450   45.6210 N   0  0  0  0  0  0  0  0  0  0  0  0
   56.7990   28.7990   45.2830 C   0  0  0  0  0  0  0  0  0  0  0  0
   58.1290   28.4390   45.4070 C   0  0  0  0  0  0  0  0  0  0  0  0
   58.2080   26.8650   45.9940 S   0  0  0  0  0  0  0  0  0  0  0  0
   59.2670   29.4000   45.2070 C   0  0  2  0  0  0  0  0  0  0  0  0
   60.1120   28.8584   44.7568 H   0  0  0  0  0  0  0  0  0  0  0  0
   59.7100   29.9570   46.5360 C   0  0  0  0  0  0  0  0  0  0  0  0
   59.8780   31.2960   46.8390 C   0  0  0  0  0  0  0  0  0  0  0  0
   59.7358   32.1487   46.1588 H   0  0  0  0  0  0  0  0  0  0  0  0
   60.2600   31.3500   48.1660 C   0  0  0  0  0  0  0  0  0  0  0  0
   60.4702   32.2723   48.7274 H   0  0  0  0  0  0  0  0  0  0  0  0
   60.3360   30.1020   48.6680 N   0  0  0  0  0  0  0  0  0  0  0  0
   60.6350   29.7550   50.0520 C   0  0  0  0  0  0  0  0  0  0  0  0
   60.0675   30.4136   50.7259 H   0  0  0  0  0  0  0  0  0  0  0  0
   60.3512   28.7085   50.2372 H   0  0  0  0  0  0  0  0  0  0  0  0
   61.7119   29.8811   50.2372 H   0  0  0  0  0  0  0  0  0  0  0  0
   59.9900   29.2450   47.6900 C   0  0  0  0  0  0  0  0  0  0  0  0
   59.9378   28.1509   47.7914 H   0  0  0  0  0  0  0  0  0  0  0  0
   58.8670   30.5360   44.2290 C   0  0  0  0  0  0  0  0  0  0  0  0
   59.5514   31.3841   44.3781 H   0  0  0  0  0  0  0  0  0  0  0  0
   58.9324   30.1302   43.2087 H   0  0  0  0  0  0  0  0  0  0  0  0
   57.4470   31.0200   44.4340 C   0  0  0  0  0  0  0  0  0  0  0  0
   57.1440   32.2100   44.1610 O   0  0  0  0  0  0  0  0  0  0  0  0
   56.4260   30.1070   44.8580 N   0  0  0  0  0  0  0  0  0  0  0  0
   55.9240   22.4520   44.2960 C   0  0  0  0  0  0  0  0  0  0  0  0
   54.8522   22.3810   44.0589 H   0  0  0  0  0  0  0  0  0  0  0  0
  1  2  1  0
  2  3  1  0
  3  4  2  0
  4  5  1  0
  4  6  1  0
  6  7  1  0
  6  8  2  0
  8  9  1  0
  8 10  1  0
 10 11  1  0
 11 12  2  0
 11 13  1  0
 13 14  2  0
 14 15  1  0
 15 16  1  0
 16 17  2  0
 17 18  1  0
 17 19  1  0
 19 20  1  6
 19 21  1  0
 21 22  1  0
 22 23  1  0
 22 24  2  0
 24 25  1  0
 24 26  1  0
 26 27  1  0
 27 28  1  0
 27 29  1  0
 27 30  1  0
 26 31  1  0
 31 32  1  0
 19 33  1  0
 33 34  1  0
 33 35  1  0
 33 36  1  0
 36 37  2  0
 36 38  1  0
 10 39  2  0
 39 40  1  0
 39  3  1  0
 18 14  1  0
 31 21  2  0
 38 16  1  0
M  CHG  2  15  -1  38  -1
M  END
>  <UniqueID>  (40) 
40

>  <SMILES>  (40) 
Cn1ccc([C@@H]2CC(=O)[N-]c3[n-]/c(=N\C(=O)c4cccc(O)c4)sc32)c1

>  <Energy>  (40) 
107.00269530709211

>  <Genealogy>  (40) 
Cn1ccc(C2CC(=O)[N-]c3[n-]c(=NC(=O)c4cccc(O)c4)sc32)c1 (protonated)
Cn1ccc([C@@H]2CC(=O)[N-]c3[n-]c(=NC(=O)c4cccc(O)c4)sc32)c1 (chirality)
Cn1ccc([C@@H]2CC(=O)[N-]c3[n-]/c(=N\C(=O)c4cccc(O)c4)sc32)c1 (cis-trans isomerization)
Cn1ccc([C@@H]2CC(=O)[N-]c3[n-]/c(=N\C(=O)c4cccc(O)c4)sc32)c1 (3D coordinates assigned)
Cn1ccc([C@@H]2CC(=O)[N-]c3[n-]/c(=N\C(=O)c4cccc(O)c4)sc32)c1 (nonaromatic ring conformer: 107.00269530709211 kcal/mol)

>  <smiles>  (40) 
Cn1ccc(C2CC(=O)Nc3[nH]c(=NC(=O)c4cccc(O)c4)sc32)c1

>  <score_type>  (40) 
oracle

>  <origin>  (40) 
adg

>  <m_score__min__energy>  (40) 
-13.01

>  <m_primary>  (40) 
energy

$$$$
40:0
     RDKit          3D

 54 57  0  0  0  0  0  0  0  0999 V2000
   59.5000   34.2580   45.2390 C   0  0  0  0  0  0  0  0  0  0  0  0
   58.7130   33.0280   45.1650 N   0  0  0  0  0  0  0  0  0  0  0  0
   57.6650   32.8150   44.3490 C   0  0  0  0  0  0  0  0  0  0  0  0
   57.1040   31.6020   44.6800 C   0  0  0  0  0  0  0  0  0  0  0  0
   57.7880   31.0540   45.7100 N   0  0  0  0  0  0  0  0  0  0  0  0
   58.7610   31.9490   45.9840 C   0  0  0  0  0  0  0  0  0  0  0  0
   59.7760   31.7400   47.0820 C   0  0  0  0  0  0  0  0  0  0  0  0
   60.2080   30.3330   47.2240 N   0  0  0  0  0  0  0  0  0  0  0  0
   60.5080   29.6530   45.9380 C   0  0  0  0  0  0  0  0  0  0  0  0
   59.4760   28.5730   45.5890 C   0  0  0  0  0  0  0  0  0  0  0  0
   59.4580   27.4810   46.6750 C   0  0  0  0  0  0  0  0  0  0  0  0
   58.2090   26.6230   46.5370 C   0  0  0  0  0  0  0  0  0  0  0  0
   57.1290   27.0900   45.7740 C   0  0  0  0  0  0  0  0  0  0  0  0
   55.9510   26.3490   45.6840 C   0  0  0  0  0  0  0  0  0  0  0  0
   55.8190   25.1280   46.3660 C   0  0  0  0  0  0  0  0  0  0  0  0
   54.6230   24.3440   46.2270 N   0  0  0  0  0  0  0  0  0  0  0  0
   54.2900   23.5280   45.0990 C   0  0  0  0  0  0  0  0  0  0  0  0
   53.0860   23.3270   44.7870 O   0  0  0  0  0  0  0  0  0  0  0  0
   55.3590   22.8560   44.3510 C   0  0  0  0  0  0  0  0  0  0  0  0
   56.1510   23.4330   43.3740 C   0  0  0  0  0  0  0  0  0  0  0  0
   56.9950   22.4340   42.9450 C   0  0  0  0  0  0  0  0  0  0  0  0
   56.6670   21.3120   43.6800 C   0  0  0  0  0  0  0  0  0  0  0  0
   55.6880   21.5960   44.5100 O   0  0  0  0  0  0  0  0  0  0  0  0
   56.9010   24.6370   47.1310 C   0  0  0  0  0  0  0  0  0  0  0  0
   56.8000   23.3590   47.8810 C   0  0  0  0  0  0  0  0  0  0  0  0
   56.0490   22.2580   47.3650 N   0  0  0  0  0  0  0  0  0  0  0  0
   57.3900   23.2250   48.9840 O   0  0  0  0  0  0  0  0  0  0  0  0
   58.0770   25.4050   47.2260 C   0  0  0  0  0  0  0  0  0  0  0  0
   59.6520   28.0580   48.1040 C   0  0  0  0  0  0  0  0  0  0  0  0
   59.3650   29.5690   48.1720 C   0  0  0  0  0  0  0  0  0  0  0  0
   59.6691   34.5222   46.2933 H   0  0  0  0  0  0  0  0  0  0  0  0
   60.4680   34.1045   44.7397 H   0  0  0  0  0  0  0  0  0  0  0  0
   58.9550   35.0726   44.7397 H   0  0  0  0  0  0  0  0  0  0  0  0
   57.3167   33.4922   43.5552 H   0  0  0  0  0  0  0  0  0  0  0  0
   56.2336   31.1485   44.1833 H   0  0  0  0  0  0  0  0  0  0  0  0
   60.6605   32.3554   46.8607 H   0  0  0  0  0  0  0  0  0  0  0  0
   59.2942   32.0282   48.0280 H   0  0  0  0  0  0  0  0  0  0  0  0
   60.5168   30.4049   45.1352 H   0  0  0  0  0  0  0  0  0  0  0  0
   61.4857   29.1597   46.0413 H   0  0  0  0  0  0  0  0  0  0  0  0
   58.4790   29.0325   45.5197 H   0  0  0  0  0  0  0  0  0  0  0  0
   59.7477   28.1159   44.6260 H   0  0  0  0  0  0  0  0  0  0  0  0
   60.3268   26.8251   46.5173 H   0  0  0  0  0  0  0  0  0  0  0  0
   57.2118   28.0492   45.2419 H   0  0  0  0  0  0  0  0  0  0  0  0
   55.1169   26.7243   45.0729 H   0  0  0  0  0  0  0  0  0  0  0  0
   56.1139   24.4722   43.0154 H   0  0  0  0  0  0  0  0  0  0  0  0
   57.7739   22.5134   42.1723 H   0  0  0  0  0  0  0  0  0  0  0  0
   57.1517   20.3291   43.5853 H   0  0  0  0  0  0  0  0  0  0  0  0
   56.0210   21.3550   47.8890 H   0  0  0  0  0  0  0  0  0  0  0  0
   55.4610   22.3520   46.5110 H   0  0  0  0  0  0  0  0  0  0  0  0
   58.9078   25.0453   47.8509 H   0  0  0  0  0  0  0  0  0  0  0  0
   58.9683   27.5375   48.7907 H   0  0  0  0  0  0  0  0  0  0  0  0
   60.7036   27.9038   48.3875 H   0  0  0  0  0  0  0  0  0  0  0  0
   58.3068   29.7417   47.9261 H   0  0  0  0  0  0  0  0  0  0  0  0
   59.5964   29.9151   49.1902 H   0  0  0  0  0  0  0  0  0  0  0  0
  1  2  1  0
  2  3  1  0
  3  4  2  0
  4  5  1  0
  5  6  2  0
  6  7  1  0
  7  8  1  0
  8  9  1  0
  9 10  1  0
 10 11  1  0
 11 12  1  0
 12 13  2  0
 13 14  1  0
 14 15  2  0
 15 16  1  0
 16 17  1  0
 17 18  2  0
 17 19  1  0
 19 20  2  0
 20 21  1  0
 21 22  2  0
 22 23  1  0
 15 24  1  0
 24 25  1  0
 25 26  1  0
 25 27  2  0
 24 28  2  0
 11 29  1  0
 29 30  1  0
  6  2  1  0
 30  8  1  0
 28 12  1  0
 23 19  1  0
  1 31  1  0
  1 32  1  0
  1 33  1  0
  3 34  1  0
  4 35  1  0
  7 36  1  0
  7 37  1  0
  9 38  1  0
  9 39  1  0
 10 40  1  0
 10 41  1  0
 11 42  1  0
 13 43  1  0
 14 44  1  0
 20 45  1  0
 21 46  1  0
 22 47  1  0
 26 48  1  0
 26 49  1  0
 28 50  1  0
 29 51  1  0
 29 52  1  0
 30 53  1  0
 30 54  1  0
M  CHG  1  16  -1
M  END
>  <UniqueID>  (41) 
41

>  <SMILES>  (41) 
Cn1ccnc1CN1CCC(c2ccc([N-]C(=O)c3ccco3)c(C(N)=O)c2)CC1

>  <Energy>  (41) 
128.78794197480315

>  <Genealogy>  (41) 
Cn1ccnc1CN1CCC(c2ccc([N-]C(=O)c3ccco3)c(C(N)=O)c2)CC1 (protonated)
Cn1ccnc1CN1CCC(c2ccc([N-]C(=O)c3ccco3)c(C(N)=O)c2)CC1 (3D coordinates assigned)
Cn1ccnc1CN1CCC(c2ccc([N-]C(=O)c3ccco3)c(C(N)=O)c2)CC1 (nonaromatic ring conformer: 128.78794197480315 kcal/mol)

>  <smiles>  (41) 
Cn1ccnc1CN1CCC(c2ccc(NC(=O)c3ccco3)c(C(N)=O)c2)CC1

>  <score_type>  (41) 
oracle

>  <origin>  (41) 
adg

>  <m_score__min__energy>  (41) 
-10.529999999999999

>  <m_primary>  (41) 
energy

$$$$
41:0
     RDKit          3D

 58 61  0  0  0  0  0  0  0  0999 V2000
   55.5260   27.8270   45.1310 H   0  0  0  0  0  0  0  0  0  0  0  0
   55.9850   27.0880   45.7080 N   0  0  0  0  0  0  0  0  0  0  0  0
   55.3150   25.8630   45.9900 C   0  0  0  0  0  0  0  0  0  0  0  0
   54.1200   25.7100   45.6210 O   0  0  0  0  0  0  0  0  0  0  0  0
   56.0120   24.7980   46.7310 C   0  0  0  0  0  0  0  0  0  0  0  0
   55.4710   24.3230   47.7640 O   0  0  0  0  0  0  0  0  0  0  0  0
   57.3270   24.2790   46.2900 C   0  0  0  0  0  0  0  0  0  0  0  0
   57.4030   22.9370   45.8720 C   0  0  0  0  0  0  0  0  0  0  0  0
   56.5118   22.2958   45.9398 H   0  0  0  0  0  0  0  0  0  0  0  0
   58.5940   22.4100   45.3730 C   0  0  0  0  0  0  0  0  0  0  0  0
   58.6401   21.3566   45.0597 H   0  0  0  0  0  0  0  0  0  0  0  0
   59.7260   23.2170   45.2710 C   0  0  0  0  0  0  0  0  0  0  0  0
   60.6629   22.8020   44.8711 H   0  0  0  0  0  0  0  0  0  0  0  0
   59.6710   24.5510   45.6760 C   0  0  0  0  0  0  0  0  0  0  0  0
   60.5655   25.1839   45.5800 H   0  0  0  0  0  0  0  0  0  0  0  0
   58.4890   25.0980   46.2050 C   0  0  0  0  0  0  0  0  0  0  0  0
   58.5130   26.4790   46.6280 N   0  0  0  0  0  0  0  0  0  0  0  0
   58.1360   27.1810   45.9520 H   0  0  0  0  0  0  0  0  0  0  0  0
   59.3430   26.9760   47.6910 C   0  0  0  0  0  0  0  0  0  0  0  0
   60.2520   26.2420   48.1640 O   0  0  0  0  0  0  0  0  0  0  0  0
   59.2630   28.3710   48.1850 C   0  0  0  0  0  0  0  0  0  0  0  0
   58.3053   28.6616   48.6414 H   0  0  0  0  0  0  0  0  0  0  0  0
   60.2070   29.3290   48.1490 C   0  0  0  0  0  0  0  0  0  0  0  0
   61.2515   28.9840   48.1494 H   0  0  0  0  0  0  0  0  0  0  0  0
   60.0010   30.7910   48.1090 C   0  0  0  0  0  0  0  0  0  0  0  0
   60.1650   31.5370   49.3040 C   0  0  0  0  0  0  0  0  0  0  0  0
   60.4883   31.0255   50.2226 H   0  0  0  0  0  0  0  0  0  0  0  0
   59.9200   32.9220   49.3310 C   0  0  0  0  0  0  0  0  0  0  0  0
   60.0505   33.5036   50.2555 H   0  0  0  0  0  0  0  0  0  0  0  0
   59.5070   33.5330   48.1500 C   0  0  0  0  0  0  0  0  0  0  0  0
   59.3310   32.8180   46.9940 C   0  0  0  0  0  0  0  0  0  0  0  0
   59.5370   31.4400   46.9440 C   0  0  0  0  0  0  0  0  0  0  0  0
   59.3432   30.8733   46.0213 H   0  0  0  0  0  0  0  0  0  0  0  0
   58.9390   33.7200   46.0230 C   0  0  0  0  0  0  0  0  0  0  0  0
   58.6670   33.4450   44.5740 C   0  0  0  0  0  0  0  0  0  0  0  0
   58.4545   34.3950   44.0617 H   0  0  0  0  0  0  0  0  0  0  0  0
   59.5530   32.9605   44.1379 H   0  0  0  0  0  0  0  0  0  0  0  0
   57.4700   32.5090   44.4070 C   0  0  0  0  0  0  0  0  0  0  0  0
   57.1487   32.1456   45.3943 H   0  0  0  0  0  0  0  0  0  0  0  0
   56.6430   33.0545   43.9290 H   0  0  0  0  0  0  0  0  0  0  0  0
   57.8560   31.3560   43.5580 N   0  0  0  0  0  0  0  0  0  0  0  0
   58.5170   30.2760   44.3200 C   0  0  0  0  0  0  0  0  0  0  0  0
   59.0426   29.6156   43.6145 H   0  0  0  0  0  0  0  0  0  0  0  0
   59.2161   30.7432   45.0292 H   0  0  0  0  0  0  0  0  0  0  0  0
   57.5100   29.4330   45.1340 C   0  0  0  0  0  0  0  0  0  0  0  0
   57.5657   28.3886   44.7933 H   0  0  0  0  0  0  0  0  0  0  0  0
   57.7771   29.5227   46.1973 H   0  0  0  0  0  0  0  0  0  0  0  0
   56.1820   29.8910   44.9810 O   0  0  0  0  0  0  0  0  0  0  0  0
   55.8280   29.8740   43.6150 C   0  0  0  0  0  0  0  0  0  0  0  0
   55.9395   28.8493   43.2309 H   0  0  0  0  0  0  0  0  0  0  0  0
   54.7868   30.2178   43.5271 H   0  0  0  0  0  0  0  0  0  0  0  0
   56.7190   30.8210   42.7800 C   0  0  0  0  0  0  0  0  0  0  0  0
   57.1124   30.2655   41.9159 H   0  0  0  0  0  0  0  0  0  0  0  0
   56.0989   31.6726   42.4632 H   0  0  0  0  0  0  0  0  0  0  0  0
   58.8790   34.9570   46.6590 C   0  0  0  0  0  0  0  0  0  0  0  0
   58.5876   35.8997   46.1728 H   0  0  0  0  0  0  0  0  0  0  0  0
   59.2300   34.8350   47.9600 N   0  0  0  0  0  0  0  0  0  0  0  0
   59.2720   35.6000   48.6710 H   0  0  0  0  0  0  0  0  0  0  0  0
  1  2  1  0
  2  3  1  0
  3  4  2  0
  3  5  1  0
  5  6  2  0
  5  7  1  0
  7  8  2  0
  8  9  1  0
  8 10  1  0
 10 11  1  0
 10 12  2  0
 12 13  1  0
 12 14  1  0
 14 15  1  0
 14 16  2  0
 16 17  1  0
 17 18  1  0
 17 19  1  0
 19 20  2  0
 19 21  1  0
 21 22  1  0
 21 23  2  0
 23 24  1  0
 23 25  1  0
 25 26  2  0
 26 27  1  0
 26 28  1  0
 28 29  1  0
 28 30  2  0
 30 31  1  0
 31 32  2  0
 32 33  1  0
 31 34  1  0
 34 35  1  0
 35 36  1  0
 35 37  1  0
 35 38  1  0
 38 39  1  0
 38 40  1  0
 38 41  1  0
 41 42  1  0
 42 43  1  0
 42 44  1  0
 42 45  1  0
 45 46  1  0
 45 47  1  0
 45 48  1  0
 48 49  1  0
 49 50  1  0
 49 51  1  0
 49 52  1  0
 52 53  1  0
 52 54  1  0
 34 55  2  0
 55 56  1  0
 55 57  1  0
 57 58  1  0
 16  7  1  0
 32 25  1  0
 52 41  1  0
 57 30  1  0
M  CHG  1   2  -1
M  END
>  <UniqueID>  (42) 
42

>  <SMILES>  (42) 
[NH-]C(=O)C(=O)c1ccccc1NC(=O)/C=C\c1ccc2[nH]cc(CCN3CCOCC3)c2c1

>  <Energy>  (42) 
120.95318588296784

>  <Genealogy>  (42) 
[NH-]C(=O)C(=O)c1ccccc1NC(=O)C=Cc1ccc2[nH]cc(CCN3CCOCC3)c2c1 (protonated)
[NH-]C(=O)C(=O)c1ccccc1NC(=O)/C=C\c1ccc2[nH]cc(CCN3CCOCC3)c2c1 (cis-trans isomerization)
[NH-]C(=O)C(=O)c1ccccc1NC(=O)/C=C\c1ccc2[nH]cc(CCN3CCOCC3)c2c1 (3D coordinates assigned)
[NH-]C(=O)C(=O)c1ccccc1NC(=O)/C=C\c1ccc2[nH]cc(CCN3CCOCC3)c2c1 (nonaromatic ring conformer: 120.95318588296784 kcal/mol)

>  <smiles>  (42) 
NC(=O)C(=O)c1ccccc1NC(=O)C=Cc1ccc2[nH]cc(CCN3CCOCC3)c2c1

>  <score_type>  (42) 
oracle

>  <origin>  (42) 
adg

>  <m_score__min__energy>  (42) 
-12.710000000000001

>  <m_primary>  (42) 
energy

$$$$
42:0
     RDKit          3D

 52 55  0  0  0  0  0  0  0  0999 V2000
   61.3430   30.2660   46.6020 C   0  0  0  0  0  0  0  0  0  0  0  0
   60.3520   30.0870   47.4920 C   0  0  0  0  0  0  0  0  0  0  0  0
   59.2050   29.2930   47.3240 C   0  0  0  0  0  0  0  0  0  0  0  0
   58.7180   28.6490   46.2440 C   0  0  0  0  0  0  0  0  0  0  0  0
   57.5360   27.7720   46.2250 C   0  0  0  0  0  0  0  0  0  0  0  0
   57.5280   26.4890   46.6290 N   0  0  0  0  0  0  0  0  0  0  0  0
   56.2920   26.0630   46.2890 C   0  0  0  0  0  0  0  0  0  0  0  0
   55.8900   24.8940   46.5250 O   0  0  0  0  0  0  0  0  0  0  0  0
   55.5250   26.9850   45.6690 N   0  0  0  0  0  0  0  0  0  0  0  0
   56.3350   28.0570   45.6240 C   0  0  0  0  0  0  0  0  0  0  0  0
   55.9880   29.2700   45.0390 O   0  0  0  0  0  0  0  0  0  0  0  0
   58.5450   29.3060   48.5380 C   0  0  0  0  0  0  0  0  0  0  0  0
   59.2590   30.1340   49.3770 C   0  0  0  0  0  0  0  0  0  0  0  0
   58.7800   30.5620   50.7330 C   0  0  0  0  0  0  0  0  0  0  0  0
   60.3720   30.5950   48.7560 N   0  0  0  0  0  0  0  0  0  0  0  0
   61.3670   31.5100   49.3460 C   0  0  0  0  0  0  0  0  0  0  0  0
   62.0290   32.4150   48.3200 C   0  0  0  0  0  0  0  0  0  0  0  0
   63.3880   32.1920   48.0210 C   0  0  0  0  0  0  0  0  0  0  0  0
   64.0530   32.9790   47.0790 C   0  0  0  0  0  0  0  0  0  0  0  0
   63.3720   33.9930   46.4090 C   0  0  0  0  0  0  0  0  0  0  0  0
   62.0210   34.2170   46.6720 C   0  0  0  0  0  0  0  0  0  0  0  0
   61.3360   33.4320   47.6130 C   0  0  0  0  0  0  0  0  0  0  0  0
   59.9050   33.7060   47.8150 C   0  0  0  0  0  0  0  0  0  0  0  0
   59.5220   34.1580   48.9270 O   0  0  0  0  0  0  0  0  0  0  0  0
   58.9600   33.5330   46.7470 N   0  0  0  0  0  0  0  0  0  0  0  0
   59.2780   33.8140   45.3580 C   0  0  0  0  0  0  0  0  0  0  0  0
   57.9670   33.6670   44.5990 C   0  0  0  0  0  0  0  0  0  0  0  0
   57.0340   32.8740   45.5250 C   0  0  1  0  0  0  0  0  0  0  0  0
   56.9830   31.5180   45.1480 O   0  0  0  0  0  0  0  0  0  0  0  0
   57.6080   33.0330   46.9330 C   0  0  0  0  0  0  0  0  0  0  0  0
   62.1947   30.9162   46.8506 H   0  0  0  0  0  0  0  0  0  0  0  0
   61.3024   29.7623   45.6250 H   0  0  0  0  0  0  0  0  0  0  0  0
   59.2514   28.7917   45.2927 H   0  0  0  0  0  0  0  0  0  0  0  0
   55.7670   30.0750   45.6130 H   0  0  0  0  0  0  0  0  0  0  0  0
   57.6239   28.7589   48.7875 H   0  0  0  0  0  0  0  0  0  0  0  0
   59.3618   30.0421   51.5084 H   0  0  0  0  0  0  0  0  0  0  0  0
   58.9119   31.6486   50.8424 H   0  0  0  0  0  0  0  0  0  0  0  0
   57.7151   30.3091   50.8424 H   0  0  0  0  0  0  0  0  0  0  0  0
   60.8630   32.1394   50.0942 H   0  0  0  0  0  0  0  0  0  0  0  0
   62.1574   30.8896   49.7937 H   0  0  0  0  0  0  0  0  0  0  0  0
   63.9321   31.3870   48.5368 H   0  0  0  0  0  0  0  0  0  0  0  0
   65.1168   32.7981   46.8654 H   0  0  0  0  0  0  0  0  0  0  0  0
   63.8999   34.6168   45.6727 H   0  0  0  0  0  0  0  0  0  0  0  0
   61.4870   35.0162   46.1372 H   0  0  0  0  0  0  0  0  0  0  0  0
   59.6695   34.8366   45.2532 H   0  0  0  0  0  0  0  0  0  0  0  0
   60.0501   33.1323   44.9717 H   0  0  0  0  0  0  0  0  0  0  0  0
   57.5386   34.6561   44.3794 H   0  0  0  0  0  0  0  0  0  0  0  0
   58.1120   33.1555   43.6360 H   0  0  0  0  0  0  0  0  0  0  0  0
   56.0008   33.2474   45.4703 H   0  0  0  0  0  0  0  0  0  0  0  0
   57.0090   30.9710   45.9770 H   0  0  0  0  0  0  0  0  0  0  0  0
   57.0093   33.7503   47.5135 H   0  0  0  0  0  0  0  0  0  0  0  0
   57.5969   32.0833   47.4879 H   0  0  0  0  0  0  0  0  0  0  0  0
  1  2  2  0
  2  3  1  0
  3  4  2  3
  4  5  1  0
  5  6  1  0
  6  7  1  0
  7  8  2  0
  7  9  1  0
  9 10  1  0
 10 11  1  0
  3 12  1  0
 12 13  2  0
 13 14  1  0
 13 15  1  0
 15 16  1  0
 16 17  1  0
 17 18  2  0
 18 19  1  0
 19 20  2  0
 20 21  1  0
 21 22  2  0
 22 23  1  0
 23 24  2  0
 23 25  1  0
 25 26  1  0
 26 27  1  0
 27 28  1  0
 28 29  1  0
 28 30  1  0
 15  2  1  0
 22 17  1  0
 30 25  1  0
 10  5  2  0
  1 31  1  0
  1 32  1  0
  4 33  1  0
 11 34  1  0
 12 35  1  0
 14 36  1  0
 14 37  1  0
 14 38  1  0
 16 39  1  0
 16 40  1  0
 18 41  1  0
 19 42  1  0
 20 43  1  0
 21 44  1  0
 26 45  1  0
 26 46  1  0
 27 47  1  0
 27 48  1  0
 28 49  1  1
 29 50  1  0
 30 51  1  0
 30 52  1  0
M  CHG  2   6  -1   9  -1
M  END
>  <UniqueID>  (43) 
43

>  <SMILES>  (43) 
C=c1c(=Cc2[n-]c(=O)[n-]c2O)cc(C)n1Cc1ccccc1C(=O)N1CC[C@@H](O)C1

>  <Energy>  (43) 
130.90394011067434

>  <Genealogy>  (43) 
C=c1c(=Cc2[n-]c(=O)[n-]c2O)cc(C)n1Cc1ccccc1C(=O)N1CCC(O)C1 (protonated)
C=c1c(=Cc2[n-]c(=O)[n-]c2O)cc(C)n1Cc1ccccc1C(=O)N1CC[C@@H](O)C1 (chirality)
C=c1c(=Cc2[n-]c(=O)[n-]c2O)cc(C)n1Cc1ccccc1C(=O)N1CC[C@@H](O)C1 (3D coordinates assigned)
C=c1c(=Cc2[n-]c(=O)[n-]c2O)cc(C)n1Cc1ccccc1C(=O)N1CC[C@@H](O)C1 (nonaromatic ring conformer: 130.90394011067434 kcal/mol)

>  <smiles>  (43) 
C=c1c(=Cc2[nH]c(=O)[nH]c2O)cc(C)n1Cc1ccccc1C(=O)N1CCC(O)C1

>  <score_type>  (43) 
oracle

>  <origin>  (43) 
adg

>  <m_score__min__energy>  (43) 
-13.890000000000001

>  <m_primary>  (43) 
energy

$$$$
43:0
     RDKit          3D

 62 65  0  0  0  0  0  0  0  0999 V2000
   56.9820   24.3750   43.2370 C   0  0  0  0  0  0  0  0  0  0  0  0
   56.2270   24.0030   44.4870 C   0  0  0  0  0  0  0  0  0  0  0  0
   54.8490   23.7370   44.4130 C   0  0  0  0  0  0  0  0  0  0  0  0
   54.1350   23.3880   45.5560 C   0  0  0  0  0  0  0  0  0  0  0  0
   54.7790   23.3220   46.7920 C   0  0  0  0  0  0  0  0  0  0  0  0
   56.1490   23.6140   46.9000 C   0  0  0  0  0  0  0  0  0  0  0  0
   56.7790   23.5960   48.2670 C   0  0  0  0  0  0  0  0  0  0  0  0
   56.8910   23.9180   45.7300 C   0  0  0  0  0  0  0  0  0  0  0  0
   58.3090   24.1560   45.7800 N   0  0  0  0  0  0  0  0  0  0  0  0
   58.9180   25.4410   45.9730 C   0  0  0  0  0  0  0  0  0  0  0  0
   59.9850   25.5130   46.6360 O   0  0  0  0  0  0  0  0  0  0  0  0
   58.3080   26.6780   45.4360 C   0  0  0  0  0  0  0  0  0  0  0  0
   58.8400   27.3020   44.2980 C   0  0  0  0  0  0  0  0  0  0  0  0
   58.2930   28.4960   43.8260 C   0  0  0  0  0  0  0  0  0  0  0  0
   57.2010   29.0840   44.4810 C   0  0  0  0  0  0  0  0  0  0  0  0
   56.6660   30.4050   43.9980 C   0  0  0  0  0  0  0  0  0  0  0  0
   57.2620   31.5110   44.7740 N   0  0  0  0  0  0  0  0  0  0  0  0
   58.2210   30.9980   45.7670 C   0  0  0  0  0  0  0  0  0  0  0  0
   58.7580   32.1450   46.6480 C   0  0  0  0  0  0  0  0  0  0  0  0
   58.3200   33.4690   46.1470 N   0  0  0  0  0  0  0  0  0  0  0  0
   58.9540   34.5610   46.9110 C   0  0  0  0  0  0  0  0  0  0  0  0
   60.2500   34.0900   47.5160 C   0  0  0  0  0  0  0  0  0  0  0  0
   60.3670   33.8990   48.9020 C   0  0  0  0  0  0  0  0  0  0  0  0
   61.5900   33.5100   49.4600 C   0  0  0  0  0  0  0  0  0  0  0  0
   62.7030   33.3050   48.6370 C   0  0  0  0  0  0  0  0  0  0  0  0
   62.5980   33.4960   47.2530 C   0  0  0  0  0  0  0  0  0  0  0  0
   63.7000   33.3020   46.4250 O   0  0  0  0  0  0  0  0  0  0  0  0
   61.3770   33.8940   46.6960 C   0  0  0  0  0  0  0  0  0  0  0  0
   58.6360   33.5930   44.7100 C   0  0  0  0  0  0  0  0  0  0  0  0
   57.9330   32.4890   43.8910 C   0  0  0  0  0  0  0  0  0  0  0  0
   56.6460   28.4470   45.5990 C   0  0  0  0  0  0  0  0  0  0  0  0
   57.1870   27.2450   46.0670 C   0  0  0  0  0  0  0  0  0  0  0  0
   57.9374   24.8457   43.5121 H   0  0  0  0  0  0  0  0  0  0  0  0
   57.1768   23.4697   42.6432 H   0  0  0  0  0  0  0  0  0  0  0  0
   56.3829   25.0811   42.6432 H   0  0  0  0  0  0  0  0  0  0  0  0
   54.3309   23.8050   43.4450 H   0  0  0  0  0  0  0  0  0  0  0  0
   53.0605   23.1637   45.4845 H   0  0  0  0  0  0  0  0  0  0  0  0
   54.2093   23.0390   47.6894 H   0  0  0  0  0  0  0  0  0  0  0  0
   55.9910   23.6185   49.0342 H   0  0  0  0  0  0  0  0  0  0  0  0
   57.3775   22.6804   48.3829 H   0  0  0  0  0  0  0  0  0  0  0  0
   57.4288   24.4759   48.3829 H   0  0  0  0  0  0  0  0  0  0  0  0
   59.6938   26.8473   43.7742 H   0  0  0  0  0  0  0  0  0  0  0  0
   58.7208   28.9788   42.9350 H   0  0  0  0  0  0  0  0  0  0  0  0
   56.9162   30.5313   42.9343 H   0  0  0  0  0  0  0  0  0  0  0  0
   55.5742   30.4205   44.1314 H   0  0  0  0  0  0  0  0  0  0  0  0
   57.7181   30.2569   46.4057 H   0  0  0  0  0  0  0  0  0  0  0  0
   59.0655   30.5336   45.2367 H   0  0  0  0  0  0  0  0  0  0  0  0
   58.3859   32.0109   47.6744 H   0  0  0  0  0  0  0  0  0  0  0  0
   59.8572   32.1136   46.6212 H   0  0  0  0  0  0  0  0  0  0  0  0
   59.1542   35.4070   46.2371 H   0  0  0  0  0  0  0  0  0  0  0  0
   58.2752   34.8750   47.7176 H   0  0  0  0  0  0  0  0  0  0  0  0
   59.4936   34.0558   49.5521 H   0  0  0  0  0  0  0  0  0  0  0  0
   61.6765   33.3652   50.5470 H   0  0  0  0  0  0  0  0  0  0  0  0
   63.6617   32.9935   49.0773 H   0  0  0  0  0  0  0  0  0  0  0  0
   64.5160   32.7930   46.7420 H   0  0  0  0  0  0  0  0  0  0  0  0
   61.2978   34.0546   45.6107 H   0  0  0  0  0  0  0  0  0  0  0  0
   58.2989   34.5767   44.3512 H   0  0  0  0  0  0  0  0  0  0  0  0
   59.7231   33.4869   44.5801 H   0  0  0  0  0  0  0  0  0  0  0  0
   57.1824   32.9529   43.2342 H   0  0  0  0  0  0  0  0  0  0  0  0
   58.6930   31.9583   43.2988 H   0  0  0  0  0  0  0  0  0  0  0  0
   55.7811   28.8942   46.1108 H   0  0  0  0  0  0  0  0  0  0  0  0
   56.7331   26.7410   46.9330 H   0  0  0  0  0  0  0  0  0  0  0  0
  1  2  1  0
  2  3  2  0
  3  4  1  0
  4  5  2  0
  5  6  1  0
  6  7  1  0
  6  8  2  0
  8  9  1  0
  9 10  1  0
 10 11  2  0
 10 12  1  0
 12 13  2  0
 13 14  1  0
 14 15  2  0
 15 16  1  0
 16 17  1  0
 17 18  1  0
 18 19  1  0
 19 20  1  0
 20 21  1  0
 21 22  1  0
 22 23  2  0
 23 24  1  0
 24 25  2  0
 25 26  1  0
 26 27  1  0
 26 28  2  0
 20 29  1  0
 29 30  1  0
 15 31  1  0
 31 32  2  0
  8  2  1  0
 32 12  1  0
 30 17  1  0
 28 22  1  0
  1 33  1  0
  1 34  1  0
  1 35  1  0
  3 36  1  0
  4 37  1  0
  5 38  1  0
  7 39  1  0
  7 40  1  0
  7 41  1  0
 13 42  1  0
 14 43  1  0
 16 44  1  0
 16 45  1  0
 18 46  1  0
 18 47  1  0
 19 48  1  0
 19 49  1  0
 21 50  1  0
 21 51  1  0
 23 52  1  0
 24 53  1  0
 25 54  1  0
 27 55  1  0
 28 56  1  0
 29 57  1  0
 29 58  1  0
 30 59  1  0
 30 60  1  0
 31 61  1  0
 32 62  1  0
M  CHG  1   9  -1
M  END
>  <UniqueID>  (44) 
44

>  <SMILES>  (44) 
Cc1cccc(C)c1[N-]C(=O)c1ccc(CN2CCN(Cc3cccc(O)c3)CC2)cc1

>  <Energy>  (44) 
81.84295173678841

>  <Genealogy>  (44) 
Cc1cccc(C)c1[N-]C(=O)c1ccc(CN2CCN(Cc3cccc(O)c3)CC2)cc1 (protonated)
Cc1cccc(C)c1[N-]C(=O)c1ccc(CN2CCN(Cc3cccc(O)c3)CC2)cc1 (3D coordinates assigned)
Cc1cccc(C)c1[N-]C(=O)c1ccc(CN2CCN(Cc3cccc(O)c3)CC2)cc1 (nonaromatic ring conformer: 81.84295173678841 kcal/mol)

>  <smiles>  (44) 
Cc1cccc(C)c1NC(=O)c1ccc(CN2CCN(Cc3cccc(O)c3)CC2)cc1

>  <score_type>  (44) 
oracle

>  <origin>  (44) 
adg

>  <m_score__min__energy>  (44) 
-10.81

>  <m_primary>  (44) 
energy

$$$$
44:0
     RDKit          3D

 51 54  0  0  0  0  0  0  0  0999 V2000
   55.8930   27.8220   44.5090 H   0  0  0  0  0  0  0  0  0  0  0  0
   55.8690   28.7050   45.0030 O   0  0  0  0  0  0  0  0  0  0  0  0
   57.0170   29.3180   45.5090 C   0  0  0  0  0  0  0  0  0  0  0  0
   57.1840   30.6460   45.3130 N   0  0  0  0  0  0  0  0  0  0  0  0
   58.2690   31.3150   45.7860 C   0  0  0  0  0  0  0  0  0  0  0  0
   58.3920   32.6970   45.5430 C   0  0  0  0  0  0  0  0  0  0  0  0
   57.3480   33.4420   44.7540 C   0  0  0  0  0  0  0  0  0  0  0  0
   56.6515   33.9391   45.4452 H   0  0  0  0  0  0  0  0  0  0  0  0
   57.8367   34.1967   44.1202 H   0  0  0  0  0  0  0  0  0  0  0  0
   56.7932   32.7345   44.1202 H   0  0  0  0  0  0  0  0  0  0  0  0
   59.5170   33.3730   46.0260 C   0  0  0  0  0  0  0  0  0  0  0  0
   59.6352   34.4502   45.8373 H   0  0  0  0  0  0  0  0  0  0  0  0
   60.4860   32.6820   46.7450 C   0  0  0  0  0  0  0  0  0  0  0  0
   61.3697   33.2114   47.1307 H   0  0  0  0  0  0  0  0  0  0  0  0
   60.3330   31.3160   46.9750 C   0  0  0  0  0  0  0  0  0  0  0  0
   61.1008   30.7720   47.5447 H   0  0  0  0  0  0  0  0  0  0  0  0
   59.2370   30.6410   46.5000 N   0  0  0  0  0  0  0  0  0  0  0  0
   59.1000   29.2920   46.7240 C   0  0  0  0  0  0  0  0  0  0  0  0
   59.9740   28.6570   47.3810 O   0  0  0  0  0  0  0  0  0  0  0  0
   57.9940   28.5960   46.2100 C   0  0  0  0  0  0  0  0  0  0  0  0
   57.8750   27.1380   46.4240 C   0  0  0  0  0  0  0  0  0  0  0  0
   58.3849   26.6944   47.2919 H   0  0  0  0  0  0  0  0  0  0  0  0
   57.1720   26.3230   45.6080 C   0  0  0  0  0  0  0  0  0  0  0  0
   55.8600   25.7880   46.0570 C   0  0  0  0  0  0  0  0  0  0  0  0
   54.7910   26.3230   45.6550 O   0  0  0  0  0  0  0  0  0  0  0  0
   55.7950   24.6450   46.9200 N   0  0  0  0  0  0  0  0  0  0  0  0
   55.4520   23.3050   46.4580 C   0  0  0  0  0  0  0  0  0  0  0  0
   56.0783   23.0471   45.5913 H   0  0  0  0  0  0  0  0  0  0  0  0
   55.6275   22.5864   47.2721 H   0  0  0  0  0  0  0  0  0  0  0  0
   54.0020   23.2540   46.0580 C   0  0  0  0  0  0  0  0  0  0  0  0
   53.5850   23.8490   44.8550 C   0  0  0  0  0  0  0  0  0  0  0  0
   54.3240   24.3248   44.1936 H   0  0  0  0  0  0  0  0  0  0  0  0
   52.2330   23.8380   44.4960 C   0  0  0  0  0  0  0  0  0  0  0  0
   51.9116   24.3023   43.5520 H   0  0  0  0  0  0  0  0  0  0  0  0
   51.2900   23.2380   45.3350 C   0  0  0  0  0  0  0  0  0  0  0  0
   50.2273   23.2301   45.0510 H   0  0  0  0  0  0  0  0  0  0  0  0
   51.6970   22.6480   46.5350 C   0  0  0  0  0  0  0  0  0  0  0  0
   50.9536   22.1764   47.1946 H   0  0  0  0  0  0  0  0  0  0  0  0
   53.0480   22.6560   46.8990 C   0  0  0  0  0  0  0  0  0  0  0  0
   53.3641   22.1932   47.8455 H   0  0  0  0  0  0  0  0  0  0  0  0
   57.7480   25.8370   44.2920 C   0  0  0  0  0  0  0  0  0  0  0  0
   57.1964   26.3017   43.4614 H   0  0  0  0  0  0  0  0  0  0  0  0
   58.8109   26.1161   44.2433 H   0  0  0  0  0  0  0  0  0  0  0  0
   57.6320   24.3470   44.1890 C   0  0  0  0  0  0  0  0  0  0  0  0
   56.5490   23.5200   43.2020 S   0  0  0  0  0  0  0  0  0  0  0  0
   56.9940   21.9760   43.6980 C   0  0  0  0  0  0  0  0  0  0  0  0
   56.5633   21.0327   43.3310 H   0  0  0  0  0  0  0  0  0  0  0  0
   57.9980   22.0950   44.6500 C   0  0  0  0  0  0  0  0  0  0  0  0
   58.4659   21.2295   45.1420 H   0  0  0  0  0  0  0  0  0  0  0  0
   58.3590   23.4190   44.9250 C   0  0  0  0  0  0  0  0  0  0  0  0
   59.1386   23.6967   45.6497 H   0  0  0  0  0  0  0  0  0  0  0  0
  1  2  1  0
  2  3  1  0
  3  4  1  0
  4  5  2  0
  5  6  1  0
  6  7  1  0
  7  8  1  0
  7  9  1  0
  7 10  1  0
  6 11  2  0
 11 12  1  0
 11 13  1  0
 13 14  1  0
 13 15  2  0
 15 16  1  0
 15 17  1  0
 17 18  1  0
 18 19  2  0
 18 20  1  0
 20 21  1  0
 21 22  1  0
 21 23  2  0
 23 24  1  0
 24 25  2  0
 24 26  1  0
 26 27  1  0
 27 28  1  0
 27 29  1  0
 27 30  1  0
 30 31  2  0
 31 32  1  0
 31 33  1  0
 33 34  1  0
 33 35  2  0
 35 36  1  0
 35 37  1  0
 37 38  1  0
 37 39  2  0
 39 40  1  0
 23 41  1  0
 41 42  1  0
 41 43  1  0
 41 44  1  0
 44 45  1  0
 45 46  1  0
 46 47  1  0
 46 48  2  0
 48 49  1  0
 48 50  1  0
 50 51  1  0
 20  3  2  0
 39 30  1  0
 50 44  2  0
 17  5  1  0
M  CHG  1  26  -1
M  END
>  <UniqueID>  (45) 
45

>  <SMILES>  (45) 
Cc1cccn2c(=O)c(/C=C(\Cc3cccs3)C(=O)[N-]Cc3ccccc3)c(O)nc12

>  <Energy>  (45) 
90.64875074119013

>  <Genealogy>  (45) 
Cc1cccn2c(=O)c(C=C(Cc3cccs3)C(=O)[N-]Cc3ccccc3)c(O)nc12 (protonated)
Cc1cccn2c(=O)c(/C=C(\Cc3cccs3)C(=O)[N-]Cc3ccccc3)c(O)nc12 (cis-trans isomerization)
Cc1cccn2c(=O)c(/C=C(\Cc3cccs3)C(=O)[N-]Cc3ccccc3)c(O)nc12 (3D coordinates assigned)
Cc1cccn2c(=O)c(/C=C(\Cc3cccs3)C(=O)[N-]Cc3ccccc3)c(O)nc12 (optimized conformer: 90.64875074119013 kcal/mol)

>  <smiles>  (45) 
Cc1cccn2c(=O)c(C=C(Cc3cccs3)C(=O)NCc3ccccc3)c(O)nc12

>  <score_type>  (45) 
oracle

>  <origin>  (45) 
adg

>  <m_score__min__energy>  (45) 
-11.85

>  <m_primary>  (45) 
energy

$$$$
45:0
     RDKit          3D

 72 76  0  0  0  0  0  0  0  0999 V2000
   62.7550   33.5770   51.2080 O   0  0  0  0  0  0  0  0  0  0  0  0
   62.8590   32.9000   50.1460 C   0  0  0  0  0  0  0  0  0  0  0  0
   64.1260   32.1040   49.9150 C   0  0  1  0  0  0  0  0  0  0  0  0
   65.2630   33.0000   49.4210 C   0  0  0  0  0  0  0  0  0  0  0  0
   66.1550   33.2460   50.6360 C   0  0  0  0  0  0  0  0  0  0  0  0
   65.8640   32.1090   51.6040 C   0  0  0  0  0  0  0  0  0  0  0  0
   64.6060   31.5240   51.1620 N   0  0  0  0  0  0  0  0  0  0  0  0
   63.9560   30.4140   51.8110 C   0  0  0  0  0  0  0  0  0  0  0  0
   64.4990   29.2760   51.7700 O   0  0  0  0  0  0  0  0  0  0  0  0
   62.6770   30.6060   52.5960 C   0  0  0  0  0  0  0  0  0  0  0  0
   61.6130   29.5280   52.3190 C   0  0  0  0  0  0  0  0  0  0  0  0
   60.3140   30.1160   51.7430 C   0  0  0  0  0  0  0  0  0  0  0  0
   60.0580   29.5730   50.3620 C   0  0  0  0  0  0  0  0  0  0  0  0
   59.3590   30.3400   49.4160 C   0  0  0  0  0  0  0  0  0  0  0  0
   59.1550   29.8490   48.1240 C   0  0  0  0  0  0  0  0  0  0  0  0
   59.6530   28.5900   47.7570 C   0  0  0  0  0  0  0  0  0  0  0  0
   59.4630   28.0830   46.3520 C   0  0  0  0  0  0  0  0  0  0  0  0
   58.2020   28.6540   45.7530 C   0  0  0  0  0  0  0  0  0  0  0  0
   57.0200   27.9020   45.7420 C   0  0  0  0  0  0  0  0  0  0  0  0
   55.8770   28.4310   45.2340 N   0  0  0  0  0  0  0  0  0  0  0  0
   55.8540   29.6940   44.7380 C   0  0  0  0  0  0  0  0  0  0  0  0
   54.7840   30.1660   44.2740 O   0  0  0  0  0  0  0  0  0  0  0  0
   56.9820   30.4500   44.7450 N   0  0  0  0  0  0  0  0  0  0  0  0
   58.1510   29.9630   45.2410 C   0  0  0  0  0  0  0  0  0  0  0  0
   59.1780   30.6930   45.2320 O   0  0  0  0  0  0  0  0  0  0  0  0
   60.3710   27.8320   48.6960 C   0  0  0  0  0  0  0  0  0  0  0  0
   60.5700   28.3200   49.9900 C   0  0  0  0  0  0  0  0  0  0  0  0
   61.7920   32.9290   49.1700 N   0  0  0  0  0  0  0  0  0  0  0  0
   60.4690   33.4640   49.5230 C   0  0  0  0  0  0  0  0  0  0  0  0
   59.9390   34.4170   48.4270 C   0  0  0  0  0  0  0  0  0  0  0  0
   60.5090   34.1510   47.0810 N   0  0  0  0  0  0  0  0  0  0  0  0
   59.5960   34.5970   46.0470 C   0  0  0  0  0  0  0  0  0  0  0  0
   59.6440   35.7530   45.6370 O   0  0  0  0  0  0  0  0  0  0  0  0
   58.5990   33.6300   45.4580 C   0  0  0  0  0  0  0  0  0  0  0  0
   57.3450   33.4450   46.3040 C   0  0  0  0  0  0  0  0  0  0  0  0
   57.2700   34.2220   44.9980 C   0  0  0  0  0  0  0  0  0  0  0  0
   60.8410   32.7250   46.8870 C   0  0  0  0  0  0  0  0  0  0  0  0
   61.9730   32.3190   47.8400 C   0  0  0  0  0  0  0  0  0  0  0  0
   63.8708   31.3326   49.1735 H   0  0  0  0  0  0  0  0  0  0  0  0
   65.8303   32.4956   48.6249 H   0  0  0  0  0  0  0  0  0  0  0  0
   64.8828   33.9423   48.9998 H   0  0  0  0  0  0  0  0  0  0  0  0
   67.2147   33.2356   50.3411 H   0  0  0  0  0  0  0  0  0  0  0  0
   65.9542   34.2264   51.0925 H   0  0  0  0  0  0  0  0  0  0  0  0
   66.6685   31.3597   51.5678 H   0  0  0  0  0  0  0  0  0  0  0  0
   65.8013   32.4671   52.6422 H   0  0  0  0  0  0  0  0  0  0  0  0
   62.9213   30.5854   53.6683 H   0  0  0  0  0  0  0  0  0  0  0  0
   62.2484   31.5690   52.2816 H   0  0  0  0  0  0  0  0  0  0  0  0
   62.0228   28.8050   51.5983 H   0  0  0  0  0  0  0  0  0  0  0  0
   61.3661   29.0483   53.2776 H   0  0  0  0  0  0  0  0  0  0  0  0
   59.4729   29.8481   52.3993 H   0  0  0  0  0  0  0  0  0  0  0  0
   60.4138   31.2098   51.6830 H   0  0  0  0  0  0  0  0  0  0  0  0
   58.9706   31.3311   49.6932 H   0  0  0  0  0  0  0  0  0  0  0  0
   58.6008   30.4530   47.3905 H   0  0  0  0  0  0  0  0  0  0  0  0
   60.3246   28.3845   45.7382 H   0  0  0  0  0  0  0  0  0  0  0  0
   59.3816   26.9863   46.3764 H   0  0  0  0  0  0  0  0  0  0  0  0
   57.0177   26.8790   46.1464 H   0  0  0  0  0  0  0  0  0  0  0  0
   60.7782   26.8505   48.4118 H   0  0  0  0  0  0  0  0  0  0  0  0
   61.1308   27.7192   50.7211 H   0  0  0  0  0  0  0  0  0  0  0  0
   59.7643   32.6278   49.6424 H   0  0  0  0  0  0  0  0  0  0  0  0
   60.5622   34.0307   50.4612 H   0  0  0  0  0  0  0  0  0  0  0  0
   58.8460   34.3073   48.3697 H   0  0  0  0  0  0  0  0  0  0  0  0
   60.2430   35.4354   48.7105 H   0  0  0  0  0  0  0  0  0  0  0  0
   61.3970   34.7010   46.9930 H   0  0  0  0  0  0  0  0  0  0  0  0
   59.3473   32.9725   44.9914 H   0  0  0  0  0  0  0  0  0  0  0  0
   56.8755   32.4532   46.3812 H   0  0  0  0  0  0  0  0  0  0  0  0
   57.0751   33.6548   47.3495 H   0  0  0  0  0  0  0  0  0  0  0  0
   56.7469   33.7917   44.1313 H   0  0  0  0  0  0  0  0  0  0  0  0
   56.9241   35.2253   44.7087 H   0  0  0  0  0  0  0  0  0  0  0  0
   59.9517   32.1118   47.0946 H   0  0  0  0  0  0  0  0  0  0  0  0
   61.1671   32.5667   45.8484 H   0  0  0  0  0  0  0  0  0  0  0  0
   61.9789   31.2240   47.9448 H   0  0  0  0  0  0  0  0  0  0  0  0
   62.9264   32.6726   47.4204 H   0  0  0  0  0  0  0  0  0  0  0  0
  1  2  2  0
  2  3  1  0
  3  4  1  0
  4  5  1  0
  5  6  1  0
  6  7  1  0
  7  8  1  0
  8  9  2  0
  8 10  1  0
 10 11  1  0
 11 12  1  0
 12 13  1  0
 13 14  2  0
 14 15  1  0
 15 16  2  0
 16 17  1  0
 17 18  1  0
 18 19  2  0
 19 20  1  0
 20 21  1  0
 21 22  2  0
 21 23  1  0
 23 24  1  0
 24 25  2  0
 16 26  1  0
 26 27  2  0
  2 28  1  0
 28 29  1  0
 29 30  1  0
 30 31  1  0
 31 32  1  0
 32 33  2  0
 32 34  1  0
 34 35  1  0
 35 36  1  0
 31 37  1  0
 37 38  1  0
  7  3  1  0
 27 13  1  0
 38 28  1  0
 24 18  1  0
 36 34  1  0
  3 39  1  6
  4 40  1  0
  4 41  1  0
  5 42  1  0
  5 43  1  0
  6 44  1  0
  6 45  1  0
 10 46  1  0
 10 47  1  0
 11 48  1  0
 11 49  1  0
 12 50  1  0
 12 51  1  0
 14 52  1  0
 15 53  1  0
 17 54  1  0
 17 55  1  0
 19 56  1  0
 26 57  1  0
 27 58  1  0
 29 59  1  0
 29 60  1  0
 30 61  1  0
 30 62  1  0
 31 63  1  0
 34 64  1  0
 35 65  1  0
 35 66  1  0
 36 67  1  0
 36 68  1  0
 37 69  1  0
 37 70  1  0
 38 71  1  0
 38 72  1  0
M  CHG  3  20  -1  23  -1  31   1
M  END
>  <UniqueID>  (46) 
46

>  <SMILES>  (46) 
O=C([C@H]1CCCN1C(=O)CCCc1ccc(Cc2c[n-]c(=O)[n-]c2=O)cc1)N1CC[NH+](C(=O)C2CC2)CC1

>  <Energy>  (46) 
343.6882461762158

>  <Genealogy>  (46) 
O=C(C1CCCN1C(=O)CCCc1ccc(Cc2c[n-]c(=O)[n-]c2=O)cc1)N1CC[NH+](C(=O)C2CC2)CC1 (protonated)
O=C([C@H]1CCCN1C(=O)CCCc1ccc(Cc2c[n-]c(=O)[n-]c2=O)cc1)N1CC[NH+](C(=O)C2CC2)CC1 (chirality)
O=C([C@H]1CCCN1C(=O)CCCc1ccc(Cc2c[n-]c(=O)[n-]c2=O)cc1)N1CC[NH+](C(=O)C2CC2)CC1 (3D coordinates assigned)
O=C([C@H]1CCCN1C(=O)CCCc1ccc(Cc2c[n-]c(=O)[n-]c2=O)cc1)N1CC[NH+](C(=O)C2CC2)CC1 (nonaromatic ring conformer: 343.6882461762158 kcal/mol)

>  <smiles>  (46) 
O=C(C1CC1)N1CCN(C(=O)C2CCCN2C(=O)CCCc2ccc(Cc3c[nH]c(=O)[nH]c3=O)cc2)CC1

>  <score_type>  (46) 
oracle

>  <origin>  (46) 
adg

>  <m_score__min__energy>  (46) 
-13.289999999999999

>  <m_primary>  (46) 
energy

$$$$
46:0
     RDKit          3D

 49 51  0  0  0  0  0  0  0  0999 V2000
   55.9730   29.7480   42.6380 C   0  0  0  0  0  0  0  0  0  0  0  0
   56.1100   30.0440   44.1060 C   0  0  0  0  0  0  0  0  0  0  0  0
   55.2610   29.5770   44.9150 O   0  0  0  0  0  0  0  0  0  0  0  0
   57.2200   30.8750   44.6110 C   0  0  0  0  0  0  0  0  0  0  0  0
   58.5550   30.5010   44.6750 C   0  0  0  0  0  0  0  0  0  0  0  0
   59.2880   31.5020   45.1990 N   0  0  0  0  0  0  0  0  0  0  0  0
   58.4270   32.5100   45.4820 C   0  0  0  0  0  0  0  0  0  0  0  0
   58.8290   33.8620   45.9280 C   0  0  0  0  0  0  0  0  0  0  0  0
   58.4170   34.8470   45.2530 O   0  0  0  0  0  0  0  0  0  0  0  0
   59.5860   34.1130   47.1450 N   0  0  0  0  0  0  0  0  0  0  0  0
   59.0160   33.3940   48.3080 C   0  0  0  0  0  0  0  0  0  0  0  0
   59.3340   31.8800   48.3110 C   0  0  0  0  0  0  0  0  0  0  0  0
   60.4610   31.5170   47.4220 N   0  0  0  0  0  0  0  0  0  0  0  0
   60.9700   30.1670   47.7740 C   0  0  0  0  0  0  0  0  0  0  0  0
   60.0060   29.0990   47.3230 C   0  0  0  0  0  0  0  0  0  0  0  0
   60.2200   28.3950   46.1240 C   0  0  0  0  0  0  0  0  0  0  0  0
   59.3130   27.4110   45.7070 C   0  0  0  0  0  0  0  0  0  0  0  0
   58.1870   27.1160   46.4890 C   0  0  0  0  0  0  0  0  0  0  0  0
   57.0360   25.8920   45.9510 S   0  0  0  0  0  0  0  0  0  0  0  0
   55.4350   26.5440   46.0040 N   0  0  0  0  0  0  0  0  0  0  0  0
   57.3600   25.4770   44.5410 O   0  0  0  0  0  0  0  0  0  0  0  0
   57.1160   24.6790   46.8460 O   0  0  0  0  0  0  0  0  0  0  0  0
   57.9700   27.8180   47.6860 C   0  0  0  0  0  0  0  0  0  0  0  0
   58.8760   28.8020   48.1020 C   0  0  0  0  0  0  0  0  0  0  0  0
   61.5380   32.5270   47.5020 C   0  0  0  0  0  0  0  0  0  0  0  0
   61.0540   33.9100   47.0090 C   0  0  0  0  0  0  0  0  0  0  0  0
   57.1360   32.1630   45.1130 C   0  0  0  0  0  0  0  0  0  0  0  0
   55.5144   28.7571   42.5050 H   0  0  0  0  0  0  0  0  0  0  0  0
   55.3371   30.5125   42.1676 H   0  0  0  0  0  0  0  0  0  0  0  0
   56.9673   29.7580   42.1676 H   0  0  0  0  0  0  0  0  0  0  0  0
   58.9552   29.5305   44.3463 H   0  0  0  0  0  0  0  0  0  0  0  0
   60.3270   31.4900   45.3100 H   0  0  0  0  0  0  0  0  0  0  0  0
   59.4590   35.1350   47.3570 H   0  0  0  0  0  0  0  0  0  0  0  0
   59.4256   33.8381   49.2273 H   0  0  0  0  0  0  0  0  0  0  0  0
   57.9223   33.4958   48.2483 H   0  0  0  0  0  0  0  0  0  0  0  0
   59.5881   31.5786   49.3379 H   0  0  0  0  0  0  0  0  0  0  0  0
   58.4413   31.3586   47.9352 H   0  0  0  0  0  0  0  0  0  0  0  0
   61.9410   30.0078   47.2823 H   0  0  0  0  0  0  0  0  0  0  0  0
   61.0804   30.1048   48.8667 H   0  0  0  0  0  0  0  0  0  0  0  0
   61.1048   28.6182   45.5097 H   0  0  0  0  0  0  0  0  0  0  0  0
   59.4847   26.8695   44.7651 H   0  0  0  0  0  0  0  0  0  0  0  0
   55.5190   27.5720   45.8320 H   0  0  0  0  0  0  0  0  0  0  0  0
   57.0848   27.5941   48.2994 H   0  0  0  0  0  0  0  0  0  0  0  0
   58.7016   29.3444   49.0429 H   0  0  0  0  0  0  0  0  0  0  0  0
   61.8683   32.6155   48.5475 H   0  0  0  0  0  0  0  0  0  0  0  0
   62.3666   32.2005   46.8564 H   0  0  0  0  0  0  0  0  0  0  0  0
   61.5678   34.6868   47.5944 H   0  0  0  0  0  0  0  0  0  0  0  0
   61.2889   33.9692   45.9360 H   0  0  0  0  0  0  0  0  0  0  0  0
   56.2316   32.7830   45.2009 H   0  0  0  0  0  0  0  0  0  0  0  0
  1  2  1  0
  2  3  2  0
  2  4  1  0
  4  5  2  0
  5  6  1  0
  6  7  1  0
  7  8  1  0
  8  9  2  0
  8 10  1  0
 10 11  1  0
 11 12  1  0
 12 13  1  0
 13 14  1  0
 14 15  1  0
 15 16  2  0
 16 17  1  0
 17 18  2  0
 18 19  1  0
 19 20  1  0
 19 21  2  0
 19 22  2  0
 18 23  1  0
 23 24  2  0
 13 25  1  0
 25 26  1  0
  7 27  2  0
 27  4  1  0
 26 10  1  0
 24 15  1  0
  1 28  1  0
  1 29  1  0
  1 30  1  0
  5 31  1  0
  6 32  1  0
 10 33  1  0
 11 34  1  0
 11 35  1  0
 12 36  1  0
 12 37  1  0
 14 38  1  0
 14 39  1  0
 16 40  1  0
 17 41  1  0
 20 42  1  0
 23 43  1  0
 24 44  1  0
 25 45  1  0
 25 46  1  0
 26 47  1  0
 26 48  1  0
 27 49  1  0
M  CHG  2  10   1  20  -1
M  END
>  <UniqueID>  (47) 
47

>  <SMILES>  (47) 
CC(=O)c1c[nH]c(C(=O)[NH+]2CCN(Cc3ccc(S([NH-])(=O)=O)cc3)CC2)c1

>  <Energy>  (47) 
91.68219593568612

>  <Genealogy>  (47) 
CC(=O)c1c[nH]c(C(=O)[NH+]2CCN(Cc3ccc(S([NH-])(=O)=O)cc3)CC2)c1 (protonated)
CC(=O)c1c[nH]c(C(=O)[NH+]2CCN(Cc3ccc(S([NH-])(=O)=O)cc3)CC2)c1 (3D coordinates assigned)
CC(=O)c1c[nH]c(C(=O)[NH+]2CCN(Cc3ccc(S([NH-])(=O)=O)cc3)CC2)c1 (nonaromatic ring conformer: 91.68219593568612 kcal/mol)

>  <smiles>  (47) 
CC(=O)c1c[nH]c(C(=O)N2CCN(Cc3ccc(S(N)(=O)=O)cc3)CC2)c1

>  <score_type>  (47) 
oracle

>  <origin>  (47) 
adg

>  <m_score__min__energy>  (47) 
-9.6899999999999995

>  <m_primary>  (47) 
energy

$$$$
47:0
     RDKit          3D

 39 41  0  0  0  0  0  0  0  0999 V2000
   58.9060   30.8650   47.9010 C   0  0  0  0  0  0  0  0  0  0  0  0
   58.5860   30.8400   46.5970 C   0  0  0  0  0  0  0  0  0  0  0  0
   58.5540   29.7200   45.7480 C   0  0  0  0  0  0  0  0  0  0  0  0
   58.6600   28.4040   46.0130 C   0  0  0  0  0  0  0  0  0  0  0  0
   57.5390   27.4750   46.2130 C   0  0  0  0  0  0  0  0  0  0  0  0
   57.6570   26.2990   46.8550 N   0  0  0  0  0  0  0  0  0  0  0  0
   56.4350   25.7430   46.7160 C   0  0  0  0  0  0  0  0  0  0  0  0
   56.1410   24.6220   47.2060 O   0  0  0  0  0  0  0  0  0  0  0  0
   55.5550   26.4780   46.0040 N   0  0  0  0  0  0  0  0  0  0  0  0
   56.2700   27.5660   45.6770 C   0  0  0  0  0  0  0  0  0  0  0  0
   55.7740   28.5990   44.8850 O   0  0  0  0  0  0  0  0  0  0  0  0
   58.3740   30.2130   44.4660 C   0  0  0  0  0  0  0  0  0  0  0  0
   58.2420   31.5820   44.5750 C   0  0  0  0  0  0  0  0  0  0  0  0
   58.0360   32.5080   43.4160 C   0  0  0  0  0  0  0  0  0  0  0  0
   58.3730   31.9620   45.8650 N   0  0  0  0  0  0  0  0  0  0  0  0
   58.3700   33.3150   46.3500 C   0  0  0  0  0  0  0  0  0  0  0  0
   57.4290   33.7080   47.0900 O   0  0  0  0  0  0  0  0  0  0  0  0
   59.5290   34.2250   46.0740 C   0  0  0  0  0  0  0  0  0  0  0  0
   60.6680   33.8910   46.9990 C   0  0  0  0  0  0  0  0  0  0  0  0
   61.8930   33.4510   46.4690 C   0  0  0  0  0  0  0  0  0  0  0  0
   62.9770   33.1970   47.3140 C   0  0  0  0  0  0  0  0  0  0  0  0
   62.8520   33.3900   48.6910 C   0  0  0  0  0  0  0  0  0  0  0  0
   61.6430   33.8400   49.2290 C   0  0  0  0  0  0  0  0  0  0  0  0
   61.5300   34.0360   50.5650 F   0  0  0  0  0  0  0  0  0  0  0  0
   60.5520   34.0940   48.3880 C   0  0  0  0  0  0  0  0  0  0  0  0
   59.3910   34.5470   48.9270 F   0  0  0  0  0  0  0  0  0  0  0  0
   58.8911   31.8164   48.4528 H   0  0  0  0  0  0  0  0  0  0  0  0
   59.1830   29.9340   48.4173 H   0  0  0  0  0  0  0  0  0  0  0  0
   59.6755   27.9875   46.0862 H   0  0  0  0  0  0  0  0  0  0  0  0
   55.8120   28.5560   43.8750 H   0  0  0  0  0  0  0  0  0  0  0  0
   58.3423   29.6245   43.5372 H   0  0  0  0  0  0  0  0  0  0  0  0
   57.8113   33.5181   43.7891 H   0  0  0  0  0  0  0  0  0  0  0  0
   58.9494   32.5380   42.8038 H   0  0  0  0  0  0  0  0  0  0  0  0
   57.1960   32.1480   42.8038 H   0  0  0  0  0  0  0  0  0  0  0  0
   59.8549   34.0960   45.0313 H   0  0  0  0  0  0  0  0  0  0  0  0
   59.2203   35.2679   46.2383 H   0  0  0  0  0  0  0  0  0  0  0  0
   61.9992   33.3058   45.3838 H   0  0  0  0  0  0  0  0  0  0  0  0
   63.9303   32.8444   46.8933 H   0  0  0  0  0  0  0  0  0  0  0  0
   63.7064   33.1876   49.3536 H   0  0  0  0  0  0  0  0  0  0  0  0
  1  2  2  0
  2  3  1  0
  3  4  2  3
  4  5  1  0
  5  6  1  0
  6  7  1  0
  7  8  2  0
  7  9  1  0
  9 10  1  0
 10 11  1  0
  3 12  1  0
 12 13  2  0
 13 14  1  0
 13 15  1  0
 15 16  1  0
 16 17  2  0
 16 18  1  0
 18 19  1  0
 19 20  2  0
 20 21  1  0
 21 22  2  0
 22 23  1  0
 23 24  1  0
 23 25  2  0
 25 26  1  0
 15  2  1  0
 25 19  1  0
 10  5  2  0
  1 27  1  0
  1 28  1  0
  4 29  1  0
 11 30  1  0
 12 31  1  0
 14 32  1  0
 14 33  1  0
 14 34  1  0
 18 35  1  0
 18 36  1  0
 20 37  1  0
 21 38  1  0
 22 39  1  0
M  CHG  2   6  -1   9  -1
M  END
>  <UniqueID>  (48) 
48

>  <SMILES>  (48) 
C=c1c(=Cc2[n-]c(=O)[n-]c2O)cc(C)n1C(=O)Cc1cccc(F)c1F

>  <Energy>  (48) 
113.58776244224666

>  <Genealogy>  (48) 
C=c1c(=Cc2[n-]c(=O)[n-]c2O)cc(C)n1C(=O)Cc1cccc(F)c1F (protonated)
C=c1c(=Cc2[n-]c(=O)[n-]c2O)cc(C)n1C(=O)Cc1cccc(F)c1F (3D coordinates assigned)
C=c1c(=Cc2[n-]c(=O)[n-]c2O)cc(C)n1C(=O)Cc1cccc(F)c1F (optimized conformer: 113.58776244224666 kcal/mol)

>  <smiles>  (48) 
C=c1c(=Cc2[nH]c(=O)[nH]c2O)cc(C)n1C(=O)Cc1cccc(F)c1F

>  <score_type>  (48) 
oracle

>  <origin>  (48) 
adg

>  <m_score__min__energy>  (48) 
-12.630000000000001

>  <m_primary>  (48) 
energy

$$$$
48:0
     RDKit          3D

 58 62  0  0  0  0  0  0  0  0999 V2000
   61.5870   32.2090   49.2490 C   0  0  0  0  0  0  0  0  0  0  0  0
   61.4700   33.6770   49.1990 N   0  0  0  0  0  0  0  0  0  0  0  0
   60.0510   34.1200   49.2520 C   0  0  0  0  0  0  0  0  0  0  0  0
   59.4940   34.5930   47.8970 C   0  0  0  0  0  0  0  0  0  0  0  0
   60.1290   33.8570   46.8000 N   0  0  0  0  0  0  0  0  0  0  0  0
   59.3420   33.1570   45.8160 C   0  0  0  0  0  0  0  0  0  0  0  0
   58.9330   33.8010   44.6380 C   0  0  0  0  0  0  0  0  0  0  0  0
   58.1740   33.1430   43.7250 N   0  0  0  0  0  0  0  0  0  0  0  0
   57.7960   31.8500   43.8990 C   0  0  0  0  0  0  0  0  0  0  0  0
   56.9950   31.2280   42.9360 C   0  0  0  0  0  0  0  0  0  0  0  0
   56.5770   29.9100   43.1170 C   0  0  0  0  0  0  0  0  0  0  0  0
   56.9740   29.1960   44.2500 C   0  0  0  0  0  0  0  0  0  0  0  0
   57.8030   29.7870   45.2140 C   0  0  0  0  0  0  0  0  0  0  0  0
   58.2230   28.9960   46.3370 N   0  0  0  0  0  0  0  0  0  0  0  0
   59.6080   28.8440   46.6900 C   0  0  0  0  0  0  0  0  0  0  0  0
   60.4990   29.2140   45.8780 O   0  0  0  0  0  0  0  0  0  0  0  0
   60.0060   28.2550   47.9940 C   0  0  0  0  0  0  0  0  0  0  0  0
   60.0650   26.8630   48.1750 C   0  0  0  0  0  0  0  0  0  0  0  0
   60.4190   26.3420   49.4200 C   0  0  0  0  0  0  0  0  0  0  0  0
   60.7040   27.1750   50.4550 N   0  0  0  0  0  0  0  0  0  0  0  0
   60.6660   28.5270   50.3220 C   0  0  0  0  0  0  0  0  0  0  0  0
   60.9470   29.3210   51.4420 O   0  0  0  0  0  0  0  0  0  0  0  0
   60.3310   30.5450   51.7460 C   0  0  0  0  0  0  0  0  0  0  0  0
   59.0010   30.8180   51.3770 C   0  0  0  0  0  0  0  0  0  0  0  0
   58.4250   32.0540   51.6890 C   0  0  0  0  0  0  0  0  0  0  0  0
   59.1730   33.0280   52.3580 C   0  0  0  0  0  0  0  0  0  0  0  0
   58.4480   34.5770   52.7480 Cl  0  0  0  0  0  0  0  0  0  0  0  0
   60.5020   32.7680   52.7070 C   0  0  0  0  0  0  0  0  0  0  0  0
   61.0800   31.5340   52.3950 C   0  0  0  0  0  0  0  0  0  0  0  0
   60.2950   29.0890   49.0870 C   0  0  0  0  0  0  0  0  0  0  0  0
   58.1940   31.1410   45.0580 C   0  0  0  0  0  0  0  0  0  0  0  0
   58.9480   31.8280   46.0280 C   0  0  0  0  0  0  0  0  0  0  0  0
   61.5930   33.8660   46.7100 C   0  0  0  0  0  0  0  0  0  0  0  0
   62.2210   34.2500   48.0610 C   0  0  0  0  0  0  0  0  0  0  0  0
   61.6133   31.8788   50.2979 H   0  0  0  0  0  0  0  0  0  0  0  0
   60.7222   31.7548   48.7432 H   0  0  0  0  0  0  0  0  0  0  0  0
   62.5128   31.8975   48.7432 H   0  0  0  0  0  0  0  0  0  0  0  0
   59.4379   33.2769   49.6032 H   0  0  0  0  0  0  0  0  0  0  0  0
   60.0113   34.9834   49.9324 H   0  0  0  0  0  0  0  0  0  0  0  0
   58.4083   34.4184   47.8703 H   0  0  0  0  0  0  0  0  0  0  0  0
   59.7067   35.6657   47.7780 H   0  0  0  0  0  0  0  0  0  0  0  0
   59.2290   34.8443   44.4536 H   0  0  0  0  0  0  0  0  0  0  0  0
   56.6939   31.7799   42.0334 H   0  0  0  0  0  0  0  0  0  0  0  0
   55.9326   29.4311   42.3651 H   0  0  0  0  0  0  0  0  0  0  0  0
   56.6327   28.1593   44.3874 H   0  0  0  0  0  0  0  0  0  0  0  0
   57.5350   28.3170   46.7330 H   0  0  0  0  0  0  0  0  0  0  0  0
   59.8331   26.1869   47.3389 H   0  0  0  0  0  0  0  0  0  0  0  0
   60.4676   25.2526   49.5642 H   0  0  0  0  0  0  0  0  0  0  0  0
   58.4128   30.0578   50.8420 H   0  0  0  0  0  0  0  0  0  0  0  0
   57.3818   32.2602   51.4076 H   0  0  0  0  0  0  0  0  0  0  0  0
   61.0934   33.5355   53.2277 H   0  0  0  0  0  0  0  0  0  0  0  0
   62.1294   31.3389   52.6609 H   0  0  0  0  0  0  0  0  0  0  0  0
   60.2311   30.1816   48.9770 H   0  0  0  0  0  0  0  0  0  0  0  0
   59.2307   31.3178   46.9606 H   0  0  0  0  0  0  0  0  0  0  0  0
   61.9428   32.8638   46.4216 H   0  0  0  0  0  0  0  0  0  0  0  0
   61.8954   34.6085   45.9568 H   0  0  0  0  0  0  0  0  0  0  0  0
   63.2549   33.8757   48.0922 H   0  0  0  0  0  0  0  0  0  0  0  0
   62.1942   35.3460   48.1511 H   0  0  0  0  0  0  0  0  0  0  0  0
  1  2  1  0
  2  3  1  0
  3  4  1  0
  4  5  1  0
  5  6  1  0
  6  7  2  0
  7  8  1  0
  8  9  2  0
  9 10  1  0
 10 11  2  0
 11 12  1  0
 12 13  2  0
 13 14  1  0
 14 15  1  0
 15 16  2  0
 15 17  1  0
 17 18  2  0
 18 19  1  0
 19 20  2  0
 20 21  1  0
 21 22  1  0
 22 23  1  0
 23 24  2  0
 24 25  1  0
 25 26  2  0
 26 27  1  0
 26 28  1  0
 28 29  2  0
 21 30  2  0
 13 31  1  0
 31 32  2  0
  5 33  1  0
 33 34  1  0
 34  2  1  0
 32  6  1  0
 31  9  1  0
 30 17  1  0
 29 23  1  0
  1 35  1  0
  1 36  1  0
  1 37  1  0
  3 38  1  0
  3 39  1  0
  4 40  1  0
  4 41  1  0
  7 42  1  0
 10 43  1  0
 11 44  1  0
 12 45  1  0
 14 46  1  0
 18 47  1  0
 19 48  1  0
 24 49  1  0
 25 50  1  0
 28 51  1  0
 29 52  1  0
 30 53  1  0
 32 54  1  0
 33 55  1  0
 33 56  1  0
 34 57  1  0
 34 58  1  0
M  END
>  <UniqueID>  (49) 
49

>  <SMILES>  (49) 
CN1CCN(c2cnc3cccc(NC(=O)c4ccnc(Oc5ccc(Cl)cc5)c4)c3c2)CC1

>  <Energy>  (49) 
94.10351255958074

>  <Genealogy>  (49) 
CN1CCN(c2cnc3cccc(NC(=O)c4ccnc(Oc5ccc(Cl)cc5)c4)c3c2)CC1 (3D coordinates assigned)
CN1CCN(c2cnc3cccc(NC(=O)c4ccnc(Oc5ccc(Cl)cc5)c4)c3c2)CC1 (nonaromatic ring conformer: 94.10351255958074 kcal/mol)

>  <smiles>  (49) 
CN1CCN(c2cnc3cccc(NC(=O)c4ccnc(Oc5ccc(Cl)cc5)c4)c3c2)CC1

>  <score_type>  (49) 
oracle

>  <origin>  (49) 
adg

>  <m_score__min__energy>  (49) 
-8.6999999999999993

>  <m_primary>  (49) 
energy

$$$$
49:0
     RDKit          3D

 68 71  0  0  0  0  0  0  0  0999 V2000
   52.3750   31.6890   51.0560 C   0  0  0  0  0  0  0  0  0  0  0  0
   52.4880   30.7050   52.2290 C   0  0  0  0  0  0  0  0  0  0  0  0
   51.8080   29.3710   51.8970 C   0  0  0  0  0  0  0  0  0  0  0  0
   53.9370   30.4990   52.6310 C   0  0  0  0  0  0  0  0  0  0  0  0
   54.2510   30.0410   53.9230 C   0  0  0  0  0  0  0  0  0  0  0  0
   55.5830   29.8970   54.3180 C   0  0  0  0  0  0  0  0  0  0  0  0
   56.6170   30.2010   53.4290 C   0  0  0  0  0  0  0  0  0  0  0  0
   56.3270   30.6380   52.1270 C   0  0  0  0  0  0  0  0  0  0  0  0
   57.4140   31.0010   51.1960 C   0  0  0  0  0  0  0  0  0  0  0  0
   57.6390   32.2120   50.9270 O   0  0  0  0  0  0  0  0  0  0  0  0
   58.2160   29.9790   50.5930 N   0  0  0  0  0  0  0  0  0  0  0  0
   59.1120   30.1970   49.4970 C   0  0  0  0  0  0  0  0  0  0  0  0
   59.3170   29.1730   48.5670 C   0  0  0  0  0  0  0  0  0  0  0  0
   60.1200   29.3910   47.4440 C   0  0  0  0  0  0  0  0  0  0  0  0
   60.6870   30.6480   47.2200 C   0  0  0  0  0  0  0  0  0  0  0  0
   60.4480   31.7040   48.1160 C   0  0  0  0  0  0  0  0  0  0  0  0
   60.9350   33.1080   47.8180 C   0  0  0  0  0  0  0  0  0  0  0  0
   59.9080   33.9800   47.1940 N   0  0  0  0  0  0  0  0  0  0  0  0
   60.0030   34.0390   45.7150 C   0  0  0  0  0  0  0  0  0  0  0  0
   58.6840   34.4880   45.0660 C   0  0  0  0  0  0  0  0  0  0  0  0
   57.5330   33.5040   45.4030 C   0  0  0  0  0  0  0  0  0  0  0  0
   57.4380   32.3910   44.3770 C   0  0  0  0  0  0  0  0  0  0  0  0
   58.1760   32.4060   43.3550 O   0  0  0  0  0  0  0  0  0  0  0  0
   56.5030   31.3170   44.5260 N   0  0  0  0  0  0  0  0  0  0  0  0
   56.4020   30.1780   43.6200 C   0  0  0  0  0  0  0  0  0  0  0  0
   57.0860   28.9810   44.2270 C   0  0  0  0  0  0  0  0  0  0  0  0
   57.7350   28.0500   43.3970 C   0  0  0  0  0  0  0  0  0  0  0  0
   58.3630   26.9290   43.9460 C   0  0  0  0  0  0  0  0  0  0  0  0
   58.3380   26.7200   45.3280 C   0  0  0  0  0  0  0  0  0  0  0  0
   59.1150   25.3050   46.0160 Cl  0  0  0  0  0  0  0  0  0  0  0  0
   57.6870   27.6330   46.1590 C   0  0  0  0  0  0  0  0  0  0  0  0
   57.0600   28.7600   45.6150 C   0  0  0  0  0  0  0  0  0  0  0  0
   57.6570   32.9350   46.8390 C   0  0  0  0  0  0  0  0  0  0  0  0
   58.5350   33.8260   47.7330 C   0  0  0  0  0  0  0  0  0  0  0  0
   59.6960   31.4550   49.2770 C   0  0  0  0  0  0  0  0  0  0  0  0
   54.9860   30.7880   51.7370 C   0  0  0  0  0  0  0  0  0  0  0  0
   52.2576   32.7112   51.4449 H   0  0  0  0  0  0  0  0  0  0  0  0
   53.2855   31.6329   50.4413 H   0  0  0  0  0  0  0  0  0  0  0  0
   51.5009   31.4279   50.4413 H   0  0  0  0  0  0  0  0  0  0  0  0
   51.9616   31.1434   53.0896 H   0  0  0  0  0  0  0  0  0  0  0  0
   51.5435   28.8521   52.8301 H   0  0  0  0  0  0  0  0  0  0  0  0
   50.8962   29.5600   51.3114 H   0  0  0  0  0  0  0  0  0  0  0  0
   52.4966   28.7442   51.3114 H   0  0  0  0  0  0  0  0  0  0  0  0
   53.4425   29.7946   54.6270 H   0  0  0  0  0  0  0  0  0  0  0  0
   55.8187   29.5430   55.3325 H   0  0  0  0  0  0  0  0  0  0  0  0
   57.6637   30.0974   53.7510 H   0  0  0  0  0  0  0  0  0  0  0  0
   58.8442   28.1916   48.7199 H   0  0  0  0  0  0  0  0  0  0  0  0
   60.3060   28.5709   46.7349 H   0  0  0  0  0  0  0  0  0  0  0  0
   61.3236   30.8120   46.3380 H   0  0  0  0  0  0  0  0  0  0  0  0
   61.2556   33.5715   48.7627 H   0  0  0  0  0  0  0  0  0  0  0  0
   61.7577   33.0142   47.0939 H   0  0  0  0  0  0  0  0  0  0  0  0
   60.7942   34.7516   45.4390 H   0  0  0  0  0  0  0  0  0  0  0  0
   60.2312   33.0265   45.3506 H   0  0  0  0  0  0  0  0  0  0  0  0
   58.4221   35.4889   45.4397 H   0  0  0  0  0  0  0  0  0  0  0  0
   58.8199   34.5064   43.9746 H   0  0  0  0  0  0  0  0  0  0  0  0
   56.5965   34.0796   45.3623 H   0  0  0  0  0  0  0  0  0  0  0  0
   55.3416   29.9431   43.4454 H   0  0  0  0  0  0  0  0  0  0  0  0
   56.8880   30.4288   42.6656 H   0  0  0  0  0  0  0  0  0  0  0  0
   57.7485   28.2052   42.3081 H   0  0  0  0  0  0  0  0  0  0  0  0
   58.8772   26.2107   43.2905 H   0  0  0  0  0  0  0  0  0  0  0  0
   57.6666   27.4662   47.2461 H   0  0  0  0  0  0  0  0  0  0  0  0
   56.5459   29.4742   46.2750 H   0  0  0  0  0  0  0  0  0  0  0  0
   56.6527   32.8656   47.2823 H   0  0  0  0  0  0  0  0  0  0  0  0
   58.1302   31.9441   46.7742 H   0  0  0  0  0  0  0  0  0  0  0  0
   58.0702   34.8202   47.8080 H   0  0  0  0  0  0  0  0  0  0  0  0
   58.6112   33.3445   48.7191 H   0  0  0  0  0  0  0  0  0  0  0  0
   59.5635   32.2541   50.0213 H   0  0  0  0  0  0  0  0  0  0  0  0
   54.7521   31.1358   50.7200 H   0  0  0  0  0  0  0  0  0  0  0  0
  1  2  1  0
  2  3  1  0
  2  4  1  0
  4  5  2  0
  5  6  1  0
  6  7  2  0
  7  8  1  0
  8  9  1  0
  9 10  2  0
  9 11  1  0
 11 12  1  0
 12 13  2  0
 13 14  1  0
 14 15  2  0
 15 16  1  0
 16 17  1  0
 17 18  1  0
 18 19  1  0
 19 20  1  0
 20 21  1  0
 21 22  1  0
 22 23  2  0
 22 24  1  0
 24 25  1  0
 25 26  1  0
 26 27  2  0
 27 28  1  0
 28 29  2  0
 29 30  1  0
 29 31  1  0
 31 32  2  0
 21 33  1  0
 33 34  1  0
 16 35  2  0
  8 36  2  0
 36  4  1  0
 35 12  1  0
 34 18  1  0
 32 26  1  0
  1 37  1  0
  1 38  1  0
  1 39  1  0
  2 40  1  0
  3 41  1  0
  3 42  1  0
  3 43  1  0
  5 44  1  0
  6 45  1  0
  7 46  1  0
 13 47  1  0
 14 48  1  0
 15 49  1  0
 17 50  1  0
 17 51  1  0
 19 52  1  0
 19 53  1  0
 20 54  1  0
 20 55  1  0
 21 56  1  0
 25 57  1  0
 25 58  1  0
 27 59  1  0
 28 60  1  0
 31 61  1  0
 32 62  1  0
 33 63  1  0
 33 64  1  0
 34 65  1  0
 34 66  1  0
 35 67  1  0
 36 68  1  0
M  CHG  2  11  -1  24  -1
M  END
>  <UniqueID>  (50) 
50

>  <SMILES>  (50) 
CC(C)c1cccc(C(=O)[N-]c2cccc(CN3CCC(C(=O)[N-]Cc4ccc(Cl)cc4)CC3)c2)c1

>  <Energy>  (50) 
81.92462082684362

>  <Genealogy>  (50) 
CC(C)c1cccc(C(=O)[N-]c2cccc(CN3CCC(C(=O)[N-]Cc4ccc(Cl)cc4)CC3)c2)c1 (protonated)
CC(C)c1cccc(C(=O)[N-]c2cccc(CN3CCC(C(=O)[N-]Cc4ccc(Cl)cc4)CC3)c2)c1 (3D coordinates assigned)
CC(C)c1cccc(C(=O)[N-]c2cccc(CN3CCC(C(=O)[N-]Cc4ccc(Cl)cc4)CC3)c2)c1 (nonaromatic ring conformer: 81.92462082684362 kcal/mol)

>  <smiles>  (50) 
CC(C)c1cccc(C(=O)Nc2cccc(CN3CCC(C(=O)NCc4ccc(Cl)cc4)CC3)c2)c1

>  <score_type>  (50) 
oracle

>  <origin>  (50) 
adg

>  <m_score__min__energy>  (50) 
-13.039999999999999

>  <m_primary>  (50) 
energy

$$$$
50:0
     RDKit          3D

 54 57  0  0  0  0  0  0  0  0999 V2000
   60.0060   27.7310   45.8510 O   0  0  0  0  0  0  0  0  0  0  0  0
   58.7760   27.5170   46.0260 C   0  0  0  0  0  0  0  0  0  0  0  0
   58.3630   26.3630   46.7670 N   0  0  0  0  0  0  0  0  0  0  0  0
   58.5750   25.0030   46.2900 C   0  0  0  0  0  0  0  0  0  0  0  0
   57.2550   24.3900   45.9170 C   0  0  0  0  0  0  0  0  0  0  0  0
   56.2090   24.3390   46.8520 C   0  0  0  0  0  0  0  0  0  0  0  0
   54.9860   23.7560   46.5080 C   0  0  0  0  0  0  0  0  0  0  0  0
   54.8030   23.2050   45.2350 C   0  0  0  0  0  0  0  0  0  0  0  0
   53.5840   22.6200   44.9050 O   0  0  0  0  0  0  0  0  0  0  0  0
   55.8460   23.2430   44.2970 C   0  0  0  0  0  0  0  0  0  0  0  0
   55.6570   22.6940   43.0290 O   0  0  0  0  0  0  0  0  0  0  0  0
   57.0710   23.8310   44.6410 C   0  0  0  0  0  0  0  0  0  0  0  0
   57.7610   28.4660   45.4930 C   0  0  0  0  0  0  0  0  0  0  0  0
   58.1440   29.7700   45.1300 C   0  0  0  0  0  0  0  0  0  0  0  0
   57.2020   30.6880   44.6390 C   0  0  0  0  0  0  0  0  0  0  0  0
   57.6010   32.0680   44.2760 C   0  0  0  0  0  0  0  0  0  0  0  0
   57.4190   32.4700   43.0930 O   0  0  0  0  0  0  0  0  0  0  0  0
   58.1900   32.9600   45.2400 N   0  0  0  0  0  0  0  0  0  0  0  0
   57.6020   33.1190   46.5770 C   0  0  0  0  0  0  0  0  0  0  0  0
   58.7100   33.1890   47.6430 C   0  0  0  0  0  0  0  0  0  0  0  0
   59.9580   33.8530   47.1650 N   0  0  0  0  0  0  0  0  0  0  0  0
   60.7720   34.5530   48.1990 C   0  0  0  0  0  0  0  0  0  0  0  0
   60.4880   34.1470   49.6490 C   0  0  0  0  0  0  0  0  0  0  0  0
   61.9270   33.6610   49.7850 C   0  0  0  0  0  0  0  0  0  0  0  0
   62.2160   34.0640   48.3410 C   0  0  0  0  0  0  0  0  0  0  0  0
   59.7490   34.7240   45.9910 C   0  0  0  0  0  0  0  0  0  0  0  0
   59.2450   33.8870   44.8130 C   0  0  0  0  0  0  0  0  0  0  0  0
   55.8790   30.2630   44.4790 C   0  0  0  0  0  0  0  0  0  0  0  0
   55.5170   29.0030   44.8280 N   0  0  0  0  0  0  0  0  0  0  0  0
   56.4050   28.1050   45.3300 C   0  0  0  0  0  0  0  0  0  0  0  0
   55.9970   26.9550   45.6410 O   0  0  0  0  0  0  0  0  0  0  0  0
   59.2323   25.0223   45.4082 H   0  0  0  0  0  0  0  0  0  0  0  0
   59.0445   24.4053   47.0852 H   0  0  0  0  0  0  0  0  0  0  0  0
   56.3523   24.7591   47.8585 H   0  0  0  0  0  0  0  0  0  0  0  0
   54.1653   23.7303   47.2400 H   0  0  0  0  0  0  0  0  0  0  0  0
   54.7960   22.2200   42.7800 H   0  0  0  0  0  0  0  0  0  0  0  0
   57.8917   23.8549   43.9090 H   0  0  0  0  0  0  0  0  0  0  0  0
   59.1960   30.0746   45.2323 H   0  0  0  0  0  0  0  0  0  0  0  0
   57.0116   34.0467   46.6058 H   0  0  0  0  0  0  0  0  0  0  0  0
   56.9558   32.2544   46.7888 H   0  0  0  0  0  0  0  0  0  0  0  0
   58.3261   33.7511   48.5071 H   0  0  0  0  0  0  0  0  0  0  0  0
   58.9746   32.1531   47.9017 H   0  0  0  0  0  0  0  0  0  0  0  0
   60.5658   35.5798   47.8626 H   0  0  0  0  0  0  0  0  0  0  0  0
   60.2322   34.9879   50.3104 H   0  0  0  0  0  0  0  0  0  0  0  0
   59.6468   33.4801   49.8891 H   0  0  0  0  0  0  0  0  0  0  0  0
   62.5171   34.2148   50.5301 H   0  0  0  0  0  0  0  0  0  0  0  0
   62.1329   32.6347   50.1230 H   0  0  0  0  0  0  0  0  0  0  0  0
   62.9722   34.8561   48.2370 H   0  0  0  0  0  0  0  0  0  0  0  0
   62.6334   33.3365   47.6294 H   0  0  0  0  0  0  0  0  0  0  0  0
   59.0050   35.4962   46.2361 H   0  0  0  0  0  0  0  0  0  0  0  0
   60.7009   35.2028   45.7177 H   0  0  0  0  0  0  0  0  0  0  0  0
   58.8426   34.5588   44.0404 H   0  0  0  0  0  0  0  0  0  0  0  0
   60.0861   33.3011   44.4140 H   0  0  0  0  0  0  0  0  0  0  0  0
   55.1282   30.9540   44.0681 H   0  0  0  0  0  0  0  0  0  0  0  0
  1  2  2  0
  2  3  1  0
  3  4  1  0
  4  5  1  0
  5  6  2  0
  6  7  1  0
  7  8  2  0
  8  9  1  0
  8 10  1  0
 10 11  1  0
 10 12  2  0
  2 13  1  0
 13 14  2  0
 14 15  1  0
 15 16  1  0
 16 17  2  0
 16 18  1  0
 18 19  1  0
 19 20  1  0
 20 21  1  0
 21 22  1  0
 22 23  1  0
 23 24  1  0
 24 25  1  0
 21 26  1  0
 26 27  1  0
 15 28  2  0
 28 29  1  0
 29 30  1  0
 30 31  2  0
 12  5  1  0
 30 13  1  0
 27 18  1  0
 25 22  1  0
  4 32  1  0
  4 33  1  0
  6 34  1  0
  7 35  1  0
 11 36  1  0
 12 37  1  0
 14 38  1  0
 19 39  1  0
 19 40  1  0
 20 41  1  0
 20 42  1  0
 22 43  1  0
 23 44  1  0
 23 45  1  0
 24 46  1  0
 24 47  1  0
 25 48  1  0
 25 49  1  0
 26 50  1  0
 26 51  1  0
 27 52  1  0
 27 53  1  0
 28 54  1  0
M  CHG  3   3  -1   9  -1  29  -1
M  END
>  <UniqueID>  (51) 
51

>  <SMILES>  (51) 
O=C([N-]Cc1ccc([O-])c(O)c1)c1cc(C(=O)N2CCN(C3CCC3)CC2)c[n-]c1=O

>  <Energy>  (51) 
130.40656423477816

>  <Genealogy>  (51) 
O=C([N-]Cc1ccc([O-])c(O)c1)c1cc(C(=O)N2CCN(C3CCC3)CC2)c[n-]c1=O (protonated)
O=C([N-]Cc1ccc([O-])c(O)c1)c1cc(C(=O)N2CCN(C3CCC3)CC2)c[n-]c1=O (3D coordinates assigned)
O=C([N-]Cc1ccc([O-])c(O)c1)c1cc(C(=O)N2CCN(C3CCC3)CC2)c[n-]c1=O (nonaromatic ring conformer: 130.40656423477816 kcal/mol)

>  <smiles>  (51) 
O=C(NCc1ccc(O)c(O)c1)c1cc(C(=O)N2CCN(C3CCC3)CC2)c[nH]c1=O

>  <score_type>  (51) 
oracle

>  <origin>  (51) 
adg

>  <m_score__min__energy>  (51) 
-15.92

>  <m_primary>  (51) 
energy

$$$$
51:0
     RDKit          3D

 78 83  0  0  0  0  0  0  0  0999 V2000
   63.2820   34.1510   51.1310 O   0  0  0  0  0  0  0  0  0  0  0  0
   62.1570   33.6920   50.8030 C   0  0  0  0  0  0  0  0  0  0  0  0
   61.4310   32.7860   51.7750 C   0  0  0  0  0  0  0  0  0  0  0  0
   60.2930   33.5140   52.5340 C   0  0  0  0  0  0  0  0  0  0  0  0
   59.0980   32.6800   52.2670 C   0  0  0  0  0  0  0  0  0  0  0  0
   57.7950   32.9270   52.6990 C   0  0  0  0  0  0  0  0  0  0  0  0
   56.7800   32.0250   52.3400 C   0  0  0  0  0  0  0  0  0  0  0  0
   57.0770   30.9140   51.5300 C   0  0  0  0  0  0  0  0  0  0  0  0
   58.3890   30.6950   51.0910 C   0  0  0  0  0  0  0  0  0  0  0  0
   59.3870   31.5920   51.4770 C   0  0  0  0  0  0  0  0  0  0  0  0
   60.8150   31.5360   51.0950 C   0  0  0  0  0  0  0  0  0  0  0  0
   61.6130   34.0310   49.5130 N   0  0  0  0  0  0  0  0  0  0  0  0
   62.4540   33.8800   48.3180 C   0  0  0  0  0  0  0  0  0  0  0  0
   61.6770   33.0970   47.2520 C   0  0  0  0  0  0  0  0  0  0  0  0
   60.2950   33.5930   47.1250 N   0  0  0  0  0  0  0  0  0  0  0  0
   59.3500   32.9150   46.2740 C   0  0  0  0  0  0  0  0  0  0  0  0
   58.2060   33.5880   45.8130 C   0  0  0  0  0  0  0  0  0  0  0  0
   57.2300   32.9060   45.0820 C   0  0  0  0  0  0  0  0  0  0  0  0
   57.3880   31.5420   44.7910 C   0  0  0  0  0  0  0  0  0  0  0  0
   56.2510   30.7600   44.1880 C   0  0  0  0  0  0  0  0  0  0  0  0
   56.6810   29.4570   43.5250 C   0  0  0  0  0  0  0  0  0  0  0  0
   56.6870   29.4200   42.3000 O   0  0  0  0  0  0  0  0  0  0  0  0
   57.0270   28.2570   44.2810 N   0  0  0  0  0  0  0  0  0  0  0  0
   58.3230   27.7090   43.8150 C   0  0  0  0  0  0  0  0  0  0  0  0
   59.1370   26.9890   44.9180 C   0  0  0  0  0  0  0  0  0  0  0  0
   58.3130   26.3850   45.9930 N   0  0  0  0  0  0  0  0  0  0  0  0
   58.0240   24.9280   45.9110 C   0  0  0  0  0  0  0  0  0  0  0  0
   57.7440   24.4680   44.4730 C   0  0  0  0  0  0  0  0  0  0  0  0
   56.3110   23.9380   44.4390 C   0  0  0  0  0  0  0  0  0  0  0  0
   55.6760   24.2650   45.7830 C   0  0  0  0  0  0  0  0  0  0  0  0
   56.8260   24.4780   46.7510 C   0  0  0  0  0  0  0  0  0  0  0  0
   57.1820   27.2040   46.4900 C   0  0  0  0  0  0  0  0  0  0  0  0
   57.0280   28.5270   45.7290 C   0  0  0  0  0  0  0  0  0  0  0  0
   58.5480   30.8760   45.2210 C   0  0  0  0  0  0  0  0  0  0  0  0
   59.5180   31.5560   45.9600 C   0  0  0  0  0  0  0  0  0  0  0  0
   59.8640   34.7590   47.9130 C   0  0  0  0  0  0  0  0  0  0  0  0
   60.2440   34.5510   49.3820 C   0  0  0  0  0  0  0  0  0  0  0  0
   62.2124   32.4721   52.4827 H   0  0  0  0  0  0  0  0  0  0  0  0
   60.5069   33.5579   53.6121 H   0  0  0  0  0  0  0  0  0  0  0  0
   60.1646   34.5568   52.2083 H   0  0  0  0  0  0  0  0  0  0  0  0
   57.5663   33.8126   53.3101 H   0  0  0  0  0  0  0  0  0  0  0  0
   55.7509   32.1877   52.6929 H   0  0  0  0  0  0  0  0  0  0  0  0
   56.2775   30.2160   51.2408 H   0  0  0  0  0  0  0  0  0  0  0  0
   58.6289   29.8314   50.4533 H   0  0  0  0  0  0  0  0  0  0  0  0
   61.2848   30.6148   51.4700 H   0  0  0  0  0  0  0  0  0  0  0  0
   60.9631   31.5292   50.0050 H   0  0  0  0  0  0  0  0  0  0  0  0
   62.7182   34.8732   47.9258 H   0  0  0  0  0  0  0  0  0  0  0  0
   63.3742   33.3367   48.5791 H   0  0  0  0  0  0  0  0  0  0  0  0
   62.1875   33.2065   46.2838 H   0  0  0  0  0  0  0  0  0  0  0  0
   61.6403   32.0402   47.5551 H   0  0  0  0  0  0  0  0  0  0  0  0
   58.0779   34.6589   46.0290 H   0  0  0  0  0  0  0  0  0  0  0  0
   56.3340   33.4402   44.7331 H   0  0  0  0  0  0  0  0  0  0  0  0
   55.5327   30.5218   44.9863 H   0  0  0  0  0  0  0  0  0  0  0  0
   55.8129   31.3899   43.3998 H   0  0  0  0  0  0  0  0  0  0  0  0
   56.3020   27.5250   44.1260 H   0  0  0  0  0  0  0  0  0  0  0  0
   58.1236   26.9895   43.0072 H   0  0  0  0  0  0  0  0  0  0  0  0
   58.9281   28.5648   43.4811 H   0  0  0  0  0  0  0  0  0  0  0  0
   59.7248   26.1888   44.4446 H   0  0  0  0  0  0  0  0  0  0  0  0
   59.7634   27.7561   45.3966 H   0  0  0  0  0  0  0  0  0  0  0  0
   58.9416   24.4686   46.3071 H   0  0  0  0  0  0  0  0  0  0  0  0
   57.8491   25.3151   43.7791 H   0  0  0  0  0  0  0  0  0  0  0  0
   58.4563   23.6876   44.1670 H   0  0  0  0  0  0  0  0  0  0  0  0
   55.7487   24.4247   43.6285 H   0  0  0  0  0  0  0  0  0  0  0  0
   56.3010   22.8532   44.2570 H   0  0  0  0  0  0  0  0  0  0  0  0
   55.0678   25.1783   45.7058 H   0  0  0  0  0  0  0  0  0  0  0  0
   55.0109   23.4566   46.1206 H   0  0  0  0  0  0  0  0  0  0  0  0
   56.5650   25.2533   47.4864 H   0  0  0  0  0  0  0  0  0  0  0  0
   57.0538   23.5565   47.3068 H   0  0  0  0  0  0  0  0  0  0  0  0
   56.2533   26.6248   46.3799 H   0  0  0  0  0  0  0  0  0  0  0  0
   57.3872   27.4488   47.5426 H   0  0  0  0  0  0  0  0  0  0  0  0
   56.0802   29.0070   46.0142 H   0  0  0  0  0  0  0  0  0  0  0  0
   57.8645   29.1961   45.9790 H   0  0  0  0  0  0  0  0  0  0  0  0
   58.6927   29.8138   44.9743 H   0  0  0  0  0  0  0  0  0  0  0  0
   60.4195   31.0243   46.2985 H   0  0  0  0  0  0  0  0  0  0  0  0
   60.3596   35.6635   47.5306 H   0  0  0  0  0  0  0  0  0  0  0  0
   58.7734   34.8753   47.8293 H   0  0  0  0  0  0  0  0  0  0  0  0
   60.1748   35.5138   49.9095 H   0  0  0  0  0  0  0  0  0  0  0  0
   59.5512   33.8164   49.8184 H   0  0  0  0  0  0  0  0  0  0  0  0
  1  2  2  0
  2  3  1  0
  3  4  1  0
  4  5  1  0
  5  6  2  0
  6  7  1  0
  7  8  2  0
  8  9  1  0
  9 10  2  0
 10 11  1  0
  2 12  1  0
 12 13  1  0
 13 14  1  0
 14 15  1  0
 15 16  1  0
 16 17  2  0
 17 18  1  0
 18 19  2  0
 19 20  1  0
 20 21  1  0
 21 22  2  0
 21 23  1  0
 23 24  1  0
 24 25  1  0
 25 26  1  0
 26 27  1  0
 27 28  1  0
 28 29  1  0
 29 30  1  0
 30 31  1  0
 26 32  1  0
 32 33  1  0
 19 34  1  0
 34 35  2  0
 15 36  1  0
 36 37  1  0
 11  3  1  0
 37 12  1  0
 10  5  1  0
 35 16  1  0
 33 23  1  0
 31 27  1  0
  3 38  1  0
  4 39  1  0
  4 40  1  0
  6 41  1  0
  7 42  1  0
  8 43  1  0
  9 44  1  0
 11 45  1  0
 11 46  1  0
 13 47  1  0
 13 48  1  0
 14 49  1  0
 14 50  1  0
 17 51  1  0
 18 52  1  0
 20 53  1  0
 20 54  1  0
 23 55  1  0
 24 56  1  0
 24 57  1  0
 25 58  1  0
 25 59  1  0
 27 60  1  0
 28 61  1  0
 28 62  1  0
 29 63  1  0
 29 64  1  0
 30 65  1  0
 30 66  1  0
 31 67  1  0
 31 68  1  0
 32 69  1  0
 32 70  1  0
 33 71  1  0
 33 72  1  0
 34 73  1  0
 35 74  1  0
 36 75  1  0
 36 76  1  0
 37 77  1  0
 37 78  1  0
M  CHG  1  23   1
M  END
>  <UniqueID>  (52) 
52

>  <SMILES>  (52) 
O=C(C1Cc2ccccc2C1)N1CCN(c2ccc(CC(=O)[NH+]3CCN(C4CCCC4)CC3)cc2)CC1

>  <Energy>  (52) 
114.03828463642267

>  <Genealogy>  (52) 
O=C(C1Cc2ccccc2C1)N1CCN(c2ccc(CC(=O)[NH+]3CCN(C4CCCC4)CC3)cc2)CC1 (protonated)
O=C(C1Cc2ccccc2C1)N1CCN(c2ccc(CC(=O)[NH+]3CCN(C4CCCC4)CC3)cc2)CC1 (3D coordinates assigned)
O=C(C1Cc2ccccc2C1)N1CCN(c2ccc(CC(=O)[NH+]3CCN(C4CCCC4)CC3)cc2)CC1 (nonaromatic ring conformer: 114.03828463642267 kcal/mol)

>  <smiles>  (52) 
O=C(Cc1ccc(N2CCN(C(=O)C3Cc4ccccc4C3)CC2)cc1)N1CCN(C2CCCC2)CC1

>  <score_type>  (52) 
oracle

>  <origin>  (52) 
adg

>  <m_score__min__energy>  (52) 
-9.9000000000000004

>  <m_primary>  (52) 
energy

$$$$
52:0
     RDKit          3D

 44 46  0  0  0  0  0  0  0  0999 V2000
   54.8090   27.0860   46.4880 H   0  0  0  0  0  0  0  0  0  0  0  0
   55.2630   26.7130   45.6250 N   0  0  0  0  0  0  0  0  0  0  0  0
   56.9020   27.2670   45.6310 S   0  0  0  0  0  0  0  0  0  0  0  0
   57.7560   26.2680   44.9000 O   0  0  0  0  0  0  0  0  0  0  0  0
   57.3870   27.3940   47.0490 O   0  0  0  0  0  0  0  0  0  0  0  0
   56.9900   28.8350   44.8390 C   0  0  0  0  0  0  0  0  0  0  0  0
   56.7010   28.9680   43.4740 C   0  0  0  0  0  0  0  0  0  0  0  0
   56.4038   28.0865   42.8870 H   0  0  0  0  0  0  0  0  0  0  0  0
   56.7900   30.2190   42.8580 C   0  0  0  0  0  0  0  0  0  0  0  0
   56.5750   30.3186   41.7838 H   0  0  0  0  0  0  0  0  0  0  0  0
   57.1520   31.3450   43.6050 C   0  0  0  0  0  0  0  0  0  0  0  0
   57.2320   32.3256   43.1130 H   0  0  0  0  0  0  0  0  0  0  0  0
   57.4130   31.2300   44.9760 C   0  0  0  0  0  0  0  0  0  0  0  0
   57.8020   32.4010   45.7140 N   0  0  0  0  0  0  0  0  0  0  0  0
   58.1790   32.4500   46.9610 C   0  0  0  0  0  0  0  0  0  0  0  0
   57.4856   32.0792   47.7302 H   0  0  0  0  0  0  0  0  0  0  0  0
   59.4950   32.9800   47.3970 C   0  0  0  0  0  0  0  0  0  0  0  0
   60.6010   32.1160   47.5790 C   0  0  0  0  0  0  0  0  0  0  0  0
   60.4330   30.6560   47.3950 C   0  0  0  0  0  0  0  0  0  0  0  0
   60.5740   30.0860   46.1190 C   0  0  0  0  0  0  0  0  0  0  0  0
   60.8062   30.7257   45.2548 H   0  0  0  0  0  0  0  0  0  0  0  0
   60.4200   28.7080   45.9450 C   0  0  0  0  0  0  0  0  0  0  0  0
   60.5322   28.2660   44.9440 H   0  0  0  0  0  0  0  0  0  0  0  0
   60.1230   27.8870   47.0420 C   0  0  0  0  0  0  0  0  0  0  0  0
   59.9680   26.5130   46.8790 O   0  0  0  0  0  0  0  0  0  0  0  0
   59.0820   26.1090   46.6000 H   0  0  0  0  0  0  0  0  0  0  0  0
   59.9810   28.4530   48.3140 C   0  0  0  0  0  0  0  0  0  0  0  0
   59.7477   27.8118   49.1768 H   0  0  0  0  0  0  0  0  0  0  0  0
   60.1350   29.8320   48.4910 C   0  0  0  0  0  0  0  0  0  0  0  0
   60.0221   30.2720   49.4928 H   0  0  0  0  0  0  0  0  0  0  0  0
   61.8250   32.6460   48.0590 C   0  0  0  0  0  0  0  0  0  0  0  0
   63.0220   31.7970   48.2790 C   0  0  0  0  0  0  0  0  0  0  0  0
   63.5770   31.2400   47.2940 O   0  0  0  0  0  0  0  0  0  0  0  0
   63.5890   31.5790   49.6480 C   0  0  0  0  0  0  0  0  0  0  0  0
   62.8430   31.8658   50.4038 H   0  0  0  0  0  0  0  0  0  0  0  0
   63.8479   30.5172   49.7728 H   0  0  0  0  0  0  0  0  0  0  0  0
   64.4925   32.1939   49.7728 H   0  0  0  0  0  0  0  0  0  0  0  0
   61.9050   34.0230   48.3340 C   0  0  0  0  0  0  0  0  0  0  0  0
   63.0860   34.5850   48.8060 O   0  0  0  0  0  0  0  0  0  0  0  0
   60.8320   34.8250   48.1300 N   0  0  0  0  0  0  0  0  0  0  0  0
   59.6480   34.3500   47.6710 C   0  0  0  0  0  0  0  0  0  0  0  0
   58.6910   35.1520   47.4950 O   0  0  0  0  0  0  0  0  0  0  0  0
   57.3700   29.9600   45.5790 C   0  0  0  0  0  0  0  0  0  0  0  0
   57.6372   29.8504   46.6404 H   0  0  0  0  0  0  0  0  0  0  0  0
  1  2  1  0
  2  3  1  0
  3  4  2  0
  3  5  2  0
  3  6  1  0
  6  7  2  0
  7  8  1  0
  7  9  1  0
  9 10  1  0
  9 11  2  0
 11 12  1  0
 11 13  1  0
 13 14  1  0
 14 15  2  0
 15 16  1  0
 15 17  1  0
 17 18  2  0
 18 19  1  0
 19 20  2  0
 20 21  1  0
 20 22  1  0
 22 23  1  0
 22 24  2  0
 24 25  1  0
 25 26  1  0
 24 27  1  0
 27 28  1  0
 27 29  2  0
 29 30  1  0
 18 31  1  0
 31 32  1  0
 32 33  2  0
 32 34  1  0
 34 35  1  0
 34 36  1  0
 34 37  1  0
 31 38  2  0
 38 39  1  0
 38 40  1  0
 40 41  1  0
 41 42  2  0
 13 43  2  0
 43 44  1  0
 43  6  1  0
 41 17  1  0
 29 19  1  0
M  CHG  3   2  -1  39  -1  40  -1
M  END
>  <UniqueID>  (53) 
53

>  <SMILES>  (53) 
CC(=O)c1c([O-])[n-]c(=O)c(/C=N\c2cccc(S([NH-])(=O)=O)c2)c1-c1ccc(O)cc1

>  <Energy>  (53) 
71.7668266980648

>  <Genealogy>  (53) 
CC(=O)c1c([O-])[n-]c(=O)c(C=Nc2cccc(S([NH-])(=O)=O)c2)c1-c1ccc(O)cc1 (protonated)
CC(=O)c1c([O-])[n-]c(=O)c(/C=N\c2cccc(S([NH-])(=O)=O)c2)c1-c1ccc(O)cc1 (cis-trans isomerization)
CC(=O)c1c([O-])[n-]c(=O)c(/C=N\c2cccc(S([NH-])(=O)=O)c2)c1-c1ccc(O)cc1 (3D coordinates assigned)
CC(=O)c1c([O-])[n-]c(=O)c(/C=N\c2cccc(S([NH-])(=O)=O)c2)c1-c1ccc(O)cc1 (optimized conformer: 71.7668266980648 kcal/mol)

>  <smiles>  (53) 
CC(=O)c1c(O)[nH]c(=O)c(C=Nc2cccc(S(N)(=O)=O)c2)c1-c1ccc(O)cc1

>  <score_type>  (53) 
oracle

>  <origin>  (53) 
adg

>  <m_score__min__energy>  (53) 
-12.43

>  <m_primary>  (53) 
energy

$$$$
53:0
     RDKit          3D

 56 59  0  0  0  0  0  0  0  0999 V2000
   59.6400   35.5710   45.5460 C   0  0  0  0  0  0  0  0  0  0  0  0
   58.8310   34.7060   46.3350 O   0  0  0  0  0  0  0  0  0  0  0  0
   58.4540   33.3850   46.0230 C   0  0  0  0  0  0  0  0  0  0  0  0
   57.9190   33.1770   44.7460 C   0  0  0  0  0  0  0  0  0  0  0  0
   57.5040   31.9100   44.3370 C   0  0  0  0  0  0  0  0  0  0  0  0
   57.6490   30.8120   45.1860 C   0  0  0  0  0  0  0  0  0  0  0  0
   57.2040   29.5270   44.7260 N   0  0  0  0  0  0  0  0  0  0  0  0
   57.6930   28.2480   45.1530 C   0  0  0  0  0  0  0  0  0  0  0  0
   58.5310   27.6130   44.4570 O   0  0  0  0  0  0  0  0  0  0  0  0
   57.1280   27.6150   46.3860 C   0  0  0  0  0  0  0  0  0  0  0  0
   56.8450   26.2010   46.1470 N   0  0  0  0  0  0  0  0  0  0  0  0
   57.7390   25.1880   46.1490 C   0  0  0  0  0  0  0  0  0  0  0  0
   59.1100   25.3550   46.3020 O   0  0  0  0  0  0  0  0  0  0  0  0
   57.0930   23.9770   45.9970 C   0  0  0  0  0  0  0  0  0  0  0  0
   55.7510   24.2620   45.8670 C   0  0  0  0  0  0  0  0  0  0  0  0
   55.6280   25.6300   45.9950 C   0  0  0  0  0  0  0  0  0  0  0  0
   54.4290   26.3340   45.9900 O   0  0  0  0  0  0  0  0  0  0  0  0
   54.6780   23.2210   45.7800 C   0  0  0  0  0  0  0  0  0  0  0  0
   55.2800   21.8620   45.3640 C   0  0  0  0  0  0  0  0  0  0  0  0
   56.5730   21.5420   46.1450 C   0  0  0  0  0  0  0  0  0  0  0  0
   57.6710   22.5980   45.8990 C   0  0  0  0  0  0  0  0  0  0  0  0
   58.1630   31.0060   46.4770 C   0  0  0  0  0  0  0  0  0  0  0  0
   58.5580   32.2860   46.9150 C   0  0  0  0  0  0  0  0  0  0  0  0
   59.1250   32.4520   48.2220 N   0  0  0  0  0  0  0  0  0  0  0  0
   59.9430   33.5450   48.6600 C   0  0  0  0  0  0  0  0  0  0  0  0
   59.4110   34.5570   49.1930 O   0  0  0  0  0  0  0  0  0  0  0  0
   61.4020   33.5410   48.3940 C   0  0  0  0  0  0  0  0  0  0  0  0
   61.8380   33.5320   47.0550 C   0  0  0  0  0  0  0  0  0  0  0  0
   63.1980   33.4830   46.7470 C   0  0  0  0  0  0  0  0  0  0  0  0
   64.1450   33.4460   47.7680 C   0  0  0  0  0  0  0  0  0  0  0  0
   63.7370   33.4730   49.1030 C   0  0  0  0  0  0  0  0  0  0  0  0
   62.3720   33.5420   49.4340 C   0  0  0  0  0  0  0  0  0  0  0  0
   61.9910   33.6280   50.8890 C   0  0  0  0  0  0  0  0  0  0  0  0
   60.2412   36.2138   46.2058 H   0  0  0  0  0  0  0  0  0  0  0  0
   60.3080   34.9704   44.9112 H   0  0  0  0  0  0  0  0  0  0  0  0
   58.9961   36.1974   44.9112 H   0  0  0  0  0  0  0  0  0  0  0  0
   57.8245   34.0268   44.0540 H   0  0  0  0  0  0  0  0  0  0  0  0
   57.0599   31.7754   43.3397 H   0  0  0  0  0  0  0  0  0  0  0  0
   57.8553   27.7058   47.2062 H   0  0  0  0  0  0  0  0  0  0  0  0
   56.1918   28.1267   46.6537 H   0  0  0  0  0  0  0  0  0  0  0  0
   54.1930   23.1174   46.7618 H   0  0  0  0  0  0  0  0  0  0  0  0
   53.9403   23.5308   45.0251 H   0  0  0  0  0  0  0  0  0  0  0  0
   54.5412   21.0709   45.5598 H   0  0  0  0  0  0  0  0  0  0  0  0
   55.5316   21.9136   44.2944 H   0  0  0  0  0  0  0  0  0  0  0  0
   56.3413   21.5139   47.2199 H   0  0  0  0  0  0  0  0  0  0  0  0
   56.9507   20.5700   45.7948 H   0  0  0  0  0  0  0  0  0  0  0  0
   58.4630   22.4814   46.6534 H   0  0  0  0  0  0  0  0  0  0  0  0
   58.0884   22.4542   44.8915 H   0  0  0  0  0  0  0  0  0  0  0  0
   58.2591   30.1467   47.1570 H   0  0  0  0  0  0  0  0  0  0  0  0
   61.0975   33.5640   46.2422 H   0  0  0  0  0  0  0  0  0  0  0  0
   63.5230   33.4736   45.6961 H   0  0  0  0  0  0  0  0  0  0  0  0
   65.2160   33.3954   47.5220 H   0  0  0  0  0  0  0  0  0  0  0  0
   64.4906   33.4400   49.9036 H   0  0  0  0  0  0  0  0  0  0  0  0
   62.8753   33.4284   51.5120 H   0  0  0  0  0  0  0  0  0  0  0  0
   61.6075   34.6353   51.1087 H   0  0  0  0  0  0  0  0  0  0  0  0
   61.2120   32.8831   51.1087 H   0  0  0  0  0  0  0  0  0  0  0  0
  1  2  1  0
  2  3  1  0
  3  4  2  0
  4  5  1  0
  5  6  2  0
  6  7  1  0
  7  8  1  0
  8  9  2  0
  8 10  1  0
 10 11  1  0
 11 12  1  0
 12 13  1  0
 12 14  2  0
 14 15  1  0
 15 16  2  0
 16 17  1  0
 15 18  1  0
 18 19  1  0
 19 20  1  0
 20 21  1  0
  6 22  1  0
 22 23  2  0
 23 24  1  0
 24 25  1  0
 25 26  2  0
 25 27  1  0
 27 28  2  0
 28 29  1  0
 29 30  2  0
 30 31  1  0
 31 32  2  0
 32 33  1  0
 23  3  1  0
 32 27  1  0
 16 11  1  0
 21 14  1  0
  1 34  1  0
  1 35  1  0
  1 36  1  0
  4 37  1  0
  5 38  1  0
 10 39  1  0
 10 40  1  0
 18 41  1  0
 18 42  1  0
 19 43  1  0
 19 44  1  0
 20 45  1  0
 20 46  1  0
 21 47  1  0
 21 48  1  0
 22 49  1  0
 28 50  1  0
 29 51  1  0
 30 52  1  0
 31 53  1  0
 33 54  1  0
 33 55  1  0
 33 56  1  0
M  CHG  4   7  -1  13  -1  17  -1  24  -1
M  END
>  <UniqueID>  (54) 
54

>  <SMILES>  (54) 
COc1ccc([N-]C(=O)Cn2c([O-])c3c(c2[O-])CCCC3)cc1[N-]C(=O)c1ccccc1C

>  <Energy>  (54) 
100.4537808477314

>  <Genealogy>  (54) 
COc1ccc([N-]C(=O)Cn2c([O-])c3c(c2[O-])CCCC3)cc1[N-]C(=O)c1ccccc1C (protonated)
COc1ccc([N-]C(=O)Cn2c([O-])c3c(c2[O-])CCCC3)cc1[N-]C(=O)c1ccccc1C (3D coordinates assigned)
COc1ccc([N-]C(=O)Cn2c([O-])c3c(c2[O-])CCCC3)cc1[N-]C(=O)c1ccccc1C (nonaromatic ring conformer: 100.4537808477314 kcal/mol)

>  <smiles>  (54) 
COc1ccc(NC(=O)Cn2c(O)c3c(c2O)CCCC3)cc1NC(=O)c1ccccc1C

>  <score_type>  (54) 
oracle

>  <origin>  (54) 
adg

>  <m_score__min__energy>  (54) 
-15.699999999999999

>  <m_primary>  (54) 
energy

$$$$
54:0
     RDKit          3D

 46 49  0  0  0  0  0  0  0  0999 V2000
   59.8168   25.0637   46.6329 H   0  0  0  0  0  0  0  0  0  0  0  0
   58.7780   25.4030   46.5070 C   0  0  0  0  0  0  0  0  0  0  0  0
   58.5100   26.5090   45.7630 N   0  0  0  0  0  0  0  0  0  0  0  0
   57.2390   26.9680   45.5820 C   0  0  0  0  0  0  0  0  0  0  0  0
   56.9990   28.0190   44.8510 N   0  0  0  0  0  0  0  0  0  0  0  0
   56.6830   29.3400   45.3190 C   0  0  0  0  0  0  0  0  0  0  0  0
   55.5670   29.8690   45.0670 O   0  0  0  0  0  0  0  0  0  0  0  0
   57.6540   30.0930   46.0500 N   0  0  0  0  0  0  0  0  0  0  0  0
   58.0010   31.4620   45.7970 C   0  0  0  0  0  0  0  0  0  0  0  0
   57.0520   32.2680   45.1540 C   0  0  0  0  0  0  0  0  0  0  0  0
   56.0641   31.8535   44.9047 H   0  0  0  0  0  0  0  0  0  0  0  0
   57.3490   33.5920   44.8270 C   0  0  0  0  0  0  0  0  0  0  0  0
   56.5986   34.2132   44.3161 H   0  0  0  0  0  0  0  0  0  0  0  0
   58.5950   34.1280   45.1470 C   0  0  0  0  0  0  0  0  0  0  0  0
   58.8346   35.1650   44.8693 H   0  0  0  0  0  0  0  0  0  0  0  0
   59.5400   33.3500   45.8200 C   0  0  0  0  0  0  0  0  0  0  0  0
   60.5208   33.7800   46.0712 H   0  0  0  0  0  0  0  0  0  0  0  0
   59.2490   32.0230   46.1790 C   0  0  0  0  0  0  0  0  0  0  0  0
   60.2480   31.2780   46.9810 C   0  0  0  0  0  0  0  0  0  0  0  0
   61.0700   30.5290   46.3860 O   0  0  0  0  0  0  0  0  0  0  0  0
   60.3180   31.4120   48.4150 N   0  0  0  0  0  0  0  0  0  0  0  0
   59.2590   30.8840   49.2830 C   0  0  0  0  0  0  0  0  0  0  0  0
   59.6137   29.9563   49.7557 H   0  0  0  0  0  0  0  0  0  0  0  0
   58.3693   30.6933   48.6649 H   0  0  0  0  0  0  0  0  0  0  0  0
   58.8830   31.8730   50.3630 C   0  0  0  0  0  0  0  0  0  0  0  0
   57.7710   31.5990   51.1750 C   0  0  0  0  0  0  0  0  0  0  0  0
   57.1782   30.6887   51.0017 H   0  0  0  0  0  0  0  0  0  0  0  0
   57.4130   32.4760   52.2020 C   0  0  0  0  0  0  0  0  0  0  0  0
   56.5379   32.2558   52.8310 H   0  0  0  0  0  0  0  0  0  0  0  0
   58.1620   33.6300   52.4320 C   0  0  0  0  0  0  0  0  0  0  0  0
   57.8751   34.3195   53.2396 H   0  0  0  0  0  0  0  0  0  0  0  0
   59.2770   33.9110   51.6370 C   0  0  0  0  0  0  0  0  0  0  0  0
   59.8596   34.8265   51.8170 H   0  0  0  0  0  0  0  0  0  0  0  0
   59.6580   33.0330   50.6110 C   0  0  0  0  0  0  0  0  0  0  0  0
   60.8350   33.3920   49.7360 C   0  0  0  0  0  0  0  0  0  0  0  0
   61.6179   33.8491   50.3590 H   0  0  0  0  0  0  0  0  0  0  0  0
   60.4905   34.0954   48.9637 H   0  0  0  0  0  0  0  0  0  0  0  0
   61.4090   32.1600   49.0420 C   0  0  0  0  0  0  0  0  0  0  0  0
   61.9151   31.5226   49.7820 H   0  0  0  0  0  0  0  0  0  0  0  0
   62.1342   32.4705   48.2754 H   0  0  0  0  0  0  0  0  0  0  0  0
   56.1680   26.2800   46.1730 C   0  0  0  0  0  0  0  0  0  0  0  0
   54.8590   26.7170   45.9970 O   0  0  0  0  0  0  0  0  0  0  0  0
   56.4250   25.1410   46.9400 C   0  0  0  0  0  0  0  0  0  0  0  0
   55.5937   24.5940   47.4087 H   0  0  0  0  0  0  0  0  0  0  0  0
   57.7360   24.6980   47.1110 C   0  0  0  0  0  0  0  0  0  0  0  0
   57.9465   23.8031   47.7150 H   0  0  0  0  0  0  0  0  0  0  0  0
  1  2  1  0
  2  3  1  0
  3  4  1  0
  4  5  2  0
  5  6  1  0
  6  7  2  0
  6  8  1  0
  8  9  1  0
  9 10  2  0
 10 11  1  0
 10 12  1  0
 12 13  1  0
 12 14  2  0
 14 15  1  0
 14 16  1  0
 16 17  1  0
 16 18  2  0
 18 19  1  0
 19 20  2  0
 19 21  1  0
 21 22  1  0
 22 23  1  0
 22 24  1  0
 22 25  1  0
 25 26  2  0
 26 27  1  0
 26 28  1  0
 28 29  1  0
 28 30  2  0
 30 31  1  0
 30 32  1  0
 32 33  1  0
 32 34  2  0
 34 35  1  0
 35 36  1  0
 35 37  1  0
 35 38  1  0
 38 39  1  0
 38 40  1  0
  4 41  1  0
 41 42  1  0
 41 43  2  0
 43 44  1  0
 43 45  1  0
 45 46  1  0
 45  2  2  0
 18  9  1  0
 38 21  1  0
 34 25  1  0
M  CHG  3   3  -1   8  -1  42  -1
M  END
>  <UniqueID>  (55) 
55

>  <SMILES>  (55) 
O=C(/N=c1\[n-]cccc1[O-])[N-]c1ccccc1C(=O)N1CCc2ccccc2C1

>  <Energy>  (55) 
65.93814428323041

>  <Genealogy>  (55) 
O=C(N=c1[n-]cccc1[O-])[N-]c1ccccc1C(=O)N1CCc2ccccc2C1 (protonated)
O=C(/N=c1\[n-]cccc1[O-])[N-]c1ccccc1C(=O)N1CCc2ccccc2C1 (cis-trans isomerization)
O=C(/N=c1\[n-]cccc1[O-])[N-]c1ccccc1C(=O)N1CCc2ccccc2C1 (3D coordinates assigned)
O=C(/N=c1\[n-]cccc1[O-])[N-]c1ccccc1C(=O)N1CCc2ccccc2C1 (nonaromatic ring conformer: 65.93814428323041 kcal/mol)

>  <smiles>  (55) 
O=C(N=c1[nH]cccc1O)Nc1ccccc1C(=O)N1CCc2ccccc2C1

>  <score_type>  (55) 
oracle

>  <origin>  (55) 
adg

>  <m_score__min__energy>  (55) 
-15.26

>  <m_primary>  (55) 
energy

$$$$
55:0
     RDKit          3D

 45 47  0  0  0  0  0  0  0  0999 V2000
   57.4500   32.1180   43.9100 C   0  0  0  0  0  0  0  0  0  0  0  0
   57.9870   32.7330   45.2070 C   0  0  2  0  0  0  0  0  0  0  0  0
   59.2700   33.5240   44.9450 C   0  0  0  0  0  0  0  0  0  0  0  0
   59.8170   34.1790   46.2360 C   0  0  1  0  0  0  0  0  0  0  0  0
   59.6400   35.7030   46.1970 C   0  0  0  0  0  0  0  0  0  0  0  0
   59.1850   33.6060   47.5310 C   0  0  0  0  0  0  0  0  0  0  0  0
   58.9190   32.1530   47.4840 N   0  0  0  0  0  0  0  0  0  0  0  0
   60.2900   31.1890   47.9910 S   0  0  0  0  0  0  0  0  0  0  0  0
   61.5390   31.7460   47.3670 O   0  0  0  0  0  0  0  0  0  0  0  0
   60.4410   31.2740   49.4840 O   0  0  0  0  0  0  0  0  0  0  0  0
   60.1130   29.4970   47.5270 C   0  0  0  0  0  0  0  0  0  0  0  0
   59.7910   28.5290   48.4880 C   0  0  0  0  0  0  0  0  0  0  0  0
   59.5710   27.2030   48.1070 C   0  0  0  0  0  0  0  0  0  0  0  0
   59.6630   26.8300   46.7570 C   0  0  0  0  0  0  0  0  0  0  0  0
   59.3700   25.4400   46.3480 C   0  0  0  0  0  0  0  0  0  0  0  0
   60.2040   24.8150   45.6410 O   0  0  0  0  0  0  0  0  0  0  0  0
   58.1430   24.7900   46.7030 N   0  0  0  0  0  0  0  0  0  0  0  0
   56.8290   25.3030   46.4480 C   0  0  0  0  0  0  0  0  0  0  0  0
   55.6780   24.5940   46.1730 C   0  0  0  0  0  0  0  0  0  0  0  0
   54.6950   25.4750   45.9040 N   0  0  0  0  0  0  0  0  0  0  0  0
   55.1890   26.7040   45.9870 N   0  0  0  0  0  0  0  0  0  0  0  0
   56.4950   26.6260   46.3080 C   0  0  0  0  0  0  0  0  0  0  0  0
   60.0390   27.7910   45.8040 C   0  0  0  0  0  0  0  0  0  0  0  0
   60.2660   29.1150   46.1870 C   0  0  0  0  0  0  0  0  0  0  0  0
   58.2760   31.6380   46.2510 C   0  0  0  0  0  0  0  0  0  0  0  0
   56.7443   31.3097   44.1522 H   0  0  0  0  0  0  0  0  0  0  0  0
   56.9336   32.8922   43.3234 H   0  0  0  0  0  0  0  0  0  0  0  0
   58.2867   31.7107   43.3234 H   0  0  0  0  0  0  0  0  0  0  0  0
   57.2146   33.4132   45.5953 H   0  0  0  0  0  0  0  0  0  0  0  0
   60.0326   32.8415   44.5417 H   0  0  0  0  0  0  0  0  0  0  0  0
   59.0366   34.3252   44.2284 H   0  0  0  0  0  0  0  0  0  0  0  0
   60.8890   33.9341   46.2660 H   0  0  0  0  0  0  0  0  0  0  0  0
   59.5947   36.0933   47.2244 H   0  0  0  0  0  0  0  0  0  0  0  0
   60.4914   36.1576   45.6693 H   0  0  0  0  0  0  0  0  0  0  0  0
   58.7071   35.9504   45.6693 H   0  0  0  0  0  0  0  0  0  0  0  0
   59.8720   33.8040   48.3669 H   0  0  0  0  0  0  0  0  0  0  0  0
   58.2107   34.1018   47.6533 H   0  0  0  0  0  0  0  0  0  0  0  0
   59.7111   28.8146   49.5473 H   0  0  0  0  0  0  0  0  0  0  0  0
   59.3246   26.4481   48.8682 H   0  0  0  0  0  0  0  0  0  0  0  0
   55.5798   23.4984   46.1733 H   0  0  0  0  0  0  0  0  0  0  0  0
   57.1779   27.4788   46.4361 H   0  0  0  0  0  0  0  0  0  0  0  0
   60.1554   27.4992   44.7498 H   0  0  0  0  0  0  0  0  0  0  0  0
   60.5656   29.8599   45.4351 H   0  0  0  0  0  0  0  0  0  0  0  0
   58.9428   30.8905   45.7964 H   0  0  0  0  0  0  0  0  0  0  0  0
   57.3076   31.2077   46.5459 H   0  0  0  0  0  0  0  0  0  0  0  0
  1  2  1  0
  2  3  1  0
  3  4  1  0
  4  5  1  0
  4  6  1  0
  6  7  1  0
  7  8  1  0
  8  9  2  0
  8 10  2  0
  8 11  1  0
 11 12  2  0
 12 13  1  0
 13 14  2  0
 14 15  1  0
 15 16  2  0
 15 17  1  0
 17 18  1  0
 18 19  1  0
 19 20  2  0
 20 21  1  0
 21 22  1  0
 14 23  1  0
 23 24  2  0
  7 25  1  0
 25  2  1  0
 24 11  1  0
 22 18  2  0
  1 26  1  0
  1 27  1  0
  1 28  1  0
  2 29  1  1
  3 30  1  0
  3 31  1  0
  4 32  1  1
  5 33  1  0
  5 34  1  0
  5 35  1  0
  6 36  1  0
  6 37  1  0
 12 38  1  0
 13 39  1  0
 19 40  1  0
 22 41  1  0
 23 42  1  0
 24 43  1  0
 25 44  1  0
 25 45  1  0
M  CHG  2  17  -1  21  -1
M  END
>  <UniqueID>  (56) 
56

>  <SMILES>  (56) 
C[C@@H]1C[C@@H](C)CN(S(=O)(=O)c2ccc(C(=O)[N-]c3cn[n-]c3)cc2)C1

>  <Energy>  (56) 
86.12447119168736

>  <Genealogy>  (56) 
CC1CC(C)CN(S(=O)(=O)c2ccc(C(=O)[N-]c3cn[n-]c3)cc2)C1 (protonated)
C[C@@H]1C[C@@H](C)CN(S(=O)(=O)c2ccc(C(=O)[N-]c3cn[n-]c3)cc2)C1 (chirality)
C[C@@H]1C[C@@H](C)CN(S(=O)(=O)c2ccc(C(=O)[N-]c3cn[n-]c3)cc2)C1 (3D coordinates assigned)
C[C@@H]1C[C@@H](C)CN(S(=O)(=O)c2ccc(C(=O)[N-]c3cn[n-]c3)cc2)C1 (nonaromatic ring conformer: 86.12447119168736 kcal/mol)

>  <smiles>  (56) 
CC1CC(C)CN(S(=O)(=O)c2ccc(C(=O)Nc3cn[nH]c3)cc2)C1

>  <score_type>  (56) 
oracle

>  <origin>  (56) 
adg

>  <m_score__min__energy>  (56) 
-12.75

>  <m_primary>  (56) 
energy

$$$$
56:0
     RDKit          3D

 34 35  0  0  0  0  0  0  0  0999 V2000
   59.5393   26.9540   44.5538 H   0  0  0  0  0  0  0  0  0  0  0  0
   58.4570   27.1440   44.5040 C   0  0  0  0  0  0  0  0  0  0  0  0
   57.9664   27.2778   43.5286 H   0  0  0  0  0  0  0  0  0  0  0  0
   57.7410   27.2120   45.6240 C   0  0  0  0  0  0  0  0  0  0  0  0
   58.2544   27.0749   46.5871 H   0  0  0  0  0  0  0  0  0  0  0  0
   56.2910   27.4630   45.6270 C   0  0  0  0  0  0  0  0  0  0  0  0
   55.5230   26.5590   46.0500 O   0  0  0  0  0  0  0  0  0  0  0  0
   55.7770   28.7510   45.2410 N   0  0  0  0  0  0  0  0  0  0  0  0
   56.3500   29.6940   44.5460 C   0  0  0  0  0  0  0  0  0  0  0  0
   57.0770   30.6300   45.2170 N   0  0  0  0  0  0  0  0  0  0  0  0
   57.7290   31.6550   44.5970 C   0  0  0  0  0  0  0  0  0  0  0  0
   58.4880   32.6330   45.4160 C   0  0  0  0  0  0  0  0  0  0  0  0
   58.1500   33.9960   45.4330 C   0  0  0  0  0  0  0  0  0  0  0  0
   57.3077   34.3634   44.8284 H   0  0  0  0  0  0  0  0  0  0  0  0
   58.8860   34.8820   46.2190 C   0  0  0  0  0  0  0  0  0  0  0  0
   58.6115   35.9469   46.2430 H   0  0  0  0  0  0  0  0  0  0  0  0
   59.9400   34.4410   46.9560 N   0  0  0  0  0  0  0  0  0  0  0  0
   60.4150   35.1440   47.5610 H   0  0  0  0  0  0  0  0  0  0  0  0
   60.3240   33.1260   46.9390 C   0  0  0  0  0  0  0  0  0  0  0  0
   61.3340   32.6810   47.6350 N   0  0  0  0  0  0  0  0  0  0  0  0
   62.3300   33.4290   48.3490 C   0  0  0  0  0  0  0  0  0  0  0  0
   62.0330   34.4950   48.9540 O   0  0  0  0  0  0  0  0  0  0  0  0
   63.7630   33.0250   48.2410 C   0  0  0  0  0  0  0  0  0  0  0  0
   64.3863   33.7608   48.7702 H   0  0  0  0  0  0  0  0  0  0  0  0
   64.1280   32.9760   46.9080 F   0  0  0  0  0  0  0  0  0  0  0  0
   63.9450   31.7790   48.8110 F   0  0  0  0  0  0  0  0  0  0  0  0
   59.5880   32.2070   46.1770 C   0  0  0  0  0  0  0  0  0  0  0  0
   59.8747   31.1450   46.1756 H   0  0  0  0  0  0  0  0  0  0  0  0
   57.6470   31.7630   43.1990 C   0  0  0  0  0  0  0  0  0  0  0  0
   58.1469   32.5925   42.6775 H   0  0  0  0  0  0  0  0  0  0  0  0
   56.9280   30.8120   42.4770 C   0  0  0  0  0  0  0  0  0  0  0  0
   56.8699   30.8844   41.3809 H   0  0  0  0  0  0  0  0  0  0  0  0
   56.2820   29.7690   43.1400 C   0  0  0  0  0  0  0  0  0  0  0  0
   55.7240   29.0111   42.5705 H   0  0  0  0  0  0  0  0  0  0  0  0
  1  2  1  0
  2  3  1  0
  2  4  2  0
  4  5  1  0
  4  6  1  0
  6  7  2  0
  6  8  1  0
  8  9  2  3
  9 10  1  0
 10 11  1  0
 11 12  1  0
 12 13  1  0
 13 14  1  0
 13 15  2  0
 15 16  1  0
 15 17  1  0
 17 18  1  0
 17 19  1  0
 19 20  2  0
 20 21  1  0
 21 22  2  0
 21 23  1  0
 23 24  1  0
 23 25  1  0
 23 26  1  0
 19 27  1  0
 27 28  1  0
 11 29  2  0
 29 30  1  0
 29 31  1  0
 31 32  1  0
 31 33  2  0
 33 34  1  0
 33  9  1  0
 27 12  2  0
M  CHG  1  10  -1
M  END
>  <UniqueID>  (57) 
57

>  <SMILES>  (57) 
C=CC(=O)N=c1cccc(-c2cc[nH]/c(=N\C(=O)C(F)F)c2)[n-]1

>  <Energy>  (57) 
50.10955177172014

>  <Genealogy>  (57) 
C=CC(=O)N=c1cccc(-c2cc[nH]c(=NC(=O)C(F)F)c2)[n-]1 (protonated)
C=CC(=O)N=c1cccc(-c2cc[nH]/c(=N\C(=O)C(F)F)c2)[n-]1 (cis-trans isomerization)
C=CC(=O)N=c1cccc(-c2cc[nH]/c(=N\C(=O)C(F)F)c2)[n-]1 (3D coordinates assigned)
C=CC(=O)N=c1cccc(-c2cc[nH]/c(=N\C(=O)C(F)F)c2)[n-]1 (optimized conformer: 50.10955177172014 kcal/mol)

>  <smiles>  (57) 
C=CC(=O)N=c1cccc(-c2cc[nH]c(=NC(=O)C(F)F)c2)[nH]1

>  <score_type>  (57) 
oracle

>  <origin>  (57) 
adg

>  <m_score__min__energy>  (57) 
-8.9499999999999993

>  <m_primary>  (57) 
energy

$$$$
57:0
     RDKit          3D

 37 39  0  0  0  0  0  0  0  0999 V2000
   64.6395   32.0983   47.8030 H   0  0  0  0  0  0  0  0  0  0  0  0
   63.6050   32.3900   47.5690 C   0  0  0  0  0  0  0  0  0  0  0  0
   62.5650   31.7010   48.1120 N   0  0  0  0  0  0  0  0  0  0  0  0
   61.2670   32.0290   47.8500 C   0  0  0  0  0  0  0  0  0  0  0  0
   60.2810   31.3580   48.3690 N   0  0  0  0  0  0  0  0  0  0  0  0
   58.8760   31.6470   48.2500 C   0  0  0  0  0  0  0  0  0  0  0  0
   58.2700   32.2850   49.1510 O   0  0  0  0  0  0  0  0  0  0  0  0
   58.1620   31.2910   47.0600 N   0  0  0  0  0  0  0  0  0  0  0  0
   57.8440   32.0800   46.0740 C   0  0  0  0  0  0  0  0  0  0  0  0
   57.3760   33.7630   46.3830 S   0  0  0  0  0  0  0  0  0  0  0  0
   57.7110   34.1490   44.6250 C   0  0  0  0  0  0  0  0  0  0  0  0
   56.7606   34.3334   44.1028 H   0  0  0  0  0  0  0  0  0  0  0  0
   58.3451   35.0456   44.5615 H   0  0  0  0  0  0  0  0  0  0  0  0
   58.4330   32.9660   43.9690 C   0  0  0  0  0  0  0  0  0  0  0  0
   58.1223   32.8729   42.9179 H   0  0  0  0  0  0  0  0  0  0  0  0
   59.5224   33.1160   43.9939 H   0  0  0  0  0  0  0  0  0  0  0  0
   58.0650   31.7640   44.7040 N   0  0  0  0  0  0  0  0  0  0  0  0
   57.3490   30.6650   44.0420 C   0  0  0  0  0  0  0  0  0  0  0  0
   56.2748   30.9002   44.0125 H   0  0  0  0  0  0  0  0  0  0  0  0
   57.7435   30.5506   43.0216 H   0  0  0  0  0  0  0  0  0  0  0  0
   57.5520   29.3670   44.7890 C   0  0  0  0  0  0  0  0  0  0  0  0
   58.8540   28.9210   45.0770 C   0  0  0  0  0  0  0  0  0  0  0  0
   59.7184   29.5375   44.7894 H   0  0  0  0  0  0  0  0  0  0  0  0
   59.0580   27.7000   45.7260 C   0  0  0  0  0  0  0  0  0  0  0  0
   60.6870   27.1530   46.0760 Cl  0  0  0  0  0  0  0  0  0  0  0  0
   57.9630   26.9140   46.0940 C   0  0  0  0  0  0  0  0  0  0  0  0
   58.1237   25.9533   46.6051 H   0  0  0  0  0  0  0  0  0  0  0  0
   56.6650   27.3460   45.8140 C   0  0  0  0  0  0  0  0  0  0  0  0
   55.8055   26.7244   46.1054 H   0  0  0  0  0  0  0  0  0  0  0  0
   56.4540   28.5670   45.1640 C   0  0  0  0  0  0  0  0  0  0  0  0
   55.1510   28.9760   44.8970 O   0  0  0  0  0  0  0  0  0  0  0  0
   60.9870   33.1020   46.9950 C   0  0  0  0  0  0  0  0  0  0  0  0
   59.9452   33.3759   46.7723 H   0  0  0  0  0  0  0  0  0  0  0  0
   62.0410   33.8220   46.4270 C   0  0  0  0  0  0  0  0  0  0  0  0
   61.8319   34.6668   45.7543 H   0  0  0  0  0  0  0  0  0  0  0  0
   63.3600   33.4670   46.7150 C   0  0  0  0  0  0  0  0  0  0  0  0
   64.1965   34.0292   46.2743 H   0  0  0  0  0  0  0  0  0  0  0  0
  1  2  1  0
  2  3  1  0
  3  4  1  0
  4  5  2  0
  5  6  1  0
  6  7  2  0
  6  8  1  0
  8  9  2  3
  9 10  1  0
 10 11  1  0
 11 12  1  0
 11 13  1  0
 11 14  1  0
 14 15  1  0
 14 16  1  0
 14 17  1  0
 17 18  1  0
 18 19  1  0
 18 20  1  0
 18 21  1  0
 21 22  2  0
 22 23  1  0
 22 24  1  0
 24 25  1  0
 24 26  2  0
 26 27  1  0
 26 28  1  0
 28 29  1  0
 28 30  2  0
 30 31  1  0
  4 32  1  0
 32 33  1  0
 32 34  2  0
 34 35  1  0
 34 36  1  0
 36 37  1  0
 36  2  2  0
 17  9  1  0
 30 21  1  0
M  CHG  2   3  -1  31  -1
M  END
>  <UniqueID>  (58) 
58

>  <SMILES>  (58) 
O=C(N=C1SCCN1Cc1cc(Cl)ccc1[O-])/N=c1/cccc[n-]1

>  <Energy>  (58) 
55.4325227838396

>  <Genealogy>  (58) 
O=C(N=C1SCCN1Cc1cc(Cl)ccc1[O-])N=c1cccc[n-]1 (protonated)
O=C(N=C1SCCN1Cc1cc(Cl)ccc1[O-])/N=c1/cccc[n-]1 (cis-trans isomerization)
O=C(N=C1SCCN1Cc1cc(Cl)ccc1[O-])/N=c1/cccc[n-]1 (3D coordinates assigned)
O=C(N=C1SCCN1Cc1cc(Cl)ccc1[O-])/N=c1/cccc[n-]1 (nonaromatic ring conformer: 55.4325227838396 kcal/mol)

>  <smiles>  (58) 
O=C(N=C1SCCN1Cc1cc(Cl)ccc1O)N=c1cccc[nH]1

>  <score_type>  (58) 
oracle

>  <origin>  (58) 
adg

>  <m_score__min__energy>  (58) 
-12.970000000000001

>  <m_primary>  (58) 
energy

$$$$
58:0
     RDKit          3D

 45 48  0  0  0  0  0  0  0  0999 V2000
   59.4819   30.9022   48.4076 H   0  0  0  0  0  0  0  0  0  0  0  0
   59.1000   30.3200   47.5560 C   0  0  0  0  0  0  0  0  0  0  0  0
   58.9624   29.2327   47.6506 H   0  0  0  0  0  0  0  0  0  0  0  0
   58.8020   30.9360   46.4020 C   0  0  0  0  0  0  0  0  0  0  0  0
   58.3080   30.3460   45.2260 C   0  0  0  0  0  0  0  0  0  0  0  0
   58.2140   29.0540   44.8520 C   0  0  0  0  0  0  0  0  0  0  0  0
   58.8295   28.7366   43.9973 H   0  0  0  0  0  0  0  0  0  0  0  0
   57.3650   28.0280   45.4800 C   0  0  0  0  0  0  0  0  0  0  0  0
   57.8140   26.8870   46.0390 N   0  0  0  0  0  0  0  0  0  0  0  0
   56.6790   26.2230   46.3450 C   0  0  0  0  0  0  0  0  0  0  0  0
   56.6830   25.1000   46.9130 O   0  0  0  0  0  0  0  0  0  0  0  0
   55.5390   26.8540   45.9890 N   0  0  0  0  0  0  0  0  0  0  0  0
   55.9930   27.9870   45.4300 C   0  0  0  0  0  0  0  0  0  0  0  0
   55.1700   28.9630   44.8780 O   0  0  0  0  0  0  0  0  0  0  0  0
   57.8980   31.3900   44.4120 C   0  0  0  0  0  0  0  0  0  0  0  0
   57.4111   31.3023   43.4295 H   0  0  0  0  0  0  0  0  0  0  0  0
   58.2170   32.5600   45.0690 C   0  0  0  0  0  0  0  0  0  0  0  0
   57.9770   33.9340   44.5220 C   0  0  0  0  0  0  0  0  0  0  0  0
   57.8531   34.6433   45.3536 H   0  0  0  0  0  0  0  0  0  0  0  0
   58.8356   34.2383   43.9054 H   0  0  0  0  0  0  0  0  0  0  0  0
   57.0661   33.9292   43.9054 H   0  0  0  0  0  0  0  0  0  0  0  0
   58.7680   32.2870   46.2720 N   0  0  0  0  0  0  0  0  0  0  0  0
   59.2110   33.2550   47.2350 C   0  0  0  0  0  0  0  0  0  0  0  0
   58.6150   33.3510   48.3410 O   0  0  0  0  0  0  0  0  0  0  0  0
   60.3640   34.1650   46.9310 C   0  0  0  0  0  0  0  0  0  0  0  0
   60.5973   34.1102   45.8574 H   0  0  0  0  0  0  0  0  0  0  0  0
   60.0906   35.1952   47.2029 H   0  0  0  0  0  0  0  0  0  0  0  0
   61.5740   33.7510   47.7250 C   0  0  0  0  0  0  0  0  0  0  0  0
   61.6110   33.9530   49.1110 C   0  0  0  0  0  0  0  0  0  0  0  0
   60.7722   34.4579   49.6125 H   0  0  0  0  0  0  0  0  0  0  0  0
   62.7070   33.5170   49.8600 C   0  0  0  0  0  0  0  0  0  0  0  0
   62.7266   33.6879   50.9465 H   0  0  0  0  0  0  0  0  0  0  0  0
   63.7850   32.8620   49.2390 C   0  0  0  0  0  0  0  0  0  0  0  0
   64.9110   32.3970   50.0140 N   0  0  0  0  0  0  0  0  0  0  0  0
   66.1450   32.9420   50.0750 C   0  0  0  0  0  0  0  0  0  0  0  0
   66.4412   33.8441   49.5196 H   0  0  0  0  0  0  0  0  0  0  0  0
   66.9750   32.2600   50.8910 N   0  0  0  0  0  0  0  0  0  0  0  0
   66.2240   31.2440   51.3600 C   0  0  0  0  0  0  0  0  0  0  0  0
   66.5694   30.4717   52.0631 H   0  0  0  0  0  0  0  0  0  0  0  0
   64.9580   31.3210   50.8240 C   0  0  0  0  0  0  0  0  0  0  0  0
   64.1293   30.6254   51.0224 H   0  0  0  0  0  0  0  0  0  0  0  0
   63.7390   32.6580   47.8460 C   0  0  0  0  0  0  0  0  0  0  0  0
   64.5747   32.1510   47.3415 H   0  0  0  0  0  0  0  0  0  0  0  0
   62.6410   33.0940   47.0990 C   0  0  0  0  0  0  0  0  0  0  0  0
   62.6147   32.9202   46.0131 H   0  0  0  0  0  0  0  0  0  0  0  0
  1  2  1  0
  2  3  1  0
  2  4  2  0
  4  5  1  0
  5  6  2  0
  6  7  1  0
  6  8  1  0
  8  9  1  0
  9 10  1  0
 10 11  2  0
 10 12  1  0
 12 13  1  0
 13 14  1  0
  5 15  1  0
 15 16  1  0
 15 17  2  0
 17 18  1  0
 18 19  1  0
 18 20  1  0
 18 21  1  0
 17 22  1  0
 22 23  1  0
 23 24  2  0
 23 25  1  0
 25 26  1  0
 25 27  1  0
 25 28  1  0
 28 29  2  0
 29 30  1  0
 29 31  1  0
 31 32  1  0
 31 33  2  0
 33 34  1  0
 34 35  1  0
 35 36  1  0
 35 37  2  0
 37 38  1  0
 38 39  1  0
 38 40  2  0
 40 41  1  0
 33 42  1  0
 42 43  1  0
 42 44  2  0
 44 45  1  0
 22  4  1  0
 44 28  1  0
 13  8  2  0
 40 34  1  0
M  CHG  3   9  -1  12  -1  14  -1
M  END
>  <UniqueID>  (59) 
59

>  <SMILES>  (59) 
C=c1/c(=C\c2[n-]c(=O)[n-]c2[O-])cc(C)n1C(=O)Cc1ccc(-n2ccnc2)cc1

>  <Energy>  (59) 
154.21910924423608

>  <Genealogy>  (59) 
C=c1c(=Cc2[n-]c(=O)[n-]c2[O-])cc(C)n1C(=O)Cc1ccc(-n2ccnc2)cc1 (protonated)
C=c1/c(=C\c2[n-]c(=O)[n-]c2[O-])cc(C)n1C(=O)Cc1ccc(-n2ccnc2)cc1 (cis-trans isomerization)
C=c1/c(=C\c2[n-]c(=O)[n-]c2[O-])cc(C)n1C(=O)Cc1ccc(-n2ccnc2)cc1 (3D coordinates assigned)
C=c1/c(=C\c2[n-]c(=O)[n-]c2[O-])cc(C)n1C(=O)Cc1ccc(-n2ccnc2)cc1 (optimized conformer: 154.21910924423608 kcal/mol)

>  <smiles>  (59) 
C=c1c(=Cc2[nH]c(=O)[nH]c2O)cc(C)n1C(=O)Cc1ccc(-n2ccnc2)cc1

>  <score_type>  (59) 
oracle

>  <origin>  (59) 
adg

>  <m_score__min__energy>  (59) 
-16.5

>  <m_primary>  (59) 
energy

$$$$
59:0
     RDKit          3D

 39 41  0  0  0  0  0  0  0  0999 V2000
   57.2930   22.7950   44.2500 C   0  0  0  0  0  0  0  0  0  0  0  0
   56.9010   23.9650   44.7590 C   0  0  0  0  0  0  0  0  0  0  0  0
   57.9760   25.1520   45.2700 S   0  0  0  0  0  0  0  0  0  0  0  0
   56.8230   26.2380   45.8410 C   0  0  0  0  0  0  0  0  0  0  0  0
   57.0410   27.4550   46.3690 C   0  0  0  0  0  0  0  0  0  0  0  0
   57.2270   28.7010   45.5970 C   0  0  0  0  0  0  0  0  0  0  0  0
   56.9940   28.9110   44.2490 C   0  0  0  0  0  0  0  0  0  0  0  0
   57.3540   30.2180   44.0030 C   0  0  0  0  0  0  0  0  0  0  0  0
   57.7930   30.7280   45.2140 C   0  0  0  0  0  0  0  0  0  0  0  0
   58.2960   32.0960   45.4780 C   0  0  0  0  0  0  0  0  0  0  0  0
   57.8760   33.1600   44.6590 C   0  0  0  0  0  0  0  0  0  0  0  0
   58.3380   34.4600   44.8900 C   0  0  0  0  0  0  0  0  0  0  0  0
   59.2250   34.7120   45.9390 C   0  0  0  0  0  0  0  0  0  0  0  0
   59.6730   35.9720   46.1610 F   0  0  0  0  0  0  0  0  0  0  0  0
   59.6510   33.6640   46.7590 C   0  0  0  0  0  0  0  0  0  0  0  0
   59.1910   32.3620   46.5320 C   0  0  0  0  0  0  0  0  0  0  0  0
   57.7090   29.7960   46.1370 O   0  0  0  0  0  0  0  0  0  0  0  0
   55.5660   25.6780   45.6180 C   0  0  0  0  0  0  0  0  0  0  0  0
   54.3830   26.3320   45.9530 O   0  0  0  0  0  0  0  0  0  0  0  0
   55.5900   24.4040   45.0110 C   0  0  0  0  0  0  0  0  0  0  0  0
   54.3540   23.6640   44.6680 C   0  0  0  0  0  0  0  0  0  0  0  0
   53.8790   23.7440   43.5010 O   0  0  0  0  0  0  0  0  0  0  0  0
   53.7310   22.8490   45.6180 O   0  0  0  0  0  0  0  0  0  0  0  0
   52.5290   23.2190   46.2840 C   0  0  0  0  0  0  0  0  0  0  0  0
   51.4700   23.5800   45.2560 C   0  0  0  0  0  0  0  0  0  0  0  0
   56.5439   22.0550   43.9317 H   0  0  0  0  0  0  0  0  0  0  0  0
   58.3651   22.5708   44.1488 H   0  0  0  0  0  0  0  0  0  0  0  0
   57.0845   27.5292   47.4656 H   0  0  0  0  0  0  0  0  0  0  0  0
   56.6018   28.1836   43.5229 H   0  0  0  0  0  0  0  0  0  0  0  0
   57.3032   30.7486   43.0408 H   0  0  0  0  0  0  0  0  0  0  0  0
   57.1786   32.9681   43.8302 H   0  0  0  0  0  0  0  0  0  0  0  0
   58.0022   35.2850   44.2445 H   0  0  0  0  0  0  0  0  0  0  0  0
   60.3497   33.8628   47.5850 H   0  0  0  0  0  0  0  0  0  0  0  0
   59.5307   31.5413   47.1809 H   0  0  0  0  0  0  0  0  0  0  0  0
   52.1742   22.3761   46.8952 H   0  0  0  0  0  0  0  0  0  0  0  0
   52.7214   24.0868   46.9320 H   0  0  0  0  0  0  0  0  0  0  0  0
   50.5503   23.8935   45.7716 H   0  0  0  0  0  0  0  0  0  0  0  0
   51.8363   24.4040   44.6261 H   0  0  0  0  0  0  0  0  0  0  0  0
   51.2567   22.7038   44.6261 H   0  0  0  0  0  0  0  0  0  0  0  0
  1  2  2  0
  2  3  1  0
  3  4  1  0
  4  5  2  3
  5  6  1  0
  6  7  2  0
  7  8  1  0
  8  9  2  0
  9 10  1  0
 10 11  2  0
 11 12  1  0
 12 13  2  0
 13 14  1  0
 13 15  1  0
 15 16  2  0
  9 17  1  0
  4 18  1  0
 18 19  1  0
 18 20  2  0
 20 21  1  0
 21 22  2  0
 21 23  1  0
 23 24  1  0
 24 25  1  0
 20  2  1  0
 17  6  1  0
 16 10  1  0
  1 26  1  0
  1 27  1  0
  5 28  1  0
  7 29  1  0
  8 30  1  0
 11 31  1  0
 12 32  1  0
 15 33  1  0
 16 34  1  0
 24 35  1  0
 24 36  1  0
 25 37  1  0
 25 38  1  0
 25 39  1  0
M  CHG  1  19  -1
M  END
>  <UniqueID>  (60) 
60

>  <SMILES>  (60) 
C=c1sc(=Cc2ccc(-c3ccc(F)cc3)o2)c([O-])c1C(=O)OCC

>  <Energy>  (60) 
98.61225081511341

>  <Genealogy>  (60) 
C=c1sc(=Cc2ccc(-c3ccc(F)cc3)o2)c([O-])c1C(=O)OCC (protonated)
C=c1sc(=Cc2ccc(-c3ccc(F)cc3)o2)c([O-])c1C(=O)OCC (3D coordinates assigned)
C=c1sc(=Cc2ccc(-c3ccc(F)cc3)o2)c([O-])c1C(=O)OCC (optimized conformer: 98.61225081511341 kcal/mol)

>  <smiles>  (60) 
C=c1sc(=Cc2ccc(-c3ccc(F)cc3)o2)c(O)c1C(=O)OCC

>  <score_type>  (60) 
oracle

>  <origin>  (60) 
adg

>  <m_score__min__energy>  (60) 
-12

>  <m_primary>  (60) 
energy

$$$$
60:0
     RDKit          3D

 44 47  0  0  0  0  0  0  0  0999 V2000
   59.7930   30.2690   45.9700 O   0  0  0  0  0  0  0  0  0  0  0  0
   58.6690   30.5780   45.4820 C   0  0  0  0  0  0  0  0  0  0  0  0
   57.7220   29.5650   45.2260 C   0  0  0  0  0  0  0  0  0  0  0  0
   58.0440   28.1400   45.4870 C   0  0  0  0  0  0  0  0  0  0  0  0
   58.8870   27.8390   46.4360 N   0  0  0  0  0  0  0  0  0  0  0  0
   59.3250   26.2160   46.8230 S   0  0  0  0  0  0  0  0  0  0  0  0
   60.8150   26.0590   46.7120 O   0  0  0  0  0  0  0  0  0  0  0  0
   58.8670   25.8860   48.2150 O   0  0  0  0  0  0  0  0  0  0  0  0
   58.5390   25.1670   45.6790 C   0  0  0  0  0  0  0  0  0  0  0  0
   58.7600   23.7850   45.7070 C   0  0  0  0  0  0  0  0  0  0  0  0
   58.1310   22.9790   44.8120 N   0  0  0  0  0  0  0  0  0  0  0  0
   57.2820   23.4810   43.8760 C   0  0  0  0  0  0  0  0  0  0  0  0
   57.0360   24.8550   43.8190 C   0  0  0  0  0  0  0  0  0  0  0  0
   57.6710   25.7140   44.7290 C   0  0  0  0  0  0  0  0  0  0  0  0
   57.4140   27.1290   44.6690 N   0  0  0  0  0  0  0  0  0  0  0  0
   56.4650   29.9280   44.7140 C   0  0  0  0  0  0  0  0  0  0  0  0
   55.5080   28.9630   44.4210 O   0  0  0  0  0  0  0  0  0  0  0  0
   56.1730   31.2690   44.4830 C   0  0  0  0  0  0  0  0  0  0  0  0
   57.1360   32.2410   44.7460 C   0  0  0  0  0  0  0  0  0  0  0  0
   58.3690   31.8930   45.2230 N   0  0  0  0  0  0  0  0  0  0  0  0
   59.3410   32.9590   45.5120 C   0  0  0  0  0  0  0  0  0  0  0  0
   59.5620   33.0830   47.0220 C   0  0  0  0  0  0  0  0  0  0  0  0
   61.0250   33.2460   47.3330 C   0  0  0  0  0  0  0  0  0  0  0  0
   61.5280   32.8720   48.5910 C   0  0  0  0  0  0  0  0  0  0  0  0
   62.8940   32.9940   48.8670 C   0  0  0  0  0  0  0  0  0  0  0  0
   63.7660   33.4810   47.8880 C   0  0  0  0  0  0  0  0  0  0  0  0
   63.2740   33.8420   46.6310 C   0  0  0  0  0  0  0  0  0  0  0  0
   61.9100   33.7220   46.3500 C   0  0  0  0  0  0  0  0  0  0  0  0
   59.3450   28.5950   46.9920 H   0  0  0  0  0  0  0  0  0  0  0  0
   59.4424   23.3518   46.4531 H   0  0  0  0  0  0  0  0  0  0  0  0
   56.7883   22.8045   43.1629 H   0  0  0  0  0  0  0  0  0  0  0  0
   56.3473   25.2619   43.0639 H   0  0  0  0  0  0  0  0  0  0  0  0
   56.7080   27.4570   43.9710 H   0  0  0  0  0  0  0  0  0  0  0  0
   55.1860   31.5603   44.0944 H   0  0  0  0  0  0  0  0  0  0  0  0
   56.9014   33.3008   44.5677 H   0  0  0  0  0  0  0  0  0  0  0  0
   60.2973   32.7199   45.0239 H   0  0  0  0  0  0  0  0  0  0  0  0
   58.9498   33.9129   45.1286 H   0  0  0  0  0  0  0  0  0  0  0  0
   59.0132   33.9596   47.3966 H   0  0  0  0  0  0  0  0  0  0  0  0
   59.1963   32.1673   47.5096 H   0  0  0  0  0  0  0  0  0  0  0  0
   60.8456   32.4823   49.3607 H   0  0  0  0  0  0  0  0  0  0  0  0
   63.2827   32.7066   49.8551 H   0  0  0  0  0  0  0  0  0  0  0  0
   64.8393   33.5799   48.1076 H   0  0  0  0  0  0  0  0  0  0  0  0
   63.9616   34.2215   45.8608 H   0  0  0  0  0  0  0  0  0  0  0  0
   61.5280   34.0008   45.3568 H   0  0  0  0  0  0  0  0  0  0  0  0
  1  2  2  0
  2  3  1  0
  3  4  1  0
  4  5  2  0
  5  6  1  0
  6  7  2  0
  6  8  2  0
  6  9  1  0
  9 10  2  0
 10 11  1  0
 11 12  2  0
 12 13  1  0
 13 14  2  0
 14 15  1  0
  3 16  2  0
 16 17  1  0
 16 18  1  0
 18 19  2  0
 19 20  1  0
 20 21  1  0
 21 22  1  0
 22 23  1  0
 23 24  2  0
 24 25  1  0
 25 26  2  0
 26 27  1  0
 27 28  2  0
 20  2  1  0
 28 23  1  0
 15  4  1  0
 14  9  1  0
  5 29  1  0
 10 30  1  0
 12 31  1  0
 13 32  1  0
 15 33  1  0
 18 34  1  0
 19 35  1  0
 21 36  1  0
 21 37  1  0
 22 38  1  0
 22 39  1  0
 24 40  1  0
 25 41  1  0
 26 42  1  0
 27 43  1  0
 28 44  1  0
M  CHG  2   5   1  17  -1
M  END
>  <UniqueID>  (61) 
61

>  <SMILES>  (61) 
O=c1c(C2=[NH+]S(=O)(=O)c3cnccc3N2)c([O-])ccn1CCc1ccccc1

>  <Energy>  (61) 
60.89474741049523

>  <Genealogy>  (61) 
O=c1c(C2=[NH+]S(=O)(=O)c3cnccc3N2)c([O-])ccn1CCc1ccccc1 (protonated)
O=c1c(C2=[NH+]S(=O)(=O)c3cnccc3N2)c([O-])ccn1CCc1ccccc1 (3D coordinates assigned)
O=c1c(C2=[NH+]S(=O)(=O)c3cnccc3N2)c([O-])ccn1CCc1ccccc1 (nonaromatic ring conformer: 60.89474741049523 kcal/mol)

>  <smiles>  (61) 
O=c1c(C2=NS(=O)(=O)c3cnccc3N2)c(O)ccn1CCc1ccccc1

>  <score_type>  (61) 
oracle

>  <origin>  (61) 
adg

>  <m_score__min__energy>  (61) 
-9.0199999999999996

>  <m_primary>  (61) 
energy

$$$$
61:0
     RDKit          3D

 60 63  0  0  0  0  0  0  0  0999 V2000
   61.6450   29.3820   51.6680 O   0  0  0  0  0  0  0  0  0  0  0  0
   60.6380   28.8210   51.1650 C   0  0  0  0  0  0  0  0  0  0  0  0
   59.3270   28.8910   51.8920 C   0  0  0  0  0  0  0  0  0  0  0  0
   58.4710   29.8340   51.2530 O   0  0  0  0  0  0  0  0  0  0  0  0
   58.5050   31.2220   51.4650 C   0  0  0  0  0  0  0  0  0  0  0  0
   59.5900   32.0200   51.0500 C   0  0  0  0  0  0  0  0  0  0  0  0
   59.5900   33.3950   51.3010 C   0  0  0  0  0  0  0  0  0  0  0  0
   58.5090   33.9860   51.9620 C   0  0  0  0  0  0  0  0  0  0  0  0
   57.4270   33.2050   52.3720 C   0  0  0  0  0  0  0  0  0  0  0  0
   57.4220   31.8270   52.1240 C   0  0  0  0  0  0  0  0  0  0  0  0
   56.0560   30.8620   52.6680 Cl  0  0  0  0  0  0  0  0  0  0  0  0
   60.7720   28.1660   49.8930 N   0  0  0  0  0  0  0  0  0  0  0  0
   60.0320   28.4750   48.7030 C   0  0  0  0  0  0  0  0  0  0  0  0
   59.7520   27.4940   47.7410 C   0  0  0  0  0  0  0  0  0  0  0  0
   58.9840   27.8080   46.6170 C   0  0  0  0  0  0  0  0  0  0  0  0
   58.5060   29.1160   46.4250 C   0  0  0  0  0  0  0  0  0  0  0  0
   57.6670   29.4450   45.2540 C   0  0  0  0  0  0  0  0  0  0  0  0
   56.4510   29.1120   45.2330 O   0  0  0  0  0  0  0  0  0  0  0  0
   58.2230   30.1340   44.1680 O   0  0  0  0  0  0  0  0  0  0  0  0
   58.5170   31.5250   44.2130 C   0  0  0  0  0  0  0  0  0  0  0  0
   57.3800   32.2500   44.8650 C   0  0  0  0  0  0  0  0  0  0  0  0
   56.2360   31.7220   44.8660 O   0  0  0  0  0  0  0  0  0  0  0  0
   57.5960   33.4730   45.5890 N   0  0  0  0  0  0  0  0  0  0  0  0
   58.3280   34.5950   44.9790 C   0  0  0  0  0  0  0  0  0  0  0  0
   59.3960   35.1400   45.9460 C   0  0  0  0  0  0  0  0  0  0  0  0
   59.8580   34.0710   46.8480 N   0  0  0  0  0  0  0  0  0  0  0  0
   61.2340   33.6320   46.8120 C   0  0  0  0  0  0  0  0  0  0  0  0
   61.9200   33.8110   45.7680 O   0  0  0  0  0  0  0  0  0  0  0  0
   61.8590   32.9500   47.9630 C   0  0  0  0  0  0  0  0  0  0  0  0
   62.2690   31.6270   47.9910 C   0  0  0  0  0  0  0  0  0  0  0  0
   62.7670   31.4190   49.2610 C   0  0  0  0  0  0  0  0  0  0  0  0
   62.6380   32.6220   49.9250 C   0  0  0  0  0  0  0  0  0  0  0  0
   62.0970   33.5140   49.1260 O   0  0  0  0  0  0  0  0  0  0  0  0
   58.8620   33.3510   47.6640 C   0  0  0  0  0  0  0  0  0  0  0  0
   57.4610   33.4600   47.0460 C   0  0  0  0  0  0  0  0  0  0  0  0
   58.8380   30.1080   47.3650 C   0  0  0  0  0  0  0  0  0  0  0  0
   59.6030   29.7880   48.4890 C   0  0  0  0  0  0  0  0  0  0  0  0
   58.8504   27.8997   51.8820 H   0  0  0  0  0  0  0  0  0  0  0  0
   59.5039   29.2065   52.9308 H   0  0  0  0  0  0  0  0  0  0  0  0
   60.4404   31.5588   50.5264 H   0  0  0  0  0  0  0  0  0  0  0  0
   60.4411   34.0126   50.9782 H   0  0  0  0  0  0  0  0  0  0  0  0
   58.5111   35.0682   52.1593 H   0  0  0  0  0  0  0  0  0  0  0  0
   56.5772   33.6728   52.8906 H   0  0  0  0  0  0  0  0  0  0  0  0
   60.1388   26.4726   47.8719 H   0  0  0  0  0  0  0  0  0  0  0  0
   58.7520   27.0271   45.8778 H   0  0  0  0  0  0  0  0  0  0  0  0
   59.4374   31.6875   44.7930 H   0  0  0  0  0  0  0  0  0  0  0  0
   58.6587   31.9051   43.1905 H   0  0  0  0  0  0  0  0  0  0  0  0
   58.8188   34.2475   44.0580 H   0  0  0  0  0  0  0  0  0  0  0  0
   57.6140   35.4002   44.7513 H   0  0  0  0  0  0  0  0  0  0  0  0
   60.2500   35.5212   45.3669 H   0  0  0  0  0  0  0  0  0  0  0  0
   58.9571   35.9511   46.5456 H   0  0  0  0  0  0  0  0  0  0  0  0
   62.2099   30.8952   47.1719 H   0  0  0  0  0  0  0  0  0  0  0  0
   63.1828   30.4833   49.6630 H   0  0  0  0  0  0  0  0  0  0  0  0
   62.9421   32.8063   50.9659 H   0  0  0  0  0  0  0  0  0  0  0  0
   59.1465   32.2902   47.7253 H   0  0  0  0  0  0  0  0  0  0  0  0
   58.8385   33.8026   48.6668 H   0  0  0  0  0  0  0  0  0  0  0  0
   56.8513   32.5980   47.3545 H   0  0  0  0  0  0  0  0  0  0  0  0
   56.9693   34.3829   47.3872 H   0  0  0  0  0  0  0  0  0  0  0  0
   58.4933   31.1417   47.2142 H   0  0  0  0  0  0  0  0  0  0  0  0
   59.8696   30.5744   49.2105 H   0  0  0  0  0  0  0  0  0  0  0  0
  1  2  2  0
  2  3  1  0
  3  4  1  0
  4  5  1  0
  5  6  2  0
  6  7  1  0
  7  8  2  0
  8  9  1  0
  9 10  2  0
 10 11  1  0
  2 12  1  0
 12 13  1  0
 13 14  2  0
 14 15  1  0
 15 16  2  0
 16 17  1  0
 17 18  2  0
 17 19  1  0
 19 20  1  0
 20 21  1  0
 21 22  2  0
 21 23  1  0
 23 24  1  0
 24 25  1  0
 25 26  1  0
 26 27  1  0
 27 28  2  0
 27 29  1  0
 29 30  2  0
 30 31  1  0
 31 32  2  0
 32 33  1  0
 26 34  1  0
 34 35  1  0
 16 36  1  0
 36 37  2  0
 10  5  1  0
 37 13  1  0
 35 23  1  0
 33 29  1  0
  3 38  1  0
  3 39  1  0
  6 40  1  0
  7 41  1  0
  8 42  1  0
  9 43  1  0
 14 44  1  0
 15 45  1  0
 20 46  1  0
 20 47  1  0
 24 48  1  0
 24 49  1  0
 25 50  1  0
 25 51  1  0
 30 52  1  0
 31 53  1  0
 32 54  1  0
 34 55  1  0
 34 56  1  0
 35 57  1  0
 35 58  1  0
 36 59  1  0
 37 60  1  0
M  CHG  1  12  -1
M  END
>  <UniqueID>  (62) 
62

>  <SMILES>  (62) 
O=C(COc1ccccc1Cl)[N-]c1ccc(C(=O)OCC(=O)N2CCN(C(=O)c3ccco3)CC2)cc1

>  <Energy>  (62) 
99.05962230547519

>  <Genealogy>  (62) 
O=C(COc1ccccc1Cl)[N-]c1ccc(C(=O)OCC(=O)N2CCN(C(=O)c3ccco3)CC2)cc1 (protonated)
O=C(COc1ccccc1Cl)[N-]c1ccc(C(=O)OCC(=O)N2CCN(C(=O)c3ccco3)CC2)cc1 (3D coordinates assigned)
O=C(COc1ccccc1Cl)[N-]c1ccc(C(=O)OCC(=O)N2CCN(C(=O)c3ccco3)CC2)cc1 (nonaromatic ring conformer: 99.05962230547519 kcal/mol)

>  <smiles>  (62) 
O=C(COc1ccccc1Cl)Nc1ccc(C(=O)OCC(=O)N2CCN(C(=O)c3ccco3)CC2)cc1

>  <score_type>  (62) 
oracle

>  <origin>  (62) 
adg

>  <m_score__min__energy>  (62) 
-10.91

>  <m_primary>  (62) 
energy

$$$$
62:0
     RDKit          3D

 59 63  0  0  0  0  0  0  0  0999 V2000
   56.3680   29.3150   45.1630 O   0  0  0  0  0  0  0  0  0  0  0  0
   57.5560   28.9040   45.2620 C   0  0  0  0  0  0  0  0  0  0  0  0
   58.6480   29.7990   44.9990 N   0  0  0  0  0  0  0  0  0  0  0  0
   58.5370   31.2300   45.0980 C   0  0  0  0  0  0  0  0  0  0  0  0
   59.2240   31.9420   46.0980 C   0  0  0  0  0  0  0  0  0  0  0  0
   59.1460   33.3430   46.1660 C   0  0  0  0  0  0  0  0  0  0  0  0
   59.8690   34.0910   47.2230 C   0  0  0  0  0  0  0  0  0  0  0  0
   59.6070   35.3110   47.4040 O   0  0  0  0  0  0  0  0  0  0  0  0
   60.8560   33.4490   48.0540 N   0  0  0  0  0  0  0  0  0  0  0  0
   61.0260   33.8410   49.4500 C   0  0  0  0  0  0  0  0  0  0  0  0
   62.3570   34.5670   49.5870 C   0  0  0  0  0  0  0  0  0  0  0  0
   63.4740   33.7280   49.1090 N   0  0  0  0  0  0  0  0  0  0  0  0
   64.1310   32.9030   50.1570 C   0  0  0  0  0  0  0  0  0  0  0  0
   65.3360   32.0490   49.7490 C   0  0  0  0  0  0  0  0  0  0  0  0
   66.2270   32.8770   50.6660 C   0  0  0  0  0  0  0  0  0  0  0  0
   65.0330   33.7370   51.0630 C   0  0  0  0  0  0  0  0  0  0  0  0
   63.2960   33.1780   47.7400 C   0  0  0  0  0  0  0  0  0  0  0  0
   61.8920   32.5900   47.4780 C   0  0  0  0  0  0  0  0  0  0  0  0
   58.3570   34.0290   45.2270 C   0  0  0  0  0  0  0  0  0  0  0  0
   57.6870   33.3290   44.2220 C   0  0  0  0  0  0  0  0  0  0  0  0
   57.7830   31.9380   44.1480 C   0  0  0  0  0  0  0  0  0  0  0  0
   57.1260   31.2770   43.1620 F   0  0  0  0  0  0  0  0  0  0  0  0
   57.8080   27.4900   45.6080 C   0  0  0  0  0  0  0  0  0  0  0  0
   57.3880   26.3970   44.8750 C   0  0  0  0  0  0  0  0  0  0  0  0
   57.7420   25.3050   45.6400 C   0  0  0  0  0  0  0  0  0  0  0  0
   58.3510   25.7190   46.7680 N   0  0  0  0  0  0  0  0  0  0  0  0
   58.3960   27.0420   46.7440 N   0  0  0  0  0  0  0  0  0  0  0  0
   59.0410   27.8150   47.7710 C   0  0  0  0  0  0  0  0  0  0  0  0
   58.6540   29.1470   47.9900 C   0  0  0  0  0  0  0  0  0  0  0  0
   59.2610   29.9010   49.0000 C   0  0  0  0  0  0  0  0  0  0  0  0
   60.2470   29.3260   49.8060 C   0  0  0  0  0  0  0  0  0  0  0  0
   60.6220   27.9940   49.6110 C   0  0  0  0  0  0  0  0  0  0  0  0
   61.5710   27.4360   50.4000 F   0  0  0  0  0  0  0  0  0  0  0  0
   60.0150   27.2360   48.6050 C   0  0  0  0  0  0  0  0  0  0  0  0
   59.5680   29.3970   44.7110 H   0  0  0  0  0  0  0  0  0  0  0  0
   59.8296   31.3951   46.8357 H   0  0  0  0  0  0  0  0  0  0  0  0
   60.2057   34.5094   49.7507 H   0  0  0  0  0  0  0  0  0  0  0  0
   61.0128   32.9512   50.0965 H   0  0  0  0  0  0  0  0  0  0  0  0
   62.3237   35.4925   48.9934 H   0  0  0  0  0  0  0  0  0  0  0  0
   62.5222   34.7943   50.6505 H   0  0  0  0  0  0  0  0  0  0  0  0
   63.2332   32.3810   50.5194 H   0  0  0  0  0  0  0  0  0  0  0  0
   65.2550   30.9903   50.0365 H   0  0  0  0  0  0  0  0  0  0  0  0
   65.5945   31.9189   48.6877 H   0  0  0  0  0  0  0  0  0  0  0  0
   66.6652   32.3072   51.4987 H   0  0  0  0  0  0  0  0  0  0  0  0
   67.1417   33.3459   50.2742 H   0  0  0  0  0  0  0  0  0  0  0  0
   64.7736   33.6799   52.1304 H   0  0  0  0  0  0  0  0  0  0  0  0
   65.0738   34.8308   50.9535 H   0  0  0  0  0  0  0  0  0  0  0  0
   63.4729   33.9872   47.0162 H   0  0  0  0  0  0  0  0  0  0  0  0
   64.0130   32.3507   47.6332 H   0  0  0  0  0  0  0  0  0  0  0  0
   61.7314   32.5084   46.3929 H   0  0  0  0  0  0  0  0  0  0  0  0
   61.8306   31.5975   47.9484 H   0  0  0  0  0  0  0  0  0  0  0  0
   58.2668   35.1238   45.2842 H   0  0  0  0  0  0  0  0  0  0  0  0
   57.0806   33.8759   43.4850 H   0  0  0  0  0  0  0  0  0  0  0  0
   56.8831   26.3973   43.8977 H   0  0  0  0  0  0  0  0  0  0  0  0
   57.5553   24.2552   45.3698 H   0  0  0  0  0  0  0  0  0  0  0  0
   57.8702   29.5995   47.3647 H   0  0  0  0  0  0  0  0  0  0  0  0
   58.9618   30.9474   49.1598 H   0  0  0  0  0  0  0  0  0  0  0  0
   60.7286   29.9225   50.5949 H   0  0  0  0  0  0  0  0  0  0  0  0
   60.3001   26.1828   48.4651 H   0  0  0  0  0  0  0  0  0  0  0  0
  1  2  2  0
  2  3  1  0
  3  4  1  0
  4  5  2  0
  5  6  1  0
  6  7  1  0
  7  8  2  0
  7  9  1  0
  9 10  1  0
 10 11  1  0
 11 12  1  0
 12 13  1  0
 13 14  1  0
 14 15  1  0
 15 16  1  0
 12 17  1  0
 17 18  1  0
  6 19  2  0
 19 20  1  0
 20 21  2  0
 21 22  1  0
  2 23  1  0
 23 24  2  0
 24 25  1  0
 25 26  2  0
 26 27  1  0
 27 28  1  0
 28 29  2  0
 29 30  1  0
 30 31  2  0
 31 32  1  0
 32 33  1  0
 32 34  2  0
 21  4  1  0
 27 23  1  0
 34 28  1  0
 18  9  1  0
 16 13  1  0
  3 35  1  0
  5 36  1  0
 10 37  1  0
 10 38  1  0
 11 39  1  0
 11 40  1  0
 13 41  1  0
 14 42  1  0
 14 43  1  0
 15 44  1  0
 15 45  1  0
 16 46  1  0
 16 47  1  0
 17 48  1  0
 17 49  1  0
 18 50  1  0
 18 51  1  0
 19 52  1  0
 20 53  1  0
 24 54  1  0
 25 55  1  0
 29 56  1  0
 30 57  1  0
 31 58  1  0
 34 59  1  0
M  END
>  <UniqueID>  (63) 
63

>  <SMILES>  (63) 
O=C(Nc1cc(C(=O)N2CCN(C3CCC3)CC2)ccc1F)c1ccnn1-c1cccc(F)c1

>  <Energy>  (63) 
181.68668561520602

>  <Genealogy>  (63) 
O=C(Nc1cc(C(=O)N2CCN(C3CCC3)CC2)ccc1F)c1ccnn1-c1cccc(F)c1 (3D coordinates assigned)
O=C(Nc1cc(C(=O)N2CCN(C3CCC3)CC2)ccc1F)c1ccnn1-c1cccc(F)c1 (nonaromatic ring conformer: 181.68668561520602 kcal/mol)

>  <smiles>  (63) 
O=C(Nc1cc(C(=O)N2CCN(C3CCC3)CC2)ccc1F)c1ccnn1-c1cccc(F)c1

>  <score_type>  (63) 
oracle

>  <origin>  (63) 
adg

>  <m_score__min__energy>  (63) 
-9.2200000000000006

>  <m_primary>  (63) 
energy

$$$$
63:0
     RDKit          3D

 68 72  0  0  0  0  0  0  0  0999 V2000
   58.4403   23.0119   44.8439 H   0  0  0  0  0  0  0  0  0  0  0  0
   58.8710   23.9500   45.2240 C   0  0  0  0  0  0  0  0  0  0  0  0
   59.9609   24.0498   45.3344 H   0  0  0  0  0  0  0  0  0  0  0  0
   58.0720   24.9660   45.5510 C   0  0  0  0  0  0  0  0  0  0  0  0
   58.5550   26.1400   46.0230 N   0  0  0  0  0  0  0  0  0  0  0  0
   57.4570   26.8880   46.2570 C   0  0  0  0  0  0  0  0  0  0  0  0
   57.4650   28.1220   46.7780 C   0  0  0  0  0  0  0  0  0  0  0  0
   57.5825   28.2242   47.8669 H   0  0  0  0  0  0  0  0  0  0  0  0
   57.3250   29.3540   45.9740 C   0  0  0  0  0  0  0  0  0  0  0  0
   56.2910   29.7310   45.1190 C   0  0  0  0  0  0  0  0  0  0  0  0
   55.1610   28.9710   44.8460 O   0  0  0  0  0  0  0  0  0  0  0  0
   56.4790   30.9670   44.6020 N   0  0  0  0  0  0  0  0  0  0  0  0
   57.6370   31.3800   45.1490 C   0  0  0  0  0  0  0  0  0  0  0  0
   58.2670   32.6030   44.9330 C   0  0  0  0  0  0  0  0  0  0  0  0
   57.8302   33.3520   44.2562 H   0  0  0  0  0  0  0  0  0  0  0  0
   59.4770   32.8540   45.6040 C   0  0  0  0  0  0  0  0  0  0  0  0
   59.9973   33.8110   45.4509 H   0  0  0  0  0  0  0  0  0  0  0  0
   60.0310   31.8850   46.4750 C   0  0  0  0  0  0  0  0  0  0  0  0
   61.5620   32.2140   47.2800 S   0  0  0  0  0  0  0  0  0  0  0  0
   62.1660   33.4790   46.7350 O   0  0  0  0  0  0  0  0  0  0  0  0
   62.5060   31.0760   47.0060 O   0  0  0  0  0  0  0  0  0  0  0  0
   61.3060   32.3680   49.0010 N   0  0  0  0  0  0  0  0  0  0  0  0
   60.5400   31.6980   49.2490 H   0  0  0  0  0  0  0  0  0  0  0  0
   62.5380   31.9980   49.7390 C   0  0  0  0  0  0  0  0  0  0  0  0
   62.5154   30.9161   49.9364 H   0  0  0  0  0  0  0  0  0  0  0  0
   63.3937   32.2863   49.1108 H   0  0  0  0  0  0  0  0  0  0  0  0
   62.6880   32.7400   51.0870 C   0  0  0  0  0  0  0  0  0  0  0  0
   63.2591   32.1022   51.7777 H   0  0  0  0  0  0  0  0  0  0  0  0
   63.2054   33.6898   50.8866 H   0  0  0  0  0  0  0  0  0  0  0  0
   61.3890   33.0640   51.7090 N   0  0  0  0  0  0  0  0  0  0  0  0
   60.7390   31.8720   52.2770 C   0  0  0  0  0  0  0  0  0  0  0  0
   60.7687   31.9264   53.3753 H   0  0  0  0  0  0  0  0  0  0  0  0
   59.6927   31.8293   51.9401 H   0  0  0  0  0  0  0  0  0  0  0  0
   61.2698   30.9693   51.9401 H   0  0  0  0  0  0  0  0  0  0  0  0
   60.4880   33.8360   50.8170 C   0  0  0  0  0  0  0  0  0  0  0  0
   59.4630   33.4582   50.9462 H   0  0  0  0  0  0  0  0  0  0  0  0
   60.5817   34.8946   51.1007 H   0  0  0  0  0  0  0  0  0  0  0  0
   60.8620   33.7320   49.3240 C   0  0  0  0  0  0  0  0  0  0  0  0
   59.9828   33.9816   48.7118 H   0  0  0  0  0  0  0  0  0  0  0  0
   61.6818   34.4340   49.1116 H   0  0  0  0  0  0  0  0  0  0  0  0
   59.3710   30.6550   46.6720 C   0  0  0  0  0  0  0  0  0  0  0  0
   59.7891   29.8886   47.3412 H   0  0  0  0  0  0  0  0  0  0  0  0
   58.1720   30.4390   45.9930 C   0  0  0  0  0  0  0  0  0  0  0  0
   56.3390   26.1520   45.9330 C   0  0  0  0  0  0  0  0  0  0  0  0
   55.1400   26.5250   46.0560 O   0  0  0  0  0  0  0  0  0  0  0  0
   56.7150   24.9460   45.4710 N   0  0  0  0  0  0  0  0  0  0  0  0
   55.8270   23.8400   45.0960 C   0  0  0  0  0  0  0  0  0  0  0  0
   54.9279   24.2440   44.6078 H   0  0  0  0  0  0  0  0  0  0  0  0
   56.3574   23.1694   44.4039 H   0  0  0  0  0  0  0  0  0  0  0  0
   55.4160   23.0520   46.3450 C   0  0  0  0  0  0  0  0  0  0  0  0
   55.5423   23.7045   47.2215 H   0  0  0  0  0  0  0  0  0  0  0  0
   54.3722   22.7401   46.1926 H   0  0  0  0  0  0  0  0  0  0  0  0
   56.2360   21.7610   46.5790 C   0  0  0  0  0  0  0  0  0  0  0  0
   55.5333   20.9148   46.5683 H   0  0  0  0  0  0  0  0  0  0  0  0
   56.9871   21.7495   45.7754 H   0  0  0  0  0  0  0  0  0  0  0  0
   57.0160   21.6790   47.8370 N   0  0  0  0  0  0  0  0  0  0  0  0
   56.6210   22.6140   48.8980 C   0  0  0  0  0  0  0  0  0  0  0  0
   57.2757   23.4979   48.8839 H   0  0  0  0  0  0  0  0  0  0  0  0
   55.5854   22.9547   48.7515 H   0  0  0  0  0  0  0  0  0  0  0  0
   56.7650   21.8790   50.2260 C   0  0  0  0  0  0  0  0  0  0  0  0
   57.3275   22.4910   50.9464 H   0  0  0  0  0  0  0  0  0  0  0  0
   55.7886   21.6652   50.6852 H   0  0  0  0  0  0  0  0  0  0  0  0
   57.5270   20.6090   49.8980 C   0  0  0  0  0  0  0  0  0  0  0  0
   58.6074   20.7527   50.0464 H   0  0  0  0  0  0  0  0  0  0  0  0
   57.2394   19.7659   50.5433 H   0  0  0  0  0  0  0  0  0  0  0  0
   57.2140   20.3560   48.4380 C   0  0  0  0  0  0  0  0  0  0  0  0
   58.0520   19.8356   47.9512 H   0  0  0  0  0  0  0  0  0  0  0  0
   56.3246   19.7199   48.3188 H   0  0  0  0  0  0  0  0  0  0  0  0
  1  2  1  0
  2  3  1  0
  2  4  2  0
  4  5  1  0
  5  6  1  0
  6  7  2  0
  7  8  1  0
  7  9  1  0
  9 10  2  0
 10 11  1  0
 10 12  1  0
 12 13  1  0
 13 14  2  0
 14 15  1  0
 14 16  1  0
 16 17  1  0
 16 18  2  0
 18 19  1  0
 19 20  2  0
 19 21  2  0
 19 22  1  0
 22 23  1  0
 22 24  1  0
 24 25  1  0
 24 26  1  0
 24 27  1  0
 27 28  1  0
 27 29  1  0
 27 30  1  0
 30 31  1  0
 31 32  1  0
 31 33  1  0
 31 34  1  0
 30 35  1  0
 35 36  1  0
 35 37  1  0
 35 38  1  0
 38 39  1  0
 38 40  1  0
 18 41  1  0
 41 42  1  0
 41 43  2  0
  6 44  1  0
 44 45  2  0
 44 46  1  0
 46 47  1  0
 47 48  1  0
 47 49  1  0
 47 50  1  0
 50 51  1  0
 50 52  1  0
 50 53  1  0
 53 54  1  0
 53 55  1  0
 53 56  1  0
 56 57  1  0
 57 58  1  0
 57 59  1  0
 57 60  1  0
 60 61  1  0
 60 62  1  0
 60 63  1  0
 63 64  1  0
 63 65  1  0
 63 66  1  0
 66 67  1  0
 66 68  1  0
 46  4  1  0
 66 56  1  0
 43  9  1  0
 43 13  1  0
 38 22  1  0
M  CHG  4   5  -1  11  -1  12  -1  22   1
M  END
>  <UniqueID>  (64) 
64

>  <SMILES>  (64) 
C=c1[n-]/c(=C\c2c([O-])[n-]c3ccc(S(=O)(=O)[NH+]4CCN(C)CC4)cc23)c(=O)n1CCCN1CCCC1

>  <Energy>  (64) 
157.20628894110234

>  <Genealogy>  (64) 
C=c1[n-]c(=Cc2c([O-])[n-]c3ccc(S(=O)(=O)[NH+]4CCN(C)CC4)cc23)c(=O)n1CCCN1CCCC1 (protonated)
C=c1[n-]/c(=C\c2c([O-])[n-]c3ccc(S(=O)(=O)[NH+]4CCN(C)CC4)cc23)c(=O)n1CCCN1CCCC1 (cis-trans isomerization)
C=c1[n-]/c(=C\c2c([O-])[n-]c3ccc(S(=O)(=O)[NH+]4CCN(C)CC4)cc23)c(=O)n1CCCN1CCCC1 (3D coordinates assigned)
C=c1[n-]/c(=C\c2c([O-])[n-]c3ccc(S(=O)(=O)[NH+]4CCN(C)CC4)cc23)c(=O)n1CCCN1CCCC1 (nonaromatic ring conformer: 157.20628894110234 kcal/mol)

>  <smiles>  (64) 
C=c1[nH]c(=Cc2c(O)[nH]c3ccc(S(=O)(=O)N4CCN(C)CC4)cc23)c(=O)n1CCCN1CCCC1

>  <score_type>  (64) 
oracle

>  <origin>  (64) 
adg

>  <m_score__min__energy>  (64) 
-13.9

>  <m_primary>  (64) 
energy

$$$$
64:0
     RDKit          3D

 54 56  0  0  0  0  0  0  0  0999 V2000
   52.9300   23.7160   44.4670 N   0  0  0  0  0  0  0  0  0  0  0  0
   53.7300   23.7920   45.2980 C   0  0  0  0  0  0  0  0  0  0  0  0
   54.7410   23.8830   46.3490 C   0  0  0  0  0  0  0  0  0  0  0  0
   55.3840   25.1920   46.2840 N   0  0  0  0  0  0  0  0  0  0  0  0
   56.7330   25.4580   46.6920 C   0  0  0  0  0  0  0  0  0  0  0  0
   57.0350   25.3040   47.9060 O   0  0  0  0  0  0  0  0  0  0  0  0
   57.8060   25.8700   45.7050 C   0  0  2  0  0  0  0  0  0  0  0  0
   58.7060   24.6780   45.3260 C   0  0  0  0  0  0  0  0  0  0  0  0
   57.9950   23.6320   44.4950 C   0  0  0  0  0  0  0  0  0  0  0  0
   56.9350   23.9970   43.6470 C   0  0  0  0  0  0  0  0  0  0  0  0
   56.2550   23.0230   42.9060 C   0  0  0  0  0  0  0  0  0  0  0  0
   56.6310   21.6810   43.0050 C   0  0  0  0  0  0  0  0  0  0  0  0
   57.6860   21.3100   43.8450 C   0  0  0  0  0  0  0  0  0  0  0  0
   58.3670   22.2810   44.5870 C   0  0  0  0  0  0  0  0  0  0  0  0
   58.6180   26.9570   46.2540 N   0  0  0  0  0  0  0  0  0  0  0  0
   58.1740   28.3060   46.4680 C   0  0  0  0  0  0  0  0  0  0  0  0
   58.1490   28.7560   47.6440 O   0  0  0  0  0  0  0  0  0  0  0  0
   57.6900   29.1590   45.3680 C   0  0  0  0  0  0  0  0  0  0  0  0
   57.3800   28.6190   44.1120 C   0  0  0  0  0  0  0  0  0  0  0  0
   56.9180   29.4610   43.1000 C   0  0  0  0  0  0  0  0  0  0  0  0
   56.7940   30.8300   43.3380 C   0  0  0  0  0  0  0  0  0  0  0  0
   57.1500   31.3460   44.5900 C   0  0  0  0  0  0  0  0  0  0  0  0
   57.0630   32.8200   44.8710 C   0  0  0  0  0  0  0  0  0  0  0  0
   57.5100   33.1180   46.2320 N   0  0  0  0  0  0  0  0  0  0  0  0
   58.9890   34.0390   46.2170 S   0  0  0  0  0  0  0  0  0  0  0  0
   58.8830   35.2120   47.1550 O   0  0  0  0  0  0  0  0  0  0  0  0
   59.2660   34.5510   44.8290 O   0  0  0  0  0  0  0  0  0  0  0  0
   60.3120   32.9910   46.7150 C   0  0  0  0  0  0  0  0  0  0  0  0
   60.1460   31.5980   46.7410 C   0  0  0  0  0  0  0  0  0  0  0  0
   61.2080   30.7750   47.1290 C   0  0  0  0  0  0  0  0  0  0  0  0
   62.4360   31.3360   47.4890 C   0  0  0  0  0  0  0  0  0  0  0  0
   62.6080   32.7240   47.4600 C   0  0  0  0  0  0  0  0  0  0  0  0
   64.1520   33.4310   47.9080 Cl  0  0  0  0  0  0  0  0  0  0  0  0
   61.5490   33.5500   47.0700 C   0  0  0  0  0  0  0  0  0  0  0  0
   57.5860   30.5020   45.5650 N   0  0  0  0  0  0  0  0  0  0  0  0
   54.2629   23.7563   47.3315 H   0  0  0  0  0  0  0  0  0  0  0  0
   55.4940   23.0938   46.2070 H   0  0  0  0  0  0  0  0  0  0  0  0
   57.3029   26.2238   44.7930 H   0  0  0  0  0  0  0  0  0  0  0  0
   59.5637   25.0570   44.7510 H   0  0  0  0  0  0  0  0  0  0  0  0
   59.0171   24.1935   46.2633 H   0  0  0  0  0  0  0  0  0  0  0  0
   56.6383   25.0531   43.5652 H   0  0  0  0  0  0  0  0  0  0  0  0
   55.4247   23.3143   42.2459 H   0  0  0  0  0  0  0  0  0  0  0  0
   56.0971   20.9160   42.4221 H   0  0  0  0  0  0  0  0  0  0  0  0
   57.9807   20.2530   43.9223 H   0  0  0  0  0  0  0  0  0  0  0  0
   59.1972   21.9850   45.2452 H   0  0  0  0  0  0  0  0  0  0  0  0
   57.4999   27.5415   43.9261 H   0  0  0  0  0  0  0  0  0  0  0  0
   56.6521   29.0463   42.1165 H   0  0  0  0  0  0  0  0  0  0  0  0
   56.4197   31.4985   42.5487 H   0  0  0  0  0  0  0  0  0  0  0  0
   57.6997   33.3614   44.1559 H   0  0  0  0  0  0  0  0  0  0  0  0
   56.0147   33.1368   44.7674 H   0  0  0  0  0  0  0  0  0  0  0  0
   59.1809   31.1535   46.4563 H   0  0  0  0  0  0  0  0  0  0  0  0
   61.0762   29.6831   47.1508 H   0  0  0  0  0  0  0  0  0  0  0  0
   63.2684   30.6855   47.7955 H   0  0  0  0  0  0  0  0  0  0  0  0
   61.6862   34.6410   47.0415 H   0  0  0  0  0  0  0  0  0  0  0  0
  1  2  3  0
  2  3  1  0
  3  4  1  0
  4  5  1  0
  5  6  2  0
  5  7  1  0
  7  8  1  0
  8  9  1  0
  9 10  2  0
 10 11  1  0
 11 12  2  0
 12 13  1  0
 13 14  2  0
  7 15  1  0
 15 16  1  0
 16 17  2  0
 16 18  1  0
 18 19  2  0
 19 20  1  0
 20 21  2  0
 21 22  1  0
 22 23  1  0
 23 24  1  0
 24 25  1  0
 25 26  2  0
 25 27  2  0
 25 28  1  0
 28 29  2  0
 29 30  1  0
 30 31  2  0
 31 32  1  0
 32 33  1  0
 32 34  2  0
 22 35  2  0
 14  9  1  0
 35 18  1  0
 34 28  1  0
  3 36  1  0
  3 37  1  0
  7 38  1  6
  8 39  1  0
  8 40  1  0
 10 41  1  0
 11 42  1  0
 12 43  1  0
 13 44  1  0
 14 45  1  0
 19 46  1  0
 20 47  1  0
 21 48  1  0
 23 49  1  0
 23 50  1  0
 29 51  1  0
 30 52  1  0
 31 53  1  0
 34 54  1  0
M  CHG  3   4  -1  15  -1  24  -1
M  END
>  <UniqueID>  (65) 
65

>  <SMILES>  (65) 
N#CC[N-]C(=O)[C@H](Cc1ccccc1)[N-]C(=O)c1cccc(C[N-]S(=O)(=O)c2cccc(Cl)c2)n1

>  <Energy>  (65) 
53.53072678397551

>  <Genealogy>  (65) 
N#CC[N-]C(=O)C(Cc1ccccc1)[N-]C(=O)c1cccc(C[N-]S(=O)(=O)c2cccc(Cl)c2)n1 (protonated)
N#CC[N-]C(=O)[C@H](Cc1ccccc1)[N-]C(=O)c1cccc(C[N-]S(=O)(=O)c2cccc(Cl)c2)n1 (chirality)
N#CC[N-]C(=O)[C@H](Cc1ccccc1)[N-]C(=O)c1cccc(C[N-]S(=O)(=O)c2cccc(Cl)c2)n1 (3D coordinates assigned)
N#CC[N-]C(=O)[C@H](Cc1ccccc1)[N-]C(=O)c1cccc(C[N-]S(=O)(=O)c2cccc(Cl)c2)n1 (optimized conformer: 53.53072678397551 kcal/mol)

>  <smiles>  (65) 
N#CCNC(=O)C(Cc1ccccc1)NC(=O)c1cccc(CNS(=O)(=O)c2cccc(Cl)c2)n1

>  <score_type>  (65) 
oracle

>  <origin>  (65) 
adg

>  <m_score__min__energy>  (65) 
-14.43

>  <m_primary>  (65) 
energy

$$$$
65:0
     RDKit          3D

 39 41  0  0  0  0  0  0  0  0999 V2000
   63.7710   33.0940   47.1210 C   0  0  0  0  0  0  0  0  0  0  0  0
   63.7890   32.1500   48.6800 S   0  0  0  0  0  0  0  0  0  0  0  0
   62.0310   32.4290   49.0850 C   0  0  0  0  0  0  0  0  0  0  0  0
   61.6330   33.8410   48.7610 C   0  0  0  0  0  0  0  0  0  0  0  0
   62.1820   34.7810   49.3970 O   0  0  0  0  0  0  0  0  0  0  0  0
   60.6330   34.1460   47.7700 N   0  0  0  0  0  0  0  0  0  0  0  0
   59.2580   34.5150   48.0660 C   0  0  0  0  0  0  0  0  0  0  0  0
   58.5500   34.5810   46.7110 C   0  0  2  0  0  0  0  0  0  0  0  0
   57.7460   33.3190   46.3720 C   0  0  0  0  0  0  0  0  0  0  0  0
   58.0900   32.9800   44.9980 N   0  0  0  0  0  0  0  0  0  0  0  0
   57.4350   31.9400   44.2350 C   0  0  0  0  0  0  0  0  0  0  0  0
   57.5730   31.8790   42.8330 C   0  0  0  0  0  0  0  0  0  0  0  0
   56.9380   30.8730   42.0970 C   0  0  0  0  0  0  0  0  0  0  0  0
   56.1580   29.9160   42.7470 C   0  0  0  0  0  0  0  0  0  0  0  0
   56.0110   29.9610   44.1340 C   0  0  0  0  0  0  0  0  0  0  0  0
   55.2360   29.0050   44.7800 O   0  0  0  0  0  0  0  0  0  0  0  0
   56.6440   30.9640   44.8750 C   0  0  0  0  0  0  0  0  0  0  0  0
   59.1680   33.8110   44.4790 C   0  0  0  0  0  0  0  0  0  0  0  0
   59.6530   34.6540   45.6590 C   0  0  2  0  0  0  0  0  0  0  0  0
   60.9070   34.0950   46.3440 C   0  0  0  0  0  0  0  0  0  0  0  0
   63.7505   34.1708   47.3446 H   0  0  0  0  0  0  0  0  0  0  0  0
   64.6738   32.8576   46.5387 H   0  0  0  0  0  0  0  0  0  0  0  0
   62.8779   32.8233   46.5387 H   0  0  0  0  0  0  0  0  0  0  0  0
   61.4103   31.7348   48.4996 H   0  0  0  0  0  0  0  0  0  0  0  0
   61.8825   32.2560   50.1611 H   0  0  0  0  0  0  0  0  0  0  0  0
   58.7868   33.7571   48.7091 H   0  0  0  0  0  0  0  0  0  0  0  0
   59.1999   35.4731   48.6032 H   0  0  0  0  0  0  0  0  0  0  0  0
   57.8585   35.4360   46.7370 H   0  0  0  0  0  0  0  0  0  0  0  0
   58.0218   32.4970   47.0489 H   0  0  0  0  0  0  0  0  0  0  0  0
   56.6650   33.4874   46.4865 H   0  0  0  0  0  0  0  0  0  0  0  0
   58.1860   32.6298   42.3129 H   0  0  0  0  0  0  0  0  0  0  0  0
   57.0538   30.8364   41.0037 H   0  0  0  0  0  0  0  0  0  0  0  0
   55.6590   29.1262   42.1663 H   0  0  0  0  0  0  0  0  0  0  0  0
   56.5236   30.9917   45.9680 H   0  0  0  0  0  0  0  0  0  0  0  0
   59.9855   33.1822   44.0964 H   0  0  0  0  0  0  0  0  0  0  0  0
   58.8258   34.4421   43.6456 H   0  0  0  0  0  0  0  0  0  0  0  0
   59.8855   35.6597   45.2789 H   0  0  0  0  0  0  0  0  0  0  0  0
   61.0879   33.0579   46.0252 H   0  0  0  0  0  0  0  0  0  0  0  0
   61.8045   34.6747   46.0825 H   0  0  0  0  0  0  0  0  0  0  0  0
  1  2  1  0
  2  3  1  0
  3  4  1  0
  4  5  2  0
  4  6  1  0
  6  7  1  0
  7  8  1  0
  8  9  1  0
  9 10  1  0
 10 11  1  0
 11 12  2  0
 12 13  1  0
 13 14  2  0
 14 15  1  0
 15 16  1  0
 15 17  2  0
 10 18  1  0
 18 19  1  0
 19 20  1  0
 20  6  1  0
 19  8  1  0
 17 11  1  0
  1 21  1  0
  1 22  1  0
  1 23  1  0
  3 24  1  0
  3 25  1  0
  7 26  1  0
  7 27  1  0
  8 28  1  1
  9 29  1  0
  9 30  1  0
 12 31  1  0
 13 32  1  0
 14 33  1  0
 17 34  1  0
 18 35  1  0
 18 36  1  0
 19 37  1  6
 20 38  1  0
 20 39  1  0
M  CHG  1  16  -1
M  END
>  <UniqueID>  (66) 
66

>  <SMILES>  (66) 
CSCC(=O)N1C[C@@H]2CN(c3cccc([O-])c3)C[C@@H]2C1

>  <Energy>  (66) 
39.65753591540565

>  <Genealogy>  (66) 
CSCC(=O)N1CC2CN(c3cccc([O-])c3)CC2C1 (protonated)
CSCC(=O)N1C[C@@H]2CN(c3cccc([O-])c3)C[C@@H]2C1 (chirality)
CSCC(=O)N1C[C@@H]2CN(c3cccc([O-])c3)C[C@@H]2C1 (3D coordinates assigned)
CSCC(=O)N1C[C@@H]2CN(c3cccc([O-])c3)C[C@@H]2C1 (nonaromatic ring conformer: 39.65753591540565 kcal/mol)

>  <smiles>  (66) 
CSCC(=O)N1CC2CN(c3cccc(O)c3)CC2C1

>  <score_type>  (66) 
oracle

>  <origin>  (66) 
adg

>  <m_score__min__energy>  (66) 
-10.449999999999999

>  <m_primary>  (66) 
energy

$$$$
66:0
     RDKit          3D

 44 46  0  0  0  0  0  0  0  0999 V2000
   56.6090   30.1470   43.2950 C   0  0  0  0  0  0  0  0  0  0  0  0
   56.4020   30.8810   44.4980 O   0  0  0  0  0  0  0  0  0  0  0  0
   57.3130   31.8070   45.0270 C   0  0  0  0  0  0  0  0  0  0  0  0
   58.1430   31.5070   46.1260 C   0  0  0  0  0  0  0  0  0  0  0  0
   59.0350   32.4640   46.6160 C   0  0  0  0  0  0  0  0  0  0  0  0
   59.1110   33.7330   46.0240 C   0  0  0  0  0  0  0  0  0  0  0  0
   60.1030   34.7440   46.5320 C   0  0  0  0  0  0  0  0  0  0  0  0
   61.0290   34.1080   47.4760 N   0  0  0  0  0  0  0  0  0  0  0  0
   62.2220   33.3990   46.9960 C   0  0  0  0  0  0  0  0  0  0  0  0
   63.4540   33.8250   47.8030 C   0  0  0  0  0  0  0  0  0  0  0  0
   63.2330   33.6250   49.2440 N   0  0  0  0  0  0  0  0  0  0  0  0
   64.3630   33.3880   50.1000 C   0  0  0  0  0  0  0  0  0  0  0  0
   64.6110   34.2210   51.2020 C   0  0  0  0  0  0  0  0  0  0  0  0
   65.7170   33.9920   52.0250 C   0  0  0  0  0  0  0  0  0  0  0  0
   66.5920   32.9260   51.7560 C   0  0  0  0  0  0  0  0  0  0  0  0
   67.7830   32.6780   52.6360 C   0  0  0  0  0  0  0  0  0  0  0  0
   66.3480   32.0960   50.6500 C   0  0  0  0  0  0  0  0  0  0  0  0
   67.1810   31.0630   50.3690 F   0  0  0  0  0  0  0  0  0  0  0  0
   65.2410   32.3280   49.8280 C   0  0  0  0  0  0  0  0  0  0  0  0
   61.9290   33.8890   49.8000 C   0  0  0  0  0  0  0  0  0  0  0  0
   61.7340   33.8350   51.0460 O   0  0  0  0  0  0  0  0  0  0  0  0
   60.8160   34.2010   48.8950 C   0  0  0  0  0  0  0  0  0  0  0  0
   59.6980   34.5540   49.3590 O   0  0  0  0  0  0  0  0  0  0  0  0
   58.2900   34.0290   44.9250 C   0  0  0  0  0  0  0  0  0  0  0  0
   57.3960   33.0730   44.4360 C   0  0  0  0  0  0  0  0  0  0  0  0
   56.9000   29.1150   43.5406 H   0  0  0  0  0  0  0  0  0  0  0  0
   55.6790   30.1358   42.7077 H   0  0  0  0  0  0  0  0  0  0  0  0
   57.4078   30.6233   42.7077 H   0  0  0  0  0  0  0  0  0  0  0  0
   58.0882   30.5157   46.5996 H   0  0  0  0  0  0  0  0  0  0  0  0
   59.6819   32.2206   47.4717 H   0  0  0  0  0  0  0  0  0  0  0  0
   60.6716   35.1542   45.6844 H   0  0  0  0  0  0  0  0  0  0  0  0
   59.5631   35.5532   47.0455 H   0  0  0  0  0  0  0  0  0  0  0  0
   62.0705   32.3154   47.1096 H   0  0  0  0  0  0  0  0  0  0  0  0
   62.3843   33.6475   45.9368 H   0  0  0  0  0  0  0  0  0  0  0  0
   64.3186   33.2241   47.4845 H   0  0  0  0  0  0  0  0  0  0  0  0
   63.6408   34.8937   47.6212 H   0  0  0  0  0  0  0  0  0  0  0  0
   63.9314   35.0583   51.4190 H   0  0  0  0  0  0  0  0  0  0  0  0
   65.9034   34.6492   52.8872 H   0  0  0  0  0  0  0  0  0  0  0  0
   67.4788   32.7413   53.6912 H   0  0  0  0  0  0  0  0  0  0  0  0
   68.1883   31.6762   52.4308 H   0  0  0  0  0  0  0  0  0  0  0  0
   68.5545   33.4348   52.4308 H   0  0  0  0  0  0  0  0  0  0  0  0
   65.0572   31.6750   48.9621 H   0  0  0  0  0  0  0  0  0  0  0  0
   58.3505   35.0177   44.4466 H   0  0  0  0  0  0  0  0  0  0  0  0
   56.7516   33.3176   43.5788 H   0  0  0  0  0  0  0  0  0  0  0  0
  1  2  1  0
  2  3  1  0
  3  4  2  0
  4  5  1  0
  5  6  2  0
  6  7  1  0
  7  8  1  0
  8  9  1  0
  9 10  1  0
 10 11  1  0
 11 12  1  0
 12 13  2  0
 13 14  1  0
 14 15  2  0
 15 16  1  0
 15 17  1  0
 17 18  1  0
 17 19  2  0
 11 20  1  0
 20 21  2  0
 20 22  1  0
 22 23  2  0
  6 24  1  0
 24 25  2  0
 25  3  1  0
 22  8  1  0
 19 12  1  0
  1 26  1  0
  1 27  1  0
  1 28  1  0
  4 29  1  0
  5 30  1  0
  7 31  1  0
  7 32  1  0
  9 33  1  0
  9 34  1  0
 10 35  1  0
 10 36  1  0
 13 37  1  0
 14 38  1  0
 16 39  1  0
 16 40  1  0
 16 41  1  0
 19 42  1  0
 24 43  1  0
 25 44  1  0
M  END
>  <UniqueID>  (67) 
67

>  <SMILES>  (67) 
COc1ccc(CN2CCN(c3ccc(C)c(F)c3)C(=O)C2=O)cc1

>  <Energy>  (67) 
47.71279123773214

>  <Genealogy>  (67) 
COc1ccc(CN2CCN(c3ccc(C)c(F)c3)C(=O)C2=O)cc1 (3D coordinates assigned)
COc1ccc(CN2CCN(c3ccc(C)c(F)c3)C(=O)C2=O)cc1 (nonaromatic ring conformer: 47.71279123773214 kcal/mol)

>  <smiles>  (67) 
COc1ccc(CN2CCN(c3ccc(C)c(F)c3)C(=O)C2=O)cc1

>  <score_type>  (67) 
oracle

>  <origin>  (67) 
adg

>  <m_score__min__energy>  (67) 
-7.3600000000000003

>  <m_primary>  (67) 
energy

$$$$
67:0
     RDKit          3D

 67 70  0  0  0  0  0  0  0  0999 V2000
   56.8300   20.3520   43.8880 H   0  0  0  0  0  0  0  0  0  0  0  0
   56.2740   21.1720   43.9600 O   0  0  0  0  0  0  0  0  0  0  0  0
   57.0290   22.2300   43.4210 C   0  0  2  0  0  0  0  0  0  0  0  0
   57.4225   21.9460   42.4338 H   0  0  0  0  0  0  0  0  0  0  0  0
   58.2410   22.5370   44.3360 C   0  0  0  0  0  0  0  0  0  0  0  0
   59.0976   22.8021   43.6988 H   0  0  0  0  0  0  0  0  0  0  0  0
   58.4247   21.6338   44.9363 H   0  0  0  0  0  0  0  0  0  0  0  0
   57.9980   23.6930   45.3290 C   0  0  0  0  0  0  0  0  0  0  0  0
   58.2603   24.6430   44.8403 H   0  0  0  0  0  0  0  0  0  0  0  0
   58.6241   23.5182   46.2164 H   0  0  0  0  0  0  0  0  0  0  0  0
   56.5210   23.7570   45.7880 C   0  0  1  0  0  0  0  0  0  0  0  0
   56.2951   22.7754   46.2301 H   0  0  0  0  0  0  0  0  0  0  0  0
   56.2840   24.7480   46.8670 N   0  0  0  0  0  0  0  0  0  0  0  0
   56.6360   24.3500   47.7700 H   0  0  0  0  0  0  0  0  0  0  0  0
   55.2570   24.8950   46.9900 H   0  0  0  0  0  0  0  0  0  0  0  0
   56.9050   26.0300   46.6270 C   0  0  0  0  0  0  0  0  0  0  0  0
   58.1210   26.3100   47.1690 N   0  0  0  0  0  0  0  0  0  0  0  0
   58.7190   27.5260   47.0500 C   0  0  0  0  0  0  0  0  0  0  0  0
   59.8800   27.7040   47.6170 N   0  0  0  0  0  0  0  0  0  0  0  0
   60.4990   28.9520   47.9660 C   0  0  0  0  0  0  0  0  0  0  0  0
   60.8110   29.9060   46.9840 C   0  0  0  0  0  0  0  0  0  0  0  0
   60.6241   29.6819   45.9234 H   0  0  0  0  0  0  0  0  0  0  0  0
   61.3580   31.1390   47.3490 C   0  0  0  0  0  0  0  0  0  0  0  0
   61.6261   31.8707   46.5726 H   0  0  0  0  0  0  0  0  0  0  0  0
   61.5670   31.4480   48.7040 C   0  0  0  0  0  0  0  0  0  0  0  0
   62.1980   32.7550   49.0940 C   0  0  0  0  0  0  0  0  0  0  0  0
   62.3709   32.7650   50.1803 H   0  0  0  0  0  0  0  0  0  0  0  0
   61.5230   33.5769   48.8131 H   0  0  0  0  0  0  0  0  0  0  0  0
   63.7560   32.9660   48.2470 S   0  0  0  0  0  0  0  0  0  0  0  0
   64.0060   31.7840   47.3530 O   0  0  0  0  0  0  0  0  0  0  0  0
   63.7200   34.2210   47.4200 O   0  0  0  0  0  0  0  0  0  0  0  0
   65.0660   33.0920   49.4410 C   0  0  0  0  0  0  0  0  0  0  0  0
   64.6427   33.0513   50.4555 H   0  0  0  0  0  0  0  0  0  0  0  0
   65.7691   32.2573   49.3033 H   0  0  0  0  0  0  0  0  0  0  0  0
   65.5972   34.0454   49.3033 H   0  0  0  0  0  0  0  0  0  0  0  0
   61.2290   30.5020   49.6860 C   0  0  0  0  0  0  0  0  0  0  0  0
   61.3922   30.7332   50.7490 H   0  0  0  0  0  0  0  0  0  0  0  0
   60.6860   29.2680   49.3170 C   0  0  0  0  0  0  0  0  0  0  0  0
   60.4039   28.5409   50.0927 H   0  0  0  0  0  0  0  0  0  0  0  0
   58.0760   28.5330   46.3010 C   0  0  0  0  0  0  0  0  0  0  0  0
   58.5442   29.5218   46.1871 H   0  0  0  0  0  0  0  0  0  0  0  0
   56.8380   28.2670   45.7030 C   0  0  0  0  0  0  0  0  0  0  0  0
   56.1710   29.3040   44.8950 C   0  0  0  0  0  0  0  0  0  0  0  0
   55.1290   29.0060   44.2530 O   0  0  0  0  0  0  0  0  0  0  0  0
   56.6570   30.6500   44.8400 N   0  0  0  0  0  0  0  0  0  0  0  0
   58.0470   31.0140   44.5860 C   0  0  0  0  0  0  0  0  0  0  0  0
   58.7079   30.2086   44.9390 H   0  0  0  0  0  0  0  0  0  0  0  0
   58.1969   31.1627   43.5065 H   0  0  0  0  0  0  0  0  0  0  0  0
   58.3710   32.2870   45.3190 C   0  0  0  0  0  0  0  0  0  0  0  0
   58.6690   33.4550   44.5940 C   0  0  0  0  0  0  0  0  0  0  0  0
   58.6650   33.4450   43.2360 F   0  0  0  0  0  0  0  0  0  0  0  0
   58.9900   34.6390   45.2650 C   0  0  0  0  0  0  0  0  0  0  0  0
   59.2136   35.5515   44.6929 H   0  0  0  0  0  0  0  0  0  0  0  0
   59.0270   34.6640   46.6620 C   0  0  0  0  0  0  0  0  0  0  0  0
   59.2825   35.5955   47.1883 H   0  0  0  0  0  0  0  0  0  0  0  0
   58.7400   33.5080   47.3900 C   0  0  0  0  0  0  0  0  0  0  0  0
   58.7704   33.5316   48.4893 H   0  0  0  0  0  0  0  0  0  0  0  0
   58.4140   32.3200   46.7280 C   0  0  0  0  0  0  0  0  0  0  0  0
   58.1450   31.2090   47.4600 F   0  0  0  0  0  0  0  0  0  0  0  0
   56.2370   27.0190   45.8910 C   0  0  0  0  0  0  0  0  0  0  0  0
   55.2445   26.8137   45.4635 H   0  0  0  0  0  0  0  0  0  0  0  0
   55.5580   23.9670   44.5850 C   0  0  0  0  0  0  0  0  0  0  0  0
   55.3497   25.0429   44.4899 H   0  0  0  0  0  0  0  0  0  0  0  0
   54.6499   23.3819   44.7926 H   0  0  0  0  0  0  0  0  0  0  0  0
   56.1260   23.4600   43.2440 C   0  0  0  0  0  0  0  0  0  0  0  0
   56.7136   24.2665   42.7812 H   0  0  0  0  0  0  0  0  0  0  0  0
   55.2774   23.1658   42.6089 H   0  0  0  0  0  0  0  0  0  0  0  0
  1  2  1  0
  2  3  1  0
  3  4  1  6
  3  5  1  0
  5  6  1  0
  5  7  1  0
  5  8  1  0
  8  9  1  0
  8 10  1  0
  8 11  1  0
 11 12  1  1
 11 13  1  0
 13 14  1  0
 13 15  1  0
 13 16  1  0
 16 17  1  0
 17 18  1  0
 18 19  2  0
 19 20  1  0
 20 21  2  0
 21 22  1  0
 21 23  1  0
 23 24  1  0
 23 25  2  0
 25 26  1  0
 26 27  1  0
 26 28  1  0
 26 29  1  0
 29 30  2  0
 29 31  2  0
 29 32  1  0
 32 33  1  0
 32 34  1  0
 32 35  1  0
 25 36  1  0
 36 37  1  0
 36 38  2  0
 38 39  1  0
 18 40  1  0
 40 41  1  0
 40 42  2  0
 42 43  1  0
 43 44  2  0
 43 45  1  0
 45 46  1  0
 46 47  1  0
 46 48  1  0
 46 49  1  0
 49 50  2  0
 50 51  1  0
 50 52  1  0
 52 53  1  0
 52 54  2  0
 54 55  1  0
 54 56  1  0
 56 57  1  0
 56 58  2  0
 58 59  1  0
 42 60  1  0
 60 61  1  0
 11 62  1  0
 62 63  1  0
 62 64  1  0
 62 65  1  0
 65 66  1  0
 65 67  1  0
 65  3  1  0
 60 16  2  0
 38 20  1  0
 58 49  1  0
M  CHG  3  13   1  17  -1  45  -1
M  END
>  <UniqueID>  (68) 
68

>  <SMILES>  (68) 
CS(=O)(=O)Cc1ccc(/N=c2\cc(C(=O)[N-]Cc3c(F)cccc3F)cc([NH2+]C3CCC(O)CC3)[n-]2)cc1

>  <Energy>  (68) 
84.0667976640126

>  <Genealogy>  (68) 
CS(=O)(=O)Cc1ccc(N=c2cc(C(=O)[N-]Cc3c(F)cccc3F)cc([NH2+]C3CCC(O)CC3)[n-]2)cc1 (protonated)
CS(=O)(=O)Cc1ccc(/N=c2\cc(C(=O)[N-]Cc3c(F)cccc3F)cc([NH2+]C3CCC(O)CC3)[n-]2)cc1 (cis-trans isomerization)
CS(=O)(=O)Cc1ccc(/N=c2\cc(C(=O)[N-]Cc3c(F)cccc3F)cc([NH2+]C3CCC(O)CC3)[n-]2)cc1 (3D coordinates assigned)
CS(=O)(=O)Cc1ccc(/N=c2\cc(C(=O)[N-]Cc3c(F)cccc3F)cc([NH2+]C3CCC(O)CC3)[n-]2)cc1 (nonaromatic ring conformer: 84.0667976640126 kcal/mol)

>  <smiles>  (68) 
CS(=O)(=O)Cc1ccc(N=c2cc(C(=O)NCc3c(F)cccc3F)cc(NC3CCC(O)CC3)[nH]2)cc1

>  <score_type>  (68) 
oracle

>  <origin>  (68) 
adg

>  <m_score__min__energy>  (68) 
-11.08

>  <m_primary>  (68) 
energy

$$$$
68:0
     RDKit          3D

 43 46  0  0  0  0  0  0  0  0999 V2000
   57.4190   28.2670   43.5440 C   0  0  0  0  0  0  0  0  0  0  0  0
   57.6310   28.5540   44.8380 C   0  0  0  0  0  0  0  0  0  0  0  0
   57.9700   29.7880   45.4180 C   0  0  0  0  0  0  0  0  0  0  0  0
   58.0380   31.0190   44.8750 C   0  0  0  0  0  0  0  0  0  0  0  0
   58.4980   32.2400   45.5650 C   0  0  0  0  0  0  0  0  0  0  0  0
   59.7200   32.2820   46.2690 C   0  0  0  0  0  0  0  0  0  0  0  0
   60.5440   31.1530   46.3450 O   0  0  0  0  0  0  0  0  0  0  0  0
   60.1050   33.4380   46.8960 N   0  0  0  0  0  0  0  0  0  0  0  0
   61.3410   33.4720   47.6370 C   0  0  0  0  0  0  0  0  0  0  0  0
   62.5710   33.3700   46.9670 C   0  0  0  0  0  0  0  0  0  0  0  0
   63.7690   33.4050   47.6870 C   0  0  0  0  0  0  0  0  0  0  0  0
   63.7470   33.5420   49.0790 C   0  0  0  0  0  0  0  0  0  0  0  0
   62.5260   33.6430   49.7520 C   0  0  0  0  0  0  0  0  0  0  0  0
   61.3250   33.6080   49.0340 C   0  0  0  0  0  0  0  0  0  0  0  0
   59.3210   34.5590   46.8180 C   0  0  0  0  0  0  0  0  0  0  0  0
   59.6710   35.6320   47.3810 O   0  0  0  0  0  0  0  0  0  0  0  0
   58.1590   34.5330   46.1190 N   0  0  0  0  0  0  0  0  0  0  0  0
   57.7360   33.4100   45.4900 C   0  0  0  0  0  0  0  0  0  0  0  0
   56.6490   33.4330   44.8510 O   0  0  0  0  0  0  0  0  0  0  0  0
   58.2280   29.5990   46.7310 N   0  0  0  0  0  0  0  0  0  0  0  0
   58.0210   28.2840   46.9310 C   0  0  0  0  0  0  0  0  0  0  0  0
   58.1430   27.7390   48.0600 O   0  0  0  0  0  0  0  0  0  0  0  0
   57.6530   27.6210   45.8180 N   0  0  0  0  0  0  0  0  0  0  0  0
   57.3390   26.2190   45.7260 C   0  0  0  0  0  0  0  0  0  0  0  0
   58.3670   25.2820   45.5390 C   0  0  0  0  0  0  0  0  0  0  0  0
   58.0700   23.9200   45.4350 C   0  0  0  0  0  0  0  0  0  0  0  0
   56.7450   23.4840   45.5150 C   0  0  0  0  0  0  0  0  0  0  0  0
   55.7140   24.4100   45.7010 C   0  0  0  0  0  0  0  0  0  0  0  0
   56.0060   25.7740   45.8080 C   0  0  0  0  0  0  0  0  0  0  0  0
   54.9720   26.6820   46.0110 O   0  0  0  0  0  0  0  0  0  0  0  0
   57.1581   27.2414   43.2437 H   0  0  0  0  0  0  0  0  0  0  0  0
   57.5061   29.0574   42.7839 H   0  0  0  0  0  0  0  0  0  0  0  0
   57.7233   31.1233   43.8261 H   0  0  0  0  0  0  0  0  0  0  0  0
   60.1910   30.2180   46.5040 H   0  0  0  0  0  0  0  0  0  0  0  0
   62.5920   33.2622   45.8725 H   0  0  0  0  0  0  0  0  0  0  0  0
   64.7302   33.3247   47.1581 H   0  0  0  0  0  0  0  0  0  0  0  0
   64.6904   33.5702   49.6439 H   0  0  0  0  0  0  0  0  0  0  0  0
   62.5090   33.7501   50.8466 H   0  0  0  0  0  0  0  0  0  0  0  0
   60.3656   33.6873   49.5662 H   0  0  0  0  0  0  0  0  0  0  0  0
   59.4114   25.6210   45.4740 H   0  0  0  0  0  0  0  0  0  0  0  0
   58.8805   23.1906   45.2900 H   0  0  0  0  0  0  0  0  0  0  0  0
   56.5129   22.4120   45.4316 H   0  0  0  0  0  0  0  0  0  0  0  0
   54.6713   24.0653   45.7633 H   0  0  0  0  0  0  0  0  0  0  0  0
  1  2  2  0
  2  3  1  0
  3  4  2  3
  4  5  1  0
  5  6  2  0
  6  7  1  0
  6  8  1  0
  8  9  1  0
  9 10  2  0
 10 11  1  0
 11 12  2  0
 12 13  1  0
 13 14  2  0
  8 15  1  0
 15 16  2  0
 15 17  1  0
 17 18  1  0
 18 19  2  0
  3 20  1  0
 20 21  1  0
 21 22  2  0
 21 23  1  0
 23 24  1  0
 24 25  2  0
 25 26  1  0
 26 27  2  0
 27 28  1  0
 28 29  2  0
 29 30  1  0
 23  2  1  0
 29 24  1  0
 18  5  1  0
 14  9  1  0
  1 31  1  0
  1 32  1  0
  4 33  1  0
  7 34  1  0
 10 35  1  0
 11 36  1  0
 12 37  1  0
 13 38  1  0
 14 39  1  0
 25 40  1  0
 26 41  1  0
 27 42  1  0
 28 43  1  0
M  CHG  3  17  -1  20  -1  30  -1
M  END
>  <UniqueID>  (69) 
69

>  <SMILES>  (69) 
C=c1c(=Cc2c(O)n(-c3ccccc3)c(=O)[n-]c2=O)[n-]c(=O)n1-c1ccccc1[O-]

>  <Energy>  (69) 
112.25861161133956

>  <Genealogy>  (69) 
C=c1c(=Cc2c(O)n(-c3ccccc3)c(=O)[n-]c2=O)[n-]c(=O)n1-c1ccccc1[O-] (protonated)
C=c1c(=Cc2c(O)n(-c3ccccc3)c(=O)[n-]c2=O)[n-]c(=O)n1-c1ccccc1[O-] (3D coordinates assigned)
C=c1c(=Cc2c(O)n(-c3ccccc3)c(=O)[n-]c2=O)[n-]c(=O)n1-c1ccccc1[O-] (optimized conformer: 112.25861161133956 kcal/mol)

>  <smiles>  (69) 
C=c1c(=Cc2c(O)n(-c3ccccc3)c(=O)[nH]c2=O)[nH]c(=O)n1-c1ccccc1O

>  <score_type>  (69) 
oracle

>  <origin>  (69) 
adg

>  <m_score__min__energy>  (69) 
-14.199999999999999

>  <m_primary>  (69) 
energy

$$$$
69:0
     RDKit          3D

 38 40  0  0  0  0  0  0  0  0999 V2000
   55.1510   27.4920   45.6110 H   0  0  0  0  0  0  0  0  0  0  0  0
   55.5260   28.3490   45.2290 O   0  0  0  0  0  0  0  0  0  0  0  0
   56.8780   28.6810   45.3050 C   0  0  0  0  0  0  0  0  0  0  0  0
   57.4260   29.8820   44.8940 C   0  0  0  0  0  0  0  0  0  0  0  0
   56.7060   31.0150   44.2800 C   0  0  0  0  0  0  0  0  0  0  0  0
   56.2790   30.8950   43.1010 O   0  0  0  0  0  0  0  0  0  0  0  0
   56.5120   32.2630   44.9600 N   0  0  0  0  0  0  0  0  0  0  0  0
   57.4510   33.0110   45.4630 C   0  0  0  0  0  0  0  0  0  0  0  0
   57.6570   33.0760   46.8110 N   0  0  0  0  0  0  0  0  0  0  0  0
   58.6270   33.8580   47.3540 C   0  0  0  0  0  0  0  0  0  0  0  0
   58.7683   33.8810   48.4446 H   0  0  0  0  0  0  0  0  0  0  0  0
   59.4440   34.6320   46.5280 C   0  0  0  0  0  0  0  0  0  0  0  0
   60.2330   35.2642   46.9613 H   0  0  0  0  0  0  0  0  0  0  0  0
   59.2490   34.5950   45.1470 C   0  0  0  0  0  0  0  0  0  0  0  0
   59.8826   35.2029   44.4845 H   0  0  0  0  0  0  0  0  0  0  0  0
   58.2470   33.7840   44.6070 C   0  0  0  0  0  0  0  0  0  0  0  0
   58.0846   33.7527   43.5195 H   0  0  0  0  0  0  0  0  0  0  0  0
   58.7410   29.9250   45.1880 N   0  0  0  0  0  0  0  0  0  0  0  0
   59.0350   28.7370   45.7590 C   0  0  0  0  0  0  0  0  0  0  0  0
   60.4160   28.3840   46.2120 C   0  0  0  0  0  0  0  0  0  0  0  0
   60.4502   28.3753   47.3114 H   0  0  0  0  0  0  0  0  0  0  0  0
   60.6843   27.3884   45.8289 H   0  0  0  0  0  0  0  0  0  0  0  0
   61.1291   29.1287   45.8289 H   0  0  0  0  0  0  0  0  0  0  0  0
   57.9080   27.9260   45.8470 C   0  0  0  0  0  0  0  0  0  0  0  0
   57.8450   26.5510   46.3830 C   0  0  0  0  0  0  0  0  0  0  0  0
   58.8900   25.8470   46.4260 O   0  0  0  0  0  0  0  0  0  0  0  0
   56.6090   26.0210   46.8760 N   0  0  0  0  0  0  0  0  0  0  0  0
   55.8930   24.9140   46.3120 C   0  0  0  0  0  0  0  0  0  0  0  0
   56.4510   23.6330   46.4180 C   0  0  0  0  0  0  0  0  0  0  0  0
   57.4212   23.4997   46.9190 H   0  0  0  0  0  0  0  0  0  0  0  0
   55.7840   22.5240   45.8920 C   0  0  0  0  0  0  0  0  0  0  0  0
   56.2361   21.5240   45.9675 H   0  0  0  0  0  0  0  0  0  0  0  0
   54.5430   22.6840   45.2700 C   0  0  0  0  0  0  0  0  0  0  0  0
   54.0238   21.8125   44.8446 H   0  0  0  0  0  0  0  0  0  0  0  0
   53.9620   23.9530   45.1890 C   0  0  0  0  0  0  0  0  0  0  0  0
   52.9816   24.0764   44.7057 H   0  0  0  0  0  0  0  0  0  0  0  0
   54.6220   25.0670   45.7200 C   0  0  0  0  0  0  0  0  0  0  0  0
   53.9920   26.3050   45.6850 O   0  0  0  0  0  0  0  0  0  0  0  0
  1  2  1  0
  2  3  1  0
  3  4  2  0
  4  5  1  0
  5  6  2  0
  5  7  1  0
  7  8  2  0
  8  9  1  0
  9 10  1  0
 10 11  1  0
 10 12  2  0
 12 13  1  0
 12 14  1  0
 14 15  1  0
 14 16  2  0
 16 17  1  0
  4 18  1  0
 18 19  1  0
 19 20  1  0
 20 21  1  0
 20 22  1  0
 20 23  1  0
 19 24  2  0
 24 25  1  0
 25 26  2  0
 25 27  1  0
 27 28  1  0
 28 29  2  0
 29 30  1  0
 29 31  1  0
 31 32  1  0
 31 33  2  0
 33 34  1  0
 33 35  1  0
 35 36  1  0
 35 37  2  0
 37 38  1  0
 24  3  1  0
 37 28  1  0
 16  8  1  0
M  CHG  4   9  -1  18  -1  27  -1  38  -1
M  END
>  <UniqueID>  (70) 
70

>  <SMILES>  (70) 
Cc1[n-]c(C(=O)/N=c2/cccc[n-]2)c(O)c1C(=O)[N-]c1ccccc1[O-]

>  <Energy>  (70) 
81.23263164891385

>  <Genealogy>  (70) 
Cc1[n-]c(C(=O)N=c2cccc[n-]2)c(O)c1C(=O)[N-]c1ccccc1[O-] (protonated)
Cc1[n-]c(C(=O)/N=c2/cccc[n-]2)c(O)c1C(=O)[N-]c1ccccc1[O-] (cis-trans isomerization)
Cc1[n-]c(C(=O)/N=c2/cccc[n-]2)c(O)c1C(=O)[N-]c1ccccc1[O-] (3D coordinates assigned)
Cc1[n-]c(C(=O)/N=c2/cccc[n-]2)c(O)c1C(=O)[N-]c1ccccc1[O-] (optimized conformer: 81.23263164891385 kcal/mol)

>  <smiles>  (70) 
Cc1[nH]c(C(=O)N=c2cccc[nH]2)c(O)c1C(=O)Nc1ccccc1O

>  <score_type>  (70) 
oracle

>  <origin>  (70) 
adg

>  <m_score__min__energy>  (70) 
-15.970000000000001

>  <m_primary>  (70) 
energy

$$$$
70:0
     RDKit          3D

 58 61  0  0  0  0  0  0  0  0999 V2000
   60.6043   26.0186   46.4742 H   0  0  0  0  0  0  0  0  0  0  0  0
   60.0150   26.9340   46.3170 C   0  0  0  0  0  0  0  0  0  0  0  0
   60.6560   28.0670   46.2570 N   0  0  0  0  0  0  0  0  0  0  0  0
   60.7660   28.9810   45.1190 C   0  0  0  0  0  0  0  0  0  0  0  0
   61.7638   29.4440   45.1140 H   0  0  0  0  0  0  0  0  0  0  0  0
   60.6195   28.4239   44.1819 H   0  0  0  0  0  0  0  0  0  0  0  0
   59.7230   30.0430   45.2400 C   0  0  0  0  0  0  0  0  0  0  0  0
   59.4930   30.7400   46.3250 O   0  0  0  0  0  0  0  0  0  0  0  0
   58.5670   31.6090   45.9840 C   0  0  0  0  0  0  0  0  0  0  0  0
   58.0070   32.6590   46.9040 C   0  0  0  0  0  0  0  0  0  0  0  0
   57.4766   33.4093   46.2992 H   0  0  0  0  0  0  0  0  0  0  0  0
   57.3329   32.1537   47.6113 H   0  0  0  0  0  0  0  0  0  0  0  0
   59.0520   33.3440   47.6970 N   0  0  0  0  0  0  0  0  0  0  0  0
   60.2500   33.6790   46.8920 C   0  0  0  0  0  0  0  0  0  0  0  0
   60.5940   32.7754   46.3674 H   0  0  0  0  0  0  0  0  0  0  0  0
   59.9776   34.4651   46.1724 H   0  0  0  0  0  0  0  0  0  0  0  0
   61.3830   34.2040   47.7780 C   0  0  0  0  0  0  0  0  0  0  0  0
   62.2723   34.3881   47.1573 H   0  0  0  0  0  0  0  0  0  0  0  0
   61.0558   35.1381   48.2580 H   0  0  0  0  0  0  0  0  0  0  0  0
   61.7160   33.2240   48.8220 N   0  0  0  0  0  0  0  0  0  0  0  0
   62.9750   33.3080   49.5220 C   0  0  0  0  0  0  0  0  0  0  0  0
   63.0840   34.0900   50.6870 C   0  0  0  0  0  0  0  0  0  0  0  0
   62.2106   34.6505   51.0517 H   0  0  0  0  0  0  0  0  0  0  0  0
   64.2930   34.1600   51.3840 C   0  0  0  0  0  0  0  0  0  0  0  0
   64.3667   34.7704   52.2962 H   0  0  0  0  0  0  0  0  0  0  0  0
   65.4080   33.4560   50.9240 C   0  0  0  0  0  0  0  0  0  0  0  0
   66.3572   33.5068   51.4775 H   0  0  0  0  0  0  0  0  0  0  0  0
   65.3180   32.6880   49.7620 C   0  0  0  0  0  0  0  0  0  0  0  0
   66.1996   32.1406   49.3972 H   0  0  0  0  0  0  0  0  0  0  0  0
   64.1110   32.6120   49.0600 C   0  0  0  0  0  0  0  0  0  0  0  0
   64.0670   31.8880   47.9130 F   0  0  0  0  0  0  0  0  0  0  0  0
   60.7540   32.1620   49.1380 C   0  0  0  0  0  0  0  0  0  0  0  0
   60.8954   31.3228   48.4410 H   0  0  0  0  0  0  0  0  0  0  0  0
   60.9187   31.8202   50.1705 H   0  0  0  0  0  0  0  0  0  0  0  0
   59.3220   32.6970   49.0060 C   0  0  0  0  0  0  0  0  0  0  0  0
   58.6231   31.8567   49.1303 H   0  0  0  0  0  0  0  0  0  0  0  0
   59.1901   33.4660   49.7814 H   0  0  0  0  0  0  0  0  0  0  0  0
   58.1990   31.4610   44.6950 N   0  0  0  0  0  0  0  0  0  0  0  0
   58.9380   30.4660   44.2340 N   0  0  0  0  0  0  0  0  0  0  0  0
   58.9060   30.1030   43.2570 H   0  0  0  0  0  0  0  0  0  0  0  0
   58.5500   26.7970   46.1880 C   0  0  0  0  0  0  0  0  0  0  0  0
   57.9370   25.6250   46.6500 C   0  0  0  0  0  0  0  0  0  0  0  0
   58.5503   24.8185   47.0784 H   0  0  0  0  0  0  0  0  0  0  0  0
   56.5500   25.4760   46.5690 C   0  0  0  0  0  0  0  0  0  0  0  0
   56.0758   24.5511   46.9292 H   0  0  0  0  0  0  0  0  0  0  0  0
   55.7640   26.4980   46.0320 C   0  0  0  0  0  0  0  0  0  0  0  0
   54.3840   26.3310   45.9510 O   0  0  0  0  0  0  0  0  0  0  0  0
   56.3560   27.6890   45.5850 C   0  0  0  0  0  0  0  0  0  0  0  0
   55.5200   28.6850   45.0510 O   0  0  0  0  0  0  0  0  0  0  0  0
   55.9540   29.8160   44.2950 C   0  0  0  0  0  0  0  0  0  0  0  0
   56.8563   30.2363   44.7632 H   0  0  0  0  0  0  0  0  0  0  0  0
   55.1432   30.5593   44.2817 H   0  0  0  0  0  0  0  0  0  0  0  0
   56.2760   29.4240   42.8550 C   0  0  0  0  0  0  0  0  0  0  0  0
   56.9742   28.5740   42.8538 H   0  0  0  0  0  0  0  0  0  0  0  0
   55.3489   29.1377   42.3369 H   0  0  0  0  0  0  0  0  0  0  0  0
   56.7369   30.2779   42.3369 H   0  0  0  0  0  0  0  0  0  0  0  0
   57.7540   27.8440   45.6950 C   0  0  0  0  0  0  0  0  0  0  0  0
   58.2239   28.7915   45.3925 H   0  0  0  0  0  0  0  0  0  0  0  0
  1  2  1  0
  2  3  2  0
  3  4  1  0
  4  5  1  0
  4  6  1  0
  4  7  1  0
  7  8  1  0
  8  9  1  0
  9 10  1  0
 10 11  1  0
 10 12  1  0
 10 13  1  0
 13 14  1  0
 14 15  1  0
 14 16  1  0
 14 17  1  0
 17 18  1  0
 17 19  1  0
 17 20  1  0
 20 21  1  0
 21 22  2  0
 22 23  1  0
 22 24  1  0
 24 25  1  0
 24 26  2  0
 26 27  1  0
 26 28  1  0
 28 29  1  0
 28 30  2  0
 30 31  1  0
 20 32  1  0
 32 33  1  0
 32 34  1  0
 32 35  1  0
 35 36  1  0
 35 37  1  0
  9 38  2  0
 38 39  1  0
 39 40  1  0
  2 41  1  0
 41 42  2  0
 42 43  1  0
 42 44  1  0
 44 45  1  0
 44 46  2  0
 46 47  1  0
 46 48  1  0
 48 49  1  0
 49 50  1  0
 50 51  1  0
 50 52  1  0
 50 53  1  0
 53 54  1  0
 53 55  1  0
 53 56  1  0
 48 57  2  0
 57 58  1  0
 39  7  2  0
 57 41  1  0
 35 13  1  0
 30 21  1  0
M  CHG  2  39   1  47  -1
M  END
>  <UniqueID>  (71) 
71

>  <SMILES>  (71) 
CCOc1cc(/C=N\Cc2[nH+]nc(CN3CCN(c4ccccc4F)CC3)o2)ccc1[O-]

>  <Energy>  (71) 
110.18447611087855

>  <Genealogy>  (71) 
CCOc1cc(C=NCc2[nH+]nc(CN3CCN(c4ccccc4F)CC3)o2)ccc1[O-] (protonated)
CCOc1cc(/C=N\Cc2[nH+]nc(CN3CCN(c4ccccc4F)CC3)o2)ccc1[O-] (cis-trans isomerization)
CCOc1cc(/C=N\Cc2[nH+]nc(CN3CCN(c4ccccc4F)CC3)o2)ccc1[O-] (3D coordinates assigned)
CCOc1cc(/C=N\Cc2[nH+]nc(CN3CCN(c4ccccc4F)CC3)o2)ccc1[O-] (nonaromatic ring conformer: 110.18447611087855 kcal/mol)

>  <smiles>  (71) 
CCOc1cc(C=NCc2nnc(CN3CCN(c4ccccc4F)CC3)o2)ccc1O

>  <score_type>  (71) 
oracle

>  <origin>  (71) 
adg

>  <m_score__min__energy>  (71) 
-11.390000000000001

>  <m_primary>  (71) 
energy

$$$$
71:0
     RDKit          3D

 66 69  0  0  0  0  0  0  0  0999 V2000
   57.8230   32.3810   42.5680 C   0  0  0  0  0  0  0  0  0  0  0  0
   58.0540   32.6240   44.0380 C   0  0  0  0  0  0  0  0  0  0  0  0
   58.5040   33.8880   44.4520 C   0  0  0  0  0  0  0  0  0  0  0  0
   58.7740   34.1430   45.7980 C   0  0  0  0  0  0  0  0  0  0  0  0
   58.6040   33.1360   46.7560 C   0  0  0  0  0  0  0  0  0  0  0  0
   58.8570   33.4270   48.2110 C   0  0  0  0  0  0  0  0  0  0  0  0
   59.9810   34.3520   48.3620 N   0  0  0  0  0  0  0  0  0  0  0  0
   61.3550   33.9630   48.1740 C   0  0  0  0  0  0  0  0  0  0  0  0
   61.8960   33.7480   46.8920 C   0  0  0  0  0  0  0  0  0  0  0  0
   63.2360   33.3770   46.7440 C   0  0  0  0  0  0  0  0  0  0  0  0
   64.0510   33.2240   47.8680 C   0  0  0  0  0  0  0  0  0  0  0  0
   63.5310   33.4480   49.1500 C   0  0  0  0  0  0  0  0  0  0  0  0
   64.5540   33.2400   50.5730 S   0  0  0  0  0  0  0  0  0  0  0  0
   63.9550   32.1760   51.4490 O   0  0  0  0  0  0  0  0  0  0  0  0
   64.5560   34.5230   51.3550 O   0  0  0  0  0  0  0  0  0  0  0  0
   66.2060   32.8110   50.1850 N   0  0  0  0  0  0  0  0  0  0  0  0
   66.5160   31.3870   50.4290 C   0  0  0  0  0  0  0  0  0  0  0  0
   67.0660   31.1320   51.8420 C   0  0  0  0  0  0  0  0  0  0  0  0
   68.1510   31.9880   52.1220 O   0  0  0  0  0  0  0  0  0  0  0  0
   67.6960   33.3230   52.1340 C   0  0  0  0  0  0  0  0  0  0  0  0
   67.2080   33.7420   50.7400 C   0  0  0  0  0  0  0  0  0  0  0  0
   62.1820   33.8010   49.2970 C   0  0  0  0  0  0  0  0  0  0  0  0
   58.1230   31.8810   46.3590 C   0  0  0  0  0  0  0  0  0  0  0  0
   57.8290   31.6170   45.0110 C   0  0  0  0  0  0  0  0  0  0  0  0
   57.3100   30.2820   44.6530 C   0  0  0  0  0  0  0  0  0  0  0  0
   56.2060   29.9010   45.1280 O   0  0  0  0  0  0  0  0  0  0  0  0
   58.0240   29.4460   43.7330 N   0  0  0  0  0  0  0  0  0  0  0  0
   57.8080   28.0030   43.6600 C   0  0  0  0  0  0  0  0  0  0  0  0
   58.2810   27.3600   44.9320 C   0  0  0  0  0  0  0  0  0  0  0  0
   59.3650   27.9070   45.6360 C   0  0  0  0  0  0  0  0  0  0  0  0
   59.7680   27.3480   46.8490 C   0  0  0  0  0  0  0  0  0  0  0  0
   59.0790   26.2530   47.3820 C   0  0  0  0  0  0  0  0  0  0  0  0
   57.9640   25.7190   46.7110 C   0  0  0  0  0  0  0  0  0  0  0  0
   57.2340   24.5220   47.2670 C   0  0  0  0  0  0  0  0  0  0  0  0
   57.6950   23.3790   46.6450 F   0  0  0  0  0  0  0  0  0  0  0  0
   57.4370   24.4080   48.6300 F   0  0  0  0  0  0  0  0  0  0  0  0
   55.8730   24.6390   47.0430 F   0  0  0  0  0  0  0  0  0  0  0  0
   57.5840   26.2690   45.4740 C   0  0  0  0  0  0  0  0  0  0  0  0
   57.0702   31.5891   42.4411 H   0  0  0  0  0  0  0  0  0  0  0  0
   57.4642   33.3071   42.0952 H   0  0  0  0  0  0  0  0  0  0  0  0
   58.7661   32.0695   42.0952 H   0  0  0  0  0  0  0  0  0  0  0  0
   58.6453   34.6858   43.7080 H   0  0  0  0  0  0  0  0  0  0  0  0
   59.1219   35.1397   46.1073 H   0  0  0  0  0  0  0  0  0  0  0  0
   57.9557   33.8779   48.6518 H   0  0  0  0  0  0  0  0  0  0  0  0
   59.1005   32.4852   48.7245 H   0  0  0  0  0  0  0  0  0  0  0  0
   59.7830   35.3470   48.6200 H   0  0  0  0  0  0  0  0  0  0  0  0
   61.2612   33.8725   46.0023 H   0  0  0  0  0  0  0  0  0  0  0  0
   63.6496   33.2051   45.7393 H   0  0  0  0  0  0  0  0  0  0  0  0
   65.1032   32.9271   47.7467 H   0  0  0  0  0  0  0  0  0  0  0  0
   65.5954   30.7993   50.2986 H   0  0  0  0  0  0  0  0  0  0  0  0
   67.2945   31.0892   49.7112 H   0  0  0  0  0  0  0  0  0  0  0  0
   66.2673   31.3107   52.5770 H   0  0  0  0  0  0  0  0  0  0  0  0
   67.4159   30.0908   51.9002 H   0  0  0  0  0  0  0  0  0  0  0  0
   66.8661   33.4153   52.8500 H   0  0  0  0  0  0  0  0  0  0  0  0
   68.5289   33.9781   52.4290 H   0  0  0  0  0  0  0  0  0  0  0  0
   66.7575   34.7430   50.8108 H   0  0  0  0  0  0  0  0  0  0  0  0
   68.0779   33.7348   50.0668 H   0  0  0  0  0  0  0  0  0  0  0  0
   61.7666   33.9528   50.3042 H   0  0  0  0  0  0  0  0  0  0  0  0
   57.9739   31.0932   47.1121 H   0  0  0  0  0  0  0  0  0  0  0  0
   58.8030   29.8570   43.1700 H   0  0  0  0  0  0  0  0  0  0  0  0
   56.7357   27.7994   43.5232 H   0  0  0  0  0  0  0  0  0  0  0  0
   58.3714   27.5909   42.8098 H   0  0  0  0  0  0  0  0  0  0  0  0
   59.8985   28.7792   45.2301 H   0  0  0  0  0  0  0  0  0  0  0  0
   60.6296   27.7691   47.3878 H   0  0  0  0  0  0  0  0  0  0  0  0
   59.4112   25.8072   48.3312 H   0  0  0  0  0  0  0  0  0  0  0  0
   56.7322   25.8401   44.9258 H   0  0  0  0  0  0  0  0  0  0  0  0
  1  2  1  0
  2  3  2  0
  3  4  1  0
  4  5  2  0
  5  6  1  0
  6  7  1  0
  7  8  1  0
  8  9  2  0
  9 10  1  0
 10 11  2  0
 11 12  1  0
 12 13  1  0
 13 14  2  0
 13 15  2  0
 13 16  1  0
 16 17  1  0
 17 18  1  0
 18 19  1  0
 19 20  1  0
 20 21  1  0
 12 22  2  0
  5 23  1  0
 23 24  2  0
 24 25  1  0
 25 26  2  0
 25 27  1  0
 27 28  1  0
 28 29  1  0
 29 30  2  0
 30 31  1  0
 31 32  2  0
 32 33  1  0
 33 34  1  0
 34 35  1  0
 34 36  1  0
 34 37  1  0
 33 38  2  0
 24  2  1  0
 38 29  1  0
 22  8  1  0
 21 16  1  0
  1 39  1  0
  1 40  1  0
  1 41  1  0
  3 42  1  0
  4 43  1  0
  6 44  1  0
  6 45  1  0
  7 46  1  0
  9 47  1  0
 10 48  1  0
 11 49  1  0
 17 50  1  0
 17 51  1  0
 18 52  1  0
 18 53  1  0
 20 54  1  0
 20 55  1  0
 21 56  1  0
 21 57  1  0
 22 58  1  0
 23 59  1  0
 27 60  1  0
 28 61  1  0
 28 62  1  0
 30 63  1  0
 31 64  1  0
 32 65  1  0
 38 66  1  0
M  END
>  <UniqueID>  (72) 
72

>  <SMILES>  (72) 
Cc1ccc(CNc2cccc(S(=O)(=O)N3CCOCC3)c2)cc1C(=O)NCc1cccc(C(F)(F)F)c1

>  <Energy>  (72) 
76.74828467244159

>  <Genealogy>  (72) 
Cc1ccc(CNc2cccc(S(=O)(=O)N3CCOCC3)c2)cc1C(=O)NCc1cccc(C(F)(F)F)c1 (3D coordinates assigned)
Cc1ccc(CNc2cccc(S(=O)(=O)N3CCOCC3)c2)cc1C(=O)NCc1cccc(C(F)(F)F)c1 (nonaromatic ring conformer: 76.74828467244159 kcal/mol)

>  <smiles>  (72) 
Cc1ccc(CNc2cccc(S(=O)(=O)N3CCOCC3)c2)cc1C(=O)NCc1cccc(C(F)(F)F)c1

>  <score_type>  (72) 
oracle

>  <origin>  (72) 
adg

>  <m_score__min__energy>  (72) 
-10.949999999999999

>  <m_primary>  (72) 
energy

$$$$
72:0
     RDKit          3D

 52 55  0  0  0  0  0  0  0  0999 V2000
   57.7610   25.8390   43.4740 C   0  0  0  0  0  0  0  0  0  0  0  0
   58.0810   26.0830   44.7550 C   0  0  0  0  0  0  0  0  0  0  0  0
   57.7580   25.2790   45.8610 C   0  0  0  0  0  0  0  0  0  0  0  0
   56.9110   24.2380   45.9830 C   0  0  0  0  0  0  0  0  0  0  0  0
   55.4600   24.2800   45.7450 C   0  0  0  0  0  0  0  0  0  0  0  0
   54.7160   23.2290   45.3540 N   0  0  0  0  0  0  0  0  0  0  0  0
   53.4990   23.7730   45.1340 C   0  0  0  0  0  0  0  0  0  0  0  0
   52.5100   23.0910   44.7600 O   0  0  0  0  0  0  0  0  0  0  0  0
   53.4310   25.1070   45.3310 N   0  0  0  0  0  0  0  0  0  0  0  0
   54.6840   25.4120   45.7040 C   0  0  0  0  0  0  0  0  0  0  0  0
   55.1110   26.7020   45.9950 O   0  0  0  0  0  0  0  0  0  0  0  0
   58.4760   25.7840   46.9300 C   0  0  0  0  0  0  0  0  0  0  0  0
   59.1460   26.8970   46.4740 C   0  0  0  0  0  0  0  0  0  0  0  0
   59.9570   27.8040   47.3540 C   0  0  0  0  0  0  0  0  0  0  0  0
   58.9070   27.0910   45.1540 N   0  0  0  0  0  0  0  0  0  0  0  0
   59.4190   28.2180   44.3540 C   0  0  0  0  0  0  0  0  0  0  0  0
   58.4470   29.3680   44.3860 C   0  0  0  0  0  0  0  0  0  0  0  0
   57.1380   29.2000   43.9130 C   0  0  0  0  0  0  0  0  0  0  0  0
   56.2310   30.2600   43.9640 C   0  0  0  0  0  0  0  0  0  0  0  0
   56.6180   31.4920   44.4960 C   0  0  0  0  0  0  0  0  0  0  0  0
   57.9220   31.6780   44.9910 C   0  0  0  0  0  0  0  0  0  0  0  0
   58.3100   32.9940   45.5630 C   0  0  0  0  0  0  0  0  0  0  0  0
   57.8930   34.0460   45.0020 O   0  0  0  0  0  0  0  0  0  0  0  0
   59.1700   33.0940   46.7270 N   0  0  0  0  0  0  0  0  0  0  0  0
   58.6710   32.2440   47.8260 C   0  0  0  0  0  0  0  0  0  0  0  0
   59.5960   32.3570   49.0620 C   0  0  0  0  0  0  0  0  0  0  0  0
   60.5380   33.4080   48.9430 O   0  0  0  0  0  0  0  0  0  0  0  0
   59.8810   34.6060   48.5830 C   0  0  0  0  0  0  0  0  0  0  0  0
   59.2750   34.5010   47.1680 C   0  0  0  0  0  0  0  0  0  0  0  0
   58.8350   30.6090   44.9170 C   0  0  0  0  0  0  0  0  0  0  0  0
   58.0686   26.5428   42.6866 H   0  0  0  0  0  0  0  0  0  0  0  0
   57.1913   24.9353   43.2120 H   0  0  0  0  0  0  0  0  0  0  0  0
   57.3422   23.2728   46.2870 H   0  0  0  0  0  0  0  0  0  0  0  0
   58.5060   25.3743   47.9504 H   0  0  0  0  0  0  0  0  0  0  0  0
   59.7499   27.5724   48.4092 H   0  0  0  0  0  0  0  0  0  0  0  0
   61.0271   27.6534   47.1487 H   0  0  0  0  0  0  0  0  0  0  0  0
   59.6881   28.8507   47.1487 H   0  0  0  0  0  0  0  0  0  0  0  0
   60.3838   28.5472   44.7672 H   0  0  0  0  0  0  0  0  0  0  0  0
   59.5471   27.8876   43.3126 H   0  0  0  0  0  0  0  0  0  0  0  0
   56.8246   28.2297   43.5003 H   0  0  0  0  0  0  0  0  0  0  0  0
   55.2077   30.1244   43.5838 H   0  0  0  0  0  0  0  0  0  0  0  0
   55.8981   32.3231   44.5283 H   0  0  0  0  0  0  0  0  0  0  0  0
   60.1260   32.7420   46.4810 H   0  0  0  0  0  0  0  0  0  0  0  0
   57.6567   32.5679   48.1022 H   0  0  0  0  0  0  0  0  0  0  0  0
   58.6560   31.1975   47.4875 H   0  0  0  0  0  0  0  0  0  0  0  0
   58.9749   32.5396   49.9513 H   0  0  0  0  0  0  0  0  0  0  0  0
   60.1571   31.4145   49.1455 H   0  0  0  0  0  0  0  0  0  0  0  0
   59.0757   34.8056   49.3052 H   0  0  0  0  0  0  0  0  0  0  0  0
   60.6161   35.4242   48.5894 H   0  0  0  0  0  0  0  0  0  0  0  0
   58.2705   34.9493   47.1751 H   0  0  0  0  0  0  0  0  0  0  0  0
   59.9364   35.0335   46.4688 H   0  0  0  0  0  0  0  0  0  0  0  0
   59.8644   30.7473   45.2793 H   0  0  0  0  0  0  0  0  0  0  0  0
  1  2  2  0
  2  3  1  0
  3  4  2  3
  4  5  1  0
  5  6  1  0
  6  7  1  0
  7  8  2  0
  7  9  1  0
  9 10  1  0
 10 11  1  0
  3 12  1  0
 12 13  2  0
 13 14  1  0
 13 15  1  0
 15 16  1  0
 16 17  1  0
 17 18  2  0
 18 19  1  0
 19 20  2  0
 20 21  1  0
 21 22  1  0
 22 23  2  0
 22 24  1  0
 24 25  1  0
 25 26  1  0
 26 27  1  0
 27 28  1  0
 28 29  1  0
 21 30  2  0
 15  2  1  0
 30 17  1  0
 10  5  2  0
 29 24  1  0
  1 31  1  0
  1 32  1  0
  4 33  1  0
 12 34  1  0
 14 35  1  0
 14 36  1  0
 14 37  1  0
 16 38  1  0
 16 39  1  0
 18 40  1  0
 19 41  1  0
 20 42  1  0
 24 43  1  0
 25 44  1  0
 25 45  1  0
 26 46  1  0
 26 47  1  0
 28 48  1  0
 28 49  1  0
 29 50  1  0
 29 51  1  0
 30 52  1  0
M  CHG  4   6  -1   9  -1  11  -1  24   1
M  END
>  <UniqueID>  (73) 
73

>  <SMILES>  (73) 
C=c1c(=Cc2[n-]c(=O)[n-]c2[O-])cc(C)n1Cc1cccc(C(=O)[NH+]2CCOCC2)c1

>  <Energy>  (73) 
137.01264155867366

>  <Genealogy>  (73) 
C=c1c(=Cc2[n-]c(=O)[n-]c2[O-])cc(C)n1Cc1cccc(C(=O)[NH+]2CCOCC2)c1 (protonated)
C=c1c(=Cc2[n-]c(=O)[n-]c2[O-])cc(C)n1Cc1cccc(C(=O)[NH+]2CCOCC2)c1 (3D coordinates assigned)
C=c1c(=Cc2[n-]c(=O)[n-]c2[O-])cc(C)n1Cc1cccc(C(=O)[NH+]2CCOCC2)c1 (nonaromatic ring conformer: 137.01264155867366 kcal/mol)

>  <smiles>  (73) 
C=c1c(=Cc2[nH]c(=O)[nH]c2O)cc(C)n1Cc1cccc(C(=O)N2CCOCC2)c1

>  <score_type>  (73) 
oracle

>  <origin>  (73) 
adg

>  <m_score__min__energy>  (73) 
-15.33

>  <m_primary>  (73) 
energy

$$$$
73:0
     RDKit          3D

 58 61  0  0  0  0  0  0  0  0999 V2000
   66.8310   27.8090   52.9780 C   0  0  0  0  0  0  0  0  0  0  0  0
   67.2060   28.9970   52.1420 C   0  0  0  0  0  0  0  0  0  0  0  0
   68.4160   29.1490   51.8220 O   0  0  0  0  0  0  0  0  0  0  0  0
   66.2130   29.9500   51.7000 N   0  0  0  0  0  0  0  0  0  0  0  0
   64.7830   29.6810   51.9180 C   0  0  0  0  0  0  0  0  0  0  0  0
   63.9150   30.8050   51.3410 C   0  0  0  0  0  0  0  0  0  0  0  0
   64.4520   32.1220   51.7460 N   0  0  0  0  0  0  0  0  0  0  0  0
   63.5740   33.2170   51.3710 C   0  0  0  0  0  0  0  0  0  0  0  0
   63.3640   34.1360   52.2100 O   0  0  0  0  0  0  0  0  0  0  0  0
   62.9020   33.3180   50.0440 C   0  0  0  0  0  0  0  0  0  0  0  0
   63.6050   33.1770   48.8330 C   0  0  0  0  0  0  0  0  0  0  0  0
   62.9370   33.2690   47.6090 C   0  0  0  0  0  0  0  0  0  0  0  0
   61.5580   33.5120   47.5690 C   0  0  0  0  0  0  0  0  0  0  0  0
   60.8420   33.6250   46.2470 C   0  0  0  0  0  0  0  0  0  0  0  0
   59.9480   32.4670   46.0400 N   0  0  0  0  0  0  0  0  0  0  0  0
   60.2940   31.2270   46.5180 C   0  0  0  0  0  0  0  0  0  0  0  0
   61.3680   31.0560   47.1550 O   0  0  0  0  0  0  0  0  0  0  0  0
   59.4830   30.1600   46.3130 N   0  0  0  0  0  0  0  0  0  0  0  0
   58.3170   30.2690   45.6320 C   0  0  0  0  0  0  0  0  0  0  0  0
   57.5030   29.1390   45.4490 C   0  0  0  0  0  0  0  0  0  0  0  0
   57.9230   27.9110   45.9910 O   0  0  0  0  0  0  0  0  0  0  0  0
   57.4930   26.6220   45.5530 C   0  0  0  0  0  0  0  0  0  0  0  0
   56.2510   26.2060   46.2770 C   0  0  0  0  0  0  0  0  0  0  0  0
   55.1450   26.7300   45.9880 O   0  0  0  0  0  0  0  0  0  0  0  0
   56.3090   25.2050   47.2390 O   0  0  0  0  0  0  0  0  0  0  0  0
   56.2970   29.2710   44.7320 C   0  0  0  0  0  0  0  0  0  0  0  0
   55.9160   30.5110   44.2160 C   0  0  0  0  0  0  0  0  0  0  0  0
   56.7250   31.6330   44.4050 C   0  0  0  0  0  0  0  0  0  0  0  0
   57.9310   31.5200   45.1170 C   0  0  0  0  0  0  0  0  0  0  0  0
   58.7770   32.6220   45.3370 C   0  0  0  0  0  0  0  0  0  0  0  0
   58.4540   33.7550   44.8860 O   0  0  0  0  0  0  0  0  0  0  0  0
   60.8580   33.6850   48.7720 C   0  0  0  0  0  0  0  0  0  0  0  0
   61.5240   33.5910   49.9960 C   0  0  0  0  0  0  0  0  0  0  0  0
   65.8520   32.3720   51.3080 C   0  0  0  0  0  0  0  0  0  0  0  0
   66.6040   31.1000   50.8720 C   0  0  0  0  0  0  0  0  0  0  0  0
   66.9133   28.0698   54.0435 H   0  0  0  0  0  0  0  0  0  0  0  0
   65.7959   27.5135   52.7517 H   0  0  0  0  0  0  0  0  0  0  0  0
   67.5089   26.9728   52.7517 H   0  0  0  0  0  0  0  0  0  0  0  0
   64.5168   28.7335   51.4267 H   0  0  0  0  0  0  0  0  0  0  0  0
   64.6004   29.6200   53.0010 H   0  0  0  0  0  0  0  0  0  0  0  0
   63.9124   30.7353   50.2432 H   0  0  0  0  0  0  0  0  0  0  0  0
   62.8897   30.7010   51.7256 H   0  0  0  0  0  0  0  0  0  0  0  0
   64.4620   32.1060   52.7960 H   0  0  0  0  0  0  0  0  0  0  0  0
   64.6893   32.9928   48.8501 H   0  0  0  0  0  0  0  0  0  0  0  0
   63.4980   33.1498   46.6703 H   0  0  0  0  0  0  0  0  0  0  0  0
   60.2452   34.5490   46.2367 H   0  0  0  0  0  0  0  0  0  0  0  0
   61.5887   33.6458   45.4395 H   0  0  0  0  0  0  0  0  0  0  0  0
   57.2870   26.6574   44.4730 H   0  0  0  0  0  0  0  0  0  0  0  0
   58.2882   25.8922   45.7654 H   0  0  0  0  0  0  0  0  0  0  0  0
   55.6527   28.3928   44.5782 H   0  0  0  0  0  0  0  0  0  0  0  0
   54.9730   30.6045   43.6574 H   0  0  0  0  0  0  0  0  0  0  0  0
   56.4178   32.6068   43.9959 H   0  0  0  0  0  0  0  0  0  0  0  0
   59.7786   33.8959   48.7513 H   0  0  0  0  0  0  0  0  0  0  0  0
   60.9642   33.7321   50.9324 H   0  0  0  0  0  0  0  0  0  0  0  0
   65.8300   33.0702   50.4583 H   0  0  0  0  0  0  0  0  0  0  0  0
   66.3907   32.7810   52.1755 H   0  0  0  0  0  0  0  0  0  0  0  0
   66.3663   30.8838   49.8200 H   0  0  0  0  0  0  0  0  0  0  0  0
   67.6838   31.2705   50.9946 H   0  0  0  0  0  0  0  0  0  0  0  0
  1  2  1  0
  2  3  2  0
  2  4  1  0
  4  5  1  0
  5  6  1  0
  6  7  1  0
  7  8  1  0
  8  9  2  0
  8 10  1  0
 10 11  2  0
 11 12  1  0
 12 13  2  0
 13 14  1  0
 14 15  1  0
 15 16  1  0
 16 17  2  0
 16 18  1  0
 18 19  1  0
 19 20  2  0
 20 21  1  0
 21 22  1  0
 22 23  1  0
 23 24  2  0
 23 25  1  0
 20 26  1  0
 26 27  2  0
 27 28  1  0
 28 29  2  0
 29 30  1  0
 30 31  2  0
 13 32  1  0
 32 33  2  0
  7 34  1  0
 34 35  1  0
 35  4  1  0
 33 10  1  0
 30 15  1  0
 29 19  1  0
  1 36  1  0
  1 37  1  0
  1 38  1  0
  5 39  1  0
  5 40  1  0
  6 41  1  0
  6 42  1  0
  7 43  1  0
 11 44  1  0
 12 45  1  0
 14 46  1  0
 14 47  1  0
 22 48  1  0
 22 49  1  0
 26 50  1  0
 27 51  1  0
 28 52  1  0
 32 53  1  0
 33 54  1  0
 34 55  1  0
 34 56  1  0
 35 57  1  0
 35 58  1  0
M  CHG  3   7   1  18  -1  25  -1
M  END
>  <UniqueID>  (74) 
74

>  <SMILES>  (74) 
CC(=O)N1CC[NH+](C(=O)c2ccc(Cn3c(=O)[n-]c4c(OCC(=O)[O-])cccc4c3=O)cc2)CC1

>  <Energy>  (74) 
81.87338322253753

>  <Genealogy>  (74) 
CC(=O)N1CC[NH+](C(=O)c2ccc(Cn3c(=O)[n-]c4c(OCC(=O)[O-])cccc4c3=O)cc2)CC1 (protonated)
CC(=O)N1CC[NH+](C(=O)c2ccc(Cn3c(=O)[n-]c4c(OCC(=O)[O-])cccc4c3=O)cc2)CC1 (3D coordinates assigned)
CC(=O)N1CC[NH+](C(=O)c2ccc(Cn3c(=O)[n-]c4c(OCC(=O)[O-])cccc4c3=O)cc2)CC1 (nonaromatic ring conformer: 81.87338322253753 kcal/mol)

>  <smiles>  (74) 
CC(=O)N1CCN(C(=O)c2ccc(Cn3c(=O)[nH]c4c(OCC(=O)O)cccc4c3=O)cc2)CC1

>  <score_type>  (74) 
oracle

>  <origin>  (74) 
adg

>  <m_score__min__energy>  (74) 
-12.35

>  <m_primary>  (74) 
energy

$$$$
74:0
     RDKit          3D

 86 91  0  0  0  0  0  0  0  0999 V2000
   57.2470   34.5680   44.7550 C   0  0  0  0  0  0  0  0  0  0  0  0
   57.4500   33.4130   45.3920 C   0  0  0  0  0  0  0  0  0  0  0  0
   56.6760   32.3020   45.0420 O   0  0  0  0  0  0  0  0  0  0  0  0
   57.1980   31.0140   44.8610 C   0  0  0  0  0  0  0  0  0  0  0  0
   56.3800   29.8670   44.8340 C   0  0  0  0  0  0  0  0  0  0  0  0
   56.9470   28.6020   44.6640 C   0  0  0  0  0  0  0  0  0  0  0  0
   58.3380   28.4560   44.5440 C   0  0  0  0  0  0  0  0  0  0  0  0
   58.9550   27.0900   44.3910 C   0  0  0  0  0  0  0  0  0  0  0  0
   58.3070   26.1030   45.2820 N   0  0  0  0  0  0  0  0  0  0  0  0
   58.4440   26.2010   46.6500 C   0  0  0  0  0  0  0  0  0  0  0  0
   59.1790   27.2760   47.2560 N   0  0  0  0  0  0  0  0  0  0  0  0
   60.5800   27.0750   47.6490 C   0  0  0  0  0  0  0  0  0  0  0  0
   60.7590   27.4010   49.1390 C   0  0  0  0  0  0  0  0  0  0  0  0
   60.0380   28.6280   49.5170 N   0  0  0  0  0  0  0  0  0  0  0  0
   60.0000   29.0120   50.9010 C   0  0  0  0  0  0  0  0  0  0  0  0
   61.0520   28.9370   51.5940 O   0  0  0  0  0  0  0  0  0  0  0  0
   58.7080   29.3690   51.5800 C   0  0  0  0  0  0  0  0  0  0  0  0
   58.6950   30.8320   51.9250 C   0  0  0  0  0  0  0  0  0  0  0  0
   59.7970   31.4250   52.5670 C   0  0  0  0  0  0  0  0  0  0  0  0
   59.7720   32.7830   52.9030 C   0  0  0  0  0  0  0  0  0  0  0  0
   58.6390   33.5520   52.6190 C   0  0  0  0  0  0  0  0  0  0  0  0
   57.5320   32.9650   51.9960 C   0  0  0  0  0  0  0  0  0  0  0  0
   57.5570   31.6100   51.6480 C   0  0  0  0  0  0  0  0  0  0  0  0
   59.3570   29.4190   48.4790 C   0  0  0  0  0  0  0  0  0  0  0  0
   58.4550   28.4920   47.6590 C   0  0  0  0  0  0  0  0  0  0  0  0
   57.8500   25.2510   47.4850 C   0  0  0  0  0  0  0  0  0  0  0  0
   57.1060   24.2260   46.9170 C   0  0  0  0  0  0  0  0  0  0  0  0
   56.5620   23.3570   47.6470 O   0  0  0  0  0  0  0  0  0  0  0  0
   56.9640   24.1650   45.5710 N   0  0  0  0  0  0  0  0  0  0  0  0
   57.5480   25.0820   44.7520 C   0  0  0  0  0  0  0  0  0  0  0  0
   57.3760   24.9790   43.5060 O   0  0  0  0  0  0  0  0  0  0  0  0
   59.1490   29.6020   44.5480 C   0  0  0  0  0  0  0  0  0  0  0  0
   58.5810   30.8690   44.7070 C   0  0  0  0  0  0  0  0  0  0  0  0
   58.4820   33.2530   46.4470 C   0  0  0  0  0  0  0  0  0  0  0  0
   58.1080   32.7450   47.7020 C   0  0  0  0  0  0  0  0  0  0  0  0
   59.0480   32.6240   48.7270 C   0  0  0  0  0  0  0  0  0  0  0  0
   60.3790   33.0300   48.5290 C   0  0  0  0  0  0  0  0  0  0  0  0
   61.3530   32.9030   49.5850 N   0  0  0  0  0  0  0  0  0  0  0  0
   61.7530   31.5910   50.0990 C   0  0  0  0  0  0  0  0  0  0  0  0
   63.2620   31.3710   49.8840 C   0  0  0  0  0  0  0  0  0  0  0  0
   64.0700   32.6230   49.9650 N   0  0  0  0  0  0  0  0  0  0  0  0
   64.4750   33.0900   48.6220 C   0  0  0  0  0  0  0  0  0  0  0  0
   63.3970   33.7020   50.7300 C   0  0  0  0  0  0  0  0  0  0  0  0
   62.0410   34.0890   50.1080 C   0  0  0  0  0  0  0  0  0  0  0  0
   60.7560   33.5360   47.2730 C   0  0  0  0  0  0  0  0  0  0  0  0
   59.8180   33.6500   46.2440 C   0  0  0  0  0  0  0  0  0  0  0  0
   57.8459   35.4529   45.0163 H   0  0  0  0  0  0  0  0  0  0  0  0
   56.4808   34.6351   43.9686 H   0  0  0  0  0  0  0  0  0  0  0  0
   55.2905   29.9683   44.9473 H   0  0  0  0  0  0  0  0  0  0  0  0
   56.2991   27.7140   44.6239 H   0  0  0  0  0  0  0  0  0  0  0  0
   58.8404   26.7602   43.3479 H   0  0  0  0  0  0  0  0  0  0  0  0
   60.0184   27.1576   44.6640 H   0  0  0  0  0  0  0  0  0  0  0  0
   60.8622   26.0272   47.4688 H   0  0  0  0  0  0  0  0  0  0  0  0
   61.2214   27.7416   47.0537 H   0  0  0  0  0  0  0  0  0  0  0  0
   60.3731   26.5620   49.7366 H   0  0  0  0  0  0  0  0  0  0  0  0
   61.8307   27.5597   49.3296 H   0  0  0  0  0  0  0  0  0  0  0  0
   57.8683   29.1465   50.9051 H   0  0  0  0  0  0  0  0  0  0  0  0
   58.6109   28.7796   52.5037 H   0  0  0  0  0  0  0  0  0  0  0  0
   60.6828   30.8182   52.8061 H   0  0  0  0  0  0  0  0  0  0  0  0
   60.6430   33.2455   53.3903 H   0  0  0  0  0  0  0  0  0  0  0  0
   58.6180   34.6190   52.8855 H   0  0  0  0  0  0  0  0  0  0  0  0
   56.6396   33.5705   51.7792 H   0  0  0  0  0  0  0  0  0  0  0  0
   56.6852   31.1528   51.1571 H   0  0  0  0  0  0  0  0  0  0  0  0
   58.7475   30.2026   48.9527 H   0  0  0  0  0  0  0  0  0  0  0  0
   60.1023   29.8903   47.8214 H   0  0  0  0  0  0  0  0  0  0  0  0
   57.5835   28.2074   48.2669 H   0  0  0  0  0  0  0  0  0  0  0  0
   58.1336   29.0261   46.7527 H   0  0  0  0  0  0  0  0  0  0  0  0
   57.9702   25.3145   48.5766 H   0  0  0  0  0  0  0  0  0  0  0  0
   60.2376   29.5021   44.4253 H   0  0  0  0  0  0  0  0  0  0  0  0
   59.2266   31.7596   44.7111 H   0  0  0  0  0  0  0  0  0  0  0  0
   57.0660   32.4400   47.8786 H   0  0  0  0  0  0  0  0  0  0  0  0
   58.7442   32.2071   49.6986 H   0  0  0  0  0  0  0  0  0  0  0  0
   61.5281   31.5385   51.1745 H   0  0  0  0  0  0  0  0  0  0  0  0
   61.1968   30.8102   49.5595 H   0  0  0  0  0  0  0  0  0  0  0  0
   63.6242   30.6739   50.6540 H   0  0  0  0  0  0  0  0  0  0  0  0
   63.3864   30.9744   48.8656 H   0  0  0  0  0  0  0  0  0  0  0  0
   64.9550   32.3940   50.4810 H   0  0  0  0  0  0  0  0  0  0  0  0
   65.1927   33.9175   48.7225 H   0  0  0  0  0  0  0  0  0  0  0  0
   64.9454   32.2615   48.0721 H   0  0  0  0  0  0  0  0  0  0  0  0
   63.5883   33.4384   48.0721 H   0  0  0  0  0  0  0  0  0  0  0  0
   63.2295   33.3557   51.7605 H   0  0  0  0  0  0  0  0  0  0  0  0
   64.0465   34.5896   50.7100 H   0  0  0  0  0  0  0  0  0  0  0  0
   61.4124   34.5612   50.8774 H   0  0  0  0  0  0  0  0  0  0  0  0
   62.2193   34.7890   49.2784 H   0  0  0  0  0  0  0  0  0  0  0  0
   61.7974   33.8445   47.0990 H   0  0  0  0  0  0  0  0  0  0  0  0
   60.1252   34.0530   45.2677 H   0  0  0  0  0  0  0  0  0  0  0  0
  1  2  2  0
  2  3  1  0
  3  4  1  0
  4  5  2  0
  5  6  1  0
  6  7  2  0
  7  8  1  0
  8  9  1  0
  9 10  1  0
 10 11  1  0
 11 12  1  0
 12 13  1  0
 13 14  1  0
 14 15  1  0
 15 16  2  0
 15 17  1  0
 17 18  1  0
 18 19  2  0
 19 20  1  0
 20 21  2  0
 21 22  1  0
 22 23  2  0
 14 24  1  0
 24 25  1  0
 10 26  2  0
 26 27  1  0
 27 28  2  0
 27 29  1  0
 29 30  1  0
 30 31  2  0
  7 32  1  0
 32 33  2  0
  2 34  1  0
 34 35  2  0
 35 36  1  0
 36 37  2  0
 37 38  1  0
 38 39  1  0
 39 40  1  0
 40 41  1  0
 41 42  1  0
 41 43  1  0
 43 44  1  0
 37 45  1  0
 45 46  2  0
 33  4  1  0
 46 34  1  0
 30  9  1  0
 44 38  1  0
 25 11  1  0
 23 18  1  0
  1 47  1  0
  1 48  1  0
  5 49  1  0
  6 50  1  0
  8 51  1  0
  8 52  1  0
 12 53  1  0
 12 54  1  0
 13 55  1  0
 13 56  1  0
 17 57  1  0
 17 58  1  0
 19 59  1  0
 20 60  1  0
 21 61  1  0
 22 62  1  0
 23 63  1  0
 24 64  1  0
 24 65  1  0
 25 66  1  0
 25 67  1  0
 26 68  1  0
 32 69  1  0
 33 70  1  0
 35 71  1  0
 36 72  1  0
 39 73  1  0
 39 74  1  0
 40 75  1  0
 40 76  1  0
 41 77  1  0
 42 78  1  0
 42 79  1  0
 42 80  1  0
 43 81  1  0
 43 82  1  0
 44 83  1  0
 44 84  1  0
 45 85  1  0
 46 86  1  0
M  CHG  2  29  -1  41   1
M  END
>  <UniqueID>  (75) 
75

>  <SMILES>  (75) 
C=C(Oc1ccc(Cn2c(N3CCN(C(=O)Cc4ccccc4)CC3)cc(=O)[n-]c2=O)cc1)c1ccc(N2CC[NH+](C)CC2)cc1

>  <Energy>  (75) 
123.72868140916368

>  <Genealogy>  (75) 
C=C(Oc1ccc(Cn2c(N3CCN(C(=O)Cc4ccccc4)CC3)cc(=O)[n-]c2=O)cc1)c1ccc(N2CC[NH+](C)CC2)cc1 (protonated)
C=C(Oc1ccc(Cn2c(N3CCN(C(=O)Cc4ccccc4)CC3)cc(=O)[n-]c2=O)cc1)c1ccc(N2CC[NH+](C)CC2)cc1 (3D coordinates assigned)
C=C(Oc1ccc(Cn2c(N3CCN(C(=O)Cc4ccccc4)CC3)cc(=O)[n-]c2=O)cc1)c1ccc(N2CC[NH+](C)CC2)cc1 (nonaromatic ring conformer: 123.72868140916368 kcal/mol)

>  <smiles>  (75) 
C=C(Oc1ccc(Cn2c(N3CCN(C(=O)Cc4ccccc4)CC3)cc(=O)[nH]c2=O)cc1)c1ccc(N2CCN(C)CC2)cc1

>  <score_type>  (75) 
oracle

>  <origin>  (75) 
adg

>  <m_score__min__energy>  (75) 
-9.75

>  <m_primary>  (75) 
energy

$$$$
75:0
     RDKit          3D

 40 42  0  0  0  0  0  0  0  0999 V2000
   55.3790   25.5010   46.1940 N   0  0  0  0  0  0  0  0  0  0  0  0
   57.0960   25.3420   46.3230 S   0  0  0  0  0  0  0  0  0  0  0  0
   57.4720   25.0170   47.7410 O   0  0  0  0  0  0  0  0  0  0  0  0
   57.5570   24.2190   45.4350 O   0  0  0  0  0  0  0  0  0  0  0  0
   57.8640   26.8520   45.8370 C   0  0  0  0  0  0  0  0  0  0  0  0
   57.1210   27.8380   45.1710 C   0  0  0  0  0  0  0  0  0  0  0  0
   57.7360   29.0270   44.7440 C   0  0  0  0  0  0  0  0  0  0  0  0
   56.9470   30.0770   43.9970 C   0  0  0  0  0  0  0  0  0  0  0  0
   56.6110   31.2140   44.8560 N   0  0  0  0  0  0  0  0  0  0  0  0
   57.3330   32.2890   44.9610 C   0  0  0  0  0  0  0  0  0  0  0  0
   57.5810   32.9170   46.1300 N   0  0  0  0  0  0  0  0  0  0  0  0
   58.4280   33.9660   45.9600 C   0  0  0  0  0  0  0  0  0  0  0  0
   58.9210   34.7680   47.1250 C   0  0  0  0  0  0  0  0  0  0  0  0
   60.2510   34.2350   47.5850 C   0  0  0  0  0  0  0  0  0  0  0  0
   60.5460   34.1620   48.9550 C   0  0  0  0  0  0  0  0  0  0  0  0
   61.8010   33.7170   49.3830 C   0  0  0  0  0  0  0  0  0  0  0  0
   62.7690   33.3430   48.4460 C   0  0  0  0  0  0  0  0  0  0  0  0
   64.3440   32.7870   48.9840 Cl  0  0  0  0  0  0  0  0  0  0  0  0
   62.4850   33.4200   47.0800 C   0  0  0  0  0  0  0  0  0  0  0  0
   61.2350   33.8750   46.6480 C   0  0  0  0  0  0  0  0  0  0  0  0
   58.8520   34.1770   44.6490 C   0  0  0  0  0  0  0  0  0  0  0  0
   58.1380   33.0030   43.6750 S   0  0  0  0  0  0  0  0  0  0  0  0
   59.0920   29.2410   45.0360 C   0  0  0  0  0  0  0  0  0  0  0  0
   59.8270   28.2730   45.7240 C   0  0  0  0  0  0  0  0  0  0  0  0
   59.2190   27.0810   46.1220 C   0  0  0  0  0  0  0  0  0  0  0  0
   59.9520   26.1520   46.7860 F   0  0  0  0  0  0  0  0  0  0  0  0
   55.1650   25.7150   45.1960 H   0  0  0  0  0  0  0  0  0  0  0  0
   55.1080   26.3420   46.7490 H   0  0  0  0  0  0  0  0  0  0  0  0
   56.0491   27.6792   44.9817 H   0  0  0  0  0  0  0  0  0  0  0  0
   57.5466   30.4366   43.1478 H   0  0  0  0  0  0  0  0  0  0  0  0
   56.0086   29.6193   43.6508 H   0  0  0  0  0  0  0  0  0  0  0  0
   59.0339   35.8196   46.8227 H   0  0  0  0  0  0  0  0  0  0  0  0
   58.1959   34.6948   47.9490 H   0  0  0  0  0  0  0  0  0  0  0  0
   59.7872   34.4559   49.6952 H   0  0  0  0  0  0  0  0  0  0  0  0
   62.0267   33.6612   50.4581 H   0  0  0  0  0  0  0  0  0  0  0  0
   63.2457   33.1223   46.3433 H   0  0  0  0  0  0  0  0  0  0  0  0
   61.0213   33.9514   45.5717 H   0  0  0  0  0  0  0  0  0  0  0  0
   59.5335   34.9711   44.3100 H   0  0  0  0  0  0  0  0  0  0  0  0
   59.5785   30.1761   44.7213 H   0  0  0  0  0  0  0  0  0  0  0  0
   60.8882   28.4504   45.9530 H   0  0  0  0  0  0  0  0  0  0  0  0
  1  2  1  0
  2  3  2  0
  2  4  2  0
  2  5  1  0
  5  6  2  0
  6  7  1  0
  7  8  1  0
  8  9  1  0
  9 10  2  3
 10 11  1  0
 11 12  1  0
 12 13  1  0
 13 14  1  0
 14 15  2  0
 15 16  1  0
 16 17  2  0
 17 18  1  0
 17 19  1  0
 19 20  2  0
 12 21  2  0
 21 22  1  0
  7 23  2  0
 23 24  1  0
 24 25  2  0
 25 26  1  0
 25  5  1  0
 22 10  1  0
 20 14  1  0
  1 27  1  0
  1 28  1  0
  6 29  1  0
  8 30  1  0
  8 31  1  0
 13 32  1  0
 13 33  1  0
 15 34  1  0
 16 35  1  0
 19 36  1  0
 20 37  1  0
 21 38  1  0
 23 39  1  0
 24 40  1  0
M  CHG  1  11  -1
M  END
>  <UniqueID>  (76) 
76

>  <SMILES>  (76) 
NS(=O)(=O)c1cc(CN=c2[n-]c(Cc3ccc(Cl)cc3)cs2)ccc1F

>  <Energy>  (76) 
64.8246604902549

>  <Genealogy>  (76) 
NS(=O)(=O)c1cc(CN=c2[n-]c(Cc3ccc(Cl)cc3)cs2)ccc1F (protonated)
NS(=O)(=O)c1cc(CN=c2[n-]c(Cc3ccc(Cl)cc3)cs2)ccc1F (3D coordinates assigned)
NS(=O)(=O)c1cc(CN=c2[n-]c(Cc3ccc(Cl)cc3)cs2)ccc1F (optimized conformer: 64.8246604902549 kcal/mol)

>  <smiles>  (76) 
NS(=O)(=O)c1cc(CN=c2[nH]c(Cc3ccc(Cl)cc3)cs2)ccc1F

>  <score_type>  (76) 
oracle

>  <origin>  (76) 
adg

>  <m_score__min__energy>  (76) 
-10.73

>  <m_primary>  (76) 
energy

$$$$
76:0
     RDKit          3D

 51 54  0  0  0  0  0  0  0  0999 V2000
   55.9090   25.0840   47.2490 O   0  0  0  0  0  0  0  0  0  0  0  0
   55.9840   25.3850   46.0290 C   0  0  0  0  0  0  0  0  0  0  0  0
   55.7880   26.7510   45.6430 N   0  0  0  0  0  0  0  0  0  0  0  0
   56.7550   27.8050   45.7580 C   0  0  0  0  0  0  0  0  0  0  0  0
   57.8490   27.6300   46.6130 C   0  0  0  0  0  0  0  0  0  0  0  0
   58.8040   28.6400   46.7550 C   0  0  0  0  0  0  0  0  0  0  0  0
   58.6750   29.8450   46.0460 C   0  0  0  0  0  0  0  0  0  0  0  0
   59.6800   30.9200   46.1930 C   0  0  0  0  0  0  0  0  0  0  0  0
   60.8940   30.6040   46.3300 O   0  0  0  0  0  0  0  0  0  0  0  0
   59.2980   32.3100   46.2140 N   0  0  0  0  0  0  0  0  0  0  0  0
   60.2460   33.3480   45.8030 C   0  0  0  0  0  0  0  0  0  0  0  0
   60.6060   34.2380   47.0050 C   0  0  0  0  0  0  0  0  0  0  0  0
   59.4770   34.4750   47.9400 N   0  0  0  0  0  0  0  0  0  0  0  0
   59.7230   33.6570   49.4690 S   0  0  0  0  0  0  0  0  0  0  0  0
   59.2940   34.5380   50.6100 O   0  0  0  0  0  0  0  0  0  0  0  0
   58.9230   32.3850   49.5170 O   0  0  0  0  0  0  0  0  0  0  0  0
   61.4360   33.2940   49.6550 C   0  0  0  0  0  0  0  0  0  0  0  0
   62.2650   34.1930   50.3380 C   0  0  0  0  0  0  0  0  0  0  0  0
   63.6300   33.9220   50.4790 C   0  0  0  0  0  0  0  0  0  0  0  0
   64.1730   32.7540   49.9350 C   0  0  0  0  0  0  0  0  0  0  0  0
   65.8850   32.4160   50.1120 Cl  0  0  0  0  0  0  0  0  0  0  0  0
   63.3500   31.8560   49.2470 C   0  0  0  0  0  0  0  0  0  0  0  0
   61.9840   32.1250   49.1050 C   0  0  0  0  0  0  0  0  0  0  0  0
   58.1480   34.1770   47.3670 C   0  0  0  0  0  0  0  0  0  0  0  0
   58.0480   32.7270   46.8630 C   0  0  0  0  0  0  0  0  0  0  0  0
   57.5530   30.0370   45.2230 C   0  0  0  0  0  0  0  0  0  0  0  0
   56.5990   29.0260   45.0810 C   0  0  0  0  0  0  0  0  0  0  0  0
   56.3270   24.3360   45.0500 C   0  0  0  0  0  0  0  0  0  0  0  0
   55.6580   24.0550   43.8630 C   0  0  0  0  0  0  0  0  0  0  0  0
   56.2480   23.0210   43.1270 C   0  0  0  0  0  0  0  0  0  0  0  0
   57.3880   22.4930   43.7200 C   0  0  0  0  0  0  0  0  0  0  0  0
   57.6590   23.3150   45.1600 S   0  0  0  0  0  0  0  0  0  0  0  0
   57.9577   26.6917   47.1766 H   0  0  0  0  0  0  0  0  0  0  0  0
   59.6623   28.4901   47.4265 H   0  0  0  0  0  0  0  0  0  0  0  0
   61.1593   32.8739   45.4144 H   0  0  0  0  0  0  0  0  0  0  0  0
   59.7852   33.9681   45.0200 H   0  0  0  0  0  0  0  0  0  0  0  0
   61.4211   33.7534   47.5625 H   0  0  0  0  0  0  0  0  0  0  0  0
   60.8951   35.2189   46.5997 H   0  0  0  0  0  0  0  0  0  0  0  0
   61.8416   35.1143   50.7645 H   0  0  0  0  0  0  0  0  0  0  0  0
   64.2773   34.6289   51.0187 H   0  0  0  0  0  0  0  0  0  0  0  0
   63.7769   30.9378   48.8173 H   0  0  0  0  0  0  0  0  0  0  0  0
   61.3389   31.4191   48.5614 H   0  0  0  0  0  0  0  0  0  0  0  0
   57.3836   34.3369   48.1417 H   0  0  0  0  0  0  0  0  0  0  0  0
   57.9912   34.8461   46.5081 H   0  0  0  0  0  0  0  0  0  0  0  0
   57.8460   32.0624   47.7160 H   0  0  0  0  0  0  0  0  0  0  0  0
   57.2328   32.6663   46.1270 H   0  0  0  0  0  0  0  0  0  0  0  0
   57.4246   30.9890   44.6871 H   0  0  0  0  0  0  0  0  0  0  0  0
   55.7222   29.1868   44.4365 H   0  0  0  0  0  0  0  0  0  0  0  0
   54.7555   24.5919   43.5356 H   0  0  0  0  0  0  0  0  0  0  0  0
   55.8466   22.6601   42.1686 H   0  0  0  0  0  0  0  0  0  0  0  0
   58.0064   21.6776   43.3165 H   0  0  0  0  0  0  0  0  0  0  0  0
  1  2  2  0
  2  3  1  0
  3  4  1  0
  4  5  2  0
  5  6  1  0
  6  7  2  0
  7  8  1  0
  8  9  2  0
  8 10  1  0
 10 11  1  0
 11 12  1  0
 12 13  1  0
 13 14  1  0
 14 15  2  0
 14 16  2  0
 14 17  1  0
 17 18  2  0
 18 19  1  0
 19 20  2  0
 20 21  1  0
 20 22  1  0
 22 23  2  0
 13 24  1  0
 24 25  1  0
  7 26  1  0
 26 27  2  0
  2 28  1  0
 28 29  2  0
 29 30  1  0
 30 31  2  0
 31 32  1  0
 27  4  1  0
 32 28  1  0
 25 10  1  0
 23 17  1  0
  5 33  1  0
  6 34  1  0
 11 35  1  0
 11 36  1  0
 12 37  1  0
 12 38  1  0
 18 39  1  0
 19 40  1  0
 22 41  1  0
 23 42  1  0
 24 43  1  0
 24 44  1  0
 25 45  1  0
 25 46  1  0
 26 47  1  0
 27 48  1  0
 29 49  1  0
 30 50  1  0
 31 51  1  0
M  CHG  1   3  -1
M  END
>  <UniqueID>  (77) 
77

>  <SMILES>  (77) 
O=C([N-]c1ccc(C(=O)N2CCN(S(=O)(=O)c3ccc(Cl)cc3)CC2)cc1)c1cccs1

>  <Energy>  (77) 
97.69088102559033

>  <Genealogy>  (77) 
O=C([N-]c1ccc(C(=O)N2CCN(S(=O)(=O)c3ccc(Cl)cc3)CC2)cc1)c1cccs1 (protonated)
O=C([N-]c1ccc(C(=O)N2CCN(S(=O)(=O)c3ccc(Cl)cc3)CC2)cc1)c1cccs1 (3D coordinates assigned)
O=C([N-]c1ccc(C(=O)N2CCN(S(=O)(=O)c3ccc(Cl)cc3)CC2)cc1)c1cccs1 (nonaromatic ring conformer: 97.69088102559033 kcal/mol)

>  <smiles>  (77) 
O=C(Nc1ccc(C(=O)N2CCN(S(=O)(=O)c3ccc(Cl)cc3)CC2)cc1)c1cccs1

>  <score_type>  (77) 
oracle

>  <origin>  (77) 
adg

>  <m_score__min__energy>  (77) 
-11.41

>  <m_primary>  (77) 
energy

$$$$
77:0
     RDKit          3D

 50 52  0  0  0  0  0  0  0  0999 V2000
   57.3980   21.1040   43.0220 C   0  0  0  0  0  0  0  0  0  0  0  0
   56.0710   21.5800   42.9880 O   0  0  0  0  0  0  0  0  0  0  0  0
   56.0530   22.9940   42.9410 C   0  0  0  0  0  0  0  0  0  0  0  0
   55.0030   23.5410   43.9100 C   0  0  0  0  0  0  0  0  0  0  0  0
   55.6470   24.3980   44.9540 C   0  0  0  0  0  0  0  0  0  0  0  0
   54.9890   24.9330   46.0020 N   0  0  0  0  0  0  0  0  0  0  0  0
   55.8730   25.6630   46.6190 O   0  0  0  0  0  0  0  0  0  0  0  0
   57.0210   25.5990   45.9880 C   0  0  0  0  0  0  0  0  0  0  0  0
   58.2600   26.3280   46.4030 C   0  0  0  0  0  0  0  0  0  0  0  0
   58.1920   27.7400   45.9770 N   0  0  0  0  0  0  0  0  0  0  0  0
   59.5280   28.3660   45.9730 C   0  0  0  0  0  0  0  0  0  0  0  0
   59.3610   29.8840   45.8470 C   0  0  0  0  0  0  0  0  0  0  0  0
   58.2640   30.2130   44.9240 N   0  0  0  0  0  0  0  0  0  0  0  0
   57.5410   31.4510   45.0650 C   0  0  0  0  0  0  0  0  0  0  0  0
   56.2960   31.4710   44.8610 O   0  0  0  0  0  0  0  0  0  0  0  0
   58.2200   32.7010   45.4690 C   0  0  0  0  0  0  0  0  0  0  0  0
   58.5040   33.6890   44.5120 C   0  0  0  0  0  0  0  0  0  0  0  0
   59.1380   34.8750   44.8890 C   0  0  0  0  0  0  0  0  0  0  0  0
   59.5100   35.0790   46.2200 C   0  0  0  0  0  0  0  0  0  0  0  0
   59.2700   34.0850   47.1800 C   0  0  0  0  0  0  0  0  0  0  0  0
   59.6530   34.3060   48.6130 C   0  0  0  0  0  0  0  0  0  0  0  0
   58.6180   32.9020   46.8010 C   0  0  0  0  0  0  0  0  0  0  0  0
   57.8300   29.2010   43.9530 C   0  0  0  0  0  0  0  0  0  0  0  0
   57.5460   27.8520   44.6490 C   0  0  0  0  0  0  0  0  0  0  0  0
   56.9300   24.8020   44.9100 N   0  0  0  0  0  0  0  0  0  0  0  0
   57.7195   20.9887   44.0676 H   0  0  0  0  0  0  0  0  0  0  0  0
   57.4516   20.1306   42.5124 H   0  0  0  0  0  0  0  0  0  0  0  0
   58.0581   21.8214   42.5124 H   0  0  0  0  0  0  0  0  0  0  0  0
   57.0438   23.3797   43.2231 H   0  0  0  0  0  0  0  0  0  0  0  0
   55.8017   23.3162   41.9197 H   0  0  0  0  0  0  0  0  0  0  0  0
   54.2717   24.1418   43.3495 H   0  0  0  0  0  0  0  0  0  0  0  0
   54.5014   22.6959   44.4042 H   0  0  0  0  0  0  0  0  0  0  0  0
   58.3573   26.2838   47.4978 H   0  0  0  0  0  0  0  0  0  0  0  0
   59.1305   25.8527   45.9273 H   0  0  0  0  0  0  0  0  0  0  0  0
   60.0507   28.1281   46.9112 H   0  0  0  0  0  0  0  0  0  0  0  0
   60.1179   27.9832   45.1271 H   0  0  0  0  0  0  0  0  0  0  0  0
   59.1375   30.3059   46.8380 H   0  0  0  0  0  0  0  0  0  0  0  0
   60.2948   30.3103   45.4516 H   0  0  0  0  0  0  0  0  0  0  0  0
   58.2256   33.5279   43.4601 H   0  0  0  0  0  0  0  0  0  0  0  0
   59.3448   35.6500   44.1363 H   0  0  0  0  0  0  0  0  0  0  0  0
   59.9926   36.0221   46.5161 H   0  0  0  0  0  0  0  0  0  0  0  0
   58.8883   33.8648   49.2692 H   0  0  0  0  0  0  0  0  0  0  0  0
   60.6247   33.8298   48.8105 H   0  0  0  0  0  0  0  0  0  0  0  0
   59.7269   35.3856   48.8105 H   0  0  0  0  0  0  0  0  0  0  0  0
   58.4167   32.1252   47.5534 H   0  0  0  0  0  0  0  0  0  0  0  0
   56.9126   29.5495   43.4560 H   0  0  0  0  0  0  0  0  0  0  0  0
   58.6345   29.0533   43.2175 H   0  0  0  0  0  0  0  0  0  0  0  0
   56.4587   27.7458   44.7778 H   0  0  0  0  0  0  0  0  0  0  0  0
   57.9629   27.0582   44.0117 H   0  0  0  0  0  0  0  0  0  0  0  0
   57.6640   24.5740   44.2030 H   0  0  0  0  0  0  0  0  0  0  0  0
  1  2  1  0
  2  3  1  0
  3  4  1  0
  4  5  1  0
  5  6  2  0
  6  7  1  0
  7  8  1  0
  8  9  1  0
  9 10  1  0
 10 11  1  0
 11 12  1  0
 12 13  1  0
 13 14  1  0
 14 15  2  0
 14 16  1  0
 16 17  2  0
 17 18  1  0
 18 19  2  0
 19 20  1  0
 20 21  1  0
 20 22  2  0
 13 23  1  0
 23 24  1  0
  8 25  2  0
 25  5  1  0
 24 10  1  0
 22 16  1  0
  1 26  1  0
  1 27  1  0
  1 28  1  0
  3 29  1  0
  3 30  1  0
  4 31  1  0
  4 32  1  0
  9 33  1  0
  9 34  1  0
 11 35  1  0
 11 36  1  0
 12 37  1  0
 12 38  1  0
 17 39  1  0
 18 40  1  0
 19 41  1  0
 21 42  1  0
 21 43  1  0
 21 44  1  0
 22 45  1  0
 23 46  1  0
 23 47  1  0
 24 48  1  0
 24 49  1  0
 25 50  1  0
M  CHG  1  25   1
M  END
>  <UniqueID>  (78) 
78

>  <SMILES>  (78) 
COCCc1noc(CN2CCN(C(=O)c3cccc(C)c3)CC2)[nH+]1

>  <Energy>  (78) 
93.59896592417695

>  <Genealogy>  (78) 
COCCc1noc(CN2CCN(C(=O)c3cccc(C)c3)CC2)[nH+]1 (protonated)
COCCc1noc(CN2CCN(C(=O)c3cccc(C)c3)CC2)[nH+]1 (3D coordinates assigned)
COCCc1noc(CN2CCN(C(=O)c3cccc(C)c3)CC2)[nH+]1 (nonaromatic ring conformer: 93.59896592417695 kcal/mol)

>  <smiles>  (78) 
COCCc1noc(CN2CCN(C(=O)c3cccc(C)c3)CC2)n1

>  <score_type>  (78) 
oracle

>  <origin>  (78) 
adg

>  <m_score__min__energy>  (78) 
-7.7000000000000002

>  <m_primary>  (78) 
energy

$$$$
78:0
     RDKit          3D

 53 55  0  0  0  0  0  0  0  0999 V2000
   52.8450   23.6530   45.1470 C   0  0  0  0  0  0  0  0  0  0  0  0
   54.1630   23.7870   45.0230 C   0  0  0  0  0  0  0  0  0  0  0  0
   55.0330   22.7950   44.5040 N   0  0  0  0  0  0  0  0  0  0  0  0
   56.3500   23.3530   44.5610 C   0  0  0  0  0  0  0  0  0  0  0  0
   57.5550   22.5960   44.0920 C   0  0  0  0  0  0  0  0  0  0  0  0
   56.3500   24.6000   45.0680 C   0  0  0  0  0  0  0  0  0  0  0  0
   57.5260   25.4730   45.2900 C   0  0  0  0  0  0  0  0  0  0  0  0
   58.6350   24.9660   45.6120 O   0  0  0  0  0  0  0  0  0  0  0  0
   57.4180   26.8940   45.1030 N   0  0  0  0  0  0  0  0  0  0  0  0
   58.3480   27.8460   45.6490 C   0  0  0  0  0  0  0  0  0  0  0  0
   58.6020   27.9120   47.0300 C   0  0  0  0  0  0  0  0  0  0  0  0
   59.4950   28.8610   47.5390 C   0  0  0  0  0  0  0  0  0  0  0  0
   60.1330   29.7740   46.6820 C   0  0  0  0  0  0  0  0  0  0  0  0
   61.0870   30.7680   47.2270 C   0  0  0  0  0  0  0  0  0  0  0  0
   62.2560   30.8280   46.7540 O   0  0  0  0  0  0  0  0  0  0  0  0
   60.7040   31.6770   48.2750 N   0  0  0  0  0  0  0  0  0  0  0  0
   60.1060   31.1760   49.5150 C   0  0  0  0  0  0  0  0  0  0  0  0
   61.1390   31.2490   50.6400 C   0  0  0  0  0  0  0  0  0  0  0  0
   61.7710   32.5800   50.6840 N   0  0  0  0  0  0  0  0  0  0  0  0
   62.1520   33.1330   51.9670 C   0  0  0  0  0  0  0  0  0  0  0  0
   61.5110   32.8060   53.0030 O   0  0  0  0  0  0  0  0  0  0  0  0
   63.2890   34.1080   52.1210 C   0  0  0  0  0  0  0  0  0  0  0  0
   63.6140   34.3380   53.5940 C   0  0  0  0  0  0  0  0  0  0  0  0
   62.2950   33.1360   49.4230 C   0  0  0  0  0  0  0  0  0  0  0  0
   61.2460   33.0350   48.3150 C   0  0  0  0  0  0  0  0  0  0  0  0
   59.8690   29.7100   45.3040 C   0  0  0  0  0  0  0  0  0  0  0  0
   58.9760   28.7620   44.7950 C   0  0  0  0  0  0  0  0  0  0  0  0
   54.9630   24.9370   45.3920 C   0  0  0  0  0  0  0  0  0  0  0  0
   54.5460   25.9970   45.9310 O   0  0  0  0  0  0  0  0  0  0  0  0
   52.2450   24.4766   45.5614 H   0  0  0  0  0  0  0  0  0  0  0  0
   52.3554   22.7186   44.8352 H   0  0  0  0  0  0  0  0  0  0  0  0
   54.7670   21.8470   44.1520 H   0  0  0  0  0  0  0  0  0  0  0  0
   58.1248   22.2381   44.9622 H   0  0  0  0  0  0  0  0  0  0  0  0
   57.2347   21.7366   43.4847 H   0  0  0  0  0  0  0  0  0  0  0  0
   58.1902   23.2576   43.4847 H   0  0  0  0  0  0  0  0  0  0  0  0
   56.6900   27.2450   44.4420 H   0  0  0  0  0  0  0  0  0  0  0  0
   58.0963   27.2142   47.7136 H   0  0  0  0  0  0  0  0  0  0  0  0
   59.6996   28.8928   48.6193 H   0  0  0  0  0  0  0  0  0  0  0  0
   59.2332   31.7921   49.7771 H   0  0  0  0  0  0  0  0  0  0  0  0
   59.7871   30.1326   49.3749 H   0  0  0  0  0  0  0  0  0  0  0  0
   60.6402   31.0546   51.6009 H   0  0  0  0  0  0  0  0  0  0  0  0
   61.9176   30.4947   50.4536 H   0  0  0  0  0  0  0  0  0  0  0  0
   64.1789   33.7063   51.6144 H   0  0  0  0  0  0  0  0  0  0  0  0
   62.9919   35.0676   51.6729 H   0  0  0  0  0  0  0  0  0  0  0  0
   62.8749   33.8149   54.2186 H   0  0  0  0  0  0  0  0  0  0  0  0
   64.6195   33.9493   53.8127 H   0  0  0  0  0  0  0  0  0  0  0  0
   63.5819   35.4156   53.8127 H   0  0  0  0  0  0  0  0  0  0  0  0
   62.5592   34.1928   49.5758 H   0  0  0  0  0  0  0  0  0  0  0  0
   63.1841   32.5616   49.1238 H   0  0  0  0  0  0  0  0  0  0  0  0
   60.4326   33.7481   48.5148 H   0  0  0  0  0  0  0  0  0  0  0  0
   61.7128   33.2707   47.3473 H   0  0  0  0  0  0  0  0  0  0  0  0
   60.3688   30.4113   44.6196 H   0  0  0  0  0  0  0  0  0  0  0  0
   58.7650   28.7352   43.7158 H   0  0  0  0  0  0  0  0  0  0  0  0
  1  2  2  0
  2  3  1  0
  3  4  1  0
  4  5  1  0
  4  6  2  0
  6  7  1  0
  7  8  2  0
  7  9  1  0
  9 10  1  0
 10 11  2  0
 11 12  1  0
 12 13  2  0
 13 14  1  0
 14 15  2  0
 14 16  1  0
 16 17  1  0
 17 18  1  0
 18 19  1  0
 19 20  1  0
 20 21  2  0
 20 22  1  0
 22 23  1  0
 19 24  1  0
 24 25  1  0
 13 26  1  0
 26 27  2  0
  6 28  1  0
 28 29  2  0
 28  2  1  0
 27 10  1  0
 25 16  1  0
  1 30  1  0
  1 31  1  0
  3 32  1  0
  5 33  1  0
  5 34  1  0
  5 35  1  0
  9 36  1  0
 11 37  1  0
 12 38  1  0
 17 39  1  0
 17 40  1  0
 18 41  1  0
 18 42  1  0
 22 43  1  0
 22 44  1  0
 23 45  1  0
 23 46  1  0
 23 47  1  0
 24 48  1  0
 24 49  1  0
 25 50  1  0
 25 51  1  0
 26 52  1  0
 27 53  1  0
M  END
>  <UniqueID>  (79) 
79

>  <SMILES>  (79) 
C=C1NC(C)=C(C(=O)Nc2ccc(C(=O)N3CCN(C(=O)CC)CC3)cc2)C1=O

>  <Energy>  (79) 
85.73598319292522

>  <Genealogy>  (79) 
C=C1NC(C)=C(C(=O)Nc2ccc(C(=O)N3CCN(C(=O)CC)CC3)cc2)C1=O (3D coordinates assigned)
C=C1NC(C)=C(C(=O)Nc2ccc(C(=O)N3CCN(C(=O)CC)CC3)cc2)C1=O (nonaromatic ring conformer: 85.73598319292522 kcal/mol)

>  <smiles>  (79) 
C=C1NC(C)=C(C(=O)Nc2ccc(C(=O)N3CCN(C(=O)CC)CC3)cc2)C1=O

>  <score_type>  (79) 
oracle

>  <origin>  (79) 
adg

>  <m_score__min__energy>  (79) 
-7.2000000000000002

>  <m_primary>  (79) 
energy

$$$$
79:0
     RDKit          3D

 57 61  0  0  0  0  0  0  0  0999 V2000
   60.0090   26.8140   48.9520 O   0  0  0  0  0  0  0  0  0  0  0  0
   60.1920   27.9960   48.5610 C   0  0  0  0  0  0  0  0  0  0  0  0
   60.6040   28.9810   49.5210 N   0  0  0  0  0  0  0  0  0  0  0  0
   61.4610   28.7460   50.6490 C   0  0  0  0  0  0  0  0  0  0  0  0
   61.5490   27.4750   51.2400 C   0  0  0  0  0  0  0  0  0  0  0  0
   62.4320   27.2560   52.2990 C   0  0  0  0  0  0  0  0  0  0  0  0
   63.2180   28.3100   52.7620 C   0  0  0  0  0  0  0  0  0  0  0  0
   63.1170   29.5440   52.1940 N   0  0  0  0  0  0  0  0  0  0  0  0
   62.2530   29.7930   51.1620 C   0  0  0  0  0  0  0  0  0  0  0  0
   62.2080   31.1070   50.5760 N   0  0  0  0  0  0  0  0  0  0  0  0
   62.8110   31.3570   49.2580 C   0  0  0  0  0  0  0  0  0  0  0  0
   61.8960   32.2620   48.4240 C   0  0  0  0  0  0  0  0  0  0  0  0
   61.3650   33.3860   49.2130 N   0  0  0  0  0  0  0  0  0  0  0  0
   60.4130   34.3030   48.6300 C   0  0  0  0  0  0  0  0  0  0  0  0
   59.5760   34.8950   49.3670 O   0  0  0  0  0  0  0  0  0  0  0  0
   60.3840   34.5830   47.1500 C   0  0  0  0  0  0  0  0  0  0  0  0
   59.5000   33.6180   46.3960 C   0  0  0  0  0  0  0  0  0  0  0  0
   58.9680   32.4980   47.0490 C   0  0  0  0  0  0  0  0  0  0  0  0
   58.1490   31.6050   46.3540 C   0  0  0  0  0  0  0  0  0  0  0  0
   57.8580   31.8400   45.0020 C   0  0  0  0  0  0  0  0  0  0  0  0
   56.9620   30.9780   44.2900 N   0  0  0  0  0  0  0  0  0  0  0  0
   56.9670   30.6770   42.9780 C   0  0  0  0  0  0  0  0  0  0  0  0
   55.9160   29.8850   42.6890 N   0  0  0  0  0  0  0  0  0  0  0  0
   55.2800   29.7120   43.8420 N   0  0  0  0  0  0  0  0  0  0  0  0
   55.9090   30.3690   44.8070 N   0  0  0  0  0  0  0  0  0  0  0  0
   58.4100   32.9170   44.3770 N   0  0  0  0  0  0  0  0  0  0  0  0
   59.2260   33.7890   45.0270 C   0  0  0  0  0  0  0  0  0  0  0  0
   61.7870   33.5490   50.6140 C   0  0  0  0  0  0  0  0  0  0  0  0
   61.6460   32.2190   51.3570 C   0  0  0  0  0  0  0  0  0  0  0  0
   59.9270   28.3470   47.1450 C   0  0  0  0  0  0  0  0  0  0  0  0
   58.9560   27.6620   46.3950 C   0  0  0  0  0  0  0  0  0  0  0  0
   58.7310   28.0060   45.0600 C   0  0  0  0  0  0  0  0  0  0  0  0
   59.4900   29.0250   44.4780 C   0  0  0  0  0  0  0  0  0  0  0  0
   60.4350   29.6720   45.2080 N   0  0  0  0  0  0  0  0  0  0  0  0
   60.6740   29.3560   46.5090 C   0  0  0  0  0  0  0  0  0  0  0  0
   60.9217   26.6514   50.8682 H   0  0  0  0  0  0  0  0  0  0  0  0
   62.5067   26.2616   52.7634 H   0  0  0  0  0  0  0  0  0  0  0  0
   63.9231   28.1445   53.5899 H   0  0  0  0  0  0  0  0  0  0  0  0
   63.7130   30.3160   52.5700 H   0  0  0  0  0  0  0  0  0  0  0  0
   63.7860   31.8486   49.3911 H   0  0  0  0  0  0  0  0  0  0  0  0
   62.9440   30.3986   48.7348 H   0  0  0  0  0  0  0  0  0  0  0  0
   62.4704   32.6633   47.5760 H   0  0  0  0  0  0  0  0  0  0  0  0
   61.0447   31.6579   48.0772 H   0  0  0  0  0  0  0  0  0  0  0  0
   60.0071   35.6042   46.9915 H   0  0  0  0  0  0  0  0  0  0  0  0
   61.4088   34.4662   46.7676 H   0  0  0  0  0  0  0  0  0  0  0  0
   59.1957   32.3218   48.1106 H   0  0  0  0  0  0  0  0  0  0  0  0
   57.7347   30.7227   46.8639 H   0  0  0  0  0  0  0  0  0  0  0  0
   57.7160   31.0251   42.2515 H   0  0  0  0  0  0  0  0  0  0  0  0
   59.6738   34.6318   44.4799 H   0  0  0  0  0  0  0  0  0  0  0  0
   62.8375   33.8739   50.6433 H   0  0  0  0  0  0  0  0  0  0  0  0
   61.1512   34.3045   51.0988 H   0  0  0  0  0  0  0  0  0  0  0  0
   62.1783   32.2871   52.3172 H   0  0  0  0  0  0  0  0  0  0  0  0
   60.5755   32.0235   51.5176 H   0  0  0  0  0  0  0  0  0  0  0  0
   58.3723   26.8538   46.8598 H   0  0  0  0  0  0  0  0  0  0  0  0
   57.9640   27.4800   44.4726 H   0  0  0  0  0  0  0  0  0  0  0  0
   59.3218   29.3034   43.4272 H   0  0  0  0  0  0  0  0  0  0  0  0
   61.4556   29.8921   47.0673 H   0  0  0  0  0  0  0  0  0  0  0  0
  1  2  2  0
  2  3  1  0
  3  4  1  0
  4  5  2  0
  5  6  1  0
  6  7  2  0
  7  8  1  0
  8  9  2  0
  9 10  1  0
 10 11  1  0
 11 12  1  0
 12 13  1  0
 13 14  1  0
 14 15  2  0
 14 16  1  0
 16 17  1  0
 17 18  2  0
 18 19  1  0
 19 20  2  0
 20 21  1  0
 21 22  1  0
 22 23  2  0
 23 24  1  0
 24 25  2  0
 20 26  1  0
 26 27  2  0
 13 28  1  0
 28 29  1  0
  2 30  1  0
 30 31  2  0
 31 32  1  0
 32 33  2  0
 33 34  1  0
 34 35  2  0
  9  4  1  0
 29 10  1  0
 35 30  1  0
 27 17  1  0
 25 21  1  0
  5 36  1  0
  6 37  1  0
  7 38  1  0
  8 39  1  0
 11 40  1  0
 11 41  1  0
 12 42  1  0
 12 43  1  0
 16 44  1  0
 16 45  1  0
 18 46  1  0
 19 47  1  0
 22 48  1  0
 27 49  1  0
 28 50  1  0
 28 51  1  0
 29 52  1  0
 29 53  1  0
 31 54  1  0
 32 55  1  0
 33 56  1  0
 35 57  1  0
M  CHG  2   3  -1   8   1
M  END
>  <UniqueID>  (80) 
80

>  <SMILES>  (80) 
O=C([N-]c1ccc[nH+]c1N1CCN(C(=O)Cc2ccc(-n3cnnn3)nc2)CC1)c1cccnc1

>  <Energy>  (80) 
117.19126008284857

>  <Genealogy>  (80) 
O=C([N-]c1ccc[nH+]c1N1CCN(C(=O)Cc2ccc(-n3cnnn3)nc2)CC1)c1cccnc1 (protonated)
O=C([N-]c1ccc[nH+]c1N1CCN(C(=O)Cc2ccc(-n3cnnn3)nc2)CC1)c1cccnc1 (3D coordinates assigned)
O=C([N-]c1ccc[nH+]c1N1CCN(C(=O)Cc2ccc(-n3cnnn3)nc2)CC1)c1cccnc1 (nonaromatic ring conformer: 117.19126008284857 kcal/mol)

>  <smiles>  (80) 
O=C(Nc1cccnc1N1CCN(C(=O)Cc2ccc(-n3cnnn3)nc2)CC1)c1cccnc1

>  <score_type>  (80) 
oracle

>  <origin>  (80) 
adg

>  <m_score__min__energy>  (80) 
-9.4600000000000009

>  <m_primary>  (80) 
energy

$$$$
80:0
     RDKit          3D

 60 64  0  0  0  0  0  0  0  0999 V2000
   57.0490   23.7360   48.5870 C   0  0  0  0  0  0  0  0  0  0  0  0
   56.1510   24.0750   47.4450 C   0  0  0  0  0  0  0  0  0  0  0  0
   55.4540   23.1730   46.6730 C   0  0  0  0  0  0  0  0  0  0  0  0
   54.7620   23.9680   45.7790 C   0  0  0  0  0  0  0  0  0  0  0  0
   53.9140   23.5090   44.6670 C   0  0  0  0  0  0  0  0  0  0  0  0
   52.7800   23.0290   44.9240 O   0  0  0  0  0  0  0  0  0  0  0  0
   54.3180   23.6250   43.2970 N   0  0  0  0  0  0  0  0  0  0  0  0
   55.4790   22.9580   42.7180 C   0  0  0  0  0  0  0  0  0  0  0  0
   56.6820   23.2310   43.5730 C   0  0  0  0  0  0  0  0  0  0  0  0
   57.4330   22.1650   44.0900 C   0  0  0  0  0  0  0  0  0  0  0  0
   58.5180   22.4150   44.9320 C   0  0  0  0  0  0  0  0  0  0  0  0
   58.8560   23.7260   45.2740 C   0  0  0  0  0  0  0  0  0  0  0  0
   58.1070   24.8070   44.7770 C   0  0  0  0  0  0  0  0  0  0  0  0
   58.4550   26.1990   45.1550 C   0  0  0  0  0  0  0  0  0  0  0  0
   58.4830   27.2170   44.1860 C   0  0  0  0  0  0  0  0  0  0  0  0
   58.8030   28.5300   44.5440 C   0  0  0  0  0  0  0  0  0  0  0  0
   59.0920   28.8530   45.8800 C   0  0  0  0  0  0  0  0  0  0  0  0
   59.4350   30.2460   46.2520 C   0  0  0  0  0  0  0  0  0  0  0  0
   60.5680   30.4890   46.7490 O   0  0  0  0  0  0  0  0  0  0  0  0
   58.5040   31.3280   46.0650 N   0  0  0  0  0  0  0  0  0  0  0  0
   57.7440   31.4710   44.8200 C   0  0  0  0  0  0  0  0  0  0  0  0
   57.9110   32.8980   44.2670 C   0  0  0  0  0  0  0  0  0  0  0  0
   57.7790   33.9700   45.2920 N   0  0  0  0  0  0  0  0  0  0  0  0
   58.9870   34.8100   45.3300 C   0  0  0  0  0  0  0  0  0  0  0  0
   59.5050   35.0460   46.7400 C   0  0  0  0  0  0  0  0  0  0  0  0
   60.2300   34.0810   45.8160 C   0  0  0  0  0  0  0  0  0  0  0  0
   57.4430   33.4810   46.6470 C   0  0  0  0  0  0  0  0  0  0  0  0
   58.3830   32.3570   47.1000 C   0  0  0  0  0  0  0  0  0  0  0  0
   59.0840   27.8330   46.8430 C   0  0  0  0  0  0  0  0  0  0  0  0
   58.7600   26.5210   46.4880 C   0  0  0  0  0  0  0  0  0  0  0  0
   57.0150   24.5490   43.9280 C   0  0  0  0  0  0  0  0  0  0  0  0
   55.0580   25.2620   46.0040 N   0  0  0  0  0  0  0  0  0  0  0  0
   55.8960   25.3280   47.0280 N   0  0  0  0  0  0  0  0  0  0  0  0
   56.5270   23.9331   49.5350 H   0  0  0  0  0  0  0  0  0  0  0  0
   57.3239   22.6722   48.5341 H   0  0  0  0  0  0  0  0  0  0  0  0
   57.9583   24.3527   48.5341 H   0  0  0  0  0  0  0  0  0  0  0  0
   55.4490   22.0757   46.7498 H   0  0  0  0  0  0  0  0  0  0  0  0
   55.2969   21.8741   42.6744 H   0  0  0  0  0  0  0  0  0  0  0  0
   55.6545   23.3380   41.7008 H   0  0  0  0  0  0  0  0  0  0  0  0
   57.1663   21.1296   43.8313 H   0  0  0  0  0  0  0  0  0  0  0  0
   59.1091   21.5759   45.3277 H   0  0  0  0  0  0  0  0  0  0  0  0
   59.7137   23.9141   45.9365 H   0  0  0  0  0  0  0  0  0  0  0  0
   58.2512   26.9786   43.1375 H   0  0  0  0  0  0  0  0  0  0  0  0
   58.8286   29.3154   43.7742 H   0  0  0  0  0  0  0  0  0  0  0  0
   58.1159   30.7470   44.0801 H   0  0  0  0  0  0  0  0  0  0  0  0
   56.6792   31.2822   45.0212 H   0  0  0  0  0  0  0  0  0  0  0  0
   58.9094   32.9769   43.8122 H   0  0  0  0  0  0  0  0  0  0  0  0
   57.0984   33.0527   43.5419 H   0  0  0  0  0  0  0  0  0  0  0  0
   58.7478   35.4447   44.4640 H   0  0  0  0  0  0  0  0  0  0  0  0
   59.9676   36.0090   47.0019 H   0  0  0  0  0  0  0  0  0  0  0  0
   59.0719   34.9796   47.7489 H   0  0  0  0  0  0  0  0  0  0  0  0
   61.2172   34.3457   45.4093 H   0  0  0  0  0  0  0  0  0  0  0  0
   60.5387   33.0271   45.8794 H   0  0  0  0  0  0  0  0  0  0  0  0
   57.5218   34.3179   47.3566 H   0  0  0  0  0  0  0  0  0  0  0  0
   56.4196   33.0786   46.6196 H   0  0  0  0  0  0  0  0  0  0  0  0
   59.3774   32.7800   47.3053 H   0  0  0  0  0  0  0  0  0  0  0  0
   57.9670   31.8953   48.0076 H   0  0  0  0  0  0  0  0  0  0  0  0
   59.3352   28.0683   47.8877 H   0  0  0  0  0  0  0  0  0  0  0  0
   58.7436   25.7350   47.2574 H   0  0  0  0  0  0  0  0  0  0  0  0
   56.4170   25.3863   43.5389 H   0  0  0  0  0  0  0  0  0  0  0  0
  1  2  1  0
  2  3  1  0
  3  4  2  0
  4  5  1  0
  5  6  2  0
  5  7  1  0
  7  8  1  0
  8  9  1  0
  9 10  2  0
 10 11  1  0
 11 12  2  0
 12 13  1  0
 13 14  1  0
 14 15  2  0
 15 16  1  0
 16 17  2  0
 17 18  1  0
 18 19  2  0
 18 20  1  0
 20 21  1  0
 21 22  1  0
 22 23  1  0
 23 24  1  0
 24 25  1  0
 25 26  1  0
 23 27  1  0
 27 28  1  0
 17 29  1  0
 29 30  2  0
 13 31  2  0
  4 32  1  0
 32 33  1  0
 33  2  2  0
 31  9  1  0
 30 14  1  0
 28 20  1  0
 26 24  1  0
  1 34  1  0
  1 35  1  0
  1 36  1  0
  3 37  1  0
  8 38  1  0
  8 39  1  0
 10 40  1  0
 11 41  1  0
 12 42  1  0
 15 43  1  0
 16 44  1  0
 21 45  1  0
 21 46  1  0
 22 47  1  0
 22 48  1  0
 24 49  1  0
 25 50  1  0
 25 51  1  0
 26 52  1  0
 26 53  1  0
 27 54  1  0
 27 55  1  0
 28 56  1  0
 28 57  1  0
 29 58  1  0
 30 59  1  0
 31 60  1  0
M  CHG  2   7  -1  32  -1
M  END
>  <UniqueID>  (81) 
81

>  <SMILES>  (81) 
Cc1cc(C(=O)[N-]Cc2cccc(-c3ccc(C(=O)N4CCN(C5CC5)CC4)cc3)c2)[n-]n1

>  <Energy>  (81) 
375.8454999373087

>  <Genealogy>  (81) 
Cc1cc(C(=O)[N-]Cc2cccc(-c3ccc(C(=O)N4CCN(C5CC5)CC4)cc3)c2)[n-]n1 (protonated)
Cc1cc(C(=O)[N-]Cc2cccc(-c3ccc(C(=O)N4CCN(C5CC5)CC4)cc3)c2)[n-]n1 (3D coordinates assigned)
Cc1cc(C(=O)[N-]Cc2cccc(-c3ccc(C(=O)N4CCN(C5CC5)CC4)cc3)c2)[n-]n1 (nonaromatic ring conformer: 375.8454999373087 kcal/mol)

>  <smiles>  (81) 
Cc1cc(C(=O)NCc2cccc(-c3ccc(C(=O)N4CCN(C5CC5)CC4)cc3)c2)[nH]n1

>  <score_type>  (81) 
oracle

>  <origin>  (81) 
adg

>  <m_score__min__energy>  (81) 
-14.42

>  <m_primary>  (81) 
energy

$$$$
81:0
     RDKit          3D

 55 58  0  0  0  0  0  0  0  0999 V2000
   62.0370   32.0650   47.6060 C   0  0  0  0  0  0  0  0  0  0  0  0
   61.7820   31.1730   48.6870 O   0  0  0  0  0  0  0  0  0  0  0  0
   60.5790   31.1210   49.4120 C   0  0  0  0  0  0  0  0  0  0  0  0
   59.7880   32.2700   49.6200 C   0  0  0  0  0  0  0  0  0  0  0  0
   58.5980   32.1860   50.3480 C   0  0  0  0  0  0  0  0  0  0  0  0
   58.1900   30.9650   50.8860 C   0  0  0  0  0  0  0  0  0  0  0  0
   58.9670   29.8210   50.6930 C   0  0  0  0  0  0  0  0  0  0  0  0
   60.1550   29.8860   49.9450 C   0  0  0  0  0  0  0  0  0  0  0  0
   60.9980   28.6510   49.7760 C   0  0  0  0  0  0  0  0  0  0  0  0
   60.2030   27.6090   49.1440 N   0  0  0  0  0  0  0  0  0  0  0  0
   60.3830   27.2070   47.7810 C   0  0  0  0  0  0  0  0  0  0  0  0
   60.8190   26.0510   47.5230 O   0  0  0  0  0  0  0  0  0  0  0  0
   59.9690   28.1190   46.6430 C   0  0  0  0  0  0  0  0  0  0  0  0
   59.7990   27.3510   45.3070 C   0  0  0  0  0  0  0  0  0  0  0  0
   58.8830   28.1240   44.3570 C   0  0  0  0  0  0  0  0  0  0  0  0
   57.5090   28.2140   44.8970 N   0  0  0  0  0  0  0  0  0  0  0  0
   56.6130   29.4780   44.0870 S   0  0  0  0  0  0  0  0  0  0  0  0
   55.2240   29.5480   44.6600 O   0  0  0  0  0  0  0  0  0  0  0  0
   56.4960   29.1510   42.6240 O   0  0  0  0  0  0  0  0  0  0  0  0
   57.3960   31.0500   44.2700 C   0  0  0  0  0  0  0  0  0  0  0  0
   57.7300   31.8080   43.1370 C   0  0  0  0  0  0  0  0  0  0  0  0
   58.3350   33.0600   43.2770 C   0  0  0  0  0  0  0  0  0  0  0  0
   58.6150   33.5660   44.5500 C   0  0  0  0  0  0  0  0  0  0  0  0
   59.2000   34.7860   44.6880 N   0  0  0  0  0  0  0  0  0  0  0  0
   59.4850   35.3080   45.9110 C   0  0  0  0  0  0  0  0  0  0  0  0
   60.0260   36.4410   45.9950 O   0  0  0  0  0  0  0  0  0  0  0  0
   59.1780   34.5890   47.0700 C   0  0  0  0  0  0  0  0  0  0  0  0
   58.5770   33.3330   46.9610 C   0  0  0  0  0  0  0  0  0  0  0  0
   58.2880   32.8060   45.6950 C   0  0  0  0  0  0  0  0  0  0  0  0
   57.6830   31.5500   45.5490 C   0  0  0  0  0  0  0  0  0  0  0  0
   57.4320   28.3430   46.3740 C   0  0  0  0  0  0  0  0  0  0  0  0
   58.7040   28.9490   46.9920 C   0  0  0  0  0  0  0  0  0  0  0  0
   62.3189   33.0513   48.0032 H   0  0  0  0  0  0  0  0  0  0  0  0
   62.8580   31.6694   46.9900 H   0  0  0  0  0  0  0  0  0  0  0  0
   61.1309   32.1631   46.9900 H   0  0  0  0  0  0  0  0  0  0  0  0
   60.1095   33.2375   49.2070 H   0  0  0  0  0  0  0  0  0  0  0  0
   57.9815   33.0847   50.4972 H   0  0  0  0  0  0  0  0  0  0  0  0
   57.2553   30.9036   51.4627 H   0  0  0  0  0  0  0  0  0  0  0  0
   58.6473   28.8631   51.1291 H   0  0  0  0  0  0  0  0  0  0  0  0
   61.8680   28.8835   49.1443 H   0  0  0  0  0  0  0  0  0  0  0  0
   61.3448   28.3039   50.7605 H   0  0  0  0  0  0  0  0  0  0  0  0
   60.7944   28.8318   46.4989 H   0  0  0  0  0  0  0  0  0  0  0  0
   60.7844   27.2229   44.8353 H   0  0  0  0  0  0  0  0  0  0  0  0
   59.3479   26.3697   45.5159 H   0  0  0  0  0  0  0  0  0  0  0  0
   59.2824   29.1398   44.2202 H   0  0  0  0  0  0  0  0  0  0  0  0
   58.8462   27.5901   43.3960 H   0  0  0  0  0  0  0  0  0  0  0  0
   57.5143   31.4143   42.1328 H   0  0  0  0  0  0  0  0  0  0  0  0
   58.5914   33.6486   42.3838 H   0  0  0  0  0  0  0  0  0  0  0  0
   59.4080   35.0093   48.0602 H   0  0  0  0  0  0  0  0  0  0  0  0
   58.3311   32.7589   47.8665 H   0  0  0  0  0  0  0  0  0  0  0  0
   57.4326   30.9549   46.4396 H   0  0  0  0  0  0  0  0  0  0  0  0
   56.5781   28.9893   46.6253 H   0  0  0  0  0  0  0  0  0  0  0  0
   57.3161   27.3301   46.7870 H   0  0  0  0  0  0  0  0  0  0  0  0
   58.8330   29.9720   46.6089 H   0  0  0  0  0  0  0  0  0  0  0  0
   58.5860   28.9472   48.0856 H   0  0  0  0  0  0  0  0  0  0  0  0
  1  2  1  0
  2  3  1  0
  3  4  2  0
  4  5  1  0
  5  6  2  0
  6  7  1  0
  7  8  2  0
  8  9  1  0
  9 10  1  0
 10 11  1  0
 11 12  2  0
 11 13  1  0
 13 14  1  0
 14 15  1  0
 15 16  1  0
 16 17  1  0
 17 18  2  0
 17 19  2  0
 17 20  1  0
 20 21  2  0
 21 22  1  0
 22 23  2  0
 23 24  1  0
 24 25  1  0
 25 26  2  0
 25 27  1  0
 27 28  2  0
 28 29  1  0
 29 30  2  0
 16 31  1  0
 31 32  1  0
  8  3  1  0
 32 13  1  0
 30 20  1  0
 29 23  1  0
  1 33  1  0
  1 34  1  0
  1 35  1  0
  4 36  1  0
  5 37  1  0
  6 38  1  0
  7 39  1  0
  9 40  1  0
  9 41  1  0
 13 42  1  0
 14 43  1  0
 14 44  1  0
 15 45  1  0
 15 46  1  0
 21 47  1  0
 22 48  1  0
 27 49  1  0
 28 50  1  0
 30 51  1  0
 31 52  1  0
 31 53  1  0
 32 54  1  0
 32 55  1  0
M  CHG  2  10  -1  24  -1
M  END
>  <UniqueID>  (82) 
82

>  <SMILES>  (82) 
COc1ccccc1C[N-]C(=O)C1CCN(S(=O)(=O)c2ccc3[n-]c(=O)ccc3c2)CC1

>  <Energy>  (82) 
66.36684020072904

>  <Genealogy>  (82) 
COc1ccccc1C[N-]C(=O)C1CCN(S(=O)(=O)c2ccc3[n-]c(=O)ccc3c2)CC1 (protonated)
COc1ccccc1C[N-]C(=O)C1CCN(S(=O)(=O)c2ccc3[n-]c(=O)ccc3c2)CC1 (3D coordinates assigned)
COc1ccccc1C[N-]C(=O)C1CCN(S(=O)(=O)c2ccc3[n-]c(=O)ccc3c2)CC1 (nonaromatic ring conformer: 66.36684020072904 kcal/mol)

>  <smiles>  (82) 
COc1ccccc1CNC(=O)C1CCN(S(=O)(=O)c2ccc3[nH]c(=O)ccc3c2)CC1

>  <score_type>  (82) 
oracle

>  <origin>  (82) 
adg

>  <m_score__min__energy>  (82) 
-12.300000000000001

>  <m_primary>  (82) 
energy

$$$$
82:0
     RDKit          3D

 53 55  0  0  0  0  0  0  0  0999 V2000
   56.6820   30.1300   46.2050 H   0  0  0  0  0  0  0  0  0  0  0  0
   57.4340   30.8070   46.2020 O   0  0  0  0  0  0  0  0  0  0  0  0
   57.8030   31.4850   45.0410 C   0  0  0  0  0  0  0  0  0  0  0  0
   58.3320   32.7590   44.9530 C   0  0  0  0  0  0  0  0  0  0  0  0
   58.5830   33.6910   46.0620 C   0  0  0  0  0  0  0  0  0  0  0  0
   58.4966   34.7661   45.8459 H   0  0  0  0  0  0  0  0  0  0  0  0
   58.9100   33.3390   47.3210 C   0  0  0  0  0  0  0  0  0  0  0  0
   58.0260   32.6890   48.1670 C   0  0  0  0  0  0  0  0  0  0  0  0
   56.9784   32.4339   47.9491 H   0  0  0  0  0  0  0  0  0  0  0  0
   58.7100   32.4230   49.3340 C   0  0  0  0  0  0  0  0  0  0  0  0
   58.1370   31.6820   50.5020 C   0  0  0  0  0  0  0  0  0  0  0  0
   58.4916   32.1406   51.4369 H   0  0  0  0  0  0  0  0  0  0  0  0
   57.0387   31.7299   50.4636 H   0  0  0  0  0  0  0  0  0  0  0  0
   58.4597   30.6311   50.4636 H   0  0  0  0  0  0  0  0  0  0  0  0
   59.9810   32.8850   49.2560 N   0  0  0  0  0  0  0  0  0  0  0  0
   60.9810   32.8210   50.3330 C   0  0  0  0  0  0  0  0  0  0  0  0
   61.1690   31.7681   50.5900 H   0  0  0  0  0  0  0  0  0  0  0  0
   61.9089   33.2985   49.9851 H   0  0  0  0  0  0  0  0  0  0  0  0
   60.4820   33.5580   51.5710 C   0  0  0  0  0  0  0  0  0  0  0  0
   60.8341   33.0380   52.4741 H   0  0  0  0  0  0  0  0  0  0  0  0
   60.8697   34.5874   51.5660 H   0  0  0  0  0  0  0  0  0  0  0  0
   59.3822   33.5803   51.5660 H   0  0  0  0  0  0  0  0  0  0  0  0
   60.1070   33.4890   48.0420 C   0  0  0  0  0  0  0  0  0  0  0  0
   61.1840   34.2050   47.6790 C   0  0  0  0  0  0  0  0  0  0  0  0
   62.0657   34.2434   48.3356 H   0  0  0  0  0  0  0  0  0  0  0  0
   61.1842   34.7529   46.7252 H   0  0  0  0  0  0  0  0  0  0  0  0
   58.4730   33.0970   43.6530 N   0  0  0  0  0  0  0  0  0  0  0  0
   58.0610   31.9930   42.9890 C   0  0  0  0  0  0  0  0  0  0  0  0
   58.0500   31.9170   41.7320 O   0  0  0  0  0  0  0  0  0  0  0  0
   57.6580   30.9910   43.8010 N   0  0  0  0  0  0  0  0  0  0  0  0
   57.0610   29.7090   43.4200 C   0  0  0  0  0  0  0  0  0  0  0  0
   56.6472   29.7892   42.4040 H   0  0  0  0  0  0  0  0  0  0  0  0
   57.8370   28.9300   43.4508 H   0  0  0  0  0  0  0  0  0  0  0  0
   55.9650   29.3420   44.3720 C   0  0  0  0  0  0  0  0  0  0  0  0
   54.9180   30.0450   44.4250 O   0  0  0  0  0  0  0  0  0  0  0  0
   56.1310   28.2200   45.2470 N   0  0  0  0  0  0  0  0  0  0  0  0
   57.2190   27.2540   45.1240 C   0  0  0  0  0  0  0  0  0  0  0  0
   56.8083   26.2917   44.7844 H   0  0  0  0  0  0  0  0  0  0  0  0
   57.9491   27.6408   44.3978 H   0  0  0  0  0  0  0  0  0  0  0  0
   57.9300   27.0490   46.4670 C   0  0  0  0  0  0  0  0  0  0  0  0
   57.1868   27.0988   47.2764 H   0  0  0  0  0  0  0  0  0  0  0  0
   58.4243   26.0665   46.4500 H   0  0  0  0  0  0  0  0  0  0  0  0
   58.9810   28.1040   46.7010 C   0  0  0  0  0  0  0  0  0  0  0  0
   59.7270   28.6100   45.6220 C   0  0  0  0  0  0  0  0  0  0  0  0
   59.5209   28.2570   44.6008 H   0  0  0  0  0  0  0  0  0  0  0  0
   60.7310   29.5610   45.8410 C   0  0  0  0  0  0  0  0  0  0  0  0
   61.3096   29.9549   44.9924 H   0  0  0  0  0  0  0  0  0  0  0  0
   60.9990   30.0110   47.1400 C   0  0  0  0  0  0  0  0  0  0  0  0
   62.2630   31.1990   47.4140 Cl  0  0  0  0  0  0  0  0  0  0  0  0
   60.2640   29.5090   48.2200 C   0  0  0  0  0  0  0  0  0  0  0  0
   60.4754   29.8620   49.2401 H   0  0  0  0  0  0  0  0  0  0  0  0
   59.2600   28.5580   48.0030 C   0  0  0  0  0  0  0  0  0  0  0  0
   58.6863   28.1637   48.8547 H   0  0  0  0  0  0  0  0  0  0  0  0
  1  2  1  0
  2  3  1  0
  3  4  2  0
  4  5  1  0
  5  6  1  0
  5  7  2  0
  7  8  1  0
  8  9  1  0
  8 10  2  0
 10 11  1  0
 11 12  1  0
 11 13  1  0
 11 14  1  0
 10 15  1  0
 15 16  1  0
 16 17  1  0
 16 18  1  0
 16 19  1  0
 19 20  1  0
 19 21  1  0
 19 22  1  0
 15 23  1  0
 23 24  2  0
 24 25  1  0
 24 26  1  0
  4 27  1  0
 27 28  1  0
 28 29  2  0
 28 30  1  0
 30 31  1  0
 31 32  1  0
 31 33  1  0
 31 34  1  0
 34 35  2  0
 34 36  1  0
 36 37  1  0
 37 38  1  0
 37 39  1  0
 37 40  1  0
 40 41  1  0
 40 42  1  0
 40 43  1  0
 43 44  2  0
 44 45  1  0
 44 46  1  0
 46 47  1  0
 46 48  2  0
 48 49  1  0
 48 50  1  0
 50 51  1  0
 50 52  2  0
 52 53  1  0
 30  3  1  0
 52 43  1  0
 23  7  1  0
M  CHG  2  27  -1  36  -1
M  END
>  <UniqueID>  (83) 
83

>  <SMILES>  (83) 
C=c1/c(=C\c2[n-]c(=O)n(CC(=O)[N-]CCc3ccc(Cl)cc3)c2O)cc(C)n1CC

>  <Energy>  (83) 
115.95380861411178

>  <Genealogy>  (83) 
C=c1c(=Cc2[n-]c(=O)n(CC(=O)[N-]CCc3ccc(Cl)cc3)c2O)cc(C)n1CC (protonated)
C=c1/c(=C\c2[n-]c(=O)n(CC(=O)[N-]CCc3ccc(Cl)cc3)c2O)cc(C)n1CC (cis-trans isomerization)
C=c1/c(=C\c2[n-]c(=O)n(CC(=O)[N-]CCc3ccc(Cl)cc3)c2O)cc(C)n1CC (3D coordinates assigned)
C=c1/c(=C\c2[n-]c(=O)n(CC(=O)[N-]CCc3ccc(Cl)cc3)c2O)cc(C)n1CC (optimized conformer: 115.95380861411178 kcal/mol)

>  <smiles>  (83) 
C=c1c(=Cc2[nH]c(=O)n(CC(=O)NCCc3ccc(Cl)cc3)c2O)cc(C)n1CC

>  <score_type>  (83) 
oracle

>  <origin>  (83) 
adg

>  <m_score__min__energy>  (83) 
-11.220000000000001

>  <m_primary>  (83) 
energy

$$$$
83:0
     RDKit          3D

 72 76  0  0  0  0  0  0  0  0999 V2000
   61.7970   33.9320   49.1950 O   0  0  0  0  0  0  0  0  0  0  0  0
   60.6730   34.2120   49.6940 C   0  0  0  0  0  0  0  0  0  0  0  0
   59.7380   34.9690   48.9170 N   0  0  0  0  0  0  0  0  0  0  0  0
   59.3860   34.5740   47.5860 C   0  0  0  0  0  0  0  0  0  0  0  0
   59.6390   35.4330   46.5100 C   0  0  0  0  0  0  0  0  0  0  0  0
   59.3170   35.0440   45.2070 C   0  0  0  0  0  0  0  0  0  0  0  0
   58.7110   33.8060   44.9730 C   0  0  0  0  0  0  0  0  0  0  0  0
   58.4090   32.9520   46.0470 C   0  0  0  0  0  0  0  0  0  0  0  0
   57.7170   31.6370   45.7980 C   0  0  0  0  0  0  0  0  0  0  0  0
   58.7100   30.5480   45.6730 N   0  0  0  0  0  0  0  0  0  0  0  0
   58.6550   29.6050   46.8210 C   0  0  0  0  0  0  0  0  0  0  0  0
   57.9100   28.3090   46.4710 C   0  0  0  0  0  0  0  0  0  0  0  0
   58.5850   27.5800   45.3740 N   0  0  0  0  0  0  0  0  0  0  0  0
   57.6520   26.6240   44.7410 C   0  0  0  0  0  0  0  0  0  0  0  0
   57.5600   25.3620   45.5580 C   0  0  0  0  0  0  0  0  0  0  0  0
   56.9200   25.3820   46.8070 C   0  0  0  0  0  0  0  0  0  0  0  0
   56.8290   24.2120   47.5700 C   0  0  0  0  0  0  0  0  0  0  0  0
   57.3750   23.0170   47.0910 C   0  0  0  0  0  0  0  0  0  0  0  0
   57.2790   21.8570   47.8490 O   0  0  0  0  0  0  0  0  0  0  0  0
   58.0160   22.9910   45.8480 C   0  0  0  0  0  0  0  0  0  0  0  0
   58.1090   24.1590   45.0830 C   0  0  0  0  0  0  0  0  0  0  0  0
   59.2220   28.4800   44.3770 C   0  0  0  0  0  0  0  0  0  0  0  0
   58.5820   29.8750   44.3590 C   0  0  0  0  0  0  0  0  0  0  0  0
   58.7610   33.3370   47.3500 C   0  0  0  0  0  0  0  0  0  0  0  0
   60.3100   33.7160   50.9960 N   0  0  0  0  0  0  0  0  0  0  0  0
   58.8840   33.5750   51.3440 C   0  0  0  0  0  0  0  0  0  0  0  0
   58.6590   32.3530   52.2460 C   0  0  0  0  0  0  0  0  0  0  0  0
   59.5260   31.2540   51.7900 N   0  0  0  0  0  0  0  0  0  0  0  0
   58.9620   30.1650   51.0230 C   0  0  0  0  0  0  0  0  0  0  0  0
   57.8280   30.3030   50.4870 O   0  0  0  0  0  0  0  0  0  0  0  0
   59.7070   28.9080   50.7880 C   0  0  0  0  0  0  0  0  0  0  0  0
   59.9570   28.4750   49.4740 C   0  0  0  0  0  0  0  0  0  0  0  0
   60.6790   27.3000   49.2400 C   0  0  0  0  0  0  0  0  0  0  0  0
   61.1530   26.5440   50.3160 C   0  0  0  0  0  0  0  0  0  0  0  0
   60.8940   26.9550   51.6260 C   0  0  0  0  0  0  0  0  0  0  0  0
   60.1680   28.1270   51.8640 C   0  0  0  0  0  0  0  0  0  0  0  0
   60.9840   31.4920   51.7610 C   0  0  0  0  0  0  0  0  0  0  0  0
   61.2980   32.9940   51.8130 C   0  0  0  0  0  0  0  0  0  0  0  0
   59.2930   35.8140   49.3400 H   0  0  0  0  0  0  0  0  0  0  0  0
   60.0932   36.4184   46.6909 H   0  0  0  0  0  0  0  0  0  0  0  0
   59.5409   35.7135   44.3634 H   0  0  0  0  0  0  0  0  0  0  0  0
   58.4698   33.4995   43.9445 H   0  0  0  0  0  0  0  0  0  0  0  0
   57.0422   31.4176   46.6385 H   0  0  0  0  0  0  0  0  0  0  0  0
   57.1439   31.7068   44.8617 H   0  0  0  0  0  0  0  0  0  0  0  0
   59.6825   29.3528   47.1220 H   0  0  0  0  0  0  0  0  0  0  0  0
   58.1086   30.0988   47.6381 H   0  0  0  0  0  0  0  0  0  0  0  0
   57.8751   27.6641   47.3615 H   0  0  0  0  0  0  0  0  0  0  0  0
   56.8942   28.5711   46.1401 H   0  0  0  0  0  0  0  0  0  0  0  0
   56.6551   27.0834   44.6699 H   0  0  0  0  0  0  0  0  0  0  0  0
   58.0246   26.3730   43.7369 H   0  0  0  0  0  0  0  0  0  0  0  0
   56.4887   26.3197   47.1873 H   0  0  0  0  0  0  0  0  0  0  0  0
   56.3269   24.2326   48.5485 H   0  0  0  0  0  0  0  0  0  0  0  0
   58.4473   22.0517   45.4716 H   0  0  0  0  0  0  0  0  0  0  0  0
   58.6139   24.1353   44.1060 H   0  0  0  0  0  0  0  0  0  0  0  0
   60.2888   28.5834   44.6245 H   0  0  0  0  0  0  0  0  0  0  0  0
   59.0820   28.0326   43.3819 H   0  0  0  0  0  0  0  0  0  0  0  0
   59.0811   30.4874   43.5936 H   0  0  0  0  0  0  0  0  0  0  0  0
   57.5117   29.7609   44.1324 H   0  0  0  0  0  0  0  0  0  0  0  0
   58.5460   32.6650   48.1939 H   0  0  0  0  0  0  0  0  0  0  0  0
   58.5512   34.4799   51.8736 H   0  0  0  0  0  0  0  0  0  0  0  0
   58.3076   33.4389   50.4171 H   0  0  0  0  0  0  0  0  0  0  0  0
   58.9075   32.6115   53.2859 H   0  0  0  0  0  0  0  0  0  0  0  0
   57.6054   32.0413   52.1932 H   0  0  0  0  0  0  0  0  0  0  0  0
   59.5823   29.0643   48.6241 H   0  0  0  0  0  0  0  0  0  0  0  0
   60.8739   26.9707   48.2087 H   0  0  0  0  0  0  0  0  0  0  0  0
   61.7298   25.6257   50.1314 H   0  0  0  0  0  0  0  0  0  0  0  0
   61.2617   26.3558   52.4720 H   0  0  0  0  0  0  0  0  0  0  0  0
   59.9565   28.4395   52.8972 H   0  0  0  0  0  0  0  0  0  0  0  0
   61.4464   30.9977   52.6281 H   0  0  0  0  0  0  0  0  0  0  0  0
   61.3872   31.0822   50.8232 H   0  0  0  0  0  0  0  0  0  0  0  0
   61.2450   33.3465   52.8536 H   0  0  0  0  0  0  0  0  0  0  0  0
   62.3099   33.1770   51.4223 H   0  0  0  0  0  0  0  0  0  0  0  0
  1  2  2  0
  2  3  1  0
  3  4  1  0
  4  5  2  0
  5  6  1  0
  6  7  2  0
  7  8  1  0
  8  9  1  0
  9 10  1  0
 10 11  1  0
 11 12  1  0
 12 13  1  0
 13 14  1  0
 14 15  1  0
 15 16  2  0
 16 17  1  0
 17 18  2  0
 18 19  1  0
 18 20  1  0
 20 21  2  0
 13 22  1  0
 22 23  1  0
  8 24  2  0
  2 25  1  0
 25 26  1  0
 26 27  1  0
 27 28  1  0
 28 29  1  0
 29 30  2  0
 29 31  1  0
 31 32  2  0
 32 33  1  0
 33 34  2  0
 34 35  1  0
 35 36  2  0
 28 37  1  0
 37 38  1  0
 24  4  1  0
 38 25  1  0
 23 10  1  0
 36 31  1  0
 21 15  1  0
  3 39  1  0
  5 40  1  0
  6 41  1  0
  7 42  1  0
  9 43  1  0
  9 44  1  0
 11 45  1  0
 11 46  1  0
 12 47  1  0
 12 48  1  0
 14 49  1  0
 14 50  1  0
 16 51  1  0
 17 52  1  0
 20 53  1  0
 21 54  1  0
 22 55  1  0
 22 56  1  0
 23 57  1  0
 23 58  1  0
 24 59  1  0
 26 60  1  0
 26 61  1  0
 27 62  1  0
 27 63  1  0
 32 64  1  0
 33 65  1  0
 34 66  1  0
 35 67  1  0
 36 68  1  0
 37 69  1  0
 37 70  1  0
 38 71  1  0
 38 72  1  0
M  CHG  1  19  -1
M  END
>  <UniqueID>  (84) 
84

>  <SMILES>  (84) 
O=C(Nc1cccc(CN2CCN(Cc3ccc([O-])cc3)CC2)c1)N1CCN(C(=O)c2ccccc2)CC1

>  <Energy>  (84) 
101.91978009792297

>  <Genealogy>  (84) 
O=C(Nc1cccc(CN2CCN(Cc3ccc([O-])cc3)CC2)c1)N1CCN(C(=O)c2ccccc2)CC1 (protonated)
O=C(Nc1cccc(CN2CCN(Cc3ccc([O-])cc3)CC2)c1)N1CCN(C(=O)c2ccccc2)CC1 (3D coordinates assigned)
O=C(Nc1cccc(CN2CCN(Cc3ccc([O-])cc3)CC2)c1)N1CCN(C(=O)c2ccccc2)CC1 (nonaromatic ring conformer: 101.91978009792297 kcal/mol)

>  <smiles>  (84) 
O=C(Nc1cccc(CN2CCN(Cc3ccc(O)cc3)CC2)c1)N1CCN(C(=O)c2ccccc2)CC1

>  <score_type>  (84) 
oracle

>  <origin>  (84) 
adg

>  <m_score__min__energy>  (84) 
-13.619999999999999

>  <m_primary>  (84) 
energy

$$$$
84:0
     RDKit          3D

 47 49  0  0  0  0  0  0  0  0999 V2000
   55.5190   28.8760   44.8900 N   0  0  0  0  0  0  0  0  0  0  0  0
   56.6330   30.0270   44.2420 S   0  0  0  0  0  0  0  0  0  0  0  0
   56.1660   31.4160   44.5700 O   0  0  0  0  0  0  0  0  0  0  0  0
   56.6930   29.8590   42.7500 O   0  0  0  0  0  0  0  0  0  0  0  0
   58.2240   29.7640   44.9330 C   0  0  0  0  0  0  0  0  0  0  0  0
   58.9040   28.5560   44.8240 C   0  0  0  0  0  0  0  0  0  0  0  0
   60.3730   28.7050   45.6330 S   0  0  0  0  0  0  0  0  0  0  0  0
   60.1410   30.2930   46.1270 C   0  0  0  0  0  0  0  0  0  0  0  0
   61.2740   31.2180   47.0970 S   0  0  0  0  0  0  0  0  0  0  0  0
   61.0490   30.8320   48.5320 O   0  0  0  0  0  0  0  0  0  0  0  0
   62.6790   30.8290   46.7360 O   0  0  0  0  0  0  0  0  0  0  0  0
   61.0360   32.9470   46.9590 N   0  0  0  0  0  0  0  0  0  0  0  0
   60.1460   33.5990   47.9400 C   0  0  0  0  0  0  0  0  0  0  0  0
   60.8440   33.8770   49.2880 C   0  0  0  0  0  0  0  0  0  0  0  0
   59.8250   34.2130   50.3790 C   0  0  0  0  0  0  0  0  0  0  0  0
   58.8720   33.1070   50.5400 N   0  0  0  0  0  0  0  0  0  0  0  0
   58.1940   32.9310   51.7950 C   0  0  0  0  0  0  0  0  0  0  0  0
   57.8960   33.9370   52.4930 O   0  0  0  0  0  0  0  0  0  0  0  0
   57.8440   31.6190   52.2550 N   0  0  0  0  0  0  0  0  0  0  0  0
   58.8710   30.5790   52.3600 C   0  0  0  0  0  0  0  0  0  0  0  0
   58.2780   29.1840   52.0530 C   0  0  0  0  0  0  0  0  0  0  0  0
   56.8600   29.1610   51.9970 O   0  0  0  0  0  0  0  0  0  0  0  0
   56.3110   29.8880   53.0760 C   0  0  0  0  0  0  0  0  0  0  0  0
   56.5210   31.3850   52.8380 C   0  0  0  0  0  0  0  0  0  0  0  0
   58.5620   32.2130   49.4120 C   0  0  0  0  0  0  0  0  0  0  0  0
   58.7470   32.9410   48.0730 C   0  0  0  0  0  0  0  0  0  0  0  0
   58.9150   30.7410   45.6590 C   0  0  0  0  0  0  0  0  0  0  0  0
   54.6320   29.3890   45.0950 H   0  0  0  0  0  0  0  0  0  0  0  0
   58.5444   27.6583   44.2999 H   0  0  0  0  0  0  0  0  0  0  0  0
   59.9243   34.5888   47.5145 H   0  0  0  0  0  0  0  0  0  0  0  0
   61.4112   32.9840   49.5894 H   0  0  0  0  0  0  0  0  0  0  0  0
   61.5161   34.7385   49.1614 H   0  0  0  0  0  0  0  0  0  0  0  0
   60.3523   34.3798   51.3299 H   0  0  0  0  0  0  0  0  0  0  0  0
   59.2758   35.1213   50.0902 H   0  0  0  0  0  0  0  0  0  0  0  0
   59.6759   30.7941   51.6418 H   0  0  0  0  0  0  0  0  0  0  0  0
   59.2634   30.5754   53.3876 H   0  0  0  0  0  0  0  0  0  0  0  0
   58.6684   28.8481   51.0810 H   0  0  0  0  0  0  0  0  0  0  0  0
   58.5755   28.5219   52.8795 H   0  0  0  0  0  0  0  0  0  0  0  0
   55.2343   29.6757   53.1518 H   0  0  0  0  0  0  0  0  0  0  0  0
   56.8086   29.5908   54.0109 H   0  0  0  0  0  0  0  0  0  0  0  0
   55.7484   31.7561   52.1486 H   0  0  0  0  0  0  0  0  0  0  0  0
   56.4506   31.9166   53.7985 H   0  0  0  0  0  0  0  0  0  0  0  0
   59.2347   31.3433   49.4456 H   0  0  0  0  0  0  0  0  0  0  0  0
   57.5139   31.8897   49.4959 H   0  0  0  0  0  0  0  0  0  0  0  0
   58.6202   32.2147   47.2566 H   0  0  0  0  0  0  0  0  0  0  0  0
   57.9956   33.7428   48.0230 H   0  0  0  0  0  0  0  0  0  0  0  0
   58.5274   31.7546   45.8389 H   0  0  0  0  0  0  0  0  0  0  0  0
  1  2  1  0
  2  3  2  0
  2  4  2  0
  2  5  1  0
  5  6  2  0
  6  7  1  0
  7  8  1  0
  8  9  1  0
  9 10  2  0
  9 11  2  0
  9 12  1  0
 12 13  1  0
 13 14  1  0
 14 15  1  0
 15 16  1  0
 16 17  1  0
 17 18  2  0
 17 19  1  0
 19 20  1  0
 20 21  1  0
 21 22  1  0
 22 23  1  0
 23 24  1  0
 16 25  1  0
 25 26  1  0
  8 27  2  0
 27  5  1  0
 26 13  1  0
 24 19  1  0
  1 28  1  0
  6 29  1  0
 13 30  1  0
 14 31  1  0
 14 32  1  0
 15 33  1  0
 15 34  1  0
 20 35  1  0
 20 36  1  0
 21 37  1  0
 21 38  1  0
 23 39  1  0
 23 40  1  0
 24 41  1  0
 24 42  1  0
 25 43  1  0
 25 44  1  0
 26 45  1  0
 26 46  1  0
 27 47  1  0
M  CHG  2   1  -1  12  -1
M  END
>  <UniqueID>  (85) 
85

>  <SMILES>  (85) 
[NH-]S(=O)(=O)c1csc(S(=O)(=O)[N-]C2CCN(C(=O)N3CCOCC3)CC2)c1

>  <Energy>  (85) 
88.0772799714228

>  <Genealogy>  (85) 
[NH-]S(=O)(=O)c1csc(S(=O)(=O)[N-]C2CCN(C(=O)N3CCOCC3)CC2)c1 (protonated)
[NH-]S(=O)(=O)c1csc(S(=O)(=O)[N-]C2CCN(C(=O)N3CCOCC3)CC2)c1 (3D coordinates assigned)
[NH-]S(=O)(=O)c1csc(S(=O)(=O)[N-]C2CCN(C(=O)N3CCOCC3)CC2)c1 (nonaromatic ring conformer: 88.0772799714228 kcal/mol)

>  <smiles>  (85) 
NS(=O)(=O)c1csc(S(=O)(=O)NC2CCN(C(=O)N3CCOCC3)CC2)c1

>  <score_type>  (85) 
oracle

>  <origin>  (85) 
adg

>  <m_score__min__energy>  (85) 
-12.789999999999999

>  <m_primary>  (85) 
energy

$$$$
85:0
     RDKit          3D

 22 23  0  0  0  0  0  0  0  0999 V2000
   58.4191   29.1626   46.1098 H   0  0  0  0  0  0  0  0  0  0  0  0
   57.5740   29.1410   45.4060 C   0  0  0  0  0  0  0  0  0  0  0  0
   56.6480   28.2420   45.5380 N   0  0  0  0  0  0  0  0  0  0  0  0
   56.8510   26.9150   46.0500 C   0  0  0  0  0  0  0  0  0  0  0  0
   58.1640   26.4970   46.3060 C   0  0  0  0  0  0  0  0  0  0  0  0
   59.0013   27.1847   46.1162 H   0  0  0  0  0  0  0  0  0  0  0  0
   58.4200   25.2150   46.8000 C   0  0  0  0  0  0  0  0  0  0  0  0
   59.4536   24.9032   47.0110 H   0  0  0  0  0  0  0  0  0  0  0  0
   57.3630   24.3290   47.0260 C   0  0  0  0  0  0  0  0  0  0  0  0
   57.6170   23.0560   47.5210 O   0  0  0  0  0  0  0  0  0  0  0  0
   56.0510   24.7220   46.7460 C   0  0  0  0  0  0  0  0  0  0  0  0
   55.2210   24.0215   46.9204 H   0  0  0  0  0  0  0  0  0  0  0  0
   55.7880   26.0020   46.2450 C   0  0  0  0  0  0  0  0  0  0  0  0
   54.4800   26.3380   45.9150 O   0  0  0  0  0  0  0  0  0  0  0  0
   57.5010   30.1290   44.3240 C   0  0  0  0  0  0  0  0  0  0  0  0
   56.6300   29.9290   42.9010 S   0  0  0  0  0  0  0  0  0  0  0  0
   57.0350   31.4150   42.2280 C   0  0  0  0  0  0  0  0  0  0  0  0
   56.7013   31.7911   41.2497 H   0  0  0  0  0  0  0  0  0  0  0  0
   57.8630   32.0870   43.1180 C   0  0  0  0  0  0  0  0  0  0  0  0
   58.2738   33.0878   42.9188 H   0  0  0  0  0  0  0  0  0  0  0  0
   58.1260   31.3710   44.2930 C   0  0  0  0  0  0  0  0  0  0  0  0
   58.7609   31.7516   45.1066 H   0  0  0  0  0  0  0  0  0  0  0  0
  1  2  1  0
  2  3  2  0
  3  4  1  0
  4  5  2  0
  5  6  1  0
  5  7  1  0
  7  8  1  0
  7  9  2  0
  9 10  1  0
  9 11  1  0
 11 12  1  0
 11 13  2  0
 13 14  1  0
  2 15  1  0
 15 16  1  0
 16 17  1  0
 17 18  1  0
 17 19  2  0
 19 20  1  0
 19 21  1  0
 21 22  1  0
 13  4  1  0
 21 15  2  0
M  CHG  2  10  -1  14  -1
M  END
>  <UniqueID>  (86) 
86

>  <SMILES>  (86) 
[O-]c1ccc(/N=C/c2cccs2)c([O-])c1

>  <Energy>  (86) 
52.819350885599555

>  <Genealogy>  (86) 
[O-]c1ccc(N=Cc2cccs2)c([O-])c1 (protonated)
[O-]c1ccc(/N=C/c2cccs2)c([O-])c1 (cis-trans isomerization)
[O-]c1ccc(/N=C/c2cccs2)c([O-])c1 (3D coordinates assigned)
[O-]c1ccc(/N=C/c2cccs2)c([O-])c1 (optimized conformer: 52.819350885599555 kcal/mol)

>  <smiles>  (86) 
Oc1ccc(N=Cc2cccs2)c(O)c1

>  <score_type>  (86) 
oracle

>  <origin>  (86) 
adg

>  <m_score__min__energy>  (86) 
-11.539999999999999

>  <m_primary>  (86) 
energy

$$$$
86:0
     RDKit          3D

 26 28  0  0  0  0  0  0  0  0999 V2000
   58.3940   33.2730   42.6400 H   0  0  0  0  0  0  0  0  0  0  0  0
   57.6750   32.5620   42.5590 O   0  0  0  0  0  0  0  0  0  0  0  0
   57.6430   31.4600   43.4080 C   0  0  0  0  0  0  0  0  0  0  0  0
   56.4120   30.9610   43.8900 C   0  0  0  0  0  0  0  0  0  0  0  0
   55.4726   31.4513   43.5949 H   0  0  0  0  0  0  0  0  0  0  0  0
   56.3760   29.8440   44.7430 C   0  0  0  0  0  0  0  0  0  0  0  0
   55.1480   29.2910   45.0790 O   0  0  0  0  0  0  0  0  0  0  0  0
   57.5980   29.2860   45.1680 C   0  0  0  0  0  0  0  0  0  0  0  0
   57.9380   28.1920   45.9750 C   0  0  0  0  0  0  0  0  0  0  0  0
   57.1670   27.4420   46.7890 C   0  0  0  0  0  0  0  0  0  0  0  0
   56.7826   27.9181   47.7031 H   0  0  0  0  0  0  0  0  0  0  0  0
   56.8000   26.0390   46.5510 C   0  0  0  0  0  0  0  0  0  0  0  0
   57.6180   25.0020   46.8010 N   0  0  0  0  0  0  0  0  0  0  0  0
   56.8350   23.9250   46.5770 C   0  0  0  0  0  0  0  0  0  0  0  0
   57.2570   22.7440   46.6930 O   0  0  0  0  0  0  0  0  0  0  0  0
   55.5610   24.2100   46.2300 N   0  0  0  0  0  0  0  0  0  0  0  0
   55.5500   25.5530   46.2330 C   0  0  0  0  0  0  0  0  0  0  0  0
   54.4170   26.3160   45.9770 O   0  0  0  0  0  0  0  0  0  0  0  0
   59.3260   28.0470   45.7960 C   0  0  0  0  0  0  0  0  0  0  0  0
   60.1260   27.1250   46.3390 C   0  0  0  0  0  0  0  0  0  0  0  0
   59.7049   26.3493   46.9955 H   0  0  0  0  0  0  0  0  0  0  0  0
   61.2058   27.1416   46.1296 H   0  0  0  0  0  0  0  0  0  0  0  0
   59.7910   28.9920   45.0050 O   0  0  0  0  0  0  0  0  0  0  0  0
   58.7840   29.7370   44.6290 C   0  0  0  0  0  0  0  0  0  0  0  0
   58.8440   30.8300   43.7690 C   0  0  0  0  0  0  0  0  0  0  0  0
   59.8084   31.1908   43.3821 H   0  0  0  0  0  0  0  0  0  0  0  0
  1  2  1  0
  2  3  1  0
  3  4  2  0
  4  5  1  0
  4  6  1  0
  6  7  1  0
  6  8  2  0
  8  9  1  0
  9 10  2  0
 10 11  1  0
 10 12  1  0
 12 13  1  0
 13 14  1  0
 14 15  2  0
 14 16  1  0
 16 17  1  0
 17 18  1  0
  9 19  1  0
 19 20  2  0
 20 21  1  0
 20 22  1  0
 19 23  1  0
 23 24  1  0
 24 25  2  0
 25 26  1  0
 25  3  1  0
 24  8  1  0
 17 12  2  0
M  CHG  4   7  -1  13  -1  16  -1  18  -1
M  END
>  <UniqueID>  (87) 
87

>  <SMILES>  (87) 
C=c1oc2cc(O)cc([O-])c2/c1=C\c1[n-]c(=O)[n-]c1[O-]

>  <Energy>  (87) 
108.47125604903438

>  <Genealogy>  (87) 
C=c1oc2cc(O)cc([O-])c2c1=Cc1[n-]c(=O)[n-]c1[O-] (protonated)
C=c1oc2cc(O)cc([O-])c2/c1=C\c1[n-]c(=O)[n-]c1[O-] (cis-trans isomerization)
C=c1oc2cc(O)cc([O-])c2/c1=C\c1[n-]c(=O)[n-]c1[O-] (3D coordinates assigned)
C=c1oc2cc(O)cc([O-])c2/c1=C\c1[n-]c(=O)[n-]c1[O-] (optimized conformer: 108.47125604903438 kcal/mol)

>  <smiles>  (87) 
C=c1oc2cc(O)cc(O)c2c1=Cc1[nH]c(=O)[nH]c1O

>  <score_type>  (87) 
oracle

>  <origin>  (87) 
adg

>  <m_score__min__energy>  (87) 
-16.18

>  <m_primary>  (87) 
energy

$$$$
