0:0
     RDKit          3D

 32 33  0  0  0  0  0  0  0  0999 V2000
   63.8180   33.5030   46.5570 N   0  0  0  0  0  0  0  0  0  0  0  0
   62.5430   33.2580   47.6980 S   0  0  0  0  0  0  0  0  0  0  0  0
   62.2660   31.7850   47.8190 O   0  0  0  0  0  0  0  0  0  0  0  0
   62.9630   33.8030   49.0340 O   0  0  0  0  0  0  0  0  0  0  0  0
   61.1390   34.0700   47.1540 O   0  0  0  0  0  0  0  0  0  0  0  0
   60.0150   33.4400   46.6000 C   0  0  0  0  0  0  0  0  0  0  0  0
   59.5920   33.8440   45.3290 C   0  0  0  0  0  0  0  0  0  0  0  0
   58.4740   33.2560   44.7300 C   0  0  0  0  0  0  0  0  0  0  0  0
   57.7600   32.2470   45.3990 C   0  0  0  0  0  0  0  0  0  0  0  0
   56.6050   31.6200   44.8270 N   0  0  0  0  0  0  0  0  0  0  0  0
   56.5060   29.9570   44.3450 S   0  0  0  0  0  0  0  0  0  0  0  0
   56.5050   29.8780   42.8450 O   0  0  0  0  0  0  0  0  0  0  0  0
   55.2260   29.3690   44.8680 O   0  0  0  0  0  0  0  0  0  0  0  0
   57.8980   29.0710   44.9610 C   0  0  0  0  0  0  0  0  0  0  0  0
   59.1890   29.3630   44.4980 C   0  0  0  0  0  0  0  0  0  0  0  0
   60.2870   28.6460   44.9830 C   0  0  0  0  0  0  0  0  0  0  0  0
   60.1010   27.6380   45.9320 C   0  0  0  0  0  0  0  0  0  0  0  0
   58.8170   27.3460   46.4000 C   0  0  0  0  0  0  0  0  0  0  0  0
   57.7170   28.0620   45.9170 C   0  0  0  0  0  0  0  0  0  0  0  0
   58.1880   31.8360   46.6670 C   0  0  0  0  0  0  0  0  0  0  0  0
   59.3040   32.4250   47.2680 C   0  0  0  0  0  0  0  0  0  0  0  0
   63.4050   33.3610   45.6070 H   0  0  0  0  0  0  0  0  0  0  0  0
   64.5070   32.7330   46.7020 H   0  0  0  0  0  0  0  0  0  0  0  0
   60.1444   34.6318   44.7959 H   0  0  0  0  0  0  0  0  0  0  0  0
   58.1518   33.5844   43.7309 H   0  0  0  0  0  0  0  0  0  0  0  0
   59.3381   30.1575   43.7520 H   0  0  0  0  0  0  0  0  0  0  0  0
   61.2985   28.8759   44.6168 H   0  0  0  0  0  0  0  0  0  0  0  0
   60.9658   27.0737   46.3112 H   0  0  0  0  0  0  0  0  0  0  0  0
   58.6715   26.5530   47.1483 H   0  0  0  0  0  0  0  0  0  0  0  0
   56.7072   27.8328   46.2883 H   0  0  0  0  0  0  0  0  0  0  0  0
   57.6406   31.0417   47.1955 H   0  0  0  0  0  0  0  0  0  0  0  0
   59.6277   32.0945   48.2660 H   0  0  0  0  0  0  0  0  0  0  0  0
  1  2  1  0
  2  3  2  0
  2  4  2  0
  2  5  1  0
  5  6  1  0
  6  7  2  0
  7  8  1  0
  8  9  2  0
  9 10  1  0
 10 11  1  0
 11 12  2  0
 11 13  2  0
 11 14  1  0
 14 15  2  0
 15 16  1  0
 16 17  2  0
 17 18  1  0
 18 19  2  0
  9 20  1  0
 20 21  2  0
 21  6  1  0
 19 14  1  0
  1 22  1  0
  1 23  1  0
  7 24  1  0
  8 25  1  0
 15 26  1  0
 16 27  1  0
 17 28  1  0
 18 29  1  0
 19 30  1  0
 20 31  1  0
 21 32  1  0
M  CHG  1  10  -1
M  END
>  <UniqueID>  (1) 
1

>  <SMILES>  (1) 
NS(=O)(=O)Oc1ccc([N-]S(=O)(=O)c2ccccc2)cc1

>  <Energy>  (1) 
32.4410920307257

>  <Genealogy>  (1) 
NS(=O)(=O)Oc1ccc([N-]S(=O)(=O)c2ccccc2)cc1 (protonated)
NS(=O)(=O)Oc1ccc([N-]S(=O)(=O)c2ccccc2)cc1 (3D coordinates assigned)
NS(=O)(=O)Oc1ccc([N-]S(=O)(=O)c2ccccc2)cc1 (optimized conformer: 32.4410920307257 kcal/mol)

>  <smiles>  (1) 
NS(=O)(=O)Oc1ccc(NS(=O)(=O)c2ccccc2)cc1

>  <score_type>  (1) 
oracle

>  <origin>  (1) 
adg

>  <m_score__min__energy>  (1) 
-9.1500000000000004

>  <m_primary>  (1) 
energy

$$$$
1:0
     RDKit          3D

 45 46  0  0  0  0  0  0  0  0999 V2000
   58.8010   34.2980   45.6560 C   0  0  0  0  0  0  0  0  0  0  0  0
   58.0680   33.4680   44.6040 C   0  0  0  0  0  0  0  0  0  0  0  0
   57.0550   32.4950   45.2170 C   0  0  0  0  0  0  0  0  0  0  0  0
   57.0450   31.2220   44.5000 N   0  0  0  0  0  0  0  0  0  0  0  0
   56.6920   29.9660   45.0930 C   0  0  0  0  0  0  0  0  0  0  0  0
   55.5520   29.4740   44.8680 O   0  0  0  0  0  0  0  0  0  0  0  0
   57.6670   29.2540   45.9640 C   0  0  0  0  0  0  0  0  0  0  0  0
   58.5540   30.0080   46.7590 C   0  0  0  0  0  0  0  0  0  0  0  0
   59.4830   29.3790   47.5890 C   0  0  0  0  0  0  0  0  0  0  0  0
   59.5520   27.9900   47.6350 C   0  0  0  0  0  0  0  0  0  0  0  0
   58.6850   27.2210   46.8590 C   0  0  0  0  0  0  0  0  0  0  0  0
   57.7240   27.8360   46.0350 C   0  0  0  0  0  0  0  0  0  0  0  0
   56.8230   27.0320   45.2560 N   0  0  0  0  0  0  0  0  0  0  0  0
   55.9380   26.0200   45.7600 C   0  0  0  0  0  0  0  0  0  0  0  0
   54.7430   26.3340   46.0060 O   0  0  0  0  0  0  0  0  0  0  0  0
   56.4010   24.6410   46.0430 C   0  0  0  0  0  0  0  0  0  0  0  0
   56.7320   23.7790   44.9880 C   0  0  0  0  0  0  0  0  0  0  0  0
   57.1810   22.4820   45.2450 C   0  0  0  0  0  0  0  0  0  0  0  0
   57.3030   22.0190   46.5680 C   0  0  0  0  0  0  0  0  0  0  0  0
   57.7590   20.7260   46.8670 O   0  0  0  0  0  0  0  0  0  0  0  0
   57.2950   19.5400   46.2290 C   0  0  0  0  0  0  0  0  0  0  0  0
   56.9580   22.8670   47.6330 C   0  0  0  0  0  0  0  0  0  0  0  0
   57.0910   22.3810   48.9440 O   0  0  0  0  0  0  0  0  0  0  0  0
   56.0270   21.8230   49.7080 C   0  0  0  0  0  0  0  0  0  0  0  0
   56.4960   24.1690   47.3640 C   0  0  0  0  0  0  0  0  0  0  0  0
   58.5041   33.9618   46.6604 H   0  0  0  0  0  0  0  0  0  0  0  0
   59.8866   34.1704   45.5326 H   0  0  0  0  0  0  0  0  0  0  0  0
   58.5402   35.3595   45.5326 H   0  0  0  0  0  0  0  0  0  0  0  0
   57.5343   34.1508   43.9266 H   0  0  0  0  0  0  0  0  0  0  0  0
   58.8209   32.8700   44.0696 H   0  0  0  0  0  0  0  0  0  0  0  0
   57.3232   32.3127   46.2681 H   0  0  0  0  0  0  0  0  0  0  0  0
   56.0532   32.9436   45.1447 H   0  0  0  0  0  0  0  0  0  0  0  0
   58.5133   31.1067   46.7247 H   0  0  0  0  0  0  0  0  0  0  0  0
   60.1625   29.9828   48.2085 H   0  0  0  0  0  0  0  0  0  0  0  0
   60.2912   27.4979   48.2841 H   0  0  0  0  0  0  0  0  0  0  0  0
   58.7530   26.1236   46.8913 H   0  0  0  0  0  0  0  0  0  0  0  0
   56.6372   24.1274   43.9489 H   0  0  0  0  0  0  0  0  0  0  0  0
   57.4410   21.8179   44.4076 H   0  0  0  0  0  0  0  0  0  0  0  0
   57.0063   18.8021   46.9920 H   0  0  0  0  0  0  0  0  0  0  0  0
   56.4238   19.7782   45.6011 H   0  0  0  0  0  0  0  0  0  0  0  0
   58.0966   19.1238   45.6011 H   0  0  0  0  0  0  0  0  0  0  0  0
   56.2458   21.9378   50.7799 H   0  0  0  0  0  0  0  0  0  0  0  0
   55.0894   22.3455   49.4672 H   0  0  0  0  0  0  0  0  0  0  0  0
   55.9237   20.7547   49.4672 H   0  0  0  0  0  0  0  0  0  0  0  0
   56.2057   24.8254   48.1976 H   0  0  0  0  0  0  0  0  0  0  0  0
  1  2  1  0
  2  3  1  0
  3  4  1  0
  4  5  1  0
  5  6  2  0
  5  7  1  0
  7  8  2  0
  8  9  1  0
  9 10  2  0
 10 11  1  0
 11 12  2  0
 12 13  1  0
 13 14  1  0
 14 15  2  0
 14 16  1  0
 16 17  2  0
 17 18  1  0
 18 19  2  0
 19 20  1  0
 20 21  1  0
 19 22  1  0
 22 23  1  0
 23 24  1  0
 22 25  2  0
 12  7  1  0
 25 16  1  0
  1 26  1  0
  1 27  1  0
  1 28  1  0
  2 29  1  0
  2 30  1  0
  3 31  1  0
  3 32  1  0
  8 33  1  0
  9 34  1  0
 10 35  1  0
 11 36  1  0
 17 37  1  0
 18 38  1  0
 21 39  1  0
 21 40  1  0
 21 41  1  0
 24 42  1  0
 24 43  1  0
 24 44  1  0
 25 45  1  0
M  CHG  2   4  -1  13  -1
M  END
>  <UniqueID>  (2) 
2

>  <SMILES>  (2) 
CCC[N-]C(=O)c1ccccc1[N-]C(=O)c1ccc(OC)c(OC)c1

>  <Energy>  (2) 
48.360161587595826

>  <Genealogy>  (2) 
CCC[N-]C(=O)c1ccccc1[N-]C(=O)c1ccc(OC)c(OC)c1 (protonated)
CCC[N-]C(=O)c1ccccc1[N-]C(=O)c1ccc(OC)c(OC)c1 (3D coordinates assigned)
CCC[N-]C(=O)c1ccccc1[N-]C(=O)c1ccc(OC)c(OC)c1 (optimized conformer: 48.360161587595826 kcal/mol)

>  <smiles>  (2) 
CCCNC(=O)c1ccccc1NC(=O)c1ccc(OC)c(OC)c1

>  <score_type>  (2) 
oracle

>  <origin>  (2) 
adg

>  <m_score__min__energy>  (2) 
-10.68

>  <m_primary>  (2) 
energy

$$$$
2:0
     RDKit          3D

 45 47  0  0  0  0  0  0  0  0999 V2000
   55.9900   30.8580   44.3110 O   0  0  0  0  0  0  0  0  0  0  0  0
   56.5200   29.7570   44.6160 C   0  0  0  0  0  0  0  0  0  0  0  0
   57.8660   29.5340   44.3440 C   0  0  0  0  0  0  0  0  0  0  0  0
   58.4230   28.3060   44.6920 C   0  0  0  0  0  0  0  0  0  0  0  0
   57.6560   27.3370   45.2760 N   0  0  0  0  0  0  0  0  0  0  0  0
   58.2830   26.0610   45.6560 C   0  0  0  0  0  0  0  0  0  0  0  0
   59.7020   26.3020   46.1850 C   0  0  0  0  0  0  0  0  0  0  0  0
   59.6760   26.8360   47.6230 C   0  0  0  0  0  0  0  0  0  0  0  0
   59.7100   28.3150   47.6460 N   0  0  0  0  0  0  0  0  0  0  0  0
   60.7330   28.8550   46.7090 C   0  0  0  0  0  0  0  0  0  0  0  0
   61.2310   30.2630   47.0890 C   0  0  0  0  0  0  0  0  0  0  0  0
   60.2160   30.9730   47.8760 N   0  0  0  0  0  0  0  0  0  0  0  0
   59.7920   32.3020   47.5170 C   0  0  0  0  0  0  0  0  0  0  0  0
   60.4440   33.4270   48.0520 C   0  0  0  0  0  0  0  0  0  0  0  0
   60.0410   34.7160   47.6930 C   0  0  0  0  0  0  0  0  0  0  0  0
   58.9870   34.8960   46.7930 C   0  0  0  0  0  0  0  0  0  0  0  0
   58.3360   33.7860   46.2480 C   0  0  0  0  0  0  0  0  0  0  0  0
   57.0150   34.0110   45.1170 Cl  0  0  0  0  0  0  0  0  0  0  0  0
   58.7380   32.4930   46.6050 C   0  0  0  0  0  0  0  0  0  0  0  0
   59.6630   30.3160   49.0660 C   0  0  0  0  0  0  0  0  0  0  0  0
   59.9190   28.8050   49.0210 C   0  0  0  0  0  0  0  0  0  0  0  0
   56.3340   27.5870   45.5480 C   0  0  0  0  0  0  0  0  0  0  0  0
   55.6190   26.7140   46.1110 O   0  0  0  0  0  0  0  0  0  0  0  0
   55.7800   28.7850   45.2100 N   0  0  0  0  0  0  0  0  0  0  0  0
   58.4779   30.3119   43.8638 H   0  0  0  0  0  0  0  0  0  0  0  0
   59.4882   28.1144   44.4954 H   0  0  0  0  0  0  0  0  0  0  0  0
   57.6802   25.5799   46.4403 H   0  0  0  0  0  0  0  0  0  0  0  0
   58.3369   25.4110   44.7702 H   0  0  0  0  0  0  0  0  0  0  0  0
   60.2582   25.3532   46.1648 H   0  0  0  0  0  0  0  0  0  0  0  0
   60.1894   27.0517   45.5443 H   0  0  0  0  0  0  0  0  0  0  0  0
   58.7560   26.4907   48.1173 H   0  0  0  0  0  0  0  0  0  0  0  0
   60.5649   26.4592   48.1503 H   0  0  0  0  0  0  0  0  0  0  0  0
   61.5944   28.1710   46.7019 H   0  0  0  0  0  0  0  0  0  0  0  0
   60.2567   28.9356   45.7207 H   0  0  0  0  0  0  0  0  0  0  0  0
   62.1521   30.1728   47.6835 H   0  0  0  0  0  0  0  0  0  0  0  0
   61.4279   30.8310   46.1678 H   0  0  0  0  0  0  0  0  0  0  0  0
   61.2768   33.2916   48.7578 H   0  0  0  0  0  0  0  0  0  0  0  0
   60.5542   35.5905   48.1195 H   0  0  0  0  0  0  0  0  0  0  0  0
   58.6698   35.9115   46.5136 H   0  0  0  0  0  0  0  0  0  0  0  0
   58.2267   31.6217   46.1698 H   0  0  0  0  0  0  0  0  0  0  0  0
   60.1393   30.7360   49.9642 H   0  0  0  0  0  0  0  0  0  0  0  0
   58.5771   30.4894   49.0924 H   0  0  0  0  0  0  0  0  0  0  0  0
   60.9540   28.5985   49.3311 H   0  0  0  0  0  0  0  0  0  0  0  0
   59.2244   28.2935   49.7035 H   0  0  0  0  0  0  0  0  0  0  0  0
   54.7700   28.9610   45.4170 H   0  0  0  0  0  0  0  0  0  0  0  0
  1  2  2  0
  2  3  1  0
  3  4  2  0
  4  5  1  0
  5  6  1  0
  6  7  1  0
  7  8  1  0
  8  9  1  0
  9 10  1  0
 10 11  1  0
 11 12  1  0
 12 13  1  0
 13 14  2  0
 14 15  1  0
 15 16  2  0
 16 17  1  0
 17 18  1  0
 17 19  2  0
 12 20  1  0
 20 21  1  0
  5 22  1  0
 22 23  2  0
 22 24  1  0
 24  2  1  0
 21  9  1  0
 19 13  1  0
  3 25  1  0
  4 26  1  0
  6 27  1  0
  6 28  1  0
  7 29  1  0
  7 30  1  0
  8 31  1  0
  8 32  1  0
 10 33  1  0
 10 34  1  0
 11 35  1  0
 11 36  1  0
 14 37  1  0
 15 38  1  0
 16 39  1  0
 19 40  1  0
 20 41  1  0
 20 42  1  0
 21 43  1  0
 21 44  1  0
 24 45  1  0
M  END
>  <UniqueID>  (3) 
3

>  <SMILES>  (3) 
O=c1ccn(CCCN2CCN(c3cccc(Cl)c3)CC2)c(=O)[nH]1

>  <Energy>  (3) 
55.13926466532484

>  <Genealogy>  (3) 
O=c1ccn(CCCN2CCN(c3cccc(Cl)c3)CC2)c(=O)[nH]1 (3D coordinates assigned)
O=c1ccn(CCCN2CCN(c3cccc(Cl)c3)CC2)c(=O)[nH]1 (nonaromatic ring conformer: 55.13926466532484 kcal/mol)

>  <smiles>  (3) 
O=c1ccn(CCCN2CCN(c3cccc(Cl)c3)CC2)c(=O)[nH]1

>  <score_type>  (3) 
oracle

>  <origin>  (3) 
adg

>  <m_score__min__energy>  (3) 
-8.2699999999999996

>  <m_primary>  (3) 
energy

$$$$
3:0
     RDKit          3D

 37 38  0  0  0  0  0  0  0  0999 V2000
   56.7460   30.1080   42.9720 O   0  0  0  0  0  0  0  0  0  0  0  0
   56.5860   29.9940   44.4620 S   0  0  0  0  0  0  0  0  0  0  0  0
   55.1540   29.6600   44.7810 O   0  0  0  0  0  0  0  0  0  0  0  0
   57.0080   31.5110   45.2010 N   0  0  0  0  0  0  0  0  0  0  0  0
   57.6530   32.3810   44.2150 C   0  0  0  0  0  0  0  0  0  0  0  0
   57.7150   33.8100   44.7490 C   0  0  0  0  0  0  0  0  0  0  0  0
   58.4050   33.8290   46.4450 S   0  0  0  0  0  0  0  0  0  0  0  0
   59.9980   34.6360   46.0470 C   0  0  0  0  0  0  0  0  0  0  0  0
   61.1090   34.1260   46.9230 C   0  0  0  0  0  0  0  0  0  0  0  0
   62.3740   33.8470   46.3800 C   0  0  0  0  0  0  0  0  0  0  0  0
   63.4080   33.3910   47.2030 C   0  0  0  0  0  0  0  0  0  0  0  0
   63.1850   33.1950   48.5690 C   0  0  0  0  0  0  0  0  0  0  0  0
   64.4830   32.6210   49.5990 Cl  0  0  0  0  0  0  0  0  0  0  0  0
   61.9270   33.4680   49.1160 C   0  0  0  0  0  0  0  0  0  0  0  0
   60.8950   33.9390   48.2990 C   0  0  0  0  0  0  0  0  0  0  0  0
   57.6620   28.7280   45.0550 C   0  0  0  0  0  0  0  0  0  0  0  0
   59.0500   28.9120   44.9820 C   0  0  0  0  0  0  0  0  0  0  0  0
   59.9190   27.9060   45.4130 C   0  0  0  0  0  0  0  0  0  0  0  0
   59.4070   26.7110   45.9230 C   0  0  0  0  0  0  0  0  0  0  0  0
   60.2510   25.7390   46.3480 F   0  0  0  0  0  0  0  0  0  0  0  0
   58.0250   26.5180   45.9970 C   0  0  0  0  0  0  0  0  0  0  0  0
   57.1510   27.5200   45.5620 C   0  0  0  0  0  0  0  0  0  0  0  0
   55.8130   27.3010   45.6240 F   0  0  0  0  0  0  0  0  0  0  0  0
   57.7030   31.3010   45.9540 H   0  0  0  0  0  0  0  0  0  0  0  0
   58.6734   32.0191   44.0206 H   0  0  0  0  0  0  0  0  0  0  0  0
   57.0709   32.3667   43.2818 H   0  0  0  0  0  0  0  0  0  0  0  0
   58.3552   34.4154   44.0905 H   0  0  0  0  0  0  0  0  0  0  0  0
   56.6970   34.2260   44.7735 H   0  0  0  0  0  0  0  0  0  0  0  0
   60.2493   34.4315   44.9958 H   0  0  0  0  0  0  0  0  0  0  0  0
   59.8900   35.7168   46.2211 H   0  0  0  0  0  0  0  0  0  0  0  0
   62.5517   33.9878   45.3036 H   0  0  0  0  0  0  0  0  0  0  0  0
   64.4001   33.1858   46.7744 H   0  0  0  0  0  0  0  0  0  0  0  0
   61.7495   33.3119   50.1903 H   0  0  0  0  0  0  0  0  0  0  0  0
   59.9108   34.1643   48.7355 H   0  0  0  0  0  0  0  0  0  0  0  0
   59.4570   29.8530   44.5834 H   0  0  0  0  0  0  0  0  0  0  0  0
   61.0070   28.0555   45.3505 H   0  0  0  0  0  0  0  0  0  0  0  0
   57.6233   25.5759   46.3983 H   0  0  0  0  0  0  0  0  0  0  0  0
  1  2  2  0
  2  3  2  0
  2  4  1  0
  4  5  1  0
  5  6  1  0
  6  7  1  0
  7  8  1  0
  8  9  1  0
  9 10  2  0
 10 11  1  0
 11 12  2  0
 12 13  1  0
 12 14  1  0
 14 15  2  0
  2 16  1  0
 16 17  2  0
 17 18  1  0
 18 19  2  0
 19 20  1  0
 19 21  1  0
 21 22  2  0
 22 23  1  0
 15  9  1  0
 22 16  1  0
  4 24  1  0
  5 25  1  0
  5 26  1  0
  6 27  1  0
  6 28  1  0
  8 29  1  0
  8 30  1  0
 10 31  1  0
 11 32  1  0
 14 33  1  0
 15 34  1  0
 17 35  1  0
 18 36  1  0
 21 37  1  0
M  END
>  <UniqueID>  (4) 
4

>  <SMILES>  (4) 
O=S(=O)(NCCSCc1ccc(Cl)cc1)c1ccc(F)cc1F

>  <Energy>  (4) 
26.780222532128192

>  <Genealogy>  (4) 
O=S(=O)(NCCSCc1ccc(Cl)cc1)c1ccc(F)cc1F (3D coordinates assigned)
O=S(=O)(NCCSCc1ccc(Cl)cc1)c1ccc(F)cc1F (optimized conformer: 26.780222532128192 kcal/mol)

>  <smiles>  (4) 
O=S(=O)(NCCSCc1ccc(Cl)cc1)c1ccc(F)cc1F

>  <score_type>  (4) 
oracle

>  <origin>  (4) 
adg

>  <m_score__min__energy>  (4) 
-8.7400000000000002

>  <m_primary>  (4) 
energy

$$$$
4:0
     RDKit          3D

 56 59  0  0  0  0  0  0  0  0999 V2000
   59.2860   35.7350   44.9320 O   0  0  0  0  0  0  0  0  0  0  0  0
   59.5560   34.6630   45.5380 C   0  0  0  0  0  0  0  0  0  0  0  0
   60.4590   34.7120   46.6560 N   0  0  0  0  0  0  0  0  0  0  0  0
   61.3850   33.8420   46.9620 C   0  0  0  0  0  0  0  0  0  0  0  0
   62.6910   33.9190   46.4340 C   0  0  0  0  0  0  0  0  0  0  0  0
   63.6500   32.9830   46.8260 C   0  0  0  0  0  0  0  0  0  0  0  0
   63.3140   31.9860   47.7360 C   0  0  0  0  0  0  0  0  0  0  0  0
   62.0150   31.9380   48.2470 C   0  0  0  0  0  0  0  0  0  0  0  0
   61.0870   32.8550   47.8560 N   0  0  0  0  0  0  0  0  0  0  0  0
   58.8390   33.4150   45.1750 C   0  0  0  0  0  0  0  0  0  0  0  0
   58.4720   32.4880   46.1670 C   0  0  0  0  0  0  0  0  0  0  0  0
   57.7770   31.3250   45.8290 C   0  0  0  0  0  0  0  0  0  0  0  0
   57.4300   31.0720   44.4970 C   0  0  0  0  0  0  0  0  0  0  0  0
   56.5460   29.6010   44.0990 S   0  0  0  0  0  0  0  0  0  0  0  0
   55.2440   29.5410   44.8510 O   0  0  0  0  0  0  0  0  0  0  0  0
   56.2500   29.6290   42.6260 O   0  0  0  0  0  0  0  0  0  0  0  0
   57.5180   28.1940   44.4740 N   0  0  0  0  0  0  0  0  0  0  0  0
   58.9710   28.4860   44.5810 C   0  0  0  0  0  0  0  0  0  0  0  0
   59.5830   28.1860   45.9370 C   0  0  0  0  0  0  0  0  0  0  0  0
   59.5850   29.1610   46.9510 C   0  0  0  0  0  0  0  0  0  0  0  0
   60.1650   28.8870   48.1940 C   0  0  0  0  0  0  0  0  0  0  0  0
   60.7460   27.6390   48.4370 C   0  0  0  0  0  0  0  0  0  0  0  0
   60.7180   26.6490   47.4510 C   0  0  0  0  0  0  0  0  0  0  0  0
   60.1130   26.9130   46.2160 C   0  0  0  0  0  0  0  0  0  0  0  0
   56.9570   27.4590   45.6240 C   0  0  0  0  0  0  0  0  0  0  0  0
   56.7820   25.9980   45.2940 C   0  0  0  0  0  0  0  0  0  0  0  0
   57.4920   25.4280   44.2230 C   0  0  0  0  0  0  0  0  0  0  0  0
   57.3000   24.0850   43.8830 C   0  0  0  0  0  0  0  0  0  0  0  0
   56.3880   23.3050   44.6020 C   0  0  0  0  0  0  0  0  0  0  0  0
   55.6640   23.8680   45.6560 C   0  0  0  0  0  0  0  0  0  0  0  0
   55.8550   25.2120   45.9990 C   0  0  0  0  0  0  0  0  0  0  0  0
   57.8000   31.9850   43.4990 C   0  0  0  0  0  0  0  0  0  0  0  0
   58.4880   33.1570   43.8370 C   0  0  0  0  0  0  0  0  0  0  0  0
   62.9522   34.7118   45.7176 H   0  0  0  0  0  0  0  0  0  0  0  0
   64.6694   33.0339   46.4160 H   0  0  0  0  0  0  0  0  0  0  0  0
   64.0629   31.2438   48.0496 H   0  0  0  0  0  0  0  0  0  0  0  0
   61.7399   31.1552   48.9692 H   0  0  0  0  0  0  0  0  0  0  0  0
   60.1230   32.7950   48.2610 H   0  0  0  0  0  0  0  0  0  0  0  0
   58.7346   32.6807   47.2177 H   0  0  0  0  0  0  0  0  0  0  0  0
   57.5010   30.6046   46.6131 H   0  0  0  0  0  0  0  0  0  0  0  0
   59.4976   27.8826   43.8270 H   0  0  0  0  0  0  0  0  0  0  0  0
   59.0812   29.5693   44.4247 H   0  0  0  0  0  0  0  0  0  0  0  0
   59.1280   30.1442   46.7654 H   0  0  0  0  0  0  0  0  0  0  0  0
   60.1639   29.6549   48.9816 H   0  0  0  0  0  0  0  0  0  0  0  0
   61.2259   27.4359   49.4057 H   0  0  0  0  0  0  0  0  0  0  0  0
   61.1700   25.6650   47.6445 H   0  0  0  0  0  0  0  0  0  0  0  0
   60.0516   26.1185   45.4577 H   0  0  0  0  0  0  0  0  0  0  0  0
   57.6397   27.5556   46.4811 H   0  0  0  0  0  0  0  0  0  0  0  0
   55.9726   27.8851   45.8677 H   0  0  0  0  0  0  0  0  0  0  0  0
   58.2023   26.0414   43.6493 H   0  0  0  0  0  0  0  0  0  0  0  0
   57.8661   23.6421   43.0503 H   0  0  0  0  0  0  0  0  0  0  0  0
   56.2408   22.2475   44.3373 H   0  0  0  0  0  0  0  0  0  0  0  0
   54.9433   23.2548   46.2169 H   0  0  0  0  0  0  0  0  0  0  0  0
   55.2770   25.6543   46.8238 H   0  0  0  0  0  0  0  0  0  0  0  0
   57.5491   31.7800   42.4478 H   0  0  0  0  0  0  0  0  0  0  0  0
   58.7555   33.8799   43.0522 H   0  0  0  0  0  0  0  0  0  0  0  0
  1  2  2  0
  2  3  1  0
  3  4  2  3
  4  5  1  0
  5  6  2  0
  6  7  1  0
  7  8  2  0
  8  9  1  0
  2 10  1  0
 10 11  2  0
 11 12  1  0
 12 13  2  0
 13 14  1  0
 14 15  2  0
 14 16  2  0
 14 17  1  0
 17 18  1  0
 18 19  1  0
 19 20  2  0
 20 21  1  0
 21 22  2  0
 22 23  1  0
 23 24  2  0
 17 25  1  0
 25 26  1  0
 26 27  2  0
 27 28  1  0
 28 29  2  0
 29 30  1  0
 30 31  2  0
 13 32  1  0
 32 33  2  0
  9  4  1  0
 33 10  1  0
 24 19  1  0
 31 26  1  0
  5 34  1  0
  6 35  1  0
  7 36  1  0
  8 37  1  0
  9 38  1  0
 11 39  1  0
 12 40  1  0
 18 41  1  0
 18 42  1  0
 20 43  1  0
 21 44  1  0
 22 45  1  0
 23 46  1  0
 24 47  1  0
 25 48  1  0
 25 49  1  0
 27 50  1  0
 28 51  1  0
 29 52  1  0
 30 53  1  0
 31 54  1  0
 32 55  1  0
 33 56  1  0
M  END
>  <UniqueID>  (5) 
5

>  <SMILES>  (5) 
O=C(N=c1cccc[nH]1)c1ccc(S(=O)(=O)N(Cc2ccccc2)Cc2ccccc2)cc1

>  <Energy>  (5) 
74.81509617757193

>  <Genealogy>  (5) 
O=C(N=c1cccc[nH]1)c1ccc(S(=O)(=O)N(Cc2ccccc2)Cc2ccccc2)cc1 (3D coordinates assigned)
O=C(N=c1cccc[nH]1)c1ccc(S(=O)(=O)N(Cc2ccccc2)Cc2ccccc2)cc1 (optimized conformer: 74.81509617757193 kcal/mol)

>  <smiles>  (5) 
O=C(N=c1cccc[nH]1)c1ccc(S(=O)(=O)N(Cc2ccccc2)Cc2ccccc2)cc1

>  <score_type>  (5) 
oracle

>  <origin>  (5) 
adg

>  <m_score__min__energy>  (5) 
-9.9800000000000004

>  <m_primary>  (5) 
energy

$$$$
5:0
     RDKit          3D

 34 35  0  0  0  0  0  0  0  0999 V2000
   58.7950   34.4950   45.2460 C   0  0  0  0  0  0  0  0  0  0  0  0
   57.9650   33.0810   45.9410 S   0  0  0  0  0  0  0  0  0  0  0  0
   57.7300   33.3400   47.4020 O   0  0  0  0  0  0  0  0  0  0  0  0
   56.6410   32.8670   45.2660 O   0  0  0  0  0  0  0  0  0  0  0  0
   58.9530   31.6620   45.7750 N   0  0  0  0  0  0  0  0  0  0  0  0
   58.4320   30.3180   45.7800 C   0  0  0  0  0  0  0  0  0  0  0  0
   58.6690   29.4570   46.8690 C   0  0  0  0  0  0  0  0  0  0  0  0
   58.1750   28.1520   46.8660 C   0  0  0  0  0  0  0  0  0  0  0  0
   57.4450   27.6750   45.7730 C   0  0  0  0  0  0  0  0  0  0  0  0
   56.8400   26.0220   45.7740 S   0  0  0  0  0  0  0  0  0  0  0  0
   55.3540   26.0010   46.0010 O   0  0  0  0  0  0  0  0  0  0  0  0
   57.5150   25.2570   46.8760 O   0  0  0  0  0  0  0  0  0  0  0  0
   57.1900   25.2600   44.2570 N   0  0  0  0  0  0  0  0  0  0  0  0
   57.1110   23.8500   44.0050 C   0  0  0  0  0  0  0  0  0  0  0  0
   58.0730   23.0070   44.5700 C   0  0  0  0  0  0  0  0  0  0  0  0
   58.0250   21.6310   44.3380 C   0  0  0  0  0  0  0  0  0  0  0  0
   57.0080   21.1090   43.5360 C   0  0  0  0  0  0  0  0  0  0  0  0
   56.0770   21.9380   42.9950 N   0  0  0  0  0  0  0  0  0  0  0  0
   56.1020   23.2810   43.2060 C   0  0  0  0  0  0  0  0  0  0  0  0
   57.2050   28.5180   44.6820 C   0  0  0  0  0  0  0  0  0  0  0  0
   57.6960   29.8310   44.6750 C   0  0  0  0  0  0  0  0  0  0  0  0
   57.4130   30.6660   43.5340 C   0  0  0  0  0  0  0  0  0  0  0  0
   57.1840   31.3360   42.6180 N   0  0  0  0  0  0  0  0  0  0  0  0
   59.1708   35.1352   46.0577 H   0  0  0  0  0  0  0  0  0  0  0  0
   59.6380   34.1570   44.6255 H   0  0  0  0  0  0  0  0  0  0  0  0
   58.0889   35.0663   44.6255 H   0  0  0  0  0  0  0  0  0  0  0  0
   59.9620   31.8260   45.5600 H   0  0  0  0  0  0  0  0  0  0  0  0
   59.2497   29.8171   47.7311 H   0  0  0  0  0  0  0  0  0  0  0  0
   58.3609   27.4948   47.7283 H   0  0  0  0  0  0  0  0  0  0  0  0
   58.8702   23.4293   45.1993 H   0  0  0  0  0  0  0  0  0  0  0  0
   58.7799   20.9655   44.7821 H   0  0  0  0  0  0  0  0  0  0  0  0
   56.9605   20.0272   43.3422 H   0  0  0  0  0  0  0  0  0  0  0  0
   55.3330   23.9231   42.7518 H   0  0  0  0  0  0  0  0  0  0  0  0
   56.6264   28.1473   43.8230 H   0  0  0  0  0  0  0  0  0  0  0  0
  1  2  1  0
  2  3  2  0
  2  4  2  0
  2  5  1  0
  5  6  1  0
  6  7  2  0
  7  8  1  0
  8  9  2  0
  9 10  1  0
 10 11  2  0
 10 12  2  0
 10 13  1  0
 13 14  1  0
 14 15  2  0
 15 16  1  0
 16 17  2  0
 17 18  1  0
 18 19  2  0
  9 20  1  0
 20 21  2  0
 21 22  1  0
 22 23  3  0
 21  6  1  0
 19 14  1  0
  1 24  1  0
  1 25  1  0
  1 26  1  0
  5 27  1  0
  7 28  1  0
  8 29  1  0
 15 30  1  0
 16 31  1  0
 17 32  1  0
 19 33  1  0
 20 34  1  0
M  CHG  1  13  -1
M  END
>  <UniqueID>  (6) 
6

>  <SMILES>  (6) 
CS(=O)(=O)Nc1ccc(S(=O)(=O)[N-]c2cccnc2)cc1C#N

>  <Energy>  (6) 
38.12787617863956

>  <Genealogy>  (6) 
CS(=O)(=O)Nc1ccc(S(=O)(=O)[N-]c2cccnc2)cc1C#N (protonated)
CS(=O)(=O)Nc1ccc(S(=O)(=O)[N-]c2cccnc2)cc1C#N (3D coordinates assigned)
CS(=O)(=O)Nc1ccc(S(=O)(=O)[N-]c2cccnc2)cc1C#N (optimized conformer: 38.12787617863956 kcal/mol)

>  <smiles>  (6) 
CS(=O)(=O)Nc1ccc(S(=O)(=O)Nc2cccnc2)cc1C#N

>  <score_type>  (6) 
oracle

>  <origin>  (6) 
adg

>  <m_score__min__energy>  (6) 
-8.9499999999999993

>  <m_primary>  (6) 
energy

$$$$
6:0
     RDKit          3D

 38 39  0  0  0  0  0  0  0  0999 V2000
   58.9360   31.5800   49.6600 C   0  0  0  0  0  0  0  0  0  0  0  0
   59.7650   31.8310   48.4850 N   0  0  0  0  0  0  0  0  0  0  0  0
   59.2250   32.2340   47.2130 C   0  0  0  0  0  0  0  0  0  0  0  0
   58.1690   31.5150   46.6220 C   0  0  0  0  0  0  0  0  0  0  0  0
   57.6540   31.8910   45.3700 C   0  0  0  0  0  0  0  0  0  0  0  0
   56.5470   31.2000   44.7750 N   0  0  0  0  0  0  0  0  0  0  0  0
   56.3260   29.7820   44.8040 C   0  0  0  0  0  0  0  0  0  0  0  0
   55.1510   29.3520   44.6580 O   0  0  0  0  0  0  0  0  0  0  0  0
   57.4280   28.8200   45.0510 C   0  0  0  0  0  0  0  0  0  0  0  0
   58.7510   29.1540   44.7090 C   0  0  0  0  0  0  0  0  0  0  0  0
   59.7880   28.2390   44.9130 C   0  0  0  0  0  0  0  0  0  0  0  0
   59.5170   26.9880   45.4730 C   0  0  0  0  0  0  0  0  0  0  0  0
   58.2100   26.6520   45.8330 C   0  0  0  0  0  0  0  0  0  0  0  0
   57.1670   27.5620   45.6290 C   0  0  0  0  0  0  0  0  0  0  0  0
   55.9020   27.2000   45.9640 F   0  0  0  0  0  0  0  0  0  0  0  0
   58.2540   32.9400   44.6690 C   0  0  0  0  0  0  0  0  0  0  0  0
   59.3050   33.6590   45.2410 C   0  0  0  0  0  0  0  0  0  0  0  0
   59.7720   33.3380   46.5220 C   0  0  0  0  0  0  0  0  0  0  0  0
   60.7760   34.1670   47.1170 N   0  0  0  0  0  0  0  0  0  0  0  0
   62.3860   33.5720   47.3800 S   0  0  0  0  0  0  0  0  0  0  0  0
   62.9690   34.0060   49.0080 C   0  0  0  0  0  0  0  0  0  0  0  0
   63.3070   34.1940   46.3680 O   0  0  0  0  0  0  0  0  0  0  0  0
   62.4100   32.0790   47.2180 O   0  0  0  0  0  0  0  0  0  0  0  0
   59.5267   31.7589   50.5705 H   0  0  0  0  0  0  0  0  0  0  0  0
   58.0680   32.2556   49.6475 H   0  0  0  0  0  0  0  0  0  0  0  0
   58.5885   30.5364   49.6475 H   0  0  0  0  0  0  0  0  0  0  0  0
   60.7990   31.7570   48.6030 H   0  0  0  0  0  0  0  0  0  0  0  0
   57.7416   30.6479   47.1469 H   0  0  0  0  0  0  0  0  0  0  0  0
   58.9710   30.1419   44.2781 H   0  0  0  0  0  0  0  0  0  0  0  0
   60.8180   28.5041   44.6324 H   0  0  0  0  0  0  0  0  0  0  0  0
   60.3332   26.2675   45.6304 H   0  0  0  0  0  0  0  0  0  0  0  0
   57.9999   25.6684   46.2785 H   0  0  0  0  0  0  0  0  0  0  0  0
   57.8967   33.2006   43.6618 H   0  0  0  0  0  0  0  0  0  0  0  0
   59.7700   34.4840   44.6814 H   0  0  0  0  0  0  0  0  0  0  0  0
   60.4660   34.9590   47.7240 H   0  0  0  0  0  0  0  0  0  0  0  0
   62.3293   33.5298   49.7656 H   0  0  0  0  0  0  0  0  0  0  0  0
   64.0050   33.6576   49.1314 H   0  0  0  0  0  0  0  0  0  0  0  0
   62.9324   35.0984   49.1314 H   0  0  0  0  0  0  0  0  0  0  0  0
  1  2  1  0
  2  3  1  0
  3  4  2  0
  4  5  1  0
  5  6  1  0
  6  7  1  0
  7  8  2  0
  7  9  1  0
  9 10  2  0
 10 11  1  0
 11 12  2  0
 12 13  1  0
 13 14  2  0
 14 15  1  0
  5 16  2  0
 16 17  1  0
 17 18  2  0
 18 19  1  0
 19 20  1  0
 20 21  1  0
 20 22  2  0
 20 23  2  0
 18  3  1  0
 14  9  1  0
  1 24  1  0
  1 25  1  0
  1 26  1  0
  2 27  1  0
  4 28  1  0
 10 29  1  0
 11 30  1  0
 12 31  1  0
 13 32  1  0
 16 33  1  0
 17 34  1  0
 19 35  1  0
 21 36  1  0
 21 37  1  0
 21 38  1  0
M  CHG  1   6  -1
M  END
>  <UniqueID>  (7) 
7

>  <SMILES>  (7) 
CNc1cc([N-]C(=O)c2ccccc2F)ccc1NS(C)(=O)=O

>  <Energy>  (7) 
46.94579939413269

>  <Genealogy>  (7) 
CNc1cc([N-]C(=O)c2ccccc2F)ccc1NS(C)(=O)=O (protonated)
CNc1cc([N-]C(=O)c2ccccc2F)ccc1NS(C)(=O)=O (3D coordinates assigned)
CNc1cc([N-]C(=O)c2ccccc2F)ccc1NS(C)(=O)=O (optimized conformer: 46.94579939413269 kcal/mol)

>  <smiles>  (7) 
CNc1cc(NC(=O)c2ccccc2F)ccc1NS(C)(=O)=O

>  <score_type>  (7) 
oracle

>  <origin>  (7) 
adg

>  <m_score__min__energy>  (7) 
-8.8399999999999999

>  <m_primary>  (7) 
energy

$$$$
7:0
     RDKit          3D

 48 51  0  0  1  0  0  0  0  0999 V2000
   56.2620   21.8870   42.3160 O   0  0  0  0  0  0  0  0  0  0  0  0
   56.6460   21.5030   43.4540 C   0  0  0  0  0  0  0  0  0  0  0  0
   56.2620   20.2250   43.8360 O   0  0  0  0  0  0  0  0  0  0  0  0
   57.4510   22.3630   44.3130 C   0  0  0  0  0  0  0  0  0  0  0  0
   58.8030   22.1290   44.4190 C   0  0  0  0  0  0  0  0  0  0  0  0
   59.5210   22.9690   45.2430 C   0  0  0  0  0  0  0  0  0  0  0  0
   58.8950   23.9910   45.9220 C   0  0  0  0  0  0  0  0  0  0  0  0
   57.5190   24.2240   45.8080 C   0  0  0  0  0  0  0  0  0  0  0  0
   57.0080   25.3030   46.5580 N   0  0  0  0  0  0  0  0  0  0  0  0
   57.3390   26.6590   46.4000 C   0  0  0  0  0  0  0  0  0  0  0  0
   58.4960   27.1350   47.0280 C   0  0  0  0  0  0  0  0  0  0  0  0
   58.8830   28.4530   46.9040 C   0  0  0  0  0  0  0  0  0  0  0  0
   60.0480   28.9860   47.5210 N   0  0  0  0  0  0  0  0  0  0  0  0
   60.2950   30.2430   47.5650 C   0  0  0  0  0  0  0  0  0  0  0  0
   61.5970   30.6590   47.4970 C   0  0  0  0  0  0  0  0  0  0  0  0
   61.9440   32.0070   47.5370 C   0  0  0  0  0  0  0  0  0  0  0  0
   60.8950   32.8950   47.6510 C   0  0  0  0  0  0  0  0  0  0  0  0
   59.5840   32.4490   47.7200 C   0  0  0  0  0  0  0  0  0  0  0  0
   59.2850   31.1370   47.6770 N   0  0  0  0  0  0  0  0  0  0  0  0
   58.1110   29.2670   46.1580 N   0  0  0  0  0  0  0  0  0  0  0  0
   56.9990   28.8440   45.5440 C   0  0  0  0  0  0  0  0  0  0  0  0
   56.3310   29.6940   44.8590 N   0  0  0  0  0  0  0  0  0  0  0  0
   56.9690   30.8560   44.3430 C   0  0  0  0  0  0  0  0  0  0  0  0
   57.1510   30.8910   42.9600 C   0  0  0  0  0  0  0  0  0  0  0  0
   57.7660   31.9870   42.3640 C   0  0  0  0  0  0  0  0  0  0  0  0
   58.1920   33.0380   43.1460 C   0  0  0  0  0  0  0  0  0  0  0  0
   58.0080   33.0000   44.5330 C   0  0  0  0  0  0  0  0  0  0  0  0
   57.3940   31.9030   45.1320 C   0  0  0  0  0  0  0  0  0  0  0  0
   56.6420   27.5510   45.6820 N   0  0  0  0  0  0  0  0  0  0  0  0
   56.8210   23.3920   44.9950 C   0  0  0  0  0  0  0  0  0  0  0  0
   55.1170   23.6040   44.7960 Cl  0  0  0  0  0  0  0  0  0  0  0  0
   56.9240   19.4630   43.9310 H   0  0  0  0  0  0  0  0  0  0  0  0
   59.2889   21.3084   43.8708 H   0  0  0  0  0  0  0  0  0  0  0  0
   60.6048   22.8217   45.3595 H   0  0  0  0  0  0  0  0  0  0  0  0
   59.4943   24.6439   46.5736 H   0  0  0  0  0  0  0  0  0  0  0  0
   56.3070   25.0630   47.3160 H   0  0  0  0  0  0  0  0  0  0  0  0
   59.1067   26.4464   47.6304 H   0  0  0  0  0  0  0  0  0  0  0  0
   62.3936   29.9057   47.4081 H   0  0  0  0  0  0  0  0  0  0  0  0
   62.9900   32.3428   47.4811 H   0  0  0  0  0  0  0  0  0  0  0  0
   61.1018   33.9748   47.6878 H   0  0  0  0  0  0  0  0  0  0  0  0
   58.7702   33.1834   47.8119 H   0  0  0  0  0  0  0  0  0  0  0  0
   58.3330   30.7600   47.7240 H   0  0  0  0  0  0  0  0  0  0  0  0
   56.8074   30.0500   42.3398 H   0  0  0  0  0  0  0  0  0  0  0  0
   57.9114   32.0144   41.2740 H   0  0  0  0  0  0  0  0  0  0  0  0
   58.6774   33.9081   42.6799 H   0  0  0  0  0  0  0  0  0  0  0  0
   58.3503   33.8414   45.1534 H   0  0  0  0  0  0  0  0  0  0  0  0
   57.2499   31.8725   46.2221 H   0  0  0  0  0  0  0  0  0  0  0  0
   55.7770   27.2580   45.1820 H   0  0  0  0  0  0  0  0  0  0  0  0
  1  2  2  0
  2  3  1  0
  2  4  1  0
  4  5  2  0
  5  6  1  0
  6  7  2  0
  7  8  1  0
  8  9  1  0
  9 10  1  0
 10 11  2  0
 11 12  1  0
 12 13  1  0
 13 14  2  0
 14 15  1  0
 15 16  2  0
 16 17  1  0
 17 18  2  0
 18 19  1  0
 12 20  2  0
 20 21  1  0
 21 22  2  0
 22 23  1  0
 23 24  2  0
 24 25  1  0
 25 26  2  0
 26 27  1  0
 27 28  2  0
 21 29  1  0
  8 30  2  0
 30 31  1  0
 30  4  1  0
 29 10  1  0
 19 14  1  0
 28 23  1  0
  3 32  1  0
  5 33  1  0
  6 34  1  0
  7 35  1  0
  9 36  1  0
 11 37  1  0
 15 38  1  0
 16 39  1  0
 17 40  1  0
 18 41  1  0
 19 42  1  0
 24 43  1  0
 25 44  1  0
 26 45  1  0
 27 46  1  0
 28 47  1  0
 29 48  1  0
M  END
>  <smiles>  (8) 
O=C(O)c1cccc(Nc2cc(N=c3cccc[nH]3)nc(=Nc3ccccc3)[nH]2)c1Cl

>  <score_type>  (8) 
oracle

>  <origin>  (8) 
adg

>  <m_score__min__energy>  (8) 
-9.5500000000000007

>  <m_primary>  (8) 
energy

$$$$
8:0
     RDKit          3D

 38 39  0  0  0  0  0  0  0  0999 V2000
   60.7620   28.7590   44.8900 C   0  0  0  0  0  0  0  0  0  0  0  0
   60.3990   29.4400   46.1700 C   0  0  0  0  0  0  0  0  0  0  0  0
   60.7730   30.6990   46.4730 N   0  0  0  0  0  0  0  0  0  0  0  0
   60.2890   30.9690   47.6500 O   0  0  0  0  0  0  0  0  0  0  0  0
   59.6170   29.9510   48.1360 C   0  0  0  0  0  0  0  0  0  0  0  0
   58.9440   29.9580   49.4700 C   0  0  0  0  0  0  0  0  0  0  0  0
   59.6510   28.9190   47.2140 C   0  0  0  0  0  0  0  0  0  0  0  0
   59.0390   27.5790   47.3160 C   0  0  0  0  0  0  0  0  0  0  0  0
   59.7650   26.5640   47.4930 O   0  0  0  0  0  0  0  0  0  0  0  0
   57.6520   27.4400   47.2170 O   0  0  0  0  0  0  0  0  0  0  0  0
   56.9960   27.0910   46.0020 C   0  0  0  0  0  0  0  0  0  0  0  0
   57.1630   28.2010   45.0060 C   0  0  0  0  0  0  0  0  0  0  0  0
   57.7810   27.9730   43.9330 O   0  0  0  0  0  0  0  0  0  0  0  0
   56.6700   29.5240   45.2530 N   0  0  0  0  0  0  0  0  0  0  0  0
   57.2140   30.7480   44.7400 C   0  0  0  0  0  0  0  0  0  0  0  0
   57.2300   31.0270   43.3620 C   0  0  0  0  0  0  0  0  0  0  0  0
   57.7990   32.2140   42.8930 C   0  0  0  0  0  0  0  0  0  0  0  0
   58.3700   33.1220   43.7880 C   0  0  0  0  0  0  0  0  0  0  0  0
   58.3770   32.8440   45.1620 C   0  0  0  0  0  0  0  0  0  0  0  0
   59.1240   33.9700   46.2900 S   0  0  0  0  0  0  0  0  0  0  0  0
   60.6350   33.3310   46.8350 N   0  0  0  0  0  0  0  0  0  0  0  0
   59.3530   35.2930   45.6150 O   0  0  0  0  0  0  0  0  0  0  0  0
   58.2160   34.1840   47.4700 O   0  0  0  0  0  0  0  0  0  0  0  0
   57.8140   31.6480   45.6300 C   0  0  0  0  0  0  0  0  0  0  0  0
   61.2688   27.8082   45.1115 H   0  0  0  0  0  0  0  0  0  0  0  0
   59.8496   28.5613   44.3083 H   0  0  0  0  0  0  0  0  0  0  0  0
   61.4347   29.4063   44.3083 H   0  0  0  0  0  0  0  0  0  0  0  0
   59.7047   29.9501   50.2645 H   0  0  0  0  0  0  0  0  0  0  0  0
   58.3253   30.8626   49.5638 H   0  0  0  0  0  0  0  0  0  0  0  0
   58.3066   29.0664   49.5638 H   0  0  0  0  0  0  0  0  0  0  0  0
   57.4375   26.1675   45.5992 H   0  0  0  0  0  0  0  0  0  0  0  0
   55.9252   26.9312   46.1965 H   0  0  0  0  0  0  0  0  0  0  0  0
   56.7937   30.3094   42.6516 H   0  0  0  0  0  0  0  0  0  0  0  0
   57.7973   32.4342   41.8153 H   0  0  0  0  0  0  0  0  0  0  0  0
   58.8146   34.0561   43.4142 H   0  0  0  0  0  0  0  0  0  0  0  0
   61.0510   32.8050   46.0320 H   0  0  0  0  0  0  0  0  0  0  0  0
   60.4210   32.6280   47.5760 H   0  0  0  0  0  0  0  0  0  0  0  0
   57.8438   31.4147   46.7046 H   0  0  0  0  0  0  0  0  0  0  0  0
  1  2  1  0
  2  3  2  0
  3  4  1  0
  4  5  1  0
  5  6  1  0
  5  7  2  0
  7  8  1  0
  8  9  2  0
  8 10  1  0
 10 11  1  0
 11 12  1  0
 12 13  2  0
 12 14  1  0
 14 15  1  0
 15 16  2  0
 16 17  1  0
 17 18  2  0
 18 19  1  0
 19 20  1  0
 20 21  1  0
 20 22  2  0
 20 23  2  0
 19 24  2  0
  7  2  1  0
 24 15  1  0
  1 25  1  0
  1 26  1  0
  1 27  1  0
  6 28  1  0
  6 29  1  0
  6 30  1  0
 11 31  1  0
 11 32  1  0
 16 33  1  0
 17 34  1  0
 18 35  1  0
 21 36  1  0
 21 37  1  0
 24 38  1  0
M  CHG  1  14  -1
M  END
>  <UniqueID>  (9) 
8

>  <SMILES>  (9) 
Cc1noc(C)c1C(=O)OCC(=O)[N-]c1cccc(S(N)(=O)=O)c1

>  <Energy>  (9) 
67.2916845477402

>  <Genealogy>  (9) 
Cc1noc(C)c1C(=O)OCC(=O)[N-]c1cccc(S(N)(=O)=O)c1 (protonated)
Cc1noc(C)c1C(=O)OCC(=O)[N-]c1cccc(S(N)(=O)=O)c1 (3D coordinates assigned)
Cc1noc(C)c1C(=O)OCC(=O)[N-]c1cccc(S(N)(=O)=O)c1 (optimized conformer: 67.2916845477402 kcal/mol)

>  <smiles>  (9) 
Cc1noc(C)c1C(=O)OCC(=O)Nc1cccc(S(N)(=O)=O)c1

>  <score_type>  (9) 
oracle

>  <origin>  (9) 
adg

>  <m_score__min__energy>  (9) 
-11.07

>  <m_primary>  (9) 
energy

$$$$
9:0
     RDKit          3D

 51 54  0  0  0  0  0  0  0  0999 V2000
   59.9140   27.6100   45.3470 O   0  0  0  0  0  0  0  0  0  0  0  0
   58.8400   28.2170   45.0850 C   0  0  0  0  0  0  0  0  0  0  0  0
   58.8960   29.3930   44.3300 C   0  0  0  0  0  0  0  0  0  0  0  0
   57.7200   30.0960   44.0420 C   0  0  0  0  0  0  0  0  0  0  0  0
   57.7770   31.3950   43.4170 N   0  0  0  0  0  0  0  0  0  0  0  0
   58.1090   32.3740   44.4230 C   0  0  0  0  0  0  0  0  0  0  0  0
   58.8710   33.5060   44.0860 C   0  0  0  0  0  0  0  0  0  0  0  0
   59.3470   34.3610   45.0840 C   0  0  0  0  0  0  0  0  0  0  0  0
   59.0640   34.1010   46.4330 C   0  0  0  0  0  0  0  0  0  0  0  0
   59.7150   34.9230   47.5130 C   0  0  0  0  0  0  0  0  0  0  0  0
   61.0180   34.2840   47.9140 C   0  0  0  0  0  0  0  0  0  0  0  0
   61.3940   34.2270   49.2670 C   0  0  0  0  0  0  0  0  0  0  0  0
   62.6380   33.7000   49.6310 C   0  0  0  0  0  0  0  0  0  0  0  0
   63.5170   33.2350   48.6500 C   0  0  0  0  0  0  0  0  0  0  0  0
   64.7230   32.7280   49.0030 F   0  0  0  0  0  0  0  0  0  0  0  0
   63.1540   33.2970   47.3010 C   0  0  0  0  0  0  0  0  0  0  0  0
   61.9110   33.8210   46.9330 C   0  0  0  0  0  0  0  0  0  0  0  0
   58.2790   32.9890   46.7710 C   0  0  0  0  0  0  0  0  0  0  0  0
   57.8010   32.1350   45.7740 C   0  0  0  0  0  0  0  0  0  0  0  0
   56.4980   29.5820   44.4940 C   0  0  0  0  0  0  0  0  0  0  0  0
   56.4770   28.4060   45.2450 C   0  0  0  0  0  0  0  0  0  0  0  0
   57.6370   27.7460   45.5480 N   0  0  0  0  0  0  0  0  0  0  0  0
   57.5770   26.5850   46.4520 C   0  0  0  0  0  0  0  0  0  0  0  0
   57.0760   25.3730   45.7040 C   0  0  0  0  0  0  0  0  0  0  0  0
   57.9990   24.4510   45.1780 C   0  0  0  0  0  0  0  0  0  0  0  0
   57.5570   23.3510   44.4360 C   0  0  0  0  0  0  0  0  0  0  0  0
   56.1910   23.1660   44.2070 C   0  0  0  0  0  0  0  0  0  0  0  0
   55.2660   24.0770   44.7220 C   0  0  0  0  0  0  0  0  0  0  0  0
   55.7020   25.1760   45.4700 C   0  0  0  0  0  0  0  0  0  0  0  0
   54.7820   26.0470   45.9560 F   0  0  0  0  0  0  0  0  0  0  0  0
   59.8636   29.7654   43.9626 H   0  0  0  0  0  0  0  0  0  0  0  0
   58.4960   31.4050   42.6560 H   0  0  0  0  0  0  0  0  0  0  0  0
   56.8550   31.6210   42.9760 H   0  0  0  0  0  0  0  0  0  0  0  0
   59.0941   33.7203   43.0304 H   0  0  0  0  0  0  0  0  0  0  0  0
   59.9463   35.2418   44.8103 H   0  0  0  0  0  0  0  0  0  0  0  0
   59.9055   35.9387   47.1361 H   0  0  0  0  0  0  0  0  0  0  0  0
   59.0482   34.9748   48.3863 H   0  0  0  0  0  0  0  0  0  0  0  0
   60.7078   34.5980   50.0426 H   0  0  0  0  0  0  0  0  0  0  0  0
   62.9244   33.6518   50.6920 H   0  0  0  0  0  0  0  0  0  0  0  0
   63.8472   32.9331   46.5283 H   0  0  0  0  0  0  0  0  0  0  0  0
   61.6309   33.8710   45.8704 H   0  0  0  0  0  0  0  0  0  0  0  0
   58.0387   32.7884   47.8255 H   0  0  0  0  0  0  0  0  0  0  0  0
   57.1794   31.2697   46.0477 H   0  0  0  0  0  0  0  0  0  0  0  0
   55.5585   30.1033   44.2579 H   0  0  0  0  0  0  0  0  0  0  0  0
   55.5157   28.0043   45.5980 H   0  0  0  0  0  0  0  0  0  0  0  0
   58.5826   26.3790   46.8474 H   0  0  0  0  0  0  0  0  0  0  0  0
   56.8886   26.8079   47.2805 H   0  0  0  0  0  0  0  0  0  0  0  0
   59.0755   24.5961   45.3514 H   0  0  0  0  0  0  0  0  0  0  0  0
   58.2847   22.6314   44.0327 H   0  0  0  0  0  0  0  0  0  0  0  0
   55.8440   22.3023   43.6208 H   0  0  0  0  0  0  0  0  0  0  0  0
   54.1914   23.9299   44.5389 H   0  0  0  0  0  0  0  0  0  0  0  0
  1  2  2  0
  2  3  1  0
  3  4  2  0
  4  5  1  0
  5  6  1  0
  6  7  2  0
  7  8  1  0
  8  9  2  0
  9 10  1  0
 10 11  1  0
 11 12  2  0
 12 13  1  0
 13 14  2  0
 14 15  1  0
 14 16  1  0
 16 17  2  0
  9 18  1  0
 18 19  2  0
  4 20  1  0
 20 21  2  0
 21 22  1  0
 22 23  1  0
 23 24  1  0
 24 25  2  0
 25 26  1  0
 26 27  2  0
 27 28  1  0
 28 29  2  0
 29 30  1  0
 22  2  1  0
 29 24  1  0
 19  6  1  0
 17 11  1  0
  3 31  1  0
  5 32  1  0
  5 33  1  0
  7 34  1  0
  8 35  1  0
 10 36  1  0
 10 37  1  0
 12 38  1  0
 13 39  1  0
 16 40  1  0
 17 41  1  0
 18 42  1  0
 19 43  1  0
 20 44  1  0
 21 45  1  0
 23 46  1  0
 23 47  1  0
 25 48  1  0
 26 49  1  0
 27 50  1  0
 28 51  1  0
M  CHG  1   5   1
M  END
>  <UniqueID>  (10) 
9

>  <SMILES>  (10) 
O=c1cc([NH2+]c2ccc(Cc3ccc(F)cc3)cc2)ccn1Cc1ccccc1F

>  <Energy>  (10) 
57.56240608026335

>  <Genealogy>  (10) 
O=c1cc([NH2+]c2ccc(Cc3ccc(F)cc3)cc2)ccn1Cc1ccccc1F (protonated)
O=c1cc([NH2+]c2ccc(Cc3ccc(F)cc3)cc2)ccn1Cc1ccccc1F (3D coordinates assigned)
O=c1cc([NH2+]c2ccc(Cc3ccc(F)cc3)cc2)ccn1Cc1ccccc1F (optimized conformer: 57.56240608026335 kcal/mol)

>  <smiles>  (10) 
O=c1cc(Nc2ccc(Cc3ccc(F)cc3)cc2)ccn1Cc1ccccc1F

>  <score_type>  (10) 
oracle

>  <origin>  (10) 
adg

>  <m_score__min__energy>  (10) 
-8.25

>  <m_primary>  (10) 
energy

$$$$
10:0
     RDKit          3D

 60 62  0  0  0  0  0  0  0  0999 V2000
   60.8090   33.6810   50.9070 C   0  0  0  0  0  0  0  0  0  0  0  0
   61.1630   33.5780   49.4500 C   0  0  0  0  0  0  0  0  0  0  0  0
   60.2400   33.0350   48.5400 C   0  0  0  0  0  0  0  0  0  0  0  0
   60.5530   32.9240   47.1790 C   0  0  0  0  0  0  0  0  0  0  0  0
   59.5920   32.3450   46.2810 N   0  0  0  0  0  0  0  0  0  0  0  0
   58.2110   32.7460   46.2090 C   0  0  0  0  0  0  0  0  0  0  0  0
   57.7780   33.6790   46.9350 O   0  0  0  0  0  0  0  0  0  0  0  0
   57.3120   32.1160   45.2900 N   0  0  0  0  0  0  0  0  0  0  0  0
   57.4270   30.7810   44.7810 C   0  0  0  0  0  0  0  0  0  0  0  0
   56.7700   30.3830   43.6050 C   0  0  0  0  0  0  0  0  0  0  0  0
   56.9270   29.0820   43.1150 C   0  0  0  0  0  0  0  0  0  0  0  0
   57.7670   28.1710   43.7760 C   0  0  0  0  0  0  0  0  0  0  0  0
   57.9170   26.7910   43.2590 C   0  0  0  0  0  0  0  0  0  0  0  0
   58.2770   26.6210   42.0620 O   0  0  0  0  0  0  0  0  0  0  0  0
   57.6750   25.6390   44.0910 N   0  0  0  0  0  0  0  0  0  0  0  0
   56.9990   24.4570   43.5480 C   0  0  0  0  0  0  0  0  0  0  0  0
   57.6740   23.1910   44.0840 C   0  0  0  0  0  0  0  0  0  0  0  0
   57.7600   23.2250   45.4970 O   0  0  0  0  0  0  0  0  0  0  0  0
   58.6120   24.2810   45.9000 C   0  0  0  0  0  0  0  0  0  0  0  0
   58.0130   25.6390   45.5180 C   0  0  0  0  0  0  0  0  0  0  0  0
   58.4310   28.5770   44.9460 C   0  0  0  0  0  0  0  0  0  0  0  0
   58.2720   29.8770   45.4330 C   0  0  0  0  0  0  0  0  0  0  0  0
   61.8260   33.3190   46.7360 C   0  0  0  0  0  0  0  0  0  0  0  0
   62.7550   33.8490   47.6340 C   0  0  0  0  0  0  0  0  0  0  0  0
   62.4340   33.9840   48.9980 C   0  0  0  0  0  0  0  0  0  0  0  0
   63.3490   34.5070   49.9270 O   0  0  0  0  0  0  0  0  0  0  0  0
   64.1120   33.7250   50.8440 C   0  0  0  0  0  0  0  0  0  0  0  0
   64.3210   32.3220   50.2520 C   0  0  0  0  0  0  0  0  0  0  0  0
   65.7390   31.9180   50.1170 N   0  0  0  0  0  0  0  0  0  0  0  0
   66.1420   30.9060   51.1060 C   0  0  0  0  0  0  0  0  0  0  0  0
   66.6660   33.0610   50.1170 C   0  0  0  0  0  0  0  0  0  0  0  0
   61.6880   33.4252   51.5169 H   0  0  0  0  0  0  0  0  0  0  0  0
   60.4909   34.7090   51.1353 H   0  0  0  0  0  0  0  0  0  0  0  0
   59.9890   32.9842   51.1353 H   0  0  0  0  0  0  0  0  0  0  0  0
   59.2590   32.6927   48.9011 H   0  0  0  0  0  0  0  0  0  0  0  0
   59.9100   31.5400   45.6960 H   0  0  0  0  0  0  0  0  0  0  0  0
   56.1293   31.0972   43.0670 H   0  0  0  0  0  0  0  0  0  0  0  0
   56.3896   28.7709   42.2070 H   0  0  0  0  0  0  0  0  0  0  0  0
   55.9423   24.4664   43.8534 H   0  0  0  0  0  0  0  0  0  0  0  0
   57.0637   24.4699   42.4500 H   0  0  0  0  0  0  0  0  0  0  0  0
   57.0858   22.3127   43.7798 H   0  0  0  0  0  0  0  0  0  0  0  0
   58.6918   23.1330   43.6708 H   0  0  0  0  0  0  0  0  0  0  0  0
   58.7461   24.2400   46.9910 H   0  0  0  0  0  0  0  0  0  0  0  0
   59.5804   24.1668   45.3909 H   0  0  0  0  0  0  0  0  0  0  0  0
   57.1037   25.8186   46.1104 H   0  0  0  0  0  0  0  0  0  0  0  0
   58.7456   26.4338   45.7217 H   0  0  0  0  0  0  0  0  0  0  0  0
   59.0793   27.8677   45.4813 H   0  0  0  0  0  0  0  0  0  0  0  0
   58.8155   30.1919   46.3360 H   0  0  0  0  0  0  0  0  0  0  0  0
   62.0931   33.2101   45.6745 H   0  0  0  0  0  0  0  0  0  0  0  0
   63.7453   34.1634   47.2727 H   0  0  0  0  0  0  0  0  0  0  0  0
   65.0881   34.2031   51.0132 H   0  0  0  0  0  0  0  0  0  0  0  0
   63.5768   33.6482   51.8019 H   0  0  0  0  0  0  0  0  0  0  0  0
   63.8172   31.5947   50.9056 H   0  0  0  0  0  0  0  0  0  0  0  0
   63.9042   32.3464   49.2343 H   0  0  0  0  0  0  0  0  0  0  0  0
   65.9845   31.3015   52.1203 H   0  0  0  0  0  0  0  0  0  0  0  0
   65.5370   29.9977   50.9686 H   0  0  0  0  0  0  0  0  0  0  0  0
   67.2058   30.6622   50.9686 H   0  0  0  0  0  0  0  0  0  0  0  0
   66.8970   33.3458   51.1541 H   0  0  0  0  0  0  0  0  0  0  0  0
   67.5945   32.7800   49.5985 H   0  0  0  0  0  0  0  0  0  0  0  0
   66.1994   33.9115   49.5985 H   0  0  0  0  0  0  0  0  0  0  0  0
  1  2  1  0
  2  3  2  0
  3  4  1  0
  4  5  1  0
  5  6  1  0
  6  7  2  0
  6  8  1  0
  8  9  1  0
  9 10  2  0
 10 11  1  0
 11 12  2  0
 12 13  1  0
 13 14  2  0
 13 15  1  0
 15 16  1  0
 16 17  1  0
 17 18  1  0
 18 19  1  0
 19 20  1  0
 12 21  1  0
 21 22  2  0
  4 23  2  0
 23 24  1  0
 24 25  2  0
 25 26  1  0
 26 27  1  0
 27 28  1  0
 28 29  1  0
 29 30  1  0
 29 31  1  0
 25  2  1  0
 22  9  1  0
 20 15  1  0
  1 32  1  0
  1 33  1  0
  1 34  1  0
  3 35  1  0
  5 36  1  0
 10 37  1  0
 11 38  1  0
 16 39  1  0
 16 40  1  0
 17 41  1  0
 17 42  1  0
 19 43  1  0
 19 44  1  0
 20 45  1  0
 20 46  1  0
 21 47  1  0
 22 48  1  0
 23 49  1  0
 24 50  1  0
 27 51  1  0
 27 52  1  0
 28 53  1  0
 28 54  1  0
 30 55  1  0
 30 56  1  0
 30 57  1  0
 31 58  1  0
 31 59  1  0
 31 60  1  0
M  CHG  1   8  -1
M  END
>  <UniqueID>  (11) 
10

>  <SMILES>  (11) 
Cc1cc(NC(=O)[N-]c2ccc(C(=O)N3CCOCC3)cc2)ccc1OCCN(C)C

>  <Energy>  (11) 
76.20286674866178

>  <Genealogy>  (11) 
Cc1cc(NC(=O)[N-]c2ccc(C(=O)N3CCOCC3)cc2)ccc1OCCN(C)C (protonated)
Cc1cc(NC(=O)[N-]c2ccc(C(=O)N3CCOCC3)cc2)ccc1OCCN(C)C (3D coordinates assigned)
Cc1cc(NC(=O)[N-]c2ccc(C(=O)N3CCOCC3)cc2)ccc1OCCN(C)C (nonaromatic ring conformer: 76.20286674866178 kcal/mol)

>  <smiles>  (11) 
Cc1cc(NC(=O)Nc2ccc(C(=O)N3CCOCC3)cc2)ccc1OCCN(C)C

>  <score_type>  (11) 
oracle

>  <origin>  (11) 
adg

>  <m_score__min__energy>  (11) 
-9.6899999999999995

>  <m_primary>  (11) 
energy

$$$$
11:0
     RDKit          3D

 57 60  0  0  1  0  0  0  0  0999 V2000
   58.0860   26.6160   43.1430 C   0  0  0  0  0  0  0  0  0  0  0  0
   58.3940   27.8210   43.7650 O   0  0  0  0  0  0  0  0  0  0  0  0
   58.7430   27.9580   45.1050 C   0  0  0  0  0  0  0  0  0  0  0  0
   59.7630   27.2310   45.6930 C   0  0  0  0  0  0  0  0  0  0  0  0
   60.0680   27.4000   47.0120 N   0  0  0  0  0  0  0  0  0  0  0  0
   58.0640   28.8480   45.9150 C   0  0  0  0  0  0  0  0  0  0  0  0
   57.0830   29.5800   45.4420 N   0  0  0  0  0  0  0  0  0  0  0  0
   57.3620   30.6360   44.5170 C   0  0  0  0  0  0  0  0  0  0  0  0
   61.3220   29.3460   50.4800 C   0  0  0  0  0  0  0  0  0  0  0  0
   62.1000   30.4140   50.8710 C   0  0  0  0  0  0  0  0  0  0  0  0
   62.0230   31.6520   50.2210 C   0  0  0  0  0  0  0  0  0  0  0  0
   61.1670   31.8650   49.1610 C   0  0  0  0  0  0  0  0  0  0  0  0
   61.0760   33.1190   48.5060 N   0  0  0  0  0  0  0  0  0  0  0  0
   61.9340   33.5080   47.3940 C   0  0  0  0  0  0  0  0  0  0  0  0
   61.0080   33.6610   46.2130 C   0  0  0  0  0  0  0  0  0  0  0  0
   59.8960   34.4880   46.4380 N   0  0  0  0  0  0  0  0  0  0  0  0
   59.6450   35.5460   45.5260 C   0  0  0  0  0  0  0  0  0  0  0  0
   59.2610   34.5120   47.6860 C   0  0  0  0  0  0  0  0  0  0  0  0
   60.0870   34.1380   48.8910 C   0  0  0  0  0  0  0  0  0  0  0  0
   60.3890   30.7930   48.7730 C   0  0  0  0  0  0  0  0  0  0  0  0
   58.3630   29.0190   47.2200 N   0  0  0  0  0  0  0  0  0  0  0  0
   59.3510   28.2970   47.7370 C   0  0  0  0  0  0  0  0  0  0  0  0
   59.6500   28.4530   49.0040 N   0  0  0  0  0  0  0  0  0  0  0  0
   60.4650   29.5540   49.4210 C   0  0  0  0  0  0  0  0  0  0  0  0
   57.0030   30.5460   43.1800 C   0  0  0  0  0  0  0  0  0  0  0  0
   56.3420   29.3420   42.7800 N   0  0  0  0  0  0  0  0  0  0  0  0
   57.2780   31.5730   42.2940 C   0  0  0  0  0  0  0  0  0  0  0  0
   57.9190   32.7030   42.7510 C   0  0  0  0  0  0  0  0  0  0  0  0
   58.2790   32.8000   44.0820 C   0  0  0  0  0  0  0  0  0  0  0  0
   58.0070   31.7690   44.9820 C   0  0  0  0  0  0  0  0  0  0  0  0
   58.3650   31.8750   46.2870 F   0  0  0  0  0  0  0  0  0  0  0  0
   57.8899   25.8488   43.9066 H   0  0  0  0  0  0  0  0  0  0  0  0
   57.1921   26.7454   42.5152 H   0  0  0  0  0  0  0  0  0  0  0  0
   58.9324   26.3006   42.5152 H   0  0  0  0  0  0  0  0  0  0  0  0
   60.3340   26.5092   45.0906 H   0  0  0  0  0  0  0  0  0  0  0  0
   60.8500   26.8390   47.4480 H   0  0  0  0  0  0  0  0  0  0  0  0
   61.3822   28.3729   50.9894 H   0  0  0  0  0  0  0  0  0  0  0  0
   62.7974   30.2913   51.7128 H   0  0  0  0  0  0  0  0  0  0  0  0
   62.6631   32.4775   50.5655 H   0  0  0  0  0  0  0  0  0  0  0  0
   62.4406   34.4596   47.6125 H   0  0  0  0  0  0  0  0  0  0  0  0
   62.7223   32.7647   47.2041 H   0  0  0  0  0  0  0  0  0  0  0  0
   61.5857   34.0845   45.3782 H   0  0  0  0  0  0  0  0  0  0  0  0
   60.6092   32.6580   46.0012 H   0  0  0  0  0  0  0  0  0  0  0  0
   59.4263   36.4678   46.0850 H   0  0  0  0  0  0  0  0  0  0  0  0
   60.5310   35.7024   44.8931 H   0  0  0  0  0  0  0  0  0  0  0  0
   58.7832   35.2878   44.8931 H   0  0  0  0  0  0  0  0  0  0  0  0
   58.8868   35.5339   47.8465 H   0  0  0  0  0  0  0  0  0  0  0  0
   58.4861   33.7338   47.6229 H   0  0  0  0  0  0  0  0  0  0  0  0
   60.6071   35.0297   49.2709 H   0  0  0  0  0  0  0  0  0  0  0  0
   59.4308   33.7359   49.6769 H   0  0  0  0  0  0  0  0  0  0  0  0
   59.6905   30.9152   47.9321 H   0  0  0  0  0  0  0  0  0  0  0  0
   57.8330   29.6980   47.8060 H   0  0  0  0  0  0  0  0  0  0  0  0
   55.8510   29.3120   41.8580 H   0  0  0  0  0  0  0  0  0  0  0  0
   56.3790   28.5240   43.4430 H   0  0  0  0  0  0  0  0  0  0  0  0
   56.9878   31.4877   41.2364 H   0  0  0  0  0  0  0  0  0  0  0  0
   58.1441   33.5270   42.0579 H   0  0  0  0  0  0  0  0  0  0  0  0
   58.7894   33.7069   44.4384 H   0  0  0  0  0  0  0  0  0  0  0  0
  1  2  1  0
  2  3  1  0
  3  4  2  0
  4  5  1  0
  5  6  1  0
  6  7  2  0
  7  8  1  0
  8  9  2  0
  9 10  1  0
 10 11  2  0
 11 12  1  0
 12 13  1  0
 13 14  1  0
 14 15  1  0
 15 16  1  0
 16 17  1  0
 16 18  1  0
 18 19  1  0
 12 20  2  0
  6 21  1  0
 21 22  1  0
 22 23  2  0
 23 24  1  0
 24 25  2  0
 25 26  1  0
 25 27  1  0
 27 28  2  0
 28 29  1  0
 29 30  2  0
 30 31  1  0
 22  3  1  0
 30 24  1  0
 20  8  1  0
 19 13  1  0
  1 32  1  0
  1 33  1  0
  1 34  1  0
  4 35  1  0
  5 36  1  0
  9 37  1  0
 10 38  1  0
 11 39  1  0
 14 40  1  0
 14 41  1  0
 15 42  1  0
 15 43  1  0
 17 44  1  0
 17 45  1  0
 17 46  1  0
 18 47  1  0
 18 48  1  0
 19 49  1  0
 19 50  1  0
 20 51  1  0
 21 52  1  0
 26 53  1  0
 26 54  1  0
 27 55  1  0
 28 56  1  0
 29 57  1  0
M  END
>  <smiles>  (12) 
COc1c[nH]c(=Nc2cccc(N3CCN(C)CC3)c2)[nH]c1=Nc1c(N)cccc1F

>  <score_type>  (12) 
oracle

>  <origin>  (12) 
adg

>  <m_score__min__energy>  (12) 
-8.4900000000000002

>  <m_primary>  (12) 
energy

$$$$
12:0
     RDKit          3D

 32 33  0  0  0  0  0  0  0  0999 V2000
   57.6693   34.2142   47.6054 H   0  0  0  0  0  0  0  0  0  0  0  0
   57.9050   33.9580   46.5620 C   0  0  0  0  0  0  0  0  0  0  0  0
   57.0430   32.8860   45.5920 S   0  0  0  0  0  0  0  0  0  0  0  0
   58.0110   33.0590   44.2280 C   0  0  0  0  0  0  0  0  0  0  0  0
   57.8090   32.3440   42.9280 C   0  0  0  0  0  0  0  0  0  0  0  0
   58.7723   31.9391   42.5844 H   0  0  0  0  0  0  0  0  0  0  0  0
   57.4107   33.0554   42.1896 H   0  0  0  0  0  0  0  0  0  0  0  0
   56.8570   31.2480   43.0880 N   0  0  0  0  0  0  0  0  0  0  0  0
   57.0650   30.1740   43.7930 C   0  0  0  0  0  0  0  0  0  0  0  0
   55.9100   29.3460   44.6980 S   0  0  0  0  0  0  0  0  0  0  0  0
   57.0080   28.1790   45.2290 C   0  0  0  0  0  0  0  0  0  0  0  0
   56.6560   27.0590   46.1190 C   0  0  0  0  0  0  0  0  0  0  0  0
   57.4810   26.6820   46.9960 O   0  0  0  0  0  0  0  0  0  0  0  0
   55.4200   26.4200   45.9970 O   0  0  0  0  0  0  0  0  0  0  0  0
   55.2920   25.0550   45.6130 C   0  0  0  0  0  0  0  0  0  0  0  0
   54.3737   24.9250   45.0215 H   0  0  0  0  0  0  0  0  0  0  0  0
   55.2409   24.4242   46.5127 H   0  0  0  0  0  0  0  0  0  0  0  0
   56.4950   24.6490   44.7770 C   0  0  0  0  0  0  0  0  0  0  0  0
   57.3255   24.3687   45.4415 H   0  0  0  0  0  0  0  0  0  0  0  0
   56.2278   23.7913   44.1423 H   0  0  0  0  0  0  0  0  0  0  0  0
   56.8022   25.4932   44.1423 H   0  0  0  0  0  0  0  0  0  0  0  0
   58.2630   28.4790   44.6750 C   0  0  0  0  0  0  0  0  0  0  0  0
   59.5050   27.6720   44.9110 C   0  0  0  0  0  0  0  0  0  0  0  0
   59.6718   27.5636   45.9929 H   0  0  0  0  0  0  0  0  0  0  0  0
   59.3877   26.6771   44.4566 H   0  0  0  0  0  0  0  0  0  0  0  0
   60.3664   28.1834   44.4566 H   0  0  0  0  0  0  0  0  0  0  0  0
   58.2760   29.5880   43.8840 N   0  0  0  0  0  0  0  0  0  0  0  0
   59.1280   29.9480   43.3960 H   0  0  0  0  0  0  0  0  0  0  0  0
   59.0260   33.9630   44.5140 C   0  0  0  0  0  0  0  0  0  0  0  0
   59.7991   34.2556   43.7883 H   0  0  0  0  0  0  0  0  0  0  0  0
   58.9650   34.4640   45.8200 C   0  0  0  0  0  0  0  0  0  0  0  0
   59.6880   35.1897   46.2207 H   0  0  0  0  0  0  0  0  0  0  0  0
  1  2  1  0
  2  3  1  0
  3  4  1  0
  4  5  1  0
  5  6  1  0
  5  7  1  0
  5  8  1  0
  8  9  2  0
  9 10  1  0
 10 11  1  0
 11 12  1  0
 12 13  2  0
 12 14  1  0
 14 15  1  0
 15 16  1  0
 15 17  1  0
 15 18  1  0
 18 19  1  0
 18 20  1  0
 18 21  1  0
 11 22  2  0
 22 23  1  0
 23 24  1  0
 23 25  1  0
 23 26  1  0
 22 27  1  0
 27 28  1  0
  4 29  2  0
 29 30  1  0
 29 31  1  0
 31 32  1  0
 31  2  2  0
 27  9  1  0
M  END
>  <UniqueID>  (13) 
11

>  <SMILES>  (13) 
CCOC(=O)c1s/c(=N\Cc2cccs2)[nH]c1C

>  <Energy>  (13) 
80.28965516767366

>  <Genealogy>  (13) 
CCOC(=O)c1s/c(=N\Cc2cccs2)[nH]c1C (cis-trans isomerization)
CCOC(=O)c1s/c(=N\Cc2cccs2)[nH]c1C (3D coordinates assigned)
CCOC(=O)c1s/c(=N\Cc2cccs2)[nH]c1C (optimized conformer: 80.28965516767366 kcal/mol)

>  <smiles>  (13) 
CCOC(=O)c1sc(=NCc2cccs2)[nH]c1C

>  <score_type>  (13) 
oracle

>  <origin>  (13) 
adg

>  <m_score__min__energy>  (13) 
-6.4100000000000001

>  <m_primary>  (13) 
energy

$$$$
13:0
     RDKit          3D

 29 30  0  0  0  0  0  0  0  0999 V2000
   56.7110   26.4330   45.9470 C   0  0  0  0  0  0  0  0  0  0  0  0
   55.9070   27.5620   45.6220 O   0  0  0  0  0  0  0  0  0  0  0  0
   56.4130   28.7930   45.1780 C   0  0  0  0  0  0  0  0  0  0  0  0
   57.6290   29.2410   45.7050 C   0  0  0  0  0  0  0  0  0  0  0  0
   58.1730   30.4620   45.2970 C   0  0  0  0  0  0  0  0  0  0  0  0
   57.5090   31.2580   44.3540 C   0  0  0  0  0  0  0  0  0  0  0  0
   58.0890   32.5110   43.9550 N   0  0  0  0  0  0  0  0  0  0  0  0
   57.5150   34.0800   44.5430 S   0  0  0  0  0  0  0  0  0  0  0  0
   58.4430   33.9330   46.0680 C   0  0  0  0  0  0  0  0  0  0  0  0
   59.6620   34.6070   46.2190 C   0  0  0  0  0  0  0  0  0  0  0  0
   60.3800   34.4970   47.4130 C   0  0  0  0  0  0  0  0  0  0  0  0
   59.8860   33.7110   48.4580 C   0  0  0  0  0  0  0  0  0  0  0  0
   58.6700   33.0330   48.3100 C   0  0  0  0  0  0  0  0  0  0  0  0
   58.1900   32.2720   49.3230 F   0  0  0  0  0  0  0  0  0  0  0  0
   57.9500   33.1430   47.1150 C   0  0  0  0  0  0  0  0  0  0  0  0
   56.2900   30.8060   43.8150 C   0  0  0  0  0  0  0  0  0  0  0  0
   55.7460   29.5850   44.2260 C   0  0  0  0  0  0  0  0  0  0  0  0
   56.7807   26.3351   47.0404 H   0  0  0  0  0  0  0  0  0  0  0  0
   56.2552   25.5248   45.5259 H   0  0  0  0  0  0  0  0  0  0  0  0
   57.7183   26.5668   45.5259 H   0  0  0  0  0  0  0  0  0  0  0  0
   58.1613   28.6272   46.4466 H   0  0  0  0  0  0  0  0  0  0  0  0
   59.1303   30.8010   45.7196 H   0  0  0  0  0  0  0  0  0  0  0  0
   58.9130   32.5160   43.3150 H   0  0  0  0  0  0  0  0  0  0  0  0
   60.0544   35.2235   45.3968 H   0  0  0  0  0  0  0  0  0  0  0  0
   61.3352   35.0297   47.5306 H   0  0  0  0  0  0  0  0  0  0  0  0
   60.4527   33.6251   49.3968 H   0  0  0  0  0  0  0  0  0  0  0  0
   56.9958   32.6086   46.9975 H   0  0  0  0  0  0  0  0  0  0  0  0
   55.7626   31.4161   43.0669 H   0  0  0  0  0  0  0  0  0  0  0  0
   54.7907   29.2419   43.8022 H   0  0  0  0  0  0  0  0  0  0  0  0
  1  2  1  0
  2  3  1  0
  3  4  2  0
  4  5  1  0
  5  6  2  0
  6  7  1  0
  7  8  1  0
  8  9  1  0
  9 10  2  0
 10 11  1  0
 11 12  2  0
 12 13  1  0
 13 14  1  0
 13 15  2  0
  6 16  1  0
 16 17  2  0
 17  3  1  0
 15  9  1  0
  1 18  1  0
  1 19  1  0
  1 20  1  0
  4 21  1  0
  5 22  1  0
  7 23  1  0
 10 24  1  0
 11 25  1  0
 12 26  1  0
 15 27  1  0
 16 28  1  0
 17 29  1  0
M  END
>  <UniqueID>  (14) 
12

>  <SMILES>  (14) 
COc1ccc(NSc2cccc(F)c2)cc1

>  <Energy>  (14) 
25.274658121461982

>  <Genealogy>  (14) 
COc1ccc(NSc2cccc(F)c2)cc1 (3D coordinates assigned)
COc1ccc(NSc2cccc(F)c2)cc1 (optimized conformer: 25.274658121461982 kcal/mol)

>  <smiles>  (14) 
COc1ccc(NSc2cccc(F)c2)cc1

>  <score_type>  (14) 
oracle

>  <origin>  (14) 
adg

>  <m_score__min__energy>  (14) 
-5.9900000000000002

>  <m_primary>  (14) 
energy

$$$$
14:0
     RDKit          3D

 57 60  0  0  0  0  0  0  0  0999 V2000
   56.7520   31.6120   51.6050 C   0  0  0  0  0  0  0  0  0  0  0  0
   58.2350   31.7170   51.7950 C   0  0  0  0  0  0  0  0  0  0  0  0
   58.8160   32.9450   52.1470 C   0  0  0  0  0  0  0  0  0  0  0  0
   60.2020   33.0550   52.2870 C   0  0  0  0  0  0  0  0  0  0  0  0
   61.0280   31.9430   52.0550 C   0  0  0  0  0  0  0  0  0  0  0  0
   62.5150   32.0510   52.2460 C   0  0  0  0  0  0  0  0  0  0  0  0
   63.3330   32.1320   50.6640 S   0  0  0  0  0  0  0  0  0  0  0  0
   64.3230   33.2650   50.6810 O   0  0  0  0  0  0  0  0  0  0  0  0
   64.0600   30.8380   50.4260 O   0  0  0  0  0  0  0  0  0  0  0  0
   62.1290   32.3610   49.4250 N   0  0  0  0  0  0  0  0  0  0  0  0
   62.0170   33.7630   49.0030 C   0  0  0  0  0  0  0  0  0  0  0  0
   60.5600   34.2370   49.2290 C   0  0  0  0  0  0  0  0  0  0  0  0
   59.6760   34.1870   47.9670 C   0  0  0  0  0  0  0  0  0  0  0  0
   60.1230   33.1400   47.0370 N   0  0  0  0  0  0  0  0  0  0  0  0
   59.1610   32.2810   46.4000 C   0  0  0  0  0  0  0  0  0  0  0  0
   58.3030   32.8090   45.4340 C   0  0  0  0  0  0  0  0  0  0  0  0
   57.3800   31.9930   44.7840 C   0  0  0  0  0  0  0  0  0  0  0  0
   57.2860   30.6270   45.0840 C   0  0  0  0  0  0  0  0  0  0  0  0
   56.3560   29.8210   44.2650 C   0  0  0  0  0  0  0  0  0  0  0  0
   55.1410   29.3400   44.8350 N   0  0  0  0  0  0  0  0  0  0  0  0
   56.6000   29.6120   43.0470 O   0  0  0  0  0  0  0  0  0  0  0  0
   58.1120   30.0790   46.1100 C   0  0  0  0  0  0  0  0  0  0  0  0
   58.0180   28.7450   46.5830 C   0  0  0  0  0  0  0  0  0  0  0  0
   57.1470   27.9480   46.1460 O   0  0  0  0  0  0  0  0  0  0  0  0
   58.8590   28.3080   47.5550 N   0  0  0  0  0  0  0  0  0  0  0  0
   59.7910   29.1230   48.1080 C   0  0  0  0  0  0  0  0  0  0  0  0
   60.6690   28.6190   49.2030 C   0  0  0  0  0  0  0  0  0  0  0  0
   59.8670   30.4190   47.7220 N   0  0  0  0  0  0  0  0  0  0  0  0
   59.0630   30.9200   46.7470 C   0  0  0  0  0  0  0  0  0  0  0  0
   61.5320   33.0650   46.6250 C   0  0  0  0  0  0  0  0  0  0  0  0
   62.4230   33.9280   47.5270 C   0  0  0  0  0  0  0  0  0  0  0  0
   60.4460   30.7160   51.6990 C   0  0  0  0  0  0  0  0  0  0  0  0
   59.0600   30.6070   51.5580 C   0  0  0  0  0  0  0  0  0  0  0  0
   56.2581   31.5770   52.5872 H   0  0  0  0  0  0  0  0  0  0  0  0
   56.3913   32.4869   51.0442 H   0  0  0  0  0  0  0  0  0  0  0  0
   56.5182   30.6951   51.0442 H   0  0  0  0  0  0  0  0  0  0  0  0
   58.1774   33.8250   52.3135 H   0  0  0  0  0  0  0  0  0  0  0  0
   60.6481   34.0168   52.5802 H   0  0  0  0  0  0  0  0  0  0  0  0
   62.7427   32.9613   52.8201 H   0  0  0  0  0  0  0  0  0  0  0  0
   62.8728   31.1649   52.7908 H   0  0  0  0  0  0  0  0  0  0  0  0
   62.7022   34.3807   49.6021 H   0  0  0  0  0  0  0  0  0  0  0  0
   60.1032   33.5941   49.9958 H   0  0  0  0  0  0  0  0  0  0  0  0
   60.6148   35.2922   49.5348 H   0  0  0  0  0  0  0  0  0  0  0  0
   58.6378   33.9801   48.2659 H   0  0  0  0  0  0  0  0  0  0  0  0
   59.7502   35.1578   47.4551 H   0  0  0  0  0  0  0  0  0  0  0  0
   58.3562   33.8788   45.1838 H   0  0  0  0  0  0  0  0  0  0  0  0
   56.7145   32.4273   44.0234 H   0  0  0  0  0  0  0  0  0  0  0  0
   55.1530   28.6560   45.6240 H   0  0  0  0  0  0  0  0  0  0  0  0
   60.2244   28.8742   50.1763 H   0  0  0  0  0  0  0  0  0  0  0  0
   60.7680   27.5266   49.1202 H   0  0  0  0  0  0  0  0  0  0  0  0
   61.6622   29.0845   49.1202 H   0  0  0  0  0  0  0  0  0  0  0  0
   61.8676   32.0192   46.6848 H   0  0  0  0  0  0  0  0  0  0  0  0
   61.6130   33.4414   45.5946 H   0  0  0  0  0  0  0  0  0  0  0  0
   63.4713   33.6185   47.4032 H   0  0  0  0  0  0  0  0  0  0  0  0
   62.3028   34.9833   47.2409 H   0  0  0  0  0  0  0  0  0  0  0  0
   61.0842   29.8361   51.5302 H   0  0  0  0  0  0  0  0  0  0  0  0
   58.6138   29.6468   51.2599 H   0  0  0  0  0  0  0  0  0  0  0  0
  1  2  1  0
  2  3  2  0
  3  4  1  0
  4  5  2  0
  5  6  1  0
  6  7  1  0
  7  8  2  0
  7  9  2  0
  7 10  1  0
 10 11  1  0
 11 12  1  0
 12 13  1  0
 13 14  1  0
 14 15  1  0
 15 16  2  0
 16 17  1  0
 17 18  2  0
 18 19  1  0
 19 20  1  0
 19 21  2  0
 18 22  1  0
 22 23  1  0
 23 24  2  0
 23 25  1  0
 25 26  2  0
 26 27  1  0
 26 28  1  0
 28 29  1  0
 14 30  1  0
 30 31  1  0
  5 32  1  0
 32 33  2  0
 33  2  1  0
 31 11  1  0
 29 15  1  0
 29 22  2  0
  1 34  1  0
  1 35  1  0
  1 36  1  0
  3 37  1  0
  4 38  1  0
  6 39  1  0
  6 40  1  0
 11 41  1  0
 12 42  1  0
 12 43  1  0
 13 44  1  0
 13 45  1  0
 16 46  1  0
 17 47  1  0
 20 48  1  0
 27 49  1  0
 27 50  1  0
 27 51  1  0
 30 52  1  0
 30 53  1  0
 31 54  1  0
 31 55  1  0
 32 56  1  0
 33 57  1  0
M  CHG  3  10  -1  20  -1  28  -1
M  END
>  <UniqueID>  (15) 
13

>  <SMILES>  (15) 
Cc1ccc(CS(=O)(=O)[N-]C2CCN(c3ccc(C([NH-])=O)c4c(=O)nc(C)[n-]c34)CC2)cc1

>  <Energy>  (15) 
73.92768645106881

>  <Genealogy>  (15) 
Cc1ccc(CS(=O)(=O)[N-]C2CCN(c3ccc(C([NH-])=O)c4c(=O)nc(C)[n-]c34)CC2)cc1 (protonated)
Cc1ccc(CS(=O)(=O)[N-]C2CCN(c3ccc(C([NH-])=O)c4c(=O)nc(C)[n-]c34)CC2)cc1 (3D coordinates assigned)
Cc1ccc(CS(=O)(=O)[N-]C2CCN(c3ccc(C([NH-])=O)c4c(=O)nc(C)[n-]c34)CC2)cc1 (nonaromatic ring conformer: 73.92768645106881 kcal/mol)

>  <smiles>  (15) 
Cc1ccc(CS(=O)(=O)NC2CCN(c3ccc(C(N)=O)c4c(=O)nc(C)[nH]c34)CC2)cc1

>  <score_type>  (15) 
oracle

>  <origin>  (15) 
adg

>  <m_score__min__energy>  (15) 
-13.58

>  <m_primary>  (15) 
energy

$$$$
15:0
     RDKit          3D

 53 56  0  0  0  0  0  0  0  0999 V2000
   59.9120   29.4010   46.2160 O   0  0  0  0  0  0  0  0  0  0  0  0
   58.8100   29.3990   46.8260 C   0  0  0  0  0  0  0  0  0  0  0  0
   58.5560   28.3890   47.9000 C   0  0  0  0  0  0  0  0  0  0  0  0
   59.5570   26.8870   47.6030 S   0  0  0  0  0  0  0  0  0  0  0  0
   58.2990   26.0390   46.6500 C   0  0  0  0  0  0  0  0  0  0  0  0
   57.0230   26.4990   46.6530 N   0  0  0  0  0  0  0  0  0  0  0  0
   56.0480   25.8720   45.9470 C   0  0  0  0  0  0  0  0  0  0  0  0
   54.8730   26.3200   45.9920 O   0  0  0  0  0  0  0  0  0  0  0  0
   56.3560   24.7340   45.1830 C   0  0  0  0  0  0  0  0  0  0  0  0
   55.3130   24.0230   44.3570 C   0  0  0  0  0  0  0  0  0  0  0  0
   54.1820   23.5490   45.2290 C   0  0  0  0  0  0  0  0  0  0  0  0
   54.4520   22.8050   46.3880 C   0  0  0  0  0  0  0  0  0  0  0  0
   53.4020   22.3290   47.1770 C   0  0  0  0  0  0  0  0  0  0  0  0
   52.0790   22.5850   46.8100 C   0  0  0  0  0  0  0  0  0  0  0  0
   51.8030   23.3220   45.6580 C   0  0  0  0  0  0  0  0  0  0  0  0
   52.8490   23.8040   44.8680 C   0  0  0  0  0  0  0  0  0  0  0  0
   57.6840   24.2860   45.1890 C   0  0  0  0  0  0  0  0  0  0  0  0
   58.6230   24.9410   45.9210 N   0  0  0  0  0  0  0  0  0  0  0  0
   57.7560   30.2730   46.4130 N   0  0  0  0  0  0  0  0  0  0  0  0
   57.4340   30.5180   45.0410 C   0  0  0  0  0  0  0  0  0  0  0  0
   56.8590   29.4900   44.2850 C   0  0  0  0  0  0  0  0  0  0  0  0
   56.5860   29.6820   42.9280 C   0  0  0  0  0  0  0  0  0  0  0  0
   56.8720   30.9070   42.3210 C   0  0  0  0  0  0  0  0  0  0  0  0
   57.4190   31.9480   43.0740 C   0  0  0  0  0  0  0  0  0  0  0  0
   57.6970   31.7660   44.4390 C   0  0  0  0  0  0  0  0  0  0  0  0
   58.1870   32.8630   45.2270 N   0  0  0  0  0  0  0  0  0  0  0  0
   57.5450   33.1580   46.5080 C   0  0  0  0  0  0  0  0  0  0  0  0
   58.5190   33.9170   47.4160 C   0  0  0  0  0  0  0  0  0  0  0  0
   59.0670   35.0380   46.7460 O   0  0  0  0  0  0  0  0  0  0  0  0
   59.8540   34.6030   45.6510 C   0  0  0  0  0  0  0  0  0  0  0  0
   58.9810   33.9180   44.5950 C   0  0  0  0  0  0  0  0  0  0  0  0
   58.8271   28.8195   48.8753 H   0  0  0  0  0  0  0  0  0  0  0  0
   57.4901   28.1175   47.8930 H   0  0  0  0  0  0  0  0  0  0  0  0
   54.9192   24.7149   43.5979 H   0  0  0  0  0  0  0  0  0  0  0  0
   55.7771   23.1516   43.8721 H   0  0  0  0  0  0  0  0  0  0  0  0
   55.4929   22.5962   46.6758 H   0  0  0  0  0  0  0  0  0  0  0  0
   53.6175   21.7519   48.0883 H   0  0  0  0  0  0  0  0  0  0  0  0
   51.2536   22.2051   47.4300 H   0  0  0  0  0  0  0  0  0  0  0  0
   50.7603   23.5237   45.3716 H   0  0  0  0  0  0  0  0  0  0  0  0
   52.6281   24.3850   43.9605 H   0  0  0  0  0  0  0  0  0  0  0  0
   57.9670   23.4015   44.5994 H   0  0  0  0  0  0  0  0  0  0  0  0
   56.6211   28.5272   44.7608 H   0  0  0  0  0  0  0  0  0  0  0  0
   56.1448   28.8663   42.3364 H   0  0  0  0  0  0  0  0  0  0  0  0
   56.6664   31.0517   41.2501 H   0  0  0  0  0  0  0  0  0  0  0  0
   57.6333   32.9153   42.5960 H   0  0  0  0  0  0  0  0  0  0  0  0
   56.6513   33.7754   46.3346 H   0  0  0  0  0  0  0  0  0  0  0  0
   57.2560   32.2147   46.9945 H   0  0  0  0  0  0  0  0  0  0  0  0
   57.9820   34.2606   48.3124 H   0  0  0  0  0  0  0  0  0  0  0  0
   59.3393   33.2393   47.6950 H   0  0  0  0  0  0  0  0  0  0  0  0
   60.3539   35.4718   45.1979 H   0  0  0  0  0  0  0  0  0  0  0  0
   60.5995   33.8811   46.0160 H   0  0  0  0  0  0  0  0  0  0  0  0
   58.3085   34.6592   44.1384 H   0  0  0  0  0  0  0  0  0  0  0  0
   59.6233   33.4776   43.8182 H   0  0  0  0  0  0  0  0  0  0  0  0
  1  2  2  0
  2  3  1  0
  3  4  1  0
  4  5  1  0
  5  6  2  0
  6  7  1  0
  7  8  2  0
  7  9  1  0
  9 10  1  0
 10 11  1  0
 11 12  2  0
 12 13  1  0
 13 14  2  0
 14 15  1  0
 15 16  2  0
  9 17  2  0
 17 18  1  0
  2 19  1  0
 19 20  1  0
 20 21  2  0
 21 22  1  0
 22 23  2  0
 23 24  1  0
 24 25  2  0
 25 26  1  0
 26 27  1  0
 27 28  1  0
 28 29  1  0
 29 30  1  0
 30 31  1  0
 18  5  1  0
 25 20  1  0
 31 26  1  0
 16 11  1  0
  3 32  1  0
  3 33  1  0
 10 34  1  0
 10 35  1  0
 12 36  1  0
 13 37  1  0
 14 38  1  0
 15 39  1  0
 16 40  1  0
 17 41  1  0
 21 42  1  0
 22 43  1  0
 23 44  1  0
 24 45  1  0
 27 46  1  0
 27 47  1  0
 28 48  1  0
 28 49  1  0
 30 50  1  0
 30 51  1  0
 31 52  1  0
 31 53  1  0
M  CHG  2  18  -1  19  -1
M  END
>  <UniqueID>  (16) 
14

>  <SMILES>  (16) 
O=C(CSc1nc(=O)c(Cc2ccccc2)c[n-]1)[N-]c1ccccc1N1CCOCC1

>  <Energy>  (16) 
62.57140759204081

>  <Genealogy>  (16) 
O=C(CSc1nc(=O)c(Cc2ccccc2)c[n-]1)[N-]c1ccccc1N1CCOCC1 (protonated)
O=C(CSc1nc(=O)c(Cc2ccccc2)c[n-]1)[N-]c1ccccc1N1CCOCC1 (3D coordinates assigned)
O=C(CSc1nc(=O)c(Cc2ccccc2)c[n-]1)[N-]c1ccccc1N1CCOCC1 (nonaromatic ring conformer: 62.57140759204081 kcal/mol)

>  <smiles>  (16) 
O=C(CSc1nc(=O)c(Cc2ccccc2)c[nH]1)Nc1ccccc1N1CCOCC1

>  <score_type>  (16) 
oracle

>  <origin>  (16) 
adg

>  <m_score__min__energy>  (16) 
-13.01

>  <m_primary>  (16) 
energy

$$$$
16:0
     RDKit          3D

 60 65  0  0  0  0  0  0  0  0999 V2000
   55.6100   24.0890   46.6310 C   0  0  0  0  0  0  0  0  0  0  0  0
   55.9300   25.4460   46.0770 C   0  0  0  0  0  0  0  0  0  0  0  0
   55.0060   26.3010   46.0070 O   0  0  0  0  0  0  0  0  0  0  0  0
   57.2650   25.7840   45.6440 N   0  0  0  0  0  0  0  0  0  0  0  0
   57.7070   25.4740   44.2770 C   0  0  0  0  0  0  0  0  0  0  0  0
   57.3240   24.0650   43.9150 C   0  0  0  0  0  0  0  0  0  0  0  0
   56.2740   23.8270   43.0160 C   0  0  0  0  0  0  0  0  0  0  0  0
   55.9010   22.5130   42.7250 C   0  0  0  0  0  0  0  0  0  0  0  0
   56.5500   21.4740   43.3130 N   0  0  0  0  0  0  0  0  0  0  0  0
   57.5670   21.6750   44.1930 C   0  0  0  0  0  0  0  0  0  0  0  0
   57.9700   22.9740   44.5140 C   0  0  0  0  0  0  0  0  0  0  0  0
   58.1290   26.5700   46.4830 C   0  0  0  0  0  0  0  0  0  0  0  0
   59.0870   25.9420   47.2930 C   0  0  0  0  0  0  0  0  0  0  0  0
   59.9390   26.7060   48.0960 C   0  0  0  0  0  0  0  0  0  0  0  0
   59.8360   28.1000   48.0980 C   0  0  0  0  0  0  0  0  0  0  0  0
   58.9060   28.7370   47.2660 C   0  0  0  0  0  0  0  0  0  0  0  0
   58.0460   27.9710   46.4640 C   0  0  0  0  0  0  0  0  0  0  0  0
   58.9040   30.2090   47.2380 C   0  0  0  0  0  0  0  0  0  0  0  0
   58.0540   30.8420   46.5540 O   0  0  0  0  0  0  0  0  0  0  0  0
   59.9760   30.9550   47.9850 C   0  0  0  0  0  0  0  0  0  0  0  0
   60.3580   30.2130   49.3110 C   0  0  2  0  0  0  0  0  0  0  0  0
   60.6660   28.8640   48.9270 O   0  0  0  0  0  0  0  0  0  0  0  0
   59.2490   30.1910   50.3820 C   0  0  0  0  0  0  0  0  0  0  0  0
   58.1760   31.1170   50.3240 C   0  0  0  0  0  0  0  0  0  0  0  0
   57.2510   31.2280   51.3590 C   0  0  0  0  0  0  0  0  0  0  0  0
   57.3710   30.4370   52.4910 C   0  0  0  0  0  0  0  0  0  0  0  0
   56.2010   30.5810   53.7900 Cl  0  0  0  0  0  0  0  0  0  0  0  0
   58.4110   29.5180   52.5870 C   0  0  0  0  0  0  0  0  0  0  0  0
   59.3700   29.3780   51.5620 C   0  0  0  0  0  0  0  0  0  0  0  0
   60.3410   28.2110   51.7320 C   0  0  0  0  0  0  0  0  0  0  0  0
   62.1010   28.3660   51.2250 S   0  0  0  0  0  0  0  0  0  0  0  0
   62.2410   30.1450   51.0420 C   0  0  0  0  0  0  0  0  0  0  0  0
   63.1450   30.8010   51.8860 C   0  0  0  0  0  0  0  0  0  0  0  0
   63.4120   32.1560   51.7200 C   0  0  0  0  0  0  0  0  0  0  0  0
   62.7750   32.8710   50.7090 C   0  0  0  0  0  0  0  0  0  0  0  0
   63.1060   34.5830   50.5090 Cl  0  0  0  0  0  0  0  0  0  0  0  0
   61.8500   32.2360   49.8760 C   0  0  0  0  0  0  0  0  0  0  0  0
   61.5660   30.8530   50.0130 C   0  0  0  0  0  0  0  0  0  0  0  0
   55.6197   24.1301   47.7302 H   0  0  0  0  0  0  0  0  0  0  0  0
   54.6137   23.7771   46.2845 H   0  0  0  0  0  0  0  0  0  0  0  0
   56.3620   23.3648   46.2845 H   0  0  0  0  0  0  0  0  0  0  0  0
   57.2301   26.1724   43.5736 H   0  0  0  0  0  0  0  0  0  0  0  0
   58.8010   25.5744   44.2217 H   0  0  0  0  0  0  0  0  0  0  0  0
   55.7479   24.6696   42.5434 H   0  0  0  0  0  0  0  0  0  0  0  0
   55.0805   22.3188   42.0186 H   0  0  0  0  0  0  0  0  0  0  0  0
   58.0733   20.8136   44.6530 H   0  0  0  0  0  0  0  0  0  0  0  0
   58.7876   23.1394   45.2310 H   0  0  0  0  0  0  0  0  0  0  0  0
   59.1680   24.8450   47.2963 H   0  0  0  0  0  0  0  0  0  0  0  0
   60.6911   26.2097   48.7268 H   0  0  0  0  0  0  0  0  0  0  0  0
   57.3063   28.4690   45.8200 H   0  0  0  0  0  0  0  0  0  0  0  0
   60.8690   31.0350   47.3477 H   0  0  0  0  0  0  0  0  0  0  0  0
   59.5936   31.9542   48.2408 H   0  0  0  0  0  0  0  0  0  0  0  0
   58.0721   31.7632   49.4399 H   0  0  0  0  0  0  0  0  0  0  0  0
   56.4218   31.9462   51.2780 H   0  0  0  0  0  0  0  0  0  0  0  0
   58.4873   28.8854   53.4836 H   0  0  0  0  0  0  0  0  0  0  0  0
   60.3445   27.9599   52.8029 H   0  0  0  0  0  0  0  0  0  0  0  0
   59.9495   27.4642   51.0256 H   0  0  0  0  0  0  0  0  0  0  0  0
   63.6484   30.2401   52.6872 H   0  0  0  0  0  0  0  0  0  0  0  0
   64.1256   32.6622   52.3867 H   0  0  0  0  0  0  0  0  0  0  0  0
   61.3327   32.8192   49.0999 H   0  0  0  0  0  0  0  0  0  0  0  0
  1  2  1  0
  2  3  2  0
  2  4  1  0
  4  5  1  0
  5  6  1  0
  6  7  2  0
  7  8  1  0
  8  9  2  0
  9 10  1  0
 10 11  2  0
  4 12  1  0
 12 13  2  0
 13 14  1  0
 14 15  2  0
 15 16  1  0
 16 17  2  0
 16 18  1  0
 18 19  2  0
 18 20  1  0
 20 21  1  0
 21 22  1  6
 21 23  1  0
 23 24  2  0
 24 25  1  0
 25 26  2  0
 26 27  1  0
 26 28  1  0
 28 29  2  0
 29 30  1  0
 30 31  1  0
 31 32  1  0
 32 33  2  0
 33 34  1  0
 34 35  2  0
 35 36  1  0
 35 37  1  0
 37 38  2  0
 11  6  1  0
 17 12  1  0
 38 21  1  0
 22 15  1  0
 29 23  1  0
 38 32  1  0
  1 39  1  0
  1 40  1  0
  1 41  1  0
  5 42  1  0
  5 43  1  0
  7 44  1  0
  8 45  1  0
 10 46  1  0
 11 47  1  0
 13 48  1  0
 14 49  1  0
 17 50  1  0
 20 51  1  0
 20 52  1  0
 24 53  1  0
 25 54  1  0
 28 55  1  0
 30 56  1  0
 30 57  1  0
 33 58  1  0
 34 59  1  0
 37 60  1  0
M  END
>  <UniqueID>  (17) 
15

>  <SMILES>  (17) 
CC(=O)N(Cc1ccncc1)c1ccc2c(c1)C(=O)C[C@]1(O2)c2ccc(Cl)cc2CSc2ccc(Cl)cc21

>  <Energy>  (17) 
104.16961150545558

>  <Genealogy>  (17) 
CC(=O)N(Cc1ccncc1)c1ccc2c(c1)C(=O)C[C@]1(O2)c2ccc(Cl)cc2CSc2ccc(Cl)cc21 (chirality)
CC(=O)N(Cc1ccncc1)c1ccc2c(c1)C(=O)C[C@]1(O2)c2ccc(Cl)cc2CSc2ccc(Cl)cc21 (3D coordinates assigned)
CC(=O)N(Cc1ccncc1)c1ccc2c(c1)C(=O)C[C@]1(O2)c2ccc(Cl)cc2CSc2ccc(Cl)cc21 (nonaromatic ring conformer: 104.16961150545558 kcal/mol)

>  <smiles>  (17) 
CC(=O)N(Cc1ccncc1)c1ccc2c(c1)C(=O)CC1(O2)c2ccc(Cl)cc2CSc2ccc(Cl)cc21

>  <score_type>  (17) 
oracle

>  <origin>  (17) 
adg

>  <m_score__min__energy>  (17) 
-9.4000000000000004

>  <m_primary>  (17) 
energy

$$$$
17:0
     RDKit          3D

 15 15  0  0  0  0  0  0  0  0999 V2000
   57.2001   31.8079   43.8338 H   0  0  0  0  0  0  0  0  0  0  0  0
   57.0530   30.8110   44.2750 C   0  0  0  0  0  0  0  0  0  0  0  0
   58.2140   29.9140   45.1010 S   0  0  0  0  0  0  0  0  0  0  0  0
   57.1690   28.6210   45.3900 C   0  0  0  0  0  0  0  0  0  0  0  0
   57.4470   27.5180   46.0240 N   0  0  0  0  0  0  0  0  0  0  0  0
   56.6480   26.3260   46.1000 C   0  0  0  0  0  0  0  0  0  0  0  0
   55.3880   26.3780   46.0970 O   0  0  0  0  0  0  0  0  0  0  0  0
   57.3240   24.9940   46.1850 C   0  0  0  0  0  0  0  0  0  0  0  0
   58.3892   25.1516   46.4098 H   0  0  0  0  0  0  0  0  0  0  0  0
   57.1700   24.1340   44.6330 Cl  0  0  0  0  0  0  0  0  0  0  0  0
   56.5900   24.0190   47.4790 Cl  0  0  0  0  0  0  0  0  0  0  0  0
   55.9480   28.8610   44.8660 N   0  0  0  0  0  0  0  0  0  0  0  0
   55.1440   28.1970   44.9250 H   0  0  0  0  0  0  0  0  0  0  0  0
   55.8750   30.0710   44.2480 C   0  0  0  0  0  0  0  0  0  0  0  0
   54.9565   30.4357   43.7648 H   0  0  0  0  0  0  0  0  0  0  0  0
  1  2  1  0
  2  3  1  0
  3  4  1  0
  4  5  2  0
  5  6  1  0
  6  7  2  0
  6  8  1  0
  8  9  1  0
  8 10  1  0
  8 11  1  0
  4 12  1  0
 12 13  1  0
 12 14  1  0
 14 15  1  0
 14  2  2  0
M  END
>  <UniqueID>  (18) 
16

>  <SMILES>  (18) 
O=C(/N=c1/[nH]ccs1)C(Cl)Cl

>  <Energy>  (18) 
44.65280972661628

>  <Genealogy>  (18) 
O=C(/N=c1/[nH]ccs1)C(Cl)Cl (cis-trans isomerization)
O=C(/N=c1/[nH]ccs1)C(Cl)Cl (3D coordinates assigned)
O=C(/N=c1/[nH]ccs1)C(Cl)Cl (optimized conformer: 44.65280972661628 kcal/mol)

>  <smiles>  (18) 
O=C(N=c1[nH]ccs1)C(Cl)Cl

>  <score_type>  (18) 
oracle

>  <origin>  (18) 
adg

>  <m_score__min__energy>  (18) 
-4.9800000000000004

>  <m_primary>  (18) 
energy

$$$$
18:0
     RDKit          3D

 43 45  0  0  0  0  0  0  0  0999 V2000
   53.8820   22.2740   45.9510 N   0  0  0  0  0  0  0  0  0  0  0  0
   54.3370   23.7050   45.0970 S   0  0  0  0  0  0  0  0  0  0  0  0
   54.2630   23.4500   43.6180 O   0  0  0  0  0  0  0  0  0  0  0  0
   53.3870   24.8190   45.4410 O   0  0  0  0  0  0  0  0  0  0  0  0
   55.9780   24.1590   45.5440 C   0  0  0  0  0  0  0  0  0  0  0  0
   56.1980   25.2110   46.4430 C   0  0  0  0  0  0  0  0  0  0  0  0
   57.5010   25.5830   46.7870 C   0  0  0  0  0  0  0  0  0  0  0  0
   58.6010   24.9180   46.2150 C   0  0  0  0  0  0  0  0  0  0  0  0
   59.9520   25.2730   46.5460 N   0  0  0  0  0  0  0  0  0  0  0  0
   60.3640   26.4580   47.2410 C   0  0  0  0  0  0  0  0  0  0  0  0
   61.1400   26.3430   48.2260 O   0  0  0  0  0  0  0  0  0  0  0  0
   59.9380   27.8080   46.8060 C   0  0  0  0  0  0  0  0  0  0  0  0
   58.9000   28.4810   47.4710 C   0  0  0  0  0  0  0  0  0  0  0  0
   58.5290   29.7700   47.0810 C   0  0  0  0  0  0  0  0  0  0  0  0
   59.1930   30.4040   46.0210 C   0  0  0  0  0  0  0  0  0  0  0  0
   58.8270   31.7790   45.6370 C   0  0  0  0  0  0  0  0  0  0  0  0
   59.5070   32.8480   46.2430 C   0  0  0  0  0  0  0  0  0  0  0  0
   59.1790   34.1670   45.9220 C   0  0  0  0  0  0  0  0  0  0  0  0
   58.1730   34.4310   44.9930 C   0  0  0  0  0  0  0  0  0  0  0  0
   57.4970   33.3770   44.3740 C   0  0  0  0  0  0  0  0  0  0  0  0
   57.8190   32.0450   44.6780 C   0  0  0  0  0  0  0  0  0  0  0  0
   56.9650   30.7420   43.8340 S   0  0  0  0  0  0  0  0  0  0  0  0
   57.9200   29.3040   43.8710 N   0  0  0  0  0  0  0  0  0  0  0  0
   55.6470   30.4730   44.5040 O   0  0  0  0  0  0  0  0  0  0  0  0
   56.7000   31.1390   42.4080 O   0  0  0  0  0  0  0  0  0  0  0  0
   60.2020   29.7210   45.3290 C   0  0  0  0  0  0  0  0  0  0  0  0
   60.5700   28.4290   45.7150 C   0  0  0  0  0  0  0  0  0  0  0  0
   58.3770   23.8550   45.3330 C   0  0  0  0  0  0  0  0  0  0  0  0
   57.0730   23.4820   44.9910 C   0  0  0  0  0  0  0  0  0  0  0  0
   53.6670   21.5450   45.2330 H   0  0  0  0  0  0  0  0  0  0  0  0
   55.3421   25.7463   46.8798 H   0  0  0  0  0  0  0  0  0  0  0  0
   57.6667   26.3980   47.5070 H   0  0  0  0  0  0  0  0  0  0  0  0
   58.3759   27.9900   48.3042 H   0  0  0  0  0  0  0  0  0  0  0  0
   57.7140   30.2890   47.6067 H   0  0  0  0  0  0  0  0  0  0  0  0
   60.3027   32.6452   46.9749 H   0  0  0  0  0  0  0  0  0  0  0  0
   59.7149   34.9988   46.4026 H   0  0  0  0  0  0  0  0  0  0  0  0
   57.9115   35.4708   44.7473 H   0  0  0  0  0  0  0  0  0  0  0  0
   56.7051   33.5927   43.6416 H   0  0  0  0  0  0  0  0  0  0  0  0
   58.5640   29.3430   43.0490 H   0  0  0  0  0  0  0  0  0  0  0  0
   60.7064   30.2034   44.4788 H   0  0  0  0  0  0  0  0  0  0  0  0
   61.3577   27.8959   45.1625 H   0  0  0  0  0  0  0  0  0  0  0  0
   59.2315   23.3095   44.9061 H   0  0  0  0  0  0  0  0  0  0  0  0
   56.9066   22.6545   44.2856 H   0  0  0  0  0  0  0  0  0  0  0  0
  1  2  1  0
  2  3  2  0
  2  4  2  0
  2  5  1  0
  5  6  2  0
  6  7  1  0
  7  8  2  0
  8  9  1  0
  9 10  1  0
 10 11  2  0
 10 12  1  0
 12 13  2  0
 13 14  1  0
 14 15  2  0
 15 16  1  0
 16 17  2  0
 17 18  1  0
 18 19  2  0
 19 20  1  0
 20 21  2  0
 21 22  1  0
 22 23  1  0
 22 24  2  0
 22 25  2  0
 15 26  1  0
 26 27  2  0
  8 28  1  0
 28 29  2  0
 29  5  1  0
 27 12  1  0
 21 16  1  0
  1 30  1  0
  6 31  1  0
  7 32  1  0
 13 33  1  0
 14 34  1  0
 17 35  1  0
 18 36  1  0
 19 37  1  0
 20 38  1  0
 23 39  1  0
 26 40  1  0
 27 41  1  0
 28 42  1  0
 29 43  1  0
M  CHG  3   1  -1   9  -1  23  -1
M  END
>  <UniqueID>  (19) 
17

>  <SMILES>  (19) 
[NH-]S(=O)(=O)c1ccc([N-]C(=O)c2ccc(-c3ccccc3S([NH-])(=O)=O)cc2)cc1

>  <Energy>  (19) 
60.23099088277657

>  <Genealogy>  (19) 
[NH-]S(=O)(=O)c1ccc([N-]C(=O)c2ccc(-c3ccccc3S([NH-])(=O)=O)cc2)cc1 (protonated)
[NH-]S(=O)(=O)c1ccc([N-]C(=O)c2ccc(-c3ccccc3S([NH-])(=O)=O)cc2)cc1 (3D coordinates assigned)
[NH-]S(=O)(=O)c1ccc([N-]C(=O)c2ccc(-c3ccccc3S([NH-])(=O)=O)cc2)cc1 (optimized conformer: 60.23099088277657 kcal/mol)

>  <smiles>  (19) 
NS(=O)(=O)c1ccc(NC(=O)c2ccc(-c3ccccc3S(N)(=O)=O)cc2)cc1

>  <score_type>  (19) 
oracle

>  <origin>  (19) 
adg

>  <m_score__min__energy>  (19) 
-13.529999999999999

>  <m_primary>  (19) 
energy

$$$$
19:0
     RDKit          3D

 40 42  0  0  0  0  0  0  0  0999 V2000
   56.0030   29.1740   44.8660 O   0  0  0  0  0  0  0  0  0  0  0  0
   57.0590   29.5890   44.3170 C   0  0  0  0  0  0  0  0  0  0  0  0
   57.9700   28.6550   43.7150 N   0  0  0  0  0  0  0  0  0  0  0  0
   57.7720   27.2100   43.8010 C   0  0  0  0  0  0  0  0  0  0  0  0
   57.9440   26.7490   45.2130 C   0  0  0  0  0  0  0  0  0  0  0  0
   59.0550   26.9710   46.0160 C   0  0  0  0  0  0  0  0  0  0  0  0
   58.9530   26.3690   47.2750 C   0  0  0  0  0  0  0  0  0  0  0  0
   57.7700   25.6660   47.4630 C   0  0  0  0  0  0  0  0  0  0  0  0
   56.8510   25.7910   46.0590 S   0  0  0  0  0  0  0  0  0  0  0  0
   57.3320   31.0360   44.3110 C   0  0  0  0  0  0  0  0  0  0  0  0
   57.8560   31.7820   43.2670 C   0  0  0  0  0  0  0  0  0  0  0  0
   57.9300   33.0780   43.7330 C   0  0  0  0  0  0  0  0  0  0  0  0
   57.4590   33.0400   45.0290 C   0  0  0  0  0  0  0  0  0  0  0  0
   57.3270   34.2180   45.9420 C   0  0  0  0  0  0  0  0  0  0  0  0
   58.7330   34.3110   47.1070 S   0  0  0  0  0  0  0  0  0  0  0  0
   60.0410   33.8330   45.9180 C   0  0  0  0  0  0  0  0  0  0  0  0
   61.1950   33.1600   46.6230 C   0  0  0  0  0  0  0  0  0  0  0  0
   62.4070   33.8620   46.7520 C   0  0  0  0  0  0  0  0  0  0  0  0
   63.5030   33.2760   47.3880 C   0  0  0  0  0  0  0  0  0  0  0  0
   63.4040   31.9870   47.9070 C   0  0  0  0  0  0  0  0  0  0  0  0
   62.2050   31.2790   47.7960 C   0  0  0  0  0  0  0  0  0  0  0  0
   61.0970   31.8540   47.1600 C   0  0  0  0  0  0  0  0  0  0  0  0
   59.6180   30.9030   47.0730 Cl  0  0  0  0  0  0  0  0  0  0  0  0
   57.1020   31.8160   45.3430 O   0  0  0  0  0  0  0  0  0  0  0  0
   58.8010   29.0010   43.1890 H   0  0  0  0  0  0  0  0  0  0  0  0
   56.7567   26.9612   43.4586 H   0  0  0  0  0  0  0  0  0  0  0  0
   58.5160   26.7071   43.1658 H   0  0  0  0  0  0  0  0  0  0  0  0
   59.9266   27.5602   45.6950 H   0  0  0  0  0  0  0  0  0  0  0  0
   59.7362   26.4453   48.0436 H   0  0  0  0  0  0  0  0  0  0  0  0
   57.4829   25.1206   48.3741 H   0  0  0  0  0  0  0  0  0  0  0  0
   58.1516   31.4162   42.2726 H   0  0  0  0  0  0  0  0  0  0  0  0
   58.2905   33.9605   43.1841 H   0  0  0  0  0  0  0  0  0  0  0  0
   57.2987   35.1378   45.3394 H   0  0  0  0  0  0  0  0  0  0  0  0
   56.3996   34.1067   46.5229 H   0  0  0  0  0  0  0  0  0  0  0  0
   59.6175   33.1383   45.1777 H   0  0  0  0  0  0  0  0  0  0  0  0
   60.4146   34.7422   45.4244 H   0  0  0  0  0  0  0  0  0  0  0  0
   62.4921   34.8817   46.3482 H   0  0  0  0  0  0  0  0  0  0  0  0
   64.4469   33.8334   47.4795 H   0  0  0  0  0  0  0  0  0  0  0  0
   64.2704   31.5266   48.4044 H   0  0  0  0  0  0  0  0  0  0  0  0
   62.1302   30.2630   48.2108 H   0  0  0  0  0  0  0  0  0  0  0  0
  1  2  2  0
  2  3  1  0
  3  4  1  0
  4  5  1  0
  5  6  2  0
  6  7  1  0
  7  8  2  0
  8  9  1  0
  2 10  1  0
 10 11  2  0
 11 12  1  0
 12 13  2  0
 13 14  1  0
 14 15  1  0
 15 16  1  0
 16 17  1  0
 17 18  2  0
 18 19  1  0
 19 20  2  0
 20 21  1  0
 21 22  2  0
 22 23  1  0
 13 24  1  0
  9  5  1  0
 24 10  1  0
 22 17  1  0
  3 25  1  0
  4 26  1  0
  4 27  1  0
  6 28  1  0
  7 29  1  0
  8 30  1  0
 11 31  1  0
 12 32  1  0
 14 33  1  0
 14 34  1  0
 16 35  1  0
 16 36  1  0
 18 37  1  0
 19 38  1  0
 20 39  1  0
 21 40  1  0
M  END
>  <UniqueID>  (20) 
18

>  <SMILES>  (20) 
O=C(NCc1cccs1)c1ccc(CSCc2ccccc2Cl)o1

>  <Energy>  (20) 
87.29280695451315

>  <Genealogy>  (20) 
O=C(NCc1cccs1)c1ccc(CSCc2ccccc2Cl)o1 (3D coordinates assigned)
O=C(NCc1cccs1)c1ccc(CSCc2ccccc2Cl)o1 (optimized conformer: 87.29280695451315 kcal/mol)

>  <smiles>  (20) 
O=C(NCc1cccs1)c1ccc(CSCc2ccccc2Cl)o1

>  <score_type>  (20) 
oracle

>  <origin>  (20) 
adg

>  <m_score__min__energy>  (20) 
-8.5800000000000001

>  <m_primary>  (20) 
energy

$$$$
20:0
     RDKit          3D

 53 56  0  0  0  0  0  0  0  0999 V2000
   61.3090   32.3200   46.7930 O   0  0  0  0  0  0  0  0  0  0  0  0
   61.5980   31.4300   47.6380 C   0  0  0  0  0  0  0  0  0  0  0  0
   60.8400   30.2090   47.6720 N   0  0  0  0  0  0  0  0  0  0  0  0
   60.0920   29.7040   46.5530 C   0  0  0  0  0  0  0  0  0  0  0  0
   60.3860   28.4540   45.9820 C   0  0  0  0  0  0  0  0  0  0  0  0
   59.6240   27.9700   44.9160 C   0  0  0  0  0  0  0  0  0  0  0  0
   58.5590   28.7220   44.4150 C   0  0  0  0  0  0  0  0  0  0  0  0
   58.2460   29.9650   44.9830 C   0  0  0  0  0  0  0  0  0  0  0  0
   56.8990   30.9180   44.3740 S   0  0  0  0  0  0  0  0  0  0  0  0
   57.1410   31.2830   42.9360 O   0  0  0  0  0  0  0  0  0  0  0  0
   55.6380   30.1070   44.4870 O   0  0  0  0  0  0  0  0  0  0  0  0
   56.7660   32.3670   45.3190 N   0  0  0  0  0  0  0  0  0  0  0  0
   57.7190   33.2380   45.4600 C   0  0  0  0  0  0  0  0  0  0  0  0
   58.0580   33.9540   46.7140 C   0  0  0  0  0  0  0  0  0  0  0  0
   59.2350   34.8530   46.3070 C   0  0  0  0  0  0  0  0  0  0  0  0
   59.5280   34.5860   44.8180 C   0  0  0  0  0  0  0  0  0  0  0  0
   58.5580   33.6000   44.3870 N   0  0  0  0  0  0  0  0  0  0  0  0
   59.0070   30.4450   46.0580 C   0  0  0  0  0  0  0  0  0  0  0  0
   62.6850   31.6780   48.6160 C   0  0  0  0  0  0  0  0  0  0  0  0
   62.7150   30.9760   49.8330 C   0  0  0  0  0  0  0  0  0  0  0  0
   63.7310   31.2100   50.7640 C   0  0  0  0  0  0  0  0  0  0  0  0
   64.7290   32.1650   50.5060 C   0  0  0  0  0  0  0  0  0  0  0  0
   65.8230   32.4110   51.4790 C   0  0  0  0  0  0  0  0  0  0  0  0
   65.8950   31.6870   52.5090 O   0  0  0  0  0  0  0  0  0  0  0  0
   66.8330   33.4790   51.2850 C   0  0  0  0  0  0  0  0  0  0  0  0
   67.9830   33.2560   50.5050 C   0  0  0  0  0  0  0  0  0  0  0  0
   68.9340   34.2680   50.3420 C   0  0  0  0  0  0  0  0  0  0  0  0
   68.7550   35.5050   50.9660 C   0  0  0  0  0  0  0  0  0  0  0  0
   67.6270   35.7310   51.7580 C   0  0  0  0  0  0  0  0  0  0  0  0
   66.6720   34.7230   51.9220 C   0  0  0  0  0  0  0  0  0  0  0  0
   64.7050   32.8600   49.2860 C   0  0  0  0  0  0  0  0  0  0  0  0
   63.6900   32.6250   48.3550 C   0  0  0  0  0  0  0  0  0  0  0  0
   60.7410   29.7190   48.5900 H   0  0  0  0  0  0  0  0  0  0  0  0
   61.2196   27.8542   46.3761 H   0  0  0  0  0  0  0  0  0  0  0  0
   59.8635   26.9935   44.4697 H   0  0  0  0  0  0  0  0  0  0  0  0
   57.9645   28.3382   43.5729 H   0  0  0  0  0  0  0  0  0  0  0  0
   57.2069   34.5557   47.0655 H   0  0  0  0  0  0  0  0  0  0  0  0
   58.3051   33.2736   47.5423 H   0  0  0  0  0  0  0  0  0  0  0  0
   58.9685   35.9101   46.4537 H   0  0  0  0  0  0  0  0  0  0  0  0
   60.1206   34.6340   46.9216 H   0  0  0  0  0  0  0  0  0  0  0  0
   59.4156   35.5120   44.2350 H   0  0  0  0  0  0  0  0  0  0  0  0
   60.5574   34.2280   44.6694 H   0  0  0  0  0  0  0  0  0  0  0  0
   58.4940   33.2140   43.4190 H   0  0  0  0  0  0  0  0  0  0  0  0
   58.7518   31.4111   46.5180 H   0  0  0  0  0  0  0  0  0  0  0  0
   61.9321   30.2359   50.0549 H   0  0  0  0  0  0  0  0  0  0  0  0
   63.7495   30.6422   51.7059 H   0  0  0  0  0  0  0  0  0  0  0  0
   68.1346   32.2800   50.0208 H   0  0  0  0  0  0  0  0  0  0  0  0
   69.8246   34.0898   49.7214 H   0  0  0  0  0  0  0  0  0  0  0  0
   69.5025   36.3011   50.8336 H   0  0  0  0  0  0  0  0  0  0  0  0
   67.4897   36.7034   52.2535 H   0  0  0  0  0  0  0  0  0  0  0  0
   65.7893   34.9038   52.5530 H   0  0  0  0  0  0  0  0  0  0  0  0
   65.4917   33.5954   49.0615 H   0  0  0  0  0  0  0  0  0  0  0  0
   63.6774   33.1864   47.4091 H   0  0  0  0  0  0  0  0  0  0  0  0
  1  2  2  0
  2  3  1  0
  3  4  1  0
  4  5  2  0
  5  6  1  0
  6  7  2  0
  7  8  1  0
  8  9  1  0
  9 10  2  0
  9 11  2  0
  9 12  1  0
 12 13  2  3
 13 14  1  0
 14 15  1  0
 15 16  1  0
 16 17  1  0
  8 18  2  0
  2 19  1  0
 19 20  2  0
 20 21  1  0
 21 22  2  0
 22 23  1  0
 23 24  2  0
 23 25  1  0
 25 26  2  0
 26 27  1  0
 27 28  2  0
 28 29  1  0
 29 30  2  0
 22 31  1  0
 31 32  2  0
 18  4  1  0
 32 19  1  0
 17 13  1  0
 30 25  1  0
  3 33  1  0
  5 34  1  0
  6 35  1  0
  7 36  1  0
 14 37  1  0
 14 38  1  0
 15 39  1  0
 15 40  1  0
 16 41  1  0
 16 42  1  0
 17 43  1  0
 18 44  1  0
 20 45  1  0
 21 46  1  0
 26 47  1  0
 27 48  1  0
 28 49  1  0
 29 50  1  0
 30 51  1  0
 31 52  1  0
 32 53  1  0
M  END
>  <UniqueID>  (21) 
19

>  <SMILES>  (21) 
O=C(Nc1cccc(S(=O)(=O)N=C2CCCN2)c1)c1ccc(C(=O)c2ccccc2)cc1

>  <Energy>  (21) 
77.59328276436977

>  <Genealogy>  (21) 
O=C(Nc1cccc(S(=O)(=O)N=C2CCCN2)c1)c1ccc(C(=O)c2ccccc2)cc1 (3D coordinates assigned)
O=C(Nc1cccc(S(=O)(=O)N=C2CCCN2)c1)c1ccc(C(=O)c2ccccc2)cc1 (nonaromatic ring conformer: 77.59328276436977 kcal/mol)

>  <smiles>  (21) 
O=C(Nc1cccc(S(=O)(=O)N=C2CCCN2)c1)c1ccc(C(=O)c2ccccc2)cc1

>  <score_type>  (21) 
oracle

>  <origin>  (21) 
adg

>  <m_score__min__energy>  (21) 
-9.8300000000000001

>  <m_primary>  (21) 
energy

$$$$
21:0
     RDKit          3D

 46 48  0  0  0  0  0  0  0  0999 V2000
   54.7600   24.4730   47.6500 H   0  0  0  0  0  0  0  0  0  0  0  0
   55.7470   24.3240   47.4770 O   0  0  0  0  0  0  0  0  0  0  0  0
   56.5210   25.2710   46.8060 C   0  0  0  0  0  0  0  0  0  0  0  0
   57.9180   25.2150   46.8620 C   0  0  0  0  0  0  0  0  0  0  0  0
   58.4123   24.4185   47.4375 H   0  0  0  0  0  0  0  0  0  0  0  0
   58.6870   26.1680   46.1890 C   0  0  0  0  0  0  0  0  0  0  0  0
   59.7847   26.1109   46.2314 H   0  0  0  0  0  0  0  0  0  0  0  0
   58.0720   27.1980   45.4590 C   0  0  0  0  0  0  0  0  0  0  0  0
   58.9290   28.1800   44.7520 C   0  0  0  0  0  0  0  0  0  0  0  0
   60.0146   28.0040   44.7301 H   0  0  0  0  0  0  0  0  0  0  0  0
   58.4490   29.2730   44.1370 C   0  0  0  0  0  0  0  0  0  0  0  0
   58.0810   29.1726   43.1052 H   0  0  0  0  0  0  0  0  0  0  0  0
   58.3900   30.6090   44.7790 C   0  0  0  0  0  0  0  0  0  0  0  0
   58.6000   30.7920   46.1590 C   0  0  0  0  0  0  0  0  0  0  0  0
   58.8096   29.9227   46.7996 H   0  0  0  0  0  0  0  0  0  0  0  0
   58.5440   32.0710   46.7210 C   0  0  0  0  0  0  0  0  0  0  0  0
   58.7201   32.2026   47.7988 H   0  0  0  0  0  0  0  0  0  0  0  0
   58.2640   33.1900   45.9170 C   0  0  0  0  0  0  0  0  0  0  0  0
   58.2190   34.5570   46.4800 C   0  0  0  0  0  0  0  0  0  0  0  0
   57.2699   35.1070   46.3975 H   0  0  0  0  0  0  0  0  0  0  0  0
   59.2440   35.1810   47.0840 C   0  0  0  0  0  0  0  0  0  0  0  0
   59.1031   36.2377   47.3551 H   0  0  0  0  0  0  0  0  0  0  0  0
   60.5460   34.5630   47.4140 C   0  0  0  0  0  0  0  0  0  0  0  0
   61.4660   34.2040   46.4140 C   0  0  0  0  0  0  0  0  0  0  0  0
   61.2271   34.3980   45.3579 H   0  0  0  0  0  0  0  0  0  0  0  0
   62.6810   33.6030   46.7500 C   0  0  0  0  0  0  0  0  0  0  0  0
   63.3997   33.3422   45.9591 H   0  0  0  0  0  0  0  0  0  0  0  0
   62.9910   33.3290   48.0970 C   0  0  0  0  0  0  0  0  0  0  0  0
   64.2350   32.7130   48.4780 N   0  0  0  0  0  0  0  0  0  0  0  0
   64.7740   32.1780   47.7600 H   0  0  0  0  0  0  0  0  0  0  0  0
   64.7920   32.7850   49.8250 C   0  0  0  0  0  0  0  0  0  0  0  0
   63.9826   32.6804   50.5625 H   0  0  0  0  0  0  0  0  0  0  0  0
   65.5217   31.9737   49.9639 H   0  0  0  0  0  0  0  0  0  0  0  0
   65.2915   33.7552   49.9639 H   0  0  0  0  0  0  0  0  0  0  0  0
   62.0560   33.6590   49.0890 C   0  0  0  0  0  0  0  0  0  0  0  0
   62.2810   33.4411   50.1435 H   0  0  0  0  0  0  0  0  0  0  0  0
   60.8410   34.2620   48.7510 C   0  0  0  0  0  0  0  0  0  0  0  0
   60.1119   34.5018   49.5390 H   0  0  0  0  0  0  0  0  0  0  0  0
   58.1040   33.0140   44.5350 C   0  0  0  0  0  0  0  0  0  0  0  0
   57.9309   33.8877   43.8895 H   0  0  0  0  0  0  0  0  0  0  0  0
   58.1630   31.7360   43.9720 C   0  0  0  0  0  0  0  0  0  0  0  0
   58.0305   31.6117   42.8871 H   0  0  0  0  0  0  0  0  0  0  0  0
   56.6640   27.2380   45.3950 C   0  0  0  0  0  0  0  0  0  0  0  0
   56.1663   28.0267   44.8116 H   0  0  0  0  0  0  0  0  0  0  0  0
   55.8950   26.2820   46.0680 C   0  0  0  0  0  0  0  0  0  0  0  0
   54.5080   26.3380   45.9960 O   0  0  0  0  0  0  0  0  0  0  0  0
  1  2  1  0
  2  3  1  0
  3  4  2  0
  4  5  1  0
  4  6  1  0
  6  7  1  0
  6  8  2  0
  8  9  1  0
  9 10  1  0
  9 11  2  0
 11 12  1  0
 11 13  1  0
 13 14  2  0
 14 15  1  0
 14 16  1  0
 16 17  1  0
 16 18  2  0
 18 19  1  0
 19 20  1  0
 19 21  2  0
 21 22  1  0
 21 23  1  0
 23 24  2  0
 24 25  1  0
 24 26  1  0
 26 27  1  0
 26 28  2  0
 28 29  1  0
 29 30  1  0
 29 31  1  0
 31 32  1  0
 31 33  1  0
 31 34  1  0
 28 35  1  0
 35 36  1  0
 35 37  2  0
 37 38  1  0
 18 39  1  0
 39 40  1  0
 39 41  2  0
 41 42  1  0
  8 43  1  0
 43 44  1  0
 43 45  2  0
 45 46  1  0
 45  3  1  0
 41 13  1  0
 37 23  1  0
M  CHG  1  46  -1
M  END
>  <UniqueID>  (22) 
20

>  <SMILES>  (22) 
CNc1ccc(/C=C\c2ccc(/C=C/c3ccc(O)c([O-])c3)cc2)cc1

>  <Energy>  (22) 
61.18120282898721

>  <Genealogy>  (22) 
CNc1ccc(C=Cc2ccc(C=Cc3ccc(O)c([O-])c3)cc2)cc1 (protonated)
CNc1ccc(/C=C\c2ccc(/C=C/c3ccc(O)c([O-])c3)cc2)cc1 (cis-trans isomerization)
CNc1ccc(/C=C\c2ccc(/C=C/c3ccc(O)c([O-])c3)cc2)cc1 (3D coordinates assigned)
CNc1ccc(/C=C\c2ccc(/C=C/c3ccc(O)c([O-])c3)cc2)cc1 (optimized conformer: 61.18120282898721 kcal/mol)

>  <smiles>  (22) 
CNc1ccc(C=Cc2ccc(C=Cc3ccc(O)c(O)c3)cc2)cc1

>  <score_type>  (22) 
oracle

>  <origin>  (22) 
adg

>  <m_score__min__energy>  (22) 
-13.33

>  <m_primary>  (22) 
energy

$$$$
22:0
     RDKit          3D

 57 60  0  0  0  0  0  0  0  0999 V2000
   59.0200   35.0140   47.1830 N   0  0  0  0  0  0  0  0  0  0  0  0
   58.1950   33.7040   46.4120 S   0  0  0  0  0  0  0  0  0  0  0  0
   57.9290   34.0530   44.9730 O   0  0  0  0  0  0  0  0  0  0  0  0
   56.8700   33.4830   47.0890 O   0  0  0  0  0  0  0  0  0  0  0  0
   59.2000   32.2410   46.5030 C   0  0  0  0  0  0  0  0  0  0  0  0
   58.6550   30.9870   46.1410 C   0  0  0  0  0  0  0  0  0  0  0  0
   57.3150   30.9180   45.6310 N   0  0  0  0  0  0  0  0  0  0  0  0
   56.8290   30.0800   44.1890 S   0  0  0  0  0  0  0  0  0  0  0  0
   55.4900   29.4470   44.4420 O   0  0  0  0  0  0  0  0  0  0  0  0
   56.7050   31.0650   43.0600 O   0  0  0  0  0  0  0  0  0  0  0  0
   58.0150   28.8280   43.8100 C   0  0  0  0  0  0  0  0  0  0  0  0
   57.7810   27.5140   43.9250 C   0  0  0  0  0  0  0  0  0  0  0  0
   57.7530   26.7840   45.2070 C   0  0  0  0  0  0  0  0  0  0  0  0
   58.9110   26.7370   46.0010 C   0  0  0  0  0  0  0  0  0  0  0  0
   58.9110   26.0190   47.2000 C   0  0  0  0  0  0  0  0  0  0  0  0
   57.7680   25.3220   47.6010 C   0  0  0  0  0  0  0  0  0  0  0  0
   56.6230   25.3400   46.8010 C   0  0  0  0  0  0  0  0  0  0  0  0
   56.6140   26.0650   45.6050 C   0  0  0  0  0  0  0  0  0  0  0  0
   59.4440   29.8290   46.2630 C   0  0  0  0  0  0  0  0  0  0  0  0
   60.7600   29.9140   46.7080 C   0  0  0  0  0  0  0  0  0  0  0  0
   61.3190   31.1530   47.0160 C   0  0  0  0  0  0  0  0  0  0  0  0
   60.5530   32.3300   46.9040 C   0  0  0  0  0  0  0  0  0  0  0  0
   61.1070   33.5960   47.1570 O   0  0  0  0  0  0  0  0  0  0  0  0
   62.0890   33.9030   48.1480 C   0  0  0  0  0  0  0  0  0  0  0  0
   61.5800   33.5430   49.5420 C   0  0  0  0  0  0  0  0  0  0  0  0
   60.1740   33.7560   49.5970 O   0  0  0  0  0  0  0  0  0  0  0  0
   59.3520   33.3310   50.6490 C   0  0  0  0  0  0  0  0  0  0  0  0
   58.9920   34.1670   51.7330 C   0  0  0  0  0  0  0  0  0  0  0  0
   58.1540   33.6840   52.7600 C   0  0  0  0  0  0  0  0  0  0  0  0
   57.6660   32.3680   52.7200 C   0  0  0  0  0  0  0  0  0  0  0  0
   58.0370   31.5670   51.6440 C   0  0  0  0  0  0  0  0  0  0  0  0
   58.8550   32.0230   50.6390 C   0  0  0  0  0  0  0  0  0  0  0  0
   59.0930   30.9480   49.6160 C   0  0  0  0  0  0  0  0  0  0  0  0
   58.3220   29.8040   50.1130 N   0  0  0  0  0  0  0  0  0  0  0  0
   57.7010   30.2030   51.3290 C   0  0  0  0  0  0  0  0  0  0  0  0
   56.9690   29.4470   52.0240 O   0  0  0  0  0  0  0  0  0  0  0  0
   59.4290   34.6350   48.0680 H   0  0  0  0  0  0  0  0  0  0  0  0
   59.8280   35.2590   46.5680 H   0  0  0  0  0  0  0  0  0  0  0  0
   59.0072   29.1466   43.4578 H   0  0  0  0  0  0  0  0  0  0  0  0
   57.5978   26.9419   43.0035 H   0  0  0  0  0  0  0  0  0  0  0  0
   59.8196   27.2664   45.6783 H   0  0  0  0  0  0  0  0  0  0  0  0
   59.8128   26.0024   47.8296 H   0  0  0  0  0  0  0  0  0  0  0  0
   57.7700   24.7594   48.5463 H   0  0  0  0  0  0  0  0  0  0  0  0
   55.7269   24.7830   47.1122 H   0  0  0  0  0  0  0  0  0  0  0  0
   55.7127   26.0721   44.9745 H   0  0  0  0  0  0  0  0  0  0  0  0
   59.0176   28.8485   46.0047 H   0  0  0  0  0  0  0  0  0  0  0  0
   61.3614   28.9995   46.8171 H   0  0  0  0  0  0  0  0  0  0  0  0
   62.3657   31.2123   47.3489 H   0  0  0  0  0  0  0  0  0  0  0  0
   63.0045   33.3302   47.9388 H   0  0  0  0  0  0  0  0  0  0  0  0
   62.2985   34.9824   48.1158 H   0  0  0  0  0  0  0  0  0  0  0  0
   61.8004   32.4860   49.7524 H   0  0  0  0  0  0  0  0  0  0  0  0
   62.0788   34.1747   50.2918 H   0  0  0  0  0  0  0  0  0  0  0  0
   59.3680   35.1999   51.7749 H   0  0  0  0  0  0  0  0  0  0  0  0
   57.8811   34.3427   53.5976 H   0  0  0  0  0  0  0  0  0  0  0  0
   57.0106   31.9820   53.5147 H   0  0  0  0  0  0  0  0  0  0  0  0
   58.7300   31.2633   48.6266 H   0  0  0  0  0  0  0  0  0  0  0  0
   60.1605   30.7146   49.4895 H   0  0  0  0  0  0  0  0  0  0  0  0
  1  2  1  0
  2  3  2  0
  2  4  2  0
  2  5  1  0
  5  6  2  0
  6  7  1  0
  7  8  1  0
  8  9  2  0
  8 10  2  0
  8 11  1  0
 11 12  2  3
 12 13  1  0
 13 14  2  0
 14 15  1  0
 15 16  2  0
 16 17  1  0
 17 18  2  0
  6 19  1  0
 19 20  2  0
 20 21  1  0
 21 22  2  0
 22 23  1  0
 23 24  1  0
 24 25  1  0
 25 26  1  0
 26 27  1  0
 27 28  2  0
 28 29  1  0
 29 30  2  0
 30 31  1  0
 31 32  2  0
 32 33  1  0
 33 34  1  0
 34 35  1  0
 35 36  2  0
 22  5  1  0
 32 27  1  0
 18 13  1  0
 35 31  1  0
  1 37  1  0
  1 38  1  0
 11 39  1  0
 12 40  1  0
 14 41  1  0
 15 42  1  0
 16 43  1  0
 17 44  1  0
 18 45  1  0
 19 46  1  0
 20 47  1  0
 21 48  1  0
 24 49  1  0
 24 50  1  0
 25 51  1  0
 25 52  1  0
 28 53  1  0
 29 54  1  0
 30 55  1  0
 33 56  1  0
 33 57  1  0
M  CHG  2   7  -1  34  -1
M  END
>  <UniqueID>  (23) 
21

>  <SMILES>  (23) 
NS(=O)(=O)c1c([N-]S(=O)(=O)C=Cc2ccccc2)cccc1OCCOc1cccc2c1C[N-]C2=O

>  <Energy>  (23) 
92.48639654646296

>  <Genealogy>  (23) 
NS(=O)(=O)c1c([N-]S(=O)(=O)C=Cc2ccccc2)cccc1OCCOc1cccc2c1C[N-]C2=O (protonated)
NS(=O)(=O)c1c([N-]S(=O)(=O)C=Cc2ccccc2)cccc1OCCOc1cccc2c1C[N-]C2=O (3D coordinates assigned)
NS(=O)(=O)c1c([N-]S(=O)(=O)C=Cc2ccccc2)cccc1OCCOc1cccc2c1C[N-]C2=O (nonaromatic ring conformer: 92.48639654646296 kcal/mol)

>  <smiles>  (23) 
NS(=O)(=O)c1c(NS(=O)(=O)C=Cc2ccccc2)cccc1OCCOc1cccc2c1CNC2=O

>  <score_type>  (23) 
oracle

>  <origin>  (23) 
adg

>  <m_score__min__energy>  (23) 
-14.050000000000001

>  <m_primary>  (23) 
energy

$$$$
23:0
     RDKit          3D

 58 62  0  0  1  0  0  0  0  0999 V2000
   63.8290   30.6980   50.7610 N   0  0  0  0  0  0  0  0  0  0  0  0
   65.0890   31.3870   50.8700 C   0  0  0  0  0  0  0  0  0  0  0  0
   65.9850   31.0390   51.8740 C   0  0  0  0  0  0  0  0  0  0  0  0
   67.1970   31.7080   51.9730 C   0  0  0  0  0  0  0  0  0  0  0  0
   67.5460   32.7250   51.0880 C   0  0  0  0  0  0  0  0  0  0  0  0
   66.6290   33.0480   50.0960 C   0  0  0  0  0  0  0  0  0  0  0  0
   65.4230   32.4070   49.9730 C   0  0  0  0  0  0  0  0  0  0  0  0
   64.4690   32.7370   48.9490 N   0  0  0  0  0  0  0  0  0  0  0  0
   63.2160   33.2550   49.3770 C   0  0  0  0  0  0  0  0  0  0  0  0
   63.0650   33.3730   50.6320 O   0  0  0  0  0  0  0  0  0  0  0  0
   62.1620   33.6290   48.4410 C   0  0  0  0  0  0  0  0  0  0  0  0
   62.2550   33.4360   47.0790 C   0  0  0  0  0  0  0  0  0  0  0  0
   61.2110   33.8190   46.2570 C   0  0  0  0  0  0  0  0  0  0  0  0
   60.0530   34.3960   46.7360 C   0  0  0  0  0  0  0  0  0  0  0  0
   58.9290   34.8080   45.8330 C   0  0  0  0  0  0  0  0  0  0  0  0
   57.8720   33.8490   45.8200 N   0  0  0  0  0  0  0  0  0  0  0  0
   57.9730   32.5870   45.6650 C   0  0  0  0  0  0  0  0  0  0  0  0
   57.6170   32.0390   44.4710 C   0  0  0  0  0  0  0  0  0  0  0  0
   57.7310   30.6760   44.3200 C   0  0  0  0  0  0  0  0  0  0  0  0
   58.2030   29.8990   45.3810 C   0  0  0  0  0  0  0  0  0  0  0  0
   58.5500   30.5040   46.5690 C   0  0  0  0  0  0  0  0  0  0  0  0
   59.0390   29.8000   47.6990 N   0  0  0  0  0  0  0  0  0  0  0  0
   59.5140   30.4270   48.7360 C   0  0  0  0  0  0  0  0  0  0  0  0
   58.6860   30.8820   49.7420 C   0  0  0  0  0  0  0  0  0  0  0  0
   59.5340   31.4920   50.6660 C   0  0  0  0  0  0  0  0  0  0  0  0
   59.0590   32.1330   51.9350 C   0  0  0  0  0  0  0  0  0  0  0  0
   58.9500   33.6220   51.8950 C   0  0  0  0  0  0  0  0  0  0  0  0
   57.7170   32.7410   51.9880 C   0  0  0  0  0  0  0  0  0  0  0  0
   60.7940   31.3870   50.2030 N   0  0  0  0  0  0  0  0  0  0  0  0
   60.7820   30.7420   49.0330 N   0  0  0  0  0  0  0  0  0  0  0  0
   58.4310   31.8560   46.7010 N   0  0  0  0  0  0  0  0  0  0  0  0
   59.9880   34.5780   48.1120 C   0  0  0  0  0  0  0  0  0  0  0  0
   61.0170   34.2050   48.9520 C   0  0  0  0  0  0  0  0  0  0  0  0
   62.9190   31.2050   50.7650 H   0  0  0  0  0  0  0  0  0  0  0  0
   63.7810   29.6510   50.6740 H   0  0  0  0  0  0  0  0  0  0  0  0
   65.7351   30.2383   52.5857 H   0  0  0  0  0  0  0  0  0  0  0  0
   67.9001   31.4276   52.7712 H   0  0  0  0  0  0  0  0  0  0  0  0
   68.5085   33.2510   51.1712 H   0  0  0  0  0  0  0  0  0  0  0  0
   66.8794   33.8473   49.3829 H   0  0  0  0  0  0  0  0  0  0  0  0
   64.6790   32.6060   47.9400 H   0  0  0  0  0  0  0  0  0  0  0  0
   63.1574   32.9785   46.6473 H   0  0  0  0  0  0  0  0  0  0  0  0
   61.3081   33.6564   45.1734 H   0  0  0  0  0  0  0  0  0  0  0  0
   58.5293   35.7718   46.1812 H   0  0  0  0  0  0  0  0  0  0  0  0
   59.3273   34.8872   44.8107 H   0  0  0  0  0  0  0  0  0  0  0  0
   57.2479   32.6691   43.6484 H   0  0  0  0  0  0  0  0  0  0  0  0
   57.4518   30.2003   43.3683 H   0  0  0  0  0  0  0  0  0  0  0  0
   58.2971   28.8089   45.2682 H   0  0  0  0  0  0  0  0  0  0  0  0
   57.5920   30.7845   49.8021 H   0  0  0  0  0  0  0  0  0  0  0  0
   59.5637   31.3894   52.5693 H   0  0  0  0  0  0  0  0  0  0  0  0
   59.2671   34.2239   52.7594 H   0  0  0  0  0  0  0  0  0  0  0  0
   59.2983   34.4177   51.2200 H   0  0  0  0  0  0  0  0  0  0  0  0
   57.1338   32.7071   52.9201 H   0  0  0  0  0  0  0  0  0  0  0  0
   56.7903   32.6345   51.4050 H   0  0  0  0  0  0  0  0  0  0  0  0
   61.6340   31.7650   50.7090 H   0  0  0  0  0  0  0  0  0  0  0  0
   61.6210   30.5200   48.4470 H   0  0  0  0  0  0  0  0  0  0  0  0
   58.6920   32.3190   47.5960 H   0  0  0  0  0  0  0  0  0  0  0  0
   59.0862   35.0346   48.5460 H   0  0  0  0  0  0  0  0  0  0  0  0
   60.9240   34.3678   50.0359 H   0  0  0  0  0  0  0  0  0  0  0  0
  1  2  1  0
  2  3  2  0
  3  4  1  0
  4  5  2  0
  5  6  1  0
  6  7  2  0
  7  8  1  0
  8  9  1  0
  9 10  2  0
  9 11  1  0
 11 12  2  0
 12 13  1  0
 13 14  2  0
 14 15  1  0
 15 16  1  0
 16 17  2  0
 17 18  1  0
 18 19  2  0
 19 20  1  0
 20 21  2  0
 21 22  1  0
 22 23  2  0
 23 24  1  0
 24 25  2  0
 25 26  1  0
 26 27  1  0
 27 28  1  0
 25 29  1  0
 29 30  1  0
 21 31  1  0
 14 32  1  0
 32 33  2  0
  7  2  1  0
 33 11  1  0
 31 17  1  0
 30 23  1  0
 28 26  1  0
  1 34  1  0
  1 35  1  0
  3 36  1  0
  4 37  1  0
  5 38  1  0
  6 39  1  0
  8 40  1  0
 12 41  1  0
 13 42  1  0
 15 43  1  0
 15 44  1  0
 18 45  1  0
 19 46  1  0
 20 47  1  0
 24 48  1  0
 26 49  1  0
 27 50  1  0
 27 51  1  0
 28 52  1  0
 28 53  1  0
 29 54  1  0
 30 55  1  0
 31 56  1  0
 32 57  1  0
 33 58  1  0
M  END
>  <smiles>  (24) 
Nc1ccccc1NC(=O)c1ccc(CN=c2cccc(N=c3cc(C4CC4)[nH][nH]3)[nH]2)cc1

>  <score_type>  (24) 
oracle

>  <origin>  (24) 
adg

>  <m_score__min__energy>  (24) 
-9.7300000000000004

>  <m_primary>  (24) 
energy

$$$$
24:0
     RDKit          3D

 43 43  0  0  0  0  0  0  0  0999 V2000
   62.0940   33.4880   46.9240 C   0  0  0  0  0  0  0  0  0  0  0  0
   61.4590   33.8810   48.2610 C   0  0  0  0  0  0  0  0  0  0  0  0
   60.1360   33.2610   48.4370 N   0  0  0  0  0  0  0  0  0  0  0  0
   59.9960   32.1030   49.3370 C   0  0  0  0  0  0  0  0  0  0  0  0
   58.8930   32.3580   50.3650 C   0  0  0  0  0  0  0  0  0  0  0  0
   58.9980   33.7990   47.7220 C   0  0  0  0  0  0  0  0  0  0  0  0
   58.9350   35.0390   47.4870 O   0  0  0  0  0  0  0  0  0  0  0  0
   57.9010   32.9180   47.1850 C   0  0  0  0  0  0  0  0  0  0  0  0
   58.2860   32.3770   45.8760 N   0  0  0  0  0  0  0  0  0  0  0  0
   58.6990   31.0120   45.7510 C   0  0  0  0  0  0  0  0  0  0  0  0
   59.9930   30.6360   46.1490 C   0  0  0  0  0  0  0  0  0  0  0  0
   60.3940   29.3010   46.0570 C   0  0  0  0  0  0  0  0  0  0  0  0
   59.5080   28.3370   45.5740 C   0  0  0  0  0  0  0  0  0  0  0  0
   58.2200   28.7050   45.1700 C   0  0  0  0  0  0  0  0  0  0  0  0
   57.8050   30.0490   45.2540 C   0  0  0  0  0  0  0  0  0  0  0  0
   56.5200   30.4610   44.8580 O   0  0  0  0  0  0  0  0  0  0  0  0
   55.8680   30.0390   43.6650 C   0  0  0  0  0  0  0  0  0  0  0  0
   58.2420   33.3850   44.4610 S   0  0  0  0  0  0  0  0  0  0  0  0
   58.1340   32.3860   42.9870 C   0  0  0  0  0  0  0  0  0  0  0  0
   59.4950   34.2160   44.3830 O   0  0  0  0  0  0  0  0  0  0  0  0
   57.0540   34.3010   44.5450 O   0  0  0  0  0  0  0  0  0  0  0  0
   63.0159   32.9174   47.1096 H   0  0  0  0  0  0  0  0  0  0  0  0
   61.3884   32.8684   46.3510 H   0  0  0  0  0  0  0  0  0  0  0  0
   62.3337   34.3959   46.3510 H   0  0  0  0  0  0  0  0  0  0  0  0
   62.1179   33.5537   49.0787 H   0  0  0  0  0  0  0  0  0  0  0  0
   61.3306   34.9734   48.2723 H   0  0  0  0  0  0  0  0  0  0  0  0
   59.7405   31.2121   48.7445 H   0  0  0  0  0  0  0  0  0  0  0  0
   60.9474   31.9447   49.8659 H   0  0  0  0  0  0  0  0  0  0  0  0
   59.3078   32.2621   51.3793 H   0  0  0  0  0  0  0  0  0  0  0  0
   58.4912   33.3727   50.2276 H   0  0  0  0  0  0  0  0  0  0  0  0
   58.0866   31.6226   50.2276 H   0  0  0  0  0  0  0  0  0  0  0  0
   57.7254   32.0877   47.8848 H   0  0  0  0  0  0  0  0  0  0  0  0
   56.9826   33.5130   47.0734 H   0  0  0  0  0  0  0  0  0  0  0  0
   60.6913   31.3939   46.5336 H   0  0  0  0  0  0  0  0  0  0  0  0
   61.4088   29.0094   46.3655 H   0  0  0  0  0  0  0  0  0  0  0  0
   59.8231   27.2850   45.5108 H   0  0  0  0  0  0  0  0  0  0  0  0
   57.5280   27.9415   44.7850 H   0  0  0  0  0  0  0  0  0  0  0  0
   54.9704   29.4580   43.9235 H   0  0  0  0  0  0  0  0  0  0  0  0
   55.5769   30.9204   43.0748 H   0  0  0  0  0  0  0  0  0  0  0  0
   56.5529   29.4124   43.0748 H   0  0  0  0  0  0  0  0  0  0  0  0
   58.0197   31.3287   43.2682 H   0  0  0  0  0  0  0  0  0  0  0  0
   57.2649   32.7032   42.3920 H   0  0  0  0  0  0  0  0  0  0  0  0
   59.0508   32.5101   42.3920 H   0  0  0  0  0  0  0  0  0  0  0  0
  1  2  1  0
  2  3  1  0
  3  4  1  0
  4  5  1  0
  3  6  1  0
  6  7  2  0
  6  8  1  0
  8  9  1  0
  9 10  1  0
 10 11  2  0
 11 12  1  0
 12 13  2  0
 13 14  1  0
 14 15  2  0
 15 16  1  0
 16 17  1  0
  9 18  1  0
 18 19  1  0
 18 20  2  0
 18 21  2  0
 15 10  1  0
  1 22  1  0
  1 23  1  0
  1 24  1  0
  2 25  1  0
  2 26  1  0
  4 27  1  0
  4 28  1  0
  5 29  1  0
  5 30  1  0
  5 31  1  0
  8 32  1  0
  8 33  1  0
 11 34  1  0
 12 35  1  0
 13 36  1  0
 14 37  1  0
 17 38  1  0
 17 39  1  0
 17 40  1  0
 19 41  1  0
 19 42  1  0
 19 43  1  0
M  END
>  <UniqueID>  (25) 
22

>  <SMILES>  (25) 
CCN(CC)C(=O)CN(c1ccccc1OC)S(C)(=O)=O

>  <Energy>  (25) 
36.548656701671916

>  <Genealogy>  (25) 
CCN(CC)C(=O)CN(c1ccccc1OC)S(C)(=O)=O (3D coordinates assigned)
CCN(CC)C(=O)CN(c1ccccc1OC)S(C)(=O)=O (optimized conformer: 36.548656701671916 kcal/mol)

>  <smiles>  (25) 
CCN(CC)C(=O)CN(c1ccccc1OC)S(C)(=O)=O

>  <score_type>  (25) 
oracle

>  <origin>  (25) 
adg

>  <m_score__min__energy>  (25) 
-6.3099999999999996

>  <m_primary>  (25) 
energy

$$$$
25:0
     RDKit          3D

 61 63  0  0  0  0  0  0  0  0999 V2000
   56.2060   29.6890   42.6160 C   0  0  0  0  0  0  0  0  0  0  0  0
   56.4890   29.9330   44.0660 C   0  0  0  0  0  0  0  0  0  0  0  0
   55.5340   29.9220   44.8860 O   0  0  0  0  0  0  0  0  0  0  0  0
   57.8090   30.2270   44.5420 N   0  0  0  0  0  0  0  0  0  0  0  0
   58.1710   31.2550   45.4780 C   0  0  0  0  0  0  0  0  0  0  0  0
   58.1170   32.6070   45.1060 C   0  0  0  0  0  0  0  0  0  0  0  0
   58.4740   33.6070   46.0100 C   0  0  0  0  0  0  0  0  0  0  0  0
   58.8930   33.2740   47.3050 C   0  0  0  0  0  0  0  0  0  0  0  0
   59.2680   34.3540   48.2860 C   0  0  0  0  0  0  0  0  0  0  0  0
   60.5810   34.8530   48.0200 O   0  0  0  0  0  0  0  0  0  0  0  0
   61.7630   34.0980   48.0790 C   0  0  0  0  0  0  0  0  0  0  0  0
   62.2100   33.3030   47.0070 C   0  0  0  0  0  0  0  0  0  0  0  0
   63.4010   32.5830   47.1160 C   0  0  0  0  0  0  0  0  0  0  0  0
   64.1520   32.6420   48.2910 C   0  0  0  0  0  0  0  0  0  0  0  0
   63.7220   33.4230   49.3750 C   0  0  0  0  0  0  0  0  0  0  0  0
   64.5220   33.4560   50.5720 N   0  0  0  0  0  0  0  0  0  0  0  0
   66.0110   32.5900   50.7920 S   0  0  0  0  0  0  0  0  0  0  0  0
   66.6810   32.9140   52.4130 C   0  0  0  0  0  0  0  0  0  0  0  0
   65.7830   31.1170   50.6000 O   0  0  0  0  0  0  0  0  0  0  0  0
   67.0020   33.0590   49.7640 O   0  0  0  0  0  0  0  0  0  0  0  0
   62.5190   34.1460   49.2570 C   0  0  0  0  0  0  0  0  0  0  0  0
   58.9940   31.9240   47.6670 C   0  0  0  0  0  0  0  0  0  0  0  0
   58.6580   30.9060   46.7580 C   0  0  0  0  0  0  0  0  0  0  0  0
   58.7700   29.4630   47.1990 C   0  0  0  0  0  0  0  0  0  0  0  0
   57.7910   28.6250   46.5040 N   0  0  0  0  0  0  0  0  0  0  0  0
   57.9540   27.2120   46.2640 C   0  0  0  0  0  0  0  0  0  0  0  0
   59.2240   26.6030   46.2790 C   0  0  0  0  0  0  0  0  0  0  0  0
   59.3540   25.2280   46.0630 C   0  0  0  0  0  0  0  0  0  0  0  0
   58.2230   24.4400   45.8300 C   0  0  0  0  0  0  0  0  0  0  0  0
   58.3950   22.7090   45.5590 S   0  0  0  0  0  0  0  0  0  0  0  0
   57.6030   22.2700   44.0270 C   0  0  0  0  0  0  0  0  0  0  0  0
   57.7590   21.9480   46.6890 O   0  0  0  0  0  0  0  0  0  0  0  0
   59.8520   22.3500   45.4940 O   0  0  0  0  0  0  0  0  0  0  0  0
   56.9590   25.0400   45.7940 C   0  0  0  0  0  0  0  0  0  0  0  0
   56.8230   26.4160   46.0100 C   0  0  0  0  0  0  0  0  0  0  0  0
   55.5840   26.9700   45.9780 F   0  0  0  0  0  0  0  0  0  0  0  0
   55.3761   28.9735   42.5197 H   0  0  0  0  0  0  0  0  0  0  0  0
   55.9305   30.6374   42.1315 H   0  0  0  0  0  0  0  0  0  0  0  0
   57.1035   29.2769   42.1315 H   0  0  0  0  0  0  0  0  0  0  0  0
   57.7900   32.8805   44.0920 H   0  0  0  0  0  0  0  0  0  0  0  0
   58.4264   34.6628   45.7049 H   0  0  0  0  0  0  0  0  0  0  0  0
   58.5459   35.1799   48.2054 H   0  0  0  0  0  0  0  0  0  0  0  0
   59.2534   33.9276   49.2999 H   0  0  0  0  0  0  0  0  0  0  0  0
   61.6192   33.2489   46.0807 H   0  0  0  0  0  0  0  0  0  0  0  0
   63.7487   31.9673   46.2733 H   0  0  0  0  0  0  0  0  0  0  0  0
   65.0892   32.0713   48.3681 H   0  0  0  0  0  0  0  0  0  0  0  0
   64.1920   34.0300   51.3800 H   0  0  0  0  0  0  0  0  0  0  0  0
   65.9702   32.5703   53.1789 H   0  0  0  0  0  0  0  0  0  0  0  0
   67.6340   32.3772   52.5299 H   0  0  0  0  0  0  0  0  0  0  0  0
   66.8520   33.9943   52.5299 H   0  0  0  0  0  0  0  0  0  0  0  0
   62.1683   34.7569   50.1019 H   0  0  0  0  0  0  0  0  0  0  0  0
   59.3409   31.6574   48.6762 H   0  0  0  0  0  0  0  0  0  0  0  0
   59.7822   29.0956   46.9742 H   0  0  0  0  0  0  0  0  0  0  0  0
   58.5723   29.4103   48.2798 H   0  0  0  0  0  0  0  0  0  0  0  0
   56.9020   29.0860   46.2070 H   0  0  0  0  0  0  0  0  0  0  0  0
   60.1202   27.2140   46.4621 H   0  0  0  0  0  0  0  0  0  0  0  0
   60.3511   24.7638   46.0764 H   0  0  0  0  0  0  0  0  0  0  0  0
   56.6590   21.7467   44.2391 H   0  0  0  0  0  0  0  0  0  0  0  0
   57.3948   23.1815   43.4475 H   0  0  0  0  0  0  0  0  0  0  0  0
   58.2657   21.6104   43.4475 H   0  0  0  0  0  0  0  0  0  0  0  0
   56.0678   24.4268   45.5949 H   0  0  0  0  0  0  0  0  0  0  0  0
  1  2  1  0
  2  3  2  0
  2  4  1  0
  4  5  1  0
  5  6  2  0
  6  7  1  0
  7  8  2  0
  8  9  1  0
  9 10  1  0
 10 11  1  0
 11 12  2  0
 12 13  1  0
 13 14  2  0
 14 15  1  0
 15 16  1  0
 16 17  1  0
 17 18  1  0
 17 19  2  0
 17 20  2  0
 15 21  2  0
  8 22  1  0
 22 23  2  0
 23 24  1  0
 24 25  1  0
 25 26  1  0
 26 27  2  0
 27 28  1  0
 28 29  2  0
 29 30  1  0
 30 31  1  0
 30 32  2  0
 30 33  2  0
 29 34  1  0
 34 35  2  0
 35 36  1  0
 23  5  1  0
 35 26  1  0
 21 11  1  0
  1 37  1  0
  1 38  1  0
  1 39  1  0
  6 40  1  0
  7 41  1  0
  9 42  1  0
  9 43  1  0
 12 44  1  0
 13 45  1  0
 14 46  1  0
 16 47  1  0
 18 48  1  0
 18 49  1  0
 18 50  1  0
 21 51  1  0
 22 52  1  0
 24 53  1  0
 24 54  1  0
 25 55  1  0
 27 56  1  0
 28 57  1  0
 31 58  1  0
 31 59  1  0
 31 60  1  0
 34 61  1  0
M  CHG  1   4  -1
M  END
>  <UniqueID>  (26) 
23

>  <SMILES>  (26) 
CC(=O)[N-]c1ccc(COc2cccc(NS(C)(=O)=O)c2)cc1CNc1ccc(S(C)(=O)=O)cc1F

>  <Energy>  (26) 
62.49913496895178

>  <Genealogy>  (26) 
CC(=O)[N-]c1ccc(COc2cccc(NS(C)(=O)=O)c2)cc1CNc1ccc(S(C)(=O)=O)cc1F (protonated)
CC(=O)[N-]c1ccc(COc2cccc(NS(C)(=O)=O)c2)cc1CNc1ccc(S(C)(=O)=O)cc1F (3D coordinates assigned)
CC(=O)[N-]c1ccc(COc2cccc(NS(C)(=O)=O)c2)cc1CNc1ccc(S(C)(=O)=O)cc1F (optimized conformer: 62.49913496895178 kcal/mol)

>  <smiles>  (26) 
CC(=O)Nc1ccc(COc2cccc(NS(C)(=O)=O)c2)cc1CNc1ccc(S(C)(=O)=O)cc1F

>  <score_type>  (26) 
oracle

>  <origin>  (26) 
adg

>  <m_score__min__energy>  (26) 
-11.84

>  <m_primary>  (26) 
energy

$$$$
26:0
     RDKit          3D

 33 34  0  0  0  0  0  0  0  0999 V2000
   58.1440   27.2770   42.9820 C   0  0  0  0  0  0  0  0  0  0  0  0
   57.8070   26.7130   44.3340 C   0  0  0  0  0  0  0  0  0  0  0  0
   57.7700   25.3180   44.5120 C   0  0  0  0  0  0  0  0  0  0  0  0
   57.4560   24.7710   45.7560 C   0  0  0  0  0  0  0  0  0  0  0  0
   57.1650   25.6050   46.8350 C   0  0  0  0  0  0  0  0  0  0  0  0
   57.1870   26.9910   46.6730 C   0  0  0  0  0  0  0  0  0  0  0  0
   57.5160   27.5610   45.4290 C   0  0  0  0  0  0  0  0  0  0  0  0
   57.4980   28.9910   45.2600 N   0  0  0  0  0  0  0  0  0  0  0  0
   56.3350   29.7280   44.8620 C   0  0  0  0  0  0  0  0  0  0  0  0
   55.2030   29.1720   44.8310 O   0  0  0  0  0  0  0  0  0  0  0  0
   56.4630   31.1160   44.5340 N   0  0  0  0  0  0  0  0  0  0  0  0
   57.6970   31.7180   44.0400 C   0  0  0  0  0  0  0  0  0  0  0  0
   58.1980   32.7530   45.0100 C   0  0  0  0  0  0  0  0  0  0  0  0
   58.8120   33.9230   44.5330 C   0  0  0  0  0  0  0  0  0  0  0  0
   59.2580   34.8990   45.4290 C   0  0  0  0  0  0  0  0  0  0  0  0
   59.0920   34.7160   46.8040 C   0  0  0  0  0  0  0  0  0  0  0  0
   58.4760   33.5580   47.2860 C   0  0  0  0  0  0  0  0  0  0  0  0
   58.0280   32.5790   46.3940 C   0  0  0  0  0  0  0  0  0  0  0  0
   58.7047   28.2153   43.1055 H   0  0  0  0  0  0  0  0  0  0  0  0
   58.7580   26.5535   42.4256 H   0  0  0  0  0  0  0  0  0  0  0  0
   57.2160   27.4749   42.4256 H   0  0  0  0  0  0  0  0  0  0  0  0
   57.9904   24.6535   43.6635 H   0  0  0  0  0  0  0  0  0  0  0  0
   57.4379   23.6789   45.8863 H   0  0  0  0  0  0  0  0  0  0  0  0
   56.9179   25.1701   47.8147 H   0  0  0  0  0  0  0  0  0  0  0  0
   56.9451   27.6435   47.5249 H   0  0  0  0  0  0  0  0  0  0  0  0
   58.3620   29.5360   45.4790 H   0  0  0  0  0  0  0  0  0  0  0  0
   58.4598   30.9347   43.9191 H   0  0  0  0  0  0  0  0  0  0  0  0
   57.4968   32.2017   43.0725 H   0  0  0  0  0  0  0  0  0  0  0  0
   58.9423   34.0717   43.4509 H   0  0  0  0  0  0  0  0  0  0  0  0
   59.7404   35.8124   45.0508 H   0  0  0  0  0  0  0  0  0  0  0  0
   59.4463   35.4838   47.5075 H   0  0  0  0  0  0  0  0  0  0  0  0
   58.3434   33.4165   48.3688 H   0  0  0  0  0  0  0  0  0  0  0  0
   57.5410   31.6699   46.7767 H   0  0  0  0  0  0  0  0  0  0  0  0
  1  2  1  0
  2  3  2  0
  3  4  1  0
  4  5  2  0
  5  6  1  0
  6  7  2  0
  7  8  1  0
  8  9  1  0
  9 10  2  0
  9 11  1  0
 11 12  1  0
 12 13  1  0
 13 14  2  0
 14 15  1  0
 15 16  2  0
 16 17  1  0
 17 18  2  0
  7  2  1  0
 18 13  1  0
  1 19  1  0
  1 20  1  0
  1 21  1  0
  3 22  1  0
  4 23  1  0
  5 24  1  0
  6 25  1  0
  8 26  1  0
 12 27  1  0
 12 28  1  0
 14 29  1  0
 15 30  1  0
 16 31  1  0
 17 32  1  0
 18 33  1  0
M  CHG  1  11  -1
M  END
>  <UniqueID>  (27) 
24

>  <SMILES>  (27) 
Cc1ccccc1NC(=O)[N-]Cc1ccccc1

>  <Energy>  (27) 
34.663980793572605

>  <Genealogy>  (27) 
Cc1ccccc1NC(=O)[N-]Cc1ccccc1 (protonated)
Cc1ccccc1NC(=O)[N-]Cc1ccccc1 (3D coordinates assigned)
Cc1ccccc1NC(=O)[N-]Cc1ccccc1 (optimized conformer: 34.663980793572605 kcal/mol)

>  <smiles>  (27) 
Cc1ccccc1NC(=O)NCc1ccccc1

>  <score_type>  (27) 
oracle

>  <origin>  (27) 
adg

>  <m_score__min__energy>  (27) 
-8.7300000000000004

>  <m_primary>  (27) 
energy

$$$$
27:0
     RDKit          3D

 43 45  0  0  0  0  0  0  0  0999 V2000
   56.7912   30.8220   43.3932 H   0  0  0  0  0  0  0  0  0  0  0  0
   57.3030   31.3520   44.2100 C   0  0  0  0  0  0  0  0  0  0  0  0
   57.8060   30.5380   45.3360 C   0  0  0  0  0  0  0  0  0  0  0  0
   57.1650   29.4950   45.6420 O   0  0  0  0  0  0  0  0  0  0  0  0
   59.0940   30.8180   45.9470 N   0  0  2  0  0  0  0  0  0  0  0  0
   59.4780   31.6770   45.4900 H   0  0  0  0  0  0  0  0  0  0  0  0
   60.0550   29.7380   45.6260 C   0  0  0  0  0  0  0  0  0  0  0  0
   60.0090   29.5399   44.5450 H   0  0  0  0  0  0  0  0  0  0  0  0
   61.0502   30.0834   45.9427 H   0  0  0  0  0  0  0  0  0  0  0  0
   59.7690   28.4240   46.3760 C   0  0  0  0  0  0  0  0  0  0  0  0
   59.0241   27.8516   45.8037 H   0  0  0  0  0  0  0  0  0  0  0  0
   60.7259   27.8892   46.4678 H   0  0  0  0  0  0  0  0  0  0  0  0
   59.2310   28.6350   47.8000 C   0  0  0  0  0  0  0  0  0  0  0  0
   58.1394   28.4998   47.7871 H   0  0  0  0  0  0  0  0  0  0  0  0
   59.7249   27.9006   48.4533 H   0  0  0  0  0  0  0  0  0  0  0  0
   59.5460   30.0320   48.3530 C   0  0  1  0  0  0  0  0  0  0  0  0
   59.0535   30.1388   49.3308 H   0  0  0  0  0  0  0  0  0  0  0  0
   60.9930   30.2020   48.5670 N   0  0  0  0  0  0  0  0  0  0  0  0
   61.5520   29.3780   48.8850 H   0  0  0  0  0  0  0  0  0  0  0  0
   61.7100   31.4350   48.3540 C   0  0  0  0  0  0  0  0  0  0  0  0
   61.4270   32.6050   49.0890 C   0  0  0  0  0  0  0  0  0  0  0  0
   60.6421   32.5903   49.8595 H   0  0  0  0  0  0  0  0  0  0  0  0
   62.1380   33.7830   48.8440 C   0  0  0  0  0  0  0  0  0  0  0  0
   61.9134   34.6899   49.4246 H   0  0  0  0  0  0  0  0  0  0  0  0
   63.1330   33.8120   47.8640 C   0  0  0  0  0  0  0  0  0  0  0  0
   63.6926   34.7401   47.6755 H   0  0  0  0  0  0  0  0  0  0  0  0
   63.4170   32.6630   47.1240 C   0  0  0  0  0  0  0  0  0  0  0  0
   64.1990   32.6865   46.3508 H   0  0  0  0  0  0  0  0  0  0  0  0
   62.7080   31.4820   47.3650 C   0  0  0  0  0  0  0  0  0  0  0  0
   62.9333   30.5813   46.7751 H   0  0  0  0  0  0  0  0  0  0  0  0
   58.9850   31.1250   47.4050 C   0  0  0  0  0  0  0  0  0  0  0  0
   57.9210   31.2696   47.6439 H   0  0  0  0  0  0  0  0  0  0  0  0
   59.5988   32.0218   47.5753 H   0  0  0  0  0  0  0  0  0  0  0  0
   57.4190   32.6830   44.1020 C   0  0  0  0  0  0  0  0  0  0  0  0
   56.9511   33.1606   43.2285 H   0  0  0  0  0  0  0  0  0  0  0  0
   58.1220   33.5610   45.0570 C   0  0  0  0  0  0  0  0  0  0  0  0
   59.6450   34.2560   44.8590 S   0  0  0  0  0  0  0  0  0  0  0  0
   59.7460   34.9300   46.3950 C   0  0  0  0  0  0  0  0  0  0  0  0
   60.5806   35.5339   46.7808 H   0  0  0  0  0  0  0  0  0  0  0  0
   58.5940   34.5930   47.0930 C   0  0  0  0  0  0  0  0  0  0  0  0
   58.4061   34.9065   48.1305 H   0  0  0  0  0  0  0  0  0  0  0  0
   57.6940   33.8170   46.3530 C   0  0  0  0  0  0  0  0  0  0  0  0
   56.7410   33.4463   46.7585 H   0  0  0  0  0  0  0  0  0  0  0  0
  1  2  1  0
  2  3  1  0
  3  4  2  0
  3  5  1  0
  5  6  1  6
  5  7  1  0
  7  8  1  0
  7  9  1  0
  7 10  1  0
 10 11  1  0
 10 12  1  0
 10 13  1  0
 13 14  1  0
 13 15  1  0
 13 16  1  0
 16 17  1  1
 16 18  1  0
 18 19  1  0
 18 20  1  0
 20 21  2  0
 21 22  1  0
 21 23  1  0
 23 24  1  0
 23 25  2  0
 25 26  1  0
 25 27  1  0
 27 28  1  0
 27 29  2  0
 29 30  1  0
 16 31  1  0
 31 32  1  0
 31 33  1  0
  2 34  2  0
 34 35  1  0
 34 36  1  0
 36 37  1  0
 37 38  1  0
 38 39  1  0
 38 40  2  0
 40 41  1  0
 40 42  1  0
 42 43  1  0
 31  5  1  0
 42 36  2  0
 29 20  1  0
M  CHG  1   5   1
M  END
>  <UniqueID>  (28) 
25

>  <SMILES>  (28) 
O=C(/C=C\c1cccs1)[N@@H+]1CCC[C@@H](Nc2ccccc2)C1

>  <Energy>  (28) 
91.46030182587118

>  <Genealogy>  (28) 
O=C(C=Cc1cccs1)[NH+]1CCCC(Nc2ccccc2)C1 (protonated)
O=C(C=Cc1cccs1)[N@@H+]1CCC[C@@H](Nc2ccccc2)C1 (chirality)
O=C(/C=C\c1cccs1)[N@@H+]1CCC[C@@H](Nc2ccccc2)C1 (cis-trans isomerization)
O=C(/C=C\c1cccs1)[N@@H+]1CCC[C@@H](Nc2ccccc2)C1 (3D coordinates assigned)
O=C(/C=C\c1cccs1)[N@@H+]1CCC[C@@H](Nc2ccccc2)C1 (nonaromatic ring conformer: 91.46030182587118 kcal/mol)

>  <smiles>  (28) 
O=C(C=Cc1cccs1)N1CCCC(Nc2ccccc2)C1

>  <score_type>  (28) 
oracle

>  <origin>  (28) 
adg

>  <m_score__min__energy>  (28) 
-6.5099999999999998

>  <m_primary>  (28) 
energy

$$$$
28:0
     RDKit          3D

 36 38  0  0  0  0  0  0  0  0999 V2000
   56.0283   31.0912   43.6113 H   0  0  0  0  0  0  0  0  0  0  0  0
   56.6610   30.8160   44.4680 C   0  0  0  0  0  0  0  0  0  0  0  0
   56.8040   29.5100   44.8080 N   0  0  0  0  0  0  0  0  0  0  0  0
   57.5660   29.1170   45.8610 C   0  0  0  0  0  0  0  0  0  0  0  0
   58.7510   32.3790   46.9670 N   0  0  0  0  0  0  0  0  0  0  0  0
   58.1260   31.4490   46.2950 C   0  0  0  0  0  0  0  0  0  0  0  0
   57.3140   31.8170   45.2010 C   0  0  0  0  0  0  0  0  0  0  0  0
   58.9430   29.7647   47.4108 H   0  0  0  0  0  0  0  0  0  0  0  0
   55.6050   24.9890   46.1810 C   0  0  0  0  0  0  0  0  0  0  0  0
   55.1400   23.6000   46.4660 C   0  0  0  0  0  0  0  0  0  0  0  0
   55.0886   23.4465   47.5540 H   0  0  0  0  0  0  0  0  0  0  0  0
   54.1426   23.4499   46.0270 H   0  0  0  0  0  0  0  0  0  0  0  0
   55.8460   22.8797   46.0270 H   0  0  0  0  0  0  0  0  0  0  0  0
   54.7930   25.9830   45.7650 N   0  0  0  0  0  0  0  0  0  0  0  0
   55.5210   27.0860   45.6900 N   0  0  0  0  0  0  0  0  0  0  0  0
   55.1480   28.0170   45.3970 H   0  0  0  0  0  0  0  0  0  0  0  0
   56.8820   25.4710   46.4020 C   0  0  0  0  0  0  0  0  0  0  0  0
   57.7648   24.9237   46.7640 H   0  0  0  0  0  0  0  0  0  0  0  0
   56.7820   26.8080   46.0580 C   0  0  0  0  0  0  0  0  0  0  0  0
   57.7170   27.7130   46.1220 N   0  0  0  0  0  0  0  0  0  0  0  0
   60.1100   32.3590   47.4310 C   0  0  0  0  0  0  0  0  0  0  0  0
   61.0170   33.3030   46.9330 C   0  0  0  0  0  0  0  0  0  0  0  0
   60.6923   34.0251   46.1694 H   0  0  0  0  0  0  0  0  0  0  0  0
   62.3340   33.3310   47.4030 C   0  0  0  0  0  0  0  0  0  0  0  0
   63.0473   34.0619   46.9944 H   0  0  0  0  0  0  0  0  0  0  0  0
   62.7460   32.4310   48.3920 C   0  0  0  0  0  0  0  0  0  0  0  0
   64.3980   32.4680   48.9810 Cl  0  0  0  0  0  0  0  0  0  0  0  0
   61.8340   31.5100   48.9200 C   0  0  0  0  0  0  0  0  0  0  0  0
   62.1536   30.8077   49.7040 H   0  0  0  0  0  0  0  0  0  0  0  0
   60.5180   31.4820   48.4520 C   0  0  0  0  0  0  0  0  0  0  0  0
   59.7980   30.7712   48.8838 H   0  0  0  0  0  0  0  0  0  0  0  0
   58.2730   30.0790   46.5970 C   0  0  0  0  0  0  0  0  0  0  0  0
   57.1440   33.2630   44.8150 C   0  0  0  0  0  0  0  0  0  0  0  0
   57.0716   33.8789   45.7235 H   0  0  0  0  0  0  0  0  0  0  0  0
   58.0101   33.5879   44.2198 H   0  0  0  0  0  0  0  0  0  0  0  0
   56.2261   33.3782   44.2198 H   0  0  0  0  0  0  0  0  0  0  0  0
  1  2  1  0
  2  3  1  0
  3  4  1  0
  4  5  1  0
  5  6  2  0
  6  7  1  0
  7  8  1  0
  7  9  2  0
  9 10  1  0
 10 11  1  0
 10 12  1  0
 10 13  1  0
  9 14  1  0
 14 15  1  0
 15 16  1  0
  4 17  2  0
 17 18  1  0
 17 19  1  0
 19 20  2  0
 20 21  1  0
 21 22  2  0
 22 23  1  0
 22 24  1  0
 24 25  1  0
 24 26  2  0
 26 27  1  0
 26 28  1  0
 28 29  1  0
 28 30  2  0
 30 31  1  0
 19 32  1  0
 32 33  1  0
 33 34  1  0
 33 35  1  0
 33 36  1  0
 32  2  2  0
 15  6  1  0
 30 21  1  0
M  CHG  2   3  -1  14  -1
M  END
>  <UniqueID>  (29) 
26

>  <SMILES>  (29) 
Cc1c/c(=N\c2c/c(=N\c3ccc(Cl)cc3)c(C)c[n-]2)[nH][n-]1

>  <Energy>  (29) 
84.615917878114

>  <Genealogy>  (29) 
Cc1cc(=Nc2cc(=Nc3ccc(Cl)cc3)c(C)c[n-]2)[nH][n-]1 (protonated)
Cc1c/c(=N\c2c/c(=N\c3ccc(Cl)cc3)c(C)c[n-]2)[nH][n-]1 (cis-trans isomerization)
Cc1c/c(=N\c2c/c(=N\c3ccc(Cl)cc3)c(C)c[n-]2)[nH][n-]1 (3D coordinates assigned)
Cc1c/c(=N\c2c/c(=N\c3ccc(Cl)cc3)c(C)c[n-]2)[nH][n-]1 (optimized conformer: 84.615917878114 kcal/mol)

>  <smiles>  (29) 
Cc1cc(=Nc2cc(=Nc3ccc(Cl)cc3)c(C)c[nH]2)[nH][nH]1

>  <score_type>  (29) 
oracle

>  <origin>  (29) 
adg

>  <m_score__min__energy>  (29) 
-11.83

>  <m_primary>  (29) 
energy

$$$$
29:0
     RDKit          3D

 56 60  0  0  0  0  0  0  0  0999 V2000
   54.8280   26.3420   45.9930 N   0  0  0  0  0  0  0  0  0  0  0  0
   56.2580   25.3700   46.0200 S   0  0  0  0  0  0  0  0  0  0  0  0
   56.3160   24.5830   47.3010 O   0  0  0  0  0  0  0  0  0  0  0  0
   56.2310   24.4090   44.8620 O   0  0  0  0  0  0  0  0  0  0  0  0
   57.6730   26.4100   45.8930 C   0  0  0  0  0  0  0  0  0  0  0  0
   58.9540   25.8840   46.0800 C   0  0  0  0  0  0  0  0  0  0  0  0
   60.0720   26.7110   45.9670 C   0  0  0  0  0  0  0  0  0  0  0  0
   59.9210   28.0670   45.6780 C   0  0  0  0  0  0  0  0  0  0  0  0
   58.6370   28.6180   45.4980 C   0  0  0  0  0  0  0  0  0  0  0  0
   58.4500   30.0480   45.1340 C   0  0  0  0  0  0  0  0  0  0  0  0
   58.0610   30.4580   43.8330 C   0  0  0  0  0  0  0  0  0  0  0  0
   57.8790   31.8220   43.5510 C   0  0  0  0  0  0  0  0  0  0  0  0
   58.0910   32.7270   44.5850 C   0  0  0  0  0  0  0  0  0  0  0  0
   58.0090   34.0690   44.5090 N   0  0  0  0  0  0  0  0  0  0  0  0
   58.3430   34.4770   45.7600 C   0  0  0  0  0  0  0  0  0  0  0  0
   58.6190   33.3770   46.5680 C   0  0  0  0  0  0  0  0  0  0  0  0
   59.0390   33.3920   47.9950 C   0  0  0  0  0  0  0  0  0  0  0  0
   59.9270   34.3750   48.4630 C   0  0  0  0  0  0  0  0  0  0  0  0
   60.3550   34.3660   49.7940 C   0  0  0  0  0  0  0  0  0  0  0  0
   59.9000   33.3810   50.6730 C   0  0  0  0  0  0  0  0  0  0  0  0
   58.9870   32.4100   50.2380 C   0  0  0  0  0  0  0  0  0  0  0  0
   58.5610   31.3760   51.1430 N   0  0  0  0  0  0  0  0  0  0  0  0
   57.2620   31.3410   51.7460 C   0  0  0  0  0  0  0  0  0  0  0  0
   56.6830   32.4160   52.0690 O   0  0  0  0  0  0  0  0  0  0  0  0
   56.6610   30.0780   52.0510 N   0  0  0  0  0  0  0  0  0  0  0  0
   55.2720   29.8710   52.3540 C   0  0  0  0  0  0  0  0  0  0  0  0
   54.8580   29.0070   53.3840 C   0  0  0  0  0  0  0  0  0  0  0  0
   53.5020   28.8830   53.6930 C   0  0  0  0  0  0  0  0  0  0  0  0
   52.5490   29.6210   52.9870 C   0  0  0  0  0  0  0  0  0  0  0  0
   52.9440   30.4840   51.9480 C   0  0  0  0  0  0  0  0  0  0  0  0
   51.9220   31.3350   51.2390 C   0  0  0  0  0  0  0  0  0  0  0  0
   51.5400   30.7030   50.0680 F   0  0  0  0  0  0  0  0  0  0  0  0
   52.4530   32.5800   50.9290 F   0  0  0  0  0  0  0  0  0  0  0  0
   50.8030   31.5290   52.0370 F   0  0  0  0  0  0  0  0  0  0  0  0
   54.3130   30.6240   51.6630 C   0  0  0  0  0  0  0  0  0  0  0  0
   58.5620   32.4250   48.8970 C   0  0  0  0  0  0  0  0  0  0  0  0
   58.4520   32.2900   45.7960 N   0  0  0  0  0  0  0  0  0  0  0  0
   58.6550   31.0050   46.0860 N   0  0  0  0  0  0  0  0  0  0  0  0
   57.5170   27.7730   45.6080 C   0  0  0  0  0  0  0  0  0  0  0  0
   55.1320   27.3360   46.0860 H   0  0  0  0  0  0  0  0  0  0  0  0
   59.0810   24.8173   46.3164 H   0  0  0  0  0  0  0  0  0  0  0  0
   61.0789   26.2908   46.1067 H   0  0  0  0  0  0  0  0  0  0  0  0
   60.8093   28.7098   45.5901 H   0  0  0  0  0  0  0  0  0  0  0  0
   57.9018   29.7076   43.0447 H   0  0  0  0  0  0  0  0  0  0  0  0
   57.5796   32.1618   42.5485 H   0  0  0  0  0  0  0  0  0  0  0  0
   58.3890   35.5259   46.0882 H   0  0  0  0  0  0  0  0  0  0  0  0
   60.2877   35.1565   47.7781 H   0  0  0  0  0  0  0  0  0  0  0  0
   61.0530   35.1380   50.1502 H   0  0  0  0  0  0  0  0  0  0  0  0
   60.2599   33.3668   51.7124 H   0  0  0  0  0  0  0  0  0  0  0  0
   59.1940   30.5570   51.2950 H   0  0  0  0  0  0  0  0  0  0  0  0
   55.6043   28.4277   53.9474 H   0  0  0  0  0  0  0  0  0  0  0  0
   53.1830   28.2016   54.4954 H   0  0  0  0  0  0  0  0  0  0  0  0
   51.4837   29.5270   53.2447 H   0  0  0  0  0  0  0  0  0  0  0  0
   54.6361   31.3339   50.8874 H   0  0  0  0  0  0  0  0  0  0  0  0
   57.8445   31.6675   48.5485 H   0  0  0  0  0  0  0  0  0  0  0  0
   56.5076   28.1873   45.4687 H   0  0  0  0  0  0  0  0  0  0  0  0
  1  2  1  0
  2  3  2  0
  2  4  2  0
  2  5  1  0
  5  6  2  0
  6  7  1  0
  7  8  2  0
  8  9  1  0
  9 10  1  0
 10 11  1  0
 11 12  2  0
 12 13  1  0
 13 14  2  0
 14 15  1  0
 15 16  2  0
 16 17  1  0
 17 18  2  0
 18 19  1  0
 19 20  2  0
 20 21  1  0
 21 22  1  0
 22 23  1  0
 23 24  2  0
 23 25  1  0
 25 26  1  0
 26 27  2  0
 27 28  1  0
 28 29  2  0
 29 30  1  0
 30 31  1  0
 31 32  1  0
 31 33  1  0
 31 34  1  0
 30 35  2  0
 21 36  2  0
 16 37  1  0
 37 38  1  0
  9 39  2  0
 39  5  1  0
 38 10  2  0
 37 13  1  0
 36 17  1  0
 35 26  1  0
  1 40  1  0
  6 41  1  0
  7 42  1  0
  8 43  1  0
 11 44  1  0
 12 45  1  0
 15 46  1  0
 18 47  1  0
 19 48  1  0
 20 49  1  0
 22 50  1  0
 27 51  1  0
 28 52  1  0
 29 53  1  0
 35 54  1  0
 36 55  1  0
 39 56  1  0
M  CHG  2   1  -1  25  -1
M  END
>  <UniqueID>  (30) 
27

>  <SMILES>  (30) 
[NH-]S(=O)(=O)c1cccc(-c2ccc3ncc(-c4cccc(NC(=O)[N-]c5cccc(C(F)(F)F)c5)c4)n3n2)c1

>  <Energy>  (30) 
108.39937591934878

>  <Genealogy>  (30) 
[NH-]S(=O)(=O)c1cccc(-c2ccc3ncc(-c4cccc(NC(=O)[N-]c5cccc(C(F)(F)F)c5)c4)n3n2)c1 (protonated)
[NH-]S(=O)(=O)c1cccc(-c2ccc3ncc(-c4cccc(NC(=O)[N-]c5cccc(C(F)(F)F)c5)c4)n3n2)c1 (3D coordinates assigned)
[NH-]S(=O)(=O)c1cccc(-c2ccc3ncc(-c4cccc(NC(=O)[N-]c5cccc(C(F)(F)F)c5)c4)n3n2)c1 (optimized conformer: 108.39937591934878 kcal/mol)

>  <smiles>  (30) 
NS(=O)(=O)c1cccc(-c2ccc3ncc(-c4cccc(NC(=O)Nc5cccc(C(F)(F)F)c5)c4)n3n2)c1

>  <score_type>  (30) 
oracle

>  <origin>  (30) 
adg

>  <m_score__min__energy>  (30) 
-15.92

>  <m_primary>  (30) 
energy

$$$$
30:0
     RDKit          3D

 24 25  0  0  0  0  0  0  0  0999 V2000
   60.3640   35.6272   46.4898 H   0  0  0  0  0  0  0  0  0  0  0  0
   59.5960   34.8860   46.2240 C   0  0  0  0  0  0  0  0  0  0  0  0
   58.9470   34.1610   47.2280 C   0  0  0  0  0  0  0  0  0  0  0  0
   59.2043   34.3332   48.2835 H   0  0  0  0  0  0  0  0  0  0  0  0
   57.9710   33.2170   46.8920 C   0  0  0  0  0  0  0  0  0  0  0  0
   57.4633   32.6486   47.6851 H   0  0  0  0  0  0  0  0  0  0  0  0
   57.6370   32.9920   45.5500 C   0  0  0  0  0  0  0  0  0  0  0  0
   56.6340   32.0190   45.2380 N   0  0  0  0  0  0  0  0  0  0  0  0
   56.8720   31.0120   44.4970 N   0  0  0  0  0  0  0  0  0  0  0  0
   57.6630   29.9060   44.9470 C   0  0  0  0  0  0  0  0  0  0  0  0
   59.0580   30.0080   45.1000 C   0  0  0  0  0  0  0  0  0  0  0  0
   59.5671   30.9559   44.8715 H   0  0  0  0  0  0  0  0  0  0  0  0
   59.7990   28.9070   45.5420 C   0  0  0  0  0  0  0  0  0  0  0  0
   60.8892   28.9916   45.6617 H   0  0  0  0  0  0  0  0  0  0  0  0
   59.1570   27.6990   45.8320 C   0  0  0  0  0  0  0  0  0  0  0  0
   60.0880   26.3190   46.3860 Cl  0  0  0  0  0  0  0  0  0  0  0  0
   57.7700   27.5930   45.6800 C   0  0  0  0  0  0  0  0  0  0  0  0
   57.2637   26.6433   45.9072 H   0  0  0  0  0  0  0  0  0  0  0  0
   57.0270   28.6920   45.2400 C   0  0  0  0  0  0  0  0  0  0  0  0
   55.9368   28.6036   45.1230 H   0  0  0  0  0  0  0  0  0  0  0  0
   58.2940   33.7260   44.5420 C   0  0  0  0  0  0  0  0  0  0  0  0
   58.0395   33.5569   43.4853 H   0  0  0  0  0  0  0  0  0  0  0  0
   59.2690   34.6690   44.8830 C   0  0  0  0  0  0  0  0  0  0  0  0
   59.7793   35.2409   44.0940 H   0  0  0  0  0  0  0  0  0  0  0  0
  1  2  1  0
  2  3  2  0
  3  4  1  0
  3  5  1  0
  5  6  1  0
  5  7  2  0
  7  8  1  0
  8  9  2  0
  9 10  1  0
 10 11  2  0
 11 12  1  0
 11 13  1  0
 13 14  1  0
 13 15  2  0
 15 16  1  0
 15 17  1  0
 17 18  1  0
 17 19  2  0
 19 20  1  0
  7 21  1  0
 21 22  1  0
 21 23  2  0
 23 24  1  0
 23  2  1  0
 19 10  1  0
M  END
>  <UniqueID>  (31) 
28

>  <SMILES>  (31) 
Clc1ccc(/N=N/c2ccccc2)cc1

>  <Energy>  (31) 
24.8593015802534

>  <Genealogy>  (31) 
Clc1ccc(/N=N/c2ccccc2)cc1 (cis-trans isomerization)
Clc1ccc(/N=N/c2ccccc2)cc1 (3D coordinates assigned)
Clc1ccc(/N=N/c2ccccc2)cc1 (optimized conformer: 24.8593015802534 kcal/mol)

>  <smiles>  (31) 
Clc1ccc(N=Nc2ccccc2)cc1

>  <score_type>  (31) 
oracle

>  <origin>  (31) 
adg

>  <m_score__min__energy>  (31) 
-6.46

>  <m_primary>  (31) 
energy

$$$$
31:0
     RDKit          3D

 42 45  0  0  0  0  0  0  0  0999 V2000
   55.5070   29.0740   44.5160 O   0  0  0  0  0  0  0  0  0  0  0  0
   56.4040   29.8830   44.8780 C   0  0  0  0  0  0  0  0  0  0  0  0
   56.1100   31.2870   44.8600 N   0  0  0  0  0  0  0  0  0  0  0  0
   57.0710   32.3450   44.9880 C   0  0  0  0  0  0  0  0  0  0  0  0
   57.1470   33.0340   46.2050 C   0  0  0  0  0  0  0  0  0  0  0  0
   58.1010   34.0380   46.3920 C   0  0  0  0  0  0  0  0  0  0  0  0
   58.9760   34.3740   45.3570 C   0  0  0  0  0  0  0  0  0  0  0  0
   58.8830   33.7190   44.1260 C   0  0  0  0  0  0  0  0  0  0  0  0
   57.9300   32.7120   43.9280 C   0  0  0  0  0  0  0  0  0  0  0  0
   57.7880   32.0060   42.3230 Cl  0  0  0  0  0  0  0  0  0  0  0  0
   57.7150   29.3590   45.3290 C   0  0  0  0  0  0  0  0  0  0  0  0
   58.1430   28.0900   44.9100 C   0  0  0  0  0  0  0  0  0  0  0  0
   59.3980   27.6240   45.2970 C   0  0  0  0  0  0  0  0  0  0  0  0
   60.2170   28.4180   46.0980 C   0  0  0  0  0  0  0  0  0  0  0  0
   59.7610   29.6730   46.5230 C   0  0  0  0  0  0  0  0  0  0  0  0
   60.5970   30.5050   47.3460 N   0  0  0  0  0  0  0  0  0  0  0  0
   60.5150   30.3870   48.8110 C   0  0  0  0  0  0  0  0  0  0  0  0
   61.8930   30.6060   49.4450 C   0  0  0  0  0  0  0  0  0  0  0  0
   62.5300   31.7810   48.8580 N   0  0  0  0  0  0  0  0  0  0  0  0
   63.5470   32.4980   49.3670 C   0  0  0  0  0  0  0  0  0  0  0  0
   63.9250   33.4710   48.4590 C   0  0  0  0  0  0  0  0  0  0  0  0
   63.1100   33.3230   47.3490 C   0  0  0  0  0  0  0  0  0  0  0  0
   62.2740   32.2620   47.6300 C   0  0  0  0  0  0  0  0  0  0  0  0
   61.1980   31.7100   46.7470 C   0  0  0  0  0  0  0  0  0  0  0  0
   58.5210   30.1020   46.1470 N   0  0  0  0  0  0  0  0  0  0  0  0
   56.4511   32.7832   47.0191 H   0  0  0  0  0  0  0  0  0  0  0  0
   58.1627   34.5643   47.3559 H   0  0  0  0  0  0  0  0  0  0  0  0
   59.7373   35.1530   45.5103 H   0  0  0  0  0  0  0  0  0  0  0  0
   59.5629   33.9963   43.3070 H   0  0  0  0  0  0  0  0  0  0  0  0
   57.4917   27.4667   44.2797 H   0  0  0  0  0  0  0  0  0  0  0  0
   59.7417   26.6313   44.9709 H   0  0  0  0  0  0  0  0  0  0  0  0
   61.2146   28.0618   46.3945 H   0  0  0  0  0  0  0  0  0  0  0  0
   59.8149   31.1429   49.1964 H   0  0  0  0  0  0  0  0  0  0  0  0
   60.1618   29.3773   49.0674 H   0  0  0  0  0  0  0  0  0  0  0  0
   61.7760   30.7577   50.5282 H   0  0  0  0  0  0  0  0  0  0  0  0
   62.5215   29.7227   49.2585 H   0  0  0  0  0  0  0  0  0  0  0  0
   64.0073   32.3361   50.3528 H   0  0  0  0  0  0  0  0  0  0  0  0
   64.7204   34.2189   48.5930 H   0  0  0  0  0  0  0  0  0  0  0  0
   63.1260   33.9281   46.4305 H   0  0  0  0  0  0  0  0  0  0  0  0
   60.4172   32.4726   46.6101 H   0  0  0  0  0  0  0  0  0  0  0  0
   61.6417   31.4384   45.7778 H   0  0  0  0  0  0  0  0  0  0  0  0
   58.1840   31.0260   46.4960 H   0  0  0  0  0  0  0  0  0  0  0  0
  1  2  2  0
  2  3  1  0
  3  4  1  0
  4  5  2  0
  5  6  1  0
  6  7  2  0
  7  8  1  0
  8  9  2  0
  9 10  1  0
  2 11  1  0
 11 12  2  0
 12 13  1  0
 13 14  2  0
 14 15  1  0
 15 16  1  0
 16 17  1  0
 17 18  1  0
 18 19  1  0
 19 20  1  0
 20 21  2  0
 21 22  1  0
 22 23  2  0
 23 24  1  0
 15 25  2  0
  9  4  1  0
 25 11  1  0
 24 16  1  0
 23 19  1  0
  5 26  1  0
  6 27  1  0
  7 28  1  0
  8 29  1  0
 12 30  1  0
 13 31  1  0
 14 32  1  0
 17 33  1  0
 17 34  1  0
 18 35  1  0
 18 36  1  0
 20 37  1  0
 21 38  1  0
 22 39  1  0
 24 40  1  0
 24 41  1  0
 25 42  1  0
M  CHG  2   3  -1  25   1
M  END
>  <UniqueID>  (32) 
29

>  <SMILES>  (32) 
O=C([N-]c1ccccc1Cl)c1cccc(N2CCn3cccc3C2)[nH+]1

>  <Energy>  (32) 
85.52205834135226

>  <Genealogy>  (32) 
O=C([N-]c1ccccc1Cl)c1cccc(N2CCn3cccc3C2)[nH+]1 (protonated)
O=C([N-]c1ccccc1Cl)c1cccc(N2CCn3cccc3C2)[nH+]1 (3D coordinates assigned)
O=C([N-]c1ccccc1Cl)c1cccc(N2CCn3cccc3C2)[nH+]1 (nonaromatic ring conformer: 85.52205834135226 kcal/mol)

>  <smiles>  (32) 
O=C(Nc1ccccc1Cl)c1cccc(N2CCn3cccc3C2)n1

>  <score_type>  (32) 
oracle

>  <origin>  (32) 
adg

>  <m_score__min__energy>  (32) 
-8.6699999999999999

>  <m_primary>  (32) 
energy

$$$$
32:0
     RDKit          3D

 46 47  0  0  0  0  0  0  0  0999 V2000
   63.2910   31.9530   47.4520 C   0  0  0  0  0  0  0  0  0  0  0  0
   63.3050   32.6140   48.8310 C   0  0  0  0  0  0  0  0  0  0  0  0
   64.4620   32.0680   49.6700 C   0  0  0  0  0  0  0  0  0  0  0  0
   62.0330   32.3310   49.5040 N   0  0  0  0  0  0  0  0  0  0  0  0
   60.9550   33.6950   49.4310 S   0  0  0  0  0  0  0  0  0  0  0  0
   61.7630   34.9600   49.3700 O   0  0  0  0  0  0  0  0  0  0  0  0
   60.1050   33.7340   50.6720 O   0  0  0  0  0  0  0  0  0  0  0  0
   59.9340   33.5950   47.9990 C   0  0  0  0  0  0  0  0  0  0  0  0
   60.3390   34.2120   46.8090 C   0  0  0  0  0  0  0  0  0  0  0  0
   59.5490   34.1150   45.6620 C   0  0  0  0  0  0  0  0  0  0  0  0
   58.3450   33.4000   45.6850 C   0  0  0  0  0  0  0  0  0  0  0  0
   57.5860   33.3390   44.5040 O   0  0  0  0  0  0  0  0  0  0  0  0
   57.5950   32.2560   43.5750 C   0  0  0  0  0  0  0  0  0  0  0  0
   57.3220   30.9590   44.2700 C   0  0  0  0  0  0  0  0  0  0  0  0
   56.2140   30.7830   44.8460 O   0  0  0  0  0  0  0  0  0  0  0  0
   58.3510   29.9660   44.3460 N   0  0  0  0  0  0  0  0  0  0  0  0
   58.4280   28.8990   45.3010 C   0  0  0  0  0  0  0  0  0  0  0  0
   59.3850   28.8920   46.3320 C   0  0  0  0  0  0  0  0  0  0  0  0
   59.4080   27.8510   47.2640 C   0  0  0  0  0  0  0  0  0  0  0  0
   58.4720   26.8160   47.1820 C   0  0  0  0  0  0  0  0  0  0  0  0
   57.5030   26.8210   46.1710 C   0  0  0  0  0  0  0  0  0  0  0  0
   56.3060   25.5330   46.0970 S   0  0  0  0  0  0  0  0  0  0  0  0
   54.7250   26.2200   45.9830 N   0  0  0  0  0  0  0  0  0  0  0  0
   56.4000   24.6850   47.3350 O   0  0  0  0  0  0  0  0  0  0  0  0
   56.5560   24.6630   44.8970 O   0  0  0  0  0  0  0  0  0  0  0  0
   57.4780   27.8720   45.2420 C   0  0  0  0  0  0  0  0  0  0  0  0
   57.9430   32.7720   46.8800 C   0  0  0  0  0  0  0  0  0  0  0  0
   58.7350   32.8720   48.0280 C   0  0  0  0  0  0  0  0  0  0  0  0
   63.2678   30.8596   47.5697 H   0  0  0  0  0  0  0  0  0  0  0  0
   62.3996   32.2810   46.8972 H   0  0  0  0  0  0  0  0  0  0  0  0
   64.1955   32.2430   46.8972 H   0  0  0  0  0  0  0  0  0  0  0  0
   63.4379   33.6997   48.7143 H   0  0  0  0  0  0  0  0  0  0  0  0
   64.2249   32.1799   50.7383 H   0  0  0  0  0  0  0  0  0  0  0  0
   64.6132   31.0035   49.4375 H   0  0  0  0  0  0  0  0  0  0  0  0
   65.3798   32.6280   49.4375 H   0  0  0  0  0  0  0  0  0  0  0  0
   61.2833   34.7753   46.7778 H   0  0  0  0  0  0  0  0  0  0  0  0
   59.8750   34.6043   44.7323 H   0  0  0  0  0  0  0  0  0  0  0  0
   56.8200   32.4274   42.8134 H   0  0  0  0  0  0  0  0  0  0  0  0
   58.5879   32.2024   43.1047 H   0  0  0  0  0  0  0  0  0  0  0  0
   60.1180   29.7090   46.4048 H   0  0  0  0  0  0  0  0  0  0  0  0
   60.1637   27.8460   48.0633 H   0  0  0  0  0  0  0  0  0  0  0  0
   58.4967   25.9951   47.9138 H   0  0  0  0  0  0  0  0  0  0  0  0
   54.7200   27.0780   46.5820 H   0  0  0  0  0  0  0  0  0  0  0  0
   56.7048   27.8894   44.4598 H   0  0  0  0  0  0  0  0  0  0  0  0
   57.0032   32.2012   46.9102 H   0  0  0  0  0  0  0  0  0  0  0  0
   58.4147   32.3804   48.9584 H   0  0  0  0  0  0  0  0  0  0  0  0
  1  2  1  0
  2  3  1  0
  2  4  1  0
  4  5  1  0
  5  6  2  0
  5  7  2  0
  5  8  1  0
  8  9  2  0
  9 10  1  0
 10 11  2  0
 11 12  1  0
 12 13  1  0
 13 14  1  0
 14 15  2  0
 14 16  1  0
 16 17  1  0
 17 18  2  0
 18 19  1  0
 19 20  2  0
 20 21  1  0
 21 22  1  0
 22 23  1  0
 22 24  2  0
 22 25  2  0
 21 26  2  0
 11 27  1  0
 27 28  2  0
 28  8  1  0
 26 17  1  0
  1 29  1  0
  1 30  1  0
  1 31  1  0
  2 32  1  0
  3 33  1  0
  3 34  1  0
  3 35  1  0
  9 36  1  0
 10 37  1  0
 13 38  1  0
 13 39  1  0
 18 40  1  0
 19 41  1  0
 20 42  1  0
 23 43  1  0
 26 44  1  0
 27 45  1  0
 28 46  1  0
M  CHG  3   4  -1  16  -1  23  -1
M  END
>  <UniqueID>  (33) 
30

>  <SMILES>  (33) 
CC(C)[N-]S(=O)(=O)c1ccc(OCC(=O)[N-]c2cccc(S([NH-])(=O)=O)c2)cc1

>  <Energy>  (33) 
42.61528589313174

>  <Genealogy>  (33) 
CC(C)[N-]S(=O)(=O)c1ccc(OCC(=O)[N-]c2cccc(S([NH-])(=O)=O)c2)cc1 (protonated)
CC(C)[N-]S(=O)(=O)c1ccc(OCC(=O)[N-]c2cccc(S([NH-])(=O)=O)c2)cc1 (3D coordinates assigned)
CC(C)[N-]S(=O)(=O)c1ccc(OCC(=O)[N-]c2cccc(S([NH-])(=O)=O)c2)cc1 (optimized conformer: 42.61528589313174 kcal/mol)

>  <smiles>  (33) 
CC(C)NS(=O)(=O)c1ccc(OCC(=O)Nc2cccc(S(N)(=O)=O)c2)cc1

>  <score_type>  (33) 
oracle

>  <origin>  (33) 
adg

>  <m_score__min__energy>  (33) 
-13.49

>  <m_primary>  (33) 
energy

$$$$
33:0
     RDKit          3D

 36 39  0  0  0  0  0  0  0  0999 V2000
   56.6090   29.5720   45.6170 O   0  0  0  0  0  0  0  0  0  0  0  0
   57.4040   29.3300   44.6660 C   0  0  0  0  0  0  0  0  0  0  0  0
   58.3150   30.2900   44.1490 N   0  0  0  0  0  0  0  0  0  0  0  0
   58.2860   31.5880   44.7810 C   0  0  0  0  0  0  0  0  0  0  0  0
   57.2520   32.4460   44.4660 C   0  0  0  0  0  0  0  0  0  0  0  0
   57.2630   33.6760   45.0930 C   0  0  0  0  0  0  0  0  0  0  0  0
   58.2680   33.9910   45.9770 C   0  0  0  0  0  0  0  0  0  0  0  0
   58.5170   35.0910   46.6910 N   0  0  0  0  0  0  0  0  0  0  0  0
   59.6190   34.9410   47.4020 N   0  0  0  0  0  0  0  0  0  0  0  0
   60.1610   33.7070   47.1860 C   0  0  0  0  0  0  0  0  0  0  0  0
   61.3830   33.2740   47.8080 C   0  0  0  0  0  0  0  0  0  0  0  0
   62.5650   33.4780   47.0850 C   0  0  0  0  0  0  0  0  0  0  0  0
   63.8020   33.1320   47.6000 C   0  0  0  0  0  0  0  0  0  0  0  0
   63.9440   32.5700   48.8430 C   0  0  0  0  0  0  0  0  0  0  0  0
   65.1320   32.2160   49.3850 F   0  0  0  0  0  0  0  0  0  0  0  0
   62.7930   32.3620   49.5680 C   0  0  0  0  0  0  0  0  0  0  0  0
   61.5410   32.7160   49.0410 C   0  0  0  0  0  0  0  0  0  0  0  0
   59.3060   33.1200   46.2890 C   0  0  0  0  0  0  0  0  0  0  0  0
   59.2930   31.9050   45.6670 C   0  0  0  0  0  0  0  0  0  0  0  0
   57.3870   27.9920   44.0640 C   0  0  0  0  0  0  0  0  0  0  0  0
   58.2760   26.9290   44.7190 C   0  0  0  0  0  0  0  0  0  0  0  0
   58.6290   27.4710   43.3800 C   0  0  0  0  0  0  0  0  0  0  0  0
   58.9760   30.1050   43.3650 H   0  0  0  0  0  0  0  0  0  0  0  0
   56.4619   32.1651   43.7540 H   0  0  0  0  0  0  0  0  0  0  0  0
   56.4663   34.4054   44.8850 H   0  0  0  0  0  0  0  0  0  0  0  0
   59.9650   35.7070   48.0260 H   0  0  0  0  0  0  0  0  0  0  0  0
   62.5086   33.9250   46.0815 H   0  0  0  0  0  0  0  0  0  0  0  0
   64.7009   33.3137   46.9925 H   0  0  0  0  0  0  0  0  0  0  0  0
   62.8546   31.9138   50.5707 H   0  0  0  0  0  0  0  0  0  0  0  0
   60.6449   32.5343   49.6525 H   0  0  0  0  0  0  0  0  0  0  0  0
   60.0899   31.1755   45.8739 H   0  0  0  0  0  0  0  0  0  0  0  0
   56.3296   28.0866   43.7762 H   0  0  0  0  0  0  0  0  0  0  0  0
   58.8877   27.1878   45.5958 H   0  0  0  0  0  0  0  0  0  0  0  0
   58.1099   25.9230   45.1318 H   0  0  0  0  0  0  0  0  0  0  0  0
   59.5066   28.1250   43.2699 H   0  0  0  0  0  0  0  0  0  0  0  0
   58.8342   27.0203   42.3978 H   0  0  0  0  0  0  0  0  0  0  0  0
  1  2  2  0
  2  3  1  0
  3  4  1  0
  4  5  1  0
  5  6  2  0
  6  7  1  0
  7  8  2  0
  8  9  1  0
  9 10  1  0
 10 11  1  0
 11 12  2  0
 12 13  1  0
 13 14  2  0
 14 15  1  0
 14 16  1  0
 16 17  2  0
 10 18  2  0
 18 19  1  0
  2 20  1  0
 20 21  1  0
 21 22  1  0
 19  4  2  0
 22 20  1  0
 18  7  1  0
 17 11  1  0
  3 23  1  0
  5 24  1  0
  6 25  1  0
  9 26  1  0
 12 27  1  0
 13 28  1  0
 16 29  1  0
 17 30  1  0
 19 31  1  0
 20 32  1  0
 21 33  1  0
 21 34  1  0
 22 35  1  0
 22 36  1  0
M  END
>  <smiles>  (34) 
O=C(Nc1ccc2n[nH]c(-c3ccc(F)cc3)c2c1)C1CC1

>  <score_type>  (34) 
oracle

>  <origin>  (34) 
adg

>  <m_score__min__energy>  (34) 
-7.9000000000000004

>  <m_primary>  (34) 
energy

$$$$
34:0
     RDKit          3D

 45 49  0  0  1  0  0  0  0  0999 V2000
   55.0770   24.9880   45.9760 N   0  0  0  0  0  0  0  0  0  0  0  0
   56.0220   25.6540   46.0960 C   0  0  0  0  0  0  0  0  0  0  0  0
   57.1820   26.4930   46.2540 C   0  0  0  0  0  0  0  0  0  0  0  0
   57.5570   27.3640   45.2360 C   0  0  0  0  0  0  0  0  0  0  0  0
   58.6760   28.1800   45.3750 C   0  0  0  0  0  0  0  0  0  0  0  0
   59.3870   28.1000   46.5340 C   0  0  0  0  0  0  0  0  0  0  0  0
   62.1990   32.6600   48.7520 N   0  0  0  0  0  0  0  0  0  0  0  0
   61.2900   32.0670   48.0820 C   0  0  0  0  0  0  0  0  0  0  0  0
   59.3740   30.8090   46.6680 N   0  0  0  0  0  0  0  0  0  0  0  0
   59.2610   32.1160   46.9710 C   0  0  0  0  0  0  0  0  0  0  0  0
   58.2950   33.0870   46.7070 C   0  0  0  0  0  0  0  0  0  0  0  0
   57.1610   32.9070   46.0280 C   0  0  0  0  0  0  0  0  0  0  0  0
   57.2300   32.3430   44.6820 C   0  0  0  0  0  0  0  0  0  0  0  0
   57.8330   32.9910   43.6640 N   0  0  0  0  0  0  0  0  0  0  0  0
   57.7300   32.2230   42.5750 C   0  0  0  0  0  0  0  0  0  0  0  0
   58.3430   32.6600   41.1110 S   0  0  0  0  0  0  0  0  0  0  0  0
   57.0640   31.0840   42.8790 N   0  0  0  0  0  0  0  0  0  0  0  0
   56.7570   31.1640   44.1850 C   0  0  0  0  0  0  0  0  0  0  0  0
   56.0710   30.2100   44.9210 O   0  0  0  0  0  0  0  0  0  0  0  0
   58.7050   34.2980   47.2710 C   0  0  0  0  0  0  0  0  0  0  0  0
   59.8920   34.0260   47.8540 N   0  0  0  0  0  0  0  0  0  0  0  0
   60.2150   32.7500   47.6770 N   0  0  0  0  0  0  0  0  0  0  0  0
   60.4720   30.1520   47.0940 C   0  0  0  0  0  0  0  0  0  0  0  0
   60.5620   28.8950   46.7930 N   0  0  0  0  0  0  0  0  0  0  0  0
   63.3440   33.3260   48.1970 C   0  0  0  0  0  0  0  0  0  0  0  0
   63.0830   34.0710   46.9060 C   0  0  0  0  0  0  0  0  0  0  0  0
   63.7640   32.7560   46.8320 C   0  0  0  0  0  0  0  0  0  0  0  0
   61.4490   30.7610   47.8050 N   0  0  0  0  0  0  0  0  0  0  0  0
   59.0280   27.2340   47.5650 C   0  0  0  0  0  0  0  0  0  0  0  0
   57.9080   26.4170   47.4260 C   0  0  0  0  0  0  0  0  0  0  0  0
   56.9628   27.4083   44.3114 H   0  0  0  0  0  0  0  0  0  0  0  0
   58.9773   28.8693   44.5724 H   0  0  0  0  0  0  0  0  0  0  0  0
   56.1923   33.1781   46.4731 H   0  0  0  0  0  0  0  0  0  0  0  0
   58.3040   33.9330   43.7150 H   0  0  0  0  0  0  0  0  0  0  0  0
   56.8590   30.3290   42.1870 H   0  0  0  0  0  0  0  0  0  0  0  0
   55.1890   30.5010   45.3700 H   0  0  0  0  0  0  0  0  0  0  0  0
   58.1762   35.2622   47.2455 H   0  0  0  0  0  0  0  0  0  0  0  0
   63.8349   33.5671   49.1514 H   0  0  0  0  0  0  0  0  0  0  0  0
   62.0528   34.1730   46.5342 H   0  0  0  0  0  0  0  0  0  0  0  0
   63.3222   35.0807   46.5408 H   0  0  0  0  0  0  0  0  0  0  0  0
   63.2362   31.8864   46.4135 H   0  0  0  0  0  0  0  0  0  0  0  0
   64.7074   32.3926   46.3985 H   0  0  0  0  0  0  0  0  0  0  0  0
   62.2950   30.2450   48.1310 H   0  0  0  0  0  0  0  0  0  0  0  0
   59.6275   27.1955   48.4865 H   0  0  0  0  0  0  0  0  0  0  0  0
   57.6095   25.7284   48.2302 H   0  0  0  0  0  0  0  0  0  0  0  0
  1  2  3  0
  2  3  1  0
  3  4  2  0
  4  5  1  0
  5  6  2  0
  6  7  1  0
  7  8  2  0
  8  9  1  0
  9 10  2  0
 10 11  1  0
 11 12  2  0
 12 13  1  0
 13 14  1  0
 14 15  1  0
 15 16  2  0
 15 17  1  0
 17 18  1  0
 18 19  1  0
 11 20  1  0
 20 21  2  0
 21 22  1  0
 22 23  1  0
 23 24  2  0
 24 25  1  0
 25 26  1  0
 26 27  1  0
 23 28  1  0
  6 29  1  0
 29 30  2  0
 30  3  1  0
 28  8  1  0
 22 10  1  0
 27 25  1  0
 18 13  2  0
  4 31  1  0
  5 32  1  0
 12 33  1  0
 14 34  1  0
 17 35  1  0
 19 36  1  0
 20 37  1  0
 25 38  1  0
 26 39  1  0
 26 40  1  0
 27 41  1  0
 27 42  1  0
 28 43  1  0
 29 44  1  0
 30 45  1  0
M  END
>  <smiles>  (35) 
N#Cc1ccc(N=c2nc3c(=Cc4[nH]c(=S)[nH]c4O)cnn3c(=NC3CC3)[nH]2)cc1

>  <score_type>  (35) 
oracle

>  <origin>  (35) 
adg

>  <m_score__min__energy>  (35) 
-8.7100000000000009

>  <m_primary>  (35) 
energy

$$$$
35:0
     RDKit          3D

 40 43  0  0  0  0  0  0  0  0999 V2000
   57.0090   31.6260   43.3820 O   0  0  0  0  0  0  0  0  0  0  0  0
   57.3510   31.1440   44.5130 C   0  0  0  0  0  0  0  0  0  0  0  0
   57.2660   31.9250   45.6660 O   0  0  0  0  0  0  0  0  0  0  0  0
   58.3150   32.7910   45.9520 C   0  0  0  0  0  0  0  0  0  0  0  0
   59.3290   32.4010   46.7970 C   0  0  0  0  0  0  0  0  0  0  0  0
   60.3980   33.2390   47.1100 C   0  0  0  0  0  0  0  0  0  0  0  0
   61.4540   32.7910   48.0090 C   0  0  0  0  0  0  0  0  0  0  0  0
   62.6850   33.3150   47.8720 N   0  0  0  0  0  0  0  0  0  0  0  0
   63.7120   32.9400   48.6790 C   0  0  0  0  0  0  0  0  0  0  0  0
   64.8580   33.4460   48.5300 O   0  0  0  0  0  0  0  0  0  0  0  0
   63.5150   32.0030   49.6690 C   0  0  0  0  0  0  0  0  0  0  0  0
   64.5240   31.5900   50.5130 C   0  0  0  0  0  0  0  0  0  0  0  0
   64.2430   30.6460   51.4810 C   0  0  0  0  0  0  0  0  0  0  0  0
   62.9750   30.1280   51.5960 C   0  0  0  0  0  0  0  0  0  0  0  0
   62.0070   30.5480   50.7600 N   0  0  0  0  0  0  0  0  0  0  0  0
   62.2480   31.4690   49.8040 C   0  0  0  0  0  0  0  0  0  0  0  0
   61.2730   31.8790   48.9770 N   0  0  0  0  0  0  0  0  0  0  0  0
   60.3770   34.4840   46.5210 C   0  0  0  0  0  0  0  0  0  0  0  0
   59.3740   34.9000   45.6700 C   0  0  0  0  0  0  0  0  0  0  0  0
   58.3230   34.0560   45.3730 C   0  0  0  0  0  0  0  0  0  0  0  0
   57.2980   34.4370   44.5240 O   0  0  0  0  0  0  0  0  0  0  0  0
   57.8360   29.7730   44.6140 C   0  0  0  0  0  0  0  0  0  0  0  0
   59.1810   29.5010   44.5130 C   0  0  0  0  0  0  0  0  0  0  0  0
   59.6610   28.2090   44.6070 C   0  0  0  0  0  0  0  0  0  0  0  0
   58.7710   27.1580   44.8060 C   0  0  0  0  0  0  0  0  0  0  0  0
   57.4030   27.4090   44.9100 C   0  0  0  0  0  0  0  0  0  0  0  0
   56.9900   28.7060   44.8100 C   0  0  0  0  0  0  0  0  0  0  0  0
   55.6450   28.9360   44.9140 F   0  0  0  0  0  0  0  0  0  0  0  0
   59.2947   31.3947   47.2400 H   0  0  0  0  0  0  0  0  0  0  0  0
   65.5377   32.0062   50.4168 H   0  0  0  0  0  0  0  0  0  0  0  0
   65.0371   30.3073   52.1627 H   0  0  0  0  0  0  0  0  0  0  0  0
   62.7526   29.3749   52.3664 H   0  0  0  0  0  0  0  0  0  0  0  0
   60.3340   31.4480   49.1170 H   0  0  0  0  0  0  0  0  0  0  0  0
   61.1999   35.1804   46.7398 H   0  0  0  0  0  0  0  0  0  0  0  0
   59.4119   35.9063   45.2273 H   0  0  0  0  0  0  0  0  0  0  0  0
   56.7160   33.7570   44.0350 H   0  0  0  0  0  0  0  0  0  0  0  0
   59.8880   30.3286   44.3543 H   0  0  0  0  0  0  0  0  0  0  0  0
   60.7402   28.0123   44.5250 H   0  0  0  0  0  0  0  0  0  0  0  0
   59.1472   26.1271   44.8814 H   0  0  0  0  0  0  0  0  0  0  0  0
   56.6835   26.5918   45.0668 H   0  0  0  0  0  0  0  0  0  0  0  0
  1  2  2  0
  2  3  1  0
  3  4  1  0
  4  5  2  0
  5  6  1  0
  6  7  1  0
  7  8  2  0
  8  9  1  0
  9 10  2  0
  9 11  1  0
 11 12  2  0
 12 13  1  0
 13 14  2  0
 14 15  1  0
 15 16  2  0
 16 17  1  0
  6 18  2  0
 18 19  1  0
 19 20  2  0
 20 21  1  0
  2 22  1  0
 22 23  2  0
 23 24  1  0
 24 25  2  0
 25 26  1  0
 26 27  2  0
 27 28  1  0
 20  4  1  0
 27 22  1  0
 17  7  1  0
 16 11  1  0
  5 29  1  0
 12 30  1  0
 13 31  1  0
 14 32  1  0
 17 33  1  0
 18 34  1  0
 19 35  1  0
 21 36  1  0
 23 37  1  0
 24 38  1  0
 25 39  1  0
 26 40  1  0
M  END
>  <smiles>  (36) 
O=C(Oc1cc(-c2nc(=O)c3cccnc3[nH]2)ccc1O)c1ccccc1F

>  <score_type>  (36) 
oracle

>  <origin>  (36) 
adg

>  <m_score__min__energy>  (36) 
-8.1500000000000004

>  <m_primary>  (36) 
energy

$$$$
36:0
     RDKit          3D

 64 66  0  0  0  0  0  0  0  0999 V2000
   59.3230   25.8700   46.3100 C   0  0  0  0  0  0  0  0  0  0  0  0
   60.3780   26.9690   46.4120 C   0  0  0  0  0  0  0  0  0  0  0  0
   59.7550   28.3130   46.3390 N   0  0  0  0  0  0  0  0  0  0  0  0
   60.2960   29.1690   47.4260 C   0  0  0  0  0  0  0  0  0  0  0  0
   60.3770   28.4270   48.7590 C   0  0  0  0  0  0  0  0  0  0  0  0
   59.9590   28.9260   44.9980 C   0  0  0  0  0  0  0  0  0  0  0  0
   58.6470   28.9570   44.2000 C   0  0  0  0  0  0  0  0  0  0  0  0
   57.4200   28.6430   45.0680 C   0  0  0  0  0  0  0  0  0  0  0  0
   56.3510   29.6810   44.8650 C   0  0  0  0  0  0  0  0  0  0  0  0
   55.1460   29.3100   44.8670 O   0  0  0  0  0  0  0  0  0  0  0  0
   56.6350   31.0590   44.5790 N   0  0  0  0  0  0  0  0  0  0  0  0
   57.5320   31.9790   45.2240 C   0  0  0  0  0  0  0  0  0  0  0  0
   57.7270   33.2310   44.6300 C   0  0  0  0  0  0  0  0  0  0  0  0
   58.5400   34.1890   45.2410 C   0  0  0  0  0  0  0  0  0  0  0  0
   59.1620   33.9040   46.4580 C   0  0  0  0  0  0  0  0  0  0  0  0
   58.9540   32.6720   47.0880 C   0  0  0  0  0  0  0  0  0  0  0  0
   59.6400   32.4100   48.3220 N   0  0  0  0  0  0  0  0  0  0  0  0
   59.2730   32.8380   49.6400 C   0  0  0  0  0  0  0  0  0  0  0  0
   59.5910   34.0030   50.0000 O   0  0  0  0  0  0  0  0  0  0  0  0
   58.4950   31.9860   50.5680 C   0  0  0  0  0  0  0  0  0  0  0  0
   58.6310   30.5880   50.5500 C   0  0  0  0  0  0  0  0  0  0  0  0
   57.9020   29.7960   51.4400 C   0  0  0  0  0  0  0  0  0  0  0  0
   57.0090   30.3910   52.3480 C   0  0  0  0  0  0  0  0  0  0  0  0
   56.2620   29.6060   53.2890 N   0  0  0  0  0  0  0  0  0  0  0  0
   54.9360   29.0980   53.0970 C   0  0  0  0  0  0  0  0  0  0  0  0
   54.7150   27.8830   53.3460 O   0  0  0  0  0  0  0  0  0  0  0  0
   53.8170   29.9640   52.6600 C   0  0  0  0  0  0  0  0  0  0  0  0
   53.7000   30.3360   51.3090 C   0  0  0  0  0  0  0  0  0  0  0  0
   52.6490   31.1560   50.8890 C   0  0  0  0  0  0  0  0  0  0  0  0
   51.7010   31.6100   51.8100 C   0  0  0  0  0  0  0  0  0  0  0  0
   51.7970   31.2330   53.1520 C   0  0  0  0  0  0  0  0  0  0  0  0
   52.8440   30.4090   53.5760 C   0  0  0  0  0  0  0  0  0  0  0  0
   56.8760   31.7830   52.3710 C   0  0  0  0  0  0  0  0  0  0  0  0
   57.5990   32.5750   51.4750 C   0  0  0  0  0  0  0  0  0  0  0  0
   58.1380   31.7080   46.4640 C   0  0  0  0  0  0  0  0  0  0  0  0
   59.0217   25.5561   47.3203 H   0  0  0  0  0  0  0  0  0  0  0  0
   58.4457   26.2530   45.7681 H   0  0  0  0  0  0  0  0  0  0  0  0
   59.7416   25.0091   45.7681 H   0  0  0  0  0  0  0  0  0  0  0  0
   60.9087   26.8702   47.3704 H   0  0  0  0  0  0  0  0  0  0  0  0
   61.0783   26.8614   45.5705 H   0  0  0  0  0  0  0  0  0  0  0  0
   61.3056   29.5030   47.1446 H   0  0  0  0  0  0  0  0  0  0  0  0
   59.6136   30.0220   47.5553 H   0  0  0  0  0  0  0  0  0  0  0  0
   60.2982   29.1485   49.5856 H   0  0  0  0  0  0  0  0  0  0  0  0
   59.5527   27.7017   48.8256 H   0  0  0  0  0  0  0  0  0  0  0  0
   61.3384   27.8966   48.8256 H   0  0  0  0  0  0  0  0  0  0  0  0
   60.3267   29.9549   45.1253 H   0  0  0  0  0  0  0  0  0  0  0  0
   60.6911   28.3201   44.4441 H   0  0  0  0  0  0  0  0  0  0  0  0
   58.5232   29.9595   43.7646 H   0  0  0  0  0  0  0  0  0  0  0  0
   58.7119   28.1818   43.4222 H   0  0  0  0  0  0  0  0  0  0  0  0
   57.0231   27.6555   44.7898 H   0  0  0  0  0  0  0  0  0  0  0  0
   57.7224   28.6463   46.1256 H   0  0  0  0  0  0  0  0  0  0  0  0
   57.2358   33.4630   43.6735 H   0  0  0  0  0  0  0  0  0  0  0  0
   58.6901   35.1683   44.7630 H   0  0  0  0  0  0  0  0  0  0  0  0
   59.8195   34.6524   46.9244 H   0  0  0  0  0  0  0  0  0  0  0  0
   59.3155   30.1143   49.8309 H   0  0  0  0  0  0  0  0  0  0  0  0
   58.0271   28.7032   51.4304 H   0  0  0  0  0  0  0  0  0  0  0  0
   54.4405   29.9793   50.5779 H   0  0  0  0  0  0  0  0  0  0  0  0
   52.5678   31.4448   49.8307 H   0  0  0  0  0  0  0  0  0  0  0  0
   50.8803   32.2633   51.4789 H   0  0  0  0  0  0  0  0  0  0  0  0
   51.0476   31.5851   53.8762 H   0  0  0  0  0  0  0  0  0  0  0  0
   52.9082   30.1064   54.6316 H   0  0  0  0  0  0  0  0  0  0  0  0
   56.1993   32.2565   53.0976 H   0  0  0  0  0  0  0  0  0  0  0  0
   57.4655   33.6669   51.4801 H   0  0  0  0  0  0  0  0  0  0  0  0
   57.9734   30.7353   46.9506 H   0  0  0  0  0  0  0  0  0  0  0  0
  1  2  1  0
  2  3  1  0
  3  4  1  0
  4  5  1  0
  3  6  1  0
  6  7  1  0
  7  8  1  0
  8  9  1  0
  9 10  2  0
  9 11  1  0
 11 12  1  0
 12 13  2  0
 13 14  1  0
 14 15  2  0
 15 16  1  0
 16 17  1  0
 17 18  1  0
 18 19  2  0
 18 20  1  0
 20 21  2  0
 21 22  1  0
 22 23  2  0
 23 24  1  0
 24 25  1  0
 25 26  2  0
 25 27  1  0
 27 28  2  0
 28 29  1  0
 29 30  2  0
 30 31  1  0
 31 32  2  0
 23 33  1  0
 33 34  2  0
 16 35  2  0
 35 12  1  0
 34 20  1  0
 32 27  1  0
  1 36  1  0
  1 37  1  0
  1 38  1  0
  2 39  1  0
  2 40  1  0
  4 41  1  0
  4 42  1  0
  5 43  1  0
  5 44  1  0
  5 45  1  0
  6 46  1  0
  6 47  1  0
  7 48  1  0
  7 49  1  0
  8 50  1  0
  8 51  1  0
 13 52  1  0
 14 53  1  0
 15 54  1  0
 21 55  1  0
 22 56  1  0
 28 57  1  0
 29 58  1  0
 30 59  1  0
 31 60  1  0
 32 61  1  0
 33 62  1  0
 34 63  1  0
 35 64  1  0
M  CHG  3  11  -1  17  -1  24  -1
M  END
>  <UniqueID>  (37) 
31

>  <SMILES>  (37) 
CCN(CC)CCCC(=O)[N-]c1cccc([N-]C(=O)c2ccc([N-]C(=O)c3ccccc3)cc2)c1

>  <Energy>  (37) 
78.51694373507729

>  <Genealogy>  (37) 
CCN(CC)CCCC(=O)[N-]c1cccc([N-]C(=O)c2ccc([N-]C(=O)c3ccccc3)cc2)c1 (protonated)
CCN(CC)CCCC(=O)[N-]c1cccc([N-]C(=O)c2ccc([N-]C(=O)c3ccccc3)cc2)c1 (3D coordinates assigned)
CCN(CC)CCCC(=O)[N-]c1cccc([N-]C(=O)c2ccc([N-]C(=O)c3ccccc3)cc2)c1 (optimized conformer: 78.51694373507729 kcal/mol)

>  <smiles>  (37) 
CCN(CC)CCCC(=O)Nc1cccc(NC(=O)c2ccc(NC(=O)c3ccccc3)cc2)c1

>  <score_type>  (37) 
oracle

>  <origin>  (37) 
adg

>  <m_score__min__energy>  (37) 
-12.84

>  <m_primary>  (37) 
energy

$$$$
37:0
     RDKit          3D

 40 41  0  0  0  0  0  0  0  0999 V2000
   55.6840   26.7090   45.9300 N   0  0  0  0  0  0  0  0  0  0  0  0
   56.8090   25.4910   46.4180 S   0  0  0  0  0  0  0  0  0  0  0  0
   56.2850   24.7910   47.6400 O   0  0  0  0  0  0  0  0  0  0  0  0
   56.9780   24.4930   45.3060 O   0  0  0  0  0  0  0  0  0  0  0  0
   58.3780   26.2590   46.7920 C   0  0  0  0  0  0  0  0  0  0  0  0
   58.2720   27.7790   46.7160 C   0  0  0  0  0  0  0  0  0  0  0  0
   57.7240   28.1710   45.4200 N   0  0  0  0  0  0  0  0  0  0  0  0
   56.8830   29.3090   45.1880 C   0  0  0  0  0  0  0  0  0  0  0  0
   55.6520   29.1210   45.0020 O   0  0  0  0  0  0  0  0  0  0  0  0
   57.4190   30.6870   45.1320 C   0  0  0  0  0  0  0  0  0  0  0  0
   57.6240   31.3100   43.8920 C   0  0  0  0  0  0  0  0  0  0  0  0
   58.1420   32.6060   43.8320 C   0  0  0  0  0  0  0  0  0  0  0  0
   58.4720   33.2880   45.0070 C   0  0  0  0  0  0  0  0  0  0  0  0
   59.1190   34.9190   44.8940 Cl  0  0  0  0  0  0  0  0  0  0  0  0
   58.2940   32.6720   46.2570 C   0  0  0  0  0  0  0  0  0  0  0  0
   58.6520   33.3890   47.4470 N   0  0  0  0  0  0  0  0  0  0  0  0
   59.6840   32.7940   48.7060 S   0  0  0  0  0  0  0  0  0  0  0  0
   59.4240   33.5380   49.9840 O   0  0  0  0  0  0  0  0  0  0  0  0
   59.4240   31.3280   48.9160 O   0  0  0  0  0  0  0  0  0  0  0  0
   61.3590   33.0480   48.2300 C   0  0  0  0  0  0  0  0  0  0  0  0
   61.6760   33.5800   46.9710 C   0  0  0  0  0  0  0  0  0  0  0  0
   63.0140   33.7770   46.6100 C   0  0  0  0  0  0  0  0  0  0  0  0
   64.0370   33.4430   47.5010 C   0  0  0  0  0  0  0  0  0  0  0  0
   63.7260   32.9130   48.7580 C   0  0  0  0  0  0  0  0  0  0  0  0
   65.0090   32.4950   49.8780 Cl  0  0  0  0  0  0  0  0  0  0  0  0
   62.3880   32.7170   49.1220 C   0  0  0  0  0  0  0  0  0  0  0  0
   57.7750   31.3640   46.3100 C   0  0  0  0  0  0  0  0  0  0  0  0
   55.9140   26.9600   44.9430 H   0  0  0  0  0  0  0  0  0  0  0  0
   55.8810   27.5560   46.5100 H   0  0  0  0  0  0  0  0  0  0  0  0
   58.6876   25.9699   47.8072 H   0  0  0  0  0  0  0  0  0  0  0  0
   59.1196   25.9211   46.0532 H   0  0  0  0  0  0  0  0  0  0  0  0
   57.6099   28.1397   47.5170 H   0  0  0  0  0  0  0  0  0  0  0  0
   59.2725   28.2200   46.8365 H   0  0  0  0  0  0  0  0  0  0  0  0
   57.3758   30.7758   42.9630 H   0  0  0  0  0  0  0  0  0  0  0  0
   58.2908   33.0918   42.8564 H   0  0  0  0  0  0  0  0  0  0  0  0
   60.8725   33.8425   46.2671 H   0  0  0  0  0  0  0  0  0  0  0  0
   63.2605   34.1955   45.6230 H   0  0  0  0  0  0  0  0  0  0  0  0
   65.0877   33.5968   47.2141 H   0  0  0  0  0  0  0  0  0  0  0  0
   62.1439   32.3020   50.1110 H   0  0  0  0  0  0  0  0  0  0  0  0
   57.6472   30.8677   47.2833 H   0  0  0  0  0  0  0  0  0  0  0  0
  1  2  1  0
  2  3  2  0
  2  4  2  0
  2  5  1  0
  5  6  1  0
  6  7  1  0
  7  8  1  0
  8  9  2  0
  8 10  1  0
 10 11  2  0
 11 12  1  0
 12 13  2  0
 13 14  1  0
 13 15  1  0
 15 16  1  0
 16 17  1  0
 17 18  2  0
 17 19  2  0
 17 20  1  0
 20 21  2  0
 21 22  1  0
 22 23  2  0
 23 24  1  0
 24 25  1  0
 24 26  2  0
 15 27  2  0
 27 10  1  0
 26 20  1  0
  1 28  1  0
  1 29  1  0
  5 30  1  0
  5 31  1  0
  6 32  1  0
  6 33  1  0
 11 34  1  0
 12 35  1  0
 21 36  1  0
 22 37  1  0
 23 38  1  0
 26 39  1  0
 27 40  1  0
M  CHG  2   7  -1  16  -1
M  END
>  <UniqueID>  (38) 
32

>  <SMILES>  (38) 
NS(=O)(=O)CC[N-]C(=O)c1ccc(Cl)c([N-]S(=O)(=O)c2cccc(Cl)c2)c1

>  <Energy>  (38) 
40.96304000907817

>  <Genealogy>  (38) 
NS(=O)(=O)CC[N-]C(=O)c1ccc(Cl)c([N-]S(=O)(=O)c2cccc(Cl)c2)c1 (protonated)
NS(=O)(=O)CC[N-]C(=O)c1ccc(Cl)c([N-]S(=O)(=O)c2cccc(Cl)c2)c1 (3D coordinates assigned)
NS(=O)(=O)CC[N-]C(=O)c1ccc(Cl)c([N-]S(=O)(=O)c2cccc(Cl)c2)c1 (optimized conformer: 40.96304000907817 kcal/mol)

>  <smiles>  (38) 
NS(=O)(=O)CCNC(=O)c1ccc(Cl)c(NS(=O)(=O)c2cccc(Cl)c2)c1

>  <score_type>  (38) 
oracle

>  <origin>  (38) 
adg

>  <m_score__min__energy>  (38) 
-12.65

>  <m_primary>  (38) 
energy

$$$$
38:0
     RDKit          3D

 57 60  0  0  0  0  0  0  0  0999 V2000
   58.5040   34.0280   45.7270 C   0  0  0  0  0  0  0  0  0  0  0  0
   58.0190   32.9620   44.7870 C   0  0  0  0  0  0  0  0  0  0  0  0
   58.2080   33.1040   43.4040 C   0  0  0  0  0  0  0  0  0  0  0  0
   57.8120   32.0800   42.5340 C   0  0  0  0  0  0  0  0  0  0  0  0
   57.2190   30.9250   43.0380 C   0  0  0  0  0  0  0  0  0  0  0  0
   57.0160   30.7750   44.4180 C   0  0  0  0  0  0  0  0  0  0  0  0
   56.4130   29.5360   44.9380 C   0  0  0  0  0  0  0  0  0  0  0  0
   55.1700   29.3670   44.8200 O   0  0  0  0  0  0  0  0  0  0  0  0
   57.1850   28.5270   45.5990 N   0  0  0  0  0  0  0  0  0  0  0  0
   58.5050   28.0590   45.1930 C   0  0  0  0  0  0  0  0  0  0  0  0
   59.5810   28.9250   45.7820 C   0  0  0  0  0  0  0  0  0  0  0  0
   60.7740   28.7690   45.4060 O   0  0  0  0  0  0  0  0  0  0  0  0
   59.2590   29.8960   46.7880 N   0  0  0  0  0  0  0  0  0  0  0  0
   60.2680   30.4430   47.6950 C   0  0  0  0  0  0  0  0  0  0  0  0
   59.9880   31.9280   48.0360 C   0  0  1  0  0  0  0  0  0  0  0  0
   59.2560   31.9760   49.3730 C   0  0  0  0  0  0  0  0  0  0  0  0
   59.3730   33.1190   50.2060 C   0  0  0  0  0  0  0  0  0  0  0  0
   58.7270   33.1800   51.4550 C   0  0  0  0  0  0  0  0  0  0  0  0
   57.9870   32.0650   51.8460 C   0  0  0  0  0  0  0  0  0  0  0  0
   57.8700   30.9700   51.0630 C   0  0  0  0  0  0  0  0  0  0  0  0
   58.4840   30.8810   49.8170 C   0  0  0  0  0  0  0  0  0  0  0  0
   57.0930   30.0220   51.7050 O   0  0  0  0  0  0  0  0  0  0  0  0
   56.6970   30.5590   52.9720 C   0  0  0  0  0  0  0  0  0  0  0  0
   57.2880   31.8620   53.0200 O   0  0  0  0  0  0  0  0  0  0  0  0
   61.2570   32.7110   48.0550 N   0  0  0  0  0  0  0  0  0  0  0  0
   61.6690   33.1880   46.7160 C   0  0  0  0  0  0  0  0  0  0  0  0
   63.0130   33.9340   46.8000 C   0  0  0  0  0  0  0  0  0  0  0  0
   64.0450   33.2770   47.5160 O   0  0  0  0  0  0  0  0  0  0  0  0
   63.6850   31.9800   47.9350 C   0  0  0  0  0  0  0  0  0  0  0  0
   62.3630   31.9750   48.7290 C   0  0  0  0  0  0  0  0  0  0  0  0
   57.4430   31.7820   45.2910 C   0  0  0  0  0  0  0  0  0  0  0  0
   58.3536   33.6974   46.7653 H   0  0  0  0  0  0  0  0  0  0  0  0
   59.5743   34.2118   45.5521 H   0  0  0  0  0  0  0  0  0  0  0  0
   57.9393   34.9557   45.5521 H   0  0  0  0  0  0  0  0  0  0  0  0
   58.6672   34.0195   43.0028 H   0  0  0  0  0  0  0  0  0  0  0  0
   57.9697   32.1883   41.4508 H   0  0  0  0  0  0  0  0  0  0  0  0
   56.9079   30.1254   42.3497 H   0  0  0  0  0  0  0  0  0  0  0  0
   58.6437   27.0246   45.5405 H   0  0  0  0  0  0  0  0  0  0  0  0
   58.5745   28.1064   44.0962 H   0  0  0  0  0  0  0  0  0  0  0  0
   58.2530   30.0470   47.0330 H   0  0  0  0  0  0  0  0  0  0  0  0
   60.2655   29.8570   48.6259 H   0  0  0  0  0  0  0  0  0  0  0  0
   61.2460   30.3848   47.1948 H   0  0  0  0  0  0  0  0  0  0  0  0
   59.3532   32.3906   47.2659 H   0  0  0  0  0  0  0  0  0  0  0  0
   59.9795   33.9727   49.8694 H   0  0  0  0  0  0  0  0  0  0  0  0
   58.8029   34.0706   52.0961 H   0  0  0  0  0  0  0  0  0  0  0  0
   58.3706   29.9810   49.1948 H   0  0  0  0  0  0  0  0  0  0  0  0
   55.6011   30.6283   53.0377 H   0  0  0  0  0  0  0  0  0  0  0  0
   57.0220   29.9254   53.8104 H   0  0  0  0  0  0  0  0  0  0  0  0
   61.7750   32.3257   46.0413 H   0  0  0  0  0  0  0  0  0  0  0  0
   60.9025   33.8774   46.3323 H   0  0  0  0  0  0  0  0  0  0  0  0
   63.3698   34.1012   45.7730 H   0  0  0  0  0  0  0  0  0  0  0  0
   62.8049   34.8574   47.3604 H   0  0  0  0  0  0  0  0  0  0  0  0
   63.5689   31.3398   47.0481 H   0  0  0  0  0  0  0  0  0  0  0  0
   64.4796   31.6040   48.5962 H   0  0  0  0  0  0  0  0  0  0  0  0
   62.0483   30.9309   48.8729 H   0  0  0  0  0  0  0  0  0  0  0  0
   62.5581   32.4896   49.6815 H   0  0  0  0  0  0  0  0  0  0  0  0
   57.3276   31.6500   46.3769 H   0  0  0  0  0  0  0  0  0  0  0  0
  1  2  1  0
  2  3  2  0
  3  4  1  0
  4  5  2  0
  5  6  1  0
  6  7  1  0
  7  8  2  0
  7  9  1  0
  9 10  1  0
 10 11  1  0
 11 12  2  0
 11 13  1  0
 13 14  1  0
 14 15  1  0
 15 16  1  0
 16 17  2  0
 17 18  1  0
 18 19  2  0
 19 20  1  0
 20 21  2  0
 20 22  1  0
 22 23  1  0
 23 24  1  0
 15 25  1  0
 25 26  1  0
 26 27  1  0
 27 28  1  0
 28 29  1  0
 29 30  1  0
  6 31  2  0
 31  2  1  0
 21 16  1  0
 30 25  1  0
 24 19  1  0
  1 32  1  0
  1 33  1  0
  1 34  1  0
  3 35  1  0
  4 36  1  0
  5 37  1  0
 10 38  1  0
 10 39  1  0
 13 40  1  0
 14 41  1  0
 14 42  1  0
 15 43  1  6
 17 44  1  0
 18 45  1  0
 21 46  1  0
 23 47  1  0
 23 48  1  0
 26 49  1  0
 26 50  1  0
 27 51  1  0
 27 52  1  0
 29 53  1  0
 29 54  1  0
 30 55  1  0
 30 56  1  0
 31 57  1  0
M  CHG  1   9  -1
M  END
>  <UniqueID>  (39) 
33

>  <SMILES>  (39) 
Cc1cccc(C(=O)[N-]CC(=O)NC[C@@H](c2ccc3c(c2)OCO3)N2CCOCC2)c1

>  <Energy>  (39) 
105.01856498776073

>  <Genealogy>  (39) 
Cc1cccc(C(=O)[N-]CC(=O)NCC(c2ccc3c(c2)OCO3)N2CCOCC2)c1 (protonated)
Cc1cccc(C(=O)[N-]CC(=O)NC[C@@H](c2ccc3c(c2)OCO3)N2CCOCC2)c1 (chirality)
Cc1cccc(C(=O)[N-]CC(=O)NC[C@@H](c2ccc3c(c2)OCO3)N2CCOCC2)c1 (3D coordinates assigned)
Cc1cccc(C(=O)[N-]CC(=O)NC[C@@H](c2ccc3c(c2)OCO3)N2CCOCC2)c1 (nonaromatic ring conformer: 105.01856498776073 kcal/mol)

>  <smiles>  (39) 
Cc1cccc(C(=O)NCC(=O)NCC(c2ccc3c(c2)OCO3)N2CCOCC2)c1

>  <score_type>  (39) 
oracle

>  <origin>  (39) 
adg

>  <m_score__min__energy>  (39) 
-10.41

>  <m_primary>  (39) 
energy

$$$$
39:0
     RDKit          3D

 31 33  0  0  0  0  0  0  0  0999 V2000
   58.7326   24.2859   46.6853 H   0  0  0  0  0  0  0  0  0  0  0  0
   58.4800   25.3090   46.3700 C   0  0  0  0  0  0  0  0  0  0  0  0
   59.4950   26.2060   46.0330 C   0  0  0  0  0  0  0  0  0  0  0  0
   60.5470   25.8886   46.0830 H   0  0  0  0  0  0  0  0  0  0  0  0
   59.1770   27.5070   45.6320 C   0  0  0  0  0  0  0  0  0  0  0  0
   59.9817   28.2091   45.3685 H   0  0  0  0  0  0  0  0  0  0  0  0
   57.8350   27.9250   45.5630 C   0  0  0  0  0  0  0  0  0  0  0  0
   57.5050   29.3040   45.1370 C   0  0  0  0  0  0  0  0  0  0  0  0
   56.2440   29.7220   44.8690 N   0  0  0  0  0  0  0  0  0  0  0  0
   56.1690   31.0000   44.5010 N   0  0  0  0  0  0  0  0  0  0  0  0
   57.3690   31.6140   44.4700 C   0  0  0  0  0  0  0  0  0  0  0  0
   57.5060   32.8620   44.1360 N   0  0  0  0  0  0  0  0  0  0  0  0
   57.6080   33.9780   45.0760 C   0  0  0  0  0  0  0  0  0  0  0  0
   56.6203   34.1659   45.5223 H   0  0  0  0  0  0  0  0  0  0  0  0
   57.9560   34.8686   44.5321 H   0  0  0  0  0  0  0  0  0  0  0  0
   58.5940   33.6620   46.1710 C   0  0  0  0  0  0  0  0  0  0  0  0
   59.9650   33.8760   45.9630 C   0  0  0  0  0  0  0  0  0  0  0  0
   60.3169   34.2824   45.0033 H   0  0  0  0  0  0  0  0  0  0  0  0
   60.8870   33.5740   46.9730 C   0  0  0  0  0  0  0  0  0  0  0  0
   62.6010   33.8400   46.7040 Cl  0  0  0  0  0  0  0  0  0  0  0  0
   60.4430   33.0570   48.1930 C   0  0  0  0  0  0  0  0  0  0  0  0
   61.1683   32.8173   48.9845 H   0  0  0  0  0  0  0  0  0  0  0  0
   59.0780   32.8440   48.4090 C   0  0  0  0  0  0  0  0  0  0  0  0
   58.5230   32.1930   49.9400 Cl  0  0  0  0  0  0  0  0  0  0  0  0
   58.1540   33.1470   47.4020 C   0  0  0  0  0  0  0  0  0  0  0  0
   57.0804   32.9814   47.5749 H   0  0  0  0  0  0  0  0  0  0  0  0
   58.6110   30.5630   44.9190 S   0  0  0  0  0  0  0  0  0  0  0  0
   56.8200   27.0100   45.9050 C   0  0  0  0  0  0  0  0  0  0  0  0
   55.7656   27.3195   45.8557 H   0  0  0  0  0  0  0  0  0  0  0  0
   57.1450   25.7100   46.3070 C   0  0  0  0  0  0  0  0  0  0  0  0
   56.3463   25.0024   46.5740 H   0  0  0  0  0  0  0  0  0  0  0  0
  1  2  1  0
  2  3  2  0
  3  4  1  0
  3  5  1  0
  5  6  1  0
  5  7  2  0
  7  8  1  0
  8  9  2  0
  9 10  1  0
 10 11  1  0
 11 12  2  0
 12 13  1  0
 13 14  1  0
 13 15  1  0
 13 16  1  0
 16 17  2  0
 17 18  1  0
 17 19  1  0
 19 20  1  0
 19 21  2  0
 21 22  1  0
 21 23  1  0
 23 24  1  0
 23 25  2  0
 25 26  1  0
 11 27  1  0
  7 28  1  0
 28 29  1  0
 28 30  2  0
 30 31  1  0
 30  2  1  0
 27  8  1  0
 25 16  1  0
M  CHG  1  10  -1
M  END
>  <UniqueID>  (40) 
34

>  <SMILES>  (40) 
Clc1cc(Cl)cc(C/N=c2/[n-]nc(-c3ccccc3)s2)c1

>  <Energy>  (40) 
68.20022147778081

>  <Genealogy>  (40) 
Clc1cc(Cl)cc(CN=c2[n-]nc(-c3ccccc3)s2)c1 (protonated)
Clc1cc(Cl)cc(C/N=c2/[n-]nc(-c3ccccc3)s2)c1 (cis-trans isomerization)
Clc1cc(Cl)cc(C/N=c2/[n-]nc(-c3ccccc3)s2)c1 (3D coordinates assigned)
Clc1cc(Cl)cc(C/N=c2/[n-]nc(-c3ccccc3)s2)c1 (optimized conformer: 68.20022147778081 kcal/mol)

>  <smiles>  (40) 
Clc1cc(Cl)cc(CN=c2[nH]nc(-c3ccccc3)s2)c1

>  <score_type>  (40) 
oracle

>  <origin>  (40) 
adg

>  <m_score__min__energy>  (40) 
-9.9499999999999993

>  <m_primary>  (40) 
energy

$$$$
40:0
     RDKit          3D

 55 58  0  0  0  0  0  0  0  0999 V2000
   56.2150   19.4210   44.8490 C   0  0  0  0  0  0  0  0  0  0  0  0
   55.8940   20.8000   44.4490 N   0  0  0  0  0  0  0  0  0  0  0  0
   55.6960   21.6770   45.6340 C   0  0  0  0  0  0  0  0  0  0  0  0
   56.7340   22.8050   45.7550 C   0  0  0  0  0  0  0  0  0  0  0  0
   56.8360   23.5380   44.4860 N   0  0  0  0  0  0  0  0  0  0  0  0
   57.1480   24.9480   44.4710 C   0  0  0  0  0  0  0  0  0  0  0  0
   57.7470   25.5390   43.3430 C   0  0  0  0  0  0  0  0  0  0  0  0
   58.0430   26.9050   43.3280 C   0  0  0  0  0  0  0  0  0  0  0  0
   57.7610   27.7060   44.4430 C   0  0  0  0  0  0  0  0  0  0  0  0
   58.0550   29.1130   44.3920 N   0  0  0  0  0  0  0  0  0  0  0  0
   57.0710   30.1490   44.5150 C   0  0  0  0  0  0  0  0  0  0  0  0
   55.9120   29.8820   44.9330 O   0  0  0  0  0  0  0  0  0  0  0  0
   57.4520   31.5030   44.2470 N   0  0  0  0  0  0  0  0  0  0  0  0
   58.0730   32.4240   45.1580 C   0  0  0  0  0  0  0  0  0  0  0  0
   57.5390   33.7070   45.3840 C   0  0  0  0  0  0  0  0  0  0  0  0
   58.1400   34.5710   46.3040 C   0  0  0  0  0  0  0  0  0  0  0  0
   59.2780   34.1670   47.0020 C   0  0  0  0  0  0  0  0  0  0  0  0
   59.8340   32.9080   46.7650 C   0  0  0  0  0  0  0  0  0  0  0  0
   59.2580   32.0430   45.8270 C   0  0  0  0  0  0  0  0  0  0  0  0
   59.8590   30.7940   45.6170 O   0  0  0  0  0  0  0  0  0  0  0  0
   59.8230   29.7230   46.5240 C   0  0  0  0  0  0  0  0  0  0  0  0
   59.1610   29.8160   47.7620 C   0  0  0  0  0  0  0  0  0  0  0  0
   59.1470   28.7240   48.6360 C   0  0  0  0  0  0  0  0  0  0  0  0
   59.7810   27.5310   48.2770 C   0  0  0  0  0  0  0  0  0  0  0  0
   60.4240   27.4270   47.0400 C   0  0  0  0  0  0  0  0  0  0  0  0
   60.4400   28.5170   46.1650 C   0  0  0  0  0  0  0  0  0  0  0  0
   57.1400   27.1260   45.5620 C   0  0  0  0  0  0  0  0  0  0  0  0
   56.8420   25.7610   45.5770 C   0  0  0  0  0  0  0  0  0  0  0  0
   56.7290   22.7930   43.2250 C   0  0  0  0  0  0  0  0  0  0  0  0
   56.8910   21.2910   43.4740 C   0  0  0  0  0  0  0  0  0  0  0  0
   56.2311   19.3519   45.9467 H   0  0  0  0  0  0  0  0  0  0  0  0
   55.4522   18.7364   44.4497 H   0  0  0  0  0  0  0  0  0  0  0  0
   57.2017   19.1436   44.4497 H   0  0  0  0  0  0  0  0  0  0  0  0
   54.6968   22.1318   45.5651 H   0  0  0  0  0  0  0  0  0  0  0  0
   55.8103   21.0412   46.5243 H   0  0  0  0  0  0  0  0  0  0  0  0
   56.4261   23.4984   46.5515 H   0  0  0  0  0  0  0  0  0  0  0  0
   57.7137   22.3672   45.9967 H   0  0  0  0  0  0  0  0  0  0  0  0
   57.9845   24.9203   42.4650 H   0  0  0  0  0  0  0  0  0  0  0  0
   58.5006   27.3547   42.4345 H   0  0  0  0  0  0  0  0  0  0  0  0
   59.0570   29.4070   44.3330 H   0  0  0  0  0  0  0  0  0  0  0  0
   56.6437   34.0314   44.8334 H   0  0  0  0  0  0  0  0  0  0  0  0
   57.7150   35.5706   46.4777 H   0  0  0  0  0  0  0  0  0  0  0  0
   59.7380   34.8407   47.7399 H   0  0  0  0  0  0  0  0  0  0  0  0
   60.7307   32.5938   47.3192 H   0  0  0  0  0  0  0  0  0  0  0  0
   58.6530   30.7502   48.0434 H   0  0  0  0  0  0  0  0  0  0  0  0
   58.6365   28.8041   49.6070 H   0  0  0  0  0  0  0  0  0  0  0  0
   59.7740   26.6746   48.9673 H   0  0  0  0  0  0  0  0  0  0  0  0
   60.9179   26.4864   46.7549 H   0  0  0  0  0  0  0  0  0  0  0  0
   60.9397   28.4276   45.1891 H   0  0  0  0  0  0  0  0  0  0  0  0
   56.8869   27.7504   46.4315 H   0  0  0  0  0  0  0  0  0  0  0  0
   56.3633   25.3179   46.4627 H   0  0  0  0  0  0  0  0  0  0  0  0
   55.7426   22.9812   42.7760 H   0  0  0  0  0  0  0  0  0  0  0  0
   57.5256   23.1287   42.5448 H   0  0  0  0  0  0  0  0  0  0  0  0
   56.7583   20.7534   42.5235 H   0  0  0  0  0  0  0  0  0  0  0  0
   57.8961   21.1123   43.8837 H   0  0  0  0  0  0  0  0  0  0  0  0
  1  2  1  0
  2  3  1  0
  3  4  1  0
  4  5  1  0
  5  6  1  0
  6  7  2  0
  7  8  1  0
  8  9  2  0
  9 10  1  0
 10 11  1  0
 11 12  2  0
 11 13  1  0
 13 14  1  0
 14 15  2  0
 15 16  1  0
 16 17  2  0
 17 18  1  0
 18 19  2  0
 19 20  1  0
 20 21  1  0
 21 22  2  0
 22 23  1  0
 23 24  2  0
 24 25  1  0
 25 26  2  0
  9 27  1  0
 27 28  2  0
  5 29  1  0
 29 30  1  0
 30  2  1  0
 28  6  1  0
 19 14  1  0
 26 21  1  0
  1 31  1  0
  1 32  1  0
  1 33  1  0
  3 34  1  0
  3 35  1  0
  4 36  1  0
  4 37  1  0
  7 38  1  0
  8 39  1  0
 10 40  1  0
 15 41  1  0
 16 42  1  0
 17 43  1  0
 18 44  1  0
 22 45  1  0
 23 46  1  0
 24 47  1  0
 25 48  1  0
 26 49  1  0
 27 50  1  0
 28 51  1  0
 29 52  1  0
 29 53  1  0
 30 54  1  0
 30 55  1  0
M  CHG  1  13  -1
M  END
>  <UniqueID>  (41) 
35

>  <SMILES>  (41) 
CN1CCN(c2ccc(NC(=O)[N-]c3ccccc3Oc3ccccc3)cc2)CC1

>  <Energy>  (41) 
82.07818635984576

>  <Genealogy>  (41) 
CN1CCN(c2ccc(NC(=O)[N-]c3ccccc3Oc3ccccc3)cc2)CC1 (protonated)
CN1CCN(c2ccc(NC(=O)[N-]c3ccccc3Oc3ccccc3)cc2)CC1 (3D coordinates assigned)
CN1CCN(c2ccc(NC(=O)[N-]c3ccccc3Oc3ccccc3)cc2)CC1 (nonaromatic ring conformer: 82.07818635984576 kcal/mol)

>  <smiles>  (41) 
CN1CCN(c2ccc(NC(=O)Nc3ccccc3Oc3ccccc3)cc2)CC1

>  <score_type>  (41) 
oracle

>  <origin>  (41) 
adg

>  <m_score__min__energy>  (41) 
-9.6899999999999995

>  <m_primary>  (41) 
energy

$$$$
41:0
     RDKit          3D

 39 41  0  0  0  0  0  0  0  0999 V2000
   58.4440   32.4020   43.5840 O   0  0  0  0  0  0  0  0  0  0  0  0
   57.4490   32.4240   44.3580 C   0  0  0  0  0  0  0  0  0  0  0  0
   57.1990   33.6290   45.2060 C   0  0  0  0  0  0  0  0  0  0  0  0
   58.2790   33.7620   46.2320 C   0  0  0  0  0  0  0  0  0  0  0  0
   59.3720   34.6150   46.1560 C   0  0  0  0  0  0  0  0  0  0  0  0
   60.1710   34.5900   47.3050 C   0  0  0  0  0  0  0  0  0  0  0  0
   59.7020   33.7300   48.2920 C   0  0  0  0  0  0  0  0  0  0  0  0
   58.2910   33.0050   47.7340 S   0  0  0  0  0  0  0  0  0  0  0  0
   56.6170   31.2690   44.5210 N   0  0  0  0  0  0  0  0  0  0  0  0
   57.0360   29.9640   44.9440 C   0  0  0  0  0  0  0  0  0  0  0  0
   58.3930   29.6120   45.0550 C   0  0  0  0  0  0  0  0  0  0  0  0
   58.7530   28.3190   45.4410 C   0  0  0  0  0  0  0  0  0  0  0  0
   57.7670   27.3690   45.7220 C   0  0  0  0  0  0  0  0  0  0  0  0
   56.4130   27.7060   45.6220 C   0  0  0  0  0  0  0  0  0  0  0  0
   55.4280   26.7000   45.8990 N   0  0  0  0  0  0  0  0  0  0  0  0
   55.6660   25.2890   45.9620 C   0  0  0  0  0  0  0  0  0  0  0  0
   54.7480   24.5340   46.3780 O   0  0  0  0  0  0  0  0  0  0  0  0
   56.8890   24.7360   45.4590 N   0  0  0  0  0  0  0  0  0  0  0  0
   57.0350   23.5480   44.6680 C   0  0  0  0  0  0  0  0  0  0  0  0
   58.0550   22.6080   44.9110 C   0  0  0  0  0  0  0  0  0  0  0  0
   58.1790   21.4790   44.0950 C   0  0  0  0  0  0  0  0  0  0  0  0
   57.3010   21.2870   43.0260 C   0  0  0  0  0  0  0  0  0  0  0  0
   56.3020   22.2270   42.7650 C   0  0  0  0  0  0  0  0  0  0  0  0
   56.1750   23.3580   43.5780 C   0  0  0  0  0  0  0  0  0  0  0  0
   56.0540   28.9980   45.1990 C   0  0  0  0  0  0  0  0  0  0  0  0
   57.1874   34.5265   44.5701 H   0  0  0  0  0  0  0  0  0  0  0  0
   56.2290   33.5202   45.7131 H   0  0  0  0  0  0  0  0  0  0  0  0
   59.5881   35.2464   45.2815 H   0  0  0  0  0  0  0  0  0  0  0  0
   61.0838   35.1937   47.4167 H   0  0  0  0  0  0  0  0  0  0  0  0
   60.1733   33.5541   49.2702 H   0  0  0  0  0  0  0  0  0  0  0  0
   59.1727   30.3568   44.8373 H   0  0  0  0  0  0  0  0  0  0  0  0
   59.8157   28.0474   45.5241 H   0  0  0  0  0  0  0  0  0  0  0  0
   58.0571   26.3516   46.0232 H   0  0  0  0  0  0  0  0  0  0  0  0
   58.7559   22.7621   45.7446 H   0  0  0  0  0  0  0  0  0  0  0  0
   58.9695   20.7409   44.2955 H   0  0  0  0  0  0  0  0  0  0  0  0
   57.3965   20.3950   42.3894 H   0  0  0  0  0  0  0  0  0  0  0  0
   55.6144   22.0779   41.9194 H   0  0  0  0  0  0  0  0  0  0  0  0
   55.3953   24.1029   43.3605 H   0  0  0  0  0  0  0  0  0  0  0  0
   54.9920   29.2526   45.0671 H   0  0  0  0  0  0  0  0  0  0  0  0
  1  2  2  0
  2  3  1  0
  3  4  1  0
  4  5  2  0
  5  6  1  0
  6  7  2  0
  7  8  1  0
  2  9  1  0
  9 10  1  0
 10 11  2  0
 11 12  1  0
 12 13  2  0
 13 14  1  0
 14 15  1  0
 15 16  1  0
 16 17  2  0
 16 18  1  0
 18 19  1  0
 19 20  2  0
 20 21  1  0
 21 22  2  0
 22 23  1  0
 23 24  2  0
 14 25  2  0
  8  4  1  0
 25 10  1  0
 24 19  1  0
  3 26  1  0
  3 27  1  0
  5 28  1  0
  6 29  1  0
  7 30  1  0
 11 31  1  0
 12 32  1  0
 13 33  1  0
 20 34  1  0
 21 35  1  0
 22 36  1  0
 23 37  1  0
 24 38  1  0
 25 39  1  0
M  CHG  3   9  -1  15  -1  18  -1
M  END
>  <UniqueID>  (42) 
36

>  <SMILES>  (42) 
O=C(Cc1cccs1)[N-]c1cccc([N-]C(=O)[N-]c2ccccc2)c1

>  <Energy>  (42) 
74.36240065828433

>  <Genealogy>  (42) 
O=C(Cc1cccs1)[N-]c1cccc([N-]C(=O)[N-]c2ccccc2)c1 (protonated)
O=C(Cc1cccs1)[N-]c1cccc([N-]C(=O)[N-]c2ccccc2)c1 (3D coordinates assigned)
O=C(Cc1cccs1)[N-]c1cccc([N-]C(=O)[N-]c2ccccc2)c1 (optimized conformer: 74.36240065828433 kcal/mol)

>  <smiles>  (42) 
O=C(Cc1cccs1)Nc1cccc(NC(=O)Nc2ccccc2)c1

>  <score_type>  (42) 
oracle

>  <origin>  (42) 
adg

>  <m_score__min__energy>  (42) 
-12.74

>  <m_primary>  (42) 
energy

$$$$
42:0
     RDKit          3D

 49 53  0  0  0  0  0  0  0  0999 V2000
   61.5630   34.4680   49.5500 O   0  0  0  0  0  0  0  0  0  0  0  0
   61.9540   33.3320   49.1690 C   0  0  0  0  0  0  0  0  0  0  0  0
   61.1300   32.5430   48.2920 N   0  0  0  0  0  0  0  0  0  0  0  0
   59.9920   33.0620   47.5820 C   0  0  0  0  0  0  0  0  0  0  0  0
   59.6080   34.2470   47.7800 O   0  0  0  0  0  0  0  0  0  0  0  0
   59.2830   32.2360   46.6340 N   0  0  0  0  0  0  0  0  0  0  0  0
   58.8420   30.8840   47.0200 C   0  0  0  0  0  0  0  0  0  0  0  0
   58.9180   29.9180   45.8250 C   0  0  1  0  0  0  0  0  0  0  0  0
   58.4170   28.5860   46.2030 N   0  0  0  0  0  0  0  0  0  0  0  0
   57.7840   27.7900   45.3780 C   0  0  0  0  0  0  0  0  0  0  0  0
   57.4330   26.4070   45.7860 C   0  0  0  0  0  0  0  0  0  0  0  0
   58.4380   25.4540   46.0350 C   0  0  0  0  0  0  0  0  0  0  0  0
   58.0980   24.1550   46.4250 C   0  0  0  0  0  0  0  0  0  0  0  0
   56.7570   23.7940   46.5700 C   0  0  0  0  0  0  0  0  0  0  0  0
   55.7510   24.7330   46.3290 C   0  0  0  0  0  0  0  0  0  0  0  0
   56.0860   26.0350   45.9400 C   0  0  0  0  0  0  0  0  0  0  0  0
   57.3980   28.2630   44.0750 N   0  0  0  0  0  0  0  0  0  0  0  0
   57.5200   29.6470   43.7540 C   0  0  0  0  0  0  0  0  0  0  0  0
   56.9570   30.1450   42.6200 N   0  0  0  0  0  0  0  0  0  0  0  0
   57.0190   31.4700   42.3180 C   0  0  0  0  0  0  0  0  0  0  0  0
   57.6570   32.3610   43.1880 C   0  0  0  0  0  0  0  0  0  0  0  0
   58.2400   31.8700   44.3660 C   0  0  0  0  0  0  0  0  0  0  0  0
   58.1780   30.4970   44.6430 C   0  0  0  0  0  0  0  0  0  0  0  0
   58.8890   32.7630   45.3490 C   0  0  0  0  0  0  0  0  0  0  0  0
   59.0710   33.9800   45.0710 O   0  0  0  0  0  0  0  0  0  0  0  0
   63.2570   32.8160   49.6570 C   0  0  0  0  0  0  0  0  0  0  0  0
   64.4540   33.4560   49.2840 C   0  0  0  0  0  0  0  0  0  0  0  0
   65.6860   32.9750   49.7340 C   0  0  0  0  0  0  0  0  0  0  0  0
   65.7410   31.8460   50.5550 C   0  0  0  0  0  0  0  0  0  0  0  0
   66.9380   31.3800   50.9890 F   0  0  0  0  0  0  0  0  0  0  0  0
   64.5620   31.1940   50.9220 C   0  0  0  0  0  0  0  0  0  0  0  0
   63.3260   31.6720   50.4750 C   0  0  0  0  0  0  0  0  0  0  0  0
   61.3360   31.5230   48.2080 H   0  0  0  0  0  0  0  0  0  0  0  0
   59.4903   30.5106   47.8264 H   0  0  0  0  0  0  0  0  0  0  0  0
   57.7974   30.9395   47.3603 H   0  0  0  0  0  0  0  0  0  0  0  0
   59.9688   29.7905   45.5256 H   0  0  0  0  0  0  0  0  0  0  0  0
   58.7240   28.2160   47.1320 H   0  0  0  0  0  0  0  0  0  0  0  0
   59.4962   25.7323   45.9223 H   0  0  0  0  0  0  0  0  0  0  0  0
   58.8891   23.4155   46.6181 H   0  0  0  0  0  0  0  0  0  0  0  0
   56.4927   22.7704   46.8739 H   0  0  0  0  0  0  0  0  0  0  0  0
   54.6947   24.4488   46.4451 H   0  0  0  0  0  0  0  0  0  0  0  0
   55.2906   26.7717   45.7536 H   0  0  0  0  0  0  0  0  0  0  0  0
   56.8920   27.6330   43.4120 H   0  0  0  0  0  0  0  0  0  0  0  0
   56.5662   31.8420   41.3871 H   0  0  0  0  0  0  0  0  0  0  0  0
   57.7010   33.4343   42.9511 H   0  0  0  0  0  0  0  0  0  0  0  0
   64.4190   34.3420   48.6330 H   0  0  0  0  0  0  0  0  0  0  0  0
   66.6149   33.4864   49.4412 H   0  0  0  0  0  0  0  0  0  0  0  0
   64.6055   30.3021   51.5644 H   0  0  0  0  0  0  0  0  0  0  0  0
   62.4016   31.1508   50.7644 H   0  0  0  0  0  0  0  0  0  0  0  0
  1  2  2  0
  2  3  1  0
  3  4  1  0
  4  5  2  0
  4  6  1  0
  6  7  1  0
  7  8  1  0
  8  9  1  0
  9 10  2  0
 10 11  1  0
 11 12  2  0
 12 13  1  0
 13 14  2  0
 14 15  1  0
 15 16  2  0
 10 17  1  0
 17 18  1  0
 18 19  2  0
 19 20  1  0
 20 21  2  0
 21 22  1  0
 22 23  2  0
 22 24  1  0
 24 25  2  0
  2 26  1  0
 26 27  2  0
 27 28  1  0
 28 29  2  0
 29 30  1  0
 29 31  1  0
 31 32  2  0
 24  6  1  0
 32 26  1  0
 23  8  1  0
 16 11  1  0
 23 18  1  0
  3 33  1  0
  7 34  1  0
  7 35  1  0
  8 36  1  6
  9 37  1  0
 12 38  1  0
 13 39  1  0
 14 40  1  0
 15 41  1  0
 16 42  1  0
 17 43  1  0
 20 44  1  0
 21 45  1  0
 27 46  1  0
 28 47  1  0
 31 48  1  0
 32 49  1  0
M  CHG  1   9   1
M  END
>  <UniqueID>  (43) 
37

>  <SMILES>  (43) 
O=C(NC(=O)N1C[C@H]2[NH+]=C(c3ccccc3)Nc3nccc(c32)C1=O)c1ccc(F)cc1

>  <Energy>  (43) 
71.1208517632831

>  <Genealogy>  (43) 
O=C(NC(=O)N1CC2[NH+]=C(c3ccccc3)Nc3nccc(c32)C1=O)c1ccc(F)cc1 (protonated)
O=C(NC(=O)N1C[C@H]2[NH+]=C(c3ccccc3)Nc3nccc(c32)C1=O)c1ccc(F)cc1 (chirality)
O=C(NC(=O)N1C[C@H]2[NH+]=C(c3ccccc3)Nc3nccc(c32)C1=O)c1ccc(F)cc1 (3D coordinates assigned)
O=C(NC(=O)N1C[C@H]2[NH+]=C(c3ccccc3)Nc3nccc(c32)C1=O)c1ccc(F)cc1 (nonaromatic ring conformer: 71.1208517632831 kcal/mol)

>  <smiles>  (43) 
O=C(NC(=O)N1CC2N=C(c3ccccc3)Nc3nccc(c32)C1=O)c1ccc(F)cc1

>  <score_type>  (43) 
oracle

>  <origin>  (43) 
adg

>  <m_score__min__energy>  (43) 
-7

>  <m_primary>  (43) 
energy

$$$$
43:0
     RDKit          3D

 44 45  0  0  0  0  0  0  0  0999 V2000
   65.0100   32.7370   49.5610 C   0  0  0  0  0  0  0  0  0  0  0  0
   63.7820   32.9590   48.7430 C   0  0  0  0  0  0  0  0  0  0  0  0
   62.5110   33.1930   49.2270 C   0  0  0  0  0  0  0  0  0  0  0  0
   61.7320   33.2540   48.0850 C   0  0  0  0  0  0  0  0  0  0  0  0
   60.2540   33.5160   48.0090 C   0  0  0  0  0  0  0  0  0  0  0  0
   59.6230   32.9840   46.7790 N   0  0  0  0  0  0  0  0  0  0  0  0
   58.4540   32.1150   47.0270 C   0  0  0  0  0  0  0  0  0  0  0  0
   58.4500   30.9570   46.0490 C   0  0  0  0  0  0  0  0  0  0  0  0
   57.4430   30.9390   45.0650 C   0  0  0  0  0  0  0  0  0  0  0  0
   57.3600   29.8950   44.1430 C   0  0  0  0  0  0  0  0  0  0  0  0
   58.2750   28.8450   44.1930 C   0  0  0  0  0  0  0  0  0  0  0  0
   58.1890   27.8280   43.3000 F   0  0  0  0  0  0  0  0  0  0  0  0
   59.2770   28.8380   45.1650 C   0  0  0  0  0  0  0  0  0  0  0  0
   59.3850   29.8860   46.0960 C   0  0  0  0  0  0  0  0  0  0  0  0
   60.4810   29.8140   47.1310 C   0  0  0  0  0  0  0  0  0  0  0  0
   61.5930   30.6830   46.7520 N   0  0  0  0  0  0  0  0  0  0  0  0
   59.5120   33.9530   45.6550 C   0  0  0  0  0  0  0  0  0  0  0  0
   60.0080   35.3740   45.9990 C   0  0  0  0  0  0  0  0  0  0  0  0
   58.0660   33.9960   45.1500 C   0  0  0  0  0  0  0  0  0  0  0  0
   62.4990   33.0560   47.0350 O   0  0  0  0  0  0  0  0  0  0  0  0
   63.7310   32.8700   47.4020 N   0  0  0  0  0  0  0  0  0  0  0  0
   64.7523   32.7836   50.6294 H   0  0  0  0  0  0  0  0  0  0  0  0
   65.4317   31.7481   49.3283 H   0  0  0  0  0  0  0  0  0  0  0  0
   65.7513   33.5157   49.3283 H   0  0  0  0  0  0  0  0  0  0  0  0
   62.1923   33.3047   50.2739 H   0  0  0  0  0  0  0  0  0  0  0  0
   59.7718   33.0464   48.8790 H   0  0  0  0  0  0  0  0  0  0  0  0
   60.1187   34.6076   47.9964 H   0  0  0  0  0  0  0  0  0  0  0  0
   58.5026   31.7239   48.0540 H   0  0  0  0  0  0  0  0  0  0  0  0
   57.5336   32.7024   46.8938 H   0  0  0  0  0  0  0  0  0  0  0  0
   56.7115   31.7594   45.0225 H   0  0  0  0  0  0  0  0  0  0  0  0
   56.5716   29.9007   43.3759 H   0  0  0  0  0  0  0  0  0  0  0  0
   59.9910   28.0021   45.2030 H   0  0  0  0  0  0  0  0  0  0  0  0
   60.0831   30.1372   48.1043 H   0  0  0  0  0  0  0  0  0  0  0  0
   60.8431   28.7774   47.1979 H   0  0  0  0  0  0  0  0  0  0  0  0
   62.0660   30.9950   47.6300 H   0  0  0  0  0  0  0  0  0  0  0  0
   61.1970   31.5400   46.3040 H   0  0  0  0  0  0  0  0  0  0  0  0
   60.1820   33.5894   44.8619 H   0  0  0  0  0  0  0  0  0  0  0  0
   60.0496   35.4933   47.0917 H   0  0  0  0  0  0  0  0  0  0  0  0
   61.0118   35.5246   45.5752 H   0  0  0  0  0  0  0  0  0  0  0  0
   59.3159   36.1166   45.5752 H   0  0  0  0  0  0  0  0  0  0  0  0
   57.3783   34.0164   46.0083 H   0  0  0  0  0  0  0  0  0  0  0  0
   57.9175   34.8990   44.5396 H   0  0  0  0  0  0  0  0  0  0  0  0
   57.8641   33.1035   44.5396 H   0  0  0  0  0  0  0  0  0  0  0  0
   64.5270   32.6800   46.7540 H   0  0  0  0  0  0  0  0  0  0  0  0
  1  2  1  0
  2  3  1  0
  3  4  2  0
  4  5  1  0
  5  6  1  0
  6  7  1  0
  7  8  1  0
  8  9  2  0
  9 10  1  0
 10 11  2  0
 11 12  1  0
 11 13  1  0
 13 14  2  0
 14 15  1  0
 15 16  1  0
  6 17  1  0
 17 18  1  0
 17 19  1  0
  4 20  1  0
 20 21  1  0
 21  2  2  0
 14  8  1  0
  1 22  1  0
  1 23  1  0
  1 24  1  0
  3 25  1  0
  5 26  1  0
  5 27  1  0
  7 28  1  0
  7 29  1  0
  9 30  1  0
 10 31  1  0
 13 32  1  0
 15 33  1  0
 15 34  1  0
 16 35  1  0
 16 36  1  0
 17 37  1  0
 18 38  1  0
 18 39  1  0
 18 40  1  0
 19 41  1  0
 19 42  1  0
 19 43  1  0
 21 44  1  0
M  CHG  1  21   1
M  END
>  <UniqueID>  (44) 
38

>  <SMILES>  (44) 
Cc1cc(CN(Cc2ccc(F)cc2CN)C(C)C)o[nH+]1

>  <Energy>  (44) 
78.03733228595517

>  <Genealogy>  (44) 
Cc1cc(CN(Cc2ccc(F)cc2CN)C(C)C)o[nH+]1 (protonated)
Cc1cc(CN(Cc2ccc(F)cc2CN)C(C)C)o[nH+]1 (3D coordinates assigned)
Cc1cc(CN(Cc2ccc(F)cc2CN)C(C)C)o[nH+]1 (optimized conformer: 78.03733228595517 kcal/mol)

>  <smiles>  (44) 
Cc1cc(CN(Cc2ccc(F)cc2CN)C(C)C)on1

>  <score_type>  (44) 
oracle

>  <origin>  (44) 
adg

>  <m_score__min__energy>  (44) 
-6.4199999999999999

>  <m_primary>  (44) 
energy

$$$$
44:0
     RDKit          3D

 38 40  0  0  0  0  0  0  0  0999 V2000
   65.2139   33.6211   48.9981 H   0  0  0  0  0  0  0  0  0  0  0  0
   64.2890   33.2010   48.5760 C   0  0  0  0  0  0  0  0  0  0  0  0
   63.6900   32.0900   49.1740 C   0  0  0  0  0  0  0  0  0  0  0  0
   64.1446   31.6345   50.0661 H   0  0  0  0  0  0  0  0  0  0  0  0
   62.5130   31.5560   48.6400 C   0  0  0  0  0  0  0  0  0  0  0  0
   62.0496   30.6765   49.1109 H   0  0  0  0  0  0  0  0  0  0  0  0
   61.9170   32.1360   47.5040 C   0  0  0  0  0  0  0  0  0  0  0  0
   60.6710   31.5610   46.9390 C   0  0  0  0  0  0  0  0  0  0  0  0
   59.6480   32.2910   46.8240 O   0  0  0  0  0  0  0  0  0  0  0  0
   60.6310   30.2010   46.4760 N   0  0  0  0  0  0  0  0  0  0  0  0
   61.5220   29.7700   46.1400 H   0  0  0  0  0  0  0  0  0  0  0  0
   59.4140   29.4530   46.3020 C   0  0  0  0  0  0  0  0  0  0  0  0
   59.1360   28.3130   47.0770 C   0  0  0  0  0  0  0  0  0  0  0  0
   59.8506   27.9887   47.8479 H   0  0  0  0  0  0  0  0  0  0  0  0
   57.9570   27.5890   46.8740 C   0  0  0  0  0  0  0  0  0  0  0  0
   57.7511   26.6959   47.4823 H   0  0  0  0  0  0  0  0  0  0  0  0
   57.0330   27.9980   45.8950 C   0  0  0  0  0  0  0  0  0  0  0  0
   55.8250   27.2630   45.6320 N   0  0  0  0  0  0  0  0  0  0  0  0
   55.5610   26.0400   45.9920 C   0  0  0  0  0  0  0  0  0  0  0  0
   54.3950   25.4330   45.6370 N   0  0  0  0  0  0  0  0  0  0  0  0
   54.1280   24.1490   45.9960 C   0  0  0  0  0  0  0  0  0  0  0  0
   52.8390   23.5130   45.5830 C   0  0  0  0  0  0  0  0  0  0  0  0
   52.2661   23.2303   46.4785 H   0  0  0  0  0  0  0  0  0  0  0  0
   52.2540   24.2259   44.9834 H   0  0  0  0  0  0  0  0  0  0  0  0
   53.0488   22.6150   44.9834 H   0  0  0  0  0  0  0  0  0  0  0  0
   55.0740   23.4260   46.7280 C   0  0  0  0  0  0  0  0  0  0  0  0
   54.8808   22.3844   47.0242 H   0  0  0  0  0  0  0  0  0  0  0  0
   56.2690   24.0570   47.0740 C   0  0  0  0  0  0  0  0  0  0  0  0
   57.1460   23.4360   47.7310 O   0  0  0  0  0  0  0  0  0  0  0  0
   56.4900   25.3440   46.7000 N   0  0  0  0  0  0  0  0  0  0  0  0
   57.3370   29.1020   45.0890 C   0  0  0  0  0  0  0  0  0  0  0  0
   56.6431   29.4022   44.2900 H   0  0  0  0  0  0  0  0  0  0  0  0
   58.5150   29.8250   45.2920 C   0  0  0  0  0  0  0  0  0  0  0  0
   58.7392   30.6930   44.6545 H   0  0  0  0  0  0  0  0  0  0  0  0
   62.5360   33.2500   46.9050 C   0  0  0  0  0  0  0  0  0  0  0  0
   62.0906   33.7073   46.0092 H   0  0  0  0  0  0  0  0  0  0  0  0
   63.7140   33.7780   47.4430 C   0  0  0  0  0  0  0  0  0  0  0  0
   64.1889   34.6510   46.9715 H   0  0  0  0  0  0  0  0  0  0  0  0
  1  2  1  0
  2  3  2  0
  3  4  1  0
  3  5  1  0
  5  6  1  0
  5  7  2  0
  7  8  1  0
  8  9  2  0
  8 10  1  0
 10 11  1  0
 10 12  1  0
 12 13  2  0
 13 14  1  0
 13 15  1  0
 15 16  1  0
 15 17  2  0
 17 18  1  0
 18 19  2  0
 19 20  1  0
 20 21  1  0
 21 22  1  0
 22 23  1  0
 22 24  1  0
 22 25  1  0
 21 26  2  0
 26 27  1  0
 26 28  1  0
 28 29  2  0
 28 30  1  0
 17 31  1  0
 31 32  1  0
 31 33  2  0
 33 34  1  0
  7 35  1  0
 35 36  1  0
 35 37  2  0
 37 38  1  0
 37  2  1  0
 33 12  1  0
 30 19  1  0
M  CHG  2  20  -1  30  -1
M  END
>  <UniqueID>  (45) 
39

>  <SMILES>  (45) 
Cc1cc(=O)[n-]/c(=N/c2ccc(NC(=O)c3ccccc3)cc2)[n-]1

>  <Energy>  (45) 
52.32042032405924

>  <Genealogy>  (45) 
Cc1cc(=O)[n-]c(=Nc2ccc(NC(=O)c3ccccc3)cc2)[n-]1 (protonated)
Cc1cc(=O)[n-]/c(=N/c2ccc(NC(=O)c3ccccc3)cc2)[n-]1 (cis-trans isomerization)
Cc1cc(=O)[n-]/c(=N/c2ccc(NC(=O)c3ccccc3)cc2)[n-]1 (3D coordinates assigned)
Cc1cc(=O)[n-]/c(=N/c2ccc(NC(=O)c3ccccc3)cc2)[n-]1 (optimized conformer: 52.32042032405924 kcal/mol)

>  <smiles>  (45) 
Cc1cc(=O)[nH]c(=Nc2ccc(NC(=O)c3ccccc3)cc2)[nH]1

>  <score_type>  (45) 
oracle

>  <origin>  (45) 
adg

>  <m_score__min__energy>  (45) 
-11.09

>  <m_primary>  (45) 
energy

$$$$
45:0
     RDKit          3D

 62 65  0  0  0  0  0  0  0  0999 V2000
   57.8470   28.4730   53.8080 C   0  0  0  0  0  0  0  0  0  0  0  0
   58.4560   29.7260   53.5010 O   0  0  0  0  0  0  0  0  0  0  0  0
   58.9570   30.0790   52.2380 C   0  0  0  0  0  0  0  0  0  0  0  0
   60.3360   30.1250   51.9710 C   0  0  0  0  0  0  0  0  0  0  0  0
   60.8090   30.4710   50.7020 C   0  0  0  0  0  0  0  0  0  0  0  0
   62.5530   30.5180   50.4820 Cl  0  0  0  0  0  0  0  0  0  0  0  0
   59.9000   30.7510   49.6550 C   0  0  0  0  0  0  0  0  0  0  0  0
   60.3810   31.0280   48.2240 C   0  0  1  0  0  0  0  0  0  0  0  0
   59.9330   29.9050   47.3140 C   0  0  0  0  0  0  0  0  0  0  0  0
   60.5300   28.7980   47.4010 O   0  0  0  0  0  0  0  0  0  0  0  0
   58.8010   30.0640   46.4200 N   0  0  0  0  0  0  0  0  0  0  0  0
   58.2920   28.9410   45.6020 C   0  0  0  0  0  0  0  0  0  0  0  0
   57.9310   27.7210   46.4910 C   0  0  0  0  0  0  0  0  0  0  0  0
   58.1430   26.3720   45.7790 C   0  0  0  0  0  0  0  0  0  0  0  0
   57.7850   26.4660   44.2920 C   0  0  0  0  0  0  0  0  0  0  0  0
   58.6710   27.4850   43.5440 C   0  0  0  0  0  0  0  0  0  0  0  0
   59.2620   28.5780   44.4590 C   0  0  0  0  0  0  0  0  0  0  0  0
   58.0970   31.3560   46.3070 C   0  0  0  0  0  0  0  0  0  0  0  0
   58.5730   32.3440   47.3340 C   0  0  0  0  0  0  0  0  0  0  0  0
   57.7680   33.1050   47.8570 O   0  0  0  0  0  0  0  0  0  0  0  0
   59.9750   32.3560   47.6930 N   0  0  1  0  0  0  0  0  0  0  0  0
   60.3600   33.4640   48.6080 C   0  0  0  0  0  0  0  0  0  0  0  0
   61.8420   33.4570   48.9250 C   0  0  0  0  0  0  0  0  0  0  0  0
   62.7790   33.0850   47.9450 C   0  0  0  0  0  0  0  0  0  0  0  0
   64.1480   33.1050   48.2360 C   0  0  0  0  0  0  0  0  0  0  0  0
   64.5900   33.4690   49.5100 C   0  0  0  0  0  0  0  0  0  0  0  0
   65.9150   33.4590   49.7950 F   0  0  0  0  0  0  0  0  0  0  0  0
   63.6650   33.8270   50.4930 C   0  0  0  0  0  0  0  0  0  0  0  0
   62.2970   33.8410   50.2000 C   0  0  0  0  0  0  0  0  0  0  0  0
   58.5190   30.7130   49.9380 C   0  0  0  0  0  0  0  0  0  0  0  0
   58.0470   30.3880   51.2220 C   0  0  0  0  0  0  0  0  0  0  0  0
   56.6760   30.3360   51.5150 O   0  0  0  0  0  0  0  0  0  0  0  0
   55.9900   31.2820   52.3370 C   0  0  0  0  0  0  0  0  0  0  0  0
   57.7880   28.3517   54.8997 H   0  0  0  0  0  0  0  0  0  0  0  0
   56.8339   28.4432   53.3805 H   0  0  0  0  0  0  0  0  0  0  0  0
   58.4495   27.6580   53.3805 H   0  0  0  0  0  0  0  0  0  0  0  0
   61.0522   29.8857   52.7708 H   0  0  0  0  0  0  0  0  0  0  0  0
   61.4799   31.0645   48.2566 H   0  0  0  0  0  0  0  0  0  0  0  0
   57.3608   29.2711   45.1183 H   0  0  0  0  0  0  0  0  0  0  0  0
   58.5623   27.7448   47.3915 H   0  0  0  0  0  0  0  0  0  0  0  0
   56.8615   27.7984   46.7362 H   0  0  0  0  0  0  0  0  0  0  0  0
   59.1984   26.0776   45.8757 H   0  0  0  0  0  0  0  0  0  0  0  0
   57.4864   25.6244   46.2480 H   0  0  0  0  0  0  0  0  0  0  0  0
   57.9179   25.4757   43.8320 H   0  0  0  0  0  0  0  0  0  0  0  0
   56.7413   26.8050   44.2159 H   0  0  0  0  0  0  0  0  0  0  0  0
   59.5017   26.9417   43.0699 H   0  0  0  0  0  0  0  0  0  0  0  0
   58.0292   27.9921   42.8085 H   0  0  0  0  0  0  0  0  0  0  0  0
   60.2041   28.2110   44.8923 H   0  0  0  0  0  0  0  0  0  0  0  0
   59.4357   29.4796   43.8532 H   0  0  0  0  0  0  0  0  0  0  0  0
   58.2749   31.7716   45.3042 H   0  0  0  0  0  0  0  0  0  0  0  0
   57.0251   31.1767   46.4770 H   0  0  0  0  0  0  0  0  0  0  0  0
   60.5070   32.4880   46.7990 H   0  0  0  0  0  0  0  0  0  0  0  0
   60.1044   34.4219   48.1314 H   0  0  0  0  0  0  0  0  0  0  0  0
   59.8124   33.3275   49.5522 H   0  0  0  0  0  0  0  0  0  0  0  0
   62.4352   32.7773   46.9465 H   0  0  0  0  0  0  0  0  0  0  0  0
   64.8778   32.8333   47.4592 H   0  0  0  0  0  0  0  0  0  0  0  0
   64.0129   34.0988   51.5005 H   0  0  0  0  0  0  0  0  0  0  0  0
   61.5748   34.1532   50.9688 H   0  0  0  0  0  0  0  0  0  0  0  0
   57.7978   30.9418   49.1396 H   0  0  0  0  0  0  0  0  0  0  0  0
   56.1642   31.0417   53.3962 H   0  0  0  0  0  0  0  0  0  0  0  0
   56.3659   32.2936   52.1238 H   0  0  0  0  0  0  0  0  0  0  0  0
   54.9117   31.2391   52.1238 H   0  0  0  0  0  0  0  0  0  0  0  0
  1  2  1  0
  2  3  1  0
  3  4  2  0
  4  5  1  0
  5  6  1  0
  5  7  2  0
  7  8  1  0
  8  9  1  0
  9 10  2  0
  9 11  1  0
 11 12  1  0
 12 13  1  0
 13 14  1  0
 14 15  1  0
 15 16  1  0
 16 17  1  0
 11 18  1  0
 18 19  1  0
 19 20  2  0
 19 21  1  0
 21 22  1  0
 22 23  1  0
 23 24  2  0
 24 25  1  0
 25 26  2  0
 26 27  1  0
 26 28  1  0
 28 29  2  0
  7 30  1  0
 30 31  2  0
 31 32  1  0
 32 33  1  0
 31  3  1  0
 21  8  1  0
 29 23  1  0
 17 12  1  0
  1 34  1  0
  1 35  1  0
  1 36  1  0
  4 37  1  0
  8 38  1  1
 12 39  1  0
 13 40  1  0
 13 41  1  0
 14 42  1  0
 14 43  1  0
 15 44  1  0
 15 45  1  0
 16 46  1  0
 16 47  1  0
 17 48  1  0
 17 49  1  0
 18 50  1  0
 18 51  1  0
 21 52  1  6
 22 53  1  0
 22 54  1  0
 24 55  1  0
 25 56  1  0
 28 57  1  0
 29 58  1  0
 30 59  1  0
 33 60  1  0
 33 61  1  0
 33 62  1  0
M  CHG  1  21   1
M  END
>  <UniqueID>  (46) 
40

>  <SMILES>  (46) 
COc1cc(Cl)c([C@H]2C(=O)N(C3CCCCC3)CC(=O)[N@H+]2Cc2ccc(F)cc2)cc1OC

>  <Energy>  (46) 
79.9361092487695

>  <Genealogy>  (46) 
COc1cc(Cl)c(C2C(=O)N(C3CCCCC3)CC(=O)[NH+]2Cc2ccc(F)cc2)cc1OC (protonated)
COc1cc(Cl)c([C@H]2C(=O)N(C3CCCCC3)CC(=O)[N@H+]2Cc2ccc(F)cc2)cc1OC (chirality)
COc1cc(Cl)c([C@H]2C(=O)N(C3CCCCC3)CC(=O)[N@H+]2Cc2ccc(F)cc2)cc1OC (3D coordinates assigned)
COc1cc(Cl)c([C@H]2C(=O)N(C3CCCCC3)CC(=O)[N@H+]2Cc2ccc(F)cc2)cc1OC (nonaromatic ring conformer: 79.9361092487695 kcal/mol)

>  <smiles>  (46) 
COc1cc(Cl)c(C2C(=O)N(C3CCCCC3)CC(=O)N2Cc2ccc(F)cc2)cc1OC

>  <score_type>  (46) 
oracle

>  <origin>  (46) 
adg

>  <m_score__min__energy>  (46) 
-5.9199999999999999

>  <m_primary>  (46) 
energy

$$$$
46:0
     RDKit          3D

 44 47  0  0  1  0  0  0  0  0999 V2000
   56.6140   23.2980   48.0330 C   0  0  0  0  0  0  0  0  0  0  0  0
   56.2440   24.6340   47.7730 O   0  0  0  0  0  0  0  0  0  0  0  0
   56.9870   25.4880   46.9740 C   0  0  0  0  0  0  0  0  0  0  0  0
   57.9630   26.2920   47.4960 C   0  0  0  0  0  0  0  0  0  0  0  0
   58.6730   27.1310   46.6260 C   0  0  0  0  0  0  0  0  0  0  0  0
   59.6810   27.9540   47.2050 N   0  0  0  0  0  0  0  0  0  0  0  0
   59.4810   29.0770   47.7670 C   0  0  0  0  0  0  0  0  0  0  0  0
   59.9230   29.2600   49.0250 N   0  0  0  0  0  0  0  0  0  0  0  0
   59.7380   30.4280   49.6680 C   0  0  0  0  0  0  0  0  0  0  0  0
   59.0760   31.4400   48.9910 C   0  0  0  0  0  0  0  0  0  0  0  0
   58.6350   31.2100   47.6900 C   0  0  0  0  0  0  0  0  0  0  0  0
   58.0260   32.1840   47.1180 N   0  0  0  0  0  0  0  0  0  0  0  0
   58.0330   32.3090   45.6960 C   0  0  0  0  0  0  0  0  0  0  0  0
   58.6950   33.3670   45.1050 C   0  0  0  0  0  0  0  0  0  0  0  0
   59.5360   34.5780   46.0380 Cl  0  0  0  0  0  0  0  0  0  0  0  0
   58.6860   33.4630   43.7280 C   0  0  0  0  0  0  0  0  0  0  0  0
   58.0570   32.5690   42.9070 C   0  0  0  0  0  0  0  0  0  0  0  0
   57.3950   31.5090   43.5160 C   0  0  0  0  0  0  0  0  0  0  0  0
   57.3910   31.3920   44.8920 C   0  0  0  0  0  0  0  0  0  0  0  0
   56.6710   30.2660   45.2310 O   0  0  0  0  0  0  0  0  0  0  0  0
   56.1410   29.6930   44.0310 C   0  0  0  0  0  0  0  0  0  0  0  0
   56.6710   30.4490   42.9830 O   0  0  0  0  0  0  0  0  0  0  0  0
   58.8340   30.0320   47.0740 N   0  0  0  0  0  0  0  0  0  0  0  0
   58.3800   27.1320   45.2770 C   0  0  0  0  0  0  0  0  0  0  0  0
   59.2750   28.1850   44.1990 Cl  0  0  0  0  0  0  0  0  0  0  0  0
   57.4110   26.3240   44.8110 N   0  0  0  0  0  0  0  0  0  0  0  0
   56.7000   25.4990   45.6030 C   0  0  0  0  0  0  0  0  0  0  0  0
   55.6320   24.6080   45.0900 C   0  0  0  0  0  0  0  0  0  0  0  0
   54.4600   24.9360   45.7720 O   0  0  0  0  0  0  0  0  0  0  0  0
   56.6592   23.1349   49.1199 H   0  0  0  0  0  0  0  0  0  0  0  0
   55.8701   22.6189   47.5909 H   0  0  0  0  0  0  0  0  0  0  0  0
   57.6013   23.0983   47.5909 H   0  0  0  0  0  0  0  0  0  0  0  0
   58.1854   26.2804   48.5732 H   0  0  0  0  0  0  0  0  0  0  0  0
   60.4260   28.5110   49.5560 H   0  0  0  0  0  0  0  0  0  0  0  0
   60.1001   30.5743   50.6963 H   0  0  0  0  0  0  0  0  0  0  0  0
   58.9011   32.4123   49.4749 H   0  0  0  0  0  0  0  0  0  0  0  0
   59.2158   34.3081   43.2643 H   0  0  0  0  0  0  0  0  0  0  0  0
   58.0739   32.6833   41.8131 H   0  0  0  0  0  0  0  0  0  0  0  0
   56.4502   28.6413   43.9395 H   0  0  0  0  0  0  0  0  0  0  0  0
   55.0411   29.7085   44.0260 H   0  0  0  0  0  0  0  0  0  0  0  0
   58.4900   29.8700   46.0810 H   0  0  0  0  0  0  0  0  0  0  0  0
   55.4963   24.7651   44.0098 H   0  0  0  0  0  0  0  0  0  0  0  0
   55.8942   23.5516   45.2488 H   0  0  0  0  0  0  0  0  0  0  0  0
   54.6150   24.8630   46.7510 H   0  0  0  0  0  0  0  0  0  0  0  0
  1  2  1  0
  2  3  1  0
  3  4  2  0
  4  5  1  0
  5  6  1  0
  6  7  2  0
  7  8  1  0
  8  9  1  0
  9 10  2  0
 10 11  1  0
 11 12  2  0
 12 13  1  0
 13 14  2  0
 14 15  1  0
 14 16  1  0
 16 17  2  0
 17 18  1  0
 18 19  2  0
 19 20  1  0
 20 21  1  0
 21 22  1  0
 11 23  1  0
  5 24  2  0
 24 25  1  0
 24 26  1  0
 26 27  2  0
 27 28  1  0
 28 29  1  0
 27  3  1  0
 23  7  1  0
 19 13  1  0
 22 18  1  0
  1 30  1  0
  1 31  1  0
  1 32  1  0
  4 33  1  0
  8 34  1  0
  9 35  1  0
 10 36  1  0
 16 37  1  0
 17 38  1  0
 21 39  1  0
 21 40  1  0
 23 41  1  0
 28 42  1  0
 28 43  1  0
 29 44  1  0
M  END
>  <smiles>  (47) 
COc1cc(N=c2[nH]ccc(=Nc3c(Cl)ccc4c3OCO4)[nH]2)c(Cl)nc1CO

>  <score_type>  (47) 
oracle

>  <origin>  (47) 
adg

>  <m_score__min__energy>  (47) 
-8.1400000000000006

>  <m_primary>  (47) 
energy

$$$$
47:0
     RDKit          3D

 35 37  0  0  0  0  0  0  0  0999 V2000
   57.0808   21.4595   43.0798 H   0  0  0  0  0  0  0  0  0  0  0  0
   57.1160   22.3820   43.6780 C   0  0  0  0  0  0  0  0  0  0  0  0
   56.0620   23.2960   43.6160 C   0  0  0  0  0  0  0  0  0  0  0  0
   55.2011   23.0975   42.9607 H   0  0  0  0  0  0  0  0  0  0  0  0
   56.0990   24.4640   44.3860 C   0  0  0  0  0  0  0  0  0  0  0  0
   55.2752   25.1900   44.3212 H   0  0  0  0  0  0  0  0  0  0  0  0
   57.1860   24.7120   45.2420 C   0  0  0  0  0  0  0  0  0  0  0  0
   57.2780   25.9240   46.0050 N   0  0  0  0  0  0  0  0  0  0  0  0
   56.9040   27.1080   45.6150 C   0  0  0  0  0  0  0  0  0  0  0  0
   57.7630   28.0930   45.1890 C   0  0  0  0  0  0  0  0  0  0  0  0
   58.8561   28.0394   45.0783 H   0  0  0  0  0  0  0  0  0  0  0  0
   56.9270   29.1720   44.9310 C   0  0  0  0  0  0  0  0  0  0  0  0
   57.3280   30.5130   44.4400 C   0  0  0  0  0  0  0  0  0  0  0  0
   57.3300   30.7850   43.0630 C   0  0  0  0  0  0  0  0  0  0  0  0
   57.0340   30.0039   42.3473 H   0  0  0  0  0  0  0  0  0  0  0  0
   57.7090   32.0510   42.6010 C   0  0  0  0  0  0  0  0  0  0  0  0
   57.7150   32.3510   41.1350 C   0  0  0  0  0  0  0  0  0  0  0  0
   57.7368   33.4403   40.9837 H   0  0  0  0  0  0  0  0  0  0  0  0
   58.6043   31.8986   40.6718 H   0  0  0  0  0  0  0  0  0  0  0  0
   56.8083   31.9346   40.6718 H   0  0  0  0  0  0  0  0  0  0  0  0
   58.0760   33.0120   43.4900 N   0  0  0  0  0  0  0  0  0  0  0  0
   58.0870   32.7870   44.8310 C   0  0  0  0  0  0  0  0  0  0  0  0
   58.5000   33.8790   45.7650 C   0  0  0  0  0  0  0  0  0  0  0  0
   58.3721   33.5408   46.8039 H   0  0  0  0  0  0  0  0  0  0  0  0
   59.5559   34.1321   45.5891 H   0  0  0  0  0  0  0  0  0  0  0  0
   57.8758   34.7675   45.5891 H   0  0  0  0  0  0  0  0  0  0  0  0
   57.7130   31.5320   45.3290 C   0  0  0  0  0  0  0  0  0  0  0  0
   57.7205   31.3443   46.4128 H   0  0  0  0  0  0  0  0  0  0  0  0
   55.6490   28.8310   45.2110 N   0  0  0  0  0  0  0  0  0  0  0  0
   55.6400   27.5750   45.6280 N   0  0  0  0  0  0  0  0  0  0  0  0
   54.7790   27.0820   45.9490 H   0  0  0  0  0  0  0  0  0  0  0  0
   58.2560   23.8070   45.2730 C   0  0  0  0  0  0  0  0  0  0  0  0
   59.1306   24.0150   45.9069 H   0  0  0  0  0  0  0  0  0  0  0  0
   58.2170   22.6410   44.5020 C   0  0  0  0  0  0  0  0  0  0  0  0
   59.0525   21.9267   44.5433 H   0  0  0  0  0  0  0  0  0  0  0  0
  1  2  1  0
  2  3  2  0
  3  4  1  0
  3  5  1  0
  5  6  1  0
  5  7  2  0
  7  8  1  0
  8  9  2  0
  9 10  1  0
 10 11  1  0
 10 12  2  0
 12 13  1  0
 13 14  2  0
 14 15  1  0
 14 16  1  0
 16 17  1  0
 17 18  1  0
 17 19  1  0
 17 20  1  0
 16 21  2  0
 21 22  1  0
 22 23  1  0
 23 24  1  0
 23 25  1  0
 23 26  1  0
 22 27  2  0
 27 28  1  0
 12 29  1  0
 29 30  1  0
 30 31  1  0
  7 32  1  0
 32 33  1  0
 32 34  2  0
 34 35  1  0
 34  2  1  0
 30  9  1  0
 27 13  1  0
M  CHG  1  29  -1
M  END
>  <UniqueID>  (48) 
41

>  <SMILES>  (48) 
Cc1cc(-c2c/c(=N/c3ccccc3)[nH][n-]2)cc(C)n1

>  <Energy>  (48) 
74.7710910466998

>  <Genealogy>  (48) 
Cc1cc(-c2cc(=Nc3ccccc3)[nH][n-]2)cc(C)n1 (protonated)
Cc1cc(-c2c/c(=N/c3ccccc3)[nH][n-]2)cc(C)n1 (cis-trans isomerization)
Cc1cc(-c2c/c(=N/c3ccccc3)[nH][n-]2)cc(C)n1 (3D coordinates assigned)
Cc1cc(-c2c/c(=N/c3ccccc3)[nH][n-]2)cc(C)n1 (optimized conformer: 74.7710910466998 kcal/mol)

>  <smiles>  (48) 
Cc1cc(-c2cc(=Nc3ccccc3)[nH][nH]2)cc(C)n1

>  <score_type>  (48) 
oracle

>  <origin>  (48) 
adg

>  <m_score__min__energy>  (48) 
-9.8499999999999996

>  <m_primary>  (48) 
energy

$$$$
48:0
     RDKit          3D

 35 36  0  0  0  0  0  0  0  0999 V2000
   55.8150   27.9350   44.6950 H   0  0  0  0  0  0  0  0  0  0  0  0
   55.6710   28.9550   44.8740 N   0  0  0  0  0  0  0  0  0  0  0  0
   56.6460   29.7530   45.1750 C   0  0  0  0  0  0  0  0  0  0  0  0
   56.5480   31.0700   44.8660 N   0  0  0  0  0  0  0  0  0  0  0  0
   57.5350   31.9600   45.1580 C   0  0  0  0  0  0  0  0  0  0  0  0
   57.3700   33.2990   44.7980 C   0  0  0  0  0  0  0  0  0  0  0  0
   56.4442   33.6234   44.3004 H   0  0  0  0  0  0  0  0  0  0  0  0
   58.3730   34.2230   45.0670 C   0  0  0  0  0  0  0  0  0  0  0  0
   58.2449   35.2733   44.7661 H   0  0  0  0  0  0  0  0  0  0  0  0
   59.5400   33.8250   45.7160 C   0  0  0  0  0  0  0  0  0  0  0  0
   60.3296   34.5659   45.9099 H   0  0  0  0  0  0  0  0  0  0  0  0
   59.7270   32.4920   46.1280 C   0  0  0  0  0  0  0  0  0  0  0  0
   61.0230   32.1530   46.8540 C   0  0  0  0  0  0  0  0  0  0  0  0
   60.9038   31.1660   47.3248 H   0  0  0  0  0  0  0  0  0  0  0  0
   61.8193   32.1777   46.0955 H   0  0  0  0  0  0  0  0  0  0  0  0
   61.4170   33.1230   47.9070 N   0  0  0  0  0  0  0  0  0  0  0  0
   60.6680   33.0620   49.1820 C   0  0  0  0  0  0  0  0  0  0  0  0
   60.1247   32.1068   49.2315 H   0  0  0  0  0  0  0  0  0  0  0  0
   61.3885   33.1474   50.0087 H   0  0  0  0  0  0  0  0  0  0  0  0
   59.6660   34.2090   49.3010 C   0  0  0  0  0  0  0  0  0  0  0  0
   59.4787   34.4235   50.3635 H   0  0  0  0  0  0  0  0  0  0  0  0
   60.0753   35.1056   48.8126 H   0  0  0  0  0  0  0  0  0  0  0  0
   58.7225   33.9238   48.8126 H   0  0  0  0  0  0  0  0  0  0  0  0
   62.8730   33.3420   48.0640 C   0  0  0  0  0  0  0  0  0  0  0  0
   63.0303   34.3714   48.4183 H   0  0  0  0  0  0  0  0  0  0  0  0
   63.2303   32.5850   48.7776 H   0  0  0  0  0  0  0  0  0  0  0  0
   63.6840   33.1480   46.7740 C   0  0  0  0  0  0  0  0  0  0  0  0
   64.7247   32.8991   47.0291 H   0  0  0  0  0  0  0  0  0  0  0  0
   63.2451   32.3295   46.1846 H   0  0  0  0  0  0  0  0  0  0  0  0
   63.6630   34.0765   46.1846 H   0  0  0  0  0  0  0  0  0  0  0  0
   58.7190   31.5310   45.8140 C   0  0  0  0  0  0  0  0  0  0  0  0
   58.8300   30.1590   46.1230 C   0  0  0  0  0  0  0  0  0  0  0  0
   59.7383   29.7828   46.6163 H   0  0  0  0  0  0  0  0  0  0  0  0
   57.7970   29.2750   45.8080 C   0  0  0  0  0  0  0  0  0  0  0  0
   57.8881   28.2073   46.0566 H   0  0  0  0  0  0  0  0  0  0  0  0
  1  2  1  0
  2  3  2  0
  3  4  1  0
  4  5  1  0
  5  6  2  0
  6  7  1  0
  6  8  1  0
  8  9  1  0
  8 10  2  0
 10 11  1  0
 10 12  1  0
 12 13  1  0
 13 14  1  0
 13 15  1  0
 13 16  1  0
 16 17  1  0
 17 18  1  0
 17 19  1  0
 17 20  1  0
 20 21  1  0
 20 22  1  0
 20 23  1  0
 16 24  1  0
 24 25  1  0
 24 26  1  0
 24 27  1  0
 27 28  1  0
 27 29  1  0
 27 30  1  0
 12 31  2  0
 31 32  1  0
 32 33  1  0
 32 34  2  0
 34 35  1  0
 34  3  1  0
 31  5  1  0
M  CHG  1   4  -1
M  END
>  <UniqueID>  (49) 
42

>  <SMILES>  (49) 
[H]/N=c1\ccc2c(CN(CC)CC)cccc2[n-]1

>  <Energy>  (49) 
47.92589952181986

>  <Genealogy>  (49) 
CCN(CC)Cc1cccc2[n-]c(=N)ccc12 (protonated)
[H]/N=c1\ccc2c(CN(CC)CC)cccc2[n-]1 (cis-trans isomerization)
[H]/N=c1\ccc2c(CN(CC)CC)cccc2[n-]1 (3D coordinates assigned)
[H]/N=c1\ccc2c(CN(CC)CC)cccc2[n-]1 (optimized conformer: 47.92589952181986 kcal/mol)

>  <smiles>  (49) 
CCN(CC)Cc1cccc2[nH]c(=N)ccc12

>  <score_type>  (49) 
oracle

>  <origin>  (49) 
adg

>  <m_score__min__energy>  (49) 
-8.5899999999999999

>  <m_primary>  (49) 
energy

$$$$
49:0
     RDKit          3D

 44 47  0  0  0  0  0  0  0  0999 V2000
   60.9979   26.5760   47.9447 H   0  0  0  0  0  0  0  0  0  0  0  0
   60.2960   27.4230   47.9380 C   0  0  0  0  0  0  0  0  0  0  0  0
   60.1560   28.2210   49.0760 C   0  0  0  0  0  0  0  0  0  0  0  0
   60.7572   28.0089   49.9724 H   0  0  0  0  0  0  0  0  0  0  0  0
   59.2480   29.2950   49.0780 C   0  0  0  0  0  0  0  0  0  0  0  0
   59.0820   30.1380   50.2270 N   0  0  0  0  0  0  0  0  0  0  0  0
   58.6030   31.4900   50.2230 C   0  0  0  0  0  0  0  0  0  0  0  0
   57.8960   31.8810   51.1880 O   0  0  0  0  0  0  0  0  0  0  0  0
   58.9610   32.4480   49.1490 C   0  0  0  0  0  0  0  0  0  0  0  0
   60.1280   33.2220   49.2580 C   0  0  0  0  0  0  0  0  0  0  0  0
   60.7750   33.1103   50.1405 H   0  0  0  0  0  0  0  0  0  0  0  0
   60.4750   34.1320   48.2570 C   0  0  0  0  0  0  0  0  0  0  0  0
   61.3885   34.7364   48.3586 H   0  0  0  0  0  0  0  0  0  0  0  0
   59.6640   34.2780   47.1240 C   0  0  0  0  0  0  0  0  0  0  0  0
   60.0010   35.1920   46.1140 C   0  0  0  0  0  0  0  0  0  0  0  0
   60.9095   35.8049   46.2090 H   0  0  0  0  0  0  0  0  0  0  0  0
   59.1840   35.3250   44.9870 C   0  0  0  0  0  0  0  0  0  0  0  0
   59.4507   36.0446   44.1989 H   0  0  0  0  0  0  0  0  0  0  0  0
   58.0310   34.5480   44.8580 C   0  0  0  0  0  0  0  0  0  0  0  0
   57.3937   34.6560   43.9679 H   0  0  0  0  0  0  0  0  0  0  0  0
   57.6840   33.6330   45.8570 C   0  0  0  0  0  0  0  0  0  0  0  0
   56.7746   33.0233   45.7510 H   0  0  0  0  0  0  0  0  0  0  0  0
   58.4940   33.4910   46.9950 C   0  0  0  0  0  0  0  0  0  0  0  0
   58.1560   32.5760   48.0030 C   0  0  0  0  0  0  0  0  0  0  0  0
   57.2549   31.9542   47.8963 H   0  0  0  0  0  0  0  0  0  0  0  0
   58.5170   29.5800   47.9180 C   0  0  0  0  0  0  0  0  0  0  0  0
   57.8247   30.4347   47.9052 H   0  0  0  0  0  0  0  0  0  0  0  0
   58.6610   28.7840   46.7730 C   0  0  0  0  0  0  0  0  0  0  0  0
   57.7310   29.1330   45.3190 S   0  0  0  0  0  0  0  0  0  0  0  0
   57.3870   30.5950   45.2990 O   0  0  0  0  0  0  0  0  0  0  0  0
   58.5280   28.7990   44.0890 O   0  0  0  0  0  0  0  0  0  0  0  0
   56.2690   28.2020   45.3130 N   0  0  0  0  0  0  0  0  0  0  0  0
   56.2280   26.9480   45.6410 C   0  0  0  0  0  0  0  0  0  0  0  0
   55.1580   26.3360   46.1860 N   0  0  0  0  0  0  0  0  0  0  0  0
   55.5020   25.0920   46.3600 O   0  0  0  0  0  0  0  0  0  0  0  0
   56.7350   24.8810   45.9550 C   0  0  0  0  0  0  0  0  0  0  0  0
   57.4250   23.5600   45.9960 C   0  0  0  0  0  0  0  0  0  0  0  0
   57.5815   23.2604   47.0428 H   0  0  0  0  0  0  0  0  0  0  0  0
   56.8052   22.8067   45.4877 H   0  0  0  0  0  0  0  0  0  0  0  0
   58.3974   23.6383   45.4877 H   0  0  0  0  0  0  0  0  0  0  0  0
   57.2640   26.0590   45.4700 C   0  0  0  0  0  0  0  0  0  0  0  0
   58.2645   26.2420   45.0511 H   0  0  0  0  0  0  0  0  0  0  0  0
   59.5470   27.6980   46.7920 C   0  0  0  0  0  0  0  0  0  0  0  0
   59.6526   27.0606   45.9017 H   0  0  0  0  0  0  0  0  0  0  0  0
  1  2  1  0
  2  3  2  0
  3  4  1  0
  3  5  1  0
  5  6  1  0
  6  7  1  0
  7  8  2  0
  7  9  1  0
  9 10  2  0
 10 11  1  0
 10 12  1  0
 12 13  1  0
 12 14  2  0
 14 15  1  0
 15 16  1  0
 15 17  2  0
 17 18  1  0
 17 19  1  0
 19 20  1  0
 19 21  2  0
 21 22  1  0
 21 23  1  0
 23 24  2  0
 24 25  1  0
  5 26  2  0
 26 27  1  0
 26 28  1  0
 28 29  1  0
 29 30  2  0
 29 31  2  0
 29 32  1  0
 32 33  2  0
 33 34  1  0
 34 35  1  0
 35 36  1  0
 36 37  1  0
 37 38  1  0
 37 39  1  0
 37 40  1  0
 36 41  2  0
 41 42  1  0
 28 43  2  0
 43 44  1  0
 43  2  1  0
 24  9  1  0
 41 33  1  0
 23 14  1  0
M  CHG  2   6  -1  34  -1
M  END
>  <UniqueID>  (50) 
43

>  <SMILES>  (50) 
Cc1c/c(=N/S(=O)(=O)c2cccc([N-]C(=O)c3ccc4ccccc4c3)c2)[n-]o1

>  <Energy>  (50) 
90.75435424738926

>  <Genealogy>  (50) 
Cc1cc(=NS(=O)(=O)c2cccc([N-]C(=O)c3ccc4ccccc4c3)c2)[n-]o1 (protonated)
Cc1c/c(=N/S(=O)(=O)c2cccc([N-]C(=O)c3ccc4ccccc4c3)c2)[n-]o1 (cis-trans isomerization)
Cc1c/c(=N/S(=O)(=O)c2cccc([N-]C(=O)c3ccc4ccccc4c3)c2)[n-]o1 (3D coordinates assigned)
Cc1c/c(=N/S(=O)(=O)c2cccc([N-]C(=O)c3ccc4ccccc4c3)c2)[n-]o1 (optimized conformer: 90.75435424738926 kcal/mol)

>  <smiles>  (50) 
Cc1cc(=NS(=O)(=O)c2cccc(NC(=O)c3ccc4ccccc4c3)c2)[nH]o1

>  <score_type>  (50) 
oracle

>  <origin>  (50) 
adg

>  <m_score__min__energy>  (50) 
-13.56

>  <m_primary>  (50) 
energy

$$$$
50:0
     RDKit          3D

 32 32  0  0  0  0  0  0  0  0999 V2000
   58.1490   27.1170   43.5440 C   0  0  0  0  0  0  0  0  0  0  0  0
   57.9400   27.6700   44.7400 C   0  0  0  0  0  0  0  0  0  0  0  0
   58.6640   28.9190   45.1760 C   0  0  0  0  0  0  0  0  0  0  0  0
   58.6820   29.9490   44.1240 N   0  0  0  0  0  0  0  0  0  0  0  0
   57.4010   30.6070   44.0060 C   0  0  0  0  0  0  0  0  0  0  0  0
   56.3120   30.0660   42.9030 S   0  0  0  0  0  0  0  0  0  0  0  0
   56.9610   31.5500   44.9980 N   0  0  0  0  0  0  0  0  0  0  0  0
   57.8450   32.4100   45.7310 C   0  0  0  0  0  0  0  0  0  0  0  0
   58.3010   33.6150   45.1770 C   0  0  0  0  0  0  0  0  0  0  0  0
   59.1300   34.4700   45.9180 C   0  0  0  0  0  0  0  0  0  0  0  0
   59.6470   35.7380   45.3050 C   0  0  0  0  0  0  0  0  0  0  0  0
   59.5190   34.1030   47.2150 C   0  0  0  0  0  0  0  0  0  0  0  0
   59.0590   32.9040   47.7810 C   0  0  0  0  0  0  0  0  0  0  0  0
   59.4280   32.5450   49.1900 C   0  0  0  0  0  0  0  0  0  0  0  0
   58.2010   32.0750   47.0440 C   0  0  0  0  0  0  0  0  0  0  0  0
   57.6043   26.2055   43.2567 H   0  0  0  0  0  0  0  0  0  0  0  0
   58.8660   27.5725   42.8451 H   0  0  0  0  0  0  0  0  0  0  0  0
   57.2197   27.2020   45.4271 H   0  0  0  0  0  0  0  0  0  0  0  0
   58.1601   29.3286   46.0638 H   0  0  0  0  0  0  0  0  0  0  0  0
   59.7061   28.6448   45.3971 H   0  0  0  0  0  0  0  0  0  0  0  0
   58.9590   29.5230   43.2080 H   0  0  0  0  0  0  0  0  0  0  0  0
   59.4170   30.6510   44.3610 H   0  0  0  0  0  0  0  0  0  0  0  0
   55.9440   31.5740   45.2380 H   0  0  0  0  0  0  0  0  0  0  0  0
   58.0064   33.8916   44.1539 H   0  0  0  0  0  0  0  0  0  0  0  0
   59.9333   36.4403   46.1018 H   0  0  0  0  0  0  0  0  0  0  0  0
   60.5250   35.5126   44.6819 H   0  0  0  0  0  0  0  0  0  0  0  0
   58.8617   36.1908   44.6819 H   0  0  0  0  0  0  0  0  0  0  0  0
   60.1882   34.7586   47.7915 H   0  0  0  0  0  0  0  0  0  0  0  0
   58.8200   33.1365   49.8903 H   0  0  0  0  0  0  0  0  0  0  0  0
   59.2410   31.4739   49.3564 H   0  0  0  0  0  0  0  0  0  0  0  0
   60.4936   32.7614   49.3564 H   0  0  0  0  0  0  0  0  0  0  0  0
   57.8049   31.1556   47.4998 H   0  0  0  0  0  0  0  0  0  0  0  0
  1  2  2  0
  2  3  1  0
  3  4  1  0
  4  5  1  0
  5  6  2  0
  5  7  1  0
  7  8  1  0
  8  9  2  0
  9 10  1  0
 10 11  1  0
 10 12  2  0
 12 13  1  0
 13 14  1  0
 13 15  2  0
 15  8  1  0
  1 16  1  0
  1 17  1  0
  2 18  1  0
  3 19  1  0
  3 20  1  0
  4 21  1  0
  4 22  1  0
  7 23  1  0
  9 24  1  0
 11 25  1  0
 11 26  1  0
 11 27  1  0
 12 28  1  0
 14 29  1  0
 14 30  1  0
 14 31  1  0
 15 32  1  0
M  CHG  1   4   1
M  END
>  <UniqueID>  (51) 
44

>  <SMILES>  (51) 
C=CC[NH2+]C(=S)Nc1cc(C)cc(C)c1

>  <Energy>  (51) 
30.634065011759876

>  <Genealogy>  (51) 
C=CC[NH2+]C(=S)Nc1cc(C)cc(C)c1 (protonated)
C=CC[NH2+]C(=S)Nc1cc(C)cc(C)c1 (3D coordinates assigned)
C=CC[NH2+]C(=S)Nc1cc(C)cc(C)c1 (optimized conformer: 30.634065011759876 kcal/mol)

>  <smiles>  (51) 
C=CCNC(=S)Nc1cc(C)cc(C)c1

>  <score_type>  (51) 
oracle

>  <origin>  (51) 
adg

>  <m_score__min__energy>  (51) 
-4.4000000000000004

>  <m_primary>  (51) 
energy

$$$$
51:0
     RDKit          3D

 66 71  0  0  0  0  0  0  0  0999 V2000
   58.5700   32.0500   54.2340 C   0  0  0  0  0  0  0  0  0  0  0  0
   58.7820   31.5480   52.8650 N   0  0  0  0  0  0  0  0  0  0  0  0
   60.0350   32.0950   52.3100 C   0  0  0  0  0  0  0  0  0  0  0  0
   60.3430   31.4820   50.9260 C   0  0  0  0  0  0  0  0  0  0  0  0
   59.1270   31.1500   50.1440 N   0  0  0  0  0  0  0  0  0  0  0  0
   58.8050   29.7040   50.1430 C   0  0  0  0  0  0  0  0  0  0  0  0
   59.6290   28.9820   49.0750 C   0  0  0  0  0  0  0  0  0  0  0  0
   59.0350   29.1760   47.7490 N   0  0  0  0  0  0  0  0  0  0  0  0
   58.3450   28.2620   47.0270 C   0  0  0  0  0  0  0  0  0  0  0  0
   57.8730   28.8010   45.8470 C   0  0  0  0  0  0  0  0  0  0  0  0
   58.2440   30.1240   45.8630 C   0  0  0  0  0  0  0  0  0  0  0  0
   58.0060   31.1520   44.9550 C   0  0  0  0  0  0  0  0  0  0  0  0
   58.5070   32.4280   45.2640 C   0  0  0  0  0  0  0  0  0  0  0  0
   59.2240   32.6490   46.4630 C   0  0  0  0  0  0  0  0  0  0  0  0
   59.8550   34.2470   46.8370 S   0  0  0  0  0  0  0  0  0  0  0  0
   59.9830   35.0610   45.5780 O   0  0  0  0  0  0  0  0  0  0  0  0
   58.9110   34.9620   47.7640 O   0  0  0  0  0  0  0  0  0  0  0  0
   61.4320   34.0760   47.6000 C   0  0  0  0  0  0  0  0  0  0  0  0
   61.5710   34.2790   48.9810 C   0  0  0  0  0  0  0  0  0  0  0  0
   62.8200   34.1230   49.5910 C   0  0  0  0  0  0  0  0  0  0  0  0
   63.9330   33.7600   48.8260 C   0  0  0  0  0  0  0  0  0  0  0  0
   63.7970   33.5480   47.4510 C   0  0  0  0  0  0  0  0  0  0  0  0
   62.5490   33.7030   46.8370 C   0  0  0  0  0  0  0  0  0  0  0  0
   59.4600   31.5840   47.3560 C   0  0  0  0  0  0  0  0  0  0  0  0
   58.9500   30.3240   47.0310 C   0  0  0  0  0  0  0  0  0  0  0  0
   57.0650   27.9980   44.8610 C   0  0  0  0  0  0  0  0  0  0  0  0
   57.0620   26.4940   45.3030 C   0  0  1  0  0  0  0  0  0  0  0  0
   58.4460   25.8510   45.1000 C   0  0  0  0  0  0  0  0  0  0  0  0
   59.1400   25.9910   46.4610 C   0  0  0  0  0  0  0  0  0  0  0  0
   58.1440   26.7870   47.3030 C   0  0  2  0  0  0  0  0  0  0  0  0
   56.8390   26.3980   46.7540 N   0  0  0  0  0  0  0  0  0  0  0  0
   57.9770   31.9950   50.5100 C   0  0  0  0  0  0  0  0  0  0  0  0
   57.6130   31.8710   52.0070 C   0  0  0  0  0  0  0  0  0  0  0  0
   58.8921   31.2873   54.9582 H   0  0  0  0  0  0  0  0  0  0  0  0
   59.1572   32.9682   54.3829 H   0  0  0  0  0  0  0  0  0  0  0  0
   57.5024   32.2693   54.3829 H   0  0  0  0  0  0  0  0  0  0  0  0
   58.8760   30.5080   52.9360 H   0  0  0  0  0  0  0  0  0  0  0  0
   59.9362   33.1856   52.2062 H   0  0  0  0  0  0  0  0  0  0  0  0
   60.8592   31.8455   52.9945 H   0  0  0  0  0  0  0  0  0  0  0  0
   60.9412   32.2037   50.3505 H   0  0  0  0  0  0  0  0  0  0  0  0
   60.8831   30.5399   51.1014 H   0  0  0  0  0  0  0  0  0  0  0  0
   59.0373   29.2790   51.1306 H   0  0  0  0  0  0  0  0  0  0  0  0
   57.7355   29.5737   49.9213 H   0  0  0  0  0  0  0  0  0  0  0  0
   60.6530   29.3838   49.0751 H   0  0  0  0  0  0  0  0  0  0  0  0
   59.6433   27.9062   49.3041 H   0  0  0  0  0  0  0  0  0  0  0  0
   57.4444   30.9715   44.0265 H   0  0  0  0  0  0  0  0  0  0  0  0
   58.3400   33.2625   44.5671 H   0  0  0  0  0  0  0  0  0  0  0  0
   60.6963   34.5613   49.5853 H   0  0  0  0  0  0  0  0  0  0  0  0
   62.9269   34.2860   50.6736 H   0  0  0  0  0  0  0  0  0  0  0  0
   64.9155   33.6413   49.3063 H   0  0  0  0  0  0  0  0  0  0  0  0
   64.6723   33.2589   46.8507 H   0  0  0  0  0  0  0  0  0  0  0  0
   62.4436   33.5323   45.7554 H   0  0  0  0  0  0  0  0  0  0  0  0
   60.0302   31.7405   48.2836 H   0  0  0  0  0  0  0  0  0  0  0  0
   56.0325   28.3765   44.8363 H   0  0  0  0  0  0  0  0  0  0  0  0
   57.5085   28.0883   43.8584 H   0  0  0  0  0  0  0  0  0  0  0  0
   56.2819   25.9979   44.7070 H   0  0  0  0  0  0  0  0  0  0  0  0
   58.3451   24.7914   44.8225 H   0  0  0  0  0  0  0  0  0  0  0  0
   59.0147   26.3310   44.2900 H   0  0  0  0  0  0  0  0  0  0  0  0
   59.3282   25.0035   46.9075 H   0  0  0  0  0  0  0  0  0  0  0  0
   60.1211   26.4831   46.3876 H   0  0  0  0  0  0  0  0  0  0  0  0
   58.2456   26.6033   48.3828 H   0  0  0  0  0  0  0  0  0  0  0  0
   56.0840   27.0550   47.0670 H   0  0  0  0  0  0  0  0  0  0  0  0
   58.2249   33.0442   50.2916 H   0  0  0  0  0  0  0  0  0  0  0  0
   57.1101   31.6574   49.9231 H   0  0  0  0  0  0  0  0  0  0  0  0
   57.1847   32.8266   52.3437 H   0  0  0  0  0  0  0  0  0  0  0  0
   56.8960   31.0424   52.1032 H   0  0  0  0  0  0  0  0  0  0  0  0
  1  2  1  0
  2  3  1  0
  3  4  1  0
  4  5  1  0
  5  6  1  0
  6  7  1  0
  7  8  1  0
  8  9  1  0
  9 10  2  0
 10 11  1  0
 11 12  2  0
 12 13  1  0
 13 14  2  0
 14 15  1  0
 15 16  2  0
 15 17  2  0
 15 18  1  0
 18 19  2  0
 19 20  1  0
 20 21  2  0
 21 22  1  0
 22 23  2  0
 14 24  1  0
 24 25  2  0
 10 26  1  0
 26 27  1  0
 27 28  1  0
 28 29  1  0
 29 30  1  0
 30 31  1  0
  5 32  1  0
 32 33  1  0
 33  2  1  0
 25  8  1  0
 31 27  1  0
 30  9  1  0
 25 11  1  0
 23 18  1  0
  1 34  1  0
  1 35  1  0
  1 36  1  0
  2 37  1  0
  3 38  1  0
  3 39  1  0
  4 40  1  0
  4 41  1  0
  6 42  1  0
  6 43  1  0
  7 44  1  0
  7 45  1  0
 12 46  1  0
 13 47  1  0
 19 48  1  0
 20 49  1  0
 21 50  1  0
 22 51  1  0
 23 52  1  0
 24 53  1  0
 26 54  1  0
 26 55  1  0
 27 56  1  6
 28 57  1  0
 28 58  1  0
 29 59  1  0
 29 60  1  0
 30 61  1  1
 31 62  1  0
 32 63  1  0
 32 64  1  0
 33 65  1  0
 33 66  1  0
M  CHG  1   2   1
M  END
>  <UniqueID>  (52) 
45

>  <SMILES>  (52) 
C[NH+]1CCN(CCn2c3c(c4ccc(S(=O)(=O)c5ccccc5)cc42)C[C@H]2CC[C@@H]3N2)CC1

>  <Energy>  (52) 
130.65092489915014

>  <Genealogy>  (52) 
C[NH+]1CCN(CCn2c3c(c4ccc(S(=O)(=O)c5ccccc5)cc42)CC2CCC3N2)CC1 (protonated)
C[NH+]1CCN(CCn2c3c(c4ccc(S(=O)(=O)c5ccccc5)cc42)C[C@H]2CC[C@@H]3N2)CC1 (chirality)
C[NH+]1CCN(CCn2c3c(c4ccc(S(=O)(=O)c5ccccc5)cc42)C[C@H]2CC[C@@H]3N2)CC1 (3D coordinates assigned)
C[NH+]1CCN(CCn2c3c(c4ccc(S(=O)(=O)c5ccccc5)cc42)C[C@H]2CC[C@@H]3N2)CC1 (nonaromatic ring conformer: 130.65092489915014 kcal/mol)

>  <smiles>  (52) 
CN1CCN(CCn2c3c(c4ccc(S(=O)(=O)c5ccccc5)cc42)CC2CCC3N2)CC1

>  <score_type>  (52) 
oracle

>  <origin>  (52) 
adg

>  <m_score__min__energy>  (52) 
-8.7200000000000006

>  <m_primary>  (52) 
energy

$$$$
52:0
     RDKit          3D

 45 47  0  0  0  0  0  0  0  0999 V2000
   60.9200   31.1120   47.6970 O   0  0  0  0  0  0  0  0  0  0  0  0
   59.8060   31.6540   47.7400 C   0  0  0  0  0  0  0  0  0  0  0  0
   58.9660   31.3220   48.9140 C   0  0  0  0  0  0  0  0  0  0  0  0
   58.9270   30.0440   49.4350 C   0  0  0  0  0  0  0  0  0  0  0  0
   58.1590   29.7450   50.4990 N   0  0  0  0  0  0  0  0  0  0  0  0
   57.3950   30.7080   51.0890 C   0  0  0  0  0  0  0  0  0  0  0  0
   56.6970   30.3210   52.0970 N   0  0  0  0  0  0  0  0  0  0  0  0
   55.3100   30.4090   52.2520 C   0  0  0  0  0  0  0  0  0  0  0  0
   54.7850   30.0450   53.4970 C   0  0  0  0  0  0  0  0  0  0  0  0
   53.4330   30.0930   53.7540 C   0  0  0  0  0  0  0  0  0  0  0  0
   52.5390   30.5050   52.7860 C   0  0  0  0  0  0  0  0  0  0  0  0
   51.1020   30.5470   53.0790 C   0  0  0  0  0  0  0  0  0  0  0  0
   50.5930   31.9550   52.9610 C   0  0  0  0  0  0  0  0  0  0  0  0
   50.5870   32.3440   51.6220 O   0  0  0  0  0  0  0  0  0  0  0  0
   53.0630   30.8710   51.5420 C   0  0  0  0  0  0  0  0  0  0  0  0
   54.4210   30.8210   51.2840 C   0  0  0  0  0  0  0  0  0  0  0  0
   57.4040   31.9650   50.6130 N   0  0  0  0  0  0  0  0  0  0  0  0
   58.1810   32.2740   49.5350 C   0  0  0  0  0  0  0  0  0  0  0  0
   59.2390   32.5720   46.7730 C   0  0  0  0  0  0  0  0  0  0  0  0
   59.8260   33.8300   46.7050 C   0  0  0  0  0  0  0  0  0  0  0  0
   59.3880   34.8230   45.8590 C   0  0  0  0  0  0  0  0  0  0  0  0
   58.3240   34.5500   45.0500 C   0  0  0  0  0  0  0  0  0  0  0  0
   57.7320   33.3100   45.1040 C   0  0  0  0  0  0  0  0  0  0  0  0
   58.1800   32.2980   45.9660 C   0  0  0  0  0  0  0  0  0  0  0  0
   57.5010   31.1160   45.9110 O   0  0  0  0  0  0  0  0  0  0  0  0
   57.3620   30.2280   44.8530 C   0  0  0  0  0  0  0  0  0  0  0  0
   58.1750   29.1290   45.0740 F   0  0  0  0  0  0  0  0  0  0  0  0
   56.0580   29.6890   44.8310 F   0  0  0  0  0  0  0  0  0  0  0  0
   57.5470   30.7530   43.6030 F   0  0  0  0  0  0  0  0  0  0  0  0
   59.5360   29.2541   48.9710 H   0  0  0  0  0  0  0  0  0  0  0  0
   55.4699   29.7120   54.2908 H   0  0  0  0  0  0  0  0  0  0  0  0
   53.0595   29.7985   54.7459 H   0  0  0  0  0  0  0  0  0  0  0  0
   50.5659   29.9051   52.3644 H   0  0  0  0  0  0  0  0  0  0  0  0
   50.9327   30.1874   54.1047 H   0  0  0  0  0  0  0  0  0  0  0  0
   49.5699   32.0083   53.3614 H   0  0  0  0  0  0  0  0  0  0  0  0
   51.2497   32.6278   53.5319 H   0  0  0  0  0  0  0  0  0  0  0  0
   50.4650   31.5390   51.0780 H   0  0  0  0  0  0  0  0  0  0  0  0
   52.3783   31.2069   50.7493 H   0  0  0  0  0  0  0  0  0  0  0  0
   54.7960   31.1142   50.2924 H   0  0  0  0  0  0  0  0  0  0  0  0
   56.8160   32.6860   51.0790 H   0  0  0  0  0  0  0  0  0  0  0  0
   58.1824   33.3050   49.1515 H   0  0  0  0  0  0  0  0  0  0  0  0
   60.6836   34.0425   47.3602 H   0  0  0  0  0  0  0  0  0  0  0  0
   59.8805   35.8063   45.8358 H   0  0  0  0  0  0  0  0  0  0  0  0
   57.9423   35.3164   44.3594 H   0  0  0  0  0  0  0  0  0  0  0  0
   56.8747   33.1038   44.4464 H   0  0  0  0  0  0  0  0  0  0  0  0
  1  2  2  0
  2  3  1  0
  3  4  1  0
  4  5  2  0
  5  6  1  0
  6  7  2  3
  7  8  1  0
  8  9  2  0
  9 10  1  0
 10 11  2  0
 11 12  1  0
 12 13  1  0
 13 14  1  0
 11 15  1  0
 15 16  2  0
  6 17  1  0
 17 18  1  0
  2 19  1  0
 19 20  2  0
 20 21  1  0
 21 22  2  0
 22 23  1  0
 23 24  2  0
 24 25  1  0
 25 26  1  0
 26 27  1  0
 26 28  1  0
 26 29  1  0
 18  3  2  0
 24 19  1  0
 16  8  1  0
  4 30  1  0
  9 31  1  0
 10 32  1  0
 12 33  1  0
 12 34  1  0
 13 35  1  0
 13 36  1  0
 14 37  1  0
 15 38  1  0
 16 39  1  0
 17 40  1  0
 18 41  1  0
 20 42  1  0
 21 43  1  0
 22 44  1  0
 23 45  1  0
M  END
>  <smiles>  (53) 
O=C(c1cnc(=Nc2ccc(CCO)cc2)[nH]c1)c1ccccc1OC(F)(F)F

>  <score_type>  (53) 
oracle

>  <origin>  (53) 
adg

>  <m_score__min__energy>  (53) 
-7.6900000000000004

>  <m_primary>  (53) 
energy

$$$$
53:0
     RDKit          3D

 33 35  0  0  0  0  0  0  0  0999 V2000
   63.4930   33.6450   48.0630 C   0  0  0  0  0  0  0  0  0  0  0  0
   62.6760   33.9540   49.1560 C   0  0  0  0  0  0  0  0  0  0  0  0
   61.3110   34.1940   48.9660 C   0  0  0  0  0  0  0  0  0  0  0  0
   60.7610   34.1510   47.6790 C   0  0  0  0  0  0  0  0  0  0  0  0
   59.3490   34.3400   47.5130 N   0  0  0  0  0  0  0  0  0  0  0  0
   58.5250   33.5630   46.8680 C   0  0  0  0  0  0  0  0  0  0  0  0
   57.5720   34.0500   45.8030 C   0  0  0  0  0  0  0  0  0  0  0  0
   57.6020   33.0940   44.6100 C   0  0  0  0  0  0  0  0  0  0  0  0
   57.4420   31.7020   45.0600 N   0  0  0  0  0  0  0  0  0  0  0  0
   56.6770   30.7730   44.2660 C   0  0  0  0  0  0  0  0  0  0  0  0
   56.8920   30.4280   42.9500 C   0  0  0  0  0  0  0  0  0  0  0  0
   55.9350   29.5410   42.6110 N   0  0  0  0  0  0  0  0  0  0  0  0
   55.1720   29.3560   43.6800 N   0  0  0  0  0  0  0  0  0  0  0  0
   55.6000   30.0930   44.6930 N   0  0  0  0  0  0  0  0  0  0  0  0
   58.3510   31.2020   46.1030 C   0  0  0  0  0  0  0  0  0  0  0  0
   58.3630   32.1410   47.3150 C   0  0  0  0  0  0  0  0  0  0  0  0
   61.5780   33.8060   46.5880 C   0  0  0  0  0  0  0  0  0  0  0  0
   62.9420   33.5660   46.7800 C   0  0  0  0  0  0  0  0  0  0  0  0
   64.5677   33.4644   48.2127 H   0  0  0  0  0  0  0  0  0  0  0  0
   63.1077   34.0083   50.1663 H   0  0  0  0  0  0  0  0  0  0  0  0
   60.6679   34.4171   49.8301 H   0  0  0  0  0  0  0  0  0  0  0  0
   56.5527   34.0896   46.2146 H   0  0  0  0  0  0  0  0  0  0  0  0
   57.8759   35.0545   45.4733 H   0  0  0  0  0  0  0  0  0  0  0  0
   56.7824   33.3483   43.9218 H   0  0  0  0  0  0  0  0  0  0  0  0
   58.5711   33.1933   44.0992 H   0  0  0  0  0  0  0  0  0  0  0  0
   57.6938   30.8052   42.2982 H   0  0  0  0  0  0  0  0  0  0  0  0
   55.1680   30.1010   45.6430 H   0  0  0  0  0  0  0  0  0  0  0  0
   58.0168   30.2043   46.4238 H   0  0  0  0  0  0  0  0  0  0  0  0
   59.3683   31.1516   45.6876 H   0  0  0  0  0  0  0  0  0  0  0  0
   57.4149   32.0384   47.8633 H   0  0  0  0  0  0  0  0  0  0  0  0
   59.2062   31.8723   47.9683 H   0  0  0  0  0  0  0  0  0  0  0  0
   61.1430   33.7247   45.5809 H   0  0  0  0  0  0  0  0  0  0  0  0
   63.5821   33.3149   45.9214 H   0  0  0  0  0  0  0  0  0  0  0  0
  1  2  2  0
  2  3  1  0
  3  4  2  0
  4  5  1  0
  5  6  2  3
  6  7  1  0
  7  8  1  0
  8  9  1  0
  9 10  1  0
 10 11  2  0
 11 12  1  0
 12 13  1  0
 13 14  2  0
  9 15  1  0
 15 16  1  0
  4 17  1  0
 17 18  2  0
 18  1  1  0
 16  6  1  0
 14 10  1  0
  1 19  1  0
  2 20  1  0
  3 21  1  0
  7 22  1  0
  7 23  1  0
  8 24  1  0
  8 25  1  0
 11 26  1  0
 14 27  1  0
 15 28  1  0
 15 29  1  0
 16 30  1  0
 16 31  1  0
 17 32  1  0
 18 33  1  0
M  CHG  2  12  -1  14   1
M  END
>  <UniqueID>  (54) 
46

>  <SMILES>  (54) 
c1ccc(N=C2CCN(c3c[n-]n[nH+]3)CC2)cc1

>  <Energy>  (54) 
79.34349818646389

>  <Genealogy>  (54) 
c1ccc(N=C2CCN(c3c[n-]n[nH+]3)CC2)cc1 (protonated)
c1ccc(N=C2CCN(c3c[n-]n[nH+]3)CC2)cc1 (3D coordinates assigned)
c1ccc(N=C2CCN(c3c[n-]n[nH+]3)CC2)cc1 (nonaromatic ring conformer: 79.34349818646389 kcal/mol)

>  <smiles>  (54) 
c1ccc(N=C2CCN(c3c[nH]nn3)CC2)cc1

>  <score_type>  (54) 
oracle

>  <origin>  (54) 
adg

>  <m_score__min__energy>  (54) 
-7.7000000000000002

>  <m_primary>  (54) 
energy

$$$$
54:0
     RDKit          3D

 42 43  0  0  0  0  0  0  0  0999 V2000
   56.9080   24.0310   47.0950 C   0  0  0  0  0  0  0  0  0  0  0  0
   56.1340   25.2250   47.1200 O   0  0  0  0  0  0  0  0  0  0  0  0
   56.4690   26.3540   46.3680 C   0  0  0  0  0  0  0  0  0  0  0  0
   55.5700   27.0720   45.8490 O   0  0  0  0  0  0  0  0  0  0  0  0
   57.9080   26.7150   46.1830 C   0  0  0  0  0  0  0  0  0  0  0  0
   58.0090   28.1010   45.7350 N   0  0  0  0  0  0  0  0  0  0  0  0
   57.9600   28.4860   44.3540 C   0  0  0  0  0  0  0  0  0  0  0  0
   58.0780   27.6250   43.4410 O   0  0  0  0  0  0  0  0  0  0  0  0
   57.7280   29.9200   43.9940 C   0  0  0  0  0  0  0  0  0  0  0  0
   57.1980   30.6160   45.1220 O   0  0  0  0  0  0  0  0  0  0  0  0
   57.6690   31.8540   45.5900 C   0  0  0  0  0  0  0  0  0  0  0  0
   57.4190   33.0550   44.9010 C   0  0  0  0  0  0  0  0  0  0  0  0
   57.9050   34.2660   45.3960 C   0  0  0  0  0  0  0  0  0  0  0  0
   58.6320   34.2920   46.5860 C   0  0  0  0  0  0  0  0  0  0  0  0
   58.8780   33.1070   47.2830 C   0  0  0  0  0  0  0  0  0  0  0  0
   58.4100   31.8780   46.7820 C   0  0  0  0  0  0  0  0  0  0  0  0
   58.5480   30.6600   47.5280 N   0  0  0  0  0  0  0  0  0  0  0  0
   59.7610   29.9430   47.7880 C   0  0  0  0  0  0  0  0  0  0  0  0
   59.7660   28.6830   47.7670 O   0  0  0  0  0  0  0  0  0  0  0  0
   60.9980   30.6850   48.1260 C   0  0  0  0  0  0  0  0  0  0  0  0
   61.4400   30.7700   49.4600 C   0  0  0  0  0  0  0  0  0  0  0  0
   62.6140   31.4630   49.7740 C   0  0  0  0  0  0  0  0  0  0  0  0
   63.3630   32.0690   48.7620 C   0  0  0  0  0  0  0  0  0  0  0  0
   64.5020   32.7400   49.0660 F   0  0  0  0  0  0  0  0  0  0  0  0
   62.9340   31.9890   47.4350 C   0  0  0  0  0  0  0  0  0  0  0  0
   61.7590   31.3020   47.1150 C   0  0  0  0  0  0  0  0  0  0  0  0
   57.1173   23.7081   48.1255 H   0  0  0  0  0  0  0  0  0  0  0  0
   56.3488   23.2425   46.5701 H   0  0  0  0  0  0  0  0  0  0  0  0
   57.8561   24.2196   46.5701 H   0  0  0  0  0  0  0  0  0  0  0  0
   58.4408   26.5988   47.1383 H   0  0  0  0  0  0  0  0  0  0  0  0
   58.3579   26.0525   45.4289 H   0  0  0  0  0  0  0  0  0  0  0  0
   58.0200   28.8540   46.4630 H   0  0  0  0  0  0  0  0  0  0  0  0
   58.6805   30.3810   43.6936 H   0  0  0  0  0  0  0  0  0  0  0  0
   57.0129   29.9767   43.1601 H   0  0  0  0  0  0  0  0  0  0  0  0
   56.8375   33.0394   43.9674 H   0  0  0  0  0  0  0  0  0  0  0  0
   57.7146   35.2003   44.8475 H   0  0  0  0  0  0  0  0  0  0  0  0
   59.0123   35.2475   46.9763 H   0  0  0  0  0  0  0  0  0  0  0  0
   59.4402   33.1344   48.2281 H   0  0  0  0  0  0  0  0  0  0  0  0
   60.8587   30.2886   50.2602 H   0  0  0  0  0  0  0  0  0  0  0  0
   62.9482   31.5310   50.8198 H   0  0  0  0  0  0  0  0  0  0  0  0
   63.5227   32.4682   46.6389 H   0  0  0  0  0  0  0  0  0  0  0  0
   61.4275   31.2433   46.0678 H   0  0  0  0  0  0  0  0  0  0  0  0
  1  2  1  0
  2  3  1  0
  3  4  2  0
  3  5  1  0
  5  6  1  0
  6  7  1  0
  7  8  2  0
  7  9  1  0
  9 10  1  0
 10 11  1  0
 11 12  2  0
 12 13  1  0
 13 14  2  0
 14 15  1  0
 15 16  2  0
 16 17  1  0
 17 18  1  0
 18 19  2  0
 18 20  1  0
 20 21  2  0
 21 22  1  0
 22 23  2  0
 23 24  1  0
 23 25  1  0
 25 26  2  0
 16 11  1  0
 26 20  1  0
  1 27  1  0
  1 28  1  0
  1 29  1  0
  5 30  1  0
  5 31  1  0
  6 32  1  0
  9 33  1  0
  9 34  1  0
 12 35  1  0
 13 36  1  0
 14 37  1  0
 15 38  1  0
 21 39  1  0
 22 40  1  0
 25 41  1  0
 26 42  1  0
M  CHG  1  17  -1
M  END
>  <UniqueID>  (55) 
47

>  <SMILES>  (55) 
COC(=O)CNC(=O)COc1ccccc1[N-]C(=O)c1ccc(F)cc1

>  <Energy>  (55) 
39.52672857026619

>  <Genealogy>  (55) 
COC(=O)CNC(=O)COc1ccccc1[N-]C(=O)c1ccc(F)cc1 (protonated)
COC(=O)CNC(=O)COc1ccccc1[N-]C(=O)c1ccc(F)cc1 (3D coordinates assigned)
COC(=O)CNC(=O)COc1ccccc1[N-]C(=O)c1ccc(F)cc1 (optimized conformer: 39.52672857026619 kcal/mol)

>  <smiles>  (55) 
COC(=O)CNC(=O)COc1ccccc1NC(=O)c1ccc(F)cc1

>  <score_type>  (55) 
oracle

>  <origin>  (55) 
adg

>  <m_score__min__energy>  (55) 
-8.8599999999999994

>  <m_primary>  (55) 
energy

$$$$
55:0
     RDKit          3D

 22 23  0  0  0  0  0  0  0  0999 V2000
   58.9000   34.9220   44.8790 C   0  0  0  0  0  0  0  0  0  0  0  0
   58.9980   33.6530   45.3160 C   0  0  0  0  0  0  0  0  0  0  0  0
   59.6660   33.3980   46.6140 C   0  0  0  0  0  0  0  0  0  0  0  0
   60.4120   34.2640   47.1470 O   0  0  0  0  0  0  0  0  0  0  0  0
   59.4370   32.1620   47.2830 N   0  0  0  0  0  0  0  0  0  0  0  0
   58.6150   31.1660   46.6790 C   0  0  0  0  0  0  0  0  0  0  0  0
   58.3300   30.1220   47.3260 O   0  0  0  0  0  0  0  0  0  0  0  0
   58.1330   31.3540   45.2880 C   0  0  0  0  0  0  0  0  0  0  0  0
   57.4710   30.2940   44.6430 C   0  0  0  0  0  0  0  0  0  0  0  0
   57.0920   30.4170   43.3080 C   0  0  0  0  0  0  0  0  0  0  0  0
   56.4230   29.3420   42.6420 N   0  0  0  0  0  0  0  0  0  0  0  0
   57.3950   31.5890   42.6220 C   0  0  0  0  0  0  0  0  0  0  0  0
   58.0430   32.6310   43.2840 C   0  0  0  0  0  0  0  0  0  0  0  0
   58.3710   32.5370   44.6160 N   0  0  0  0  0  0  0  0  0  0  0  0
   58.4085   35.1366   43.9186 H   0  0  0  0  0  0  0  0  0  0  0  0
   59.3114   35.7447   45.4822 H   0  0  0  0  0  0  0  0  0  0  0  0
   59.8490   31.9960   48.2290 H   0  0  0  0  0  0  0  0  0  0  0  0
   57.2522   29.3669   45.1931 H   0  0  0  0  0  0  0  0  0  0  0  0
   56.6050   28.3500   42.9130 H   0  0  0  0  0  0  0  0  0  0  0  0
   55.7430   29.5300   41.8720 H   0  0  0  0  0  0  0  0  0  0  0  0
   57.1242   31.6931   41.5609 H   0  0  0  0  0  0  0  0  0  0  0  0
   58.2969   33.5465   42.7296 H   0  0  0  0  0  0  0  0  0  0  0  0
  1  2  2  0
  2  3  1  0
  3  4  2  0
  3  5  1  0
  5  6  1  0
  6  7  2  0
  6  8  1  0
  8  9  2  0
  9 10  1  0
 10 11  1  0
 10 12  2  0
 12 13  1  0
 13 14  2  0
 14  2  1  0
 14  8  1  0
  1 15  1  0
  1 16  1  0
  5 17  1  0
  9 18  1  0
 11 19  1  0
 11 20  1  0
 12 21  1  0
 13 22  1  0
M  CHG  1  14   1
M  END
>  <UniqueID>  (56) 
48

>  <SMILES>  (56) 
C=C1C(=O)NC(=O)c2cc(N)cc[n+]21

>  <Energy>  (56) 
29.18807035557252

>  <Genealogy>  (56) 
C=C1C(=O)NC(=O)c2cc(N)cc[n+]21 (3D coordinates assigned)
C=C1C(=O)NC(=O)c2cc(N)cc[n+]21 (nonaromatic ring conformer: 29.18807035557252 kcal/mol)

>  <smiles>  (56) 
C=C1C(=O)NC(=O)c2cc(N)cc[n+]21

>  <score_type>  (56) 
oracle

>  <origin>  (56) 
adg

>  <m_score__min__energy>  (56) 
-3.8500000000000001

>  <m_primary>  (56) 
energy

$$$$
56:0
     RDKit          3D

 40 42  0  0  0  0  0  0  0  0999 V2000
   61.1140   26.6750   50.1850 C   0  0  0  0  0  0  0  0  0  0  0  0
   60.8580   26.7500   48.7860 O   0  0  0  0  0  0  0  0  0  0  0  0
   60.0900   27.7520   48.1750 C   0  0  0  0  0  0  0  0  0  0  0  0
   59.6780   28.8410   48.9510 C   0  0  0  0  0  0  0  0  0  0  0  0
   58.9100   29.8650   48.3890 C   0  0  0  0  0  0  0  0  0  0  0  0
   58.5320   29.8110   47.0440 C   0  0  0  0  0  0  0  0  0  0  0  0
   57.7710   30.8630   46.5150 O   0  0  0  0  0  0  0  0  0  0  0  0
   57.7580   31.2520   45.1670 C   0  0  0  0  0  0  0  0  0  0  0  0
   58.5560   32.3320   44.7240 C   0  0  0  0  0  0  0  0  0  0  0  0
   59.4460   33.0880   45.6380 C   0  0  0  0  0  0  0  0  0  0  0  0
   59.9930   34.1580   45.2540 O   0  0  0  0  0  0  0  0  0  0  0  0
   59.6580   32.6190   46.9800 N   0  0  0  0  0  0  0  0  0  0  0  0
   60.7020   33.1010   47.8430 C   0  0  0  0  0  0  0  0  0  0  0  0
   62.0380   33.0270   47.4170 C   0  0  0  0  0  0  0  0  0  0  0  0
   63.0690   33.5090   48.2290 C   0  0  0  0  0  0  0  0  0  0  0  0
   62.7740   34.0840   49.4670 C   0  0  0  0  0  0  0  0  0  0  0  0
   63.7750   34.5550   50.2510 F   0  0  0  0  0  0  0  0  0  0  0  0
   61.4460   34.1840   49.8910 C   0  0  0  0  0  0  0  0  0  0  0  0
   60.4130   33.7010   49.0830 C   0  0  0  0  0  0  0  0  0  0  0  0
   58.5220   32.6910   43.4410 O   0  0  0  0  0  0  0  0  0  0  0  0
   57.7600   32.0860   42.5360 C   0  0  0  0  0  0  0  0  0  0  0  0
   56.9330   31.0280   42.9030 C   0  0  0  0  0  0  0  0  0  0  0  0
   56.9220   30.6150   44.2330 C   0  0  0  0  0  0  0  0  0  0  0  0
   56.1460   29.6880   44.5900 O   0  0  0  0  0  0  0  0  0  0  0  0
   58.9570   28.7270   46.2540 C   0  0  0  0  0  0  0  0  0  0  0  0
   59.7250   27.7020   46.8160 C   0  0  0  0  0  0  0  0  0  0  0  0
   60.2023   26.9421   50.7394 H   0  0  0  0  0  0  0  0  0  0  0  0
   61.4162   25.6506   50.4481 H   0  0  0  0  0  0  0  0  0  0  0  0
   61.9212   27.3744   50.4481 H   0  0  0  0  0  0  0  0  0  0  0  0
   59.9610   28.8918   50.0128 H   0  0  0  0  0  0  0  0  0  0  0  0
   58.6009   30.7192   49.0093 H   0  0  0  0  0  0  0  0  0  0  0  0
   58.9620   31.9530   47.3850 H   0  0  0  0  0  0  0  0  0  0  0  0
   62.2751   32.5866   46.4373 H   0  0  0  0  0  0  0  0  0  0  0  0
   64.1136   33.4352   47.8924 H   0  0  0  0  0  0  0  0  0  0  0  0
   61.2133   34.6439   50.8628 H   0  0  0  0  0  0  0  0  0  0  0  0
   59.3690   33.7902   49.4178 H   0  0  0  0  0  0  0  0  0  0  0  0
   57.7828   32.4236   41.4893 H   0  0  0  0  0  0  0  0  0  0  0  0
   56.2996   30.5272   42.1560 H   0  0  0  0  0  0  0  0  0  0  0  0
   58.6839   28.6855   45.1892 H   0  0  0  0  0  0  0  0  0  0  0  0
   60.0452   26.8533   46.1937 H   0  0  0  0  0  0  0  0  0  0  0  0
  1  2  1  0
  2  3  1  0
  3  4  2  0
  4  5  1  0
  5  6  2  0
  6  7  1  0
  7  8  1  0
  8  9  2  0
  9 10  1  0
 10 11  2  0
 10 12  1  0
 12 13  1  0
 13 14  2  0
 14 15  1  0
 15 16  2  0
 16 17  1  0
 16 18  1  0
 18 19  2  0
  9 20  1  0
 20 21  1  0
 21 22  2  0
 22 23  1  0
 23 24  2  0
  6 25  1  0
 25 26  2  0
 26  3  1  0
 23  8  1  0
 19 13  1  0
  1 27  1  0
  1 28  1  0
  1 29  1  0
  4 30  1  0
  5 31  1  0
 12 32  1  0
 14 33  1  0
 15 34  1  0
 18 35  1  0
 19 36  1  0
 21 37  1  0
 22 38  1  0
 25 39  1  0
 26 40  1  0
M  END
>  <UniqueID>  (57) 
49

>  <SMILES>  (57) 
COc1ccc(Oc2c(C(=O)Nc3ccc(F)cc3)occc2=O)cc1

>  <Energy>  (57) 
56.783930455441826

>  <Genealogy>  (57) 
COc1ccc(Oc2c(C(=O)Nc3ccc(F)cc3)occc2=O)cc1 (3D coordinates assigned)
COc1ccc(Oc2c(C(=O)Nc3ccc(F)cc3)occc2=O)cc1 (optimized conformer: 56.783930455441826 kcal/mol)

>  <smiles>  (57) 
COc1ccc(Oc2c(C(=O)Nc3ccc(F)cc3)occc2=O)cc1

>  <score_type>  (57) 
oracle

>  <origin>  (57) 
adg

>  <m_score__min__energy>  (57) 
-6.7699999999999996

>  <m_primary>  (57) 
energy

$$$$
57:0
     RDKit          3D

 64 67  0  0  0  0  0  0  0  0999 V2000
   55.7560   19.2330   44.1790 C   0  0  0  0  0  0  0  0  0  0  0  0
   55.9330   20.5560   43.6820 O   0  0  0  0  0  0  0  0  0  0  0  0
   56.1080   21.6880   44.4920 C   0  0  0  0  0  0  0  0  0  0  0  0
   55.2070   22.0250   45.5220 C   0  0  0  0  0  0  0  0  0  0  0  0
   55.4240   23.1640   46.3020 C   0  0  0  0  0  0  0  0  0  0  0  0
   56.5480   23.9750   46.0760 C   0  0  0  0  0  0  0  0  0  0  0  0
   56.7580   25.2240   46.8870 C   0  0  0  0  0  0  0  0  0  0  0  0
   56.0810   26.3910   46.2210 C   0  0  0  0  0  0  0  0  0  0  0  0
   54.8440   26.3320   45.9950 O   0  0  0  0  0  0  0  0  0  0  0  0
   56.8110   27.5400   45.7750 N   0  0  0  0  0  0  0  0  0  0  0  0
   57.8700   28.2000   46.4810 C   0  0  0  0  0  0  0  0  0  0  0  0
   58.6980   27.4260   47.3010 C   0  0  0  0  0  0  0  0  0  0  0  0
   59.7410   28.0140   48.0200 C   0  0  0  0  0  0  0  0  0  0  0  0
   59.9670   29.3940   47.9400 C   0  0  0  0  0  0  0  0  0  0  0  0
   61.0600   29.9760   48.6720 N   0  0  0  0  0  0  0  0  0  0  0  0
   60.9700   30.3430   50.0600 C   0  0  0  0  0  0  0  0  0  0  0  0
   60.0230   29.9020   50.7670 O   0  0  0  0  0  0  0  0  0  0  0  0
   61.9880   31.2370   50.7150 C   0  0  0  0  0  0  0  0  0  0  0  0
   62.4590   32.2680   49.8430 O   0  0  0  0  0  0  0  0  0  0  0  0
   61.6610   33.0870   49.0230 C   0  0  0  0  0  0  0  0  0  0  0  0
   60.5260   33.7510   49.5320 C   0  0  0  0  0  0  0  0  0  0  0  0
   59.7410   34.5540   48.7030 C   0  0  0  0  0  0  0  0  0  0  0  0
   60.0770   34.7110   47.3600 C   0  0  0  0  0  0  0  0  0  0  0  0
   61.2010   34.0680   46.8400 C   0  0  0  0  0  0  0  0  0  0  0  0
   62.0100   33.2550   47.6580 C   0  0  0  0  0  0  0  0  0  0  0  0
   63.1670   32.6060   47.0830 N   0  0  0  0  0  0  0  0  0  0  0  0
   64.0990   33.2660   46.5780 O   0  0  0  0  0  0  0  0  0  0  0  0
   63.2530   31.2320   47.0630 O   0  0  0  0  0  0  0  0  0  0  0  0
   59.1700   30.1710   47.0850 C   0  0  0  0  0  0  0  0  0  0  0  0
   58.1360   29.5870   46.3330 C   0  0  0  0  0  0  0  0  0  0  0  0
   57.3910   30.4430   45.3800 C   0  0  0  0  0  0  0  0  0  0  0  0
   56.4460   29.9280   44.7220 O   0  0  0  0  0  0  0  0  0  0  0  0
   57.6950   31.8840   45.2030 C   0  0  0  0  0  0  0  0  0  0  0  0
   58.5110   32.3310   44.1460 C   0  0  0  0  0  0  0  0  0  0  0  0
   58.7890   33.6940   43.9940 C   0  0  0  0  0  0  0  0  0  0  0  0
   58.2610   34.6200   44.8940 C   0  0  0  0  0  0  0  0  0  0  0  0
   57.4530   34.1890   45.9490 C   0  0  0  0  0  0  0  0  0  0  0  0
   57.1730   32.8280   46.1060 C   0  0  0  0  0  0  0  0  0  0  0  0
   57.4370   23.6470   45.0410 C   0  0  0  0  0  0  0  0  0  0  0  0
   57.2190   22.5080   44.2610 C   0  0  0  0  0  0  0  0  0  0  0  0
   55.7584   19.2511   45.2788 H   0  0  0  0  0  0  0  0  0  0  0  0
   54.7962   18.8322   43.8210 H   0  0  0  0  0  0  0  0  0  0  0  0
   56.5767   18.5940   43.8210 H   0  0  0  0  0  0  0  0  0  0  0  0
   54.3298   21.3892   45.7126 H   0  0  0  0  0  0  0  0  0  0  0  0
   54.7107   23.4267   47.0971 H   0  0  0  0  0  0  0  0  0  0  0  0
   56.3333   25.0815   47.8916 H   0  0  0  0  0  0  0  0  0  0  0  0
   57.8363   25.4278   46.9628 H   0  0  0  0  0  0  0  0  0  0  0  0
   58.5257   26.3425   47.3803 H   0  0  0  0  0  0  0  0  0  0  0  0
   60.3888   27.3897   48.6529 H   0  0  0  0  0  0  0  0  0  0  0  0
   61.9760   30.0530   48.1820 H   0  0  0  0  0  0  0  0  0  0  0  0
   61.5288   31.7054   51.5980 H   0  0  0  0  0  0  0  0  0  0  0  0
   62.8515   30.6128   50.9886 H   0  0  0  0  0  0  0  0  0  0  0  0
   60.2567   33.6351   50.5922 H   0  0  0  0  0  0  0  0  0  0  0  0
   58.8556   35.0637   49.1107 H   0  0  0  0  0  0  0  0  0  0  0  0
   59.4553   35.3428   46.7086 H   0  0  0  0  0  0  0  0  0  0  0  0
   61.4585   34.1975   45.7784 H   0  0  0  0  0  0  0  0  0  0  0  0
   59.3571   31.2518   47.0023 H   0  0  0  0  0  0  0  0  0  0  0  0
   58.9324   31.6045   43.4356 H   0  0  0  0  0  0  0  0  0  0  0  0
   59.4247   34.0357   43.1638 H   0  0  0  0  0  0  0  0  0  0  0  0
   58.4812   35.6909   44.7728 H   0  0  0  0  0  0  0  0  0  0  0  0
   57.0367   34.9209   46.6568 H   0  0  0  0  0  0  0  0  0  0  0  0
   56.5403   32.4932   46.9412 H   0  0  0  0  0  0  0  0  0  0  0  0
   58.3084   24.2885   44.8429 H   0  0  0  0  0  0  0  0  0  0  0  0
   57.9268   22.2535   43.4583 H   0  0  0  0  0  0  0  0  0  0  0  0
  1  2  1  0
  2  3  1  0
  3  4  2  0
  4  5  1  0
  5  6  2  0
  6  7  1  0
  7  8  1  0
  8  9  2  0
  8 10  1  0
 10 11  1  0
 11 12  2  0
 12 13  1  0
 13 14  2  0
 14 15  1  0
 15 16  1  0
 16 17  2  0
 16 18  1  0
 18 19  1  0
 19 20  1  0
 20 21  2  0
 21 22  1  0
 22 23  2  0
 23 24  1  0
 24 25  2  0
 25 26  1  0
 26 27  2  0
 26 28  1  0
 14 29  1  0
 29 30  2  0
 30 31  1  0
 31 32  2  0
 31 33  1  0
 33 34  2  0
 34 35  1  0
 35 36  2  0
 36 37  1  0
 37 38  2  0
  6 39  1  0
 39 40  2  0
 40  3  1  0
 30 11  1  0
 38 33  1  0
 25 20  1  0
  1 41  1  0
  1 42  1  0
  1 43  1  0
  4 44  1  0
  5 45  1  0
  7 46  1  0
  7 47  1  0
 12 48  1  0
 13 49  1  0
 15 50  1  0
 18 51  1  0
 18 52  1  0
 21 53  1  0
 22 54  1  0
 23 55  1  0
 24 56  1  0
 29 57  1  0
 34 58  1  0
 35 59  1  0
 36 60  1  0
 37 61  1  0
 38 62  1  0
 39 63  1  0
 40 64  1  0
M  CHG  3  10  -1  26   1  28  -1
M  END
>  <UniqueID>  (58) 
50

>  <SMILES>  (58) 
COc1ccc(CC(=O)[N-]c2ccc(NC(=O)COc3ccccc3[N+](=O)[O-])cc2C(=O)c2ccccc2)cc1

>  <Energy>  (58) 
87.6629059121979

>  <Genealogy>  (58) 
COc1ccc(CC(=O)[N-]c2ccc(NC(=O)COc3ccccc3[N+](=O)[O-])cc2C(=O)c2ccccc2)cc1 (protonated)
COc1ccc(CC(=O)[N-]c2ccc(NC(=O)COc3ccccc3[N+](=O)[O-])cc2C(=O)c2ccccc2)cc1 (3D coordinates assigned)
COc1ccc(CC(=O)[N-]c2ccc(NC(=O)COc3ccccc3[N+](=O)[O-])cc2C(=O)c2ccccc2)cc1 (optimized conformer: 87.6629059121979 kcal/mol)

>  <smiles>  (58) 
COc1ccc(CC(=O)Nc2ccc(NC(=O)COc3ccccc3[N+](=O)[O-])cc2C(=O)c2ccccc2)cc1

>  <score_type>  (58) 
oracle

>  <origin>  (58) 
adg

>  <m_score__min__energy>  (58) 
-11.449999999999999

>  <m_primary>  (58) 
energy

$$$$
58:0
     RDKit          3D

 48 50  0  0  0  0  0  0  0  0999 V2000
   61.8890   34.5500   49.3840 O   0  0  0  0  0  0  0  0  0  0  0  0
   62.0230   33.8470   48.3450 C   0  0  0  0  0  0  0  0  0  0  0  0
   63.3110   33.2990   48.0220 N   0  0  0  0  0  0  0  0  0  0  0  0
   64.4160   33.2970   48.9770 C   0  0  0  0  0  0  0  0  0  0  0  0
   64.3010   32.1180   49.9050 C   0  0  0  0  0  0  0  0  0  0  0  0
   63.0910   31.4150   50.0220 C   0  0  0  0  0  0  0  0  0  0  0  0
   62.9970   30.3140   50.8790 C   0  0  0  0  0  0  0  0  0  0  0  0
   64.1100   29.9040   51.6170 C   0  0  0  0  0  0  0  0  0  0  0  0
   65.3210   30.5910   51.4970 C   0  0  0  0  0  0  0  0  0  0  0  0
   65.4190   31.6930   50.6410 C   0  0  0  0  0  0  0  0  0  0  0  0
   60.8480   33.6080   47.4720 C   0  0  0  0  0  0  0  0  0  0  0  0
   60.7260   34.3020   46.2540 C   0  0  0  0  0  0  0  0  0  0  0  0
   59.5960   34.1330   45.4510 C   0  0  0  0  0  0  0  0  0  0  0  0
   58.5610   33.2740   45.8540 C   0  0  0  0  0  0  0  0  0  0  0  0
   57.3000   33.1630   45.0370 C   0  0  0  0  0  0  0  0  0  0  0  0
   56.6690   31.8500   45.2000 N   0  0  0  0  0  0  0  0  0  0  0  0
   57.2680   30.6990   44.0360 S   0  0  0  0  0  0  0  0  0  0  0  0
   56.2290   30.4360   42.9810 O   0  0  0  0  0  0  0  0  0  0  0  0
   58.4930   31.2620   43.3730 O   0  0  0  0  0  0  0  0  0  0  0  0
   57.7070   29.2030   44.8580 C   0  0  0  0  0  0  0  0  0  0  0  0
   59.0470   28.9660   45.1840 C   0  0  0  0  0  0  0  0  0  0  0  0
   59.4040   27.8220   45.8980 C   0  0  0  0  0  0  0  0  0  0  0  0
   58.4270   26.9060   46.2980 C   0  0  0  0  0  0  0  0  0  0  0  0
   58.8160   25.8130   47.0010 F   0  0  0  0  0  0  0  0  0  0  0  0
   57.0710   27.1250   45.9770 C   0  0  0  0  0  0  0  0  0  0  0  0
   56.0470   26.2040   46.4020 N   0  0  0  0  0  0  0  0  0  0  0  0
   56.3270   25.2500   47.1580 O   0  0  0  0  0  0  0  0  0  0  0  0
   54.7460   26.3410   45.9760 O   0  0  0  0  0  0  0  0  0  0  0  0
   56.7260   28.2780   45.2440 C   0  0  0  0  0  0  0  0  0  0  0  0
   58.6920   32.5590   47.0530 C   0  0  0  0  0  0  0  0  0  0  0  0
   59.8190   32.7320   47.8610 C   0  0  0  0  0  0  0  0  0  0  0  0
   63.4940   32.9290   47.0630 H   0  0  0  0  0  0  0  0  0  0  0  0
   65.3685   33.2369   48.4300 H   0  0  0  0  0  0  0  0  0  0  0  0
   64.3796   34.2235   49.5688 H   0  0  0  0  0  0  0  0  0  0  0  0
   62.2144   31.7314   49.4377 H   0  0  0  0  0  0  0  0  0  0  0  0
   62.0454   29.7701   50.9721 H   0  0  0  0  0  0  0  0  0  0  0  0
   64.0331   29.0397   52.2931 H   0  0  0  0  0  0  0  0  0  0  0  0
   66.1976   30.2650   52.0760 H   0  0  0  0  0  0  0  0  0  0  0  0
   66.3750   32.2285   50.5440 H   0  0  0  0  0  0  0  0  0  0  0  0
   61.5273   34.9832   45.9317 H   0  0  0  0  0  0  0  0  0  0  0  0
   59.5163   34.6758   44.4976 H   0  0  0  0  0  0  0  0  0  0  0  0
   56.5941   33.9417   45.3614 H   0  0  0  0  0  0  0  0  0  0  0  0
   57.5631   33.2906   43.9766 H   0  0  0  0  0  0  0  0  0  0  0  0
   59.8214   29.6841   44.8763 H   0  0  0  0  0  0  0  0  0  0  0  0
   60.4597   27.6399   46.1475 H   0  0  0  0  0  0  0  0  0  0  0  0
   55.6751   28.4546   44.9714 H   0  0  0  0  0  0  0  0  0  0  0  0
   57.9024   31.8572   47.3597 H   0  0  0  0  0  0  0  0  0  0  0  0
   59.9018   32.1789   48.8082 H   0  0  0  0  0  0  0  0  0  0  0  0
  1  2  2  0
  2  3  1  0
  3  4  1  0
  4  5  1  0
  5  6  2  0
  6  7  1  0
  7  8  2  0
  8  9  1  0
  9 10  2  0
  2 11  1  0
 11 12  2  0
 12 13  1  0
 13 14  2  0
 14 15  1  0
 15 16  1  0
 16 17  1  0
 17 18  2  0
 17 19  2  0
 17 20  1  0
 20 21  2  0
 21 22  1  0
 22 23  2  0
 23 24  1  0
 23 25  1  0
 25 26  1  0
 26 27  2  0
 26 28  1  0
 25 29  2  0
 14 30  1  0
 30 31  2  0
 10  5  1  0
 31 11  1  0
 29 20  1  0
  3 32  1  0
  4 33  1  0
  4 34  1  0
  6 35  1  0
  7 36  1  0
  8 37  1  0
  9 38  1  0
 10 39  1  0
 12 40  1  0
 13 41  1  0
 15 42  1  0
 15 43  1  0
 21 44  1  0
 22 45  1  0
 29 46  1  0
 30 47  1  0
 31 48  1  0
M  CHG  3  16  -1  26   1  28  -1
M  END
>  <UniqueID>  (59) 
51

>  <SMILES>  (59) 
O=C(NCc1ccccc1)c1ccc(C[N-]S(=O)(=O)c2ccc(F)c([N+](=O)[O-])c2)cc1

>  <Energy>  (59) 
45.63514633333335

>  <Genealogy>  (59) 
O=C(NCc1ccccc1)c1ccc(C[N-]S(=O)(=O)c2ccc(F)c([N+](=O)[O-])c2)cc1 (protonated)
O=C(NCc1ccccc1)c1ccc(C[N-]S(=O)(=O)c2ccc(F)c([N+](=O)[O-])c2)cc1 (3D coordinates assigned)
O=C(NCc1ccccc1)c1ccc(C[N-]S(=O)(=O)c2ccc(F)c([N+](=O)[O-])c2)cc1 (optimized conformer: 45.63514633333335 kcal/mol)

>  <smiles>  (59) 
O=C(NCc1ccccc1)c1ccc(CNS(=O)(=O)c2ccc(F)c([N+](=O)[O-])c2)cc1

>  <score_type>  (59) 
oracle

>  <origin>  (59) 
adg

>  <m_score__min__energy>  (59) 
-10.630000000000001

>  <m_primary>  (59) 
energy

$$$$
59:0
     RDKit          3D

 33 35  0  0  0  0  0  0  0  0999 V2000
   55.6770   22.4350   43.8250 O   0  0  0  0  0  0  0  0  0  0  0  0
   56.2060   23.3960   44.4430 C   0  0  0  0  0  0  0  0  0  0  0  0
   55.4240   24.3810   44.9560 N   0  0  0  0  0  0  0  0  0  0  0  0
   55.9650   25.4290   45.6290 C   0  0  0  0  0  0  0  0  0  0  0  0
   55.2130   26.3280   46.0890 O   0  0  0  0  0  0  0  0  0  0  0  0
   57.3530   25.5020   45.8020 C   0  0  0  0  0  0  0  0  0  0  0  0
   58.1210   26.8630   46.6870 S   0  0  0  0  0  0  0  0  0  0  0  0
   57.7070   28.0530   45.4100 C   0  0  0  0  0  0  0  0  0  0  0  0
   57.7200   27.6700   44.0640 C   0  0  0  0  0  0  0  0  0  0  0  0
   57.3990   28.5980   43.0710 C   0  0  0  0  0  0  0  0  0  0  0  0
   57.0580   29.9090   43.4180 C   0  0  0  0  0  0  0  0  0  0  0  0
   57.0290   30.2970   44.7700 C   0  0  0  0  0  0  0  0  0  0  0  0
   56.7080   31.6060   45.1600 O   0  0  0  0  0  0  0  0  0  0  0  0
   57.6360   32.6060   45.4860 C   0  0  0  0  0  0  0  0  0  0  0  0
   58.1800   33.4650   44.5120 C   0  0  0  0  0  0  0  0  0  0  0  0
   59.0890   34.4610   44.8810 C   0  0  0  0  0  0  0  0  0  0  0  0
   59.4520   34.6160   46.2220 C   0  0  0  0  0  0  0  0  0  0  0  0
   58.9000   33.7790   47.1960 C   0  0  0  0  0  0  0  0  0  0  0  0
   57.9900   32.7820   46.8300 C   0  0  0  0  0  0  0  0  0  0  0  0
   57.3730   29.3670   45.7590 C   0  0  0  0  0  0  0  0  0  0  0  0
   58.1410   24.4820   45.2630 C   0  0  0  0  0  0  0  0  0  0  0  0
   57.5580   23.4510   44.5960 N   0  0  0  0  0  0  0  0  0  0  0  0
   57.9830   26.6381   43.7882 H   0  0  0  0  0  0  0  0  0  0  0  0
   57.4144   28.2969   42.0131 H   0  0  0  0  0  0  0  0  0  0  0  0
   56.8119   30.6384   42.6322 H   0  0  0  0  0  0  0  0  0  0  0  0
   57.8888   33.3520   43.4573 H   0  0  0  0  0  0  0  0  0  0  0  0
   59.5190   35.1234   44.1153 H   0  0  0  0  0  0  0  0  0  0  0  0
   60.1717   35.3962   46.5106 H   0  0  0  0  0  0  0  0  0  0  0  0
   59.1817   33.9047   48.2519 H   0  0  0  0  0  0  0  0  0  0  0  0
   57.5500   32.1328   47.6013 H   0  0  0  0  0  0  0  0  0  0  0  0
   57.3808   29.6708   46.8162 H   0  0  0  0  0  0  0  0  0  0  0  0
   59.2345   24.5133   45.3785 H   0  0  0  0  0  0  0  0  0  0  0  0
   58.1600   22.6930   44.2010 H   0  0  0  0  0  0  0  0  0  0  0  0
  1  2  2  0
  2  3  1  0
  3  4  1  0
  4  5  2  0
  4  6  1  0
  6  7  1  0
  7  8  1  0
  8  9  2  0
  9 10  1  0
 10 11  2  0
 11 12  1  0
 12 13  1  0
 13 14  1  0
 14 15  2  0
 15 16  1  0
 16 17  2  0
 17 18  1  0
 18 19  2  0
 12 20  2  0
  6 21  2  0
 21 22  1  0
 22  2  1  0
 20  8  1  0
 19 14  1  0
  9 23  1  0
 10 24  1  0
 11 25  1  0
 15 26  1  0
 16 27  1  0
 17 28  1  0
 18 29  1  0
 19 30  1  0
 20 31  1  0
 21 32  1  0
 22 33  1  0
M  CHG  1   3  -1
M  END
>  <UniqueID>  (60) 
52

>  <SMILES>  (60) 
O=c1[n-]c(=O)c(Sc2cccc(Oc3ccccc3)c2)c[nH]1

>  <Energy>  (60) 
39.20545430913845

>  <Genealogy>  (60) 
O=c1[n-]c(=O)c(Sc2cccc(Oc3ccccc3)c2)c[nH]1 (protonated)
O=c1[n-]c(=O)c(Sc2cccc(Oc3ccccc3)c2)c[nH]1 (3D coordinates assigned)
O=c1[n-]c(=O)c(Sc2cccc(Oc3ccccc3)c2)c[nH]1 (optimized conformer: 39.20545430913845 kcal/mol)

>  <smiles>  (60) 
O=c1[nH]cc(Sc2cccc(Oc3ccccc3)c2)c(=O)[nH]1

>  <score_type>  (60) 
oracle

>  <origin>  (60) 
adg

>  <m_score__min__energy>  (60) 
-9.6999999999999993

>  <m_primary>  (60) 
energy

$$$$
60:0
     RDKit          3D

 47 50  0  0  0  0  0  0  0  0999 V2000
   56.6330   20.7310   43.0010 C   0  0  0  0  0  0  0  0  0  0  0  0
   55.9930   21.8530   43.6010 O   0  0  0  0  0  0  0  0  0  0  0  0
   56.6710   22.9070   44.2320 C   0  0  0  0  0  0  0  0  0  0  0  0
   58.0000   22.7890   44.6820 C   0  0  0  0  0  0  0  0  0  0  0  0
   58.6330   23.8690   45.3030 C   0  0  0  0  0  0  0  0  0  0  0  0
   57.9580   25.0880   45.4740 C   0  0  0  0  0  0  0  0  0  0  0  0
   58.6090   26.2380   46.1390 C   0  0  0  0  0  0  0  0  0  0  0  0
   58.9750   26.2190   47.4440 N   0  0  0  0  0  0  0  0  0  0  0  0
   59.4900   27.4310   47.7060 C   0  0  0  0  0  0  0  0  0  0  0  0
   59.9930   27.8890   48.9230 C   0  0  0  0  0  0  0  0  0  0  0  0
   60.4660   29.2110   48.9860 C   0  0  0  0  0  0  0  0  0  0  0  0
   60.4210   30.0410   47.8430 C   0  0  0  0  0  0  0  0  0  0  0  0
   59.9060   29.5540   46.6290 C   0  0  0  0  0  0  0  0  0  0  0  0
   59.4540   28.2330   46.5940 C   0  0  0  0  0  0  0  0  0  0  0  0
   58.8910   27.4910   45.5740 C   0  0  0  0  0  0  0  0  0  0  0  0
   58.5810   27.9820   44.1860 C   0  0  0  0  0  0  0  0  0  0  0  0
   57.7140   29.2470   44.2320 C   0  0  0  0  0  0  0  0  0  0  0  0
   58.5310   30.4580   44.1260 N   0  0  0  0  0  0  0  0  0  0  0  0
   57.5650   31.9060   44.1800 S   0  0  0  0  0  0  0  0  0  0  0  0
   57.4620   32.5240   42.8120 O   0  0  0  0  0  0  0  0  0  0  0  0
   56.1850   31.5590   44.6590 O   0  0  0  0  0  0  0  0  0  0  0  0
   58.2760   33.0550   45.2980 C   0  0  0  0  0  0  0  0  0  0  0  0
   59.0300   34.1660   44.9560 C   0  0  0  0  0  0  0  0  0  0  0  0
   59.4890   34.8760   46.0710 C   0  0  0  0  0  0  0  0  0  0  0  0
   59.0980   34.3230   47.2840 C   0  0  0  0  0  0  0  0  0  0  0  0
   58.1810   32.9490   46.9710 S   0  0  0  0  0  0  0  0  0  0  0  0
   56.6280   25.1970   45.0400 C   0  0  0  0  0  0  0  0  0  0  0  0
   55.9950   24.1160   44.4190 C   0  0  0  0  0  0  0  0  0  0  0  0
   57.0142   20.0626   43.7871 H   0  0  0  0  0  0  0  0  0  0  0  0
   55.9094   20.1869   42.3762 H   0  0  0  0  0  0  0  0  0  0  0  0
   57.4697   21.0769   42.3762 H   0  0  0  0  0  0  0  0  0  0  0  0
   58.5426   21.8421   44.5440 H   0  0  0  0  0  0  0  0  0  0  0  0
   59.6679   23.7632   45.6605 H   0  0  0  0  0  0  0  0  0  0  0  0
   58.8790   25.4240   48.1140 H   0  0  0  0  0  0  0  0  0  0  0  0
   60.0189   27.2353   49.8073 H   0  0  0  0  0  0  0  0  0  0  0  0
   60.8734   29.6018   49.9301 H   0  0  0  0  0  0  0  0  0  0  0  0
   60.7914   31.0750   47.9037 H   0  0  0  0  0  0  0  0  0  0  0  0
   59.8605   30.1932   45.7349 H   0  0  0  0  0  0  0  0  0  0  0  0
   59.5232   28.2102   43.6662 H   0  0  0  0  0  0  0  0  0  0  0  0
   58.0270   27.1963   43.6515 H   0  0  0  0  0  0  0  0  0  0  0  0
   57.0001   29.2224   43.3955 H   0  0  0  0  0  0  0  0  0  0  0  0
   57.1846   29.2694   45.1959 H   0  0  0  0  0  0  0  0  0  0  0  0
   59.2450   34.4589   43.9178 H   0  0  0  0  0  0  0  0  0  0  0  0
   60.1017   35.7863   45.9943 H   0  0  0  0  0  0  0  0  0  0  0  0
   59.3463   34.7173   48.2804 H   0  0  0  0  0  0  0  0  0  0  0  0
   56.0799   26.1390   45.1893 H   0  0  0  0  0  0  0  0  0  0  0  0
   54.9554   24.2180   44.0744 H   0  0  0  0  0  0  0  0  0  0  0  0
  1  2  1  0
  2  3  1  0
  3  4  2  0
  4  5  1  0
  5  6  2  0
  6  7  1  0
  7  8  1  0
  8  9  1  0
  9 10  2  0
 10 11  1  0
 11 12  2  0
 12 13  1  0
 13 14  2  0
 14 15  1  0
 15 16  1  0
 16 17  1  0
 17 18  1  0
 18 19  1  0
 19 20  2  0
 19 21  2  0
 19 22  1  0
 22 23  2  0
 23 24  1  0
 24 25  2  0
 25 26  1  0
  6 27  1  0
 27 28  2  0
 28  3  1  0
 15  7  2  0
 26 22  1  0
 14  9  1  0
  1 29  1  0
  1 30  1  0
  1 31  1  0
  4 32  1  0
  5 33  1  0
  8 34  1  0
 10 35  1  0
 11 36  1  0
 12 37  1  0
 13 38  1  0
 16 39  1  0
 16 40  1  0
 17 41  1  0
 17 42  1  0
 23 43  1  0
 24 44  1  0
 25 45  1  0
 27 46  1  0
 28 47  1  0
M  CHG  1  18  -1
M  END
>  <UniqueID>  (61) 
53

>  <SMILES>  (61) 
COc1ccc(-c2[nH]c3ccccc3c2CC[N-]S(=O)(=O)c2cccs2)cc1

>  <Energy>  (61) 
110.7431771309235

>  <Genealogy>  (61) 
COc1ccc(-c2[nH]c3ccccc3c2CC[N-]S(=O)(=O)c2cccs2)cc1 (protonated)
COc1ccc(-c2[nH]c3ccccc3c2CC[N-]S(=O)(=O)c2cccs2)cc1 (3D coordinates assigned)
COc1ccc(-c2[nH]c3ccccc3c2CC[N-]S(=O)(=O)c2cccs2)cc1 (optimized conformer: 110.7431771309235 kcal/mol)

>  <smiles>  (61) 
COc1ccc(-c2[nH]c3ccccc3c2CCNS(=O)(=O)c2cccs2)cc1

>  <score_type>  (61) 
oracle

>  <origin>  (61) 
adg

>  <m_score__min__energy>  (61) 
-9.5399999999999991

>  <m_primary>  (61) 
energy

$$$$
61:0
     RDKit          3D

 50 52  0  0  0  0  0  0  0  0999 V2000
   59.6320   35.8010   45.2500 C   0  0  0  0  0  0  0  0  0  0  0  0
   59.2230   34.3550   45.3330 C   0  0  0  0  0  0  0  0  0  0  0  0
   58.5580   33.7700   44.2450 C   0  0  0  0  0  0  0  0  0  0  0  0
   58.1940   32.4210   44.2750 C   0  0  0  0  0  0  0  0  0  0  0  0
   58.4810   31.6290   45.3990 C   0  0  0  0  0  0  0  0  0  0  0  0
   58.1070   30.1950   45.4340 C   0  0  0  0  0  0  0  0  0  0  0  0
   56.9100   29.8710   45.6720 O   0  0  0  0  0  0  0  0  0  0  0  0
   59.0780   29.1720   45.1500 N   0  0  0  0  0  0  0  0  0  0  0  0
   58.9250   27.7960   45.5410 C   0  0  0  0  0  0  0  0  0  0  0  0
   60.0530   27.0610   45.9320 C   0  0  0  0  0  0  0  0  0  0  0  0
   59.9240   25.7310   46.3420 C   0  0  0  0  0  0  0  0  0  0  0  0
   58.6650   25.1260   46.3770 C   0  0  0  0  0  0  0  0  0  0  0  0
   57.5260   25.8520   46.0010 C   0  0  0  0  0  0  0  0  0  0  0  0
   55.9320   25.1060   46.0710 S   0  0  0  0  0  0  0  0  0  0  0  0
   54.7200   26.3350   45.9840 N   0  0  0  0  0  0  0  0  0  0  0  0
   55.7780   24.3380   47.3550 O   0  0  0  0  0  0  0  0  0  0  0  0
   55.7700   24.1540   44.9180 O   0  0  0  0  0  0  0  0  0  0  0  0
   57.6560   27.1890   45.5960 C   0  0  0  0  0  0  0  0  0  0  0  0
   59.1450   32.2150   46.4910 C   0  0  0  0  0  0  0  0  0  0  0  0
   59.4880   33.5720   46.4800 C   0  0  0  0  0  0  0  0  0  0  0  0
   60.1460   34.1180   47.6280 N   0  0  0  0  0  0  0  0  0  0  0  0
   61.5210   33.8810   47.9440 C   0  0  0  0  0  0  0  0  0  0  0  0
   62.3990   33.9180   47.0410 O   0  0  0  0  0  0  0  0  0  0  0  0
   61.9290   33.5760   49.3540 C   0  0  0  0  0  0  0  0  0  0  0  0
   62.0030   32.1660   49.5820 O   0  0  0  0  0  0  0  0  0  0  0  0
   60.9450   31.2580   49.4030 C   0  0  0  0  0  0  0  0  0  0  0  0
   59.6730   31.4490   49.9780 C   0  0  0  0  0  0  0  0  0  0  0  0
   58.6530   30.5170   49.7560 C   0  0  0  0  0  0  0  0  0  0  0  0
   58.8930   29.3900   48.9640 C   0  0  0  0  0  0  0  0  0  0  0  0
   60.1530   29.1920   48.3950 C   0  0  0  0  0  0  0  0  0  0  0  0
   61.1750   30.1220   48.6150 C   0  0  0  0  0  0  0  0  0  0  0  0
   59.7472   36.2083   46.2653 H   0  0  0  0  0  0  0  0  0  0  0  0
   60.5881   35.8813   44.7120 H   0  0  0  0  0  0  0  0  0  0  0  0
   58.8596   36.3702   44.7120 H   0  0  0  0  0  0  0  0  0  0  0  0
   58.3209   34.3788   43.3600 H   0  0  0  0  0  0  0  0  0  0  0  0
   57.6785   31.9758   43.4113 H   0  0  0  0  0  0  0  0  0  0  0  0
   59.8830   29.4180   44.5300 H   0  0  0  0  0  0  0  0  0  0  0  0
   61.0460   27.5341   45.9160 H   0  0  0  0  0  0  0  0  0  0  0  0
   60.8159   25.1591   46.6379 H   0  0  0  0  0  0  0  0  0  0  0  0
   58.5674   24.0790   46.6999 H   0  0  0  0  0  0  0  0  0  0  0  0
   55.2050   27.2510   46.1170 H   0  0  0  0  0  0  0  0  0  0  0  0
   56.7613   27.7662   45.3199 H   0  0  0  0  0  0  0  0  0  0  0  0
   59.3984   31.5985   47.3661 H   0  0  0  0  0  0  0  0  0  0  0  0
   62.9162   34.0219   49.5454 H   0  0  0  0  0  0  0  0  0  0  0  0
   61.1725   33.9973   50.0323 H   0  0  0  0  0  0  0  0  0  0  0  0
   59.4811   32.3334   50.6033 H   0  0  0  0  0  0  0  0  0  0  0  0
   57.6609   30.6713   50.2053 H   0  0  0  0  0  0  0  0  0  0  0  0
   58.0895   28.6594   48.7891 H   0  0  0  0  0  0  0  0  0  0  0  0
   60.3421   28.3043   47.7735 H   0  0  0  0  0  0  0  0  0  0  0  0
   62.1662   29.9604   48.1662 H   0  0  0  0  0  0  0  0  0  0  0  0
  1  2  1  0
  2  3  2  0
  3  4  1  0
  4  5  2  0
  5  6  1  0
  6  7  2  0
  6  8  1  0
  8  9  1  0
  9 10  2  0
 10 11  1  0
 11 12  2  0
 12 13  1  0
 13 14  1  0
 14 15  1  0
 14 16  2  0
 14 17  2  0
 13 18  2  0
  5 19  1  0
 19 20  2  0
 20 21  1  0
 21 22  1  0
 22 23  2  0
 22 24  1  0
 24 25  1  0
 25 26  1  0
 26 27  2  0
 27 28  1  0
 28 29  2  0
 29 30  1  0
 30 31  2  0
 20  2  1  0
 31 26  1  0
 18  9  1  0
  1 32  1  0
  1 33  1  0
  1 34  1  0
  3 35  1  0
  4 36  1  0
  8 37  1  0
 10 38  1  0
 11 39  1  0
 12 40  1  0
 15 41  1  0
 18 42  1  0
 19 43  1  0
 24 44  1  0
 24 45  1  0
 27 46  1  0
 28 47  1  0
 29 48  1  0
 30 49  1  0
 31 50  1  0
M  CHG  2  15  -1  21  -1
M  END
>  <UniqueID>  (62) 
54

>  <SMILES>  (62) 
Cc1ccc(C(=O)Nc2cccc(S([NH-])(=O)=O)c2)cc1[N-]C(=O)COc1ccccc1

>  <Energy>  (62) 
63.82153457809857

>  <Genealogy>  (62) 
Cc1ccc(C(=O)Nc2cccc(S([NH-])(=O)=O)c2)cc1[N-]C(=O)COc1ccccc1 (protonated)
Cc1ccc(C(=O)Nc2cccc(S([NH-])(=O)=O)c2)cc1[N-]C(=O)COc1ccccc1 (3D coordinates assigned)
Cc1ccc(C(=O)Nc2cccc(S([NH-])(=O)=O)c2)cc1[N-]C(=O)COc1ccccc1 (optimized conformer: 63.82153457809857 kcal/mol)

>  <smiles>  (62) 
Cc1ccc(C(=O)Nc2cccc(S(N)(=O)=O)c2)cc1NC(=O)COc1ccccc1

>  <score_type>  (62) 
oracle

>  <origin>  (62) 
adg

>  <m_score__min__energy>  (62) 
-12.75

>  <m_primary>  (62) 
energy

$$$$
62:0
     RDKit          3D

 44 45  0  0  0  0  0  0  0  0999 V2000
   55.1540   29.3050   44.7160 N   0  0  0  0  0  0  0  0  0  0  0  0
   56.7040   30.0300   44.4780 S   0  0  0  0  0  0  0  0  0  0  0  0
   56.6850   31.4350   45.0130 O   0  0  0  0  0  0  0  0  0  0  0  0
   57.0180   30.0780   43.0090 O   0  0  0  0  0  0  0  0  0  0  0  0
   57.9300   29.0860   45.3180 C   0  0  0  0  0  0  0  0  0  0  0  0
   58.0430   27.7080   45.0880 C   0  0  0  0  0  0  0  0  0  0  0  0
   59.0380   26.9690   45.7340 C   0  0  0  0  0  0  0  0  0  0  0  0
   59.9190   27.6010   46.6150 C   0  0  0  0  0  0  0  0  0  0  0  0
   59.8020   28.9720   46.8710 C   0  0  0  0  0  0  0  0  0  0  0  0
   60.7400   29.5950   47.7600 N   0  0  0  0  0  0  0  0  0  0  0  0
   60.5620   29.8180   49.1630 C   0  0  0  0  0  0  0  0  0  0  0  0
   59.3940   29.9700   49.6110 O   0  0  0  0  0  0  0  0  0  0  0  0
   61.7270   29.9190   50.1080 C   0  0  0  0  0  0  0  0  0  0  0  0
   62.4300   31.1420   49.9040 O   0  0  0  0  0  0  0  0  0  0  0  0
   62.1520   32.3170   50.6090 C   0  0  0  0  0  0  0  0  0  0  0  0
   62.6770   32.5270   51.7370 O   0  0  0  0  0  0  0  0  0  0  0  0
   61.2540   33.3570   50.0050 C   0  0  0  0  0  0  0  0  0  0  0  0
   61.9710   34.1930   48.9300 C   0  0  0  0  0  0  0  0  0  0  0  0
   61.7630   33.5190   47.2840 S   0  0  0  0  0  0  0  0  0  0  0  0
   62.7080   34.2170   46.3470 O   0  0  0  0  0  0  0  0  0  0  0  0
   62.1040   32.0540   47.2970 O   0  0  0  0  0  0  0  0  0  0  0  0
   60.1140   33.7390   46.7090 C   0  0  0  0  0  0  0  0  0  0  0  0
   59.8700   34.3320   45.4600 C   0  0  0  0  0  0  0  0  0  0  0  0
   58.5580   34.4780   44.9980 C   0  0  0  0  0  0  0  0  0  0  0  0
   57.4860   34.0330   45.7770 C   0  0  0  0  0  0  0  0  0  0  0  0
   57.7250   33.4410   47.0200 C   0  0  0  0  0  0  0  0  0  0  0  0
   59.0360   33.2930   47.4860 C   0  0  0  0  0  0  0  0  0  0  0  0
   58.8210   29.7180   46.1960 C   0  0  0  0  0  0  0  0  0  0  0  0
   55.1570   28.8890   45.6750 H   0  0  0  0  0  0  0  0  0  0  0  0
   57.3476   27.2075   44.3981 H   0  0  0  0  0  0  0  0  0  0  0  0
   59.1275   25.8885   45.5485 H   0  0  0  0  0  0  0  0  0  0  0  0
   60.7092   27.0177   47.1103 H   0  0  0  0  0  0  0  0  0  0  0  0
   61.3576   29.8821   51.1435 H   0  0  0  0  0  0  0  0  0  0  0  0
   62.4119   29.0790   49.9198 H   0  0  0  0  0  0  0  0  0  0  0  0
   60.3902   32.8548   49.5450 H   0  0  0  0  0  0  0  0  0  0  0  0
   60.9402   34.0392   50.8088 H   0  0  0  0  0  0  0  0  0  0  0  0
   61.5627   35.2143   48.9470 H   0  0  0  0  0  0  0  0  0  0  0  0
   63.0463   34.1830   49.1615 H   0  0  0  0  0  0  0  0  0  0  0  0
   60.7115   34.6821   44.8442 H   0  0  0  0  0  0  0  0  0  0  0  0
   58.3693   34.9440   44.0196 H   0  0  0  0  0  0  0  0  0  0  0  0
   56.4549   34.1488   45.4117 H   0  0  0  0  0  0  0  0  0  0  0  0
   56.8814   33.0909   47.6329 H   0  0  0  0  0  0  0  0  0  0  0  0
   59.2211   32.8256   48.4644 H   0  0  0  0  0  0  0  0  0  0  0  0
   58.7520   30.8039   46.3576 H   0  0  0  0  0  0  0  0  0  0  0  0
  1  2  1  0
  2  3  2  0
  2  4  2  0
  2  5  1  0
  5  6  2  0
  6  7  1  0
  7  8  2  0
  8  9  1  0
  9 10  1  0
 10 11  1  0
 11 12  2  0
 11 13  1  0
 13 14  1  0
 14 15  1  0
 15 16  2  0
 15 17  1  0
 17 18  1  0
 18 19  1  0
 19 20  2  0
 19 21  2  0
 19 22  1  0
 22 23  2  0
 23 24  1  0
 24 25  2  0
 25 26  1  0
 26 27  2  0
  9 28  2  0
 28  5  1  0
 27 22  1  0
  1 29  1  0
  6 30  1  0
  7 31  1  0
  8 32  1  0
 13 33  1  0
 13 34  1  0
 17 35  1  0
 17 36  1  0
 18 37  1  0
 18 38  1  0
 23 39  1  0
 24 40  1  0
 25 41  1  0
 26 42  1  0
 27 43  1  0
 28 44  1  0
M  CHG  2   1  -1  10  -1
M  END
>  <UniqueID>  (63) 
55

>  <SMILES>  (63) 
[NH-]S(=O)(=O)c1cccc([N-]C(=O)COC(=O)CCS(=O)(=O)c2ccccc2)c1

>  <Energy>  (63) 
41.105060011575915

>  <Genealogy>  (63) 
[NH-]S(=O)(=O)c1cccc([N-]C(=O)COC(=O)CCS(=O)(=O)c2ccccc2)c1 (protonated)
[NH-]S(=O)(=O)c1cccc([N-]C(=O)COC(=O)CCS(=O)(=O)c2ccccc2)c1 (3D coordinates assigned)
[NH-]S(=O)(=O)c1cccc([N-]C(=O)COC(=O)CCS(=O)(=O)c2ccccc2)c1 (optimized conformer: 41.105060011575915 kcal/mol)

>  <smiles>  (63) 
NS(=O)(=O)c1cccc(NC(=O)COC(=O)CCS(=O)(=O)c2ccccc2)c1

>  <score_type>  (63) 
oracle

>  <origin>  (63) 
adg

>  <m_score__min__energy>  (63) 
-12.550000000000001

>  <m_primary>  (63) 
energy

$$$$
63:0
     RDKit          3D

 51 53  0  0  0  0  0  0  0  0999 V2000
   57.4640   27.8700   46.0540 C   0  0  0  0  0  0  0  0  0  0  0  0
   56.8620   28.6960   44.9700 C   0  0  0  0  0  0  0  0  0  0  0  0
   57.5250   29.2050   43.8660 C   0  0  0  0  0  0  0  0  0  0  0  0
   56.5420   29.9110   43.2110 C   0  0  0  0  0  0  0  0  0  0  0  0
   56.7220   30.5720   42.1050 N   0  0  0  0  0  0  0  0  0  0  0  0
   57.4960   32.1210   41.9780 S   0  0  0  0  0  0  0  0  0  0  0  0
   56.6520   33.0620   41.1610 O   0  0  0  0  0  0  0  0  0  0  0  0
   58.8110   31.9450   41.2720 O   0  0  0  0  0  0  0  0  0  0  0  0
   57.7930   32.7830   43.5840 C   0  0  0  0  0  0  0  0  0  0  0  0
   58.8410   33.6840   43.8060 C   0  0  0  0  0  0  0  0  0  0  0  0
   59.0610   34.2060   45.0840 C   0  0  0  0  0  0  0  0  0  0  0  0
   58.2480   33.8260   46.1570 C   0  0  0  0  0  0  0  0  0  0  0  0
   58.5290   34.3650   47.4560 N   0  0  0  0  0  0  0  0  0  0  0  0
   59.9220   33.9820   48.4150 S   0  0  0  0  0  0  0  0  0  0  0  0
   59.7500   34.6060   49.7720 O   0  0  0  0  0  0  0  0  0  0  0  0
   61.1390   34.5620   47.7520 O   0  0  0  0  0  0  0  0  0  0  0  0
   60.1130   32.2270   48.5460 C   0  0  0  0  0  0  0  0  0  0  0  0
   58.9630   31.4180   48.5510 C   0  0  0  0  0  0  0  0  0  0  0  0
   59.0720   30.0340   48.6910 C   0  0  0  0  0  0  0  0  0  0  0  0
   60.3270   29.4400   48.8240 C   0  0  0  0  0  0  0  0  0  0  0  0
   61.4810   30.2280   48.7980 C   0  0  0  0  0  0  0  0  0  0  0  0
   61.3860   31.6220   48.6500 C   0  0  0  0  0  0  0  0  0  0  0  0
   62.5900   32.3990   48.5750 N   0  0  0  0  0  0  0  0  0  0  0  0
   63.2280   32.6160   47.2790 C   0  0  0  0  0  0  0  0  0  0  0  0
   63.0980   33.3170   49.9590 S   0  0  0  0  0  0  0  0  0  0  0  0
   64.7980   32.9570   50.3470 C   0  0  0  0  0  0  0  0  0  0  0  0
   62.2450   32.9650   51.1480 O   0  0  0  0  0  0  0  0  0  0  0  0
   62.9460   34.7850   49.6660 O   0  0  0  0  0  0  0  0  0  0  0  0
   57.1950   32.9200   45.9340 C   0  0  0  0  0  0  0  0  0  0  0  0
   56.9680   32.4100   44.6530 C   0  0  0  0  0  0  0  0  0  0  0  0
   55.3810   29.8180   43.8920 N   0  0  0  0  0  0  0  0  0  0  0  0
   55.6070   29.0880   44.9430 O   0  0  0  0  0  0  0  0  0  0  0  0
   57.1677   28.2765   47.0322 H   0  0  0  0  0  0  0  0  0  0  0  0
   57.1085   26.8328   45.9650 H   0  0  0  0  0  0  0  0  0  0  0  0
   58.5602   27.8908   45.9650 H   0  0  0  0  0  0  0  0  0  0  0  0
   58.5799   29.0764   43.5819 H   0  0  0  0  0  0  0  0  0  0  0  0
   59.4935   33.9822   42.9722 H   0  0  0  0  0  0  0  0  0  0  0  0
   59.8803   34.9216   45.2472 H   0  0  0  0  0  0  0  0  0  0  0  0
   57.9703   31.8795   48.4438 H   0  0  0  0  0  0  0  0  0  0  0  0
   58.1662   29.4100   48.6965 H   0  0  0  0  0  0  0  0  0  0  0  0
   60.4086   28.3502   48.9495 H   0  0  0  0  0  0  0  0  0  0  0  0
   62.4691   29.7542   48.8939 H   0  0  0  0  0  0  0  0  0  0  0  0
   64.2593   32.9668   47.4321 H   0  0  0  0  0  0  0  0  0  0  0  0
   63.2418   31.6720   46.7145 H   0  0  0  0  0  0  0  0  0  0  0  0
   62.6634   33.3726   46.7145 H   0  0  0  0  0  0  0  0  0  0  0  0
   64.9270   32.9297   51.4391 H   0  0  0  0  0  0  0  0  0  0  0  0
   65.0726   31.9808   49.9208 H   0  0  0  0  0  0  0  0  0  0  0  0
   65.4447   33.7381   49.9208 H   0  0  0  0  0  0  0  0  0  0  0  0
   56.5492   32.6125   46.7697 H   0  0  0  0  0  0  0  0  0  0  0  0
   56.1359   31.7109   44.4828 H   0  0  0  0  0  0  0  0  0  0  0  0
   54.4580   30.2370   43.6580 H   0  0  0  0  0  0  0  0  0  0  0  0
  1  2  1  0
  2  3  2  0
  3  4  1  0
  4  5  2  3
  5  6  1  0
  6  7  2  0
  6  8  2  0
  6  9  1  0
  9 10  2  0
 10 11  1  0
 11 12  2  0
 12 13  1  0
 13 14  1  0
 14 15  2  0
 14 16  2  0
 14 17  1  0
 17 18  2  0
 18 19  1  0
 19 20  2  0
 20 21  1  0
 21 22  2  0
 22 23  1  0
 23 24  1  0
 23 25  1  0
 25 26  1  0
 25 27  2  0
 25 28  2  0
 12 29  1  0
 29 30  2  0
  4 31  1  0
 31 32  1  0
 32  2  1  0
 30  9  1  0
 22 17  1  0
  1 33  1  0
  1 34  1  0
  1 35  1  0
  3 36  1  0
 10 37  1  0
 11 38  1  0
 18 39  1  0
 19 40  1  0
 20 41  1  0
 21 42  1  0
 24 43  1  0
 24 44  1  0
 24 45  1  0
 26 46  1  0
 26 47  1  0
 26 48  1  0
 29 49  1  0
 30 50  1  0
 31 51  1  0
M  CHG  1  13  -1
M  END
>  <UniqueID>  (64) 
56

>  <SMILES>  (64) 
Cc1cc(=NS(=O)(=O)c2ccc([N-]S(=O)(=O)c3ccccc3N(C)S(C)(=O)=O)cc2)[nH]o1

>  <Energy>  (64) 
92.78190721073771

>  <Genealogy>  (64) 
Cc1cc(=NS(=O)(=O)c2ccc([N-]S(=O)(=O)c3ccccc3N(C)S(C)(=O)=O)cc2)[nH]o1 (protonated)
Cc1cc(=NS(=O)(=O)c2ccc([N-]S(=O)(=O)c3ccccc3N(C)S(C)(=O)=O)cc2)[nH]o1 (3D coordinates assigned)
Cc1cc(=NS(=O)(=O)c2ccc([N-]S(=O)(=O)c3ccccc3N(C)S(C)(=O)=O)cc2)[nH]o1 (optimized conformer: 92.78190721073771 kcal/mol)

>  <smiles>  (64) 
Cc1cc(=NS(=O)(=O)c2ccc(NS(=O)(=O)c3ccccc3N(C)S(C)(=O)=O)cc2)[nH]o1

>  <score_type>  (64) 
oracle

>  <origin>  (64) 
adg

>  <m_score__min__energy>  (64) 
-10.94

>  <m_primary>  (64) 
energy

$$$$
64:0
     RDKit          3D

 37 39  0  0  0  0  0  0  0  0999 V2000
   57.7620   26.1170   44.7260 C   0  0  0  0  0  0  0  0  0  0  0  0
   56.6710   26.8480   45.9280 S   0  0  0  0  0  0  0  0  0  0  0  0
   57.4820   27.2720   47.1200 O   0  0  0  0  0  0  0  0  0  0  0  0
   55.6400   25.8510   46.3760 O   0  0  0  0  0  0  0  0  0  0  0  0
   55.8950   28.2460   45.2580 N   0  0  0  0  0  0  0  0  0  0  0  0
   56.5590   29.3910   44.7080 C   0  0  0  0  0  0  0  0  0  0  0  0
   56.4030   29.7850   43.3690 C   0  0  0  0  0  0  0  0  0  0  0  0
   57.0600   30.8770   42.8990 N   0  0  0  0  0  0  0  0  0  0  0  0
   57.8800   31.6180   43.6880 C   0  0  0  0  0  0  0  0  0  0  0  0
   58.0700   31.2730   45.0360 C   0  0  0  0  0  0  0  0  0  0  0  0
   58.9630   32.0770   45.9100 C   0  0  0  0  0  0  0  0  0  0  0  0
   58.7920   33.4630   46.0460 C   0  0  0  0  0  0  0  0  0  0  0  0
   59.6230   34.1780   46.8480 N   0  0  0  0  0  0  0  0  0  0  0  0
   60.6320   33.5800   47.5300 C   0  0  0  0  0  0  0  0  0  0  0  0
   61.3890   34.2990   48.3060 N   0  0  0  0  0  0  0  0  0  0  0  0
   62.5660   33.8440   48.9920 C   0  0  0  0  0  0  0  0  0  0  0  0
   62.5600   33.8120   50.3930 C   0  0  0  0  0  0  0  0  0  0  0  0
   63.6960   33.3970   51.0960 C   0  0  0  0  0  0  0  0  0  0  0  0
   64.8530   33.0300   50.4030 C   0  0  0  0  0  0  0  0  0  0  0  0
   66.2780   32.5140   51.2860 Cl  0  0  0  0  0  0  0  0  0  0  0  0
   64.8800   33.0920   49.0060 C   0  0  0  0  0  0  0  0  0  0  0  0
   63.7450   33.5060   48.2980 C   0  0  0  0  0  0  0  0  0  0  0  0
   63.8180   33.6260   46.9490 F   0  0  0  0  0  0  0  0  0  0  0  0
   60.8090   32.2340   47.4230 N   0  0  0  0  0  0  0  0  0  0  0  0
   60.0060   31.4790   46.6310 C   0  0  0  0  0  0  0  0  0  0  0  0
   57.3960   30.1460   45.5350 C   0  0  0  0  0  0  0  0  0  0  0  0
   58.5684   25.5767   45.2435 H   0  0  0  0  0  0  0  0  0  0  0  0
   57.1959   25.4152   44.0959 H   0  0  0  0  0  0  0  0  0  0  0  0
   58.1958   26.9075   44.0959 H   0  0  0  0  0  0  0  0  0  0  0  0
   55.7476   29.2083   42.6997 H   0  0  0  0  0  0  0  0  0  0  0  0
   58.3982   32.4932   43.2690 H   0  0  0  0  0  0  0  0  0  0  0  0
   57.9828   33.9719   45.5017 H   0  0  0  0  0  0  0  0  0  0  0  0
   61.6569   34.1149   50.9431 H   0  0  0  0  0  0  0  0  0  0  0  0
   63.6787   33.3595   52.1952 H   0  0  0  0  0  0  0  0  0  0  0  0
   65.7951   32.8149   48.4621 H   0  0  0  0  0  0  0  0  0  0  0  0
   60.1741   30.3946   46.5546 H   0  0  0  0  0  0  0  0  0  0  0  0
   57.5282   29.8545   46.5874 H   0  0  0  0  0  0  0  0  0  0  0  0
  1  2  1  0
  2  3  2  0
  2  4  2  0
  2  5  1  0
  5  6  1  0
  6  7  2  0
  7  8  1  0
  8  9  2  0
  9 10  1  0
 10 11  1  0
 11 12  1  0
 12 13  2  0
 13 14  1  0
 14 15  2  3
 15 16  1  0
 16 17  2  0
 17 18  1  0
 18 19  2  0
 19 20  1  0
 19 21  1  0
 21 22  2  0
 22 23  1  0
 14 24  1  0
 24 25  1  0
 10 26  2  0
 26  6  1  0
 25 11  2  0
 22 16  1  0
  1 27  1  0
  1 28  1  0
  1 29  1  0
  7 30  1  0
  9 31  1  0
 12 32  1  0
 17 33  1  0
 18 34  1  0
 21 35  1  0
 25 36  1  0
 26 37  1  0
M  CHG  2   5  -1  24  -1
M  END
>  <UniqueID>  (65) 
57

>  <SMILES>  (65) 
CS(=O)(=O)[N-]c1cncc(-c2cnc(=Nc3ccc(Cl)cc3F)[n-]c2)c1

>  <Energy>  (65) 
53.41967154818343

>  <Genealogy>  (65) 
CS(=O)(=O)[N-]c1cncc(-c2cnc(=Nc3ccc(Cl)cc3F)[n-]c2)c1 (protonated)
CS(=O)(=O)[N-]c1cncc(-c2cnc(=Nc3ccc(Cl)cc3F)[n-]c2)c1 (3D coordinates assigned)
CS(=O)(=O)[N-]c1cncc(-c2cnc(=Nc3ccc(Cl)cc3F)[n-]c2)c1 (optimized conformer: 53.41967154818343 kcal/mol)

>  <smiles>  (65) 
CS(=O)(=O)Nc1cncc(-c2cnc(=Nc3ccc(Cl)cc3F)[nH]c2)c1

>  <score_type>  (65) 
oracle

>  <origin>  (65) 
adg

>  <m_score__min__energy>  (65) 
-11.15

>  <m_primary>  (65) 
energy

$$$$
65:0
     RDKit          3D

 71 77  0  0  0  0  0  0  0  0999 V2000
   57.2280   31.0570   55.7340 C   0  0  0  0  0  0  0  0  0  0  0  0
   56.6960   30.8330   54.4320 O   0  0  0  0  0  0  0  0  0  0  0  0
   57.4140   31.0150   53.2380 C   0  0  0  0  0  0  0  0  0  0  0  0
   57.4760   32.2610   52.5920 C   0  0  0  0  0  0  0  0  0  0  0  0
   58.1960   32.4090   51.4060 C   0  0  0  0  0  0  0  0  0  0  0  0
   58.8940   31.3270   50.8390 C   0  0  0  0  0  0  0  0  0  0  0  0
   59.6300   31.5410   49.5120 C   0  0  1  0  0  0  0  0  0  0  0  0
   61.1660   31.7850   49.6210 C   0  0  0  0  0  0  0  0  0  0  0  0
   61.6830   32.0180   50.9200 C   0  0  0  0  0  0  0  0  0  0  0  0
   63.0510   32.1340   51.1670 C   0  0  0  0  0  0  0  0  0  0  0  0
   63.4910   32.2900   52.5230 N   0  0  0  0  0  0  0  0  0  0  0  0
   62.4850   32.1130   53.9240 S   0  0  0  0  0  0  0  0  0  0  0  0
   61.3600   33.4880   54.0040 C   0  0  0  0  0  0  0  0  0  0  0  0
   61.6920   30.8410   53.8250 O   0  0  0  0  0  0  0  0  0  0  0  0
   63.3260   32.0990   55.1710 O   0  0  0  0  0  0  0  0  0  0  0  0
   63.9460   32.0910   50.0960 C   0  0  0  0  0  0  0  0  0  0  0  0
   63.4660   32.0000   48.7940 C   0  0  0  0  0  0  0  0  0  0  0  0
   62.0870   31.9070   48.5250 C   0  0  0  0  0  0  0  0  0  0  0  0
   61.6930   31.9900   47.0710 C   0  0  0  0  0  0  0  0  0  0  0  0
   59.4060   30.4240   48.5070 C   0  0  0  0  0  0  0  0  0  0  0  0
   58.6110   30.8020   47.5090 C   0  0  0  0  0  0  0  0  0  0  0  0
   58.1610   29.8470   46.4760 C   0  0  0  0  0  0  0  0  0  0  0  0
   57.2390   30.1590   45.6760 O   0  0  0  0  0  0  0  0  0  0  0  0
   58.7740   28.4990   46.4330 C   0  0  0  0  0  0  0  0  0  0  0  0
   58.4560   27.5920   45.4070 C   0  0  0  0  0  0  0  0  0  0  0  0
   59.0410   26.3230   45.3840 C   0  0  0  0  0  0  0  0  0  0  0  0
   59.9450   25.9480   46.3780 C   0  0  0  0  0  0  0  0  0  0  0  0
   60.2720   26.8380   47.4040 C   0  0  0  0  0  0  0  0  0  0  0  0
   59.6910   28.1190   47.4410 C   0  0  0  0  0  0  0  0  0  0  0  0
   60.0190   29.0760   48.5270 C   0  0  0  0  0  0  0  0  0  0  0  0
   60.8100   28.7490   49.4510 O   0  0  0  0  0  0  0  0  0  0  0  0
   58.1400   32.2040   47.7000 C   0  0  2  0  0  0  0  0  0  0  0  0
   58.4990   33.2000   46.6200 C   0  0  0  0  0  0  0  0  0  0  0  0
   58.1240   33.2230   45.2720 C   0  0  0  0  0  0  0  0  0  0  0  0
   58.5600   34.2910   44.4690 C   0  0  0  0  0  0  0  0  0  0  0  0
   59.3350   35.3310   45.0220 C   0  0  0  0  0  0  0  0  0  0  0  0
   59.6630   35.3200   46.3860 C   0  0  0  0  0  0  0  0  0  0  0  0
   59.2150   34.2500   47.1590 C   0  0  0  0  0  0  0  0  0  0  0  0
   59.4470   33.9500   48.5490 C   0  0  0  0  0  0  0  0  0  0  0  0
   60.0970   34.6670   49.3580 O   0  0  0  0  0  0  0  0  0  0  0  0
   58.9170   32.6590   48.8570 N   0  0  0  0  0  0  0  0  0  0  0  0
   58.8010   30.0690   51.4760 C   0  0  0  0  0  0  0  0  0  0  0  0
   58.0820   29.9150   52.6720 C   0  0  0  0  0  0  0  0  0  0  0  0
   57.9970   28.5660   53.3300 C   0  0  0  0  0  0  0  0  0  0  0  0
   56.4912   30.7468   56.4895 H   0  0  0  0  0  0  0  0  0  0  0  0
   58.1504   30.4709   55.8590 H   0  0  0  0  0  0  0  0  0  0  0  0
   57.4533   32.1264   55.8590 H   0  0  0  0  0  0  0  0  0  0  0  0
   56.9529   33.1266   53.0245 H   0  0  0  0  0  0  0  0  0  0  0  0
   58.2183   33.3884   50.9057 H   0  0  0  0  0  0  0  0  0  0  0  0
   60.9815   32.1105   51.7622 H   0  0  0  0  0  0  0  0  0  0  0  0
   61.1576   33.7354   55.0565 H   0  0  0  0  0  0  0  0  0  0  0  0
   61.8084   34.3583   53.5025 H   0  0  0  0  0  0  0  0  0  0  0  0
   60.4181   33.2208   53.5025 H   0  0  0  0  0  0  0  0  0  0  0  0
   65.0295   32.1291   50.2820 H   0  0  0  0  0  0  0  0  0  0  0  0
   64.1789   32.0007   47.9563 H   0  0  0  0  0  0  0  0  0  0  0  0
   60.6192   32.2162   46.9944 H   0  0  0  0  0  0  0  0  0  0  0  0
   62.2714   32.7860   46.5792 H   0  0  0  0  0  0  0  0  0  0  0  0
   61.9011   31.0283   46.5792 H   0  0  0  0  0  0  0  0  0  0  0  0
   57.7445   27.8821   44.6198 H   0  0  0  0  0  0  0  0  0  0  0  0
   58.7877   25.6173   44.5791 H   0  0  0  0  0  0  0  0  0  0  0  0
   60.4021   24.9478   46.3539 H   0  0  0  0  0  0  0  0  0  0  0  0
   60.9856   26.5365   48.1850 H   0  0  0  0  0  0  0  0  0  0  0  0
   57.0417   32.1748   47.7537 H   0  0  0  0  0  0  0  0  0  0  0  0
   57.5005   32.4214   44.8493 H   0  0  0  0  0  0  0  0  0  0  0  0
   58.2948   34.3156   43.4017 H   0  0  0  0  0  0  0  0  0  0  0  0
   59.6839   36.1543   44.3813 H   0  0  0  0  0  0  0  0  0  0  0  0
   60.2562   36.1318   46.8323 H   0  0  0  0  0  0  0  0  0  0  0  0
   59.2997   29.1969   51.0278 H   0  0  0  0  0  0  0  0  0  0  0  0
   58.0048   28.6900   54.4230 H   0  0  0  0  0  0  0  0  0  0  0  0
   57.0656   28.0669   53.0243 H   0  0  0  0  0  0  0  0  0  0  0  0
   58.8584   27.9540   53.0243 H   0  0  0  0  0  0  0  0  0  0  0  0
  1  2  1  0
  2  3  1  0
  3  4  2  0
  4  5  1  0
  5  6  2  0
  7  6  1  1
  7  8  1  0
  8  9  2  0
  9 10  1  0
 10 11  1  0
 11 12  1  0
 12 13  1  0
 12 14  2  0
 12 15  2  0
 10 16  2  0
 16 17  1  0
 17 18  2  0
 18 19  1  0
  7 20  1  0
 20 21  2  0
 21 22  1  0
 22 23  2  0
 22 24  1  0
 24 25  2  0
 25 26  1  0
 26 27  2  0
 27 28  1  0
 28 29  2  0
 29 30  1  0
 30 31  2  0
 21 32  1  0
 32 33  1  0
 33 34  2  0
 34 35  1  0
 35 36  2  0
 36 37  1  0
 37 38  2  0
 38 39  1  0
 39 40  2  0
 39 41  1  0
  6 42  1  0
 42 43  2  0
 43 44  1  0
 43  3  1  0
 41  7  1  0
 18  8  1  0
 30 20  1  0
 41 32  1  0
 29 24  1  0
 38 33  1  0
  1 45  1  0
  1 46  1  0
  1 47  1  0
  4 48  1  0
  5 49  1  0
  9 50  1  0
 13 51  1  0
 13 52  1  0
 13 53  1  0
 16 54  1  0
 17 55  1  0
 19 56  1  0
 19 57  1  0
 19 58  1  0
 25 59  1  0
 26 60  1  0
 27 61  1  0
 28 62  1  0
 32 63  1  1
 34 64  1  0
 35 65  1  0
 36 66  1  0
 37 67  1  0
 42 68  1  0
 44 69  1  0
 44 70  1  0
 44 71  1  0
M  CHG  1  11  -1
M  END
>  <UniqueID>  (66) 
58

>  <SMILES>  (66) 
COc1ccc([C@@]2(c3cc([N-]S(C)(=O)=O)ccc3C)C3=C(C(=O)c4ccccc4C3=O)[C@@H]3c4ccccc4C(=O)N32)cc1C

>  <Energy>  (66) 
140.6290406271235

>  <Genealogy>  (66) 
COc1ccc(C2(c3cc([N-]S(C)(=O)=O)ccc3C)C3=C(C(=O)c4ccccc4C3=O)C3c4ccccc4C(=O)N32)cc1C (protonated)
COc1ccc([C@@]2(c3cc([N-]S(C)(=O)=O)ccc3C)C3=C(C(=O)c4ccccc4C3=O)[C@@H]3c4ccccc4C(=O)N32)cc1C (chirality)
COc1ccc([C@@]2(c3cc([N-]S(C)(=O)=O)ccc3C)C3=C(C(=O)c4ccccc4C3=O)[C@@H]3c4ccccc4C(=O)N32)cc1C (3D coordinates assigned)
COc1ccc([C@@]2(c3cc([N-]S(C)(=O)=O)ccc3C)C3=C(C(=O)c4ccccc4C3=O)[C@@H]3c4ccccc4C(=O)N32)cc1C (nonaromatic ring conformer: 140.6290406271235 kcal/mol)

>  <smiles>  (66) 
COc1ccc(C2(c3cc(NS(C)(=O)=O)ccc3C)C3=C(C(=O)c4ccccc4C3=O)C3c4ccccc4C(=O)N32)cc1C

>  <score_type>  (66) 
oracle

>  <origin>  (66) 
adg

>  <m_score__min__energy>  (66) 
-11.07

>  <m_primary>  (66) 
energy

$$$$
66:0
     RDKit          3D

 51 54  0  0  0  0  0  0  0  0999 V2000
   57.3890   21.1690   43.0400 C   0  0  0  0  0  0  0  0  0  0  0  0
   56.1080   21.1320   43.6590 O   0  0  0  0  0  0  0  0  0  0  0  0
   55.7410   21.8990   44.7750 C   0  0  0  0  0  0  0  0  0  0  0  0
   55.0850   21.2590   45.8300 C   0  0  0  0  0  0  0  0  0  0  0  0
   54.7040   21.9650   46.9750 C   0  0  0  0  0  0  0  0  0  0  0  0
   54.0540   21.2630   48.0020 O   0  0  0  0  0  0  0  0  0  0  0  0
   53.5560   19.9350   47.8800 C   0  0  0  0  0  0  0  0  0  0  0  0
   54.9810   23.3420   47.0580 C   0  0  0  0  0  0  0  0  0  0  0  0
   55.6240   24.0090   46.0020 C   0  0  0  0  0  0  0  0  0  0  0  0
   55.9050   25.4610   46.1160 C   0  0  0  0  0  0  0  0  0  0  0  0
   54.9520   26.2780   45.9890 O   0  0  0  0  0  0  0  0  0  0  0  0
   57.2350   25.9450   46.3780 N   0  0  0  0  0  0  0  0  0  0  0  0
   57.5880   27.3350   46.3580 C   0  0  0  0  0  0  0  0  0  0  0  0
   58.6000   27.8960   47.5240 S   0  0  0  0  0  0  0  0  0  0  0  0
   57.0660   28.2080   45.3340 N   0  0  0  0  0  0  0  0  0  0  0  0
   57.4860   29.5650   45.1270 C   0  0  0  0  0  0  0  0  0  0  0  0
   56.9600   30.2910   44.0520 C   0  0  0  0  0  0  0  0  0  0  0  0
   57.3810   31.6000   43.8140 C   0  0  0  0  0  0  0  0  0  0  0  0
   58.3450   32.1900   44.6350 C   0  0  0  0  0  0  0  0  0  0  0  0
   58.9100   31.4670   45.7020 C   0  0  0  0  0  0  0  0  0  0  0  0
   59.9480   32.0580   46.5790 C   0  0  0  0  0  0  0  0  0  0  0  0
   59.7970   33.2030   47.2990 N   0  0  0  0  0  0  0  0  0  0  0  0
   60.9750   33.3360   47.9250 C   0  0  0  0  0  0  0  0  0  0  0  0
   61.3870   34.3380   48.8010 C   0  0  0  0  0  0  0  0  0  0  0  0
   62.6900   34.2450   49.3280 C   0  0  0  0  0  0  0  0  0  0  0  0
   63.5350   33.1660   48.9690 C   0  0  0  0  0  0  0  0  0  0  0  0
   65.1540   33.0660   49.6340 Cl  0  0  0  0  0  0  0  0  0  0  0  0
   63.0800   32.1720   48.0790 C   0  0  0  0  0  0  0  0  0  0  0  0
   61.7870   32.2990   47.5790 C   0  0  0  0  0  0  0  0  0  0  0  0
   61.1460   31.5160   46.7490 O   0  0  0  0  0  0  0  0  0  0  0  0
   58.4790   30.1480   45.9330 C   0  0  0  0  0  0  0  0  0  0  0  0
   56.0130   23.2770   44.8660 C   0  0  0  0  0  0  0  0  0  0  0  0
   58.1699   21.1916   43.8144 H   0  0  0  0  0  0  0  0  0  0  0  0
   57.5195   20.2743   42.4136 H   0  0  0  0  0  0  0  0  0  0  0  0
   57.4677   22.0698   42.4136 H   0  0  0  0  0  0  0  0  0  0  0  0
   54.8651   20.1836   45.7585 H   0  0  0  0  0  0  0  0  0  0  0  0
   53.3965   19.5097   48.8819 H   0  0  0  0  0  0  0  0  0  0  0  0
   52.6024   19.9499   47.3319 H   0  0  0  0  0  0  0  0  0  0  0  0
   54.2843   19.3192   47.3319 H   0  0  0  0  0  0  0  0  0  0  0  0
   54.6910   23.9021   47.9592 H   0  0  0  0  0  0  0  0  0  0  0  0
   57.9840   25.2720   46.6490 H   0  0  0  0  0  0  0  0  0  0  0  0
   56.3170   27.8500   44.7020 H   0  0  0  0  0  0  0  0  0  0  0  0
   56.2117   29.8278   43.3921 H   0  0  0  0  0  0  0  0  0  0  0  0
   56.9520   32.1696   42.9764 H   0  0  0  0  0  0  0  0  0  0  0  0
   58.6643   33.2256   44.4464 H   0  0  0  0  0  0  0  0  0  0  0  0
   58.9750   33.8430   47.3650 H   0  0  0  0  0  0  0  0  0  0  0  0
   60.7201   35.1701   49.0708 H   0  0  0  0  0  0  0  0  0  0  0  0
   63.0541   35.0157   50.0233 H   0  0  0  0  0  0  0  0  0  0  0  0
   63.7228   31.3273   47.7903 H   0  0  0  0  0  0  0  0  0  0  0  0
   58.9241   29.5663   46.7537 H   0  0  0  0  0  0  0  0  0  0  0  0
   56.5342   23.7856   44.0416 H   0  0  0  0  0  0  0  0  0  0  0  0
  1  2  1  0
  2  3  1  0
  3  4  2  0
  4  5  1  0
  5  6  1  0
  6  7  1  0
  5  8  2  0
  8  9  1  0
  9 10  1  0
 10 11  2  0
 10 12  1  0
 12 13  1  0
 13 14  2  0
 13 15  1  0
 15 16  1  0
 16 17  2  0
 17 18  1  0
 18 19  2  0
 19 20  1  0
 20 21  1  0
 21 22  2  0
 22 23  1  0
 23 24  2  0
 24 25  1  0
 25 26  2  0
 26 27  1  0
 26 28  1  0
 28 29  2  0
 29 30  1  0
 20 31  2  0
  9 32  2  0
 32  3  1  0
 31 16  1  0
 30 21  1  0
 29 23  1  0
  1 33  1  0
  1 34  1  0
  1 35  1  0
  4 36  1  0
  7 37  1  0
  7 38  1  0
  7 39  1  0
  8 40  1  0
 12 41  1  0
 15 42  1  0
 17 43  1  0
 18 44  1  0
 19 45  1  0
 22 46  1  0
 24 47  1  0
 25 48  1  0
 28 49  1  0
 31 50  1  0
 32 51  1  0
M  CHG  1  22   1
M  END
>  <UniqueID>  (67) 
59

>  <SMILES>  (67) 
COc1cc(OC)cc(C(=O)NC(=S)Nc2cccc(-c3[nH+]c4ccc(Cl)cc4o3)c2)c1

>  <Energy>  (67) 
106.58534889244847

>  <Genealogy>  (67) 
COc1cc(OC)cc(C(=O)NC(=S)Nc2cccc(-c3[nH+]c4ccc(Cl)cc4o3)c2)c1 (protonated)
COc1cc(OC)cc(C(=O)NC(=S)Nc2cccc(-c3[nH+]c4ccc(Cl)cc4o3)c2)c1 (3D coordinates assigned)
COc1cc(OC)cc(C(=O)NC(=S)Nc2cccc(-c3[nH+]c4ccc(Cl)cc4o3)c2)c1 (optimized conformer: 106.58534889244847 kcal/mol)

>  <smiles>  (67) 
COc1cc(OC)cc(C(=O)NC(=S)Nc2cccc(-c3nc4ccc(Cl)cc4o3)c2)c1

>  <score_type>  (67) 
oracle

>  <origin>  (67) 
adg

>  <m_score__min__energy>  (67) 
-7.8600000000000003

>  <m_primary>  (67) 
energy

$$$$
67:0
     RDKit          3D

 23 24  0  0  0  0  0  0  0  0999 V2000
   50.6740   33.0890   52.0190 O   0  0  0  0  0  0  0  0  0  0  0  0
   51.2930   32.2990   51.2550 C   0  0  0  0  0  0  0  0  0  0  0  0
   51.0260   32.3420   49.8920 O   0  0  0  0  0  0  0  0  0  0  0  0
   52.2890   31.3380   51.7940 C   0  0  0  0  0  0  0  0  0  0  0  0
   53.6580   31.5860   51.6140 C   0  0  0  0  0  0  0  0  0  0  0  0
   54.5960   30.7250   52.0960 N   0  0  0  0  0  0  0  0  0  0  0  0
   54.2580   29.5840   52.7730 C   0  0  0  0  0  0  0  0  0  0  0  0
   55.2910   28.6360   53.3020 C   0  0  0  0  0  0  0  0  0  0  0  0
   54.9650   27.4670   54.0220 C   0  0  0  0  0  0  0  0  0  0  0  0
   55.9840   26.6310   54.4850 C   0  0  0  0  0  0  0  0  0  0  0  0
   57.3170   26.9510   54.2360 C   0  0  0  0  0  0  0  0  0  0  0  0
   57.6140   28.1100   53.5230 C   0  0  0  0  0  0  0  0  0  0  0  0
   56.6100   28.9120   53.0800 N   0  0  0  0  0  0  0  0  0  0  0  0
   52.8940   29.3020   52.9720 C   0  0  0  0  0  0  0  0  0  0  0  0
   51.9140   30.1700   52.4880 C   0  0  0  0  0  0  0  0  0  0  0  0
   50.7010   29.8920   52.6820 O   0  0  0  0  0  0  0  0  0  0  0  0
   53.9784   32.4899   51.0752 H   0  0  0  0  0  0  0  0  0  0  0  0
   55.5890   30.9820   51.9190 H   0  0  0  0  0  0  0  0  0  0  0  0
   53.9124   27.2149   54.2180 H   0  0  0  0  0  0  0  0  0  0  0  0
   55.7337   25.7190   55.0468 H   0  0  0  0  0  0  0  0  0  0  0  0
   58.1241   26.2970   54.5977 H   0  0  0  0  0  0  0  0  0  0  0  0
   58.6614   28.3764   53.3183 H   0  0  0  0  0  0  0  0  0  0  0  0
   52.5979   28.3911   53.5128 H   0  0  0  0  0  0  0  0  0  0  0  0
  1  2  2  0
  2  3  1  0
  2  4  1  0
  4  5  2  0
  5  6  1  0
  6  7  1  0
  7  8  1  0
  8  9  2  0
  9 10  1  0
 10 11  2  0
 11 12  1  0
 12 13  2  0
  7 14  2  0
 14 15  1  0
 15 16  2  0
 15  4  1  0
 13  8  1  0
  5 17  1  0
  6 18  1  0
  9 19  1  0
 10 20  1  0
 11 21  1  0
 12 22  1  0
 14 23  1  0
M  CHG  1   3  -1
M  END
>  <UniqueID>  (68) 
60

>  <SMILES>  (68) 
O=C([O-])c1c[nH]c(-c2ccccn2)cc1=O

>  <Energy>  (68) 
32.23673584097124

>  <Genealogy>  (68) 
O=C([O-])c1c[nH]c(-c2ccccn2)cc1=O (protonated)
O=C([O-])c1c[nH]c(-c2ccccn2)cc1=O (3D coordinates assigned)
O=C([O-])c1c[nH]c(-c2ccccn2)cc1=O (optimized conformer: 32.23673584097124 kcal/mol)

>  <smiles>  (68) 
O=C(O)c1c[nH]c(-c2ccccn2)cc1=O

>  <score_type>  (68) 
oracle

>  <origin>  (68) 
adg

>  <m_score__min__energy>  (68) 
-8.4700000000000006

>  <m_primary>  (68) 
energy

$$$$
68:0
     RDKit          3D

 30 31  0  0  0  0  0  0  0  0999 V2000
   60.5950   34.1800   48.5690 C   0  0  0  0  0  0  0  0  0  0  0  0
   59.3480   33.3500   48.5110 C   0  0  0  0  0  0  0  0  0  0  0  0
   58.8820   32.8930   49.5910 O   0  0  0  0  0  0  0  0  0  0  0  0
   58.6550   33.0580   47.2270 C   0  0  0  0  0  0  0  0  0  0  0  0
   58.1990   34.1150   46.4160 C   0  0  0  0  0  0  0  0  0  0  0  0
   57.5620   33.8550   45.2020 C   0  0  0  0  0  0  0  0  0  0  0  0
   57.3610   32.5410   44.7820 C   0  0  0  0  0  0  0  0  0  0  0  0
   57.7820   31.4690   45.5790 C   0  0  0  0  0  0  0  0  0  0  0  0
   57.5780   30.1240   45.1120 N   0  0  0  0  0  0  0  0  0  0  0  0
   58.6270   29.1510   44.9820 C   0  0  0  0  0  0  0  0  0  0  0  0
   59.7670   29.3650   45.4780 O   0  0  0  0  0  0  0  0  0  0  0  0
   58.3470   27.8290   44.3380 C   0  0  0  0  0  0  0  0  0  0  0  0
   57.4350   27.0190   45.2040 C   0  0  0  0  0  0  0  0  0  0  0  0
   57.8380   25.5490   45.9240 S   0  0  0  0  0  0  0  0  0  0  0  0
   56.3570   25.4380   46.7140 C   0  0  0  0  0  0  0  0  0  0  0  0
   56.0240   24.4840   47.4650 O   0  0  0  0  0  0  0  0  0  0  0  0
   55.5520   26.4920   46.4630 N   0  0  0  0  0  0  0  0  0  0  0  0
   56.1560   27.3760   45.6260 C   0  0  0  0  0  0  0  0  0  0  0  0
   55.5280   28.5500   45.2300 O   0  0  0  0  0  0  0  0  0  0  0  0
   58.4460   31.7330   46.7910 C   0  0  0  0  0  0  0  0  0  0  0  0
   60.8666   34.3608   49.6195 H   0  0  0  0  0  0  0  0  0  0  0  0
   61.4144   33.6465   48.0650 H   0  0  0  0  0  0  0  0  0  0  0  0
   60.4191   35.1418   48.0650 H   0  0  0  0  0  0  0  0  0  0  0  0
   58.3463   35.1551   46.7424 H   0  0  0  0  0  0  0  0  0  0  0  0
   57.2172   34.6898   44.5742 H   0  0  0  0  0  0  0  0  0  0  0  0
   56.8685   32.3448   43.8182 H   0  0  0  0  0  0  0  0  0  0  0  0
   56.5980   29.8070   44.9430 H   0  0  0  0  0  0  0  0  0  0  0  0
   57.8696   27.9940   43.3609 H   0  0  0  0  0  0  0  0  0  0  0  0
   59.2940   27.2855   44.2045 H   0  0  0  0  0  0  0  0  0  0  0  0
   58.8067   30.8955   47.4063 H   0  0  0  0  0  0  0  0  0  0  0  0
  1  2  1  0
  2  3  2  0
  2  4  1  0
  4  5  2  0
  5  6  1  0
  6  7  2  0
  7  8  1  0
  8  9  1  0
  9 10  1  0
 10 11  2  0
 10 12  1  0
 12 13  1  0
 13 14  1  0
 14 15  1  0
 15 16  2  0
 15 17  1  0
 17 18  1  0
 18 19  1  0
  8 20  2  0
 20  4  1  0
 18 13  2  0
  1 21  1  0
  1 22  1  0
  1 23  1  0
  5 24  1  0
  6 25  1  0
  7 26  1  0
  9 27  1  0
 12 28  1  0
 12 29  1  0
 20 30  1  0
M  CHG  2  17  -1  19  -1
M  END
>  <UniqueID>  (69) 
61

>  <SMILES>  (69) 
CC(=O)c1cccc(NC(=O)Cc2sc(=O)[n-]c2[O-])c1

>  <Energy>  (69) 
62.473281708861506

>  <Genealogy>  (69) 
CC(=O)c1cccc(NC(=O)Cc2sc(=O)[n-]c2[O-])c1 (protonated)
CC(=O)c1cccc(NC(=O)Cc2sc(=O)[n-]c2[O-])c1 (3D coordinates assigned)
CC(=O)c1cccc(NC(=O)Cc2sc(=O)[n-]c2[O-])c1 (optimized conformer: 62.473281708861506 kcal/mol)

>  <smiles>  (69) 
CC(=O)c1cccc(NC(=O)Cc2sc(=O)[nH]c2O)c1

>  <score_type>  (69) 
oracle

>  <origin>  (69) 
adg

>  <m_score__min__energy>  (69) 
-13.74

>  <m_primary>  (69) 
energy

$$$$
69:0
     RDKit          3D

 49 50  0  0  0  0  0  0  0  0999 V2000
   56.2530   29.8030   42.9090 C   0  0  0  0  0  0  0  0  0  0  0  0
   57.3870   30.3300   43.7840 C   0  0  0  0  0  0  0  0  0  0  0  0
   57.4150   29.6670   45.1760 C   0  0  0  0  0  0  0  0  0  0  0  0
   58.7780   29.2260   45.5760 N   0  0  2  0  0  0  0  0  0  0  0  0
   59.3040   28.1740   44.6600 C   0  0  0  0  0  0  0  0  0  0  0  0
   58.2930   27.0910   44.4200 C   0  0  0  0  0  0  0  0  0  0  0  0
   57.9530   26.8120   43.2370 O   0  0  0  0  0  0  0  0  0  0  0  0
   57.7420   26.3760   45.5340 N   0  0  0  0  0  0  0  0  0  0  0  0
   56.5140   25.9590   45.6410 C   0  0  0  0  0  0  0  0  0  0  0  0
   56.0960   24.6780   45.3510 C   0  0  0  0  0  0  0  0  0  0  0  0
   54.7360   24.7410   45.5690 C   0  0  0  0  0  0  0  0  0  0  0  0
   53.7570   23.6270   45.3740 C   0  0  0  0  0  0  0  0  0  0  0  0
   54.4170   25.9600   45.9480 O   0  0  0  0  0  0  0  0  0  0  0  0
   55.4690   26.7280   46.0050 N   0  0  0  0  0  0  0  0  0  0  0  0
   58.8120   28.7930   46.9990 C   0  0  0  0  0  0  0  0  0  0  0  0
   59.9840   29.3400   47.7730 C   0  0  0  0  0  0  0  0  0  0  0  0
   59.9480   29.3430   49.0330 O   0  0  0  0  0  0  0  0  0  0  0  0
   61.1050   29.8960   47.0730 N   0  0  0  0  0  0  0  0  0  0  0  0
   61.5690   31.2520   47.1490 C   0  0  0  0  0  0  0  0  0  0  0  0
   62.8750   31.5640   47.5690 C   0  0  0  0  0  0  0  0  0  0  0  0
   63.3020   32.8930   47.6220 C   0  0  0  0  0  0  0  0  0  0  0  0
   62.4370   33.9180   47.2440 C   0  0  0  0  0  0  0  0  0  0  0  0
   61.1500   33.6200   46.7960 C   0  0  0  0  0  0  0  0  0  0  0  0
   60.7090   32.2830   46.7360 C   0  0  0  0  0  0  0  0  0  0  0  0
   59.4260   31.9420   46.2810 O   0  0  0  0  0  0  0  0  0  0  0  0
   58.3190   32.8460   46.2220 C   0  0  0  0  0  0  0  0  0  0  0  0
   55.4414   29.4258   43.5485 H   0  0  0  0  0  0  0  0  0  0  0  0
   55.8716   30.6162   42.2739 H   0  0  0  0  0  0  0  0  0  0  0  0
   56.6287   28.9872   42.2739 H   0  0  0  0  0  0  0  0  0  0  0  0
   58.3439   30.1312   43.2791 H   0  0  0  0  0  0  0  0  0  0  0  0
   57.2235   31.4079   43.9301 H   0  0  0  0  0  0  0  0  0  0  0  0
   57.0479   30.3914   45.9180 H   0  0  0  0  0  0  0  0  0  0  0  0
   56.7771   28.7720   45.1299 H   0  0  0  0  0  0  0  0  0  0  0  0
   59.4090   30.0580   45.5160 H   0  0  0  0  0  0  0  0  0  0  0  0
   59.5651   28.6376   43.6973 H   0  0  0  0  0  0  0  0  0  0  0  0
   60.1880   27.7196   45.1313 H   0  0  0  0  0  0  0  0  0  0  0  0
   56.6989   23.8174   45.0257 H   0  0  0  0  0  0  0  0  0  0  0  0
   53.4278   23.2524   46.3544 H   0  0  0  0  0  0  0  0  0  0  0  0
   52.8870   23.9976   44.8121 H   0  0  0  0  0  0  0  0  0  0  0  0
   54.2363   22.8118   44.8121 H   0  0  0  0  0  0  0  0  0  0  0  0
   57.8859   29.1313   47.4867 H   0  0  0  0  0  0  0  0  0  0  0  0
   58.9114   27.6975   46.9985 H   0  0  0  0  0  0  0  0  0  0  0  0
   63.5641   30.7565   47.8574 H   0  0  0  0  0  0  0  0  0  0  0  0
   64.3208   33.1303   47.9621 H   0  0  0  0  0  0  0  0  0  0  0  0
   62.7699   34.9650   47.2990 H   0  0  0  0  0  0  0  0  0  0  0  0
   60.4759   34.4329   46.4880 H   0  0  0  0  0  0  0  0  0  0  0  0
   58.0021   33.1048   47.2431 H   0  0  0  0  0  0  0  0  0  0  0  0
   58.6199   33.7599   45.6888 H   0  0  0  0  0  0  0  0  0  0  0  0
   57.4837   32.3685   45.6888 H   0  0  0  0  0  0  0  0  0  0  0  0
  1  2  1  0
  2  3  1  0
  3  4  1  0
  4  5  1  0
  5  6  1  0
  6  7  2  0
  6  8  1  0
  8  9  2  3
  9 10  1  0
 10 11  2  0
 11 12  1  0
 11 13  1  0
 13 14  1  0
  4 15  1  0
 15 16  1  0
 16 17  2  0
 16 18  1  0
 18 19  1  0
 19 20  2  0
 20 21  1  0
 21 22  2  0
 22 23  1  0
 23 24  2  0
 24 25  1  0
 25 26  1  0
 14  9  1  0
 24 19  1  0
  1 27  1  0
  1 28  1  0
  1 29  1  0
  2 30  1  0
  2 31  1  0
  3 32  1  0
  3 33  1  0
  4 34  1  1
  5 35  1  0
  5 36  1  0
 10 37  1  0
 12 38  1  0
 12 39  1  0
 12 40  1  0
 15 41  1  0
 15 42  1  0
 20 43  1  0
 21 44  1  0
 22 45  1  0
 23 46  1  0
 26 47  1  0
 26 48  1  0
 26 49  1  0
M  CHG  3   4   1  14  -1  18  -1
M  END
>  <UniqueID>  (70) 
62

>  <SMILES>  (70) 
CCC[N@H+](CC(=O)N=c1cc(C)o[n-]1)CC(=O)[N-]c1ccccc1OC

>  <Energy>  (70) 
85.93258016201013

>  <Genealogy>  (70) 
CCC[NH+](CC(=O)N=c1cc(C)o[n-]1)CC(=O)[N-]c1ccccc1OC (protonated)
CCC[N@H+](CC(=O)N=c1cc(C)o[n-]1)CC(=O)[N-]c1ccccc1OC (chirality)
CCC[N@H+](CC(=O)N=c1cc(C)o[n-]1)CC(=O)[N-]c1ccccc1OC (3D coordinates assigned)
CCC[N@H+](CC(=O)N=c1cc(C)o[n-]1)CC(=O)[N-]c1ccccc1OC (optimized conformer: 85.93258016201013 kcal/mol)

>  <smiles>  (70) 
CCCN(CC(=O)N=c1cc(C)o[nH]1)CC(=O)Nc1ccccc1OC

>  <score_type>  (70) 
oracle

>  <origin>  (70) 
adg

>  <m_score__min__energy>  (70) 
-9.0999999999999996

>  <m_primary>  (70) 
energy

$$$$
70:0
     RDKit          3D

 63 66  0  0  0  0  0  0  0  0999 V2000
   57.4020   31.4600   43.8890 C   0  0  0  0  0  0  0  0  0  0  0  0
   57.0800   30.9880   45.2300 N   0  0  0  0  0  0  0  0  0  0  0  0
   57.0550   29.6090   45.6130 C   0  0  0  0  0  0  0  0  0  0  0  0
   56.0760   28.8970   45.2630 O   0  0  0  0  0  0  0  0  0  0  0  0
   58.1330   29.0050   46.4260 C   0  0  0  0  0  0  0  0  0  0  0  0
   58.5100   29.6220   47.6300 C   0  0  0  0  0  0  0  0  0  0  0  0
   59.5460   29.0920   48.4130 C   0  0  0  0  0  0  0  0  0  0  0  0
   59.9080   29.7350   49.7200 C   0  0  0  0  0  0  0  0  0  0  0  0
   61.3540   29.6770   49.8920 N   0  0  0  0  0  0  0  0  0  0  0  0
   62.2460   30.7820   50.1080 C   0  0  0  0  0  0  0  0  0  0  0  0
   62.4760   31.1130   51.3010 O   0  0  0  0  0  0  0  0  0  0  0  0
   63.0590   31.4480   49.0070 C   0  0  1  0  0  0  0  0  0  0  0  0
   62.3930   31.6110   47.6410 C   0  0  0  0  0  0  0  0  0  0  0  0
   63.1270   32.7790   46.9990 C   0  0  0  0  0  0  0  0  0  0  0  0
   64.0760   33.2970   48.0750 C   0  0  0  0  0  0  0  0  0  0  0  0
   63.6090   32.7740   49.3670 N   0  0  0  0  0  0  0  0  0  0  0  0
   62.4160   33.8880   50.0450 S   0  0  0  0  0  0  0  0  0  0  0  0
   62.6690   35.2920   49.5750 O   0  0  0  0  0  0  0  0  0  0  0  0
   62.4630   33.8730   51.5480 O   0  0  0  0  0  0  0  0  0  0  0  0
   60.7950   33.4560   49.4990 C   0  0  0  0  0  0  0  0  0  0  0  0
   59.8940   32.8110   50.3590 C   0  0  0  0  0  0  0  0  0  0  0  0
   58.6140   32.4670   49.9070 C   0  0  0  0  0  0  0  0  0  0  0  0
   57.4910   31.6620   50.9860 Cl  0  0  0  0  0  0  0  0  0  0  0  0
   58.2330   32.7660   48.5950 C   0  0  0  0  0  0  0  0  0  0  0  0
   59.1290   33.4050   47.7330 C   0  0  0  0  0  0  0  0  0  0  0  0
   58.6510   33.7770   46.0860 Cl  0  0  0  0  0  0  0  0  0  0  0  0
   60.4080   33.7490   48.1840 C   0  0  0  0  0  0  0  0  0  0  0  0
   60.1940   27.9210   47.9960 C   0  0  0  0  0  0  0  0  0  0  0  0
   59.8350   27.3070   46.7950 C   0  0  0  0  0  0  0  0  0  0  0  0
   58.8180   27.8460   45.9950 C   0  0  0  0  0  0  0  0  0  0  0  0
   58.4440   27.1510   44.7450 C   0  0  0  0  0  0  0  0  0  0  0  0
   59.0290   27.5760   43.5400 C   0  0  0  0  0  0  0  0  0  0  0  0
   58.6940   26.9610   42.3340 C   0  0  0  0  0  0  0  0  0  0  0  0
   57.7680   25.9180   42.3160 C   0  0  0  0  0  0  0  0  0  0  0  0
   57.1810   25.4810   43.5050 C   0  0  0  0  0  0  0  0  0  0  0  0
   57.5160   26.0820   44.7290 C   0  0  0  0  0  0  0  0  0  0  0  0
   56.7700   25.4680   46.2150 S   0  0  0  0  0  0  0  0  0  0  0  0
   55.1630   26.0870   46.3590 N   0  0  0  0  0  0  0  0  0  0  0  0
   57.5810   25.8880   47.4100 O   0  0  0  0  0  0  0  0  0  0  0  0
   56.7180   23.9670   46.1820 O   0  0  0  0  0  0  0  0  0  0  0  0
   58.0207   32.3669   43.9582 H   0  0  0  0  0  0  0  0  0  0  0  0
   57.9561   30.6785   43.3484 H   0  0  0  0  0  0  0  0  0  0  0  0
   56.4722   31.6908   43.3484 H   0  0  0  0  0  0  0  0  0  0  0  0
   57.9871   30.5308   47.9626 H   0  0  0  0  0  0  0  0  0  0  0  0
   59.5784   30.7845   49.7187 H   0  0  0  0  0  0  0  0  0  0  0  0
   59.4135   29.2028   50.5460 H   0  0  0  0  0  0  0  0  0  0  0  0
   63.8556   30.6956   48.9100 H   0  0  0  0  0  0  0  0  0  0  0  0
   62.5117   30.6983   47.0387 H   0  0  0  0  0  0  0  0  0  0  0  0
   61.3105   31.7891   47.7209 H   0  0  0  0  0  0  0  0  0  0  0  0
   63.6914   32.4418   46.1171 H   0  0  0  0  0  0  0  0  0  0  0  0
   62.4334   33.5595   46.6530 H   0  0  0  0  0  0  0  0  0  0  0  0
   65.0986   32.9445   47.8749 H   0  0  0  0  0  0  0  0  0  0  0  0
   64.0871   34.3969   48.0841 H   0  0  0  0  0  0  0  0  0  0  0  0
   60.1935   32.5749   51.3908 H   0  0  0  0  0  0  0  0  0  0  0  0
   57.2267   32.4979   48.2408 H   0  0  0  0  0  0  0  0  0  0  0  0
   61.1122   34.2511   47.5043 H   0  0  0  0  0  0  0  0  0  0  0  0
   60.9890   27.4840   48.6181 H   0  0  0  0  0  0  0  0  0  0  0  0
   60.3546   26.3923   46.4736 H   0  0  0  0  0  0  0  0  0  0  0  0
   59.7571   28.4005   43.5481 H   0  0  0  0  0  0  0  0  0  0  0  0
   59.1602   27.2986   41.3966 H   0  0  0  0  0  0  0  0  0  0  0  0
   57.4997   25.4387   41.3630 H   0  0  0  0  0  0  0  0  0  0  0  0
   56.4501   24.6592   43.4827 H   0  0  0  0  0  0  0  0  0  0  0  0
   55.1940   27.0860   46.0550 H   0  0  0  0  0  0  0  0  0  0  0  0
  1  2  1  0
  2  3  1  0
  3  4  2  0
  3  5  1  0
  5  6  2  0
  6  7  1  0
  7  8  1  0
  8  9  1  0
  9 10  1  0
 10 11  2  0
 10 12  1  0
 12 13  1  0
 13 14  1  0
 14 15  1  0
 15 16  1  0
 16 17  1  0
 17 18  2  0
 17 19  2  0
 17 20  1  0
 20 21  2  0
 21 22  1  0
 22 23  1  0
 22 24  2  0
 24 25  1  0
 25 26  1  0
 25 27  2  0
  7 28  2  0
 28 29  1  0
 29 30  2  0
 30 31  1  0
 31 32  2  0
 32 33  1  0
 33 34  2  0
 34 35  1  0
 35 36  2  0
 36 37  1  0
 37 38  1  0
 37 39  2  0
 37 40  2  0
 30  5  1  0
 36 31  1  0
 16 12  1  0
 27 20  1  0
  1 41  1  0
  1 42  1  0
  1 43  1  0
  6 44  1  0
  8 45  1  0
  8 46  1  0
 12 47  1  6
 13 48  1  0
 13 49  1  0
 14 50  1  0
 14 51  1  0
 15 52  1  0
 15 53  1  0
 21 54  1  0
 24 55  1  0
 27 56  1  0
 28 57  1  0
 29 58  1  0
 32 59  1  0
 33 60  1  0
 34 61  1  0
 35 62  1  0
 38 63  1  0
M  CHG  3   2  -1   9  -1  38  -1
M  END
>  <UniqueID>  (71) 
63

>  <SMILES>  (71) 
C[N-]C(=O)c1cc(C[N-]C(=O)[C@H]2CCCN2S(=O)(=O)c2cc(Cl)cc(Cl)c2)ccc1-c1ccccc1S([NH-])(=O)=O

>  <Energy>  (71) 
90.45836928738623

>  <Genealogy>  (71) 
C[N-]C(=O)c1cc(C[N-]C(=O)C2CCCN2S(=O)(=O)c2cc(Cl)cc(Cl)c2)ccc1-c1ccccc1S([NH-])(=O)=O (protonated)
C[N-]C(=O)c1cc(C[N-]C(=O)[C@H]2CCCN2S(=O)(=O)c2cc(Cl)cc(Cl)c2)ccc1-c1ccccc1S([NH-])(=O)=O (chirality)
C[N-]C(=O)c1cc(C[N-]C(=O)[C@H]2CCCN2S(=O)(=O)c2cc(Cl)cc(Cl)c2)ccc1-c1ccccc1S([NH-])(=O)=O (3D coordinates assigned)
C[N-]C(=O)c1cc(C[N-]C(=O)[C@H]2CCCN2S(=O)(=O)c2cc(Cl)cc(Cl)c2)ccc1-c1ccccc1S([NH-])(=O)=O (nonaromatic ring conformer: 90.45836928738623 kcal/mol)

>  <smiles>  (71) 
CNC(=O)c1cc(CNC(=O)C2CCCN2S(=O)(=O)c2cc(Cl)cc(Cl)c2)ccc1-c1ccccc1S(N)(=O)=O

>  <score_type>  (71) 
oracle

>  <origin>  (71) 
adg

>  <m_score__min__energy>  (71) 
-16.039999999999999

>  <m_primary>  (71) 
energy

$$$$
71:0
     RDKit          3D

 49 52  0  0  0  0  0  0  0  0999 V2000
   56.8493   30.9081   41.3934 H   0  0  0  0  0  0  0  0  0  0  0  0
   56.9150   30.8780   42.4910 C   0  0  0  0  0  0  0  0  0  0  0  0
   56.4610   29.7930   43.1690 N   0  0  0  0  0  0  0  0  0  0  0  0
   56.5370   29.7290   44.5280 C   0  0  0  0  0  0  0  0  0  0  0  0
   56.0790   28.7030   45.1840 N   0  0  0  0  0  0  0  0  0  0  0  0
   56.8360   27.5790   45.6630 C   0  0  0  0  0  0  0  0  0  0  0  0
   58.2310   27.6610   45.6610 C   0  0  0  0  0  0  0  0  0  0  0  0
   58.7243   28.5784   45.3073 H   0  0  0  0  0  0  0  0  0  0  0  0
   59.0020   26.5860   46.1050 C   0  0  0  0  0  0  0  0  0  0  0  0
   60.0988   26.6678   46.1210 H   0  0  0  0  0  0  0  0  0  0  0  0
   58.3860   25.4070   46.5290 C   0  0  0  0  0  0  0  0  0  0  0  0
   58.9999   24.5698   46.8927 H   0  0  0  0  0  0  0  0  0  0  0  0
   56.9850   25.2830   46.4940 C   0  0  0  0  0  0  0  0  0  0  0  0
   56.3460   24.0170   46.9290 C   0  0  0  0  0  0  0  0  0  0  0  0
   55.0880   23.9260   46.9420 O   0  0  0  0  0  0  0  0  0  0  0  0
   57.1220   22.8940   47.3530 N   0  0  0  0  0  0  0  0  0  0  0  0
   58.1490   22.9690   47.5250 H   0  0  0  0  0  0  0  0  0  0  0  0
   56.6490   21.9940   47.5900 H   0  0  0  0  0  0  0  0  0  0  0  0
   56.2150   26.3780   46.0570 C   0  0  0  0  0  0  0  0  0  0  0  0
   55.1187   26.2945   46.0231 H   0  0  0  0  0  0  0  0  0  0  0  0
   57.0620   30.7760   45.2190 N   0  0  0  0  0  0  0  0  0  0  0  0
   57.5280   31.8810   44.5790 C   0  0  0  0  0  0  0  0  0  0  0  0
   58.0780   32.9570   45.3360 N   0  0  0  0  0  0  0  0  0  0  0  0
   58.3780   34.3890   45.1460 C   0  0  0  0  0  0  0  0  0  0  0  0
   57.4774   34.9894   44.9499 H   0  0  0  0  0  0  0  0  0  0  0  0
   59.0174   34.6587   44.2925 H   0  0  0  0  0  0  0  0  0  0  0  0
   58.9360   34.6150   46.5140 C   0  0  0  0  0  0  0  0  0  0  0  0
   58.6012   35.4000   47.2080 H   0  0  0  0  0  0  0  0  0  0  0  0
   60.3380   34.8810   46.4720 O   0  0  0  0  0  0  0  0  0  0  0  0
   61.3430   34.1930   47.1760 C   0  0  0  0  0  0  0  0  0  0  0  0
   62.4710   33.8050   46.4420 C   0  0  0  0  0  0  0  0  0  0  0  0
   62.5330   34.0527   45.3721 H   0  0  0  0  0  0  0  0  0  0  0  0
   63.5170   33.1090   47.0480 C   0  0  0  0  0  0  0  0  0  0  0  0
   64.3945   32.8104   46.4557 H   0  0  0  0  0  0  0  0  0  0  0  0
   63.4510   32.7920   48.4020 C   0  0  0  0  0  0  0  0  0  0  0  0
   64.4670   32.1130   48.9890 F   0  0  0  0  0  0  0  0  0  0  0  0
   62.3400   33.1740   49.1570 C   0  0  0  0  0  0  0  0  0  0  0  0
   62.2961   32.9230   50.2271 H   0  0  0  0  0  0  0  0  0  0  0  0
   61.2730   33.8790   48.5600 C   0  0  0  0  0  0  0  0  0  0  0  0
   60.1550   34.2700   49.3130 O   0  0  0  0  0  0  0  0  0  0  0  0
   59.6790   33.6000   50.4760 C   0  0  0  0  0  0  0  0  0  0  0  0
   60.0470   34.1179   51.3740 H   0  0  0  0  0  0  0  0  0  0  0  0
   58.5790   33.6024   50.4762 H   0  0  0  0  0  0  0  0  0  0  0  0
   60.0434   32.5621   50.4762 H   0  0  0  0  0  0  0  0  0  0  0  0
   58.6220   33.1620   46.6900 C   0  0  0  0  0  0  0  0  0  0  0  0
   57.8774   32.9807   47.4791 H   0  0  0  0  0  0  0  0  0  0  0  0
   59.4462   32.5049   47.0045 H   0  0  0  0  0  0  0  0  0  0  0  0
   57.4640   31.9530   43.1860 C   0  0  0  0  0  0  0  0  0  0  0  0
   57.8383   32.8378   42.6502 H   0  0  0  0  0  0  0  0  0  0  0  0
  1  2  1  0
  2  3  1  0
  3  4  1  0
  4  5  2  0
  5  6  1  0
  6  7  2  0
  7  8  1  0
  7  9  1  0
  9 10  1  0
  9 11  2  0
 11 12  1  0
 11 13  1  0
 13 14  1  0
 14 15  2  0
 14 16  1  0
 16 17  1  0
 16 18  1  0
 13 19  2  0
 19 20  1  0
  4 21  1  0
 21 22  2  0
 22 23  1  0
 23 24  1  0
 24 25  1  0
 24 26  1  0
 24 27  1  0
 27 28  1  0
 27 29  1  0
 29 30  1  0
 30 31  2  0
 31 32  1  0
 31 33  1  0
 33 34  1  0
 33 35  2  0
 35 36  1  0
 35 37  1  0
 37 38  1  0
 37 39  2  0
 39 40  1  0
 40 41  1  0
 41 42  1  0
 41 43  1  0
 41 44  1  0
 27 45  1  0
 45 46  1  0
 45 47  1  0
 22 48  1  0
 48 49  1  0
 48  2  2  0
 19  6  1  0
 45 23  1  0
 39 30  1  0
M  CHG  1   3  -1
M  END
>  <UniqueID>  (72) 
64

>  <SMILES>  (72) 
COc1cc(F)ccc1OC1CN(c2cc[n-]/c(=N\c3cccc(C(N)=O)c3)n2)C1

>  <Energy>  (72) 
107.25354126770279

>  <Genealogy>  (72) 
COc1cc(F)ccc1OC1CN(c2cc[n-]c(=Nc3cccc(C(N)=O)c3)n2)C1 (protonated)
COc1cc(F)ccc1OC1CN(c2cc[n-]/c(=N\c3cccc(C(N)=O)c3)n2)C1 (cis-trans isomerization)
COc1cc(F)ccc1OC1CN(c2cc[n-]/c(=N\c3cccc(C(N)=O)c3)n2)C1 (3D coordinates assigned)
COc1cc(F)ccc1OC1CN(c2cc[n-]/c(=N\c3cccc(C(N)=O)c3)n2)C1 (nonaromatic ring conformer: 107.25354126770279 kcal/mol)

>  <smiles>  (72) 
COc1cc(F)ccc1OC1CN(c2cc[nH]c(=Nc3cccc(C(N)=O)c3)n2)C1

>  <score_type>  (72) 
oracle

>  <origin>  (72) 
adg

>  <m_score__min__energy>  (72) 
-10.23

>  <m_primary>  (72) 
energy

$$$$
72:0
     RDKit          3D

 43 45  0  0  0  0  0  0  0  0999 V2000
   55.8270   19.8080   45.5610 C   0  0  0  0  0  0  0  0  0  0  0  0
   55.8810   19.5940   44.0570 C   0  0  0  0  0  0  0  0  0  0  0  0
   55.9680   20.8560   43.4000 O   0  0  0  0  0  0  0  0  0  0  0  0
   56.5400   22.0050   43.9660 C   0  0  0  0  0  0  0  0  0  0  0  0
   55.7760   23.1300   44.3260 C   0  0  0  0  0  0  0  0  0  0  0  0
   56.3940   24.2520   44.8860 C   0  0  0  0  0  0  0  0  0  0  0  0
   57.7840   24.2780   45.0980 C   0  0  0  0  0  0  0  0  0  0  0  0
   58.4300   25.4750   45.6960 C   0  0  0  0  0  0  0  0  0  0  0  0
   59.7050   25.5450   46.2630 C   0  0  0  0  0  0  0  0  0  0  0  0
   60.0390   26.8170   46.7450 C   0  0  0  0  0  0  0  0  0  0  0  0
   59.0360   27.7620   46.5620 C   0  0  0  0  0  0  0  0  0  0  0  0
   59.0990   29.1760   46.9750 C   0  0  0  0  0  0  0  0  0  0  0  0
   58.5190   29.5330   48.0350 O   0  0  0  0  0  0  0  0  0  0  0  0
   59.8450   30.1300   46.2010 N   0  0  0  0  0  0  0  0  0  0  0  0
   59.7330   31.5550   46.3610 C   0  0  0  0  0  0  0  0  0  0  0  0
   60.6490   32.2820   47.1340 C   0  0  0  0  0  0  0  0  0  0  0  0
   60.4910   33.6580   47.2880 C   0  0  0  0  0  0  0  0  0  0  0  0
   59.4100   34.3030   46.6800 C   0  0  0  0  0  0  0  0  0  0  0  0
   59.2750   35.5480   46.8320 O   0  0  0  0  0  0  0  0  0  0  0  0
   58.5080   33.5870   45.9360 N   0  0  0  0  0  0  0  0  0  0  0  0
   57.3640   34.2680   45.3160 C   0  0  0  0  0  0  0  0  0  0  0  0
   58.6510   32.2330   45.7850 C   0  0  0  0  0  0  0  0  0  0  0  0
   57.7380   27.0100   45.8040 S   0  0  0  0  0  0  0  0  0  0  0  0
   58.5410   23.1460   44.7380 C   0  0  0  0  0  0  0  0  0  0  0  0
   57.9210   22.0250   44.1790 C   0  0  0  0  0  0  0  0  0  0  0  0
   56.0650   18.8647   46.0744 H   0  0  0  0  0  0  0  0  0  0  0  0
   56.5593   20.5768   45.8485 H   0  0  0  0  0  0  0  0  0  0  0  0
   54.8176   20.1373   45.8485 H   0  0  0  0  0  0  0  0  0  0  0  0
   56.7633   18.9876   43.8044 H   0  0  0  0  0  0  0  0  0  0  0  0
   54.9705   19.0716   43.7282 H   0  0  0  0  0  0  0  0  0  0  0  0
   54.6877   23.1268   44.1662 H   0  0  0  0  0  0  0  0  0  0  0  0
   55.7856   25.1252   45.1642 H   0  0  0  0  0  0  0  0  0  0  0  0
   60.3835   24.6814   46.3251 H   0  0  0  0  0  0  0  0  0  0  0  0
   61.0029   27.0463   47.2227 H   0  0  0  0  0  0  0  0  0  0  0  0
   60.5760   29.7710   45.5470 H   0  0  0  0  0  0  0  0  0  0  0  0
   61.4916   31.7669   47.6185 H   0  0  0  0  0  0  0  0  0  0  0  0
   61.2134   34.2338   47.8851 H   0  0  0  0  0  0  0  0  0  0  0  0
   56.7022   34.6620   46.1014 H   0  0  0  0  0  0  0  0  0  0  0  0
   57.7259   35.0978   44.6911 H   0  0  0  0  0  0  0  0  0  0  0  0
   56.8071   33.5543   44.6911 H   0  0  0  0  0  0  0  0  0  0  0  0
   57.9059   31.6704   45.2034 H   0  0  0  0  0  0  0  0  0  0  0  0
   59.6293   23.1442   44.8982 H   0  0  0  0  0  0  0  0  0  0  0  0
   58.5267   21.1490   43.9037 H   0  0  0  0  0  0  0  0  0  0  0  0
  1  2  1  0
  2  3  1  0
  3  4  1  0
  4  5  2  0
  5  6  1  0
  6  7  2  0
  7  8  1  0
  8  9  2  0
  9 10  1  0
 10 11  2  0
 11 12  1  0
 12 13  2  0
 12 14  1  0
 14 15  1  0
 15 16  1  0
 16 17  2  0
 17 18  1  0
 18 19  2  0
 18 20  1  0
 20 21  1  0
 20 22  1  0
 11 23  1  0
  7 24  1  0
 24 25  2  0
 25  4  1  0
 23  8  1  0
 22 15  2  0
  1 26  1  0
  1 27  1  0
  1 28  1  0
  2 29  1  0
  2 30  1  0
  5 31  1  0
  6 32  1  0
  9 33  1  0
 10 34  1  0
 14 35  1  0
 16 36  1  0
 17 37  1  0
 21 38  1  0
 21 39  1  0
 21 40  1  0
 22 41  1  0
 24 42  1  0
 25 43  1  0
M  END
>  <UniqueID>  (73) 
65

>  <SMILES>  (73) 
CCOc1ccc(-c2ccc(C(=O)Nc3ccc(=O)n(C)c3)s2)cc1

>  <Energy>  (73) 
75.39427940655622

>  <Genealogy>  (73) 
CCOc1ccc(-c2ccc(C(=O)Nc3ccc(=O)n(C)c3)s2)cc1 (3D coordinates assigned)
CCOc1ccc(-c2ccc(C(=O)Nc3ccc(=O)n(C)c3)s2)cc1 (optimized conformer: 75.39427940655622 kcal/mol)

>  <smiles>  (73) 
CCOc1ccc(-c2ccc(C(=O)Nc3ccc(=O)n(C)c3)s2)cc1

>  <score_type>  (73) 
oracle

>  <origin>  (73) 
adg

>  <m_score__min__energy>  (73) 
-6.6900000000000004

>  <m_primary>  (73) 
energy

$$$$
73:0
     RDKit          3D

 54 57  0  0  0  0  0  0  0  0999 V2000
   54.7820   26.3450   45.9820 O   0  0  0  0  0  0  0  0  0  0  0  0
   55.9820   26.0140   46.1700 C   0  0  0  0  0  0  0  0  0  0  0  0
   56.3130   25.2110   47.2540 O   0  0  0  0  0  0  0  0  0  0  0  0
   57.0520   26.5200   45.2570 C   0  0  0  0  0  0  0  0  0  0  0  0
   57.9090   27.4770   45.9550 N   0  0  0  0  0  0  0  0  0  0  0  0
   57.9110   28.8900   45.6760 C   0  0  0  0  0  0  0  0  0  0  0  0
   57.0110   29.4170   44.7320 C   0  0  0  0  0  0  0  0  0  0  0  0
   56.9340   30.7910   44.5050 C   0  0  0  0  0  0  0  0  0  0  0  0
   57.7370   31.6700   45.2370 C   0  0  0  0  0  0  0  0  0  0  0  0
   57.6600   33.1530   45.0090 C   0  0  0  0  0  0  0  0  0  0  0  0
   58.9930   33.6680   44.7260 N   0  0  0  0  0  0  0  0  0  0  0  0
   59.6740   34.5700   45.5990 C   0  0  0  0  0  0  0  0  0  0  0  0
   59.5280   35.8100   45.4320 O   0  0  0  0  0  0  0  0  0  0  0  0
   60.5620   34.0840   46.6210 N   0  0  0  0  0  0  0  0  0  0  0  0
   60.3220   34.2970   48.0500 C   0  0  0  0  0  0  0  0  0  0  0  0
   61.6030   33.8850   48.6720 C   0  0  0  0  0  0  0  0  0  0  0  0
   61.9370   33.8770   50.0260 C   0  0  0  0  0  0  0  0  0  0  0  0
   63.2220   33.4500   50.3980 C   0  0  0  0  0  0  0  0  0  0  0  0
   64.1460   33.0400   49.4170 C   0  0  0  0  0  0  0  0  0  0  0  0
   65.3830   32.6270   49.7850 F   0  0  0  0  0  0  0  0  0  0  0  0
   63.7880   33.0570   48.0590 C   0  0  0  0  0  0  0  0  0  0  0  0
   62.5060   33.4870   47.7130 C   0  0  0  0  0  0  0  0  0  0  0  0
   61.9130   33.5780   46.3590 C   0  0  0  0  0  0  0  0  0  0  0  0
   58.6510   31.1570   46.1640 C   0  0  0  0  0  0  0  0  0  0  0  0
   58.7810   29.7700   46.3730 C   0  0  0  0  0  0  0  0  0  0  0  0
   59.8170   29.2360   47.3680 C   0  0  0  0  0  0  0  0  0  0  0  0
   59.1690   28.8870   48.7050 C   0  0  0  0  0  0  0  0  0  0  0  0
   59.3790   30.0960   49.6020 C   0  0  0  0  0  0  0  0  0  0  0  0
   60.6360   30.7940   49.0950 C   0  0  0  0  0  0  0  0  0  0  0  0
   60.9290   30.2420   47.7010 C   0  0  0  0  0  0  0  0  0  0  0  0
   57.6624   25.6732   44.9100 H   0  0  0  0  0  0  0  0  0  0  0  0
   56.5804   27.0232   44.4000 H   0  0  0  0  0  0  0  0  0  0  0  0
   58.5680   27.0990   46.6730 H   0  0  0  0  0  0  0  0  0  0  0  0
   56.3590   28.7361   44.1651 H   0  0  0  0  0  0  0  0  0  0  0  0
   56.2394   31.1838   43.7479 H   0  0  0  0  0  0  0  0  0  0  0  0
   56.9978   33.3593   44.1552 H   0  0  0  0  0  0  0  0  0  0  0  0
   57.2597   33.6432   45.9087 H   0  0  0  0  0  0  0  0  0  0  0  0
   60.1032   35.3543   48.2602 H   0  0  0  0  0  0  0  0  0  0  0  0
   59.4563   33.7354   48.4311 H   0  0  0  0  0  0  0  0  0  0  0  0
   61.2096   34.1982   50.7861 H   0  0  0  0  0  0  0  0  0  0  0  0
   63.5083   33.4356   51.4600 H   0  0  0  0  0  0  0  0  0  0  0  0
   64.5021   32.7385   47.2853 H   0  0  0  0  0  0  0  0  0  0  0  0
   62.4801   34.2760   45.7256 H   0  0  0  0  0  0  0  0  0  0  0  0
   61.9186   32.6196   45.8192 H   0  0  0  0  0  0  0  0  0  0  0  0
   59.2805   31.8505   46.7409 H   0  0  0  0  0  0  0  0  0  0  0  0
   60.2446   28.3565   46.8644 H   0  0  0  0  0  0  0  0  0  0  0  0
   58.0946   28.6936   48.5698 H   0  0  0  0  0  0  0  0  0  0  0  0
   59.6117   27.9798   49.1421 H   0  0  0  0  0  0  0  0  0  0  0  0
   58.5148   30.7734   49.5363 H   0  0  0  0  0  0  0  0  0  0  0  0
   59.4855   29.7977   50.6554 H   0  0  0  0  0  0  0  0  0  0  0  0
   60.4688   31.8800   49.0427 H   0  0  0  0  0  0  0  0  0  0  0  0
   61.4833   30.6125   49.7726 H   0  0  0  0  0  0  0  0  0  0  0  0
   60.9308   31.0592   46.9647 H   0  0  0  0  0  0  0  0  0  0  0  0
   61.9158   29.7569   47.6725 H   0  0  0  0  0  0  0  0  0  0  0  0
  1  2  2  0
  2  3  1  0
  2  4  1  0
  4  5  1  0
  5  6  1  0
  6  7  2  0
  7  8  1  0
  8  9  2  0
  9 10  1  0
 10 11  1  0
 11 12  1  0
 12 13  2  0
 12 14  1  0
 14 15  1  0
 15 16  1  0
 16 17  2  0
 17 18  1  0
 18 19  2  0
 19 20  1  0
 19 21  1  0
 21 22  2  0
 22 23  1  0
  9 24  1  0
 24 25  2  0
 25 26  1  0
 26 27  1  0
 27 28  1  0
 28 29  1  0
 29 30  1  0
 25  6  1  0
 30 26  1  0
 23 14  1  0
 22 16  1  0
  4 31  1  0
  4 32  1  0
  5 33  1  0
  7 34  1  0
  8 35  1  0
 10 36  1  0
 10 37  1  0
 15 38  1  0
 15 39  1  0
 17 40  1  0
 18 41  1  0
 21 42  1  0
 23 43  1  0
 23 44  1  0
 24 45  1  0
 26 46  1  0
 27 47  1  0
 27 48  1  0
 28 49  1  0
 28 50  1  0
 29 51  1  0
 29 52  1  0
 30 53  1  0
 30 54  1  0
M  CHG  2   3  -1  11  -1
M  END
>  <UniqueID>  (74) 
66

>  <SMILES>  (74) 
O=C([O-])CNc1ccc(C[N-]C(=O)N2Cc3ccc(F)cc3C2)cc1C1CCCC1

>  <Energy>  (74) 
74.40047692972203

>  <Genealogy>  (74) 
O=C([O-])CNc1ccc(C[N-]C(=O)N2Cc3ccc(F)cc3C2)cc1C1CCCC1 (protonated)
O=C([O-])CNc1ccc(C[N-]C(=O)N2Cc3ccc(F)cc3C2)cc1C1CCCC1 (3D coordinates assigned)
O=C([O-])CNc1ccc(C[N-]C(=O)N2Cc3ccc(F)cc3C2)cc1C1CCCC1 (nonaromatic ring conformer: 74.40047692972203 kcal/mol)

>  <smiles>  (74) 
O=C(O)CNc1ccc(CNC(=O)N2Cc3ccc(F)cc3C2)cc1C1CCCC1

>  <score_type>  (74) 
oracle

>  <origin>  (74) 
adg

>  <m_score__min__energy>  (74) 
-13.75

>  <m_primary>  (74) 
energy

$$$$
74:0
     RDKit          3D

 41 43  0  0  0  0  0  0  0  0999 V2000
   60.1890   27.2060   46.2680 C   0  0  0  0  0  0  0  0  0  0  0  0
   59.0930   27.0280   45.2350 C   0  0  0  0  0  0  0  0  0  0  0  0
   58.3560   28.3120   45.0990 C   0  0  0  0  0  0  0  0  0  0  0  0
   58.9120   29.4740   45.5180 N   0  0  0  0  0  0  0  0  0  0  0  0
   58.2520   30.6430   45.3990 C   0  0  0  0  0  0  0  0  0  0  0  0
   58.6500   31.8970   45.7610 C   0  0  0  0  0  0  0  0  0  0  0  0
   59.9230   32.2780   46.3830 C   0  0  0  0  0  0  0  0  0  0  0  0
   60.5180   33.4950   46.0300 C   0  0  0  0  0  0  0  0  0  0  0  0
   61.7200   33.8740   46.6040 C   0  0  0  0  0  0  0  0  0  0  0  0
   62.3220   33.0360   47.5290 C   0  0  0  0  0  0  0  0  0  0  0  0
   63.5270   33.3940   48.1200 O   0  0  0  0  0  0  0  0  0  0  0  0
   63.7180   33.5210   49.4940 C   0  0  0  0  0  0  0  0  0  0  0  0
   61.7590   31.8210   47.9030 C   0  0  0  0  0  0  0  0  0  0  0  0
   62.4080   31.0310   48.8300 O   0  0  0  0  0  0  0  0  0  0  0  0
   61.6290   30.4270   49.8450 C   0  0  0  0  0  0  0  0  0  0  0  0
   60.5610   31.4800   47.3080 C   0  0  0  0  0  0  0  0  0  0  0  0
   57.6010   32.7440   45.4230 C   0  0  0  0  0  0  0  0  0  0  0  0
   57.5690   34.2110   45.6260 C   0  0  0  0  0  0  0  0  0  0  0  0
   56.6350   31.9790   44.8800 N   0  0  0  0  0  0  0  0  0  0  0  0
   57.0180   30.7140   44.8620 N   0  0  0  0  0  0  0  0  0  0  0  0
   56.4670   29.5540   44.4460 C   0  0  0  0  0  0  0  0  0  0  0  0
   55.3210   29.5890   43.9430 O   0  0  0  0  0  0  0  0  0  0  0  0
   57.1230   28.3860   44.5630 N   0  0  0  0  0  0  0  0  0  0  0  0
   59.7567   27.1358   47.2771 H   0  0  0  0  0  0  0  0  0  0  0  0
   60.9466   26.4191   46.1381 H   0  0  0  0  0  0  0  0  0  0  0  0
   60.6586   28.1922   46.1381 H   0  0  0  0  0  0  0  0  0  0  0  0
   59.5372   26.7514   44.2674 H   0  0  0  0  0  0  0  0  0  0  0  0
   58.4041   26.2311   45.5517 H   0  0  0  0  0  0  0  0  0  0  0  0
   60.0297   34.1518   45.2950 H   0  0  0  0  0  0  0  0  0  0  0  0
   62.1913   34.8291   46.3289 H   0  0  0  0  0  0  0  0  0  0  0  0
   62.9165   32.9880   50.0264 H   0  0  0  0  0  0  0  0  0  0  0  0
   64.6915   33.0897   49.7703 H   0  0  0  0  0  0  0  0  0  0  0  0
   63.6969   34.5855   49.7703 H   0  0  0  0  0  0  0  0  0  0  0  0
   62.0151   30.7263   50.8306 H   0  0  0  0  0  0  0  0  0  0  0  0
   60.5828   30.7523   49.7468 H   0  0  0  0  0  0  0  0  0  0  0  0
   61.6835   29.3327   49.7468 H   0  0  0  0  0  0  0  0  0  0  0  0
   60.0925   30.5243   47.5858 H   0  0  0  0  0  0  0  0  0  0  0  0
   57.5642   34.4320   46.7036 H   0  0  0  0  0  0  0  0  0  0  0  0
   58.4575   34.6648   45.1626 H   0  0  0  0  0  0  0  0  0  0  0  0
   56.6616   34.6256   45.1626 H   0  0  0  0  0  0  0  0  0  0  0  0
   56.6490   27.5050   44.2220 H   0  0  0  0  0  0  0  0  0  0  0  0
  1  2  1  0
  2  3  1  0
  3  4  2  0
  4  5  1  0
  5  6  2  0
  6  7  1  0
  7  8  2  0
  8  9  1  0
  9 10  2  0
 10 11  1  0
 11 12  1  0
 10 13  1  0
 13 14  1  0
 14 15  1  0
 13 16  2  0
  6 17  1  0
 17 18  1  0
 17 19  2  0
 19 20  1  0
 20 21  1  0
 21 22  2  0
 21 23  1  0
 23  3  1  0
 20  5  1  0
 16  7  1  0
  1 24  1  0
  1 25  1  0
  1 26  1  0
  2 27  1  0
  2 28  1  0
  8 29  1  0
  9 30  1  0
 12 31  1  0
 12 32  1  0
 12 33  1  0
 15 34  1  0
 15 35  1  0
 15 36  1  0
 16 37  1  0
 18 38  1  0
 18 39  1  0
 18 40  1  0
 23 41  1  0
M  END
>  <smiles>  (75) 
CCc1nc2c(-c3ccc(OC)c(OC)c3)c(C)nn2c(=O)[nH]1

>  <score_type>  (75) 
oracle

>  <origin>  (75) 
adg

>  <m_score__min__energy>  (75) 
-7.0899999999999999

>  <m_primary>  (75) 
energy

$$$$
75:0
     RDKit          3D

 33 34  0  0  0  0  0  0  0  0999 V2000
   56.4910   29.3580   42.6720 N   0  0  0  0  0  0  0  0  0  0  0  0
   56.3050   29.4950   44.0830 C   0  0  0  0  0  0  0  0  0  0  0  0
   55.1480   29.3490   44.5610 O   0  0  0  0  0  0  0  0  0  0  0  0
   57.4410   29.7900   44.9900 C   0  0  0  0  0  0  0  0  0  0  0  0
   58.2910   30.8870   44.7650 C   0  0  0  0  0  0  0  0  0  0  0  0
   59.3460   31.1580   45.6410 C   0  0  0  0  0  0  0  0  0  0  0  0
   59.5690   30.3520   46.7620 C   0  0  0  0  0  0  0  0  0  0  0  0
   60.6440   30.7000   47.6470 N   0  0  0  0  0  0  0  0  0  0  0  0
   61.2490   32.2930   47.9870 S   0  0  0  0  0  0  0  0  0  0  0  0
   61.8970   32.8230   46.7400 O   0  0  0  0  0  0  0  0  0  0  0  0
   62.2860   32.2480   49.0720 O   0  0  0  0  0  0  0  0  0  0  0  0
   59.9150   33.3990   48.4300 C   0  0  0  0  0  0  0  0  0  0  0  0
   59.1150   33.8030   47.2230 C   0  0  0  0  0  0  0  0  0  0  0  0
   59.7230   34.5180   46.1770 C   0  0  0  0  0  0  0  0  0  0  0  0
   58.9930   34.8450   45.0310 C   0  0  0  0  0  0  0  0  0  0  0  0
   57.6530   34.4640   44.9220 C   0  0  0  0  0  0  0  0  0  0  0  0
   57.0400   33.7560   45.9590 C   0  0  0  0  0  0  0  0  0  0  0  0
   57.7670   33.4250   47.1070 C   0  0  0  0  0  0  0  0  0  0  0  0
   58.7270   29.2500   46.9860 C   0  0  0  0  0  0  0  0  0  0  0  0
   57.6690   28.9780   46.1160 C   0  0  0  0  0  0  0  0  0  0  0  0
   55.6650   29.2090   42.0510 H   0  0  0  0  0  0  0  0  0  0  0  0
   57.4410   29.3130   42.2440 H   0  0  0  0  0  0  0  0  0  0  0  0
   58.1246   31.5368   43.8932 H   0  0  0  0  0  0  0  0  0  0  0  0
   60.0081   32.0146   45.4465 H   0  0  0  0  0  0  0  0  0  0  0  0
   59.2517   32.8913   49.1457 H   0  0  0  0  0  0  0  0  0  0  0  0
   60.3500   34.3052   48.8768 H   0  0  0  0  0  0  0  0  0  0  0  0
   60.7771   34.8213   46.2606 H   0  0  0  0  0  0  0  0  0  0  0  0
   59.4738   35.4029   44.2139 H   0  0  0  0  0  0  0  0  0  0  0  0
   57.0802   34.7217   44.0190 H   0  0  0  0  0  0  0  0  0  0  0  0
   55.9845   33.4587   45.8724 H   0  0  0  0  0  0  0  0  0  0  0  0
   57.2819   32.8671   47.9215 H   0  0  0  0  0  0  0  0  0  0  0  0
   58.9024   28.5964   47.8532 H   0  0  0  0  0  0  0  0  0  0  0  0
   57.0079   28.1211   46.3129 H   0  0  0  0  0  0  0  0  0  0  0  0
  1  2  1  0
  2  3  2  0
  2  4  1  0
  4  5  2  0
  5  6  1  0
  6  7  2  0
  7  8  1  0
  8  9  1  0
  9 10  2  0
  9 11  2  0
  9 12  1  0
 12 13  1  0
 13 14  2  0
 14 15  1  0
 15 16  2  0
 16 17  1  0
 17 18  2  0
  7 19  1  0
 19 20  2  0
 20  4  1  0
 18 13  1  0
  1 21  1  0
  1 22  1  0
  5 23  1  0
  6 24  1  0
 12 25  1  0
 12 26  1  0
 14 27  1  0
 15 28  1  0
 16 29  1  0
 17 30  1  0
 18 31  1  0
 19 32  1  0
 20 33  1  0
M  CHG  1   8  -1
M  END
>  <UniqueID>  (76) 
67

>  <SMILES>  (76) 
NC(=O)c1ccc([N-]S(=O)(=O)Cc2ccccc2)cc1

>  <Energy>  (76) 
31.89713547436268

>  <Genealogy>  (76) 
NC(=O)c1ccc([N-]S(=O)(=O)Cc2ccccc2)cc1 (protonated)
NC(=O)c1ccc([N-]S(=O)(=O)Cc2ccccc2)cc1 (3D coordinates assigned)
NC(=O)c1ccc([N-]S(=O)(=O)Cc2ccccc2)cc1 (optimized conformer: 31.89713547436268 kcal/mol)

>  <smiles>  (76) 
NC(=O)c1ccc(NS(=O)(=O)Cc2ccccc2)cc1

>  <score_type>  (76) 
oracle

>  <origin>  (76) 
adg

>  <m_score__min__energy>  (76) 
-9.4100000000000001

>  <m_primary>  (76) 
energy

$$$$
76:0
     RDKit          3D

 60 64  0  0  1  0  0  0  0  0999 V2000
   51.3500   28.4100   52.3890 N   0  0  0  0  0  0  0  0  0  0  0  0
   52.0210   29.8750   53.0010 S   0  0  0  0  0  0  0  0  0  0  0  0
   51.7850   29.9220   54.4970 O   0  0  0  0  0  0  0  0  0  0  0  0
   51.3910   31.0890   52.3830 O   0  0  0  0  0  0  0  0  0  0  0  0
   53.7540   29.8920   52.7320 C   0  0  0  0  0  0  0  0  0  0  0  0
   54.5590   28.9490   53.3670 C   0  0  0  0  0  0  0  0  0  0  0  0
   55.9440   28.9430   53.1680 C   0  0  0  0  0  0  0  0  0  0  0  0
   56.5210   29.8860   52.3290 C   0  0  0  0  0  0  0  0  0  0  0  0
   57.9270   29.8970   52.1120 N   0  0  0  0  0  0  0  0  0  0  0  0
   58.3840   30.2200   50.9490 C   0  0  0  0  0  0  0  0  0  0  0  0
   58.5590   29.3410   49.9480 N   0  0  0  0  0  0  0  0  0  0  0  0
   59.0370   29.6970   48.7420 C   0  0  0  0  0  0  0  0  0  0  0  0
   59.2200   28.7660   47.6880 N   0  0  0  0  0  0  0  0  0  0  0  0
   59.6620   27.3960   47.9940 C   0  0  0  0  0  0  0  0  0  0  0  0
   58.4700   26.5240   47.6850 C   0  0  0  0  0  0  0  0  0  0  0  0
   57.9690   26.8270   46.3610 N   0  0  0  0  0  0  0  0  0  0  0  0
   57.0720   25.8710   45.7520 C   0  0  0  0  0  0  0  0  0  0  0  0
   57.4640   25.1020   44.6700 C   0  0  0  0  0  0  0  0  0  0  0  0
   56.6520   24.1820   44.0570 C   0  0  0  0  0  0  0  0  0  0  0  0
   55.3780   24.0310   44.5620 C   0  0  0  0  0  0  0  0  0  0  0  0
   55.0230   24.8120   45.6390 C   0  0  0  0  0  0  0  0  0  0  0  0
   55.8300   25.7050   46.2260 N   0  0  0  0  0  0  0  0  0  0  0  0
   58.2840   27.9920   45.6030 C   0  0  0  0  0  0  0  0  0  0  0  0
   58.9970   29.0820   46.3160 C   0  0  0  0  0  0  0  0  0  0  0  0
   59.3470   30.9930   48.5550 N   0  0  0  0  0  0  0  0  0  0  0  0
   59.1970   31.9200   49.5110 C   0  0  0  0  0  0  0  0  0  0  0  0
   59.6250   33.6240   49.2010 S   0  0  0  0  0  0  0  0  0  0  0  0
   59.2330   34.0700   47.5340 C   0  0  0  0  0  0  0  0  0  0  0  0
   58.1160   33.5030   46.9510 C   0  0  0  0  0  0  0  0  0  0  0  0
   57.7360   33.7990   45.6470 C   0  0  0  0  0  0  0  0  0  0  0  0
   58.5140   34.6940   44.9220 C   0  0  0  0  0  0  0  0  0  0  0  0
   59.6460   35.2830   45.4780 C   0  0  0  0  0  0  0  0  0  0  0  0
   59.9750   34.9530   46.7770 C   0  0  0  0  0  0  0  0  0  0  0  0
   58.7140   31.5020   50.6970 N   0  0  0  0  0  0  0  0  0  0  0  0
   55.7290   30.8340   51.6880 C   0  0  0  0  0  0  0  0  0  0  0  0
   54.3560   30.8130   51.9060 C   0  0  0  0  0  0  0  0  0  0  0  0
   50.8730   27.8810   53.1420 H   0  0  0  0  0  0  0  0  0  0  0  0
   52.1290   27.8450   51.9810 H   0  0  0  0  0  0  0  0  0  0  0  0
   54.1012   28.2015   54.0316 H   0  0  0  0  0  0  0  0  0  0  0  0
   56.5721   28.1949   53.6738 H   0  0  0  0  0  0  0  0  0  0  0  0
   60.5194   27.1164   47.3642 H   0  0  0  0  0  0  0  0  0  0  0  0
   59.9915   27.2912   49.0383 H   0  0  0  0  0  0  0  0  0  0  0  0
   58.7703   25.4667   47.7284 H   0  0  0  0  0  0  0  0  0  0  0  0
   57.6788   26.7160   48.4247 H   0  0  0  0  0  0  0  0  0  0  0  0
   58.4837   25.2361   44.2799 H   0  0  0  0  0  0  0  0  0  0  0  0
   57.0024   23.5898   43.1988 H   0  0  0  0  0  0  0  0  0  0  0  0
   54.6711   23.3130   44.1207 H   0  0  0  0  0  0  0  0  0  0  0  0
   54.0074   24.6944   46.0448 H   0  0  0  0  0  0  0  0  0  0  0  0
   58.9148   27.6788   44.7580 H   0  0  0  0  0  0  0  0  0  0  0  0
   57.3122   28.4217   45.3183 H   0  0  0  0  0  0  0  0  0  0  0  0
   59.9683   29.2498   45.8278 H   0  0  0  0  0  0  0  0  0  0  0  0
   58.3689   29.9840   46.2728 H   0  0  0  0  0  0  0  0  0  0  0  0
   57.5093   32.7963   47.5362 H   0  0  0  0  0  0  0  0  0  0  0  0
   56.8430   33.3371   45.2006 H   0  0  0  0  0  0  0  0  0  0  0  0
   58.2296   34.9417   43.8887 H   0  0  0  0  0  0  0  0  0  0  0  0
   60.2594   35.9897   44.8998 H   0  0  0  0  0  0  0  0  0  0  0  0
   60.8665   35.4134   47.2278 H   0  0  0  0  0  0  0  0  0  0  0  0
   58.5880   32.2200   51.4650 H   0  0  0  0  0  0  0  0  0  0  0  0
   56.1801   31.5847   51.0224 H   0  0  0  0  0  0  0  0  0  0  0  0
   53.7278   31.5604   51.3993 H   0  0  0  0  0  0  0  0  0  0  0  0
  1  2  1  0
  2  3  2  0
  2  4  2  0
  2  5  1  0
  5  6  2  0
  6  7  1  0
  7  8  2  0
  8  9  1  0
  9 10  2  0
 10 11  1  0
 11 12  2  0
 12 13  1  0
 13 14  1  0
 14 15  1  0
 15 16  1  0
 16 17  1  0
 17 18  2  0
 18 19  1  0
 19 20  2  0
 20 21  1  0
 21 22  2  0
 16 23  1  0
 23 24  1  0
 12 25  1  0
 25 26  2  0
 26 27  1  0
 27 28  1  0
 28 29  2  0
 29 30  1  0
 30 31  2  0
 31 32  1  0
 32 33  2  0
 26 34  1  0
  8 35  1  0
 35 36  2  0
 36  5  1  0
 34 10  1  0
 24 13  1  0
 33 28  1  0
 22 17  1  0
  1 37  1  0
  1 38  1  0
  6 39  1  0
  7 40  1  0
 14 41  1  0
 14 42  1  0
 15 43  1  0
 15 44  1  0
 18 45  1  0
 19 46  1  0
 20 47  1  0
 21 48  1  0
 23 49  1  0
 23 50  1  0
 24 51  1  0
 24 52  1  0
 29 53  1  0
 30 54  1  0
 31 55  1  0
 32 56  1  0
 33 57  1  0
 34 58  1  0
 35 59  1  0
 36 60  1  0
M  END
>  <smiles>  (77) 
NS(=O)(=O)c1ccc(N=c2nc(N3CCN(c4ccccn4)CC3)nc(Sc3ccccc3)[nH]2)cc1

>  <score_type>  (77) 
oracle

>  <origin>  (77) 
adg

>  <m_score__min__energy>  (77) 
-10.19

>  <m_primary>  (77) 
energy

$$$$
77:0
     RDKit          3D

 29 30  0  0  0  0  0  0  0  0999 V2000
   54.7520   28.5190   44.4990 H   0  0  0  0  0  0  0  0  0  0  0  0
   55.5510   29.0050   44.8900 O   0  0  0  0  0  0  0  0  0  0  0  0
   55.7710   30.3450   44.6490 N   0  0  0  0  0  0  0  0  0  0  0  0
   56.8990   30.7780   44.1770 C   0  0  0  0  0  0  0  0  0  0  0  0
   57.2576   30.4053   43.2062 H   0  0  0  0  0  0  0  0  0  0  0  0
   57.7100   31.7630   44.9210 C   0  0  0  0  0  0  0  0  0  0  0  0
   57.7460   33.0940   44.4880 C   0  0  0  0  0  0  0  0  0  0  0  0
   57.1746   33.4012   43.5997 H   0  0  0  0  0  0  0  0  0  0  0  0
   58.5100   34.0300   45.1880 C   0  0  0  0  0  0  0  0  0  0  0  0
   58.5312   35.0770   44.8512 H   0  0  0  0  0  0  0  0  0  0  0  0
   59.2320   33.6580   46.2880 N   0  0  0  0  0  0  0  0  0  0  0  0
   60.0010   34.6630   47.0300 C   0  0  0  0  0  0  0  0  0  0  0  0
   60.1567   35.5456   46.3922 H   0  0  0  0  0  0  0  0  0  0  0  0
   59.4426   34.9477   47.9340 H   0  0  0  0  0  0  0  0  0  0  0  0
   61.3370   34.0990   47.4340 C   0  0  0  0  0  0  0  0  0  0  0  0
   61.6080   33.8160   48.7830 C   0  0  0  0  0  0  0  0  0  0  0  0
   60.8522   34.0360   49.5513 H   0  0  0  0  0  0  0  0  0  0  0  0
   62.8340   33.2560   49.1530 C   0  0  0  0  0  0  0  0  0  0  0  0
   63.0443   33.0434   50.2116 H   0  0  0  0  0  0  0  0  0  0  0  0
   63.7930   32.9660   48.1780 C   0  0  0  0  0  0  0  0  0  0  0  0
   64.7583   32.5266   48.4699 H   0  0  0  0  0  0  0  0  0  0  0  0
   63.5260   33.2340   46.8330 C   0  0  0  0  0  0  0  0  0  0  0  0
   64.2811   33.0039   46.0670 H   0  0  0  0  0  0  0  0  0  0  0  0
   62.3010   33.7940   46.4590 C   0  0  0  0  0  0  0  0  0  0  0  0
   62.0914   33.9964   45.3983 H   0  0  0  0  0  0  0  0  0  0  0  0
   59.1990   32.3650   46.7310 C   0  0  0  0  0  0  0  0  0  0  0  0
   59.7709   32.0819   47.6270 H   0  0  0  0  0  0  0  0  0  0  0  0
   58.4470   31.4000   46.0580 C   0  0  0  0  0  0  0  0  0  0  0  0
   58.4326   30.3605   46.4176 H   0  0  0  0  0  0  0  0  0  0  0  0
  1  2  1  0
  2  3  1  0
  3  4  2  0
  4  5  1  0
  4  6  1  0
  6  7  2  0
  7  8  1  0
  7  9  1  0
  9 10  1  0
  9 11  2  0
 11 12  1  0
 12 13  1  0
 12 14  1  0
 12 15  1  0
 15 16  2  0
 16 17  1  0
 16 18  1  0
 18 19  1  0
 18 20  2  0
 20 21  1  0
 20 22  1  0
 22 23  1  0
 22 24  2  0
 24 25  1  0
 11 26  1  0
 26 27  1  0
 26 28  2  0
 28 29  1  0
 28  6  1  0
 24 15  1  0
M  CHG  1  11   1
M  END
>  <UniqueID>  (78) 
68

>  <SMILES>  (78) 
O/N=C/c1cc[n+](Cc2ccccc2)cc1

>  <Energy>  (78) 
28.67981874586245

>  <Genealogy>  (78) 
O/N=C/c1cc[n+](Cc2ccccc2)cc1 (cis-trans isomerization)
O/N=C/c1cc[n+](Cc2ccccc2)cc1 (3D coordinates assigned)
O/N=C/c1cc[n+](Cc2ccccc2)cc1 (optimized conformer: 28.67981874586245 kcal/mol)

>  <smiles>  (78) 
ON=Cc1cc[n+](Cc2ccccc2)cc1

>  <score_type>  (78) 
oracle

>  <origin>  (78) 
adg

>  <m_score__min__energy>  (78) 
-6.3600000000000003

>  <m_primary>  (78) 
energy

$$$$
78:0
     RDKit          3D

 28 30  0  0  0  0  0  0  0  0999 V2000
   55.1450   27.0540   45.9920 O   0  0  0  0  0  0  0  0  0  0  0  0
   56.4730   26.6520   46.0950 C   0  0  0  0  0  0  0  0  0  0  0  0
   56.7460   25.3550   46.5470 C   0  0  0  0  0  0  0  0  0  0  0  0
   58.0630   24.9110   46.6660 C   0  0  0  0  0  0  0  0  0  0  0  0
   59.1170   25.7620   46.3320 C   0  0  0  0  0  0  0  0  0  0  0  0
   58.8570   27.0570   45.8790 C   0  0  0  0  0  0  0  0  0  0  0  0
   57.5330   27.5240   45.7530 C   0  0  0  0  0  0  0  0  0  0  0  0
   57.2760   28.9060   45.2690 C   0  0  0  0  0  0  0  0  0  0  0  0
   57.9240   30.0000   45.7290 N   0  0  0  0  0  0  0  0  0  0  0  0
   57.5170   31.1570   45.1330 C   0  0  0  0  0  0  0  0  0  0  0  0
   58.1150   32.4690   45.5060 C   0  0  0  0  0  0  0  0  0  0  0  0
   58.3200   32.7810   46.8650 C   0  0  0  0  0  0  0  0  0  0  0  0
   58.8800   34.0070   47.2390 C   0  0  0  0  0  0  0  0  0  0  0  0
   59.2420   34.9370   46.2640 C   0  0  0  0  0  0  0  0  0  0  0  0
   59.0450   34.6450   44.9150 C   0  0  0  0  0  0  0  0  0  0  0  0
   58.4860   33.4210   44.5340 C   0  0  0  0  0  0  0  0  0  0  0  0
   56.5170   30.9830   44.1720 C   0  0  0  0  0  0  0  0  0  0  0  0
   56.1580   29.3450   44.0900 S   0  0  0  0  0  0  0  0  0  0  0  0
   55.9166   24.6820   46.8099 H   0  0  0  0  0  0  0  0  0  0  0  0
   58.2703   23.8913   47.0227 H   0  0  0  0  0  0  0  0  0  0  0  0
   60.1556   25.4118   46.4258 H   0  0  0  0  0  0  0  0  0  0  0  0
   59.6948   27.7201   45.6175 H   0  0  0  0  0  0  0  0  0  0  0  0
   58.0367   32.0530   47.6395 H   0  0  0  0  0  0  0  0  0  0  0  0
   59.0352   34.2382   48.3032 H   0  0  0  0  0  0  0  0  0  0  0  0
   59.6828   35.9005   46.5596 H   0  0  0  0  0  0  0  0  0  0  0  0
   59.3302   35.3798   44.1478 H   0  0  0  0  0  0  0  0  0  0  0  0
   58.3345   33.1990   43.4673 H   0  0  0  0  0  0  0  0  0  0  0  0
   56.0480   31.7789   43.5748 H   0  0  0  0  0  0  0  0  0  0  0  0
  1  2  1  0
  2  3  2  0
  3  4  1  0
  4  5  2  0
  5  6  1  0
  6  7  2  0
  7  8  1  0
  8  9  2  0
  9 10  1  0
 10 11  1  0
 11 12  2  0
 12 13  1  0
 13 14  2  0
 14 15  1  0
 15 16  2  0
 10 17  2  0
 17 18  1  0
  7  2  1  0
 18  8  1  0
 16 11  1  0
  3 19  1  0
  4 20  1  0
  5 21  1  0
  6 22  1  0
 12 23  1  0
 13 24  1  0
 14 25  1  0
 15 26  1  0
 16 27  1  0
 17 28  1  0
M  CHG  1   1  -1
M  END
>  <UniqueID>  (79) 
69

>  <SMILES>  (79) 
[O-]c1ccccc1-c1nc(-c2ccccc2)cs1

>  <Energy>  (79) 
65.50690214925771

>  <Genealogy>  (79) 
[O-]c1ccccc1-c1nc(-c2ccccc2)cs1 (protonated)
[O-]c1ccccc1-c1nc(-c2ccccc2)cs1 (3D coordinates assigned)
[O-]c1ccccc1-c1nc(-c2ccccc2)cs1 (optimized conformer: 65.50690214925771 kcal/mol)

>  <smiles>  (79) 
Oc1ccccc1-c1nc(-c2ccccc2)cs1

>  <score_type>  (79) 
oracle

>  <origin>  (79) 
adg

>  <m_score__min__energy>  (79) 
-11.27

>  <m_primary>  (79) 
energy

$$$$
79:0
     RDKit          3D

 43 45  0  0  0  0  0  0  0  0999 V2000
   55.5040   29.7360   43.3340 C   0  0  0  0  0  0  0  0  0  0  0  0
   55.4460   28.9830   44.5410 O   0  0  0  0  0  0  0  0  0  0  0  0
   56.5690   28.5840   45.2850 C   0  0  0  0  0  0  0  0  0  0  0  0
   57.7460   29.3540   45.3300 C   0  0  0  0  0  0  0  0  0  0  0  0
   58.8460   28.9200   46.0730 C   0  0  0  0  0  0  0  0  0  0  0  0
   58.7810   27.7230   46.7980 C   0  0  0  0  0  0  0  0  0  0  0  0
   60.1840   27.1380   47.6930 S   0  0  0  0  0  0  0  0  0  0  0  0
   61.2560   26.6770   46.7450 O   0  0  0  0  0  0  0  0  0  0  0  0
   59.7850   25.9710   48.5510 O   0  0  0  0  0  0  0  0  0  0  0  0
   60.7710   28.4030   48.7250 N   0  0  0  0  0  0  0  0  0  0  0  0
   60.3940   29.7790   48.6020 C   0  0  0  0  0  0  0  0  0  0  0  0
   59.2930   30.3080   49.2960 C   0  0  0  0  0  0  0  0  0  0  0  0
   58.9840   31.6670   49.1940 C   0  0  0  0  0  0  0  0  0  0  0  0
   59.7720   32.5160   48.4040 C   0  0  0  0  0  0  0  0  0  0  0  0
   59.4660   33.9630   48.3340 C   0  0  0  0  0  0  0  0  0  0  0  0
   59.6340   34.6780   49.3570 O   0  0  0  0  0  0  0  0  0  0  0  0
   58.9430   34.5720   47.1430 N   0  0  0  0  0  0  0  0  0  0  0  0
   58.4040   33.9350   46.1450 C   0  0  0  0  0  0  0  0  0  0  0  0
   57.3460   33.1000   46.2570 N   0  0  0  0  0  0  0  0  0  0  0  0
   57.0130   32.5530   45.0580 C   0  0  0  0  0  0  0  0  0  0  0  0
   57.8140   32.9470   43.9880 C   0  0  0  0  0  0  0  0  0  0  0  0
   58.9800   34.0140   44.5700 S   0  0  0  0  0  0  0  0  0  0  0  0
   60.8430   31.9750   47.6740 C   0  0  0  0  0  0  0  0  0  0  0  0
   61.1430   30.6140   47.7660 C   0  0  0  0  0  0  0  0  0  0  0  0
   57.6070   26.9610   46.7670 C   0  0  0  0  0  0  0  0  0  0  0  0
   56.5030   27.3750   45.9970 C   0  0  0  0  0  0  0  0  0  0  0  0
   55.3290   26.6100   45.9110 O   0  0  0  0  0  0  0  0  0  0  0  0
   55.2960   25.2040   45.6760 C   0  0  0  0  0  0  0  0  0  0  0  0
   55.5865   30.8065   43.5733 H   0  0  0  0  0  0  0  0  0  0  0  0
   56.3807   29.4227   42.7481 H   0  0  0  0  0  0  0  0  0  0  0  0
   54.5897   29.5606   42.7481 H   0  0  0  0  0  0  0  0  0  0  0  0
   57.7999   30.3032   44.7768 H   0  0  0  0  0  0  0  0  0  0  0  0
   59.7674   29.5206   46.0890 H   0  0  0  0  0  0  0  0  0  0  0  0
   58.6720   29.6502   49.9218 H   0  0  0  0  0  0  0  0  0  0  0  0
   58.1176   32.0730   49.7366 H   0  0  0  0  0  0  0  0  0  0  0  0
   56.1737   31.8516   44.9411 H   0  0  0  0  0  0  0  0  0  0  0  0
   57.7039   32.6181   42.9441 H   0  0  0  0  0  0  0  0  0  0  0  0
   61.4485   32.6264   47.0266 H   0  0  0  0  0  0  0  0  0  0  0  0
   61.9732   30.1962   47.1776 H   0  0  0  0  0  0  0  0  0  0  0  0
   57.5463   26.0300   47.3497 H   0  0  0  0  0  0  0  0  0  0  0  0
   55.2835   24.6716   46.6385 H   0  0  0  0  0  0  0  0  0  0  0  0
   54.3916   24.9490   45.1041 H   0  0  0  0  0  0  0  0  0  0  0  0
   56.1874   24.9068   45.1041 H   0  0  0  0  0  0  0  0  0  0  0  0
  1  2  1  0
  2  3  1  0
  3  4  2  0
  4  5  1  0
  5  6  2  0
  6  7  1  0
  7  8  2  0
  7  9  2  0
  7 10  1  0
 10 11  1  0
 11 12  2  0
 12 13  1  0
 13 14  2  0
 14 15  1  0
 15 16  2  0
 15 17  1  0
 17 18  2  3
 18 19  1  0
 19 20  1  0
 20 21  2  0
 21 22  1  0
 14 23  1  0
 23 24  2  0
  6 25  1  0
 25 26  2  0
 26 27  1  0
 27 28  1  0
 26  3  1  0
 24 11  1  0
 22 18  1  0
  1 29  1  0
  1 30  1  0
  1 31  1  0
  4 32  1  0
  5 33  1  0
 12 34  1  0
 13 35  1  0
 20 36  1  0
 21 37  1  0
 23 38  1  0
 24 39  1  0
 25 40  1  0
 28 41  1  0
 28 42  1  0
 28 43  1  0
M  CHG  2  10  -1  19  -1
M  END
>  <UniqueID>  (80) 
70

>  <SMILES>  (80) 
COc1ccc(S(=O)(=O)[N-]c2ccc(C(=O)N=c3[n-]ccs3)cc2)cc1OC

>  <Energy>  (80) 
86.54724484865025

>  <Genealogy>  (80) 
COc1ccc(S(=O)(=O)[N-]c2ccc(C(=O)N=c3[n-]ccs3)cc2)cc1OC (protonated)
COc1ccc(S(=O)(=O)[N-]c2ccc(C(=O)N=c3[n-]ccs3)cc2)cc1OC (3D coordinates assigned)
COc1ccc(S(=O)(=O)[N-]c2ccc(C(=O)N=c3[n-]ccs3)cc2)cc1OC (optimized conformer: 86.54724484865025 kcal/mol)

>  <smiles>  (80) 
COc1ccc(S(=O)(=O)Nc2ccc(C(=O)N=c3[nH]ccs3)cc2)cc1OC

>  <score_type>  (80) 
oracle

>  <origin>  (80) 
adg

>  <m_score__min__energy>  (80) 
-10.619999999999999

>  <m_primary>  (80) 
energy

$$$$
80:0
     RDKit          3D

 61 65  0  0  1  0  0  0  0  0999 V2000
   66.7920   33.0630   50.5170 C   0  0  0  0  0  0  0  0  0  0  0  0
   65.8170   32.6950   49.5640 O   0  0  0  0  0  0  0  0  0  0  0  0
   64.5110   33.1340   49.7140 C   0  0  0  0  0  0  0  0  0  0  0  0
   63.7940   33.4680   48.5890 C   0  0  0  0  0  0  0  0  0  0  0  0
   62.4900   33.9100   48.7010 C   0  0  0  0  0  0  0  0  0  0  0  0
   61.8730   34.2040   47.6270 N   0  0  0  0  0  0  0  0  0  0  0  0
   60.1960   34.2370   47.3630 S   0  0  0  0  0  0  0  0  0  0  0  0
   59.9830   35.4510   46.4540 O   0  0  0  0  0  0  0  0  0  0  0  0
   59.3710   34.5820   48.5700 O   0  0  0  0  0  0  0  0  0  0  0  0
   59.5750   32.8910   46.4590 C   0  0  0  0  0  0  0  0  0  0  0  0
   59.8420   31.5670   46.8340 C   0  0  0  0  0  0  0  0  0  0  0  0
   59.3610   30.4940   46.1300 C   0  0  0  0  0  0  0  0  0  0  0  0
   58.5820   30.6510   45.0060 C   0  0  0  0  0  0  0  0  0  0  0  0
   58.0660   29.6320   44.2520 O   0  0  0  0  0  0  0  0  0  0  0  0
   57.8510   28.3620   44.7580 C   0  0  0  0  0  0  0  0  0  0  0  0
   58.9110   27.4670   44.7800 C   0  0  0  0  0  0  0  0  0  0  0  0
   58.7640   26.1850   45.2720 C   0  0  0  0  0  0  0  0  0  0  0  0
   57.5220   25.8070   45.7470 C   0  0  0  0  0  0  0  0  0  0  0  0
   57.3980   24.4440   46.2560 C   0  0  0  0  0  0  0  0  0  0  0  0
   57.2690   24.1640   47.5970 C   0  0  0  0  0  0  0  0  0  0  0  0
   57.1800   22.8310   47.6980 N   0  0  0  0  0  0  0  0  0  0  0  0
   57.2510   22.2880   46.4450 C   0  0  0  0  0  0  0  0  0  0  0  0
   57.1910   20.8490   46.1500 C   0  0  0  0  0  0  0  0  0  0  0  0
   57.3870   23.2800   45.5370 N   0  0  0  0  0  0  0  0  0  0  0  0
   57.4970   23.2180   44.1100 C   0  0  0  0  0  0  0  0  0  0  0  0
   56.5460   23.7740   43.1680 C   0  0  0  0  0  0  0  0  0  0  0  0
   56.6560   22.2780   43.2910 C   0  0  0  0  0  0  0  0  0  0  0  0
   56.4730   26.7020   45.7230 C   0  0  0  0  0  0  0  0  0  0  0  0
   56.6090   27.9860   45.2330 C   0  0  0  0  0  0  0  0  0  0  0  0
   55.5380   28.8450   45.2220 F   0  0  0  0  0  0  0  0  0  0  0  0
   58.3030   31.9490   44.6150 C   0  0  0  0  0  0  0  0  0  0  0  0
   58.7890   33.0270   45.3260 C   0  0  0  0  0  0  0  0  0  0  0  0
   61.9430   34.0080   49.9200 N   0  0  0  0  0  0  0  0  0  0  0  0
   62.6340   33.6840   51.0360 C   0  0  0  0  0  0  0  0  0  0  0  0
   62.0410   33.7950   52.2860 O   0  0  0  0  0  0  0  0  0  0  0  0
   61.1220   32.8040   52.6860 C   0  0  0  0  0  0  0  0  0  0  0  0
   63.8930   33.2590   50.8960 N   0  0  0  0  0  0  0  0  0  0  0  0
   66.3904   32.9114   51.5298 H   0  0  0  0  0  0  0  0  0  0  0  0
   67.6897   32.4418   50.3818 H   0  0  0  0  0  0  0  0  0  0  0  0
   67.0554   34.1224   50.3818 H   0  0  0  0  0  0  0  0  0  0  0  0
   64.2605   33.3829   47.5965 H   0  0  0  0  0  0  0  0  0  0  0  0
   60.4597   31.3826   47.7253 H   0  0  0  0  0  0  0  0  0  0  0  0
   59.6045   29.4777   46.4732 H   0  0  0  0  0  0  0  0  0  0  0  0
   59.8914   27.7860   44.3966 H   0  0  0  0  0  0  0  0  0  0  0  0
   59.6117   25.4841   45.2855 H   0  0  0  0  0  0  0  0  0  0  0  0
   57.2439   24.8906   48.4225 H   0  0  0  0  0  0  0  0  0  0  0  0
   57.1674   20.2822   47.0924 H   0  0  0  0  0  0  0  0  0  0  0  0
   56.2830   20.6315   45.5684 H   0  0  0  0  0  0  0  0  0  0  0  0
   58.0777   20.5566   45.5684 H   0  0  0  0  0  0  0  0  0  0  0  0
   58.5720   23.3829   44.2750 H   0  0  0  0  0  0  0  0  0  0  0  0
   55.6469   24.2884   43.5381 H   0  0  0  0  0  0  0  0  0  0  0  0
   56.6150   24.4860   42.3323 H   0  0  0  0  0  0  0  0  0  0  0  0
   55.8497   21.6976   43.7632 H   0  0  0  0  0  0  0  0  0  0  0  0
   56.8458   21.4391   42.6053 H   0  0  0  0  0  0  0  0  0  0  0  0
   55.4935   26.3819   46.1077 H   0  0  0  0  0  0  0  0  0  0  0  0
   57.6837   32.1241   43.7229 H   0  0  0  0  0  0  0  0  0  0  0  0
   58.5412   34.0405   44.9775 H   0  0  0  0  0  0  0  0  0  0  0  0
   60.9670   34.3370   50.0310 H   0  0  0  0  0  0  0  0  0  0  0  0
   61.0831   32.7620   53.7845 H   0  0  0  0  0  0  0  0  0  0  0  0
   60.1243   33.0490   52.2928 H   0  0  0  0  0  0  0  0  0  0  0  0
   61.4414   31.8276   52.2928 H   0  0  0  0  0  0  0  0  0  0  0  0
  1  2  1  0
  2  3  1  0
  3  4  2  0
  4  5  1  0
  5  6  2  0
  6  7  1  0
  7  8  2  0
  7  9  2  0
  7 10  1  0
 10 11  2  0
 11 12  1  0
 12 13  2  0
 13 14  1  0
 14 15  1  0
 15 16  2  0
 16 17  1  0
 17 18  2  0
 18 19  1  0
 19 20  2  0
 20 21  1  0
 21 22  2  0
 22 23  1  0
 22 24  1  0
 24 25  1  0
 25 26  1  0
 26 27  1  0
 18 28  1  0
 28 29  2  0
 29 30  1  0
 13 31  1  0
 31 32  2  0
  5 33  1  0
 33 34  1  0
 34 35  1  0
 35 36  1  0
 34 37  2  0
 37  3  1  0
 32 10  1  0
 29 15  1  0
 24 19  1  0
 27 25  1  0
  1 38  1  0
  1 39  1  0
  1 40  1  0
  4 41  1  0
 11 42  1  0
 12 43  1  0
 16 44  1  0
 17 45  1  0
 20 46  1  0
 23 47  1  0
 23 48  1  0
 23 49  1  0
 25 50  1  0
 26 51  1  0
 26 52  1  0
 27 53  1  0
 27 54  1  0
 28 55  1  0
 31 56  1  0
 32 57  1  0
 33 58  1  0
 36 59  1  0
 36 60  1  0
 36 61  1  0
M  END
>  <smiles>  (81) 
COc1cc(=NS(=O)(=O)c2ccc(Oc3ccc(-c4cnc(C)n4C4CC4)cc3F)cc2)[nH]c(OC)n1

>  <score_type>  (81) 
oracle

>  <origin>  (81) 
adg

>  <m_score__min__energy>  (81) 
-10.029999999999999

>  <m_primary>  (81) 
energy

$$$$
81:0
     RDKit          3D

 43 46  0  0  1  0  0  0  0  0999 V2000
   57.7380   32.4240   41.1700 C   0  0  0  0  0  0  0  0  0  0  0  0
   57.7500   31.9940   42.5870 C   0  0  0  0  0  0  0  0  0  0  0  0
   57.1210   30.8250   42.9050 N   0  0  0  0  0  0  0  0  0  0  0  0
   57.1330   30.4380   44.1890 C   0  0  0  0  0  0  0  0  0  0  0  0
   56.5290   29.3310   44.4790 N   0  0  0  0  0  0  0  0  0  0  0  0
   57.2780   28.2380   45.0110 C   0  0  0  0  0  0  0  0  0  0  0  0
   57.3990   28.1450   46.3870 C   0  0  0  0  0  0  0  0  0  0  0  0
   58.1030   27.1230   46.9930 C   0  0  0  0  0  0  0  0  0  0  0  0
   58.7100   26.1590   46.2130 C   0  0  0  0  0  0  0  0  0  0  0  0
   58.5830   26.2620   44.8250 C   0  0  0  0  0  0  0  0  0  0  0  0
   57.8800   27.2820   44.2250 C   0  0  0  0  0  0  0  0  0  0  0  0
   57.7630   27.3630   42.7570 C   0  0  0  0  0  0  0  0  0  0  0  0
   57.7680   31.2150   45.1320 C   0  0  0  0  0  0  0  0  0  0  0  0
   57.9270   31.1070   46.4470 N   0  0  0  0  0  0  0  0  0  0  0  0
   58.6130   32.1530   46.8710 N   0  0  0  0  0  0  0  0  0  0  0  0
   58.9220   32.9730   45.8560 N   0  0  0  0  0  0  0  0  0  0  0  0
   59.7160   34.1490   46.0560 C   0  0  0  0  0  0  0  0  0  0  0  0
   60.9170   34.0000   46.8720 C   0  0  0  0  0  0  0  0  0  0  0  0
   62.1220   33.8380   46.1520 C   0  0  0  0  0  0  0  0  0  0  0  0
   63.3320   33.7010   46.7850 C   0  0  0  0  0  0  0  0  0  0  0  0
   63.4410   33.7140   48.1600 C   0  0  0  0  0  0  0  0  0  0  0  0
   62.2740   33.8700   48.8720 C   0  0  0  0  0  0  0  0  0  0  0  0
   61.0380   34.0110   48.2230 C   0  0  0  0  0  0  0  0  0  0  0  0
   59.6450   34.1830   49.2250 Cl  0  0  0  0  0  0  0  0  0  0  0  0
   58.3980   32.3940   44.7780 C   0  0  0  0  0  0  0  0  0  0  0  0
   58.3660   32.7480   43.4950 N   0  0  0  0  0  0  0  0  0  0  0  0
   57.7073   33.5225   41.1204 H   0  0  0  0  0  0  0  0  0  0  0  0
   58.6467   32.0595   40.6685 H   0  0  0  0  0  0  0  0  0  0  0  0
   56.8511   32.0094   40.6685 H   0  0  0  0  0  0  0  0  0  0  0  0
   56.9196   28.9087   47.0171 H   0  0  0  0  0  0  0  0  0  0  0  0
   58.1796   27.0774   48.0894 H   0  0  0  0  0  0  0  0  0  0  0  0
   59.2766   25.3345   46.6703 H   0  0  0  0  0  0  0  0  0  0  0  0
   59.0614   25.5017   44.1901 H   0  0  0  0  0  0  0  0  0  0  0  0
   56.8852   27.9707   42.4921 H   0  0  0  0  0  0  0  0  0  0  0  0
   58.6695   27.8278   42.3420 H   0  0  0  0  0  0  0  0  0  0  0  0
   57.6470   26.3509   42.3420 H   0  0  0  0  0  0  0  0  0  0  0  0
   60.0291   34.5118   45.0659 H   0  0  0  0  0  0  0  0  0  0  0  0
   59.0704   34.8409   46.6168 H   0  0  0  0  0  0  0  0  0  0  0  0
   62.0893   33.8212   45.0526 H   0  0  0  0  0  0  0  0  0  0  0  0
   64.2412   33.5772   46.1783 H   0  0  0  0  0  0  0  0  0  0  0  0
   64.4133   33.6050   48.6627 H   0  0  0  0  0  0  0  0  0  0  0  0
   62.3107   33.8845   49.9713 H   0  0  0  0  0  0  0  0  0  0  0  0
   58.8060   33.6370   43.2020 H   0  0  0  0  0  0  0  0  0  0  0  0
  1  2  1  0
  2  3  2  0
  3  4  1  0
  4  5  2  0
  5  6  1  0
  6  7  2  0
  7  8  1  0
  8  9  2  0
  9 10  1  0
 10 11  2  0
 11 12  1  0
  4 13  1  0
 13 14  1  0
 14 15  2  0
 15 16  1  0
 16 17  1  0
 17 18  1  0
 18 19  2  0
 19 20  1  0
 20 21  2  0
 21 22  1  0
 22 23  2  0
 23 24  1  0
 16 25  1  0
 25 26  1  0
 26  2  1  0
 11  6  1  0
 25 13  2  0
 23 18  1  0
  1 27  1  0
  1 28  1  0
  1 29  1  0
  7 30  1  0
  8 31  1  0
  9 32  1  0
 10 33  1  0
 12 34  1  0
 12 35  1  0
 12 36  1  0
 17 37  1  0
 17 38  1  0
 19 39  1  0
 20 40  1  0
 21 41  1  0
 22 42  1  0
 26 43  1  0
M  END
>  <smiles>  (82) 
Cc1nc(=Nc2ccccc2C)c2nnn(Cc3ccccc3Cl)c2[nH]1

>  <score_type>  (82) 
oracle

>  <origin>  (82) 
adg

>  <m_score__min__energy>  (82) 
-8.5899999999999999

>  <m_primary>  (82) 
energy

$$$$
82:0
     RDKit          3D

 25 26  0  0  0  0  0  0  0  0999 V2000
   56.5750   29.6700   43.2390 C   0  0  0  0  0  0  0  0  0  0  0  0
   57.1940   30.8170   43.9670 C   0  0  0  0  0  0  0  0  0  0  0  0
   57.3640   30.8700   45.2690 O   0  0  0  0  0  0  0  0  0  0  0  0
   57.9460   31.9830   45.6080 N   0  0  0  0  0  0  0  0  0  0  0  0
   58.1700   32.7000   44.4910 C   0  0  0  0  0  0  0  0  0  0  0  0
   58.9090   34.0030   44.4560 C   0  0  0  0  0  0  0  0  0  0  0  0
   59.3570   34.5010   46.1090 S   0  0  0  0  0  0  0  0  0  0  0  0
   59.8750   35.9130   46.0850 O   0  0  0  0  0  0  0  0  0  0  0  0
   58.1510   34.4430   47.0040 O   0  0  0  0  0  0  0  0  0  0  0  0
   60.5990   33.4390   46.7400 C   0  0  0  0  0  0  0  0  0  0  0  0
   60.3610   32.1730   47.1440 N   0  0  0  0  0  0  0  0  0  0  0  0
   61.5040   31.5500   47.5390 C   0  0  0  0  0  0  0  0  0  0  0  0
   62.6580   32.3200   47.4450 C   0  0  0  0  0  0  0  0  0  0  0  0
   62.2290   33.8310   46.8440 S   0  0  0  0  0  0  0  0  0  0  0  0
   57.7030   31.9740   43.4110 C   0  0  0  0  0  0  0  0  0  0  0  0
   57.7680   32.3240   42.0160 C   0  0  0  0  0  0  0  0  0  0  0  0
   57.8200   32.6080   40.8950 N   0  0  0  0  0  0  0  0  0  0  0  0
   56.1828   28.9432   43.9656 H   0  0  0  0  0  0  0  0  0  0  0  0
   55.7527   30.0374   42.6075 H   0  0  0  0  0  0  0  0  0  0  0  0
   57.3335   29.1843   42.6075 H   0  0  0  0  0  0  0  0  0  0  0  0
   58.2050   32.2480   46.5840 H   0  0  0  0  0  0  0  0  0  0  0  0
   59.8208   33.8876   43.8515 H   0  0  0  0  0  0  0  0  0  0  0  0
   58.2597   34.7723   44.0127 H   0  0  0  0  0  0  0  0  0  0  0  0
   61.5145   30.5130   47.9059 H   0  0  0  0  0  0  0  0  0  0  0  0
   63.6740   31.9972   47.7163 H   0  0  0  0  0  0  0  0  0  0  0  0
  1  2  1  0
  2  3  1  0
  3  4  1  0
  4  5  2  0
  5  6  1  0
  6  7  1  0
  7  8  2  0
  7  9  2  0
  7 10  1  0
 10 11  2  0
 11 12  1  0
 12 13  2  0
 13 14  1  0
  5 15  1  0
 15 16  1  0
 16 17  3  0
 15  2  2  0
 14 10  1  0
  1 18  1  0
  1 19  1  0
  1 20  1  0
  4 21  1  0
  6 22  1  0
  6 23  1  0
 12 24  1  0
 13 25  1  0
M  CHG  1   4   1
M  END
>  <UniqueID>  (83) 
71

>  <SMILES>  (83) 
Cc1o[nH+]c(CS(=O)(=O)c2nccs2)c1C#N

>  <Energy>  (83) 
79.35410685259863

>  <Genealogy>  (83) 
Cc1o[nH+]c(CS(=O)(=O)c2nccs2)c1C#N (protonated)
Cc1o[nH+]c(CS(=O)(=O)c2nccs2)c1C#N (3D coordinates assigned)
Cc1o[nH+]c(CS(=O)(=O)c2nccs2)c1C#N (optimized conformer: 79.35410685259863 kcal/mol)

>  <smiles>  (83) 
Cc1onc(CS(=O)(=O)c2nccs2)c1C#N

>  <score_type>  (83) 
oracle

>  <origin>  (83) 
adg

>  <m_score__min__energy>  (83) 
-5.0700000000000003

>  <m_primary>  (83) 
energy

$$$$
83:0
     RDKit          3D

 33 35  0  0  0  0  0  0  0  0999 V2000
   58.5879   34.7402   44.0707 H   0  0  0  0  0  0  0  0  0  0  0  0
   58.9290   34.2530   44.9960 C   0  0  0  0  0  0  0  0  0  0  0  0
   59.6320   34.9170   45.9530 N   0  0  0  0  0  0  0  0  0  0  0  0
   59.9320   34.1240   47.0010 C   0  0  0  0  0  0  0  0  0  0  0  0
   60.6380   34.5480   48.0080 N   0  0  0  0  0  0  0  0  0  0  0  0
   61.9050   34.0310   48.4440 C   0  0  0  0  0  0  0  0  0  0  0  0
   62.3100   34.0920   49.7850 C   0  0  0  0  0  0  0  0  0  0  0  0
   61.6351   34.5137   50.5444 H   0  0  0  0  0  0  0  0  0  0  0  0
   63.5690   33.6180   50.1570 C   0  0  0  0  0  0  0  0  0  0  0  0
   63.8835   33.6492   51.2106 H   0  0  0  0  0  0  0  0  0  0  0  0
   64.4330   33.1000   49.1750 C   0  0  0  0  0  0  0  0  0  0  0  0
   65.7080   32.6060   49.4900 O   0  0  0  0  0  0  0  0  0  0  0  0
   66.0690   32.0520   50.7510 C   0  0  0  0  0  0  0  0  0  0  0  0
   65.6605   32.6789   51.5574 H   0  0  0  0  0  0  0  0  0  0  0  0
   65.6602   31.0342   50.8349 H   0  0  0  0  0  0  0  0  0  0  0  0
   67.1652   32.0149   50.8349 H   0  0  0  0  0  0  0  0  0  0  0  0
   64.0280   33.0810   47.8750 N   0  0  0  0  0  0  0  0  0  0  0  0
   64.6750   32.7070   47.1440 H   0  0  0  0  0  0  0  0  0  0  0  0
   62.8050   33.5410   47.4930 C   0  0  0  0  0  0  0  0  0  0  0  0
   62.5233   33.5271   46.4298 H   0  0  0  0  0  0  0  0  0  0  0  0
   59.3610   32.5550   46.7740 S   0  0  0  0  0  0  0  0  0  0  0  0
   58.6710   32.9060   45.2730 C   0  0  0  0  0  0  0  0  0  0  0  0
   57.9370   31.9420   44.4130 C   0  0  0  0  0  0  0  0  0  0  0  0
   57.7710   32.2000   43.0370 C   0  0  0  0  0  0  0  0  0  0  0  0
   58.1863   33.1205   42.6008 H   0  0  0  0  0  0  0  0  0  0  0  0
   57.0830   31.2960   42.2220 C   0  0  0  0  0  0  0  0  0  0  0  0
   56.9579   31.5089   41.1501 H   0  0  0  0  0  0  0  0  0  0  0  0
   56.5550   30.1250   42.7650 C   0  0  0  0  0  0  0  0  0  0  0  0
   56.0116   29.4168   42.1222 H   0  0  0  0  0  0  0  0  0  0  0  0
   56.7160   29.8520   44.1230 C   0  0  0  0  0  0  0  0  0  0  0  0
   56.3023   28.9261   44.5490 H   0  0  0  0  0  0  0  0  0  0  0  0
   57.4020   30.7520   44.9450 C   0  0  0  0  0  0  0  0  0  0  0  0
   57.5248   30.5291   46.0151 H   0  0  0  0  0  0  0  0  0  0  0  0
  1  2  1  0
  2  3  1  0
  3  4  1  0
  4  5  2  0
  5  6  1  0
  6  7  2  0
  7  8  1  0
  7  9  1  0
  9 10  1  0
  9 11  2  0
 11 12  1  0
 12 13  1  0
 13 14  1  0
 13 15  1  0
 13 16  1  0
 11 17  1  0
 17 18  1  0
 17 19  2  0
 19 20  1  0
  4 21  1  0
 21 22  1  0
 22 23  1  0
 23 24  2  0
 24 25  1  0
 24 26  1  0
 26 27  1  0
 26 28  2  0
 28 29  1  0
 28 30  1  0
 30 31  1  0
 30 32  2  0
 32 33  1  0
 22  2  2  0
 32 23  1  0
 19  6  1  0
M  CHG  2   3  -1  17   1
M  END
>  <UniqueID>  (84) 
72

>  <SMILES>  (84) 
COc1ccc(/N=c2/[n-]cc(-c3ccccc3)s2)c[nH+]1

>  <Energy>  (84) 
75.04805024950245

>  <Genealogy>  (84) 
COc1ccc(N=c2[n-]cc(-c3ccccc3)s2)c[nH+]1 (protonated)
COc1ccc(/N=c2/[n-]cc(-c3ccccc3)s2)c[nH+]1 (cis-trans isomerization)
COc1ccc(/N=c2/[n-]cc(-c3ccccc3)s2)c[nH+]1 (3D coordinates assigned)
COc1ccc(/N=c2/[n-]cc(-c3ccccc3)s2)c[nH+]1 (optimized conformer: 75.04805024950245 kcal/mol)

>  <smiles>  (84) 
COc1ccc(N=c2[nH]cc(-c3ccccc3)s2)cn1

>  <score_type>  (84) 
oracle

>  <origin>  (84) 
adg

>  <m_score__min__energy>  (84) 
-6.8700000000000001

>  <m_primary>  (84) 
energy

$$$$
84:0
     RDKit          3D

 39 41  0  0  0  0  0  0  0  0999 V2000
   55.1440   26.6640   46.0370 O   0  0  0  0  0  0  0  0  0  0  0  0
   56.2120   25.9980   46.0040 C   0  0  0  0  0  0  0  0  0  0  0  0
   56.1380   24.5700   46.0680 N   0  0  0  0  0  0  0  0  0  0  0  0
   56.5590   23.6570   45.0440 C   0  0  0  0  0  0  0  0  0  0  0  0
   55.8810   23.5620   43.8150 C   0  0  0  0  0  0  0  0  0  0  0  0
   56.3020   22.6410   42.8490 C   0  0  0  0  0  0  0  0  0  0  0  0
   57.3890   21.8020   43.1090 C   0  0  0  0  0  0  0  0  0  0  0  0
   58.0500   21.8750   44.3380 C   0  0  0  0  0  0  0  0  0  0  0  0
   57.6310   22.7950   45.3050 C   0  0  0  0  0  0  0  0  0  0  0  0
   57.4830   26.6690   46.0090 N   0  0  0  0  0  0  0  0  0  0  0  0
   57.6720   28.0350   45.6010 C   0  0  0  0  0  0  0  0  0  0  0  0
   58.8970   28.6660   45.8610 C   0  0  0  0  0  0  0  0  0  0  0  0
   59.1160   29.9870   45.4540 C   0  0  0  0  0  0  0  0  0  0  0  0
   58.1200   30.6870   44.7540 C   0  0  0  0  0  0  0  0  0  0  0  0
   58.3110   32.0540   44.3480 N   0  0  0  0  0  0  0  0  0  0  0  0
   58.7080   33.1160   45.2330 C   0  0  0  0  0  0  0  0  0  0  0  0
   58.4660   32.9930   46.6110 C   0  0  0  0  0  0  0  0  0  0  0  0
   58.8180   34.0250   47.4860 C   0  0  0  0  0  0  0  0  0  0  0  0
   59.4010   35.1950   46.9900 C   0  0  0  0  0  0  0  0  0  0  0  0
   59.6240   35.3370   45.6190 C   0  0  0  0  0  0  0  0  0  0  0  0
   59.2730   34.3070   44.7400 C   0  0  0  0  0  0  0  0  0  0  0  0
   56.8940   30.0580   44.4950 C   0  0  0  0  0  0  0  0  0  0  0  0
   56.6750   28.7380   44.9020 C   0  0  0  0  0  0  0  0  0  0  0  0
   55.0178   24.2132   43.6128 H   0  0  0  0  0  0  0  0  0  0  0  0
   55.7770   22.5774   41.8845 H   0  0  0  0  0  0  0  0  0  0  0  0
   57.7243   21.0840   42.3461 H   0  0  0  0  0  0  0  0  0  0  0  0
   58.9003   21.2086   44.5452 H   0  0  0  0  0  0  0  0  0  0  0  0
   58.1465   22.8414   46.2756 H   0  0  0  0  0  0  0  0  0  0  0  0
   58.2990   26.1580   46.4140 H   0  0  0  0  0  0  0  0  0  0  0  0
   59.6918   28.1186   46.3888 H   0  0  0  0  0  0  0  0  0  0  0  0
   60.0726   30.4792   45.6835 H   0  0  0  0  0  0  0  0  0  0  0  0
   58.1510   32.2920   43.3430 H   0  0  0  0  0  0  0  0  0  0  0  0
   57.9967   32.0791   47.0042 H   0  0  0  0  0  0  0  0  0  0  0  0
   58.6362   33.9164   48.5654 H   0  0  0  0  0  0  0  0  0  0  0  0
   59.6840   36.0037   47.6799 H   0  0  0  0  0  0  0  0  0  0  0  0
   60.0766   36.2607   45.2293 H   0  0  0  0  0  0  0  0  0  0  0  0
   59.4392   34.4284   43.6594 H   0  0  0  0  0  0  0  0  0  0  0  0
   56.0991   30.6063   43.9682 H   0  0  0  0  0  0  0  0  0  0  0  0
   55.7174   28.2471   44.6740 H   0  0  0  0  0  0  0  0  0  0  0  0
  1  2  2  0
  2  3  1  0
  3  4  1  0
  4  5  2  0
  5  6  1  0
  6  7  2  0
  7  8  1  0
  8  9  2  0
  2 10  1  0
 10 11  1  0
 11 12  2  0
 12 13  1  0
 13 14  2  0
 14 15  1  0
 15 16  1  0
 16 17  2  0
 17 18  1  0
 18 19  2  0
 19 20  1  0
 20 21  2  0
 14 22  1  0
 22 23  2  0
  9  4  1  0
 23 11  1  0
 21 16  1  0
  5 24  1  0
  6 25  1  0
  7 26  1  0
  8 27  1  0
  9 28  1  0
 10 29  1  0
 12 30  1  0
 13 31  1  0
 15 32  1  0
 17 33  1  0
 18 34  1  0
 19 35  1  0
 20 36  1  0
 21 37  1  0
 22 38  1  0
 23 39  1  0
M  CHG  1   3  -1
M  END
>  <UniqueID>  (85) 
73

>  <SMILES>  (85) 
O=C([N-]c1ccccc1)Nc1ccc(Nc2ccccc2)cc1

>  <Energy>  (85) 
54.03665192007668

>  <Genealogy>  (85) 
O=C([N-]c1ccccc1)Nc1ccc(Nc2ccccc2)cc1 (protonated)
O=C([N-]c1ccccc1)Nc1ccc(Nc2ccccc2)cc1 (3D coordinates assigned)
O=C([N-]c1ccccc1)Nc1ccc(Nc2ccccc2)cc1 (optimized conformer: 54.03665192007668 kcal/mol)

>  <smiles>  (85) 
O=C(Nc1ccccc1)Nc1ccc(Nc2ccccc2)cc1

>  <score_type>  (85) 
oracle

>  <origin>  (85) 
adg

>  <m_score__min__energy>  (85) 
-9.6899999999999995

>  <m_primary>  (85) 
energy

$$$$
85:0
     RDKit          3D

 51 53  0  0  1  0  0  0  0  0999 V2000
   55.1800   29.7160   43.3820 C   0  0  0  0  0  0  0  0  0  0  0  0
   55.3000   29.2190   44.7120 O   0  0  0  0  0  0  0  0  0  0  0  0
   56.5770   28.9590   45.2410 C   0  0  0  0  0  0  0  0  0  0  0  0
   56.8970   27.6900   45.6550 C   0  0  0  0  0  0  0  0  0  0  0  0
   58.1340   27.3530   46.1870 C   0  0  0  0  0  0  0  0  0  0  0  0
   58.4220   26.0370   46.6000 N   0  0  0  0  0  0  0  0  0  0  0  0
   57.3240   24.7190   46.4450 S   0  0  0  0  0  0  0  0  0  0  0  0
   57.4190   24.0510   44.7950 C   0  0  0  0  0  0  0  0  0  0  0  0
   57.6200   23.6190   47.4400 O   0  0  0  0  0  0  0  0  0  0  0  0
   55.9390   25.1860   46.6970 O   0  0  0  0  0  0  0  0  0  0  0  0
   59.0510   28.4000   46.2790 C   0  0  0  0  0  0  0  0  0  0  0  0
   60.2960   28.0800   46.8100 O   0  0  0  0  0  0  0  0  0  0  0  0
   60.4450   28.0770   48.2250 C   0  0  0  0  0  0  0  0  0  0  0  0
   58.7450   29.6740   45.8690 C   0  0  0  0  0  0  0  0  0  0  0  0
   60.7960   33.3020   48.5160 C   0  0  0  0  0  0  0  0  0  0  0  0
   59.3960   33.5050   48.2330 N   0  0  0  0  0  0  0  0  0  0  0  0
   58.9970   33.4730   47.0050 C   0  0  0  0  0  0  0  0  0  0  0  0
   58.1190   33.3100   44.4620 N   0  0  0  0  0  0  0  0  0  0  0  0
   58.8270   34.3960   44.8280 C   0  0  0  0  0  0  0  0  0  0  0  0
   59.2810   34.4900   46.1250 C   0  0  0  0  0  0  0  0  0  0  0  0
   57.8300   32.3030   45.3070 C   0  0  0  0  0  0  0  0  0  0  0  0
   57.1490   31.2860   44.9070 N   0  0  0  0  0  0  0  0  0  0  0  0
   57.5110   29.9800   45.3450 C   0  0  0  0  0  0  0  0  0  0  0  0
   61.5160   32.3180   47.8700 C   0  0  0  0  0  0  0  0  0  0  0  0
   62.8560   32.1720   48.1860 C   0  0  0  0  0  0  0  0  0  0  0  0
   63.4460   32.9900   49.1220 C   0  0  0  0  0  0  0  0  0  0  0  0
   64.8370   32.8460   49.4560 C   0  0  0  0  0  0  0  0  0  0  0  0
   65.9710   32.7440   49.7380 N   0  0  0  0  0  0  0  0  0  0  0  0
   62.7130   33.9720   49.7620 C   0  0  0  0  0  0  0  0  0  0  0  0
   61.3800   34.1390   49.4670 C   0  0  0  0  0  0  0  0  0  0  0  0
   58.2910   32.4260   46.5770 N   0  0  0  0  0  0  0  0  0  0  0  0
   54.9219   30.7849   43.4119 H   0  0  0  0  0  0  0  0  0  0  0  0
   56.1358   29.5842   42.8537 H   0  0  0  0  0  0  0  0  0  0  0  0
   54.3897   29.1626   42.8537 H   0  0  0  0  0  0  0  0  0  0  0  0
   56.1359   26.9015   45.5605 H   0  0  0  0  0  0  0  0  0  0  0  0
   59.3820   25.8800   47.0280 H   0  0  0  0  0  0  0  0  0  0  0  0
   57.5737   22.9632   44.8482 H   0  0  0  0  0  0  0  0  0  0  0  0
   56.4818   24.2623   44.2593 H   0  0  0  0  0  0  0  0  0  0  0  0
   58.2602   24.5152   44.2593 H   0  0  0  0  0  0  0  0  0  0  0  0
   59.4522   28.0970   48.6983 H   0  0  0  0  0  0  0  0  0  0  0  0
   60.9809   27.1679   48.5353 H   0  0  0  0  0  0  0  0  0  0  0  0
   61.0171   28.9638   48.5353 H   0  0  0  0  0  0  0  0  0  0  0  0
   59.5025   30.4663   45.9616 H   0  0  0  0  0  0  0  0  0  0  0  0
   57.7940   33.2820   43.4670 H   0  0  0  0  0  0  0  0  0  0  0  0
   59.0392   35.1951   44.1025 H   0  0  0  0  0  0  0  0  0  0  0  0
   59.8618   35.3653   46.4515 H   0  0  0  0  0  0  0  0  0  0  0  0
   61.0379   31.6667   47.1236 H   0  0  0  0  0  0  0  0  0  0  0  0
   63.4535   31.3962   47.6850 H   0  0  0  0  0  0  0  0  0  0  0  0
   63.1962   34.6203   50.5078 H   0  0  0  0  0  0  0  0  0  0  0  0
   60.7867   34.9165   49.9705 H   0  0  0  0  0  0  0  0  0  0  0  0
   58.0770   31.6610   47.2370 H   0  0  0  0  0  0  0  0  0  0  0  0
  1  2  1  0
  2  3  1  0
  3  4  2  0
  4  5  1  0
  5  6  1  0
  6  7  1  0
  7  8  1  0
  7  9  2  0
  7 10  2  0
  5 11  2  0
 11 12  1  0
 12 13  1  0
 11 14  1  0
 14 15  2  0
 15 16  1  0
 16 17  2  0
 17 18  1  0
 18 19  1  0
 19 20  2  0
 20 21  1  0
 21 22  2  0
 22 23  1  0
 23 24  2  0
 24 25  1  0
 25 26  2  0
 26 27  1  0
 27 28  3  0
 26 29  1  0
 29 30  2  0
 21 31  1  0
 15  3  1  0
 31 17  1  0
 30 23  1  0
  1 32  1  0
  1 33  1  0
  1 34  1  0
  4 35  1  0
  6 36  1  0
  8 37  1  0
  8 38  1  0
  8 39  1  0
 13 40  1  0
 13 41  1  0
 13 42  1  0
 14 43  1  0
 18 44  1  0
 19 45  1  0
 20 46  1  0
 24 47  1  0
 25 48  1  0
 29 49  1  0
 30 50  1  0
 31 51  1  0
M  END
>  <smiles>  (86) 
COc1cc(NS(C)(=O)=O)c(OC)cc1N=c1[nH]ccc(=Nc2ccc(C#N)cc2)[nH]1

>  <score_type>  (86) 
oracle

>  <origin>  (86) 
adg

>  <m_score__min__energy>  (86) 
-8.5299999999999994

>  <m_primary>  (86) 
energy

$$$$
86:0
     RDKit          3D

 43 45  0  0  0  0  0  0  0  0999 V2000
   58.9610   33.7220   51.9670 C   0  0  0  0  0  0  0  0  0  0  0  0
   59.3500   34.1890   50.6660 O   0  0  0  0  0  0  0  0  0  0  0  0
   59.8150   33.2800   49.7310 C   0  0  0  0  0  0  0  0  0  0  0  0
   60.9530   33.4670   48.9800 C   0  0  0  0  0  0  0  0  0  0  0  0
   61.3590   32.5210   48.0670 C   0  0  0  0  0  0  0  0  0  0  0  0
   60.6690   31.3390   47.8420 C   0  0  0  0  0  0  0  0  0  0  0  0
   61.1240   30.0800   46.7380 S   0  0  0  0  0  0  0  0  0  0  0  0
   59.9050   29.2000   45.8690 C   0  0  0  0  0  0  0  0  0  0  0  0
   58.9260   29.9550   45.1850 C   0  0  0  0  0  0  0  0  0  0  0  0
   57.9230   29.3880   44.4750 C   0  0  0  0  0  0  0  0  0  0  0  0
   56.7430   30.3830   43.6520 S   0  0  0  0  0  0  0  0  0  0  0  0
   55.5040   30.4340   44.5160 O   0  0  0  0  0  0  0  0  0  0  0  0
   56.3380   29.7430   42.3590 O   0  0  0  0  0  0  0  0  0  0  0  0
   57.3780   31.9690   43.4010 N   0  0  0  0  0  0  0  0  0  0  0  0
   57.7760   32.7160   44.3660 C   0  0  0  0  0  0  0  0  0  0  0  0
   58.8240   33.5350   44.1970 N   0  0  0  0  0  0  0  0  0  0  0  0
   59.2060   34.2990   45.2330 C   0  0  0  0  0  0  0  0  0  0  0  0
   58.5520   34.2590   46.4530 C   0  0  0  0  0  0  0  0  0  0  0  0
   57.4820   33.3890   46.5460 C   0  0  0  0  0  0  0  0  0  0  0  0
   57.0880   32.6230   45.5270 N   0  0  0  0  0  0  0  0  0  0  0  0
   57.8020   28.0210   44.3770 C   0  0  0  0  0  0  0  0  0  0  0  0
   58.7270   27.2550   45.0220 C   0  0  0  0  0  0  0  0  0  0  0  0
   59.7620   27.8410   45.7560 C   0  0  0  0  0  0  0  0  0  0  0  0
   60.7130   26.9500   46.4250 C   0  0  0  0  0  0  0  0  0  0  0  0
   59.5150   31.1760   48.6220 C   0  0  0  0  0  0  0  0  0  0  0  0
   59.1090   32.1220   49.5340 C   0  0  0  0  0  0  0  0  0  0  0  0
   59.4630   34.3247   52.7382 H   0  0  0  0  0  0  0  0  0  0  0  0
   57.8709   33.8166   52.0797 H   0  0  0  0  0  0  0  0  0  0  0  0
   59.2511   32.6669   52.0797 H   0  0  0  0  0  0  0  0  0  0  0  0
   61.5456   34.3844   49.1113 H   0  0  0  0  0  0  0  0  0  0  0  0
   62.2746   32.7112   47.4878 H   0  0  0  0  0  0  0  0  0  0  0  0
   58.9815   31.0526   45.2316 H   0  0  0  0  0  0  0  0  0  0  0  0
   60.0636   34.9766   45.1090 H   0  0  0  0  0  0  0  0  0  0  0  0
   58.8666   34.8849   47.3011 H   0  0  0  0  0  0  0  0  0  0  0  0
   56.9337   33.3256   47.4975 H   0  0  0  0  0  0  0  0  0  0  0  0
   56.2700   31.9610   45.6030 H   0  0  0  0  0  0  0  0  0  0  0  0
   56.9870   27.5620   43.7982 H   0  0  0  0  0  0  0  0  0  0  0  0
   58.6577   26.1587   44.9639 H   0  0  0  0  0  0  0  0  0  0  0  0
   60.6054   27.0508   47.5151 H   0  0  0  0  0  0  0  0  0  0  0  0
   60.5098   25.9096   46.1311 H   0  0  0  0  0  0  0  0  0  0  0  0
   61.7379   27.2205   46.1311 H   0  0  0  0  0  0  0  0  0  0  0  0
   58.9152   30.2620   48.5005 H   0  0  0  0  0  0  0  0  0  0  0  0
   58.1950   31.9448   50.1198 H   0  0  0  0  0  0  0  0  0  0  0  0
  1  2  1  0
  2  3  1  0
  3  4  2  0
  4  5  1  0
  5  6  2  0
  6  7  1  0
  7  8  1  0
  8  9  2  0
  9 10  1  0
 10 11  1  0
 11 12  2  0
 11 13  2  0
 11 14  1  0
 14 15  2  3
 15 16  1  0
 16 17  2  0
 17 18  1  0
 18 19  2  0
 19 20  1  0
 10 21  2  0
 21 22  1  0
 22 23  2  0
 23 24  1  0
  6 25  1  0
 25 26  2  0
 26  3  1  0
 23  8  1  0
 20 15  1  0
  1 27  1  0
  1 28  1  0
  1 29  1  0
  4 30  1  0
  5 31  1  0
  9 32  1  0
 17 33  1  0
 18 34  1  0
 19 35  1  0
 20 36  1  0
 21 37  1  0
 22 38  1  0
 24 39  1  0
 24 40  1  0
 24 41  1  0
 25 42  1  0
 26 43  1  0
M  END
>  <smiles>  (87) 
COc1ccc(Sc2cc(S(=O)(=O)N=c3nccc[nH]3)ccc2C)cc1

>  <score_type>  (87) 
oracle

>  <origin>  (87) 
adg

>  <m_score__min__energy>  (87) 
-9.2699999999999996

>  <m_primary>  (87) 
energy

$$$$
87:0
     RDKit          3D

 33 35  0  0  0  0  0  0  0  0999 V2000
   55.9630   25.2750   45.9770 C   0  0  0  0  0  0  0  0  0  0  0  0
   55.9690   26.6890   46.1460 O   0  0  0  0  0  0  0  0  0  0  0  0
   56.9370   27.5490   45.6030 C   0  0  0  0  0  0  0  0  0  0  0  0
   58.3140   27.2730   45.6830 C   0  0  0  0  0  0  0  0  0  0  0  0
   59.2420   28.1510   45.1210 C   0  0  0  0  0  0  0  0  0  0  0  0
   58.8100   29.3140   44.4830 C   0  0  0  0  0  0  0  0  0  0  0  0
   57.4420   29.6210   44.4100 C   0  0  0  0  0  0  0  0  0  0  0  0
   57.0000   30.8810   43.7030 C   0  0  0  0  0  0  0  0  0  0  0  0
   58.0800   31.8700   43.6780 N   0  0  0  0  0  0  0  0  0  0  0  0
   58.4640   32.6850   44.8010 C   0  0  0  0  0  0  0  0  0  0  0  0
   58.8930   34.0340   44.6390 C   0  0  0  0  0  0  0  0  0  0  0  0
   59.2600   34.8140   45.7520 C   0  0  0  0  0  0  0  0  0  0  0  0
   59.1910   34.2210   47.0080 C   0  0  0  0  0  0  0  0  0  0  0  0
   59.4890   34.7680   48.1970 N   0  0  0  0  0  0  0  0  0  0  0  0
   59.2780   33.8350   49.1230 N   0  0  0  0  0  0  0  0  0  0  0  0
   58.8470   32.7000   48.5240 C   0  0  0  0  0  0  0  0  0  0  0  0
   58.7870   32.9300   47.1710 C   0  0  0  0  0  0  0  0  0  0  0  0
   58.4170   32.1250   46.0990 C   0  0  0  0  0  0  0  0  0  0  0  0
   56.5060   28.7200   44.9600 C   0  0  0  0  0  0  0  0  0  0  0  0
   55.1410   28.9790   44.8700 O   0  0  0  0  0  0  0  0  0  0  0  0
   55.9609   24.7879   46.9633 H   0  0  0  0  0  0  0  0  0  0  0  0
   55.0636   24.9763   45.4186 H   0  0  0  0  0  0  0  0  0  0  0  0
   56.8599   24.9687   45.4186 H   0  0  0  0  0  0  0  0  0  0  0  0
   58.6610   26.3610   46.1908 H   0  0  0  0  0  0  0  0  0  0  0  0
   60.3169   27.9254   45.1813 H   0  0  0  0  0  0  0  0  0  0  0  0
   59.5470   29.9958   44.0336 H   0  0  0  0  0  0  0  0  0  0  0  0
   56.7139   30.6334   42.6701 H   0  0  0  0  0  0  0  0  0  0  0  0
   56.1438   31.3078   44.2459 H   0  0  0  0  0  0  0  0  0  0  0  0
   58.6240   31.9580   42.7900 H   0  0  0  0  0  0  0  0  0  0  0  0
   58.9380   34.4718   43.6309 H   0  0  0  0  0  0  0  0  0  0  0  0
   59.5899   35.8565   45.6323 H   0  0  0  0  0  0  0  0  0  0  0  0
   58.5899   31.7586   49.0317 H   0  0  0  0  0  0  0  0  0  0  0  0
   58.0974   31.0842   46.2558 H   0  0  0  0  0  0  0  0  0  0  0  0
  1  2  1  0
  2  3  1  0
  3  4  2  0
  4  5  1  0
  5  6  2  0
  6  7  1  0
  7  8  1  0
  8  9  1  0
  9 10  1  0
 10 11  1  0
 11 12  2  0
 12 13  1  0
 13 14  2  0
 14 15  1  0
 15 16  1  0
 16 17  2  0
 17 18  1  0
  7 19  2  0
 19 20  1  0
 19  3  1  0
 18 10  2  0
 17 13  1  0
  1 21  1  0
  1 22  1  0
  1 23  1  0
  4 24  1  0
  5 25  1  0
  6 26  1  0
  8 27  1  0
  8 28  1  0
  9 29  1  0
 11 30  1  0
 12 31  1  0
 16 32  1  0
 18 33  1  0
M  CHG  2  15  -1  20  -1
M  END
>  <UniqueID>  (88) 
74

>  <SMILES>  (88) 
COc1cccc(CNc2ccc3n[n-]cc3c2)c1[O-]

>  <Energy>  (88) 
73.21339309275457

>  <Genealogy>  (88) 
COc1cccc(CNc2ccc3n[n-]cc3c2)c1[O-] (protonated)
COc1cccc(CNc2ccc3n[n-]cc3c2)c1[O-] (3D coordinates assigned)
COc1cccc(CNc2ccc3n[n-]cc3c2)c1[O-] (optimized conformer: 73.21339309275457 kcal/mol)

>  <smiles>  (88) 
COc1cccc(CNc2ccc3n[nH]cc3c2)c1O

>  <score_type>  (88) 
oracle

>  <origin>  (88) 
adg

>  <m_score__min__energy>  (88) 
-11.710000000000001

>  <m_primary>  (88) 
energy

$$$$
88:0
     RDKit          3D

 19 19  0  0  0  0  0  0  0  0999 V2000
   56.3000   24.6429   46.6860 H   0  0  0  0  0  0  0  0  0  0  0  0
   56.8640   25.5350   46.3760 C   0  0  0  0  0  0  0  0  0  0  0  0
   58.2580   25.5110   46.3640 C   0  0  0  0  0  0  0  0  0  0  0  0
   58.8012   24.6028   46.6644 H   0  0  0  0  0  0  0  0  0  0  0  0
   58.9560   26.6510   45.9670 C   0  0  0  0  0  0  0  0  0  0  0  0
   60.0559   26.6418   45.9541 H   0  0  0  0  0  0  0  0  0  0  0  0
   58.2840   27.7760   45.5950 N   0  0  0  0  0  0  0  0  0  0  0  0
   58.8610   28.5940   45.3050 H   0  0  0  0  0  0  0  0  0  0  0  0
   56.9150   27.8280   45.5990 C   0  0  0  0  0  0  0  0  0  0  0  0
   56.2610   28.8990   45.2480 N   0  0  0  0  0  0  0  0  0  0  0  0
   56.8290   30.1820   44.2230 S   0  0  0  0  0  0  0  0  0  0  0  0
   56.3390   31.5080   44.7320 O   0  0  0  0  0  0  0  0  0  0  0  0
   58.3310   30.1840   44.2470 O   0  0  0  0  0  0  0  0  0  0  0  0
   56.2910   29.9170   42.5460 C   0  0  0  0  0  0  0  0  0  0  0  0
   55.3042   29.4309   42.5500 H   0  0  0  0  0  0  0  0  0  0  0  0
   56.2214   30.8839   42.0261 H   0  0  0  0  0  0  0  0  0  0  0  0
   57.0151   29.2725   42.0261 H   0  0  0  0  0  0  0  0  0  0  0  0
   56.1860   26.6930   45.9940 C   0  0  0  0  0  0  0  0  0  0  0  0
   54.7950   26.7130   46.0080 O   0  0  0  0  0  0  0  0  0  0  0  0
  1  2  1  0
  2  3  1  0
  3  4  1  0
  3  5  2  0
  5  6  1  0
  5  7  1  0
  7  8  1  0
  7  9  1  0
  9 10  2  0
 10 11  1  0
 11 12  2  0
 11 13  2  0
 11 14  1  0
 14 15  1  0
 14 16  1  0
 14 17  1  0
  9 18  1  0
 18 19  1  0
 18  2  2  0
M  CHG  1  19  -1
M  END
>  <UniqueID>  (89) 
75

>  <SMILES>  (89) 
CS(=O)(=O)/N=c1\[nH]cccc1[O-]

>  <Energy>  (89) 
19.029385165968783

>  <Genealogy>  (89) 
CS(=O)(=O)N=c1[nH]cccc1[O-] (protonated)
CS(=O)(=O)/N=c1\[nH]cccc1[O-] (cis-trans isomerization)
CS(=O)(=O)/N=c1\[nH]cccc1[O-] (3D coordinates assigned)
CS(=O)(=O)/N=c1\[nH]cccc1[O-] (optimized conformer: 19.029385165968783 kcal/mol)

>  <smiles>  (89) 
CS(=O)(=O)N=c1[nH]cccc1O

>  <score_type>  (89) 
oracle

>  <origin>  (89) 
adg

>  <m_score__min__energy>  (89) 
-9.1699999999999999

>  <m_primary>  (89) 
energy

$$$$
89:0
     RDKit          3D

 42 44  0  0  0  0  0  0  0  0999 V2000
   60.0020   29.6640   45.9990 C   0  0  0  0  0  0  0  0  0  0  0  0
   59.3920   30.9980   46.3330 C   0  0  0  0  0  0  0  0  0  0  0  0
   59.5810   31.5430   47.6120 C   0  0  0  0  0  0  0  0  0  0  0  0
   59.0350   32.7840   47.9380 C   0  0  0  0  0  0  0  0  0  0  0  0
   58.3200   33.5080   46.9850 C   0  0  0  0  0  0  0  0  0  0  0  0
   58.1450   33.0010   45.6890 C   0  0  0  0  0  0  0  0  0  0  0  0
   57.3990   33.8290   44.6790 C   0  0  0  0  0  0  0  0  0  0  0  0
   58.6550   31.7210   45.3680 C   0  0  0  0  0  0  0  0  0  0  0  0
   58.4180   31.1480   44.0750 N   0  0  0  0  0  0  0  0  0  0  0  0
   56.9660   30.2530   43.7710 S   0  0  0  0  0  0  0  0  0  0  0  0
   55.8100   30.8890   44.4910 O   0  0  0  0  0  0  0  0  0  0  0  0
   56.6760   30.2670   42.2960 O   0  0  0  0  0  0  0  0  0  0  0  0
   57.1680   28.5850   44.3020 C   0  0  0  0  0  0  0  0  0  0  0  0
   57.7820   27.6460   43.4640 C   0  0  0  0  0  0  0  0  0  0  0  0
   57.8950   26.3120   43.8630 C   0  0  0  0  0  0  0  0  0  0  0  0
   57.3860   25.8920   45.1040 C   0  0  0  0  0  0  0  0  0  0  0  0
   57.5070   24.5140   45.5090 N   0  0  0  0  0  0  0  0  0  0  0  0
   58.2230   23.4770   44.7730 C   0  0  0  0  0  0  0  0  0  0  0  0
   58.2030   22.2270   45.6850 C   0  0  0  0  0  0  0  0  0  0  0  0
   57.3830   22.5700   46.8400 N   0  0  0  0  0  0  0  0  0  0  0  0
   57.0060   23.9200   46.6920 C   0  0  0  0  0  0  0  0  0  0  0  0
   56.2460   24.5070   47.5070 O   0  0  0  0  0  0  0  0  0  0  0  0
   56.7840   26.8430   45.9480 C   0  0  0  0  0  0  0  0  0  0  0  0
   56.6740   28.1770   45.5470 C   0  0  0  0  0  0  0  0  0  0  0  0
   60.2464   29.1295   46.9288 H   0  0  0  0  0  0  0  0  0  0  0  0
   59.2860   29.0701   45.4120 H   0  0  0  0  0  0  0  0  0  0  0  0
   60.9196   29.8171   45.4120 H   0  0  0  0  0  0  0  0  0  0  0  0
   60.1634   30.9879   48.3621 H   0  0  0  0  0  0  0  0  0  0  0  0
   59.1689   33.1930   48.9503 H   0  0  0  0  0  0  0  0  0  0  0  0
   57.8897   34.4846   47.2516 H   0  0  0  0  0  0  0  0  0  0  0  0
   56.7510   34.5482   45.2013 H   0  0  0  0  0  0  0  0  0  0  0  0
   58.1175   34.3733   44.0485 H   0  0  0  0  0  0  0  0  0  0  0  0
   56.7829   33.1710   44.0485 H   0  0  0  0  0  0  0  0  0  0  0  0
   59.2340   30.9710   43.4490 H   0  0  0  0  0  0  0  0  0  0  0  0
   58.1773   27.9603   42.4868 H   0  0  0  0  0  0  0  0  0  0  0  0
   58.3864   25.5843   43.2005 H   0  0  0  0  0  0  0  0  0  0  0  0
   57.7170   23.2644   43.8197 H   0  0  0  0  0  0  0  0  0  0  0  0
   59.2504   23.7867   44.5309 H   0  0  0  0  0  0  0  0  0  0  0  0
   57.7652   21.3723   45.1486 H   0  0  0  0  0  0  0  0  0  0  0  0
   59.2204   21.9413   45.9904 H   0  0  0  0  0  0  0  0  0  0  0  0
   56.3972   26.5343   46.9304 H   0  0  0  0  0  0  0  0  0  0  0  0
   56.1966   28.9107   46.2131 H   0  0  0  0  0  0  0  0  0  0  0  0
  1  2  1  0
  2  3  2  0
  3  4  1  0
  4  5  2  0
  5  6  1  0
  6  7  1  0
  6  8  2  0
  8  9  1  0
  9 10  1  0
 10 11  2  0
 10 12  2  0
 10 13  1  0
 13 14  2  0
 14 15  1  0
 15 16  2  0
 16 17  1  0
 17 18  1  0
 18 19  1  0
 19 20  1  0
 20 21  1  0
 21 22  2  0
 16 23  1  0
 23 24  2  0
  8  2  1  0
 24 13  1  0
 21 17  1  0
  1 25  1  0
  1 26  1  0
  1 27  1  0
  3 28  1  0
  4 29  1  0
  5 30  1  0
  7 31  1  0
  7 32  1  0
  7 33  1  0
  9 34  1  0
 14 35  1  0
 15 36  1  0
 18 37  1  0
 18 38  1  0
 19 39  1  0
 19 40  1  0
 23 41  1  0
 24 42  1  0
M  CHG  1  20  -1
M  END
>  <UniqueID>  (90) 
76

>  <SMILES>  (90) 
Cc1cccc(C)c1NS(=O)(=O)c1ccc(N2CC[N-]C2=O)cc1

>  <Energy>  (90) 
67.02950364720667

>  <Genealogy>  (90) 
Cc1cccc(C)c1NS(=O)(=O)c1ccc(N2CC[N-]C2=O)cc1 (protonated)
Cc1cccc(C)c1NS(=O)(=O)c1ccc(N2CC[N-]C2=O)cc1 (3D coordinates assigned)
Cc1cccc(C)c1NS(=O)(=O)c1ccc(N2CC[N-]C2=O)cc1 (nonaromatic ring conformer: 67.02950364720667 kcal/mol)

>  <smiles>  (90) 
Cc1cccc(C)c1NS(=O)(=O)c1ccc(N2CCNC2=O)cc1

>  <score_type>  (90) 
oracle

>  <origin>  (90) 
adg

>  <m_score__min__energy>  (90) 
-9.5500000000000007

>  <m_primary>  (90) 
energy

$$$$
90:0
     RDKit          3D

 30 30  0  0  0  0  0  0  0  0999 V2000
   55.1490   28.0940   44.9290 H   0  0  0  0  0  0  0  0  0  0  0  0
   55.1620   29.0780   44.6960 O   0  0  0  0  0  0  0  0  0  0  0  0
   56.3230   29.8490   44.7540 C   0  0  0  0  0  0  0  0  0  0  0  0
   56.2500   31.2050   44.8220 N   0  0  0  0  0  0  0  0  0  0  0  0
   57.4750   31.7680   44.8680 C   0  0  0  0  0  0  0  0  0  0  0  0
   57.7210   33.3800   44.9530 S   0  0  0  0  0  0  0  0  0  0  0  0
   58.6990   30.6220   44.8250 S   0  0  0  0  0  0  0  0  0  0  0  0
   57.6220   29.3230   44.7450 C   0  0  0  0  0  0  0  0  0  0  0  0
   57.9920   27.8950   44.6740 C   0  0  0  0  0  0  0  0  0  0  0  0
   57.9105   27.3733   43.7090 H   0  0  0  0  0  0  0  0  0  0  0  0
   58.4230   27.2130   45.7420 C   0  0  0  0  0  0  0  0  0  0  0  0
   57.9993   27.4428   46.7308 H   0  0  0  0  0  0  0  0  0  0  0  0
   59.4710   26.1410   45.6260 C   0  0  0  0  0  0  0  0  0  0  0  0
   60.4236   26.5295   46.0155 H   0  0  0  0  0  0  0  0  0  0  0  0
   59.5638   25.8640   44.5655 H   0  0  0  0  0  0  0  0  0  0  0  0
   59.0840   24.8830   46.4190 C   0  0  0  0  0  0  0  0  0  0  0  0
   58.5273   25.1979   47.3139 H   0  0  0  0  0  0  0  0  0  0  0  0
   60.0224   24.3620   46.6597 H   0  0  0  0  0  0  0  0  0  0  0  0
   58.2120   23.8810   45.6360 C   0  0  0  0  0  0  0  0  0  0  0  0
   57.5344   23.3888   46.3491 H   0  0  0  0  0  0  0  0  0  0  0  0
   58.9091   23.1867   45.1441 H   0  0  0  0  0  0  0  0  0  0  0  0
   57.3560   24.4990   44.5120 C   0  0  0  0  0  0  0  0  0  0  0  0
   57.5062   23.9039   43.5991 H   0  0  0  0  0  0  0  0  0  0  0  0
   57.6869   25.5425   44.4047 H   0  0  0  0  0  0  0  0  0  0  0  0
   55.8500   24.5470   44.8110 C   0  0  0  0  0  0  0  0  0  0  0  0
   55.4945   23.5251   45.0095 H   0  0  0  0  0  0  0  0  0  0  0  0
   55.3435   24.9815   43.9365 H   0  0  0  0  0  0  0  0  0  0  0  0
   55.5410   25.4060   45.9990 C   0  0  0  0  0  0  0  0  0  0  0  0
   56.1930   25.2690   47.0670 O   0  0  0  0  0  0  0  0  0  0  0  0
   54.5100   26.3340   45.9360 O   0  0  0  0  0  0  0  0  0  0  0  0
  1  2  1  0
  2  3  1  0
  3  4  1  0
  4  5  1  0
  5  6  2  0
  5  7  1  0
  7  8  1  0
  8  9  1  0
  9 10  1  0
  9 11  2  0
 11 12  1  0
 11 13  1  0
 13 14  1  0
 13 15  1  0
 13 16  1  0
 16 17  1  0
 16 18  1  0
 16 19  1  0
 19 20  1  0
 19 21  1  0
 19 22  1  0
 22 23  1  0
 22 24  1  0
 22 25  1  0
 25 26  1  0
 25 27  1  0
 25 28  1  0
 28 29  2  0
 28 30  1  0
  8  3  2  0
M  CHG  2   4  -1  30  -1
M  END
>  <UniqueID>  (91) 
77

>  <SMILES>  (91) 
O=C([O-])CCCCC/C=C/c1sc(=S)[n-]c1O

>  <Energy>  (91) 
50.448589000703286

>  <Genealogy>  (91) 
O=C([O-])CCCCCC=Cc1sc(=S)[n-]c1O (protonated)
O=C([O-])CCCCC/C=C/c1sc(=S)[n-]c1O (cis-trans isomerization)
O=C([O-])CCCCC/C=C/c1sc(=S)[n-]c1O (3D coordinates assigned)
O=C([O-])CCCCC/C=C/c1sc(=S)[n-]c1O (optimized conformer: 50.448589000703286 kcal/mol)

>  <smiles>  (91) 
O=C(O)CCCCCC=Cc1sc(=S)[nH]c1O

>  <score_type>  (91) 
oracle

>  <origin>  (91) 
adg

>  <m_score__min__energy>  (91) 
-11.869999999999999

>  <m_primary>  (91) 
energy

$$$$
91:0
     RDKit          3D

 44 46  0  0  0  0  0  0  0  0999 V2000
   53.6470   25.3000   45.6380 N   0  0  0  0  0  0  0  0  0  0  0  0
   55.1890   24.5330   45.7740 S   0  0  0  0  0  0  0  0  0  0  0  0
   55.1710   23.2300   45.0250 O   0  0  0  0  0  0  0  0  0  0  0  0
   55.4820   24.2520   47.2210 O   0  0  0  0  0  0  0  0  0  0  0  0
   56.4320   25.5870   45.1080 C   0  0  0  0  0  0  0  0  0  0  0  0
   57.1380   25.2040   43.9600 C   0  0  0  0  0  0  0  0  0  0  0  0
   58.1230   26.0410   43.4300 C   0  0  0  0  0  0  0  0  0  0  0  0
   58.3980   27.2710   44.0330 C   0  0  0  0  0  0  0  0  0  0  0  0
   57.6760   27.6820   45.1680 C   0  0  0  0  0  0  0  0  0  0  0  0
   57.9520   28.9340   45.8190 N   0  0  0  0  0  0  0  0  0  0  0  0
   57.3990   30.1940   45.3960 C   0  0  0  0  0  0  0  0  0  0  0  0
   56.3430   30.2100   44.7070 O   0  0  0  0  0  0  0  0  0  0  0  0
   58.0260   31.4740   45.8040 C   0  0  0  0  0  0  0  0  0  0  0  0
   58.3370   32.4620   44.8540 C   0  0  0  0  0  0  0  0  0  0  0  0
   58.9230   33.6690   45.2490 C   0  0  0  0  0  0  0  0  0  0  0  0
   59.2140   33.9060   46.6000 C   0  0  0  0  0  0  0  0  0  0  0  0
   59.8400   35.2070   47.0310 C   0  0  0  0  0  0  0  0  0  0  0  0
   60.7660   34.9940   48.0980 O   0  0  0  0  0  0  0  0  0  0  0  0
   61.7740   34.0160   48.1160 C   0  0  0  0  0  0  0  0  0  0  0  0
   62.6590   33.8240   47.0350 C   0  0  0  0  0  0  0  0  0  0  0  0
   63.6440   32.8350   47.0970 C   0  0  0  0  0  0  0  0  0  0  0  0
   63.7610   32.0310   48.2330 C   0  0  0  0  0  0  0  0  0  0  0  0
   62.8920   32.2150   49.3110 C   0  0  0  0  0  0  0  0  0  0  0  0
   61.9030   33.2040   49.2560 C   0  0  0  0  0  0  0  0  0  0  0  0
   60.8200   33.4110   50.6240 Cl  0  0  0  0  0  0  0  0  0  0  0  0
   58.8840   32.9330   47.5540 C   0  0  0  0  0  0  0  0  0  0  0  0
   58.2960   31.7280   47.1610 C   0  0  0  0  0  0  0  0  0  0  0  0
   56.7040   26.8250   45.7080 C   0  0  0  0  0  0  0  0  0  0  0  0
   53.8020   26.3230   45.7810 H   0  0  0  0  0  0  0  0  0  0  0  0
   56.9162   24.2420   43.4749 H   0  0  0  0  0  0  0  0  0  0  0  0
   58.6835   25.7309   42.5357 H   0  0  0  0  0  0  0  0  0  0  0  0
   59.1826   27.9209   43.6183 H   0  0  0  0  0  0  0  0  0  0  0  0
   58.4920   28.9120   46.7140 H   0  0  0  0  0  0  0  0  0  0  0  0
   58.1177   32.2845   43.7908 H   0  0  0  0  0  0  0  0  0  0  0  0
   59.1567   34.4361   44.4961 H   0  0  0  0  0  0  0  0  0  0  0  0
   60.3703   35.6529   46.1766 H   0  0  0  0  0  0  0  0  0  0  0  0
   59.0456   35.8819   47.3822 H   0  0  0  0  0  0  0  0  0  0  0  0
   62.5734   34.4559   46.1387 H   0  0  0  0  0  0  0  0  0  0  0  0
   64.3291   32.6892   46.2489 H   0  0  0  0  0  0  0  0  0  0  0  0
   64.5373   31.2530   48.2788 H   0  0  0  0  0  0  0  0  0  0  0  0
   62.9851   31.5812   50.2052 H   0  0  0  0  0  0  0  0  0  0  0  0
   59.0893   33.1194   48.6185 H   0  0  0  0  0  0  0  0  0  0  0  0
   58.0422   30.9720   47.9187 H   0  0  0  0  0  0  0  0  0  0  0  0
   56.1509   27.1272   46.6096 H   0  0  0  0  0  0  0  0  0  0  0  0
  1  2  1  0
  2  3  2  0
  2  4  2  0
  2  5  1  0
  5  6  2  0
  6  7  1  0
  7  8  2  0
  8  9  1  0
  9 10  1  0
 10 11  1  0
 11 12  2  0
 11 13  1  0
 13 14  2  0
 14 15  1  0
 15 16  2  0
 16 17  1  0
 17 18  1  0
 18 19  1  0
 19 20  2  0
 20 21  1  0
 21 22  2  0
 22 23  1  0
 23 24  2  0
 24 25  1  0
 16 26  1  0
 26 27  2  0
  9 28  2  0
 28  5  1  0
 27 13  1  0
 24 19  1  0
  1 29  1  0
  6 30  1  0
  7 31  1  0
  8 32  1  0
 10 33  1  0
 14 34  1  0
 15 35  1  0
 17 36  1  0
 17 37  1  0
 20 38  1  0
 21 39  1  0
 22 40  1  0
 23 41  1  0
 26 42  1  0
 27 43  1  0
 28 44  1  0
M  CHG  1   1  -1
M  END
>  <UniqueID>  (92) 
78

>  <SMILES>  (92) 
[NH-]S(=O)(=O)c1cccc(NC(=O)c2ccc(COc3ccccc3Cl)cc2)c1

>  <Energy>  (92) 
52.011768357951745

>  <Genealogy>  (92) 
[NH-]S(=O)(=O)c1cccc(NC(=O)c2ccc(COc3ccccc3Cl)cc2)c1 (protonated)
[NH-]S(=O)(=O)c1cccc(NC(=O)c2ccc(COc3ccccc3Cl)cc2)c1 (3D coordinates assigned)
[NH-]S(=O)(=O)c1cccc(NC(=O)c2ccc(COc3ccccc3Cl)cc2)c1 (optimized conformer: 52.011768357951745 kcal/mol)

>  <smiles>  (92) 
NS(=O)(=O)c1cccc(NC(=O)c2ccc(COc3ccccc3Cl)cc2)c1

>  <score_type>  (92) 
oracle

>  <origin>  (92) 
adg

>  <m_score__min__energy>  (92) 
-10.68

>  <m_primary>  (92) 
energy

$$$$
92:0
     RDKit          3D

 64 66  0  0  0  0  0  0  0  0999 V2000
   64.0670   29.2730   51.7530 C   0  0  0  0  0  0  0  0  0  0  0  0
   64.6190   30.6850   51.9170 C   0  0  0  0  0  0  0  0  0  0  0  0
   63.9220   31.6190   51.0080 N   0  0  0  0  0  0  0  0  0  0  0  0
   64.8220   32.6910   50.5340 C   0  0  0  0  0  0  0  0  0  0  0  0
   64.5110   33.0370   49.0810 C   0  0  0  0  0  0  0  0  0  0  0  0
   62.5280   32.3280   51.7940 S   0  0  0  0  0  0  0  0  0  0  0  0
   62.0490   31.4640   52.9250 O   0  0  0  0  0  0  0  0  0  0  0  0
   62.9010   33.6790   52.3370 O   0  0  0  0  0  0  0  0  0  0  0  0
   61.2300   32.4840   50.6070 C   0  0  0  0  0  0  0  0  0  0  0  0
   61.4040   31.9630   49.3180 C   0  0  0  0  0  0  0  0  0  0  0  0
   60.3400   31.9280   48.3970 C   0  0  0  0  0  0  0  0  0  0  0  0
   60.5630   31.3840   47.0360 C   0  0  0  0  0  0  0  0  0  0  0  0
   60.7210   32.1680   46.0620 O   0  0  0  0  0  0  0  0  0  0  0  0
   60.6650   29.9690   46.8410 N   0  0  0  0  0  0  0  0  0  0  0  0
   59.5660   29.0450   46.7410 C   0  0  0  0  0  0  0  0  0  0  0  0
   58.7700   29.0010   45.5860 C   0  0  0  0  0  0  0  0  0  0  0  0
   57.6880   28.1270   45.5020 C   0  0  0  0  0  0  0  0  0  0  0  0
   57.3770   27.2750   46.5710 C   0  0  0  0  0  0  0  0  0  0  0  0
   56.2410   26.3310   46.4640 C   0  0  0  0  0  0  0  0  0  0  0  0
   55.1390   26.7040   45.9790 O   0  0  0  0  0  0  0  0  0  0  0  0
   56.3700   25.0190   46.9050 O   0  0  0  0  0  0  0  0  0  0  0  0
   58.1500   27.3400   47.7430 C   0  0  0  0  0  0  0  0  0  0  0  0
   59.2460   28.2200   47.8410 C   0  0  0  0  0  0  0  0  0  0  0  0
   60.0590   28.2980   49.1170 C   0  0  0  0  0  0  0  0  0  0  0  0
   59.3770   29.0620   50.0460 F   0  0  0  0  0  0  0  0  0  0  0  0
   61.2870   28.8830   48.8620 F   0  0  0  0  0  0  0  0  0  0  0  0
   60.2860   27.0440   49.6590 F   0  0  0  0  0  0  0  0  0  0  0  0
   59.0750   32.4100   48.8020 C   0  0  0  0  0  0  0  0  0  0  0  0
   57.9420   32.2390   48.0000 O   0  0  0  0  0  0  0  0  0  0  0  0
   57.9030   32.7260   46.6890 C   0  0  0  0  0  0  0  0  0  0  0  0
   58.2330   34.0540   46.4250 C   0  0  0  0  0  0  0  0  0  0  0  0
   58.1610   34.5070   45.1080 C   0  0  0  0  0  0  0  0  0  0  0  0
   57.7840   33.6590   44.1160 N   0  0  0  0  0  0  0  0  0  0  0  0
   57.4630   32.3640   44.3830 C   0  0  0  0  0  0  0  0  0  0  0  0
   57.0340   31.4830   43.3250 N   0  0  0  0  0  0  0  0  0  0  0  0
   57.4030   31.7830   41.9370 C   0  0  0  0  0  0  0  0  0  0  0  0
   56.2660   30.2780   43.6480 C   0  0  0  0  0  0  0  0  0  0  0  0
   57.5250   31.9130   45.6640 N   0  0  0  0  0  0  0  0  0  0  0  0
   58.9210   33.0050   50.0560 C   0  0  0  0  0  0  0  0  0  0  0  0
   59.9840   33.0410   50.9630 C   0  0  0  0  0  0  0  0  0  0  0  0
   59.6970   33.7440   52.5500 Cl  0  0  0  0  0  0  0  0  0  0  0  0
   63.8937   28.8296   52.7446 H   0  0  0  0  0  0  0  0  0  0  0  0
   63.1181   29.3124   51.1980 H   0  0  0  0  0  0  0  0  0  0  0  0
   64.7911   28.6584   51.1980 H   0  0  0  0  0  0  0  0  0  0  0  0
   64.4719   31.0133   52.9565 H   0  0  0  0  0  0  0  0  0  0  0  0
   65.6910   30.6801   51.6705 H   0  0  0  0  0  0  0  0  0  0  0  0
   64.6817   33.5856   51.1584 H   0  0  0  0  0  0  0  0  0  0  0  0
   65.8630   32.3427   50.6048 H   0  0  0  0  0  0  0  0  0  0  0  0
   63.7760   33.8547   49.0480 H   0  0  0  0  0  0  0  0  0  0  0  0
   65.4344   33.3533   48.5737 H   0  0  0  0  0  0  0  0  0  0  0  0
   64.0984   32.1525   48.5737 H   0  0  0  0  0  0  0  0  0  0  0  0
   62.3892   31.5746   49.0206 H   0  0  0  0  0  0  0  0  0  0  0  0
   59.0025   29.6629   44.7388 H   0  0  0  0  0  0  0  0  0  0  0  0
   57.0733   28.1054   44.5901 H   0  0  0  0  0  0  0  0  0  0  0  0
   57.8956   26.6943   48.5964 H   0  0  0  0  0  0  0  0  0  0  0  0
   58.5430   34.7290   47.2363 H   0  0  0  0  0  0  0  0  0  0  0  0
   58.4098   35.5522   44.8722 H   0  0  0  0  0  0  0  0  0  0  0  0
   58.2565   32.4769   41.9263 H   0  0  0  0  0  0  0  0  0  0  0  0
   57.6812   30.8516   41.4221 H   0  0  0  0  0  0  0  0  0  0  0  0
   56.5480   32.2454   41.4221 H   0  0  0  0  0  0  0  0  0  0  0  0
   56.1967   30.1692   44.7404 H   0  0  0  0  0  0  0  0  0  0  0  0
   55.2549   30.3627   43.2231 H   0  0  0  0  0  0  0  0  0  0  0  0
   56.7697   29.3973   43.2231 H   0  0  0  0  0  0  0  0  0  0  0  0
   57.9537   33.4497   50.3327 H   0  0  0  0  0  0  0  0  0  0  0  0
  1  2  1  0
  2  3  1  0
  3  4  1  0
  4  5  1  0
  3  6  1  0
  6  7  2  0
  6  8  2  0
  6  9  1  0
  9 10  2  0
 10 11  1  0
 11 12  1  0
 12 13  2  0
 12 14  1  0
 14 15  1  0
 15 16  2  0
 16 17  1  0
 17 18  2  0
 18 19  1  0
 19 20  2  0
 19 21  1  0
 18 22  1  0
 22 23  2  0
 23 24  1  0
 24 25  1  0
 24 26  1  0
 24 27  1  0
 11 28  2  0
 28 29  1  0
 29 30  1  0
 30 31  2  0
 31 32  1  0
 32 33  2  0
 33 34  1  0
 34 35  1  0
 35 36  1  0
 35 37  1  0
 34 38  2  0
 28 39  1  0
 39 40  2  0
 40 41  1  0
 40  9  1  0
 23 15  1  0
 38 30  1  0
  1 42  1  0
  1 43  1  0
  1 44  1  0
  2 45  1  0
  2 46  1  0
  4 47  1  0
  4 48  1  0
  5 49  1  0
  5 50  1  0
  5 51  1  0
 10 52  1  0
 16 53  1  0
 17 54  1  0
 22 55  1  0
 31 56  1  0
 32 57  1  0
 36 58  1  0
 36 59  1  0
 36 60  1  0
 37 61  1  0
 37 62  1  0
 37 63  1  0
 39 64  1  0
M  CHG  2  14  -1  21  -1
M  END
>  <UniqueID>  (93) 
79

>  <SMILES>  (93) 
CCN(CC)S(=O)(=O)c1cc(C(=O)[N-]c2ccc(C(=O)[O-])cc2C(F)(F)F)c(Oc2ccnc(N(C)C)n2)cc1Cl

>  <Energy>  (93) 
76.27583492642826

>  <Genealogy>  (93) 
CCN(CC)S(=O)(=O)c1cc(C(=O)[N-]c2ccc(C(=O)[O-])cc2C(F)(F)F)c(Oc2ccnc(N(C)C)n2)cc1Cl (protonated)
CCN(CC)S(=O)(=O)c1cc(C(=O)[N-]c2ccc(C(=O)[O-])cc2C(F)(F)F)c(Oc2ccnc(N(C)C)n2)cc1Cl (3D coordinates assigned)
CCN(CC)S(=O)(=O)c1cc(C(=O)[N-]c2ccc(C(=O)[O-])cc2C(F)(F)F)c(Oc2ccnc(N(C)C)n2)cc1Cl (optimized conformer: 76.27583492642826 kcal/mol)

>  <smiles>  (93) 
CCN(CC)S(=O)(=O)c1cc(C(=O)Nc2ccc(C(=O)O)cc2C(F)(F)F)c(Oc2ccnc(N(C)C)n2)cc1Cl

>  <score_type>  (93) 
oracle

>  <origin>  (93) 
adg

>  <m_score__min__energy>  (93) 
-11.880000000000001

>  <m_primary>  (93) 
energy

$$$$
93:0
     RDKit          3D

 35 37  0  0  0  0  0  0  0  0999 V2000
   55.6480   29.5990   41.8660 H   0  0  0  0  0  0  0  0  0  0  0  0
   56.2710   30.3450   42.2480 N   0  0  0  0  0  0  0  0  0  0  0  0
   56.7890   30.2550   43.4310 C   0  0  0  0  0  0  0  0  0  0  0  0
   57.3060   31.3590   44.0320 N   0  0  0  0  0  0  0  0  0  0  0  0
   57.8650   31.3030   45.2700 C   0  0  0  0  0  0  0  0  0  0  0  0
   58.4100   32.5440   45.8800 C   0  0  0  0  0  0  0  0  0  0  0  0
   58.7150   33.6490   45.0640 C   0  0  0  0  0  0  0  0  0  0  0  0
   58.5429   33.5902   43.9791 H   0  0  0  0  0  0  0  0  0  0  0  0
   59.2350   34.8210   45.6210 C   0  0  0  0  0  0  0  0  0  0  0  0
   59.4634   35.6813   44.9747 H   0  0  0  0  0  0  0  0  0  0  0  0
   59.4650   34.9020   46.9950 C   0  0  0  0  0  0  0  0  0  0  0  0
   59.8714   35.8264   47.4313 H   0  0  0  0  0  0  0  0  0  0  0  0
   59.1790   33.8090   47.8160 C   0  0  0  0  0  0  0  0  0  0  0  0
   59.3635   33.8724   48.8986 H   0  0  0  0  0  0  0  0  0  0  0  0
   58.6580   32.6330   47.2640 C   0  0  0  0  0  0  0  0  0  0  0  0
   58.4409   31.7731   47.9147 H   0  0  0  0  0  0  0  0  0  0  0  0
   57.8890   30.0740   45.9470 C   0  0  0  0  0  0  0  0  0  0  0  0
   58.3215   30.0026   46.9559 H   0  0  0  0  0  0  0  0  0  0  0  0
   57.3550   28.9380   45.3220 C   0  0  0  0  0  0  0  0  0  0  0  0
   57.3610   27.6250   46.0150 C   0  0  0  0  0  0  0  0  0  0  0  0
   56.2840   26.7350   45.8600 C   0  0  0  0  0  0  0  0  0  0  0  0
   55.4330   27.0142   45.2214 H   0  0  0  0  0  0  0  0  0  0  0  0
   56.2860   25.4980   46.5110 C   0  0  0  0  0  0  0  0  0  0  0  0
   55.4319   24.8152   46.3911 H   0  0  0  0  0  0  0  0  0  0  0  0
   57.3710   25.1230   47.3160 C   0  0  0  0  0  0  0  0  0  0  0  0
   57.3560   23.8120   48.0440 C   0  0  0  0  0  0  0  0  0  0  0  0
   57.3581   23.9949   49.1287 H   0  0  0  0  0  0  0  0  0  0  0  0
   56.4514   23.2500   47.7687 H   0  0  0  0  0  0  0  0  0  0  0  0
   58.2475   23.2295   47.7687 H   0  0  0  0  0  0  0  0  0  0  0  0
   58.4410   26.0150   47.4880 C   0  0  0  0  0  0  0  0  0  0  0  0
   59.2852   25.7385   48.1367 H   0  0  0  0  0  0  0  0  0  0  0  0
   58.4390   27.2530   46.8390 C   0  0  0  0  0  0  0  0  0  0  0  0
   59.2864   27.9414   46.9735 H   0  0  0  0  0  0  0  0  0  0  0  0
   56.8170   29.0550   44.0730 N   0  0  0  0  0  0  0  0  0  0  0  0
   56.4330   28.2130   43.5880 H   0  0  0  0  0  0  0  0  0  0  0  0
  1  2  1  0
  2  3  2  0
  3  4  1  0
  4  5  2  0
  5  6  1  0
  6  7  2  0
  7  8  1  0
  7  9  1  0
  9 10  1  0
  9 11  2  0
 11 12  1  0
 11 13  1  0
 13 14  1  0
 13 15  2  0
 15 16  1  0
  5 17  1  0
 17 18  1  0
 17 19  2  0
 19 20  1  0
 20 21  2  0
 21 22  1  0
 21 23  1  0
 23 24  1  0
 23 25  2  0
 25 26  1  0
 26 27  1  0
 26 28  1  0
 26 29  1  0
 25 30  1  0
 30 31  1  0
 30 32  2  0
 32 33  1  0
 19 34  1  0
 34 35  1  0
 34  3  1  0
 15  6  1  0
 32 20  1  0
M  END
>  <UniqueID>  (94) 
80

>  <SMILES>  (94) 
[H]/N=c1\nc(-c2ccccc2)cc(-c2ccc(C)cc2)[nH]1

>  <Energy>  (94) 
46.07422821356954

>  <Genealogy>  (94) 
[H]/N=c1\nc(-c2ccccc2)cc(-c2ccc(C)cc2)[nH]1 (cis-trans isomerization)
[H]/N=c1\nc(-c2ccccc2)cc(-c2ccc(C)cc2)[nH]1 (3D coordinates assigned)
[H]/N=c1\nc(-c2ccccc2)cc(-c2ccc(C)cc2)[nH]1 (optimized conformer: 46.07422821356954 kcal/mol)

>  <smiles>  (94) 
Cc1ccc(-c2cc(-c3ccccc3)nc(=N)[nH]2)cc1

>  <score_type>  (94) 
oracle

>  <origin>  (94) 
adg

>  <m_score__min__energy>  (94) 
-7.2599999999999998

>  <m_primary>  (94) 
energy

$$$$
94:0
     RDKit          3D

 40 42  0  0  0  0  0  0  0  0999 V2000
   55.7880   30.0650   44.8280 O   0  0  0  0  0  0  0  0  0  0  0  0
   56.8440   30.4560   44.2650 C   0  0  0  0  0  0  0  0  0  0  0  0
   57.0480   31.8630   44.0890 N   0  0  0  0  0  0  0  0  0  0  0  0
   57.7680   32.7250   44.9790 C   0  0  0  0  0  0  0  0  0  0  0  0
   58.5320   33.8050   44.5010 C   0  0  0  0  0  0  0  0  0  0  0  0
   59.2520   34.6070   45.3930 C   0  0  0  0  0  0  0  0  0  0  0  0
   59.2280   34.3270   46.7620 C   0  0  0  0  0  0  0  0  0  0  0  0
   59.9280   35.1040   47.6250 F   0  0  0  0  0  0  0  0  0  0  0  0
   58.4920   33.2400   47.2400 C   0  0  0  0  0  0  0  0  0  0  0  0
   57.7720   32.4360   46.3490 C   0  0  0  0  0  0  0  0  0  0  0  0
   57.8100   29.5050   43.7820 N   0  0  0  0  0  0  0  0  0  0  0  0
   57.6930   28.0820   43.9470 C   0  0  0  0  0  0  0  0  0  0  0  0
   57.8600   27.2010   42.8640 C   0  0  0  0  0  0  0  0  0  0  0  0
   57.7670   25.8190   43.0590 C   0  0  0  0  0  0  0  0  0  0  0  0
   57.5160   25.3020   44.3360 C   0  0  0  0  0  0  0  0  0  0  0  0
   57.4270   23.5620   44.5840 S   0  0  0  0  0  0  0  0  0  0  0  0
   56.9660   22.8880   43.3210 O   0  0  0  0  0  0  0  0  0  0  0  0
   58.7860   23.0240   44.9310 O   0  0  0  0  0  0  0  0  0  0  0  0
   56.2980   23.2250   45.8900 C   0  0  0  0  0  0  0  0  0  0  0  0
   56.7650   23.0590   47.2010 C   0  0  0  0  0  0  0  0  0  0  0  0
   55.8650   22.8120   48.2420 C   0  0  0  0  0  0  0  0  0  0  0  0
   54.4930   22.7350   47.9780 C   0  0  0  0  0  0  0  0  0  0  0  0
   54.0220   22.9080   46.6740 C   0  0  0  0  0  0  0  0  0  0  0  0
   54.9200   23.1560   45.6310 C   0  0  0  0  0  0  0  0  0  0  0  0
   57.3850   26.1760   45.4230 C   0  0  0  0  0  0  0  0  0  0  0  0
   57.4780   27.5560   45.2300 C   0  0  0  0  0  0  0  0  0  0  0  0
   58.5634   34.0196   43.4226 H   0  0  0  0  0  0  0  0  0  0  0  0
   59.8375   35.4587   45.0165 H   0  0  0  0  0  0  0  0  0  0  0  0
   58.4784   33.0160   48.3169 H   0  0  0  0  0  0  0  0  0  0  0  0
   57.2059   31.5720   46.7272 H   0  0  0  0  0  0  0  0  0  0  0  0
   58.6870   29.8640   43.3420 H   0  0  0  0  0  0  0  0  0  0  0  0
   58.0646   27.6001   41.8596 H   0  0  0  0  0  0  0  0  0  0  0  0
   57.8915   25.1357   42.2060 H   0  0  0  0  0  0  0  0  0  0  0  0
   57.8428   23.1232   47.4115 H   0  0  0  0  0  0  0  0  0  0  0  0
   56.2356   22.6781   49.2690 H   0  0  0  0  0  0  0  0  0  0  0  0
   53.7854   22.5383   48.7969 H   0  0  0  0  0  0  0  0  0  0  0  0
   52.9432   22.8490   46.4674 H   0  0  0  0  0  0  0  0  0  0  0  0
   54.5460   23.2972   44.6062 H   0  0  0  0  0  0  0  0  0  0  0  0
   57.2083   25.7741   46.4316 H   0  0  0  0  0  0  0  0  0  0  0  0
   57.3820   28.2354   46.0898 H   0  0  0  0  0  0  0  0  0  0  0  0
  1  2  2  0
  2  3  1  0
  3  4  1  0
  4  5  2  0
  5  6  1  0
  6  7  2  0
  7  8  1  0
  7  9  1  0
  9 10  2  0
  2 11  1  0
 11 12  1  0
 12 13  2  0
 13 14  1  0
 14 15  2  0
 15 16  1  0
 16 17  2  0
 16 18  2  0
 16 19  1  0
 19 20  2  0
 20 21  1  0
 21 22  2  0
 22 23  1  0
 23 24  2  0
 15 25  1  0
 25 26  2  0
 10  4  1  0
 26 12  1  0
 24 19  1  0
  5 27  1  0
  6 28  1  0
  9 29  1  0
 10 30  1  0
 11 31  1  0
 13 32  1  0
 14 33  1  0
 20 34  1  0
 21 35  1  0
 22 36  1  0
 23 37  1  0
 24 38  1  0
 25 39  1  0
 26 40  1  0
M  CHG  1   3  -1
M  END
>  <UniqueID>  (95) 
81

>  <SMILES>  (95) 
O=C([N-]c1ccc(F)cc1)Nc1ccc(S(=O)(=O)c2ccccc2)cc1

>  <Energy>  (95) 
53.143891510180275

>  <Genealogy>  (95) 
O=C([N-]c1ccc(F)cc1)Nc1ccc(S(=O)(=O)c2ccccc2)cc1 (protonated)
O=C([N-]c1ccc(F)cc1)Nc1ccc(S(=O)(=O)c2ccccc2)cc1 (3D coordinates assigned)
O=C([N-]c1ccc(F)cc1)Nc1ccc(S(=O)(=O)c2ccccc2)cc1 (optimized conformer: 53.143891510180275 kcal/mol)

>  <smiles>  (95) 
O=C(Nc1ccc(F)cc1)Nc1ccc(S(=O)(=O)c2ccccc2)cc1

>  <score_type>  (95) 
oracle

>  <origin>  (95) 
adg

>  <m_score__min__energy>  (95) 
-10.289999999999999

>  <m_primary>  (95) 
energy

$$$$
95:0
     RDKit          3D

 43 45  0  0  0  0  0  0  0  0999 V2000
   55.9403   30.6653   42.2662 H   0  0  0  0  0  0  0  0  0  0  0  0
   56.6450   30.8000   43.1000 C   0  0  0  0  0  0  0  0  0  0  0  0
   56.6860   29.7360   44.1210 C   0  0  0  0  0  0  0  0  0  0  0  0
   55.7450   29.6820   44.9670 O   0  0  0  0  0  0  0  0  0  0  0  0
   57.6990   28.7160   44.1160 N   0  0  0  0  0  0  0  0  0  0  0  0
   58.2110   28.5290   43.2230 H   0  0  0  0  0  0  0  0  0  0  0  0
   58.1050   28.0040   45.3020 C   0  0  0  0  0  0  0  0  0  0  0  0
   59.4430   28.0660   45.7340 C   0  0  0  0  0  0  0  0  0  0  0  0
   60.1588   28.7090   45.2009 H   0  0  0  0  0  0  0  0  0  0  0  0
   59.8700   27.3180   46.8340 C   0  0  0  0  0  0  0  0  0  0  0  0
   60.9151   27.3828   47.1710 H   0  0  0  0  0  0  0  0  0  0  0  0
   58.9720   26.4900   47.5040 C   0  0  0  0  0  0  0  0  0  0  0  0
   59.3110   25.8963   48.3657 H   0  0  0  0  0  0  0  0  0  0  0  0
   57.6420   26.4120   47.0840 C   0  0  0  0  0  0  0  0  0  0  0  0
   56.9394   25.7543   47.6166 H   0  0  0  0  0  0  0  0  0  0  0  0
   57.1950   27.1660   45.9880 C   0  0  0  0  0  0  0  0  0  0  0  0
   55.8100   27.1060   45.6190 N   0  0  0  0  0  0  0  0  0  0  0  0
   55.4350   26.3470   45.0090 H   0  0  0  0  0  0  0  0  0  0  0  0
   55.1510   27.8680   45.8970 H   0  0  0  0  0  0  0  0  0  0  0  0
   57.3890   31.9180   43.0950 C   0  0  0  0  0  0  0  0  0  0  0  0
   57.5523   32.4059   42.1227 H   0  0  0  0  0  0  0  0  0  0  0  0
   58.0090   32.5530   44.2790 C   0  0  0  0  0  0  0  0  0  0  0  0
   58.7580   31.7560   45.1620 C   0  0  0  0  0  0  0  0  0  0  0  0
   58.8721   30.6801   44.9634 H   0  0  0  0  0  0  0  0  0  0  0  0
   59.3570   32.3190   46.2870 C   0  0  0  0  0  0  0  0  0  0  0  0
   59.9486   31.6873   46.9660 H   0  0  0  0  0  0  0  0  0  0  0  0
   59.2100   33.6820   46.5570 C   0  0  0  0  0  0  0  0  0  0  0  0
   59.9290   34.3480   48.0610 S   0  0  0  0  0  0  0  0  0  0  0  0
   60.2640   32.7280   48.7630 C   0  0  0  0  0  0  0  0  0  0  0  0
   59.2790   32.0840   49.5270 C   0  0  0  0  0  0  0  0  0  0  0  0
   58.3033   32.5672   49.6834 H   0  0  0  0  0  0  0  0  0  0  0  0
   59.5340   30.8300   50.0900 C   0  0  0  0  0  0  0  0  0  0  0  0
   58.7540   30.3202   50.6746 H   0  0  0  0  0  0  0  0  0  0  0  0
   60.7840   30.2230   49.9090 C   0  0  0  0  0  0  0  0  0  0  0  0
   61.1230   28.6660   50.6430 Cl  0  0  0  0  0  0  0  0  0  0  0  0
   61.7670   30.8620   49.1500 C   0  0  0  0  0  0  0  0  0  0  0  0
   62.7446   30.3794   49.0039 H   0  0  0  0  0  0  0  0  0  0  0  0
   61.5160   32.1110   48.5750 C   0  0  0  0  0  0  0  0  0  0  0  0
   62.8000   32.8940   47.6590 Cl  0  0  0  0  0  0  0  0  0  0  0  0
   58.4960   34.4980   45.6630 C   0  0  0  0  0  0  0  0  0  0  0  0
   58.3789   35.5720   45.8699 H   0  0  0  0  0  0  0  0  0  0  0  0
   57.9340   33.9400   44.5080 C   0  0  0  0  0  0  0  0  0  0  0  0
   57.4313   34.5890   43.7758 H   0  0  0  0  0  0  0  0  0  0  0  0
  1  2  1  0
  2  3  1  0
  3  4  2  0
  3  5  1  0
  5  6  1  0
  5  7  1  0
  7  8  2  0
  8  9  1  0
  8 10  1  0
 10 11  1  0
 10 12  2  0
 12 13  1  0
 12 14  1  0
 14 15  1  0
 14 16  2  0
 16 17  1  0
 17 18  1  0
 17 19  1  0
  2 20  2  0
 20 21  1  0
 20 22  1  0
 22 23  2  0
 23 24  1  0
 23 25  1  0
 25 26  1  0
 25 27  2  0
 27 28  1  0
 28 29  1  0
 29 30  2  0
 30 31  1  0
 30 32  1  0
 32 33  1  0
 32 34  2  0
 34 35  1  0
 34 36  1  0
 36 37  1  0
 36 38  2  0
 38 39  1  0
 27 40  1  0
 40 41  1  0
 40 42  2  0
 42 43  1  0
 16  7  1  0
 42 22  1  0
 38 29  1  0
M  END
>  <UniqueID>  (96) 
82

>  <SMILES>  (96) 
Nc1ccccc1NC(=O)/C=C\c1ccc(Sc2ccc(Cl)cc2Cl)cc1

>  <Energy>  (96) 
55.81525789859471

>  <Genealogy>  (96) 
Nc1ccccc1NC(=O)/C=C\c1ccc(Sc2ccc(Cl)cc2Cl)cc1 (cis-trans isomerization)
Nc1ccccc1NC(=O)/C=C\c1ccc(Sc2ccc(Cl)cc2Cl)cc1 (3D coordinates assigned)
Nc1ccccc1NC(=O)/C=C\c1ccc(Sc2ccc(Cl)cc2Cl)cc1 (optimized conformer: 55.81525789859471 kcal/mol)

>  <smiles>  (96) 
Nc1ccccc1NC(=O)C=Cc1ccc(Sc2ccc(Cl)cc2Cl)cc1

>  <score_type>  (96) 
oracle

>  <origin>  (96) 
adg

>  <m_score__min__energy>  (96) 
-10.289999999999999

>  <m_primary>  (96) 
energy

$$$$
