0:0
     RDKit          3D

 32 33  0  0  0  0  0  0  0  0999 V2000
   60.7620   26.6670   46.7520 C   0  0  0  0  0  0  0  0  0  0  0  0
   59.2720   26.7120   46.5810 C   0  0  0  0  0  0  0  0  0  0  0  0
   58.6670   27.7970   45.9430 C   0  0  0  0  0  0  0  0  0  0  0  0
   57.2740   27.8200   45.7600 C   0  0  0  0  0  0  0  0  0  0  0  0
   56.6630   29.0150   45.0630 C   0  0  0  0  0  0  0  0  0  0  0  0
   57.7220   29.7710   44.2540 C   0  0  0  0  0  0  0  0  0  0  0  0
   57.9140   31.1600   44.8030 C   0  0  0  0  0  0  0  0  0  0  0  0
   57.7380   32.2790   43.9730 C   0  0  0  0  0  0  0  0  0  0  0  0
   57.8830   33.5690   44.4910 C   0  0  0  0  0  0  0  0  0  0  0  0
   58.1950   33.7520   45.8420 C   0  0  0  0  0  0  0  0  0  0  0  0
   58.3580   32.6420   46.6770 C   0  0  0  0  0  0  0  0  0  0  0  0
   58.2130   31.3500   46.1620 C   0  0  0  0  0  0  0  0  0  0  0  0
   56.5150   26.7470   46.1750 N   0  0  0  0  0  0  0  0  0  0  0  0
   55.1450   26.7000   45.9820 O   0  0  0  0  0  0  0  0  0  0  0  0
   57.1010   25.6750   46.7860 C   0  0  0  0  0  0  0  0  0  0  0  0
   56.3970   24.7000   47.1640 O   0  0  0  0  0  0  0  0  0  0  0  0
   58.4810   25.6390   46.9950 C   0  0  0  0  0  0  0  0  0  0  0  0
   61.0080   26.6596   47.8241 H   0  0  0  0  0  0  0  0  0  0  0  0
   61.1581   25.7565   46.2786 H   0  0  0  0  0  0  0  0  0  0  0  0
   61.2123   27.5520   46.2786 H   0  0  0  0  0  0  0  0  0  0  0  0
   59.2820   28.6350   45.5831 H   0  0  0  0  0  0  0  0  0  0  0  0
   55.8688   28.6700   44.3846 H   0  0  0  0  0  0  0  0  0  0  0  0
   56.2482   29.6934   45.8231 H   0  0  0  0  0  0  0  0  0  0  0  0
   58.6758   29.2257   44.3077 H   0  0  0  0  0  0  0  0  0  0  0  0
   57.3853   29.8451   43.2094 H   0  0  0  0  0  0  0  0  0  0  0  0
   57.4852   32.1398   42.9115 H   0  0  0  0  0  0  0  0  0  0  0  0
   57.7515   34.4420   43.8348 H   0  0  0  0  0  0  0  0  0  0  0  0
   58.3121   34.7679   46.2474 H   0  0  0  0  0  0  0  0  0  0  0  0
   58.6006   32.7854   47.7403 H   0  0  0  0  0  0  0  0  0  0  0  0
   58.3335   30.4795   46.8236 H   0  0  0  0  0  0  0  0  0  0  0  0
   54.5500   25.9840   46.3760 H   0  0  0  0  0  0  0  0  0  0  0  0
   58.9430   24.7686   47.4839 H   0  0  0  0  0  0  0  0  0  0  0  0
  1  2  1  0
  2  3  1  0
  3  4  2  0
  4  5  1  0
  5  6  1  0
  6  7  1  0
  7  8  2  0
  8  9  1  0
  9 10  2  0
 10 11  1  0
 11 12  2  0
  4 13  1  0
 13 14  1  0
 13 15  1  0
 15 16  2  0
 15 17  1  0
 17  2  2  0
 12  7  1  0
  1 18  1  0
  1 19  1  0
  1 20  1  0
  3 21  1  0
  5 22  1  0
  5 23  1  0
  6 24  1  0
  6 25  1  0
  8 26  1  0
  9 27  1  0
 10 28  1  0
 11 29  1  0
 12 30  1  0
 14 31  1  0
 17 32  1  0
M  END
>  <UniqueID>  (1) 
1

>  <SMILES>  (1) 
Cc1cc(CCc2ccccc2)n(O)c(=O)c1

>  <Energy>  (1) 
31.94303965391058

>  <Genealogy>  (1) 
Cc1cc(CCc2ccccc2)n(O)c(=O)c1 (3D coordinates assigned)
Cc1cc(CCc2ccccc2)n(O)c(=O)c1 (optimized conformer: 31.94303965391058 kcal/mol)

>  <smiles>  (1) 
Cc1cc(CCc2ccccc2)n(O)c(=O)c1

>  <score_type>  (1) 
oracle

>  <origin>  (1) 
adg

>  <m_score__min__energy>  (1) 
-8.1199999999999992

>  <m_primary>  (1) 
energy

$$$$
1:0
     RDKit          3D

 39 41  0  0  0  0  0  0  0  0999 V2000
   59.3128   35.3551   46.3767 H   0  0  0  0  0  0  0  0  0  0  0  0
   58.8740   34.3880   46.0900 C   0  0  0  0  0  0  0  0  0  0  0  0
   57.3440   34.1560   45.4320 S   0  0  0  0  0  0  0  0  0  0  0  0
   57.5270   32.4830   45.3250 C   0  0  0  0  0  0  0  0  0  0  0  0
   56.6540   31.6320   44.8700 N   0  0  0  0  0  0  0  0  0  0  0  0
   56.9020   30.4300   44.1190 C   0  0  0  0  0  0  0  0  0  0  0  0
   56.4090   30.2770   42.9680 O   0  0  0  0  0  0  0  0  0  0  0  0
   57.7420   29.3580   44.7050 C   0  0  0  0  0  0  0  0  0  0  0  0
   59.1370   29.3690   44.5270 C   0  0  0  0  0  0  0  0  0  0  0  0
   59.6084   30.1804   43.9530 H   0  0  0  0  0  0  0  0  0  0  0  0
   59.9270   28.3570   45.0740 C   0  0  0  0  0  0  0  0  0  0  0  0
   61.0169   28.3729   44.9259 H   0  0  0  0  0  0  0  0  0  0  0  0
   59.3410   27.3250   45.8080 C   0  0  0  0  0  0  0  0  0  0  0  0
   59.9717   26.5307   46.2337 H   0  0  0  0  0  0  0  0  0  0  0  0
   57.9490   27.2940   46.0070 C   0  0  0  0  0  0  0  0  0  0  0  0
   57.3070   26.2440   46.7540 N   0  0  0  0  0  0  0  0  0  0  0  0
   57.6990   25.9760   47.6840 H   0  0  0  0  0  0  0  0  0  0  0  0
   55.9700   25.3000   46.1750 S   0  0  0  0  0  0  0  0  0  0  0  0
   55.6440   24.2460   47.1960 O   0  0  0  0  0  0  0  0  0  0  0  0
   54.7630   26.1750   45.9860 O   0  0  0  0  0  0  0  0  0  0  0  0
   56.4000   24.4920   44.6490 C   0  0  0  0  0  0  0  0  0  0  0  0
   56.9064   23.5404   44.8680 H   0  0  0  0  0  0  0  0  0  0  0  0
   55.4868   24.2961   44.0678 H   0  0  0  0  0  0  0  0  0  0  0  0
   57.0726   25.1400   44.0678 H   0  0  0  0  0  0  0  0  0  0  0  0
   57.1600   28.3130   45.4470 C   0  0  0  0  0  0  0  0  0  0  0  0
   56.0696   28.2937   45.5908 H   0  0  0  0  0  0  0  0  0  0  0  0
   58.7350   32.0910   45.7790 N   0  0  0  0  0  0  0  0  0  0  0  0
   59.4930   33.1380   46.2100 C   0  0  0  0  0  0  0  0  0  0  0  0
   60.8650   32.9290   46.7450 C   0  0  0  0  0  0  0  0  0  0  0  0
   61.8710   33.8800   46.4820 C   0  0  0  0  0  0  0  0  0  0  0  0
   61.6349   34.7718   45.8829 H   0  0  0  0  0  0  0  0  0  0  0  0
   63.1670   33.7000   46.9760 C   0  0  0  0  0  0  0  0  0  0  0  0
   63.9431   34.4508   46.7666 H   0  0  0  0  0  0  0  0  0  0  0  0
   63.4780   32.5700   47.7340 C   0  0  0  0  0  0  0  0  0  0  0  0
   64.4973   32.4320   48.1238 H   0  0  0  0  0  0  0  0  0  0  0  0
   62.4940   31.6150   47.9970 C   0  0  0  0  0  0  0  0  0  0  0  0
   62.7408   30.7229   48.5914 H   0  0  0  0  0  0  0  0  0  0  0  0
   61.1950   31.7890   47.5070 C   0  0  0  0  0  0  0  0  0  0  0  0
   60.4258   31.0314   47.7176 H   0  0  0  0  0  0  0  0  0  0  0  0
  1  2  1  0
  2  3  1  0
  3  4  1  0
  4  5  2  0
  5  6  1  0
  6  7  2  0
  6  8  1  0
  8  9  2  0
  9 10  1  0
  9 11  1  0
 11 12  1  0
 11 13  2  0
 13 14  1  0
 13 15  1  0
 15 16  1  0
 16 17  1  0
 16 18  1  0
 18 19  2  0
 18 20  2  0
 18 21  1  0
 21 22  1  0
 21 23  1  0
 21 24  1  0
 15 25  2  0
 25 26  1  0
  4 27  1  0
 27 28  1  0
 28 29  1  0
 29 30  2  0
 30 31  1  0
 30 32  1  0
 32 33  1  0
 32 34  2  0
 34 35  1  0
 34 36  1  0
 36 37  1  0
 36 38  2  0
 38 39  1  0
 28  2  2  0
 38 29  1  0
 25  8  1  0
M  CHG  1  27  -1
M  END
>  <UniqueID>  (2) 
2

>  <SMILES>  (2) 
CS(=O)(=O)Nc1cccc(C(=O)/N=c2/[n-]c(-c3ccccc3)cs2)c1

>  <Energy>  (2) 
77.25554086389086

>  <Genealogy>  (2) 
CS(=O)(=O)Nc1cccc(C(=O)N=c2[n-]c(-c3ccccc3)cs2)c1 (protonated)
CS(=O)(=O)Nc1cccc(C(=O)/N=c2/[n-]c(-c3ccccc3)cs2)c1 (cis-trans isomerization)
CS(=O)(=O)Nc1cccc(C(=O)/N=c2/[n-]c(-c3ccccc3)cs2)c1 (3D coordinates assigned)
CS(=O)(=O)Nc1cccc(C(=O)/N=c2/[n-]c(-c3ccccc3)cs2)c1 (optimized conformer: 77.25554086389086 kcal/mol)

>  <smiles>  (2) 
CS(=O)(=O)Nc1cccc(C(=O)N=c2[nH]c(-c3ccccc3)cs2)c1

>  <score_type>  (2) 
oracle

>  <origin>  (2) 
adg

>  <m_score__min__energy>  (2) 
-10.619999999999999

>  <m_primary>  (2) 
energy

$$$$
2:0
     RDKit          3D

 61 63  0  0  0  0  0  0  0  0999 V2000
   59.8650   30.1190   51.2530 C   0  0  0  0  0  0  0  0  0  0  0  0
   59.8320   30.7810   49.9930 O   0  0  0  0  0  0  0  0  0  0  0  0
   59.9020   30.1340   48.7470 C   0  0  0  0  0  0  0  0  0  0  0  0
   58.9610   29.1640   48.3600 C   0  0  0  0  0  0  0  0  0  0  0  0
   59.0470   28.5220   47.1130 C   0  0  0  0  0  0  0  0  0  0  0  0
   58.0790   27.5140   46.7690 N   0  0  0  0  0  0  0  0  0  0  0  0
   58.2420   26.0950   47.0900 C   0  0  0  0  0  0  0  0  0  0  0  0
   59.0470   25.3550   46.0140 C   0  0  0  0  0  0  0  0  0  0  0  0
   58.2030   24.3610   45.2570 C   0  0  0  0  0  0  0  0  0  0  0  0
   57.3430   24.7940   44.2350 C   0  0  0  0  0  0  0  0  0  0  0  0
   56.5840   23.8720   43.5130 C   0  0  0  0  0  0  0  0  0  0  0  0
   56.6720   22.5070   43.8070 C   0  0  0  0  0  0  0  0  0  0  0  0
   55.9160   21.5950   43.0820 O   0  0  0  0  0  0  0  0  0  0  0  0
   57.5200   22.0620   44.8290 C   0  0  0  0  0  0  0  0  0  0  0  0
   57.6040   20.7000   45.1160 O   0  0  0  0  0  0  0  0  0  0  0  0
   58.2820   22.9900   45.5530 C   0  0  0  0  0  0  0  0  0  0  0  0
   60.0950   28.8730   46.2230 C   0  0  0  0  0  0  0  0  0  0  0  0
   60.2970   28.1780   44.8890 C   0  0  0  0  0  0  0  0  0  0  0  0
   58.9900   27.9730   44.1040 C   0  0  0  0  0  0  0  0  0  0  0  0
   58.0360   29.1410   44.1610 C   0  0  0  0  0  0  0  0  0  0  0  0
   56.8190   28.9520   44.4260 O   0  0  0  0  0  0  0  0  0  0  0  0
   58.4620   30.4710   43.8470 N   0  0  0  0  0  0  0  0  0  0  0  0
   57.4950   31.8930   44.0650 S   0  0  0  0  0  0  0  0  0  0  0  0
   57.4000   32.6280   42.7570 O   0  0  0  0  0  0  0  0  0  0  0  0
   56.1130   31.4900   44.4950 O   0  0  0  0  0  0  0  0  0  0  0  0
   58.2030   32.9210   45.3070 C   0  0  0  0  0  0  0  0  0  0  0  0
   58.0750   32.5870   46.6650 C   0  0  0  0  0  0  0  0  0  0  0  0
   58.6200   33.4200   47.6440 C   0  0  0  0  0  0  0  0  0  0  0  0
   59.2970   34.5850   47.2730 C   0  0  0  0  0  0  0  0  0  0  0  0
   59.4300   34.9180   45.9210 C   0  0  0  0  0  0  0  0  0  0  0  0
   58.8860   34.0880   44.9390 C   0  0  0  0  0  0  0  0  0  0  0  0
   61.0390   29.8340   46.6230 C   0  0  0  0  0  0  0  0  0  0  0  0
   60.9470   30.4650   47.8720 C   0  0  0  0  0  0  0  0  0  0  0  0
   62.1550   31.6600   48.3530 S   0  0  0  0  0  0  0  0  0  0  0  0
   62.7530   31.2710   49.9270 N   0  0  0  0  0  0  0  0  0  0  0  0
   63.2880   31.6450   47.3690 O   0  0  0  0  0  0  0  0  0  0  0  0
   61.5560   33.0380   48.3810 O   0  0  0  0  0  0  0  0  0  0  0  0
   59.8278   30.8652   52.0603 H   0  0  0  0  0  0  0  0  0  0  0  0
   58.9993   29.4454   51.3361 H   0  0  0  0  0  0  0  0  0  0  0  0
   60.7934   29.5349   51.3361 H   0  0  0  0  0  0  0  0  0  0  0  0
   58.1420   28.9026   49.0462 H   0  0  0  0  0  0  0  0  0  0  0  0
   57.2240   27.7810   46.2330 H   0  0  0  0  0  0  0  0  0  0  0  0
   58.7679   26.0059   48.0520 H   0  0  0  0  0  0  0  0  0  0  0  0
   57.2420   25.6396   47.1417 H   0  0  0  0  0  0  0  0  0  0  0  0
   59.4503   26.0916   45.3035 H   0  0  0  0  0  0  0  0  0  0  0  0
   59.8540   24.8011   46.5160 H   0  0  0  0  0  0  0  0  0  0  0  0
   57.2671   25.8664   44.0021 H   0  0  0  0  0  0  0  0  0  0  0  0
   55.9154   24.2190   42.7114 H   0  0  0  0  0  0  0  0  0  0  0  0
   57.4090   19.9970   44.4110 H   0  0  0  0  0  0  0  0  0  0  0  0
   58.9460   22.6422   46.3581 H   0  0  0  0  0  0  0  0  0  0  0  0
   60.9791   28.7874   44.2779 H   0  0  0  0  0  0  0  0  0  0  0  0
   60.7088   27.1803   45.1012 H   0  0  0  0  0  0  0  0  0  0  0  0
   59.2472   27.7906   43.0502 H   0  0  0  0  0  0  0  0  0  0  0  0
   58.4728   27.1234   44.5738 H   0  0  0  0  0  0  0  0  0  0  0  0
   57.5450   31.6686   46.9576 H   0  0  0  0  0  0  0  0  0  0  0  0
   58.5165   33.1593   48.7076 H   0  0  0  0  0  0  0  0  0  0  0  0
   59.7257   35.2408   48.0451 H   0  0  0  0  0  0  0  0  0  0  0  0
   59.9639   35.8350   45.6311 H   0  0  0  0  0  0  0  0  0  0  0  0
   58.9935   34.3502   43.8761 H   0  0  0  0  0  0  0  0  0  0  0  0
   61.8644   30.0958   45.9447 H   0  0  0  0  0  0  0  0  0  0  0  0
   61.9290   31.0020   50.5080 H   0  0  0  0  0  0  0  0  0  0  0  0
  1  2  1  0
  2  3  1  0
  3  4  2  0
  4  5  1  0
  5  6  1  0
  6  7  1  0
  7  8  1  0
  8  9  1  0
  9 10  2  0
 10 11  1  0
 11 12  2  0
 12 13  1  0
 12 14  1  0
 14 15  1  0
 14 16  2  0
  5 17  2  0
 17 18  1  0
 18 19  1  0
 19 20  1  0
 20 21  2  0
 20 22  1  0
 22 23  1  0
 23 24  2  0
 23 25  2  0
 23 26  1  0
 26 27  2  0
 27 28  1  0
 28 29  2  0
 29 30  1  0
 30 31  2  0
 17 32  1  0
 32 33  2  0
 33 34  1  0
 34 35  1  0
 34 36  2  0
 34 37  2  0
 33  3  1  0
 16  9  1  0
 31 26  1  0
  1 38  1  0
  1 39  1  0
  1 40  1  0
  4 41  1  0
  6 42  1  0
  7 43  1  0
  7 44  1  0
  8 45  1  0
  8 46  1  0
 10 47  1  0
 11 48  1  0
 15 49  1  0
 16 50  1  0
 18 51  1  0
 18 52  1  0
 19 53  1  0
 19 54  1  0
 27 55  1  0
 28 56  1  0
 29 57  1  0
 30 58  1  0
 31 59  1  0
 32 60  1  0
 35 61  1  0
M  CHG  3  13  -1  22  -1  35  -1
M  END
>  <UniqueID>  (3) 
3

>  <SMILES>  (3) 
COc1cc(NCCc2ccc([O-])c(O)c2)c(CCC(=O)[N-]S(=O)(=O)c2ccccc2)cc1S([NH-])(=O)=O

>  <Energy>  (3) 
60.37044912862614

>  <Genealogy>  (3) 
COc1cc(NCCc2ccc([O-])c(O)c2)c(CCC(=O)[N-]S(=O)(=O)c2ccccc2)cc1S([NH-])(=O)=O (protonated)
COc1cc(NCCc2ccc([O-])c(O)c2)c(CCC(=O)[N-]S(=O)(=O)c2ccccc2)cc1S([NH-])(=O)=O (3D coordinates assigned)
COc1cc(NCCc2ccc([O-])c(O)c2)c(CCC(=O)[N-]S(=O)(=O)c2ccccc2)cc1S([NH-])(=O)=O (optimized conformer: 60.37044912862614 kcal/mol)

>  <smiles>  (3) 
COc1cc(NCCc2ccc(O)c(O)c2)c(CCC(=O)NS(=O)(=O)c2ccccc2)cc1S(N)(=O)=O

>  <score_type>  (3) 
oracle

>  <origin>  (3) 
adg

>  <m_score__min__energy>  (3) 
-13.609999999999999

>  <m_primary>  (3) 
energy

$$$$
3:0
     RDKit          3D

 44 46  0  0  0  0  0  0  0  0999 V2000
   55.5140   30.8360   44.0170 O   0  0  0  0  0  0  0  0  0  0  0  0
   56.1570   30.1150   44.8260 C   0  0  0  0  0  0  0  0  0  0  0  0
   57.2120   30.6740   45.6210 N   0  0  0  0  0  0  0  0  0  0  0  0
   57.8000   31.9740   45.4710 C   0  0  0  0  0  0  0  0  0  0  0  0
   58.0570   32.5320   44.2030 C   0  0  0  0  0  0  0  0  0  0  0  0
   58.6080   33.8120   44.0960 C   0  0  0  0  0  0  0  0  0  0  0  0
   58.8940   34.5520   45.2460 C   0  0  0  0  0  0  0  0  0  0  0  0
   58.6200   34.0160   46.5060 C   0  0  0  0  0  0  0  0  0  0  0  0
   58.0690   32.7340   46.6200 C   0  0  0  0  0  0  0  0  0  0  0  0
   57.7930   32.2160   47.8810 O   0  0  0  0  0  0  0  0  0  0  0  0
   55.8940   28.7090   44.8630 N   0  0  0  0  0  0  0  0  0  0  0  0
   56.6050   27.7610   45.6700 C   0  0  0  0  0  0  0  0  0  0  0  0
   57.9730   27.9610   45.8940 C   0  0  0  0  0  0  0  0  0  0  0  0
   58.7100   27.0550   46.6700 C   0  0  0  0  0  0  0  0  0  0  0  0
   60.4310   27.3210   46.9580 S   0  0  0  0  0  0  0  0  0  0  0  0
   61.1830   27.1110   45.6730 O   0  0  0  0  0  0  0  0  0  0  0  0
   60.9300   26.3160   47.9580 O   0  0  0  0  0  0  0  0  0  0  0  0
   60.7410   28.9350   47.5490 N   0  0  0  0  0  0  0  0  0  0  0  0
   60.5480   29.9220   46.4740 C   0  0  0  0  0  0  0  0  0  0  0  0
   61.0590   31.3060   46.9190 C   0  0  0  0  0  0  0  0  0  0  0  0
   61.0710   31.4630   48.4480 C   0  0  0  0  0  0  0  0  0  0  0  0
   59.8890   30.7300   49.0880 C   0  0  0  0  0  0  0  0  0  0  0  0
   59.8660   29.2330   48.7030 C   0  0  0  0  0  0  0  0  0  0  0  0
   58.0720   25.9310   47.2110 C   0  0  0  0  0  0  0  0  0  0  0  0
   56.7160   25.7060   46.9630 C   0  0  0  0  0  0  0  0  0  0  0  0
   55.9820   26.6050   46.1830 C   0  0  0  0  0  0  0  0  0  0  0  0
   54.6520   26.3230   45.8980 O   0  0  0  0  0  0  0  0  0  0  0  0
   57.8232   31.9582   43.2941 H   0  0  0  0  0  0  0  0  0  0  0  0
   58.8171   34.2379   43.1036 H   0  0  0  0  0  0  0  0  0  0  0  0
   59.3347   35.5561   45.1590 H   0  0  0  0  0  0  0  0  0  0  0  0
   58.8375   34.6023   47.4109 H   0  0  0  0  0  0  0  0  0  0  0  0
   58.4741   28.8373   45.4570 H   0  0  0  0  0  0  0  0  0  0  0  0
   61.1045   29.5997   45.5816 H   0  0  0  0  0  0  0  0  0  0  0  0
   59.4748   29.9944   46.2438 H   0  0  0  0  0  0  0  0  0  0  0  0
   62.0833   31.4422   46.5420 H   0  0  0  0  0  0  0  0  0  0  0  0
   60.3744   32.0635   46.5097 H   0  0  0  0  0  0  0  0  0  0  0  0
   62.0088   31.0466   48.8443 H   0  0  0  0  0  0  0  0  0  0  0  0
   60.9899   32.5331   48.6894 H   0  0  0  0  0  0  0  0  0  0  0  0
   59.9671   30.8153   50.1819 H   0  0  0  0  0  0  0  0  0  0  0  0
   58.9606   31.1920   48.7210 H   0  0  0  0  0  0  0  0  0  0  0  0
   60.2052   28.6410   49.5658 H   0  0  0  0  0  0  0  0  0  0  0  0
   58.8352   28.9755   48.4180 H   0  0  0  0  0  0  0  0  0  0  0  0
   58.6406   25.2238   47.8328 H   0  0  0  0  0  0  0  0  0  0  0  0
   56.2230   24.8171   47.3834 H   0  0  0  0  0  0  0  0  0  0  0  0
  1  2  2  0
  2  3  1  0
  3  4  1  0
  4  5  2  0
  5  6  1  0
  6  7  2  0
  7  8  1  0
  8  9  2  0
  9 10  1  0
  2 11  1  0
 11 12  1  0
 12 13  2  0
 13 14  1  0
 14 15  1  0
 15 16  2  0
 15 17  2  0
 15 18  1  0
 18 19  1  0
 19 20  1  0
 20 21  1  0
 21 22  1  0
 22 23  1  0
 14 24  2  0
 24 25  1  0
 25 26  2  0
 26 27  1  0
  9  4  1  0
 26 12  1  0
 23 18  1  0
  5 28  1  0
  6 29  1  0
  7 30  1  0
  8 31  1  0
 13 32  1  0
 19 33  1  0
 19 34  1  0
 20 35  1  0
 20 36  1  0
 21 37  1  0
 21 38  1  0
 22 39  1  0
 22 40  1  0
 23 41  1  0
 23 42  1  0
 24 43  1  0
 25 44  1  0
M  CHG  4   3  -1  10  -1  11  -1  27  -1
M  END
>  <UniqueID>  (4) 
4

>  <SMILES>  (4) 
O=C([N-]c1ccccc1[O-])[N-]c1cc(S(=O)(=O)N2CCCCC2)ccc1[O-]

>  <Energy>  (4) 
56.8124590399894

>  <Genealogy>  (4) 
O=C([N-]c1ccccc1[O-])[N-]c1cc(S(=O)(=O)N2CCCCC2)ccc1[O-] (protonated)
O=C([N-]c1ccccc1[O-])[N-]c1cc(S(=O)(=O)N2CCCCC2)ccc1[O-] (3D coordinates assigned)
O=C([N-]c1ccccc1[O-])[N-]c1cc(S(=O)(=O)N2CCCCC2)ccc1[O-] (nonaromatic ring conformer: 56.8124590399894 kcal/mol)

>  <smiles>  (4) 
O=C(Nc1ccccc1O)Nc1cc(S(=O)(=O)N2CCCCC2)ccc1O

>  <score_type>  (4) 
oracle

>  <origin>  (4) 
adg

>  <m_score__min__energy>  (4) 
-17.420000000000002

>  <m_primary>  (4) 
energy

$$$$
4:0
     RDKit          3D

 39 40  0  0  0  0  0  0  0  0999 V2000
   55.4210   29.7070   43.0090 O   0  0  0  0  0  0  0  0  0  0  0  0
   56.0460   29.9880   44.0680 C   0  0  0  0  0  0  0  0  0  0  0  0
   57.0050   31.1440   44.0840 C   0  0  0  0  0  0  0  0  0  0  0  0
   57.6210   31.3430   45.4010 N   0  0  0  0  0  0  0  0  0  0  0  0
   57.7720   33.0330   45.7950 S   0  0  0  0  0  0  0  0  0  0  0  0
   57.7820   33.8570   44.5370 O   0  0  0  0  0  0  0  0  0  0  0  0
   56.5880   33.4500   46.6230 O   0  0  0  0  0  0  0  0  0  0  0  0
   59.2420   33.3230   46.7210 C   0  0  0  0  0  0  0  0  0  0  0  0
   60.4700   33.5170   46.0720 C   0  0  0  0  0  0  0  0  0  0  0  0
   61.6340   33.7270   46.8170 C   0  0  0  0  0  0  0  0  0  0  0  0
   61.5770   33.7440   48.2140 C   0  0  0  0  0  0  0  0  0  0  0  0
   60.3560   33.5470   48.8660 C   0  0  0  0  0  0  0  0  0  0  0  0
   59.1910   33.3350   48.1230 C   0  0  0  0  0  0  0  0  0  0  0  0
   55.8540   29.2040   45.2490 N   0  0  0  0  0  0  0  0  0  0  0  0
   56.6500   28.0200   45.5420 C   0  0  0  0  0  0  0  0  0  0  0  0
   57.8500   27.9300   44.5930 C   0  0  0  0  0  0  0  0  0  0  0  0
   59.1520   27.5390   45.3060 C   0  0  0  0  0  0  0  0  0  0  0  0
   59.5770   28.5630   46.2580 N   0  0  0  0  0  0  0  0  0  0  0  0
   59.1820   28.6940   47.5350 C   0  0  0  0  0  0  0  0  0  0  0  0
   59.7910   29.8160   48.0510 C   0  0  0  0  0  0  0  0  0  0  0  0
   60.5630   30.3880   47.1020 N   0  0  0  0  0  0  0  0  0  0  0  0
   60.4080   29.5950   46.0220 C   0  0  0  0  0  0  0  0  0  0  0  0
   57.7997   30.9537   43.3477 H   0  0  0  0  0  0  0  0  0  0  0  0
   56.4371   32.0537   43.8390 H   0  0  0  0  0  0  0  0  0  0  0  0
   57.0340   30.8870   46.1340 H   0  0  0  0  0  0  0  0  0  0  0  0
   60.5174   33.5039   44.9731 H   0  0  0  0  0  0  0  0  0  0  0  0
   62.5952   33.8789   46.3041 H   0  0  0  0  0  0  0  0  0  0  0  0
   62.4926   33.9123   48.7999 H   0  0  0  0  0  0  0  0  0  0  0  0
   60.3120   33.5588   49.9651 H   0  0  0  0  0  0  0  0  0  0  0  0
   58.2323   33.1772   48.6387 H   0  0  0  0  0  0  0  0  0  0  0  0
   57.0124   28.0753   46.5791 H   0  0  0  0  0  0  0  0  0  0  0  0
   56.0220   27.1272   45.4061 H   0  0  0  0  0  0  0  0  0  0  0  0
   57.6319   27.1752   43.8231 H   0  0  0  0  0  0  0  0  0  0  0  0
   58.0007   28.9292   44.1583 H   0  0  0  0  0  0  0  0  0  0  0  0
   58.9923   26.5944   45.8465 H   0  0  0  0  0  0  0  0  0  0  0  0
   59.9394   27.4306   44.5456 H   0  0  0  0  0  0  0  0  0  0  0  0
   58.4946   28.0244   48.0727 H   0  0  0  0  0  0  0  0  0  0  0  0
   59.6676   30.1891   49.0784 H   0  0  0  0  0  0  0  0  0  0  0  0
   60.9050   29.7719   45.0567 H   0  0  0  0  0  0  0  0  0  0  0  0
  1  2  2  0
  2  3  1  0
  3  4  1  0
  4  5  1  0
  5  6  2  0
  5  7  2  0
  5  8  1  0
  8  9  2  0
  9 10  1  0
 10 11  2  0
 11 12  1  0
 12 13  2  0
  2 14  1  0
 14 15  1  0
 15 16  1  0
 16 17  1  0
 17 18  1  0
 18 19  1  0
 19 20  2  0
 20 21  1  0
 21 22  2  0
 13  8  1  0
 22 18  1  0
  3 23  1  0
  3 24  1  0
  4 25  1  0
  9 26  1  0
 10 27  1  0
 11 28  1  0
 12 29  1  0
 13 30  1  0
 15 31  1  0
 15 32  1  0
 16 33  1  0
 16 34  1  0
 17 35  1  0
 17 36  1  0
 19 37  1  0
 20 38  1  0
 22 39  1  0
M  CHG  1  14  -1
M  END
>  <UniqueID>  (5) 
5

>  <SMILES>  (5) 
O=C(CNS(=O)(=O)c1ccccc1)[N-]CCCn1ccnc1

>  <Energy>  (5) 
57.84487709930266

>  <Genealogy>  (5) 
O=C(CNS(=O)(=O)c1ccccc1)[N-]CCCn1ccnc1 (protonated)
O=C(CNS(=O)(=O)c1ccccc1)[N-]CCCn1ccnc1 (3D coordinates assigned)
O=C(CNS(=O)(=O)c1ccccc1)[N-]CCCn1ccnc1 (optimized conformer: 57.84487709930266 kcal/mol)

>  <smiles>  (5) 
O=C(CNS(=O)(=O)c1ccccc1)NCCCn1ccnc1

>  <score_type>  (5) 
oracle

>  <origin>  (5) 
adg

>  <m_score__min__energy>  (5) 
-9.7100000000000009

>  <m_primary>  (5) 
energy

$$$$
5:0
     RDKit          3D

 25 26  0  0  0  0  0  0  0  0999 V2000
   57.3233   25.0320   48.0256 H   0  0  0  0  0  0  0  0  0  0  0  0
   57.2390   25.3500   46.9760 C   0  0  0  0  0  0  0  0  0  0  0  0
   58.3580   25.7790   46.3720 C   0  0  0  0  0  0  0  0  0  0  0  0
   59.1611   25.0441   46.2144 H   0  0  0  0  0  0  0  0  0  0  0  0
   58.5980   27.1580   45.9020 C   0  0  0  0  0  0  0  0  0  0  0  0
   59.8980   27.6210   45.6390 C   0  0  0  0  0  0  0  0  0  0  0  0
   60.7608   26.9626   45.8181 H   0  0  0  0  0  0  0  0  0  0  0  0
   60.0990   28.9140   45.1510 C   0  0  0  0  0  0  0  0  0  0  0  0
   61.1204   29.2776   44.9653 H   0  0  0  0  0  0  0  0  0  0  0  0
   59.0060   29.7470   44.8980 C   0  0  0  0  0  0  0  0  0  0  0  0
   59.1697   30.7668   44.5195 H   0  0  0  0  0  0  0  0  0  0  0  0
   57.6960   29.2850   45.1260 C   0  0  0  0  0  0  0  0  0  0  0  0
   56.5650   30.0780   44.8770 O   0  0  0  0  0  0  0  0  0  0  0  0
   55.8480   30.0900   43.6470 C   0  0  0  0  0  0  0  0  0  0  0  0
   54.7675   30.1081   43.8526 H   0  0  0  0  0  0  0  0  0  0  0  0
   56.1263   30.9836   43.0691 H   0  0  0  0  0  0  0  0  0  0  0  0
   56.0962   29.1876   43.0691 H   0  0  0  0  0  0  0  0  0  0  0  0
   57.5030   27.9870   45.6170 C   0  0  0  0  0  0  0  0  0  0  0  0
   56.4813   27.6139   45.7808 H   0  0  0  0  0  0  0  0  0  0  0  0
   55.9040   25.2690   46.3500 C   0  0  0  0  0  0  0  0  0  0  0  0
   55.1410   26.3580   46.1220 N   0  0  0  0  0  0  0  0  0  0  0  0
   54.0340   25.8960   45.6270 O   0  0  0  0  0  0  0  0  0  0  0  0
   54.1050   24.5920   45.5650 C   0  0  0  0  0  0  0  0  0  0  0  0
   53.1790   23.8610   45.1300 O   0  0  0  0  0  0  0  0  0  0  0  0
   55.2750   24.1180   46.0240 N   0  0  0  0  0  0  0  0  0  0  0  0
  1  2  1  0
  2  3  2  0
  3  4  1  0
  3  5  1  0
  5  6  2  0
  6  7  1  0
  6  8  1  0
  8  9  1  0
  8 10  2  0
 10 11  1  0
 10 12  1  0
 12 13  1  0
 13 14  1  0
 14 15  1  0
 14 16  1  0
 14 17  1  0
 12 18  2  0
 18 19  1  0
  2 20  1  0
 20 21  2  0
 21 22  1  0
 22 23  1  0
 23 24  2  0
 23 25  1  0
 18  5  1  0
 25 20  1  0
M  CHG  1  25  -1
M  END
>  <UniqueID>  (6) 
6

>  <SMILES>  (6) 
COc1cccc(/C=C\c2noc(=O)[n-]2)c1

>  <Energy>  (6) 
65.9605487651141

>  <Genealogy>  (6) 
COc1cccc(C=Cc2noc(=O)[n-]2)c1 (protonated)
COc1cccc(/C=C\c2noc(=O)[n-]2)c1 (cis-trans isomerization)
COc1cccc(/C=C\c2noc(=O)[n-]2)c1 (3D coordinates assigned)
COc1cccc(/C=C\c2noc(=O)[n-]2)c1 (optimized conformer: 65.9605487651141 kcal/mol)

>  <smiles>  (6) 
COc1cccc(C=Cc2noc(=O)[nH]2)c1

>  <score_type>  (6) 
oracle

>  <origin>  (6) 
adg

>  <m_score__min__energy>  (6) 
-8.4399999999999995

>  <m_primary>  (6) 
energy

$$$$
6:0
     RDKit          3D

 45 47  0  0  0  0  0  0  0  0999 V2000
   59.8800   31.5220   48.3050 C   0  0  0  0  0  0  0  0  0  0  0  0
   61.0520   30.8850   48.8040 O   0  0  0  0  0  0  0  0  0  0  0  0
   62.2270   31.5550   49.1810 C   0  0  0  0  0  0  0  0  0  0  0  0
   62.8240   32.5270   48.3570 C   0  0  0  0  0  0  0  0  0  0  0  0
   64.0200   33.1390   48.7350 C   0  0  0  0  0  0  0  0  0  0  0  0
   64.6500   32.7910   49.9400 C   0  0  0  0  0  0  0  0  0  0  0  0
   65.8900   33.4170   50.3200 N   0  0  0  0  0  0  0  0  0  0  0  0
   65.9100   34.3210   51.1810 O   0  0  0  0  0  0  0  0  0  0  0  0
   67.0760   33.0290   49.7400 O   0  0  0  0  0  0  0  0  0  0  0  0
   64.0490   31.8270   50.7680 C   0  0  0  0  0  0  0  0  0  0  0  0
   62.8360   31.2280   50.4090 C   0  0  0  0  0  0  0  0  0  0  0  0
   62.2810   30.2770   51.2780 O   0  0  0  0  0  0  0  0  0  0  0  0
   60.9330   30.2300   51.6650 C   0  0  0  0  0  0  0  0  0  0  0  0
   60.1530   29.0710   51.5070 C   0  0  0  0  0  0  0  0  0  0  0  0
   58.8120   29.0650   51.8990 C   0  0  0  0  0  0  0  0  0  0  0  0
   58.2230   30.2150   52.4530 C   0  0  0  0  0  0  0  0  0  0  0  0
   56.7970   30.1870   52.8610 C   0  0  0  0  0  0  0  0  0  0  0  0
   56.5170   30.1020   54.0870 O   0  0  0  0  0  0  0  0  0  0  0  0
   55.7400   30.2470   51.8850 N   0  0  0  0  0  0  0  0  0  0  0  0
   54.3450   30.3300   52.2220 C   0  0  0  0  0  0  0  0  0  0  0  0
   53.8010   29.3980   53.1180 C   0  0  0  0  0  0  0  0  0  0  0  0
   52.4450   29.4430   53.4450 C   0  0  0  0  0  0  0  0  0  0  0  0
   51.6130   30.4060   52.8680 C   0  0  0  0  0  0  0  0  0  0  0  0
   52.1320   31.3310   51.9470 C   0  0  0  0  0  0  0  0  0  0  0  0
   51.2440   32.3380   51.3230 C   0  0  0  0  0  0  0  0  0  0  0  0
   50.6610   33.2030   52.0290 O   0  0  0  0  0  0  0  0  0  0  0  0
   51.0410   32.3430   49.9480 O   0  0  0  0  0  0  0  0  0  0  0  0
   53.5000   31.2810   51.6230 C   0  0  0  0  0  0  0  0  0  0  0  0
   59.0010   31.3820   52.5780 C   0  0  0  0  0  0  0  0  0  0  0  0
   60.3420   31.3850   52.1850 C   0  0  0  0  0  0  0  0  0  0  0  0
   59.2590   31.8595   49.1479 H   0  0  0  0  0  0  0  0  0  0  0  0
   60.1668   32.3884   47.6909 H   0  0  0  0  0  0  0  0  0  0  0  0
   59.3090   30.8101   47.6909 H   0  0  0  0  0  0  0  0  0  0  0  0
   62.3443   32.8067   47.4075 H   0  0  0  0  0  0  0  0  0  0  0  0
   64.4727   33.9005   48.0830 H   0  0  0  0  0  0  0  0  0  0  0  0
   64.5384   31.5397   51.7103 H   0  0  0  0  0  0  0  0  0  0  0  0
   60.6006   28.1648   51.0728 H   0  0  0  0  0  0  0  0  0  0  0  0
   58.2115   28.1520   51.7730 H   0  0  0  0  0  0  0  0  0  0  0  0
   55.9760   30.1780   50.8700 H   0  0  0  0  0  0  0  0  0  0  0  0
   54.4465   28.6277   53.5652 H   0  0  0  0  0  0  0  0  0  0  0  0
   52.0295   28.7175   54.1598 H   0  0  0  0  0  0  0  0  0  0  0  0
   50.5467   30.4399   53.1362 H   0  0  0  0  0  0  0  0  0  0  0  0
   53.9130   31.9932   50.8935 H   0  0  0  0  0  0  0  0  0  0  0  0
   58.5500   32.2977   52.9879 H   0  0  0  0  0  0  0  0  0  0  0  0
   60.9376   32.3043   52.2857 H   0  0  0  0  0  0  0  0  0  0  0  0
  1  2  1  0
  2  3  1  0
  3  4  2  0
  4  5  1  0
  5  6  2  0
  6  7  1  0
  7  8  2  0
  7  9  1  0
  6 10  1  0
 10 11  2  0
 11 12  1  0
 12 13  1  0
 13 14  2  0
 14 15  1  0
 15 16  2  0
 16 17  1  0
 17 18  2  0
 17 19  1  0
 19 20  1  0
 20 21  2  0
 21 22  1  0
 22 23  2  0
 23 24  1  0
 24 25  1  0
 25 26  2  0
 25 27  1  0
 24 28  2  0
 16 29  1  0
 29 30  2  0
 11  3  1  0
 30 13  1  0
 28 20  1  0
  1 31  1  0
  1 32  1  0
  1 33  1  0
  4 34  1  0
  5 35  1  0
 10 36  1  0
 14 37  1  0
 15 38  1  0
 19 39  1  0
 21 40  1  0
 22 41  1  0
 23 42  1  0
 28 43  1  0
 29 44  1  0
 30 45  1  0
M  CHG  3   7   1   9  -1  27  -1
M  END
>  <UniqueID>  (7) 
7

>  <SMILES>  (7) 
COc1ccc([N+](=O)[O-])cc1Oc1ccc(C(=O)Nc2cccc(C(=O)[O-])c2)cc1

>  <Energy>  (7) 
63.57613125817033

>  <Genealogy>  (7) 
COc1ccc([N+](=O)[O-])cc1Oc1ccc(C(=O)Nc2cccc(C(=O)[O-])c2)cc1 (protonated)
COc1ccc([N+](=O)[O-])cc1Oc1ccc(C(=O)Nc2cccc(C(=O)[O-])c2)cc1 (3D coordinates assigned)
COc1ccc([N+](=O)[O-])cc1Oc1ccc(C(=O)Nc2cccc(C(=O)[O-])c2)cc1 (optimized conformer: 63.57613125817033 kcal/mol)

>  <smiles>  (7) 
COc1ccc([N+](=O)[O-])cc1Oc1ccc(C(=O)Nc2cccc(C(=O)O)c2)cc1

>  <score_type>  (7) 
oracle

>  <origin>  (7) 
adg

>  <m_score__min__energy>  (7) 
-11.449999999999999

>  <m_primary>  (7) 
energy

$$$$
7:0
     RDKit          3D

 48 49  0  0  0  0  0  0  0  0999 V2000
   63.4030   34.1920   50.7150 C   0  0  0  0  0  0  0  0  0  0  0  0
   62.1180   33.9270   49.9340 C   0  0  0  0  0  0  0  0  0  0  0  0
   62.4170   33.3900   48.5950 N   0  0  0  0  0  0  0  0  0  0  0  0
   63.6170   33.8710   47.8910 C   0  0  0  0  0  0  0  0  0  0  0  0
   63.3600   33.9890   46.3910 C   0  0  0  0  0  0  0  0  0  0  0  0
   61.5520   32.4050   47.9770 C   0  0  0  0  0  0  0  0  0  0  0  0
   60.1550   32.5810   47.9590 C   0  0  0  0  0  0  0  0  0  0  0  0
   59.3250   31.6280   47.3660 C   0  0  0  0  0  0  0  0  0  0  0  0
   59.8690   30.4690   46.7890 C   0  0  0  0  0  0  0  0  0  0  0  0
   59.0370   29.4810   46.1580 N   0  0  0  0  0  0  0  0  0  0  0  0
   58.4520   28.3630   46.8440 C   0  0  0  0  0  0  0  0  0  0  0  0
   58.8190   28.0630   48.0120 O   0  0  0  0  0  0  0  0  0  0  0  0
   57.4380   27.5000   46.1550 C   0  0  0  0  0  0  0  0  0  0  0  0
   57.0660   28.0830   44.8710 N   0  0  0  0  0  0  0  0  0  0  0  0
   56.3070   29.2900   44.7330 C   0  0  0  0  0  0  0  0  0  0  0  0
   55.1390   29.3510   45.2100 O   0  0  0  0  0  0  0  0  0  0  0  0
   56.8880   30.4620   44.0390 C   0  0  0  0  0  0  0  0  0  0  0  0
   56.9200   30.5150   42.6350 C   0  0  0  0  0  0  0  0  0  0  0  0
   57.4660   31.6210   41.9800 C   0  0  0  0  0  0  0  0  0  0  0  0
   57.9900   32.6850   42.7150 C   0  0  0  0  0  0  0  0  0  0  0  0
   57.9750   32.6560   44.1190 C   0  0  0  0  0  0  0  0  0  0  0  0
   58.5250   33.7520   44.8740 N   0  0  0  0  0  0  0  0  0  0  0  0
   59.6210   34.2590   44.5560 O   0  0  0  0  0  0  0  0  0  0  0  0
   57.8520   34.2590   45.9630 O   0  0  0  0  0  0  0  0  0  0  0  0
   57.4190   31.5400   44.7740 C   0  0  0  0  0  0  0  0  0  0  0  0
   61.2610   30.3030   46.7800 C   0  0  0  0  0  0  0  0  0  0  0  0
   62.0930   31.2560   47.3730 C   0  0  0  0  0  0  0  0  0  0  0  0
   63.1920   34.1485   51.7937 H   0  0  0  0  0  0  0  0  0  0  0  0
   64.1528   33.4296   50.4570 H   0  0  0  0  0  0  0  0  0  0  0  0
   63.7899   35.1888   50.4570 H   0  0  0  0  0  0  0  0  0  0  0  0
   61.5053   33.1986   50.4854 H   0  0  0  0  0  0  0  0  0  0  0  0
   61.5752   34.8767   49.8183 H   0  0  0  0  0  0  0  0  0  0  0  0
   63.8949   34.8588   48.2873 H   0  0  0  0  0  0  0  0  0  0  0  0
   64.4310   33.1487   48.0516 H   0  0  0  0  0  0  0  0  0  0  0  0
   62.3721   34.4426   46.2228 H   0  0  0  0  0  0  0  0  0  0  0  0
   64.1361   34.6209   45.9346 H   0  0  0  0  0  0  0  0  0  0  0  0
   63.3866   32.9885   45.9346 H   0  0  0  0  0  0  0  0  0  0  0  0
   59.7133   33.4784   48.4168 H   0  0  0  0  0  0  0  0  0  0  0  0
   58.2365   31.7861   47.3506 H   0  0  0  0  0  0  0  0  0  0  0  0
   58.9210   29.5320   45.1200 H   0  0  0  0  0  0  0  0  0  0  0  0
   57.8652   26.5000   45.9893 H   0  0  0  0  0  0  0  0  0  0  0  0
   56.5413   27.4266   46.7879 H   0  0  0  0  0  0  0  0  0  0  0  0
   56.5120   29.6792   42.0477 H   0  0  0  0  0  0  0  0  0  0  0  0
   57.4830   31.6535   40.8806 H   0  0  0  0  0  0  0  0  0  0  0  0
   58.4178   33.5525   42.1911 H   0  0  0  0  0  0  0  0  0  0  0  0
   57.3992   31.5098   45.8734 H   0  0  0  0  0  0  0  0  0  0  0  0
   61.7017   29.4155   46.3023 H   0  0  0  0  0  0  0  0  0  0  0  0
   63.1827   31.1060   47.3674 H   0  0  0  0  0  0  0  0  0  0  0  0
  1  2  1  0
  2  3  1  0
  3  4  1  0
  4  5  1  0
  3  6  1  0
  6  7  2  0
  7  8  1  0
  8  9  2  0
  9 10  1  0
 10 11  1  0
 11 12  2  0
 11 13  1  0
 13 14  1  0
 14 15  1  0
 15 16  2  0
 15 17  1  0
 17 18  2  0
 18 19  1  0
 19 20  2  0
 20 21  1  0
 21 22  1  0
 22 23  2  0
 22 24  1  0
 21 25  2  0
  9 26  1  0
 26 27  2  0
 27  6  1  0
 25 17  1  0
  1 28  1  0
  1 29  1  0
  1 30  1  0
  2 31  1  0
  2 32  1  0
  4 33  1  0
  4 34  1  0
  5 35  1  0
  5 36  1  0
  5 37  1  0
  7 38  1  0
  8 39  1  0
 10 40  1  0
 13 41  1  0
 13 42  1  0
 18 43  1  0
 19 44  1  0
 20 45  1  0
 25 46  1  0
 26 47  1  0
 27 48  1  0
M  CHG  3  14  -1  22   1  24  -1
M  END
>  <UniqueID>  (8) 
8

>  <SMILES>  (8) 
CCN(CC)c1ccc(NC(=O)C[N-]C(=O)c2cccc([N+](=O)[O-])c2)cc1

>  <Energy>  (8) 
47.9314390439653

>  <Genealogy>  (8) 
CCN(CC)c1ccc(NC(=O)C[N-]C(=O)c2cccc([N+](=O)[O-])c2)cc1 (protonated)
CCN(CC)c1ccc(NC(=O)C[N-]C(=O)c2cccc([N+](=O)[O-])c2)cc1 (3D coordinates assigned)
CCN(CC)c1ccc(NC(=O)C[N-]C(=O)c2cccc([N+](=O)[O-])c2)cc1 (optimized conformer: 47.9314390439653 kcal/mol)

>  <smiles>  (8) 
CCN(CC)c1ccc(NC(=O)CNC(=O)c2cccc([N+](=O)[O-])c2)cc1

>  <score_type>  (8) 
oracle

>  <origin>  (8) 
adg

>  <m_score__min__energy>  (8) 
-9.2599999999999998

>  <m_primary>  (8) 
energy

$$$$
8:0
     RDKit          3D

 43 46  0  0  0  0  0  0  0  0999 V2000
   61.1999   30.4726   48.5093 H   0  0  0  0  0  0  0  0  0  0  0  0
   60.5730   29.8890   47.8190 C   0  0  0  0  0  0  0  0  0  0  0  0
   60.7730   29.9880   46.4390 C   0  0  0  0  0  0  0  0  0  0  0  0
   61.5568   30.6511   46.0441 H   0  0  0  0  0  0  0  0  0  0  0  0
   59.9790   29.2460   45.5600 C   0  0  0  0  0  0  0  0  0  0  0  0
   60.1351   29.3324   44.4746 H   0  0  0  0  0  0  0  0  0  0  0  0
   58.9820   28.3900   46.0580 C   0  0  0  0  0  0  0  0  0  0  0  0
   58.1010   27.6130   45.1130 C   0  0  0  0  0  0  0  0  0  0  0  0
   58.4973   26.5918   45.0121 H   0  0  0  0  0  0  0  0  0  0  0  0
   58.0970   28.1278   44.1409 H   0  0  0  0  0  0  0  0  0  0  0  0
   56.6620   27.5400   45.6250 C   0  0  0  0  0  0  0  0  0  0  0  0
   56.6694   27.4954   46.7241 H   0  0  0  0  0  0  0  0  0  0  0  0
   56.1810   26.6395   45.2154 H   0  0  0  0  0  0  0  0  0  0  0  0
   55.9120   28.7180   45.1950 N   0  0  0  0  0  0  0  0  0  0  0  0
   56.4610   29.8050   44.7460 C   0  0  0  0  0  0  0  0  0  0  0  0
   56.4770   30.0380   43.3900 N   0  0  0  0  0  0  0  0  0  0  0  0
   57.0410   31.1670   42.8650 C   0  0  0  0  0  0  0  0  0  0  0  0
   57.0470   31.3660   41.6230 O   0  0  0  0  0  0  0  0  0  0  0  0
   57.6000   32.0750   43.7480 C   0  0  0  0  0  0  0  0  0  0  0  0
   58.2140   33.2540   43.5280 N   0  0  0  0  0  0  0  0  0  0  0  0
   58.5480   33.6960   44.7420 N   0  0  0  0  0  0  0  0  0  0  0  0
   59.0430   34.5990   44.9130 H   0  0  0  0  0  0  0  0  0  0  0  0
   58.1730   32.8500   45.7010 N   0  0  0  0  0  0  0  0  0  0  0  0
   58.3670   33.0510   47.1350 C   0  0  0  0  0  0  0  0  0  0  0  0
   57.8267   33.9551   47.4524 H   0  0  0  0  0  0  0  0  0  0  0  0
   57.9809   32.1754   47.6775 H   0  0  0  0  0  0  0  0  0  0  0  0
   59.8360   33.2140   47.4400 C   0  0  0  0  0  0  0  0  0  0  0  0
   60.7370   33.4190   46.3790 C   0  0  0  0  0  0  0  0  0  0  0  0
   60.3667   33.4296   45.3432 H   0  0  0  0  0  0  0  0  0  0  0  0
   62.0970   33.6090   46.6300 C   0  0  0  0  0  0  0  0  0  0  0  0
   62.7934   33.7630   45.7925 H   0  0  0  0  0  0  0  0  0  0  0  0
   62.5750   33.6040   47.9410 C   0  0  0  0  0  0  0  0  0  0  0  0
   63.6477   33.7506   48.1357 H   0  0  0  0  0  0  0  0  0  0  0  0
   61.6920   33.4130   49.0060 C   0  0  0  0  0  0  0  0  0  0  0  0
   62.0721   33.4125   50.0383 H   0  0  0  0  0  0  0  0  0  0  0  0
   60.3250   33.2220   48.7670 C   0  0  0  0  0  0  0  0  0  0  0  0
   59.2650   32.9930   50.1540 Cl  0  0  0  0  0  0  0  0  0  0  0  0
   57.5750   31.8300   45.0750 C   0  0  0  0  0  0  0  0  0  0  0  0
   57.0220   30.7150   45.6070 N   0  0  0  0  0  0  0  0  0  0  0  0
   58.7800   28.3030   47.4460 C   0  0  0  0  0  0  0  0  0  0  0  0
   57.9929   27.6465   47.8453 H   0  0  0  0  0  0  0  0  0  0  0  0
   59.5760   29.0480   48.3210 C   0  0  0  0  0  0  0  0  0  0  0  0
   59.4173   28.9721   49.4068 H   0  0  0  0  0  0  0  0  0  0  0  0
  1  2  1  0
  2  3  2  0
  3  4  1  0
  3  5  1  0
  5  6  1  0
  5  7  2  0
  7  8  1  0
  8  9  1  0
  8 10  1  0
  8 11  1  0
 11 12  1  0
 11 13  1  0
 11 14  1  0
 14 15  2  0
 15 16  1  0
 16 17  1  0
 17 18  2  0
 17 19  1  0
 19 20  1  0
 20 21  2  0
 21 22  1  0
 21 23  1  0
 23 24  1  0
 24 25  1  0
 24 26  1  0
 24 27  1  0
 27 28  2  0
 28 29  1  0
 28 30  1  0
 30 31  1  0
 30 32  2  0
 32 33  1  0
 32 34  1  0
 34 35  1  0
 34 36  2  0
 36 37  1  0
 23 38  1  0
 38 39  1  0
  7 40  1  0
 40 41  1  0
 40 42  2  0
 42 43  1  0
 42  2  1  0
 39 15  1  0
 38 19  2  0
 36 27  1  0
M  CHG  3  16  -1  21   1  39  -1
M  END
>  <UniqueID>  (9) 
9

>  <SMILES>  (9) 
O=c1[n-]/c(=N/CCc2ccccc2)[n-]c2c1n[nH+]n2Cc1ccccc1Cl

>  <Energy>  (9) 
92.24930259383866

>  <Genealogy>  (9) 
O=c1[n-]c(=NCCc2ccccc2)[n-]c2c1n[nH+]n2Cc1ccccc1Cl (protonated)
O=c1[n-]/c(=N/CCc2ccccc2)[n-]c2c1n[nH+]n2Cc1ccccc1Cl (cis-trans isomerization)
O=c1[n-]/c(=N/CCc2ccccc2)[n-]c2c1n[nH+]n2Cc1ccccc1Cl (3D coordinates assigned)
O=c1[n-]/c(=N/CCc2ccccc2)[n-]c2c1n[nH+]n2Cc1ccccc1Cl (optimized conformer: 92.24930259383866 kcal/mol)

>  <smiles>  (9) 
O=c1[nH]c(=NCCc2ccccc2)[nH]c2c1nnn2Cc1ccccc1Cl

>  <score_type>  (9) 
oracle

>  <origin>  (9) 
adg

>  <m_score__min__energy>  (9) 
-10.93

>  <m_primary>  (9) 
energy

$$$$
9:0
     RDKit          3D

 43 46  0  0  1  0  0  0  0  0999 V2000
   56.6200   31.4640   51.5700 O   0  0  0  0  0  0  0  0  0  0  0  0
   56.8250   30.3170   52.0200 C   0  0  0  0  0  0  0  0  0  0  0  0
   55.6890   29.6770   52.6390 N   0  0  0  0  0  0  0  0  0  0  0  0
   54.5470   29.9480   52.1920 C   0  0  0  0  0  0  0  0  0  0  0  0
   54.0880   30.8210   51.3410 N   0  0  0  0  0  0  0  0  0  0  0  0
   52.8120   30.8800   51.0560 C   0  0  0  0  0  0  0  0  0  0  0  0
   51.9490   30.0270   51.6470 C   0  0  0  0  0  0  0  0  0  0  0  0
   53.0200   28.9950   52.7500 S   0  0  0  0  0  0  0  0  0  0  0  0
   58.0640   29.6540   51.9510 N   0  0  0  0  0  0  0  0  0  0  0  0
   59.2510   30.1550   51.3790 C   0  0  0  0  0  0  0  0  0  0  0  0
   59.8340   31.3580   51.6750 C   0  0  0  0  0  0  0  0  0  0  0  0
   61.0130   31.8020   51.0740 C   0  0  0  0  0  0  0  0  0  0  0  0
   61.6440   31.0150   50.1330 C   0  0  0  0  0  0  0  0  0  0  0  0
   62.8450   31.4650   49.5180 N   0  0  0  0  0  0  0  0  0  0  0  0
   62.7540   32.2320   48.4850 C   0  0  0  0  0  0  0  0  0  0  0  0
   61.5150   32.4990   48.0390 N   0  0  0  0  0  0  0  0  0  0  0  0
   61.3500   33.2950   46.9600 C   0  0  0  0  0  0  0  0  0  0  0  0
   60.0030   33.5790   46.4830 C   0  0  0  0  0  0  0  0  0  0  0  0
   58.8610   33.1370   47.1160 C   0  0  0  0  0  0  0  0  0  0  0  0
   57.6000   33.4310   46.6270 C   0  0  0  0  0  0  0  0  0  0  0  0
   57.4580   34.1860   45.4760 C   0  0  0  0  0  0  0  0  0  0  0  0
   58.6270   34.6170   44.8620 C   0  0  0  0  0  0  0  0  0  0  0  0
   59.8230   34.3120   45.3640 N   0  0  0  0  0  0  0  0  0  0  0  0
   62.4680   33.7960   46.3700 C   0  0  0  0  0  0  0  0  0  0  0  0
   63.7560   33.5130   46.8410 C   0  0  0  0  0  0  0  0  0  0  0  0
   63.8730   32.7160   47.9170 N   0  0  0  0  0  0  0  0  0  0  0  0
   61.0500   29.8050   49.8400 C   0  0  0  0  0  0  0  0  0  0  0  0
   59.8860   29.3700   50.4350 C   0  0  0  0  0  0  0  0  0  0  0  0
   54.7870   31.5110   50.8620 H   0  0  0  0  0  0  0  0  0  0  0  0
   52.4431   31.6245   50.3351 H   0  0  0  0  0  0  0  0  0  0  0  0
   50.8601   29.9602   51.5059 H   0  0  0  0  0  0  0  0  0  0  0  0
   58.0820   28.6780   52.3800 H   0  0  0  0  0  0  0  0  0  0  0  0
   59.3505   32.0051   52.4216 H   0  0  0  0  0  0  0  0  0  0  0  0
   61.4384   32.7781   51.3503 H   0  0  0  0  0  0  0  0  0  0  0  0
   58.9542   32.5358   48.0324 H   0  0  0  0  0  0  0  0  0  0  0  0
   56.7078   33.0633   47.1550 H   0  0  0  0  0  0  0  0  0  0  0  0
   56.4671   34.4329   45.0671 H   0  0  0  0  0  0  0  0  0  0  0  0
   58.5643   35.2210   43.9448 H   0  0  0  0  0  0  0  0  0  0  0  0
   62.3566   34.4474   45.4906 H   0  0  0  0  0  0  0  0  0  0  0  0
   64.6450   33.9303   46.3455 H   0  0  0  0  0  0  0  0  0  0  0  0
   64.8170   32.4690   48.3150 H   0  0  0  0  0  0  0  0  0  0  0  0
   61.5298   29.1547   49.0938 H   0  0  0  0  0  0  0  0  0  0  0  0
   59.4604   28.3943   50.1578 H   0  0  0  0  0  0  0  0  0  0  0  0
  1  2  2  0
  2  3  1  0
  3  4  2  0
  4  5  1  0
  5  6  1  0
  6  7  2  0
  7  8  1  0
  2  9  1  0
  9 10  1  0
 10 11  2  0
 11 12  1  0
 12 13  2  0
 13 14  1  0
 14 15  2  0
 15 16  1  0
 16 17  2  0
 17 18  1  0
 18 19  2  0
 19 20  1  0
 20 21  2  0
 21 22  1  0
 22 23  2  0
 17 24  1  0
 24 25  2  0
 25 26  1  0
 13 27  1  0
 27 28  2  0
  8  4  1  0
 28 10  1  0
 26 15  1  0
 23 18  1  0
  5 29  1  0
  6 30  1  0
  7 31  1  0
  9 32  1  0
 11 33  1  0
 12 34  1  0
 19 35  1  0
 20 36  1  0
 21 37  1  0
 22 38  1  0
 24 39  1  0
 25 40  1  0
 26 41  1  0
 27 42  1  0
 28 43  1  0
M  END
>  <smiles>  (10) 
O=C(N=c1[nH]ccs1)Nc1ccc(N=c2nc(-c3ccccn3)cc[nH]2)cc1

>  <score_type>  (10) 
oracle

>  <origin>  (10) 
adg

>  <m_score__min__energy>  (10) 
-8.3200000000000003

>  <m_primary>  (10) 
energy

$$$$
10:0
     RDKit          3D

 33 35  0  0  0  0  0  0  0  0999 V2000
   63.7160   33.2510   46.7430 N   0  0  0  0  0  0  0  0  0  0  0  0
   62.4230   32.3430   47.4440 S   0  0  0  0  0  0  0  0  0  0  0  0
   62.6390   30.8800   47.1820 O   0  0  0  0  0  0  0  0  0  0  0  0
   62.4000   32.5670   48.9300 O   0  0  0  0  0  0  0  0  0  0  0  0
   60.8910   32.8560   46.7430 C   0  0  0  0  0  0  0  0  0  0  0  0
   60.6200   34.2180   46.5610 C   0  0  0  0  0  0  0  0  0  0  0  0
   59.3970   34.6250   46.0240 C   0  0  0  0  0  0  0  0  0  0  0  0
   58.4370   33.6760   45.6660 C   0  0  0  0  0  0  0  0  0  0  0  0
   58.7000   32.3050   45.8320 C   0  0  0  0  0  0  0  0  0  0  0  0
   57.6880   31.2860   45.4760 C   0  0  0  0  0  0  0  0  0  0  0  0
   56.5930   31.5690   44.7400 N   0  0  0  0  0  0  0  0  0  0  0  0
   55.9310   30.4360   44.5610 N   0  0  0  0  0  0  0  0  0  0  0  0
   56.6350   29.4820   45.1940 C   0  0  0  0  0  0  0  0  0  0  0  0
   56.2710   28.2770   45.2540 O   0  0  0  0  0  0  0  0  0  0  0  0
   57.7460   29.9680   45.7810 N   0  0  0  0  0  0  0  0  0  0  0  0
   58.6550   29.2630   46.6450 C   0  0  0  0  0  0  0  0  0  0  0  0
   58.7240   29.5810   48.0100 C   0  0  0  0  0  0  0  0  0  0  0  0
   59.6080   28.8980   48.8510 C   0  0  0  0  0  0  0  0  0  0  0  0
   60.4340   27.8970   48.3320 C   0  0  0  0  0  0  0  0  0  0  0  0
   60.3790   27.5810   46.9720 C   0  0  0  0  0  0  0  0  0  0  0  0
   59.4970   28.2620   46.1290 C   0  0  0  0  0  0  0  0  0  0  0  0
   59.9240   31.9040   46.3920 C   0  0  0  0  0  0  0  0  0  0  0  0
   64.5570   32.6320   46.7430 H   0  0  0  0  0  0  0  0  0  0  0  0
   63.4640   33.4170   45.7430 H   0  0  0  0  0  0  0  0  0  0  0  0
   61.3728   34.9693   46.8419 H   0  0  0  0  0  0  0  0  0  0  0  0
   59.1892   35.6959   45.8826 H   0  0  0  0  0  0  0  0  0  0  0  0
   57.4714   34.0025   45.2525 H   0  0  0  0  0  0  0  0  0  0  0  0
   58.0791   30.3719   48.4207 H   0  0  0  0  0  0  0  0  0  0  0  0
   59.6534   29.1485   49.9211 H   0  0  0  0  0  0  0  0  0  0  0  0
   61.1274   27.3579   48.9942 H   0  0  0  0  0  0  0  0  0  0  0  0
   61.0313   26.7947   46.5643 H   0  0  0  0  0  0  0  0  0  0  0  0
   59.4612   28.0142   45.0579 H   0  0  0  0  0  0  0  0  0  0  0  0
   60.1252   30.8351   46.5563 H   0  0  0  0  0  0  0  0  0  0  0  0
  1  2  1  0
  2  3  2  0
  2  4  2  0
  2  5  1  0
  5  6  2  0
  6  7  1  0
  7  8  2  0
  8  9  1  0
  9 10  1  0
 10 11  2  0
 11 12  1  0
 12 13  1  0
 13 14  2  0
 13 15  1  0
 15 16  1  0
 16 17  2  0
 17 18  1  0
 18 19  2  0
 19 20  1  0
 20 21  2  0
  9 22  2  0
 22  5  1  0
 15 10  1  0
 21 16  1  0
  1 23  1  0
  1 24  1  0
  6 25  1  0
  7 26  1  0
  8 27  1  0
 17 28  1  0
 18 29  1  0
 19 30  1  0
 20 31  1  0
 21 32  1  0
 22 33  1  0
M  CHG  1  12  -1
M  END
>  <UniqueID>  (11) 
10

>  <SMILES>  (11) 
NS(=O)(=O)c1cccc(-c2n[n-]c(=O)n2-c2ccccc2)c1

>  <Energy>  (11) 
79.57307614021826

>  <Genealogy>  (11) 
NS(=O)(=O)c1cccc(-c2n[n-]c(=O)n2-c2ccccc2)c1 (protonated)
NS(=O)(=O)c1cccc(-c2n[n-]c(=O)n2-c2ccccc2)c1 (3D coordinates assigned)
NS(=O)(=O)c1cccc(-c2n[n-]c(=O)n2-c2ccccc2)c1 (optimized conformer: 79.57307614021826 kcal/mol)

>  <smiles>  (11) 
NS(=O)(=O)c1cccc(-c2n[nH]c(=O)n2-c2ccccc2)c1

>  <score_type>  (11) 
oracle

>  <origin>  (11) 
adg

>  <m_score__min__energy>  (11) 
-9.5199999999999996

>  <m_primary>  (11) 
energy

$$$$
11:0
     RDKit          3D

 43 45  0  0  0  0  0  0  0  0999 V2000
   57.7584   31.8820   43.0194 H   0  0  0  0  0  0  0  0  0  0  0  0
   57.3990   31.8810   44.0590 C   0  0  0  0  0  0  0  0  0  0  0  0
   56.4310   31.0640   44.3670 N   0  0  0  0  0  0  0  0  0  0  0  0
   56.5590   29.7490   44.9250 C   0  0  0  0  0  0  0  0  0  0  0  0
   55.5910   28.9490   44.8230 O   0  0  0  0  0  0  0  0  0  0  0  0
   57.8230   29.2950   45.5400 C   0  0  0  0  0  0  0  0  0  0  0  0
   58.4860   29.9410   46.9480 S   0  0  0  0  0  0  0  0  0  0  0  0
   59.8360   28.9330   46.8900 C   0  0  0  0  0  0  0  0  0  0  0  0
   60.8180   28.9260   47.7380 N   0  0  0  0  0  0  0  0  0  0  0  0
   60.9790   30.0460   49.0530 S   0  0  0  0  0  0  0  0  0  0  0  0
   59.6140   30.3970   49.5750 O   0  0  0  0  0  0  0  0  0  0  0  0
   61.7520   29.3860   50.1610 O   0  0  0  0  0  0  0  0  0  0  0  0
   61.7920   31.5260   48.5160 C   0  0  0  0  0  0  0  0  0  0  0  0
   62.7220   31.4450   47.4670 C   0  0  0  0  0  0  0  0  0  0  0  0
   62.9230   30.4738   46.9912 H   0  0  0  0  0  0  0  0  0  0  0  0
   63.3940   32.5850   47.0220 C   0  0  0  0  0  0  0  0  0  0  0  0
   64.1163   32.5095   46.1958 H   0  0  0  0  0  0  0  0  0  0  0  0
   63.1510   33.8180   47.6230 C   0  0  0  0  0  0  0  0  0  0  0  0
   63.6867   34.7137   47.2755 H   0  0  0  0  0  0  0  0  0  0  0  0
   62.2290   33.9180   48.6650 C   0  0  0  0  0  0  0  0  0  0  0  0
   62.0413   34.8951   49.1340 H   0  0  0  0  0  0  0  0  0  0  0  0
   61.5370   32.7820   49.1220 C   0  0  0  0  0  0  0  0  0  0  0  0
   60.5120   32.9440   50.2140 C   0  0  0  0  0  0  0  0  0  0  0  0
   61.0051   32.8661   51.1942 H   0  0  0  0  0  0  0  0  0  0  0  0
   60.0314   33.9292   50.1226 H   0  0  0  0  0  0  0  0  0  0  0  0
   59.7510   32.1550   50.1226 H   0  0  0  0  0  0  0  0  0  0  0  0
   59.8030   28.1070   45.8240 N   0  0  0  0  0  0  0  0  0  0  0  0
   58.6870   28.3000   45.0670 C   0  0  0  0  0  0  0  0  0  0  0  0
   58.4390   27.4870   43.8360 C   0  0  0  0  0  0  0  0  0  0  0  0
   58.1292   26.4714   44.1235 H   0  0  0  0  0  0  0  0  0  0  0  0
   57.6436   27.9579   43.2396 H   0  0  0  0  0  0  0  0  0  0  0  0
   59.3618   27.4338   43.2396 H   0  0  0  0  0  0  0  0  0  0  0  0
   58.0480   32.8090   45.0160 C   0  0  0  0  0  0  0  0  0  0  0  0
   58.9910   33.7330   44.5380 C   0  0  0  0  0  0  0  0  0  0  0  0
   59.2601   33.7381   43.4714 H   0  0  0  0  0  0  0  0  0  0  0  0
   59.5900   34.6470   45.4110 C   0  0  0  0  0  0  0  0  0  0  0  0
   60.3278   35.3680   45.0293 H   0  0  0  0  0  0  0  0  0  0  0  0
   59.2530   34.6460   46.7670 C   0  0  0  0  0  0  0  0  0  0  0  0
   59.7418   35.3504   47.4561 H   0  0  0  0  0  0  0  0  0  0  0  0
   58.2950   33.7500   47.2470 C   0  0  0  0  0  0  0  0  0  0  0  0
   58.0242   33.7542   48.3131 H   0  0  0  0  0  0  0  0  0  0  0  0
   57.6800   32.8480   46.3740 C   0  0  0  0  0  0  0  0  0  0  0  0
   56.9042   32.1650   46.7504 H   0  0  0  0  0  0  0  0  0  0  0  0
  1  2  1  0
  2  3  2  0
  3  4  1  0
  4  5  2  0
  4  6  1  0
  6  7  1  0
  7  8  1  0
  8  9  2  3
  9 10  1  0
 10 11  2  0
 10 12  2  0
 10 13  1  0
 13 14  2  0
 14 15  1  0
 14 16  1  0
 16 17  1  0
 16 18  2  0
 18 19  1  0
 18 20  1  0
 20 21  1  0
 20 22  2  0
 22 23  1  0
 23 24  1  0
 23 25  1  0
 23 26  1  0
  8 27  1  0
 27 28  1  0
 28 29  1  0
 29 30  1  0
 29 31  1  0
 29 32  1  0
  2 33  1  0
 33 34  2  0
 34 35  1  0
 34 36  1  0
 36 37  1  0
 36 38  2  0
 38 39  1  0
 38 40  1  0
 40 41  1  0
 40 42  2  0
 42 43  1  0
 28  6  2  0
 42 33  1  0
 22 13  1  0
M  CHG  1  27  -1
M  END
>  <UniqueID>  (12) 
11

>  <SMILES>  (12) 
Cc1ccccc1S(=O)(=O)N=c1[n-]c(C)c(C(=O)/N=C\c2ccccc2)s1

>  <Energy>  (12) 
86.94801103508978

>  <Genealogy>  (12) 
Cc1ccccc1S(=O)(=O)N=c1[n-]c(C)c(C(=O)N=Cc2ccccc2)s1 (protonated)
Cc1ccccc1S(=O)(=O)N=c1[n-]c(C)c(C(=O)/N=C\c2ccccc2)s1 (cis-trans isomerization)
Cc1ccccc1S(=O)(=O)N=c1[n-]c(C)c(C(=O)/N=C\c2ccccc2)s1 (3D coordinates assigned)
Cc1ccccc1S(=O)(=O)N=c1[n-]c(C)c(C(=O)/N=C\c2ccccc2)s1 (optimized conformer: 86.94801103508978 kcal/mol)

>  <smiles>  (12) 
Cc1ccccc1S(=O)(=O)N=c1[nH]c(C)c(C(=O)N=Cc2ccccc2)s1

>  <score_type>  (12) 
oracle

>  <origin>  (12) 
adg

>  <m_score__min__energy>  (12) 
-10.529999999999999

>  <m_primary>  (12) 
energy

$$$$
12:0
     RDKit          3D

 77 80  0  0  0  0  0  0  0  0999 V2000
   58.8790   33.7320   53.3630 C   0  0  0  0  0  0  0  0  0  0  0  0
   58.5830   32.2800   53.7290 C   0  0  0  0  0  0  0  0  0  0  0  0
   58.7620   31.3990   52.5550 N   0  0  0  0  0  0  0  0  0  0  0  0
   58.1210   31.9720   51.3530 C   0  0  0  0  0  0  0  0  0  0  0  0
   58.5110   31.2220   50.0610 C   0  0  0  0  0  0  0  0  0  0  0  0
   59.8440   31.5940   49.5680 N   0  0  0  0  0  0  0  0  0  0  0  0
   61.0490   31.1650   50.0300 C   0  0  0  0  0  0  0  0  0  0  0  0
   61.1760   30.3360   51.0160 N   0  0  0  0  0  0  0  0  0  0  0  0
   62.1150   31.6800   49.3660 N   0  0  0  0  0  0  0  0  0  0  0  0
   61.5320   32.4730   48.4490 C   0  0  0  0  0  0  0  0  0  0  0  0
   62.1630   33.2290   47.4690 C   0  0  0  0  0  0  0  0  0  0  0  0
   61.3560   33.9400   46.5630 C   0  0  0  0  0  0  0  0  0  0  0  0
   59.9400   33.9010   46.6690 C   0  0  0  0  0  0  0  0  0  0  0  0
   59.0980   34.5760   45.6610 C   0  0  0  0  0  0  0  0  0  0  0  0
   59.6020   35.4350   44.8880 O   0  0  0  0  0  0  0  0  0  0  0  0
   57.6930   34.3080   45.6120 N   0  0  0  0  0  0  0  0  0  0  0  0
   57.0990   33.3490   44.6880 C   0  0  0  0  0  0  0  0  0  0  0  0
   58.1500   32.3340   44.2230 C   0  0  0  0  0  0  0  0  0  0  0  0
   57.9610   30.9750   44.8600 C   0  0  0  0  0  0  0  0  0  0  0  0
   56.9390   30.1150   44.4260 C   0  0  0  0  0  0  0  0  0  0  0  0
   56.7470   28.8750   45.0440 C   0  0  0  0  0  0  0  0  0  0  0  0
   57.5990   28.4550   46.0710 C   0  0  0  0  0  0  0  0  0  0  0  0
   57.3470   27.1940   46.7040 N   0  0  0  0  0  0  0  0  0  0  0  0
   56.2850   26.2840   46.3880 C   0  0  0  0  0  0  0  0  0  0  0  0
   55.1740   26.7180   45.9870 O   0  0  0  0  0  0  0  0  0  0  0  0
   56.4520   24.8720   46.5780 N   0  0  0  0  0  0  0  0  0  0  0  0
   55.4560   23.9290   47.1040 C   0  0  1  0  0  0  0  0  0  0  0  0
   54.6340   23.2730   45.9660 C   0  0  0  0  0  0  0  0  0  0  0  0
   55.4670   22.6360   44.8810 C   0  0  0  0  0  0  0  0  0  0  0  0
   55.7730   23.3420   43.7050 C   0  0  0  0  0  0  0  0  0  0  0  0
   56.5310   22.7400   42.6970 C   0  0  0  0  0  0  0  0  0  0  0  0
   56.9990   21.4350   42.8590 C   0  0  0  0  0  0  0  0  0  0  0  0
   56.7180   20.7330   44.0310 C   0  0  0  0  0  0  0  0  0  0  0  0
   55.9540   21.3270   45.0390 C   0  0  0  0  0  0  0  0  0  0  0  0
   56.0540   22.9480   48.0840 C   0  0  0  0  0  0  0  0  0  0  0  0
   55.3490   22.4810   49.0170 O   0  0  0  0  0  0  0  0  0  0  0  0
   57.3420   22.4600   47.9050 O   0  0  0  0  0  0  0  0  0  0  0  0
   58.6360   29.3020   46.4950 C   0  0  0  0  0  0  0  0  0  0  0  0
   58.8120   30.5540   45.8980 C   0  0  0  0  0  0  0  0  0  0  0  0
   59.3390   33.1560   47.7100 C   0  0  0  0  0  0  0  0  0  0  0  0
   60.1720   32.4340   48.5670 C   0  0  0  0  0  0  0  0  0  0  0  0
   58.1570   29.7760   52.8760 S   0  0  0  0  0  0  0  0  0  0  0  0
   57.5930   29.7020   54.5620 C   0  0  0  0  0  0  0  0  0  0  0  0
   59.2360   28.7400   52.7030 O   0  0  0  0  0  0  0  0  0  0  0  0
   57.0100   29.4260   51.9660 O   0  0  0  0  0  0  0  0  0  0  0  0
   58.9998   34.3245   54.2819 H   0  0  0  0  0  0  0  0  0  0  0  0
   59.8053   33.7796   52.7717 H   0  0  0  0  0  0  0  0  0  0  0  0
   58.0452   34.1384   52.7717 H   0  0  0  0  0  0  0  0  0  0  0  0
   59.2693   31.9616   54.5275 H   0  0  0  0  0  0  0  0  0  0  0  0
   57.5401   32.2066   54.0709 H   0  0  0  0  0  0  0  0  0  0  0  0
   57.0292   31.9187   51.4760 H   0  0  0  0  0  0  0  0  0  0  0  0
   58.4663   33.0116   51.2533 H   0  0  0  0  0  0  0  0  0  0  0  0
   58.5006   30.1412   50.2651 H   0  0  0  0  0  0  0  0  0  0  0  0
   57.7817   31.4973   49.2849 H   0  0  0  0  0  0  0  0  0  0  0  0
   60.4470   30.2680   51.7610 H   0  0  0  0  0  0  0  0  0  0  0  0
   63.2603   33.2702   47.4037 H   0  0  0  0  0  0  0  0  0  0  0  0
   61.8260   34.5324   45.7641 H   0  0  0  0  0  0  0  0  0  0  0  0
   56.2803   32.8169   45.1945 H   0  0  0  0  0  0  0  0  0  0  0  0
   56.7127   33.8899   43.8115 H   0  0  0  0  0  0  0  0  0  0  0  0
   58.0772   32.2254   43.1308 H   0  0  0  0  0  0  0  0  0  0  0  0
   59.1378   32.7117   44.5256 H   0  0  0  0  0  0  0  0  0  0  0  0
   56.2855   30.4185   43.5949 H   0  0  0  0  0  0  0  0  0  0  0  0
   55.9203   28.2256   44.7202 H   0  0  0  0  0  0  0  0  0  0  0  0
   54.7299   24.5049   47.6965 H   0  0  0  0  0  0  0  0  0  0  0  0
   53.9934   22.4959   46.4085 H   0  0  0  0  0  0  0  0  0  0  0  0
   54.0610   24.0809   45.4875 H   0  0  0  0  0  0  0  0  0  0  0  0
   55.4140   24.3739   43.5773 H   0  0  0  0  0  0  0  0  0  0  0  0
   56.7590   23.2951   41.7751 H   0  0  0  0  0  0  0  0  0  0  0  0
   57.5898   20.9600   42.0619 H   0  0  0  0  0  0  0  0  0  0  0  0
   57.0987   19.7093   44.1621 H   0  0  0  0  0  0  0  0  0  0  0  0
   55.7328   20.7678   45.9601 H   0  0  0  0  0  0  0  0  0  0  0  0
   59.3125   28.9791   47.3000 H   0  0  0  0  0  0  0  0  0  0  0  0
   59.6215   31.2144   46.2424 H   0  0  0  0  0  0  0  0  0  0  0  0
   58.2469   33.1456   47.8408 H   0  0  0  0  0  0  0  0  0  0  0  0
   58.4511   29.8146   55.2410 H   0  0  0  0  0  0  0  0  0  0  0  0
   56.8728   30.5133   54.7437 H   0  0  0  0  0  0  0  0  0  0  0  0
   57.1065   28.7323   54.7437 H   0  0  0  0  0  0  0  0  0  0  0  0
  1  2  1  0
  2  3  1  0
  3  4  1  0
  4  5  1  0
  5  6  1  0
  6  7  1  0
  7  8  2  3
  7  9  1  0
  9 10  1  0
 10 11  2  0
 11 12  1  0
 12 13  2  0
 13 14  1  0
 14 15  2  0
 14 16  1  0
 16 17  1  0
 17 18  1  0
 18 19  1  0
 19 20  2  0
 20 21  1  0
 21 22  2  0
 22 23  1  0
 23 24  1  0
 24 25  2  0
 24 26  1  0
 26 27  1  0
 27 28  1  0
 28 29  1  0
 29 30  2  0
 30 31  1  0
 31 32  2  0
 32 33  1  0
 33 34  2  0
 27 35  1  0
 35 36  2  0
 35 37  1  0
 22 38  1  0
 38 39  2  0
 13 40  1  0
 40 41  2  0
  3 42  1  0
 42 43  1  0
 42 44  2  0
 42 45  2  0
 41  6  1  0
 41 10  1  0
 39 19  1  0
 34 29  1  0
  1 46  1  0
  1 47  1  0
  1 48  1  0
  2 49  1  0
  2 50  1  0
  4 51  1  0
  4 52  1  0
  5 53  1  0
  5 54  1  0
  8 55  1  0
 11 56  1  0
 12 57  1  0
 17 58  1  0
 17 59  1  0
 18 60  1  0
 18 61  1  0
 20 62  1  0
 21 63  1  0
 27 64  1  1
 28 65  1  0
 28 66  1  0
 30 67  1  0
 31 68  1  0
 32 69  1  0
 33 70  1  0
 34 71  1  0
 38 72  1  0
 39 73  1  0
 40 74  1  0
 43 75  1  0
 43 76  1  0
 43 77  1  0
M  CHG  5   9  -1  16  -1  23  -1  26  -1  37  -1
M  END
>  <UniqueID>  (13) 
12

>  <SMILES>  (13) 
CCN(CCn1c(=N)[n-]c2ccc(C(=O)[N-]CCc3ccc([N-]C(=O)[N-][C@@H](Cc4ccccc4)C(=O)[O-])cc3)cc21)S(C)(=O)=O

>  <Energy>  (13) 
106.33711854016208

>  <Genealogy>  (13) 
CCN(CCn1c(=N)[n-]c2ccc(C(=O)[N-]CCc3ccc([N-]C(=O)[N-]C(Cc4ccccc4)C(=O)[O-])cc3)cc21)S(C)(=O)=O (protonated)
CCN(CCn1c(=N)[n-]c2ccc(C(=O)[N-]CCc3ccc([N-]C(=O)[N-][C@@H](Cc4ccccc4)C(=O)[O-])cc3)cc21)S(C)(=O)=O (chirality)
CCN(CCn1c(=N)[n-]c2ccc(C(=O)[N-]CCc3ccc([N-]C(=O)[N-][C@@H](Cc4ccccc4)C(=O)[O-])cc3)cc21)S(C)(=O)=O (3D coordinates assigned)
CCN(CCn1c(=N)[n-]c2ccc(C(=O)[N-]CCc3ccc([N-]C(=O)[N-][C@@H](Cc4ccccc4)C(=O)[O-])cc3)cc21)S(C)(=O)=O (optimized conformer: 106.33711854016208 kcal/mol)

>  <smiles>  (13) 
CCN(CCn1c(=N)[nH]c2ccc(C(=O)NCCc3ccc(NC(=O)NC(Cc4ccccc4)C(=O)O)cc3)cc21)S(C)(=O)=O

>  <score_type>  (13) 
oracle

>  <origin>  (13) 
adg

>  <m_score__min__energy>  (13) 
-19.530000000000001

>  <m_primary>  (13) 
energy

$$$$
13:0
     RDKit          3D

 59 62  0  0  0  0  0  0  0  0999 V2000
   58.9510   30.8260   49.9750 C   0  0  0  0  0  0  0  0  0  0  0  0
   59.4230   32.1670   49.9050 O   0  0  0  0  0  0  0  0  0  0  0  0
   60.1940   32.6820   48.8510 C   0  0  0  0  0  0  0  0  0  0  0  0
   61.5030   32.2360   48.5860 C   0  0  0  0  0  0  0  0  0  0  0  0
   62.2280   32.7830   47.5250 C   0  0  0  0  0  0  0  0  0  0  0  0
   61.6590   33.7710   46.7180 C   0  0  0  0  0  0  0  0  0  0  0  0
   60.3500   34.2220   46.9680 C   0  0  0  0  0  0  0  0  0  0  0  0
   59.7260   35.2100   46.1870 O   0  0  0  0  0  0  0  0  0  0  0  0
   58.8850   34.9620   45.0600 C   0  0  0  0  0  0  0  0  0  0  0  0
   58.1780   33.6480   45.2070 C   0  0  0  0  0  0  0  0  0  0  0  0
   56.9270   33.6390   45.3690 O   0  0  0  0  0  0  0  0  0  0  0  0
   58.9220   32.4190   45.1810 N   0  0  0  0  0  0  0  0  0  0  0  0
   58.3180   31.1150   45.2110 C   0  0  0  0  0  0  0  0  0  0  0  0
   57.2240   30.7980   44.3900 C   0  0  0  0  0  0  0  0  0  0  0  0
   56.6660   29.5190   44.4180 C   0  0  0  0  0  0  0  0  0  0  0  0
   57.2000   28.5360   45.2560 C   0  0  0  0  0  0  0  0  0  0  0  0
   56.6430   27.2980   45.2720 N   0  0  0  0  0  0  0  0  0  0  0  0
   57.1130   26.2900   46.0570 C   0  0  0  0  0  0  0  0  0  0  0  0
   56.4610   24.9980   46.0300 N   0  0  0  0  0  0  0  0  0  0  0  0
   55.0630   24.8620   45.5970 C   0  0  0  0  0  0  0  0  0  0  0  0
   54.7030   23.3900   45.3360 C   0  0  0  0  0  0  0  0  0  0  0  0
   55.7900   22.6740   44.6370 N   0  0  0  0  0  0  0  0  0  0  0  0
   55.9360   23.1290   43.2430 C   0  0  0  0  0  0  0  0  0  0  0  0
   57.0860   22.7010   45.3660 C   0  0  0  0  0  0  0  0  0  0  0  0
   57.1720   23.7860   46.4560 C   0  0  0  0  0  0  0  0  0  0  0  0
   58.2230   26.5360   46.8860 C   0  0  0  0  0  0  0  0  0  0  0  0
   58.8320   27.8010   46.9030 C   0  0  0  0  0  0  0  0  0  0  0  0
   60.0190   28.0290   47.8030 C   0  0  0  0  0  0  0  0  0  0  0  0
   58.3150   28.8260   46.0750 C   0  0  0  0  0  0  0  0  0  0  0  0
   58.8700   30.1210   46.0350 C   0  0  0  0  0  0  0  0  0  0  0  0
   59.6310   33.6720   48.0370 C   0  0  0  0  0  0  0  0  0  0  0  0
   58.8463   30.5287   51.0289 H   0  0  0  0  0  0  0  0  0  0  0  0
   57.9737   30.7547   49.4751 H   0  0  0  0  0  0  0  0  0  0  0  0
   59.6681   30.1583   49.4751 H   0  0  0  0  0  0  0  0  0  0  0  0
   61.9553   31.4556   49.2156 H   0  0  0  0  0  0  0  0  0  0  0  0
   63.2517   32.4342   47.3240 H   0  0  0  0  0  0  0  0  0  0  0  0
   62.2361   34.1977   45.8845 H   0  0  0  0  0  0  0  0  0  0  0  0
   58.1392   35.7668   44.9816 H   0  0  0  0  0  0  0  0  0  0  0  0
   59.5075   34.9299   44.1537 H   0  0  0  0  0  0  0  0  0  0  0  0
   59.9620   32.4740   45.2560 H   0  0  0  0  0  0  0  0  0  0  0  0
   56.8039   31.5628   43.7202 H   0  0  0  0  0  0  0  0  0  0  0  0
   55.8027   29.2837   43.7782 H   0  0  0  0  0  0  0  0  0  0  0  0
   54.4036   25.2588   46.3830 H   0  0  0  0  0  0  0  0  0  0  0  0
   54.9318   25.4242   44.6607 H   0  0  0  0  0  0  0  0  0  0  0  0
   54.5120   22.8942   46.2992 H   0  0  0  0  0  0  0  0  0  0  0  0
   53.8100   23.3654   44.6942 H   0  0  0  0  0  0  0  0  0  0  0  0
   56.2721   24.1764   43.2324 H   0  0  0  0  0  0  0  0  0  0  0  0
   56.6777   22.5007   42.7280 H   0  0  0  0  0  0  0  0  0  0  0  0
   54.9673   23.0496   42.7280 H   0  0  0  0  0  0  0  0  0  0  0  0
   57.2351   21.7206   45.8420 H   0  0  0  0  0  0  0  0  0  0  0  0
   57.8629   22.9352   44.6233 H   0  0  0  0  0  0  0  0  0  0  0  0
   56.7169   23.4057   47.3824 H   0  0  0  0  0  0  0  0  0  0  0  0
   58.2295   24.0351   46.6284 H   0  0  0  0  0  0  0  0  0  0  0  0
   58.6163   25.7318   47.5251 H   0  0  0  0  0  0  0  0  0  0  0  0
   59.6996   27.9676   48.8538 H   0  0  0  0  0  0  0  0  0  0  0  0
   60.7814   27.2609   47.6061 H   0  0  0  0  0  0  0  0  0  0  0  0
   60.4425   29.0249   47.6061 H   0  0  0  0  0  0  0  0  0  0  0  0
   59.7464   30.3559   46.6570 H   0  0  0  0  0  0  0  0  0  0  0  0
   58.6086   34.0233   48.2399 H   0  0  0  0  0  0  0  0  0  0  0  0
  1  2  1  0
  2  3  1  0
  3  4  2  0
  4  5  1  0
  5  6  2  0
  6  7  1  0
  7  8  1  0
  8  9  1  0
  9 10  1  0
 10 11  2  0
 10 12  1  0
 12 13  1  0
 13 14  2  0
 14 15  1  0
 15 16  2  0
 16 17  1  0
 17 18  2  0
 18 19  1  0
 19 20  1  0
 20 21  1  0
 21 22  1  0
 22 23  1  0
 22 24  1  0
 24 25  1  0
 18 26  1  0
 26 27  2  0
 27 28  1  0
 27 29  1  0
 29 30  2  0
  7 31  2  0
 31  3  1  0
 30 13  1  0
 29 16  1  0
 25 19  1  0
  1 32  1  0
  1 33  1  0
  1 34  1  0
  4 35  1  0
  5 36  1  0
  6 37  1  0
  9 38  1  0
  9 39  1  0
 12 40  1  0
 14 41  1  0
 15 42  1  0
 20 43  1  0
 20 44  1  0
 21 45  1  0
 21 46  1  0
 23 47  1  0
 23 48  1  0
 23 49  1  0
 24 50  1  0
 24 51  1  0
 25 52  1  0
 25 53  1  0
 26 54  1  0
 28 55  1  0
 28 56  1  0
 28 57  1  0
 30 58  1  0
 31 59  1  0
M  END
>  <UniqueID>  (14) 
13

>  <SMILES>  (14) 
COc1cccc(OCC(=O)Nc2ccc3nc(N4CCN(C)CC4)cc(C)c3c2)c1

>  <Energy>  (14) 
78.210822901465

>  <Genealogy>  (14) 
COc1cccc(OCC(=O)Nc2ccc3nc(N4CCN(C)CC4)cc(C)c3c2)c1 (3D coordinates assigned)
COc1cccc(OCC(=O)Nc2ccc3nc(N4CCN(C)CC4)cc(C)c3c2)c1 (nonaromatic ring conformer: 78.210822901465 kcal/mol)

>  <smiles>  (14) 
COc1cccc(OCC(=O)Nc2ccc3nc(N4CCN(C)CC4)cc(C)c3c2)c1

>  <score_type>  (14) 
oracle

>  <origin>  (14) 
adg

>  <m_score__min__energy>  (14) 
-7.9500000000000002

>  <m_primary>  (14) 
energy

$$$$
14:0
     RDKit          3D

 25 26  0  0  0  0  0  0  0  0999 V2000
   55.1360   29.3200   44.8050 N   0  0  0  0  0  0  0  0  0  0  0  0
   56.5190   29.6470   44.9300 C   0  0  0  0  0  0  0  0  0  0  0  0
   56.8750   30.8530   44.8300 O   0  0  0  0  0  0  0  0  0  0  0  0
   57.5250   28.5880   45.1720 C   0  0  0  0  0  0  0  0  0  0  0  0
   58.8900   28.8270   44.9260 C   0  0  0  0  0  0  0  0  0  0  0  0
   59.8380   27.8280   45.1630 C   0  0  0  0  0  0  0  0  0  0  0  0
   59.4390   26.5800   45.6430 C   0  0  0  0  0  0  0  0  0  0  0  0
   58.0820   26.3170   45.8830 C   0  0  0  0  0  0  0  0  0  0  0  0
   57.6570   24.9840   46.4370 C   0  0  0  0  0  0  0  0  0  0  0  0
   56.9370   24.1950   45.3880 C   0  0  0  0  0  0  0  0  0  0  0  0
   57.6780   23.2520   44.2050 S   0  0  0  0  0  0  0  0  0  0  0  0
   56.2060   22.7060   43.6030 C   0  0  0  0  0  0  0  0  0  0  0  0
   56.0870   21.9150   42.6330 O   0  0  0  0  0  0  0  0  0  0  0  0
   55.1500   23.2050   44.2790 N   0  0  0  0  0  0  0  0  0  0  0  0
   55.5580   24.0300   45.2800 C   0  0  0  0  0  0  0  0  0  0  0  0
   54.6520   24.6570   46.1310 O   0  0  0  0  0  0  0  0  0  0  0  0
   57.1320   27.3250   45.6540 C   0  0  0  0  0  0  0  0  0  0  0  0
   54.5000   29.3480   45.6330 H   0  0  0  0  0  0  0  0  0  0  0  0
   59.2129   29.8069   44.5445 H   0  0  0  0  0  0  0  0  0  0  0  0
   60.9027   28.0262   44.9704 H   0  0  0  0  0  0  0  0  0  0  0  0
   60.1908   25.8000   45.8338 H   0  0  0  0  0  0  0  0  0  0  0  0
   58.5466   24.4262   46.7647 H   0  0  0  0  0  0  0  0  0  0  0  0
   56.9819   25.1480   47.2898 H   0  0  0  0  0  0  0  0  0  0  0  0
   54.6640   24.4710   47.1260 H   0  0  0  0  0  0  0  0  0  0  0  0
   56.0687   27.1257   45.8534 H   0  0  0  0  0  0  0  0  0  0  0  0
  1  2  1  0
  2  3  2  0
  2  4  1  0
  4  5  2  0
  5  6  1  0
  6  7  2  0
  7  8  1  0
  8  9  1  0
  9 10  1  0
 10 11  1  0
 11 12  1  0
 12 13  2  0
 12 14  1  0
 14 15  1  0
 15 16  1  0
  8 17  2  0
 17  4  1  0
 15 10  2  0
  1 18  1  0
  5 19  1  0
  6 20  1  0
  7 21  1  0
  9 22  1  0
  9 23  1  0
 16 24  1  0
 17 25  1  0
M  CHG  2   1  -1  14  -1
M  END
>  <UniqueID>  (15) 
14

>  <SMILES>  (15) 
[NH-]C(=O)c1cccc(Cc2sc(=O)[n-]c2O)c1

>  <Energy>  (15) 
53.92344984557886

>  <Genealogy>  (15) 
[NH-]C(=O)c1cccc(Cc2sc(=O)[n-]c2O)c1 (protonated)
[NH-]C(=O)c1cccc(Cc2sc(=O)[n-]c2O)c1 (3D coordinates assigned)
[NH-]C(=O)c1cccc(Cc2sc(=O)[n-]c2O)c1 (optimized conformer: 53.92344984557886 kcal/mol)

>  <smiles>  (15) 
NC(=O)c1cccc(Cc2sc(=O)[nH]c2O)c1

>  <score_type>  (15) 
oracle

>  <origin>  (15) 
adg

>  <m_score__min__energy>  (15) 
-12.35

>  <m_primary>  (15) 
energy

$$$$
15:0
     RDKit          3D

 37 39  0  0  0  0  0  0  0  0999 V2000
   55.5340   29.7200   44.5410 C   0  0  0  0  0  0  0  0  0  0  0  0
   56.9800   29.5880   44.9290 C   0  0  0  0  0  0  0  0  0  0  0  0
   57.9390   30.5850   44.6940 C   0  0  0  0  0  0  0  0  0  0  0  0
   57.7520   31.8380   43.9470 C   0  0  0  0  0  0  0  0  0  0  0  0
   58.1750   31.9120   42.7650 O   0  0  0  0  0  0  0  0  0  0  0  0
   57.0410   32.9530   44.5040 N   0  0  0  0  0  0  0  0  0  0  0  0
   57.6430   34.1920   44.9940 C   0  0  0  0  0  0  0  0  0  0  0  0
   58.6530   33.9170   46.0780 C   0  0  0  0  0  0  0  0  0  0  0  0
   59.9930   34.3020   45.9100 C   0  0  0  0  0  0  0  0  0  0  0  0
   60.9230   34.0770   46.9300 C   0  0  0  0  0  0  0  0  0  0  0  0
   60.5240   33.4620   48.1200 C   0  0  0  0  0  0  0  0  0  0  0  0
   59.1940   33.0650   48.2890 C   0  0  0  0  0  0  0  0  0  0  0  0
   58.2620   33.2840   47.2720 C   0  0  0  0  0  0  0  0  0  0  0  0
   59.4210   30.1170   45.3470 S   0  0  0  0  0  0  0  0  0  0  0  0
   58.8750   28.6380   45.9100 C   0  0  0  0  0  0  0  0  0  0  0  0
   59.6190   27.6650   46.5620 C   0  0  0  0  0  0  0  0  0  0  0  0
   58.9770   26.4870   46.9520 C   0  0  0  0  0  0  0  0  0  0  0  0
   57.6040   26.2880   46.6900 C   0  0  0  0  0  0  0  0  0  0  0  0
   56.9740   25.0880   47.1650 N   0  0  0  0  0  0  0  0  0  0  0  0
   57.6440   24.2240   47.7690 O   0  0  0  0  0  0  0  0  0  0  0  0
   55.7040   24.7670   46.7450 O   0  0  0  0  0  0  0  0  0  0  0  0
   56.8710   27.2820   45.9830 C   0  0  0  0  0  0  0  0  0  0  0  0
   55.5390   27.0790   45.6140 O   0  0  0  0  0  0  0  0  0  0  0  0
   57.5260   28.4760   45.6150 C   0  0  0  0  0  0  0  0  0  0  0  0
   54.9146   29.7765   45.4483 H   0  0  0  0  0  0  0  0  0  0  0  0
   55.3962   30.6345   43.9454 H   0  0  0  0  0  0  0  0  0  0  0  0
   55.2329   28.8456   43.9454 H   0  0  0  0  0  0  0  0  0  0  0  0
   58.1440   34.7023   44.1582 H   0  0  0  0  0  0  0  0  0  0  0  0
   56.8461   34.8238   45.4133 H   0  0  0  0  0  0  0  0  0  0  0  0
   60.3122   34.7821   44.9732 H   0  0  0  0  0  0  0  0  0  0  0  0
   61.9705   34.3846   46.7955 H   0  0  0  0  0  0  0  0  0  0  0  0
   61.2558   33.2904   48.9231 H   0  0  0  0  0  0  0  0  0  0  0  0
   58.8810   32.5791   49.2249 H   0  0  0  0  0  0  0  0  0  0  0  0
   57.2191   32.9605   47.4050 H   0  0  0  0  0  0  0  0  0  0  0  0
   60.6889   27.8175   46.7670 H   0  0  0  0  0  0  0  0  0  0  0  0
   59.5493   25.7036   47.4704 H   0  0  0  0  0  0  0  0  0  0  0  0
   55.2030   26.2220   45.1960 H   0  0  0  0  0  0  0  0  0  0  0  0
  1  2  1  0
  2  3  2  0
  3  4  1  0
  4  5  2  0
  4  6  1  0
  6  7  1  0
  7  8  1  0
  8  9  2  0
  9 10  1  0
 10 11  2  0
 11 12  1  0
 12 13  2  0
  3 14  1  0
 14 15  1  0
 15 16  2  0
 16 17  1  0
 17 18  2  0
 18 19  1  0
 19 20  2  0
 19 21  1  0
 18 22  1  0
 22 23  1  0
 22 24  2  0
 24  2  1  0
 13  8  1  0
 24 15  1  0
  1 25  1  0
  1 26  1  0
  1 27  1  0
  7 28  1  0
  7 29  1  0
  9 30  1  0
 10 31  1  0
 11 32  1  0
 12 33  1  0
 13 34  1  0
 16 35  1  0
 17 36  1  0
 23 37  1  0
M  CHG  3   6  -1  19   1  21  -1
M  END
>  <UniqueID>  (16) 
15

>  <SMILES>  (16) 
Cc1c(C(=O)[N-]Cc2ccccc2)sc2ccc([N+](=O)[O-])c(O)c12

>  <Energy>  (16) 
79.13818352115045

>  <Genealogy>  (16) 
Cc1c(C(=O)[N-]Cc2ccccc2)sc2ccc([N+](=O)[O-])c(O)c12 (protonated)
Cc1c(C(=O)[N-]Cc2ccccc2)sc2ccc([N+](=O)[O-])c(O)c12 (3D coordinates assigned)
Cc1c(C(=O)[N-]Cc2ccccc2)sc2ccc([N+](=O)[O-])c(O)c12 (optimized conformer: 79.13818352115045 kcal/mol)

>  <smiles>  (16) 
Cc1c(C(=O)NCc2ccccc2)sc2ccc([N+](=O)[O-])c(O)c12

>  <score_type>  (16) 
oracle

>  <origin>  (16) 
adg

>  <m_score__min__energy>  (16) 
-9.8699999999999992

>  <m_primary>  (16) 
energy

$$$$
16:0
     RDKit          3D

 31 32  0  0  0  0  0  0  0  0999 V2000
   63.1903   32.1674   47.3387 H   0  0  0  0  0  0  0  0  0  0  0  0
   62.1030   32.3010   47.2390 C   0  0  0  0  0  0  0  0  0  0  0  0
   61.2380   31.2690   47.6040 C   0  0  0  0  0  0  0  0  0  0  0  0
   61.6438   30.3224   47.9905 H   0  0  0  0  0  0  0  0  0  0  0  0
   59.8570   31.4370   47.4790 C   0  0  0  0  0  0  0  0  0  0  0  0
   59.1798   30.6206   47.7702 H   0  0  0  0  0  0  0  0  0  0  0  0
   59.3250   32.6410   46.9840 C   0  0  0  0  0  0  0  0  0  0  0  0
   57.8300   32.7820   46.8290 C   0  0  0  0  0  0  0  0  0  0  0  0
   57.5049   33.7091   47.3237 H   0  0  0  0  0  0  0  0  0  0  0  0
   57.3505   31.9051   47.2884 H   0  0  0  0  0  0  0  0  0  0  0  0
   57.3440   32.8460   45.0680 S   0  0  0  0  0  0  0  0  0  0  0  0
   57.4010   31.0740   44.8220 C   0  0  0  0  0  0  0  0  0  0  0  0
   56.3090   30.2800   44.8420 N   0  0  0  0  0  0  0  0  0  0  0  0
   56.5990   28.9960   44.6390 N   0  0  0  0  0  0  0  0  0  0  0  0
   55.8580   28.2610   44.6290 H   0  0  0  0  0  0  0  0  0  0  0  0
   57.9210   28.7690   44.4540 C   0  0  0  0  0  0  0  0  0  0  0  0
   58.4510   27.6010   44.2470 N   0  0  0  0  0  0  0  0  0  0  0  0
   57.7970   26.3300   44.5510 C   0  0  0  0  0  0  0  0  0  0  0  0
   58.4269   25.5022   44.1932 H   0  0  0  0  0  0  0  0  0  0  0  0
   56.8184   26.3002   44.0495 H   0  0  0  0  0  0  0  0  0  0  0  0
   57.5900   26.1920   46.0590 C   0  0  0  0  0  0  0  0  0  0  0  0
   57.8603   27.1404   46.5462 H   0  0  0  0  0  0  0  0  0  0  0  0
   58.2266   25.3724   46.4237 H   0  0  0  0  0  0  0  0  0  0  0  0
   56.1650   25.8650   46.3840 C   0  0  0  0  0  0  0  0  0  0  0  0
   55.8830   24.7990   46.9910 O   0  0  0  0  0  0  0  0  0  0  0  0
   55.1450   26.7140   45.9740 O   0  0  0  0  0  0  0  0  0  0  0  0
   58.8110   30.1930   44.5330 S   0  0  0  0  0  0  0  0  0  0  0  0
   60.2070   33.6820   46.6160 C   0  0  0  0  0  0  0  0  0  0  0  0
   59.6190   35.2200   45.9920 Cl  0  0  0  0  0  0  0  0  0  0  0  0
   61.5900   33.5040   46.7470 C   0  0  0  0  0  0  0  0  0  0  0  0
   62.2757   34.3152   46.4612 H   0  0  0  0  0  0  0  0  0  0  0  0
  1  2  1  0
  2  3  2  0
  3  4  1  0
  3  5  1  0
  5  6  1  0
  5  7  2  0
  7  8  1  0
  8  9  1  0
  8 10  1  0
  8 11  1  0
 11 12  1  0
 12 13  2  0
 13 14  1  0
 14 15  1  0
 14 16  1  0
 16 17  2  0
 17 18  1  0
 18 19  1  0
 18 20  1  0
 18 21  1  0
 21 22  1  0
 21 23  1  0
 21 24  1  0
 24 25  2  0
 24 26  1  0
 16 27  1  0
  7 28  1  0
 28 29  1  0
 28 30  2  0
 30 31  1  0
 30  2  1  0
 27 12  1  0
M  CHG  1  26  -1
M  END
>  <UniqueID>  (17) 
16

>  <SMILES>  (17) 
O=C([O-])CC/N=c1\[nH]nc(SCc2ccccc2Cl)s1

>  <Energy>  (17) 
58.04408373781359

>  <Genealogy>  (17) 
O=C([O-])CCN=c1[nH]nc(SCc2ccccc2Cl)s1 (protonated)
O=C([O-])CC/N=c1\[nH]nc(SCc2ccccc2Cl)s1 (cis-trans isomerization)
O=C([O-])CC/N=c1\[nH]nc(SCc2ccccc2Cl)s1 (3D coordinates assigned)
O=C([O-])CC/N=c1\[nH]nc(SCc2ccccc2Cl)s1 (optimized conformer: 58.04408373781359 kcal/mol)

>  <smiles>  (17) 
O=C(O)CCN=c1[nH]nc(SCc2ccccc2Cl)s1

>  <score_type>  (17) 
oracle

>  <origin>  (17) 
adg

>  <m_score__min__energy>  (17) 
-11.050000000000001

>  <m_primary>  (17) 
energy

$$$$
17:0
     RDKit          3D

 37 39  0  0  0  0  0  0  0  0999 V2000
   58.1100   26.9840   42.6430 C   0  0  0  0  0  0  0  0  0  0  0  0
   58.8670   27.0860   43.7390 C   0  0  0  0  0  0  0  0  0  0  0  0
   58.7880   26.0760   44.8480 C   0  0  0  0  0  0  0  0  0  0  0  0
   57.4400   26.0540   45.4270 N   0  0  0  0  0  0  0  0  0  0  0  0
   56.6680   27.1040   45.7810 C   0  0  0  0  0  0  0  0  0  0  0  0
   57.0870   28.5180   45.7330 C   0  0  0  0  0  0  0  0  0  0  0  0
   56.2860   29.4760   45.0950 C   0  0  0  0  0  0  0  0  0  0  0  0
   55.1000   29.0990   44.4690 O   0  0  0  0  0  0  0  0  0  0  0  0
   56.6720   30.7780   45.0690 N   0  0  0  0  0  0  0  0  0  0  0  0
   57.8300   31.2080   45.6380 C   0  0  0  0  0  0  0  0  0  0  0  0
   58.1850   32.5690   45.5820 C   0  0  0  0  0  0  0  0  0  0  0  0
   57.2950   33.5650   44.8890 C   0  0  0  0  0  0  0  0  0  0  0  0
   59.3890   32.9940   46.1670 C   0  0  0  0  0  0  0  0  0  0  0  0
   60.2280   32.0820   46.8200 C   0  0  0  0  0  0  0  0  0  0  0  0
   61.5300   32.5430   47.4070 C   0  0  0  0  0  0  0  0  0  0  0  0
   59.8810   30.7240   46.8610 C   0  0  0  0  0  0  0  0  0  0  0  0
   58.6810   30.2780   46.2800 C   0  0  0  0  0  0  0  0  0  0  0  0
   58.3000   28.9210   46.3200 C   0  0  0  0  0  0  0  0  0  0  0  0
   59.0360   28.0690   46.8900 O   0  0  0  0  0  0  0  0  0  0  0  0
   55.4230   26.7130   46.1190 N   0  0  0  0  0  0  0  0  0  0  0  0
   55.3830   25.3940   45.9930 N   0  0  0  0  0  0  0  0  0  0  0  0
   56.5990   25.0060   45.5700 C   0  0  0  0  0  0  0  0  0  0  0  0
   56.9730   23.4460   45.2380 S   0  0  0  0  0  0  0  0  0  0  0  0
   58.1898   27.7392   41.8472 H   0  0  0  0  0  0  0  0  0  0  0  0
   57.4069   26.1448   42.5363 H   0  0  0  0  0  0  0  0  0  0  0  0
   59.5656   27.9307   43.8316 H   0  0  0  0  0  0  0  0  0  0  0  0
   59.0266   25.0795   44.4479 H   0  0  0  0  0  0  0  0  0  0  0  0
   59.5081   26.3516   45.6326 H   0  0  0  0  0  0  0  0  0  0  0  0
   54.7780   28.1390   44.4990 H   0  0  0  0  0  0  0  0  0  0  0  0
   56.7599   34.1638   45.6407 H   0  0  0  0  0  0  0  0  0  0  0  0
   57.9070   34.2281   44.2599 H   0  0  0  0  0  0  0  0  0  0  0  0
   56.5675   33.0312   44.2599 H   0  0  0  0  0  0  0  0  0  0  0  0
   59.6762   34.0544   46.1118 H   0  0  0  0  0  0  0  0  0  0  0  0
   61.4657   32.5202   48.5049 H   0  0  0  0  0  0  0  0  0  0  0  0
   62.3391   31.8767   47.0732 H   0  0  0  0  0  0  0  0  0  0  0  0
   61.7395   33.5700   47.0732 H   0  0  0  0  0  0  0  0  0  0  0  0
   60.5520   30.0031   47.3509 H   0  0  0  0  0  0  0  0  0  0  0  0
  1  2  2  0
  2  3  1  0
  3  4  1  0
  4  5  1  0
  5  6  1  0
  6  7  2  0
  7  8  1  0
  7  9  1  0
  9 10  1  0
 10 11  2  0
 11 12  1  0
 11 13  1  0
 13 14  2  0
 14 15  1  0
 14 16  1  0
 16 17  2  0
 17 18  1  0
 18 19  2  0
  5 20  2  0
 20 21  1  0
 21 22  1  0
 22 23  2  0
 22  4  1  0
 18  6  1  0
 17 10  1  0
  1 24  1  0
  1 25  1  0
  2 26  1  0
  3 27  1  0
  3 28  1  0
  8 29  1  0
 12 30  1  0
 12 31  1  0
 12 32  1  0
 13 33  1  0
 15 34  1  0
 15 35  1  0
 15 36  1  0
 16 37  1  0
M  CHG  2   9  -1  21  -1
M  END
>  <UniqueID>  (18) 
17

>  <SMILES>  (18) 
C=CCn1c(-c2c(O)[n-]c3c(C)cc(C)cc3c2=O)n[n-]c1=S

>  <Energy>  (18) 
82.40455238137778

>  <Genealogy>  (18) 
C=CCn1c(-c2c(O)[n-]c3c(C)cc(C)cc3c2=O)n[n-]c1=S (protonated)
C=CCn1c(-c2c(O)[n-]c3c(C)cc(C)cc3c2=O)n[n-]c1=S (3D coordinates assigned)
C=CCn1c(-c2c(O)[n-]c3c(C)cc(C)cc3c2=O)n[n-]c1=S (optimized conformer: 82.40455238137778 kcal/mol)

>  <smiles>  (18) 
C=CCn1c(-c2c(O)[nH]c3c(C)cc(C)cc3c2=O)n[nH]c1=S

>  <score_type>  (18) 
oracle

>  <origin>  (18) 
adg

>  <m_score__min__energy>  (18) 
-11.99

>  <m_primary>  (18) 
energy

$$$$
18:0
     RDKit          3D

 44 46  0  0  0  0  0  0  0  0999 V2000
   56.5720   24.0550   44.0990 C   0  0  0  0  0  0  0  0  0  0  0  0
   55.0840   24.1000   44.4300 C   0  0  0  0  0  0  0  0  0  0  0  0
   54.8600   24.7100   45.7790 C   0  0  0  0  0  0  0  0  0  0  0  0
   54.5020   23.9800   46.7430 O   0  0  0  0  0  0  0  0  0  0  0  0
   55.1340   26.1020   45.9800 N   0  0  0  0  0  0  0  0  0  0  0  0
   56.4340   26.6700   46.2000 C   0  0  0  0  0  0  0  0  0  0  0  0
   56.7460   27.8820   45.5690 C   0  0  0  0  0  0  0  0  0  0  0  0
   58.0080   28.4660   45.7280 C   0  0  0  0  0  0  0  0  0  0  0  0
   58.2880   29.7110   45.0720 N   0  0  0  0  0  0  0  0  0  0  0  0
   57.3990   30.8320   44.9940 C   0  0  0  0  0  0  0  0  0  0  0  0
   56.2260   30.6500   44.5760 O   0  0  0  0  0  0  0  0  0  0  0  0
   57.8520   32.1980   45.3220 C   0  0  0  0  0  0  0  0  0  0  0  0
   57.9090   33.2290   44.3850 C   0  0  0  0  0  0  0  0  0  0  0  0
   58.5270   34.5920   45.1560 S   0  0  0  0  0  0  0  0  0  0  0  0
   58.6810   33.8190   46.6410 C   0  0  0  0  0  0  0  0  0  0  0  0
   59.3000   34.4220   47.8610 C   0  0  0  0  0  0  0  0  0  0  0  0
   60.7760   34.1380   47.8750 C   0  0  0  0  0  0  0  0  0  0  0  0
   61.4830   34.1120   49.0890 C   0  0  0  0  0  0  0  0  0  0  0  0
   62.8400   33.7750   49.1050 C   0  0  0  0  0  0  0  0  0  0  0  0
   63.4980   33.4570   47.9130 C   0  0  0  0  0  0  0  0  0  0  0  0
   62.7990   33.4740   46.7030 C   0  0  0  0  0  0  0  0  0  0  0  0
   61.4410   33.8110   46.6830 C   0  0  0  0  0  0  0  0  0  0  0  0
   58.2960   32.5280   46.5660 N   0  0  0  0  0  0  0  0  0  0  0  0
   58.9490   27.8570   46.5720 C   0  0  0  0  0  0  0  0  0  0  0  0
   58.6330   26.6690   47.2340 C   0  0  0  0  0  0  0  0  0  0  0  0
   57.3740   26.0780   47.0670 C   0  0  0  0  0  0  0  0  0  0  0  0
   57.0500   24.9280   47.7870 O   0  0  0  0  0  0  0  0  0  0  0  0
   57.1547   24.0374   45.0318 H   0  0  0  0  0  0  0  0  0  0  0  0
   56.7901   23.1498   43.5132 H   0  0  0  0  0  0  0  0  0  0  0  0
   56.8444   24.9453   43.5132 H   0  0  0  0  0  0  0  0  0  0  0  0
   54.5632   24.7018   43.6706 H   0  0  0  0  0  0  0  0  0  0  0  0
   54.6921   23.0722   44.4372 H   0  0  0  0  0  0  0  0  0  0  0  0
   55.9912   28.3794   44.9423 H   0  0  0  0  0  0  0  0  0  0  0  0
   57.6044   33.1635   43.3300 H   0  0  0  0  0  0  0  0  0  0  0  0
   59.1373   35.5099   47.8536 H   0  0  0  0  0  0  0  0  0  0  0  0
   58.8370   33.9846   48.7578 H   0  0  0  0  0  0  0  0  0  0  0  0
   60.9676   34.3574   50.0293 H   0  0  0  0  0  0  0  0  0  0  0  0
   63.3908   33.7601   50.0570 H   0  0  0  0  0  0  0  0  0  0  0  0
   64.5659   33.1934   47.9276 H   0  0  0  0  0  0  0  0  0  0  0  0
   63.3167   33.2223   45.7656 H   0  0  0  0  0  0  0  0  0  0  0  0
   60.8926   33.8197   45.7295 H   0  0  0  0  0  0  0  0  0  0  0  0
   59.9384   28.3168   46.7125 H   0  0  0  0  0  0  0  0  0  0  0  0
   59.3771   26.1943   47.8906 H   0  0  0  0  0  0  0  0  0  0  0  0
   56.1420   24.4880   47.7020 H   0  0  0  0  0  0  0  0  0  0  0  0
  1  2  1  0
  2  3  1  0
  3  4  2  0
  3  5  1  0
  5  6  1  0
  6  7  2  0
  7  8  1  0
  8  9  1  0
  9 10  1  0
 10 11  2  0
 10 12  1  0
 12 13  2  0
 13 14  1  0
 14 15  1  0
 15 16  1  0
 16 17  1  0
 17 18  2  0
 18 19  1  0
 19 20  2  0
 20 21  1  0
 21 22  2  0
 15 23  2  0
  8 24  2  0
 24 25  1  0
 25 26  2  0
 26 27  1  0
 26  6  1  0
 23 12  1  0
 22 17  1  0
  1 28  1  0
  1 29  1  0
  1 30  1  0
  2 31  1  0
  2 32  1  0
  7 33  1  0
 13 34  1  0
 16 35  1  0
 16 36  1  0
 18 37  1  0
 19 38  1  0
 20 39  1  0
 21 40  1  0
 22 41  1  0
 24 42  1  0
 25 43  1  0
 27 44  1  0
M  CHG  2   5  -1   9  -1
M  END
>  <UniqueID>  (19) 
18

>  <SMILES>  (19) 
CCC(=O)[N-]c1cc([N-]C(=O)c2csc(Cc3ccccc3)n2)ccc1O

>  <Energy>  (19) 
78.88227623043684

>  <Genealogy>  (19) 
CCC(=O)[N-]c1cc([N-]C(=O)c2csc(Cc3ccccc3)n2)ccc1O (protonated)
CCC(=O)[N-]c1cc([N-]C(=O)c2csc(Cc3ccccc3)n2)ccc1O (3D coordinates assigned)
CCC(=O)[N-]c1cc([N-]C(=O)c2csc(Cc3ccccc3)n2)ccc1O (optimized conformer: 78.88227623043684 kcal/mol)

>  <smiles>  (19) 
CCC(=O)Nc1cc(NC(=O)c2csc(Cc3ccccc3)n2)ccc1O

>  <score_type>  (19) 
oracle

>  <origin>  (19) 
adg

>  <m_score__min__energy>  (19) 
-12.619999999999999

>  <m_primary>  (19) 
energy

$$$$
19:0
     RDKit          3D

 43 45  0  0  0  0  0  0  0  0999 V2000
   57.1040   21.9520   47.0570 H   0  0  0  0  0  0  0  0  0  0  0  0
   57.0890   22.7870   47.6850 N   0  0  0  0  0  0  0  0  0  0  0  0
   57.1590   23.9890   47.2130 C   0  0  0  0  0  0  0  0  0  0  0  0
   56.0290   24.6490   46.8430 N   0  0  0  0  0  0  0  0  0  0  0  0
   56.0880   25.9130   46.3480 C   0  0  0  0  0  0  0  0  0  0  0  0
   54.9230   26.5700   45.9670 O   0  0  0  0  0  0  0  0  0  0  0  0
   54.0320   26.3340   46.3900 H   0  0  0  0  0  0  0  0  0  0  0  0
   57.3210   26.5530   46.2200 C   0  0  0  0  0  0  0  0  0  0  0  0
   57.3845   27.5772   45.8237 H   0  0  0  0  0  0  0  0  0  0  0  0
   58.4750   25.8630   46.6070 C   0  0  0  0  0  0  0  0  0  0  0  0
   59.8370   26.4800   46.4470 C   0  0  0  0  0  0  0  0  0  0  0  0
   60.1136   26.9765   47.3888 H   0  0  0  0  0  0  0  0  0  0  0  0
   60.5440   25.6758   46.1950 H   0  0  0  0  0  0  0  0  0  0  0  0
   59.8770   27.5150   45.3120 C   0  0  0  0  0  0  0  0  0  0  0  0
   60.8944   27.5447   44.8948 H   0  0  0  0  0  0  0  0  0  0  0  0
   59.1424   27.2121   44.5513 H   0  0  0  0  0  0  0  0  0  0  0  0
   59.5070   28.8970   45.7910 C   0  0  0  0  0  0  0  0  0  0  0  0
   59.7910   29.2920   47.1070 C   0  0  0  0  0  0  0  0  0  0  0  0
   60.2382   28.5737   47.8099 H   0  0  0  0  0  0  0  0  0  0  0  0
   59.5080   30.5950   47.5290 C   0  0  0  0  0  0  0  0  0  0  0  0
   59.7235   30.8927   48.5658 H   0  0  0  0  0  0  0  0  0  0  0  0
   58.9520   31.5230   46.6400 C   0  0  0  0  0  0  0  0  0  0  0  0
   58.6550   32.8460   47.1190 N   0  0  0  0  0  0  0  0  0  0  0  0
   59.4520   33.8780   47.1770 C   0  0  0  0  0  0  0  0  0  0  0  0
   60.9080   33.7570   47.4300 C   0  0  0  0  0  0  0  0  0  0  0  0
   61.4050   33.6010   48.7380 C   0  0  0  0  0  0  0  0  0  0  0  0
   60.7084   33.5608   49.5884 H   0  0  0  0  0  0  0  0  0  0  0  0
   62.7820   33.4970   48.9590 C   0  0  0  0  0  0  0  0  0  0  0  0
   63.1652   33.3676   49.9819 H   0  0  0  0  0  0  0  0  0  0  0  0
   63.6720   33.5570   47.8840 C   0  0  0  0  0  0  0  0  0  0  0  0
   64.7542   33.4688   48.0604 H   0  0  0  0  0  0  0  0  0  0  0  0
   63.1880   33.7290   46.5850 C   0  0  0  0  0  0  0  0  0  0  0  0
   63.8899   33.7811   45.7396 H   0  0  0  0  0  0  0  0  0  0  0  0
   61.8120   33.8350   46.3580 C   0  0  0  0  0  0  0  0  0  0  0  0
   61.4359   33.9802   45.3346 H   0  0  0  0  0  0  0  0  0  0  0  0
   58.8860   35.1840   47.0440 N   0  0  0  0  0  0  0  0  0  0  0  0
   59.4790   36.0370   47.1360 H   0  0  0  0  0  0  0  0  0  0  0  0
   57.8640   35.3010   46.8680 H   0  0  0  0  0  0  0  0  0  0  0  0
   58.6200   31.1130   45.3370 C   0  0  0  0  0  0  0  0  0  0  0  0
   58.1260   31.8163   44.6504 H   0  0  0  0  0  0  0  0  0  0  0  0
   58.9150   29.8160   44.9110 C   0  0  0  0  0  0  0  0  0  0  0  0
   58.6819   29.5130   43.8796 H   0  0  0  0  0  0  0  0  0  0  0  0
   58.3680   24.5950   47.0880 N   0  0  0  0  0  0  0  0  0  0  0  0
  1  2  1  0
  2  3  2  0
  3  4  1  0
  4  5  2  0
  5  6  1  0
  6  7  1  0
  5  8  1  0
  8  9  1  0
  8 10  2  0
 10 11  1  0
 11 12  1  0
 11 13  1  0
 11 14  1  0
 14 15  1  0
 14 16  1  0
 14 17  1  0
 17 18  2  0
 18 19  1  0
 18 20  1  0
 20 21  1  0
 20 22  2  0
 22 23  1  0
 23 24  2  0
 24 25  1  0
 25 26  2  0
 26 27  1  0
 26 28  1  0
 28 29  1  0
 28 30  2  0
 30 31  1  0
 30 32  1  0
 32 33  1  0
 32 34  2  0
 34 35  1  0
 24 36  1  0
 36 37  1  0
 36 38  1  0
 22 39  1  0
 39 40  1  0
 39 41  2  0
 41 42  1  0
 10 43  1  0
 43  3  1  0
 41 17  1  0
 34 25  1  0
M  CHG  1  43  -1
M  END
>  <UniqueID>  (20) 
19

>  <SMILES>  (20) 
[H]/N=c1\nc(O)cc(CCc2ccc(/N=C(/N)c3ccccc3)cc2)[n-]1

>  <Energy>  (20) 
50.48764655923677

>  <Genealogy>  (20) 
N=c1nc(O)cc(CCc2ccc(N=C(N)c3ccccc3)cc2)[n-]1 (protonated)
[H]/N=c1\nc(O)cc(CCc2ccc(/N=C(/N)c3ccccc3)cc2)[n-]1 (cis-trans isomerization)
[H]/N=c1\nc(O)cc(CCc2ccc(/N=C(/N)c3ccccc3)cc2)[n-]1 (3D coordinates assigned)
[H]/N=c1\nc(O)cc(CCc2ccc(/N=C(/N)c3ccccc3)cc2)[n-]1 (optimized conformer: 50.48764655923677 kcal/mol)

>  <smiles>  (20) 
N=c1nc(O)cc(CCc2ccc(N=C(N)c3ccccc3)cc2)[nH]1

>  <score_type>  (20) 
oracle

>  <origin>  (20) 
adg

>  <m_score__min__energy>  (20) 
-10.48

>  <m_primary>  (20) 
energy

$$$$
20:0
     RDKit          3D

 26 28  0  0  0  0  0  0  0  0999 V2000
   59.7942   25.2001   46.5568 H   0  0  0  0  0  0  0  0  0  0  0  0
   58.7480   25.5250   46.4570 C   0  0  0  0  0  0  0  0  0  0  0  0
   58.4390   26.5820   45.6620 N   0  0  0  0  0  0  0  0  0  0  0  0
   57.1630   27.0330   45.5010 C   0  0  0  0  0  0  0  0  0  0  0  0
   56.9770   28.0620   44.7210 N   0  0  0  0  0  0  0  0  0  0  0  0
   56.8730   29.4420   45.0950 C   0  0  0  0  0  0  0  0  0  0  0  0
   55.7860   30.0480   44.9050 O   0  0  0  0  0  0  0  0  0  0  0  0
   58.0430   30.1750   45.6120 C   0  0  0  0  0  0  0  0  0  0  0  0
   59.4160   29.4570   46.3050 S   0  0  0  0  0  0  0  0  0  0  0  0
   60.1940   30.9140   46.5830 C   0  0  0  0  0  0  0  0  0  0  0  0
   61.4090   31.0960   47.1500 N   0  0  0  0  0  0  0  0  0  0  0  0
   61.8830   32.3660   47.2950 C   0  0  0  0  0  0  0  0  0  0  0  0
   63.4560   32.6210   48.0260 Cl  0  0  0  0  0  0  0  0  0  0  0  0
   61.1390   33.4360   46.8730 N   0  0  0  0  0  0  0  0  0  0  0  0
   61.5200   34.4010   46.9930 H   0  0  0  0  0  0  0  0  0  0  0  0
   59.9110   33.2660   46.3000 C   0  0  0  0  0  0  0  0  0  0  0  0
   58.9870   34.6640   45.7710 Cl  0  0  0  0  0  0  0  0  0  0  0  0
   59.4190   31.9670   46.1480 C   0  0  0  0  0  0  0  0  0  0  0  0
   58.1980   31.5640   45.5930 C   0  0  0  0  0  0  0  0  0  0  0  0
   57.4480   32.2598   45.1890 H   0  0  0  0  0  0  0  0  0  0  0  0
   56.1120   26.3490   46.1660 C   0  0  0  0  0  0  0  0  0  0  0  0
   54.7750   26.6970   45.9990 O   0  0  0  0  0  0  0  0  0  0  0  0
   56.4200   25.2680   46.9950 C   0  0  0  0  0  0  0  0  0  0  0  0
   55.6160   24.7426   47.5311 H   0  0  0  0  0  0  0  0  0  0  0  0
   57.7420   24.8520   47.1460 C   0  0  0  0  0  0  0  0  0  0  0  0
   57.9874   24.0030   47.8010 H   0  0  0  0  0  0  0  0  0  0  0  0
  1  2  1  0
  2  3  1  0
  3  4  1  0
  4  5  2  0
  5  6  1  0
  6  7  2  0
  6  8  1  0
  8  9  1  0
  9 10  1  0
 10 11  2  0
 11 12  1  0
 12 13  1  0
 12 14  2  0
 14 15  1  0
 14 16  1  0
 16 17  1  0
 16 18  2  0
 18 19  1  0
 19 20  1  0
  4 21  1  0
 21 22  1  0
 21 23  2  0
 23 24  1  0
 23 25  1  0
 25 26  1  0
 25  2  2  0
 19  8  2  0
 18 10  1  0
M  CHG  3   3  -1  14   1  22  -1
M  END
>  <UniqueID>  (21) 
20

>  <SMILES>  (21) 
O=C(/N=c1/[n-]cccc1[O-])c1cc2c(Cl)[nH+]c(Cl)nc2s1

>  <Energy>  (21) 
75.14995549240375

>  <Genealogy>  (21) 
O=C(N=c1[n-]cccc1[O-])c1cc2c(Cl)[nH+]c(Cl)nc2s1 (protonated)
O=C(/N=c1/[n-]cccc1[O-])c1cc2c(Cl)[nH+]c(Cl)nc2s1 (cis-trans isomerization)
O=C(/N=c1/[n-]cccc1[O-])c1cc2c(Cl)[nH+]c(Cl)nc2s1 (3D coordinates assigned)
O=C(/N=c1/[n-]cccc1[O-])c1cc2c(Cl)[nH+]c(Cl)nc2s1 (optimized conformer: 75.14995549240375 kcal/mol)

>  <smiles>  (21) 
O=C(N=c1[nH]cccc1O)c1cc2c(Cl)nc(Cl)nc2s1

>  <score_type>  (21) 
oracle

>  <origin>  (21) 
adg

>  <m_score__min__energy>  (21) 
-11.67

>  <m_primary>  (21) 
energy

$$$$
21:0
     RDKit          3D

 64 68  0  0  0  0  0  0  0  0999 V2000
   54.0220   26.3110   46.3800 H   0  0  0  0  0  0  0  0  0  0  0  0
   54.6990   26.0370   45.7080 O   0  0  0  0  0  0  0  0  0  0  0  0
   55.9450   26.1890   46.3280 C   0  0  0  0  0  0  0  0  0  0  0  0
   55.8221   26.1041   47.4178 H   0  0  0  0  0  0  0  0  0  0  0  0
   56.3559   27.1773   46.0741 H   0  0  0  0  0  0  0  0  0  0  0  0
   56.9150   25.0980   45.8380 C   0  0  1  0  0  0  0  0  0  0  0  0
   56.7340   25.0484   44.7541 H   0  0  0  0  0  0  0  0  0  0  0  0
   58.3410   25.4200   46.0260 N   0  0  0  0  0  0  0  0  0  0  0  0
   58.8060   26.5930   46.7080 C   0  0  0  0  0  0  0  0  0  0  0  0
   59.4560   26.4720   47.8950 N   0  0  0  0  0  0  0  0  0  0  0  0
   59.9480   27.5510   48.5660 C   0  0  0  0  0  0  0  0  0  0  0  0
   60.5960   27.4060   49.6860 N   0  0  0  0  0  0  0  0  0  0  0  0
   60.6480   28.3730   50.7440 C   0  0  0  0  0  0  0  0  0  0  0  0
   60.9540   27.9960   51.9060 O   0  0  0  0  0  0  0  0  0  0  0  0
   60.4480   29.7670   50.4710 N   0  0  0  0  0  0  0  0  0  0  0  0
   60.7760   30.1260   49.5460 H   0  0  0  0  0  0  0  0  0  0  0  0
   59.9930   30.7160   51.4500 C   0  0  0  0  0  0  0  0  0  0  0  0
   60.9030   31.2160   52.3940 C   0  0  0  0  0  0  0  0  0  0  0  0
   61.9442   30.8612   52.3898 H   0  0  0  0  0  0  0  0  0  0  0  0
   60.4960   32.1620   53.3400 C   0  0  0  0  0  0  0  0  0  0  0  0
   61.2122   32.5370   54.0859 H   0  0  0  0  0  0  0  0  0  0  0  0
   59.1800   32.6310   53.3380 C   0  0  0  0  0  0  0  0  0  0  0  0
   58.7870   33.5520   54.2530 F   0  0  0  0  0  0  0  0  0  0  0  0
   58.2710   32.1600   52.3860 C   0  0  0  0  0  0  0  0  0  0  0  0
   57.2375   32.5365   52.3813 H   0  0  0  0  0  0  0  0  0  0  0  0
   58.6720   31.2110   51.4390 C   0  0  0  0  0  0  0  0  0  0  0  0
   57.7870   30.8170   50.4890 F   0  0  0  0  0  0  0  0  0  0  0  0
   59.7950   28.8300   48.0200 C   0  0  0  0  0  0  0  0  0  0  0  0
   60.1911   29.7075   48.5521 H   0  0  0  0  0  0  0  0  0  0  0  0
   59.1350   28.9910   46.7920 C   0  0  0  0  0  0  0  0  0  0  0  0
   58.9380   30.3350   46.2040 C   0  0  0  0  0  0  0  0  0  0  0  0
   58.3150   30.6980   45.0030 C   0  0  0  0  0  0  0  0  0  0  0  0
   57.6830   29.7810   44.0080 C   0  0  0  0  0  0  0  0  0  0  0  0
   57.1357   28.9869   44.5371 H   0  0  0  0  0  0  0  0  0  0  0  0
   56.9844   30.3500   43.3770 H   0  0  0  0  0  0  0  0  0  0  0  0
   58.4634   29.3306   43.3770 H   0  0  0  0  0  0  0  0  0  0  0  0
   58.3510   32.0430   44.8430 N   0  0  0  0  0  0  0  0  0  0  0  0
   58.9620   32.5390   45.9050 N   0  0  0  0  0  0  0  0  0  0  0  0
   59.2270   33.8460   46.1710 C   0  0  0  0  0  0  0  0  0  0  0  0
   58.8090   34.9330   45.2230 C   0  0  0  0  0  0  0  0  0  0  0  0
   58.8948   35.9060   45.7289 H   0  0  0  0  0  0  0  0  0  0  0  0
   57.4990   34.7270   44.8310 F   0  0  0  0  0  0  0  0  0  0  0  0
   59.6270   34.9200   44.1070 F   0  0  0  0  0  0  0  0  0  0  0  0
   59.9020   34.1430   47.3690 C   0  0  0  0  0  0  0  0  0  0  0  0
   60.1446   35.1838   47.6297 H   0  0  0  0  0  0  0  0  0  0  0  0
   60.2640   33.0840   48.2330 C   0  0  0  0  0  0  0  0  0  0  0  0
   61.0040   33.3660   49.5010 C   0  0  0  0  0  0  0  0  0  0  0  0
   60.3635   33.1219   50.3614 H   0  0  0  0  0  0  0  0  0  0  0  0
   61.9163   32.7525   49.5373 H   0  0  0  0  0  0  0  0  0  0  0  0
   61.2767   34.4311   49.5373 H   0  0  0  0  0  0  0  0  0  0  0  0
   59.9760   31.7940   47.8940 N   0  0  0  0  0  0  0  0  0  0  0  0
   59.3170   31.5500   46.7340 C   0  0  0  0  0  0  0  0  0  0  0  0
   58.6400   27.8560   46.1320 C   0  0  0  0  0  0  0  0  0  0  0  0
   58.1239   27.9595   45.1661 H   0  0  0  0  0  0  0  0  0  0  0  0
   59.3250   24.4080   45.6270 C   0  0  0  0  0  0  0  0  0  0  0  0
   59.7404   24.6712   44.6430 H   0  0  0  0  0  0  0  0  0  0  0  0
   60.1318   24.3730   46.3739 H   0  0  0  0  0  0  0  0  0  0  0  0
   58.6540   23.0320   45.5440 C   0  0  0  0  0  0  0  0  0  0  0  0
   58.1023   22.9499   44.5959 H   0  0  0  0  0  0  0  0  0  0  0  0
   59.4225   22.2463   45.5908 H   0  0  0  0  0  0  0  0  0  0  0  0
   57.7560   22.8780   46.6270 O   0  0  0  0  0  0  0  0  0  0  0  0
   56.6150   23.7200   46.4880 C   0  0  0  0  0  0  0  0  0  0  0  0
   55.8752   23.1979   45.8634 H   0  0  0  0  0  0  0  0  0  0  0  0
   56.2474   23.9238   47.5045 H   0  0  0  0  0  0  0  0  0  0  0  0
  1  2  1  0
  2  3  1  0
  3  4  1  0
  3  5  1  0
  3  6  1  0
  6  7  1  6
  6  8  1  0
  8  9  1  0
  9 10  1  0
 10 11  1  0
 11 12  2  0
 12 13  1  0
 13 14  2  0
 13 15  1  0
 15 16  1  0
 15 17  1  0
 17 18  2  0
 18 19  1  0
 18 20  1  0
 20 21  1  0
 20 22  2  0
 22 23  1  0
 22 24  1  0
 24 25  1  0
 24 26  2  0
 26 27  1  0
 11 28  1  0
 28 29  1  0
 28 30  2  0
 30 31  1  0
 31 32  1  0
 32 33  1  0
 33 34  1  0
 33 35  1  0
 33 36  1  0
 32 37  2  0
 37 38  1  0
 38 39  1  0
 39 40  1  0
 40 41  1  0
 40 42  1  0
 40 43  1  0
 39 44  2  0
 44 45  1  0
 44 46  1  0
 46 47  1  0
 47 48  1  0
 47 49  1  0
 47 50  1  0
 46 51  2  0
 51 52  1  0
 30 53  1  0
 53 54  1  0
  8 55  1  0
 55 56  1  0
 55 57  1  0
 55 58  1  0
 58 59  1  0
 58 60  1  0
 58 61  1  0
 61 62  1  0
 62 63  1  0
 62 64  1  0
 62  6  1  0
 53  9  2  0
 26 17  1  0
 52 31  2  0
 52 38  1  0
M  CHG  1  10  -1
M  END
>  <UniqueID>  (22) 
21

>  <SMILES>  (22) 
Cc1cc(C(F)F)n2nc(C)c(-c3cc(N4CCOC[C@H]4CO)[n-]/c(=N\C(=O)Nc4ccc(F)cc4F)c3)c2n1

>  <Energy>  (22) 
129.78851529505258

>  <Genealogy>  (22) 
Cc1cc(C(F)F)n2nc(C)c(-c3cc(N4CCOCC4CO)[n-]c(=NC(=O)Nc4ccc(F)cc4F)c3)c2n1 (protonated)
Cc1cc(C(F)F)n2nc(C)c(-c3cc(N4CCOC[C@H]4CO)[n-]c(=NC(=O)Nc4ccc(F)cc4F)c3)c2n1 (chirality)
Cc1cc(C(F)F)n2nc(C)c(-c3cc(N4CCOC[C@H]4CO)[n-]/c(=N\C(=O)Nc4ccc(F)cc4F)c3)c2n1 (cis-trans isomerization)
Cc1cc(C(F)F)n2nc(C)c(-c3cc(N4CCOC[C@H]4CO)[n-]/c(=N\C(=O)Nc4ccc(F)cc4F)c3)c2n1 (3D coordinates assigned)
Cc1cc(C(F)F)n2nc(C)c(-c3cc(N4CCOC[C@H]4CO)[n-]/c(=N\C(=O)Nc4ccc(F)cc4F)c3)c2n1 (nonaromatic ring conformer: 129.78851529505258 kcal/mol)

>  <smiles>  (22) 
Cc1cc(C(F)F)n2nc(C)c(-c3cc(N4CCOCC4CO)[nH]c(=NC(=O)Nc4ccc(F)cc4F)c3)c2n1

>  <score_type>  (22) 
oracle

>  <origin>  (22) 
adg

>  <m_score__min__energy>  (22) 
-12.109999999999999

>  <m_primary>  (22) 
energy

$$$$
22:0
     RDKit          3D

 57 60  0  0  0  0  0  0  0  0999 V2000
   57.2740   21.4250   43.4660 C   0  0  0  0  0  0  0  0  0  0  0  0
   55.9010   21.7690   43.5980 O   0  0  0  0  0  0  0  0  0  0  0  0
   55.4450   23.0870   43.5170 C   0  0  0  0  0  0  0  0  0  0  0  0
   56.2350   24.0220   43.2060 O   0  0  0  0  0  0  0  0  0  0  0  0
   54.0690   23.3660   43.7980 N   0  0  0  0  0  0  0  0  0  0  0  0
   53.5930   23.9080   45.0670 C   0  0  1  0  0  0  0  0  0  0  0  0
   52.6350   22.9120   45.7330 C   0  0  0  0  0  0  0  0  0  0  0  0
   54.8030   24.2010   45.9690 C   0  0  0  0  0  0  0  0  0  0  0  0
   55.1100   25.6310   45.9960 N   0  0  0  0  0  0  0  0  0  0  0  0
   56.2860   26.1460   45.7860 C   0  0  0  0  0  0  0  0  0  0  0  0
   56.4580   27.4850   45.9280 N   0  0  0  0  0  0  0  0  0  0  0  0
   57.6610   28.0770   45.6980 C   0  0  0  0  0  0  0  0  0  0  0  0
   57.8100   29.5380   45.8580 C   0  0  0  0  0  0  0  0  0  0  0  0
   57.3010   30.4280   44.9870 N   0  0  0  0  0  0  0  0  0  0  0  0
   57.7340   31.6250   45.4450 C   0  0  0  0  0  0  0  0  0  0  0  0
   57.4280   32.9420   44.7880 C   0  0  0  0  0  0  0  0  0  0  0  0
   58.5620   33.9570   44.7590 C   0  0  0  0  0  0  0  0  0  0  0  0
   57.4020   34.1400   45.7260 C   0  0  0  0  0  0  0  0  0  0  0  0
   58.4920   31.5380   46.5570 N   0  0  0  0  0  0  0  0  0  0  0  0
   58.5370   30.2200   46.8230 C   0  0  0  0  0  0  0  0  0  0  0  0
   59.2130   29.6650   48.0140 C   0  0  0  0  0  0  0  0  0  0  0  0
   60.0510   28.5460   47.8900 C   0  0  0  0  0  0  0  0  0  0  0  0
   60.6780   28.0090   49.0130 C   0  0  0  0  0  0  0  0  0  0  0  0
   60.4600   28.5710   50.2720 C   0  0  0  0  0  0  0  0  0  0  0  0
   59.6100   29.6730   50.4280 C   0  0  0  0  0  0  0  0  0  0  0  0
   59.4310   30.1830   51.7600 N   0  0  0  0  0  0  0  0  0  0  0  0
   57.9860   30.8020   52.4950 S   0  0  0  0  0  0  0  0  0  0  0  0
   57.8380   32.5530   52.1950 C   0  0  0  0  0  0  0  0  0  0  0  0
   58.0760   30.5840   53.9800 O   0  0  0  0  0  0  0  0  0  0  0  0
   56.7820   30.0650   51.9800 O   0  0  0  0  0  0  0  0  0  0  0  0
   58.9780   30.2200   49.2870 C   0  0  0  0  0  0  0  0  0  0  0  0
   58.1550   31.2920   49.3820 F   0  0  0  0  0  0  0  0  0  0  0  0
   58.7560   27.2810   45.3360 C   0  0  0  0  0  0  0  0  0  0  0  0
   58.5650   25.9070   45.1990 C   0  0  0  0  0  0  0  0  0  0  0  0
   57.3400   25.3660   45.4210 N   0  0  0  0  0  0  0  0  0  0  0  0
   57.7215   21.3129   44.4646 H   0  0  0  0  0  0  0  0  0  0  0  0
   57.3632   20.4768   42.9156 H   0  0  0  0  0  0  0  0  0  0  0  0
   57.7997   22.2192   42.9156 H   0  0  0  0  0  0  0  0  0  0  0  0
   53.0417   24.8444   44.8961 H   0  0  0  0  0  0  0  0  0  0  0  0
   52.7181   22.9984   46.8264 H   0  0  0  0  0  0  0  0  0  0  0  0
   51.6026   23.1343   45.4251 H   0  0  0  0  0  0  0  0  0  0  0  0
   52.8973   21.8891   45.4251 H   0  0  0  0  0  0  0  0  0  0  0  0
   54.5783   23.8631   46.9914 H   0  0  0  0  0  0  0  0  0  0  0  0
   55.6752   23.6655   45.5659 H   0  0  0  0  0  0  0  0  0  0  0  0
   56.7482   32.5202   44.0331 H   0  0  0  0  0  0  0  0  0  0  0  0
   59.5567   33.6813   45.1392 H   0  0  0  0  0  0  0  0  0  0  0  0
   59.0312   34.5770   43.9809 H   0  0  0  0  0  0  0  0  0  0  0  0
   57.5581   33.9968   46.8054 H   0  0  0  0  0  0  0  0  0  0  0  0
   56.6851   34.9473   45.9367 H   0  0  0  0  0  0  0  0  0  0  0  0
   60.2137   28.0907   46.9020 H   0  0  0  0  0  0  0  0  0  0  0  0
   61.3455   27.1411   48.9070 H   0  0  0  0  0  0  0  0  0  0  0  0
   60.9619   28.1431   51.1523 H   0  0  0  0  0  0  0  0  0  0  0  0
   57.7929   33.0871   53.1556 H   0  0  0  0  0  0  0  0  0  0  0  0
   58.7099   32.9018   51.6221 H   0  0  0  0  0  0  0  0  0  0  0  0
   56.9200   32.7506   51.6221 H   0  0  0  0  0  0  0  0  0  0  0  0
   59.7450   27.7307   45.1637 H   0  0  0  0  0  0  0  0  0  0  0  0
   59.4073   25.2609   44.9109 H   0  0  0  0  0  0  0  0  0  0  0  0
  1  2  1  0
  2  3  1  0
  3  4  2  0
  3  5  1  0
  5  6  1  0
  6  7  1  0
  6  8  1  0
  8  9  1  0
  9 10  2  3
 10 11  1  0
 11 12  2  0
 12 13  1  0
 13 14  1  0
 14 15  1  0
 15 16  1  0
 16 17  1  0
 17 18  1  0
 15 19  2  0
 19 20  1  0
 20 21  1  0
 21 22  2  0
 22 23  1  0
 23 24  2  0
 24 25  1  0
 25 26  1  0
 26 27  1  0
 27 28  1  0
 27 29  2  0
 27 30  2  0
 25 31  2  0
 31 32  1  0
 12 33  1  0
 33 34  2  0
 34 35  1  0
 35 10  1  0
 20 13  2  0
 31 21  1  0
 18 16  1  0
  1 36  1  0
  1 37  1  0
  1 38  1  0
  6 39  1  6
  7 40  1  0
  7 41  1  0
  7 42  1  0
  8 43  1  0
  8 44  1  0
 16 45  1  0
 17 46  1  0
 17 47  1  0
 18 48  1  0
 18 49  1  0
 22 50  1  0
 23 51  1  0
 24 52  1  0
 28 53  1  0
 28 54  1  0
 28 55  1  0
 33 56  1  0
 34 57  1  0
M  CHG  4   5  -1  14  -1  26  -1  35  -1
M  END
>  <UniqueID>  (23) 
22

>  <SMILES>  (23) 
COC(=O)[N-][C@@H](C)CN=c1nc(-c2[n-]c(C3CC3)nc2-c2cccc([N-]S(C)(=O)=O)c2F)cc[n-]1

>  <Energy>  (23) 
353.33777396600385

>  <Genealogy>  (23) 
COC(=O)[N-]C(C)CN=c1nc(-c2[n-]c(C3CC3)nc2-c2cccc([N-]S(C)(=O)=O)c2F)cc[n-]1 (protonated)
COC(=O)[N-][C@@H](C)CN=c1nc(-c2[n-]c(C3CC3)nc2-c2cccc([N-]S(C)(=O)=O)c2F)cc[n-]1 (chirality)
COC(=O)[N-][C@@H](C)CN=c1nc(-c2[n-]c(C3CC3)nc2-c2cccc([N-]S(C)(=O)=O)c2F)cc[n-]1 (3D coordinates assigned)
COC(=O)[N-][C@@H](C)CN=c1nc(-c2[n-]c(C3CC3)nc2-c2cccc([N-]S(C)(=O)=O)c2F)cc[n-]1 (nonaromatic ring conformer: 353.33777396600385 kcal/mol)

>  <smiles>  (23) 
COC(=O)NC(C)CN=c1nc(-c2[nH]c(C3CC3)nc2-c2cccc(NS(C)(=O)=O)c2F)cc[nH]1

>  <score_type>  (23) 
oracle

>  <origin>  (23) 
adg

>  <m_score__min__energy>  (23) 
-15.27

>  <m_primary>  (23) 
energy

$$$$
23:0
     RDKit          3D

 70 74  0  0  0  0  0  0  0  0999 V2000
   59.9070   26.8750   47.4130 C   0  0  0  0  0  0  0  0  0  0  0  0
   59.8610   25.7810   46.3540 C   0  0  0  0  0  0  0  0  0  0  0  0
   58.4870   25.1810   46.2730 C   0  0  0  0  0  0  0  0  0  0  0  0
   57.9780   24.4120   47.2770 N   0  0  0  0  0  0  0  0  0  0  0  0
   56.7290   24.1410   46.8510 C   0  0  0  0  0  0  0  0  0  0  0  0
   55.7330   23.3990   47.4870 C   0  0  0  0  0  0  0  0  0  0  0  0
   55.9800   22.7080   48.7930 C   0  0  0  0  0  0  0  0  0  0  0  0
   54.5010   23.2720   46.8090 C   0  0  0  0  0  0  0  0  0  0  0  0
   54.3120   23.9050   45.5530 C   0  0  0  0  0  0  0  0  0  0  0  0
   52.9990   23.7960   44.8480 C   0  0  0  0  0  0  0  0  0  0  0  0
   55.3250   24.6320   44.9910 N   0  0  0  0  0  0  0  0  0  0  0  0
   56.5080   24.7290   45.6480 C   0  0  0  0  0  0  0  0  0  0  0  0
   57.6030   25.3920   45.2550 N   0  0  0  0  0  0  0  0  0  0  0  0
   57.7670   26.1870   44.0350 C   0  0  0  0  0  0  0  0  0  0  0  0
   57.9190   27.6460   44.3720 C   0  0  0  0  0  0  0  0  0  0  0  0
   56.8270   28.3700   44.8740 C   0  0  0  0  0  0  0  0  0  0  0  0
   56.9630   29.7270   45.1830 C   0  0  0  0  0  0  0  0  0  0  0  0
   58.1980   30.3720   45.0160 C   0  0  0  0  0  0  0  0  0  0  0  0
   58.3300   31.8170   45.3010 C   0  0  0  0  0  0  0  0  0  0  0  0
   57.3640   32.6860   44.7630 C   0  0  0  0  0  0  0  0  0  0  0  0
   57.4860   34.0670   44.9120 C   0  0  0  0  0  0  0  0  0  0  0  0
   58.5790   34.6020   45.5910 C   0  0  0  0  0  0  0  0  0  0  0  0
   59.5380   33.7560   46.1480 C   0  0  0  0  0  0  0  0  0  0  0  0
   59.4170   32.3560   46.0420 C   0  0  0  0  0  0  0  0  0  0  0  0
   60.4420   31.4890   46.7480 C   0  0  0  0  0  0  0  0  0  0  0  0
   60.0230   31.2030   48.1770 C   0  0  0  0  0  0  0  0  0  0  0  0
   59.4560   29.9520   48.4820 C   0  0  0  0  0  0  0  0  0  0  0  0
   59.1290   29.6200   49.7980 C   0  0  0  0  0  0  0  0  0  0  0  0
   59.3690   30.5270   50.8290 C   0  0  0  0  0  0  0  0  0  0  0  0
   59.9280   31.7730   50.5470 C   0  0  0  0  0  0  0  0  0  0  0  0
   60.2580   32.1250   49.2280 C   0  0  0  0  0  0  0  0  0  0  0  0
   60.8070   33.4720   48.9770 C   0  0  0  0  0  0  0  0  0  0  0  0
   60.2020   34.4750   49.4380 O   0  0  0  0  0  0  0  0  0  0  0  0
   62.0260   33.6690   48.2570 N   0  0  0  0  0  0  0  0  0  0  0  0
   63.4110   32.6300   48.3500 S   0  0  0  0  0  0  0  0  0  0  0  0
   64.0760   32.4370   46.7670 N   0  0  0  0  0  0  0  0  0  0  0  0
   63.0150   31.2800   48.8760 O   0  0  0  0  0  0  0  0  0  0  0  0
   64.4420   33.2400   49.2540 O   0  0  0  0  0  0  0  0  0  0  0  0
   59.2840   29.6520   44.4970 C   0  0  0  0  0  0  0  0  0  0  0  0
   59.1470   28.2980   44.1790 C   0  0  0  0  0  0  0  0  0  0  0  0
   59.8878   26.4180   48.4134 H   0  0  0  0  0  0  0  0  0  0  0  0
   60.8306   27.4608   47.2952 H   0  0  0  0  0  0  0  0  0  0  0  0
   59.0359   27.5362   47.2952 H   0  0  0  0  0  0  0  0  0  0  0  0
   60.1253   26.2122   45.3772 H   0  0  0  0  0  0  0  0  0  0  0  0
   60.5768   24.9920   46.6280 H   0  0  0  0  0  0  0  0  0  0  0  0
   55.7361   23.3903   49.6207 H   0  0  0  0  0  0  0  0  0  0  0  0
   55.3469   21.8109   48.8587 H   0  0  0  0  0  0  0  0  0  0  0  0
   57.0384   22.4155   48.8587 H   0  0  0  0  0  0  0  0  0  0  0  0
   53.6868   22.6818   47.2548 H   0  0  0  0  0  0  0  0  0  0  0  0
   52.1892   23.7288   45.5894 H   0  0  0  0  0  0  0  0  0  0  0  0
   52.8463   24.6846   44.2178 H   0  0  0  0  0  0  0  0  0  0  0  0
   52.9949   22.8944   44.2178 H   0  0  0  0  0  0  0  0  0  0  0  0
   58.6636   25.8444   43.4977 H   0  0  0  0  0  0  0  0  0  0  0  0
   56.8746   26.0589   43.4047 H   0  0  0  0  0  0  0  0  0  0  0  0
   55.8599   27.8681   45.0251 H   0  0  0  0  0  0  0  0  0  0  0  0
   56.0972   30.2919   45.5590 H   0  0  0  0  0  0  0  0  0  0  0  0
   56.5026   32.2717   44.2186 H   0  0  0  0  0  0  0  0  0  0  0  0
   56.7188   34.7348   44.4932 H   0  0  0  0  0  0  0  0  0  0  0  0
   58.6856   35.6925   45.6878 H   0  0  0  0  0  0  0  0  0  0  0  0
   60.4004   34.1875   46.6772 H   0  0  0  0  0  0  0  0  0  0  0  0
   60.5423   30.5373   46.2056 H   0  0  0  0  0  0  0  0  0  0  0  0
   61.4016   32.0265   46.7660 H   0  0  0  0  0  0  0  0  0  0  0  0
   59.2684   29.2281   47.6753 H   0  0  0  0  0  0  0  0  0  0  0  0
   58.6810   28.6406   50.0218 H   0  0  0  0  0  0  0  0  0  0  0  0
   59.1172   30.2596   51.8659 H   0  0  0  0  0  0  0  0  0  0  0  0
   60.1120   32.4860   51.3642 H   0  0  0  0  0  0  0  0  0  0  0  0
   64.9000   33.0770   46.7050 H   0  0  0  0  0  0  0  0  0  0  0  0
   64.4540   31.4640   46.7140 H   0  0  0  0  0  0  0  0  0  0  0  0
   60.2490   30.1559   44.3394 H   0  0  0  0  0  0  0  0  0  0  0  0
   60.0053   27.7407   43.7757 H   0  0  0  0  0  0  0  0  0  0  0  0
  1  2  1  0
  2  3  1  0
  3  4  2  0
  4  5  1  0
  5  6  2  0
  6  7  1  0
  6  8  1  0
  8  9  2  0
  9 10  1  0
  9 11  1  0
 11 12  2  0
 12 13  1  0
 13 14  1  0
 14 15  1  0
 15 16  2  0
 16 17  1  0
 17 18  2  0
 18 19  1  0
 19 20  2  0
 20 21  1  0
 21 22  2  0
 22 23  1  0
 23 24  2  0
 24 25  1  0
 25 26  1  0
 26 27  2  0
 27 28  1  0
 28 29  2  0
 29 30  1  0
 30 31  2  0
 31 32  1  0
 32 33  2  0
 32 34  1  0
 34 35  1  0
 35 36  1  0
 35 37  2  0
 35 38  2  0
 18 39  1  0
 39 40  2  0
 13  3  1  0
 40 15  1  0
 12  5  1  0
 24 19  1  0
 31 26  1  0
  1 41  1  0
  1 42  1  0
  1 43  1  0
  2 44  1  0
  2 45  1  0
  7 46  1  0
  7 47  1  0
  7 48  1  0
  8 49  1  0
 10 50  1  0
 10 51  1  0
 10 52  1  0
 14 53  1  0
 14 54  1  0
 16 55  1  0
 17 56  1  0
 20 57  1  0
 21 58  1  0
 22 59  1  0
 23 60  1  0
 25 61  1  0
 25 62  1  0
 27 63  1  0
 28 64  1  0
 29 65  1  0
 30 66  1  0
 36 67  1  0
 36 68  1  0
 39 69  1  0
 40 70  1  0
M  CHG  1  34  -1
M  END
>  <UniqueID>  (24) 
23

>  <SMILES>  (24) 
CCc1nc2c(C)cc(C)nc2n1Cc1ccc(-c2ccccc2Cc2ccccc2C(=O)[N-]S(N)(=O)=O)cc1

>  <Energy>  (24) 
117.43500836844842

>  <Genealogy>  (24) 
CCc1nc2c(C)cc(C)nc2n1Cc1ccc(-c2ccccc2Cc2ccccc2C(=O)[N-]S(N)(=O)=O)cc1 (protonated)
CCc1nc2c(C)cc(C)nc2n1Cc1ccc(-c2ccccc2Cc2ccccc2C(=O)[N-]S(N)(=O)=O)cc1 (3D coordinates assigned)
CCc1nc2c(C)cc(C)nc2n1Cc1ccc(-c2ccccc2Cc2ccccc2C(=O)[N-]S(N)(=O)=O)cc1 (optimized conformer: 117.43500836844842 kcal/mol)

>  <smiles>  (24) 
CCc1nc2c(C)cc(C)nc2n1Cc1ccc(-c2ccccc2Cc2ccccc2C(=O)NS(N)(=O)=O)cc1

>  <score_type>  (24) 
oracle

>  <origin>  (24) 
adg

>  <m_score__min__energy>  (24) 
-12.779999999999999

>  <m_primary>  (24) 
energy

$$$$
24:0
     RDKit          3D

 25 26  0  0  0  0  0  0  0  0999 V2000
   58.5110   28.5130   46.5920 C   0  0  0  0  0  0  0  0  0  0  0  0
   58.8180   29.9380   46.9060 C   0  0  0  0  0  0  0  0  0  0  0  0
   57.9790   30.9660   46.6470 N   0  0  0  0  0  0  0  0  0  0  0  0
   58.5240   32.1730   46.9650 C   0  0  0  0  0  0  0  0  0  0  0  0
   57.7600   33.4550   46.8150 C   0  0  0  0  0  0  0  0  0  0  0  0
   58.0800   34.2070   45.1830 S   0  0  0  0  0  0  0  0  0  0  0  0
   57.6030   32.7480   44.2580 C   0  0  0  0  0  0  0  0  0  0  0  0
   58.0250   32.4350   42.9830 C   0  0  0  0  0  0  0  0  0  0  0  0
   57.4000   31.2450   42.6680 C   0  0  0  0  0  0  0  0  0  0  0  0
   56.6430   30.9160   43.7780 C   0  0  0  0  0  0  0  0  0  0  0  0
   55.7920   29.7320   43.9230 C   0  0  0  0  0  0  0  0  0  0  0  0
   55.4500   29.3210   45.0640 O   0  0  0  0  0  0  0  0  0  0  0  0
   56.7850   31.8270   44.7110 O   0  0  0  0  0  0  0  0  0  0  0  0
   59.8170   32.1130   47.4780 C   0  0  0  0  0  0  0  0  0  0  0  0
   60.2810   30.4950   47.5190 S   0  0  0  0  0  0  0  0  0  0  0  0
   58.3895   27.9491   47.5286 H   0  0  0  0  0  0  0  0  0  0  0  0
   57.5805   28.4585   46.0079 H   0  0  0  0  0  0  0  0  0  0  0  0
   59.3365   28.0802   46.0079 H   0  0  0  0  0  0  0  0  0  0  0  0
   57.0210   30.8470   46.2500 H   0  0  0  0  0  0  0  0  0  0  0  0
   56.6841   33.2481   46.9129 H   0  0  0  0  0  0  0  0  0  0  0  0
   58.0858   34.1555   47.5980 H   0  0  0  0  0  0  0  0  0  0  0  0
   58.7148   33.0123   42.3499 H   0  0  0  0  0  0  0  0  0  0  0  0
   57.4861   30.6769   41.7300 H   0  0  0  0  0  0  0  0  0  0  0  0
   55.4480   29.1961   43.0261 H   0  0  0  0  0  0  0  0  0  0  0  0
   60.4269   32.9702   47.7993 H   0  0  0  0  0  0  0  0  0  0  0  0
  1  2  1  0
  2  3  2  0
  3  4  1  0
  4  5  1  0
  5  6  1  0
  6  7  1  0
  7  8  2  0
  8  9  1  0
  9 10  2  0
 10 11  1  0
 11 12  2  0
 10 13  1  0
  4 14  2  0
 14 15  1  0
 15  2  1  0
 13  7  1  0
  1 16  1  0
  1 17  1  0
  1 18  1  0
  3 19  1  0
  5 20  1  0
  5 21  1  0
  8 22  1  0
  9 23  1  0
 11 24  1  0
 14 25  1  0
M  CHG  1   3   1
M  END
>  <UniqueID>  (25) 
24

>  <SMILES>  (25) 
Cc1[nH+]c(CSc2ccc(C=O)o2)cs1

>  <Energy>  (25) 
71.99959147750565

>  <Genealogy>  (25) 
Cc1[nH+]c(CSc2ccc(C=O)o2)cs1 (protonated)
Cc1[nH+]c(CSc2ccc(C=O)o2)cs1 (3D coordinates assigned)
Cc1[nH+]c(CSc2ccc(C=O)o2)cs1 (optimized conformer: 71.99959147750565 kcal/mol)

>  <smiles>  (25) 
Cc1nc(CSc2ccc(C=O)o2)cs1

>  <score_type>  (25) 
oracle

>  <origin>  (25) 
adg

>  <m_score__min__energy>  (25) 
-4.6600000000000001

>  <m_primary>  (25) 
energy

$$$$
25:0
     RDKit          3D

 56 59  0  0  0  0  0  0  0  0999 V2000
   55.2390   25.9380   45.9960 N   0  0  0  0  0  0  0  0  0  0  0  0
   54.7550   24.3020   45.7100 S   0  0  0  0  0  0  0  0  0  0  0  0
   53.6230   24.2950   44.7180 O   0  0  0  0  0  0  0  0  0  0  0  0
   54.2800   23.6830   46.9940 O   0  0  0  0  0  0  0  0  0  0  0  0
   56.1240   23.3760   45.0830 C   0  0  0  0  0  0  0  0  0  0  0  0
   55.8920   22.2220   44.3210 C   0  0  0  0  0  0  0  0  0  0  0  0
   56.9630   21.4590   43.8480 C   0  0  0  0  0  0  0  0  0  0  0  0
   58.2720   21.8420   44.1350 C   0  0  0  0  0  0  0  0  0  0  0  0
   58.5170   22.9870   44.8960 C   0  0  0  0  0  0  0  0  0  0  0  0
   57.4480   23.7650   45.3790 C   0  0  0  0  0  0  0  0  0  0  0  0
   57.6760   24.9380   46.1740 N   0  0  0  0  0  0  0  0  0  0  0  0
   58.0540   26.5170   45.5640 S   0  0  0  0  0  0  0  0  0  0  0  0
   57.2240   27.5310   46.2990 O   0  0  0  0  0  0  0  0  0  0  0  0
   57.7270   26.5950   44.0990 O   0  0  0  0  0  0  0  0  0  0  0  0
   59.7820   26.8750   45.8370 C   0  0  0  0  0  0  0  0  0  0  0  0
   59.9300   27.8630   46.9580 C   0  0  0  0  0  0  0  0  0  0  0  0
   59.8680   27.4360   48.2940 C   0  0  0  0  0  0  0  0  0  0  0  0
   59.9420   28.3650   49.3350 C   0  0  0  0  0  0  0  0  0  0  0  0
   60.0770   29.7270   49.0510 C   0  0  0  0  0  0  0  0  0  0  0  0
   60.1290   30.1690   47.7190 C   0  0  0  0  0  0  0  0  0  0  0  0
   60.2950   31.5200   47.3950 O   0  0  0  0  0  0  0  0  0  0  0  0
   61.4370   32.2920   47.6600 C   0  0  0  0  0  0  0  0  0  0  0  0
   62.7130   31.9000   47.2130 C   0  0  0  0  0  0  0  0  0  0  0  0
   63.8360   32.6730   47.5220 C   0  0  0  0  0  0  0  0  0  0  0  0
   63.6980   33.8360   48.2810 C   0  0  0  0  0  0  0  0  0  0  0  0
   62.4380   34.2240   48.7420 C   0  0  0  0  0  0  0  0  0  0  0  0
   61.3080   33.4540   48.4390 C   0  0  0  0  0  0  0  0  0  0  0  0
   59.6970   33.9810   49.0340 S   0  0  0  0  0  0  0  0  0  0  0  0
   58.9980   34.0570   47.3840 C   0  0  0  0  0  0  0  0  0  0  0  0
   57.8190   33.3610   47.0860 C   0  0  0  0  0  0  0  0  0  0  0  0
   57.2770   33.4200   45.7990 C   0  0  0  0  0  0  0  0  0  0  0  0
   57.9090   34.1780   44.8070 C   0  0  0  0  0  0  0  0  0  0  0  0
   59.0820   34.8770   45.1040 C   0  0  0  0  0  0  0  0  0  0  0  0
   59.6260   34.8190   46.3910 C   0  0  0  0  0  0  0  0  0  0  0  0
   60.0670   29.2330   46.6800 C   0  0  0  0  0  0  0  0  0  0  0  0
   55.8790   26.2060   45.2160 H   0  0  0  0  0  0  0  0  0  0  0  0
   55.8090   25.9400   46.8700 H   0  0  0  0  0  0  0  0  0  0  0  0
   54.8603   21.9153   44.0941 H   0  0  0  0  0  0  0  0  0  0  0  0
   56.7729   20.5561   43.2491 H   0  0  0  0  0  0  0  0  0  0  0  0
   59.1141   21.2410   43.7612 H   0  0  0  0  0  0  0  0  0  0  0  0
   59.5526   23.2830   45.1195 H   0  0  0  0  0  0  0  0  0  0  0  0
   60.3099   25.9459   46.0980 H   0  0  0  0  0  0  0  0  0  0  0  0
   60.2119   27.3026   44.9192 H   0  0  0  0  0  0  0  0  0  0  0  0
   59.7607   26.3653   48.5222 H   0  0  0  0  0  0  0  0  0  0  0  0
   59.8939   28.0240   50.3797 H   0  0  0  0  0  0  0  0  0  0  0  0
   60.1427   30.4547   49.8732 H   0  0  0  0  0  0  0  0  0  0  0  0
   62.8269   30.9817   46.6182 H   0  0  0  0  0  0  0  0  0  0  0  0
   64.8300   32.3641   47.1663 H   0  0  0  0  0  0  0  0  0  0  0  0
   64.5818   34.4472   48.5162 H   0  0  0  0  0  0  0  0  0  0  0  0
   62.3327   35.1377   49.3453 H   0  0  0  0  0  0  0  0  0  0  0  0
   57.3194   32.7675   47.8658 H   0  0  0  0  0  0  0  0  0  0  0  0
   56.3532   32.8703   45.5658 H   0  0  0  0  0  0  0  0  0  0  0  0
   57.4827   34.2236   43.7940 H   0  0  0  0  0  0  0  0  0  0  0  0
   59.5781   35.4737   44.3244 H   0  0  0  0  0  0  0  0  0  0  0  0
   60.5478   35.3723   46.6235 H   0  0  0  0  0  0  0  0  0  0  0  0
   60.1261   29.5736   45.6357 H   0  0  0  0  0  0  0  0  0  0  0  0
  1  2  1  0
  2  3  2  0
  2  4  2  0
  2  5  1  0
  5  6  2  0
  6  7  1  0
  7  8  2  0
  8  9  1  0
  9 10  2  0
 10 11  1  0
 11 12  1  0
 12 13  2  0
 12 14  2  0
 12 15  1  0
 15 16  1  0
 16 17  2  0
 17 18  1  0
 18 19  2  0
 19 20  1  0
 20 21  1  0
 21 22  1  0
 22 23  2  0
 23 24  1  0
 24 25  2  0
 25 26  1  0
 26 27  2  0
 27 28  1  0
 28 29  1  0
 29 30  2  0
 30 31  1  0
 31 32  2  0
 32 33  1  0
 33 34  2  0
 20 35  2  0
 10  5  1  0
 35 16  1  0
 27 22  1  0
 34 29  1  0
  1 36  1  0
  1 37  1  0
  6 38  1  0
  7 39  1  0
  8 40  1  0
  9 41  1  0
 15 42  1  0
 15 43  1  0
 17 44  1  0
 18 45  1  0
 19 46  1  0
 23 47  1  0
 24 48  1  0
 25 49  1  0
 26 50  1  0
 30 51  1  0
 31 52  1  0
 32 53  1  0
 33 54  1  0
 34 55  1  0
 35 56  1  0
M  CHG  1  11  -1
M  END
>  <UniqueID>  (26) 
25

>  <SMILES>  (26) 
NS(=O)(=O)c1ccccc1[N-]S(=O)(=O)Cc1cccc(Oc2ccccc2Sc2ccccc2)c1

>  <Energy>  (26) 
58.51346948319005

>  <Genealogy>  (26) 
NS(=O)(=O)c1ccccc1[N-]S(=O)(=O)Cc1cccc(Oc2ccccc2Sc2ccccc2)c1 (protonated)
NS(=O)(=O)c1ccccc1[N-]S(=O)(=O)Cc1cccc(Oc2ccccc2Sc2ccccc2)c1 (3D coordinates assigned)
NS(=O)(=O)c1ccccc1[N-]S(=O)(=O)Cc1cccc(Oc2ccccc2Sc2ccccc2)c1 (optimized conformer: 58.51346948319005 kcal/mol)

>  <smiles>  (26) 
NS(=O)(=O)c1ccccc1NS(=O)(=O)Cc1cccc(Oc2ccccc2Sc2ccccc2)c1

>  <score_type>  (26) 
oracle

>  <origin>  (26) 
adg

>  <m_score__min__energy>  (26) 
-12.470000000000001

>  <m_primary>  (26) 
energy

$$$$
26:0
     RDKit          3D

 50 53  0  0  0  0  0  0  0  0999 V2000
   58.0187   30.7390   50.1041 H   0  0  0  0  0  0  0  0  0  0  0  0
   58.8880   30.2860   49.6050 C   0  0  0  0  0  0  0  0  0  0  0  0
   58.9820   28.9500   49.3740 N   0  0  0  0  0  0  0  0  0  0  0  0
   60.1440   28.6350   48.7600 C   0  0  0  0  0  0  0  0  0  0  0  0
   60.4800   27.4330   48.3990 N   0  0  0  0  0  0  0  0  0  0  0  0
   60.1220   26.8020   47.1590 C   0  0  0  0  0  0  0  0  0  0  0  0
   61.0430   26.3610   46.4230 O   0  0  0  0  0  0  0  0  0  0  0  0
   58.7100   26.6050   46.7500 C   0  0  0  0  0  0  0  0  0  0  0  0
   58.0800   25.3690   46.9660 C   0  0  0  0  0  0  0  0  0  0  0  0
   58.6373   24.5459   47.4371 H   0  0  0  0  0  0  0  0  0  0  0  0
   56.7500   25.1790   46.5860 C   0  0  0  0  0  0  0  0  0  0  0  0
   56.2685   24.2028   46.7446 H   0  0  0  0  0  0  0  0  0  0  0  0
   56.0290   26.2250   46.0050 C   0  0  0  0  0  0  0  0  0  0  0  0
   54.9867   26.0654   45.6917 H   0  0  0  0  0  0  0  0  0  0  0  0
   56.6320   27.4800   45.8200 C   0  0  0  0  0  0  0  0  0  0  0  0
   55.9230   28.5760   45.2230 N   0  0  0  0  0  0  0  0  0  0  0  0
   56.4730   29.5560   44.3320 C   0  0  0  0  0  0  0  0  0  0  0  0
   56.4130   29.3420   43.0920 O   0  0  0  0  0  0  0  0  0  0  0  0
   57.1530   30.7770   44.8260 C   0  0  0  0  0  0  0  0  0  0  0  0
   57.1040   31.9630   44.0780 C   0  0  0  0  0  0  0  0  0  0  0  0
   56.5578   31.9832   43.1234 H   0  0  0  0  0  0  0  0  0  0  0  0
   57.7430   33.1190   44.5350 C   0  0  0  0  0  0  0  0  0  0  0  0
   57.6979   34.0406   43.9361 H   0  0  0  0  0  0  0  0  0  0  0  0
   58.4440   33.1130   45.7560 C   0  0  0  0  0  0  0  0  0  0  0  0
   59.1900   34.3280   46.2630 C   0  0  0  0  0  0  0  0  0  0  0  0
   59.0021   34.4328   47.3417 H   0  0  0  0  0  0  0  0  0  0  0  0
   58.8262   35.2020   45.7028 H   0  0  0  0  0  0  0  0  0  0  0  0
   60.6360   34.2290   46.0450 N   0  0  0  0  0  0  0  0  0  0  0  0
   61.5590   33.8930   46.9050 C   0  0  0  0  0  0  0  0  0  0  0  0
   62.7600   33.4670   46.4260 N   0  0  0  0  0  0  0  0  0  0  0  0
   63.7810   33.1030   47.2440 C   0  0  0  0  0  0  0  0  0  0  0  0
   64.7361   32.7678   46.8133 H   0  0  0  0  0  0  0  0  0  0  0  0
   63.6220   33.1530   48.6290 C   0  0  0  0  0  0  0  0  0  0  0  0
   64.4517   32.8704   49.2936 H   0  0  0  0  0  0  0  0  0  0  0  0
   62.3970   33.5660   49.1650 C   0  0  0  0  0  0  0  0  0  0  0  0
   62.2130   33.6550   50.6510 C   0  0  0  0  0  0  0  0  0  0  0  0
   63.0929   33.2294   51.1556 H   0  0  0  0  0  0  0  0  0  0  0  0
   62.0966   34.7090   50.9436 H   0  0  0  0  0  0  0  0  0  0  0  0
   61.3145   33.0919   50.9436 H   0  0  0  0  0  0  0  0  0  0  0  0
   61.3630   33.9550   48.3010 C   0  0  0  0  0  0  0  0  0  0  0  0
   60.4041   34.3066   48.7095 H   0  0  0  0  0  0  0  0  0  0  0  0
   58.5220   31.9140   46.4840 C   0  0  0  0  0  0  0  0  0  0  0  0
   59.0920   31.8842   47.4243 H   0  0  0  0  0  0  0  0  0  0  0  0
   57.8830   30.7590   46.0260 C   0  0  0  0  0  0  0  0  0  0  0  0
   57.9521   29.8289   46.6093 H   0  0  0  0  0  0  0  0  0  0  0  0
   57.9730   27.6600   46.1820 C   0  0  0  0  0  0  0  0  0  0  0  0
   58.4545   28.6358   46.0206 H   0  0  0  0  0  0  0  0  0  0  0  0
   61.0870   29.9910   48.4610 S   0  0  0  0  0  0  0  0  0  0  0  0
   59.9720   31.0390   49.1640 C   0  0  0  0  0  0  0  0  0  0  0  0
   60.0815   32.1295   49.2583 H   0  0  0  0  0  0  0  0  0  0  0  0
  1  2  1  0
  2  3  1  0
  3  4  1  0
  4  5  2  0
  5  6  1  0
  6  7  2  0
  6  8  1  0
  8  9  2  0
  9 10  1  0
  9 11  1  0
 11 12  1  0
 11 13  2  0
 13 14  1  0
 13 15  1  0
 15 16  1  0
 16 17  1  0
 17 18  2  0
 17 19  1  0
 19 20  2  0
 20 21  1  0
 20 22  1  0
 22 23  1  0
 22 24  2  0
 24 25  1  0
 25 26  1  0
 25 27  1  0
 25 28  1  0
 28 29  2  3
 29 30  1  0
 30 31  1  0
 31 32  1  0
 31 33  2  0
 33 34  1  0
 33 35  1  0
 35 36  1  0
 36 37  1  0
 36 38  1  0
 36 39  1  0
 35 40  2  0
 40 41  1  0
 24 42  1  0
 42 43  1  0
 42 44  2  0
 44 45  1  0
 15 46  2  0
 46 47  1  0
  4 48  1  0
 48 49  1  0
 49 50  1  0
 49  2  2  0
 46  8  1  0
 44 19  1  0
 40 29  1  0
M  CHG  3   3  -1  16  -1  30  -1
M  END
>  <UniqueID>  (27) 
26

>  <SMILES>  (27) 
Cc1cc[n-]c(=NCc2ccc(C(=O)[N-]c3cccc(C(=O)/N=c4\[n-]ccs4)c3)cc2)c1

>  <Energy>  (27) 
103.94490386986301

>  <Genealogy>  (27) 
Cc1cc[n-]c(=NCc2ccc(C(=O)[N-]c3cccc(C(=O)N=c4[n-]ccs4)c3)cc2)c1 (protonated)
Cc1cc[n-]c(=NCc2ccc(C(=O)[N-]c3cccc(C(=O)/N=c4\[n-]ccs4)c3)cc2)c1 (cis-trans isomerization)
Cc1cc[n-]c(=NCc2ccc(C(=O)[N-]c3cccc(C(=O)/N=c4\[n-]ccs4)c3)cc2)c1 (3D coordinates assigned)
Cc1cc[n-]c(=NCc2ccc(C(=O)[N-]c3cccc(C(=O)/N=c4\[n-]ccs4)c3)cc2)c1 (optimized conformer: 103.94490386986301 kcal/mol)

>  <smiles>  (27) 
Cc1cc[nH]c(=NCc2ccc(C(=O)Nc3cccc(C(=O)N=c4[nH]ccs4)c3)cc2)c1

>  <score_type>  (27) 
oracle

>  <origin>  (27) 
adg

>  <m_score__min__energy>  (27) 
-13.34

>  <m_primary>  (27) 
energy

$$$$
27:0
     RDKit          3D

 45 47  0  0  0  0  0  0  0  0999 V2000
   57.0110   30.7800   43.0850 C   0  0  0  0  0  0  0  0  0  0  0  0
   57.0770   30.2360   44.8200 S   0  0  0  0  0  0  0  0  0  0  0  0
   57.7450   31.7990   45.4010 C   0  0  0  0  0  0  0  0  0  0  0  0
   57.0760   32.9450   45.0990 N   0  0  0  0  0  0  0  0  0  0  0  0
   57.5540   34.1700   45.4420 C   0  0  0  0  0  0  0  0  0  0  0  0
   58.7740   34.2830   46.1080 C   0  0  0  0  0  0  0  0  0  0  0  0
   59.4840   33.1260   46.4330 C   0  0  0  0  0  0  0  0  0  0  0  0
   58.9660   31.8680   46.1050 C   0  0  0  0  0  0  0  0  0  0  0  0
   59.7040   30.6890   46.4560 N   0  0  0  0  0  0  0  0  0  0  0  0
   59.8450   30.2500   47.8170 C   0  0  0  0  0  0  0  0  0  0  0  0
   59.5010   31.0080   48.7620 O   0  0  0  0  0  0  0  0  0  0  0  0
   60.3870   28.9610   48.1270 N   0  0  0  0  0  0  0  0  0  0  0  0
   59.6030   27.7400   48.2770 C   0  0  0  0  0  0  0  0  0  0  0  0
   58.8460   27.4340   47.0110 C   0  0  0  0  0  0  0  0  0  0  0  0
   59.4890   27.5280   45.7680 C   0  0  0  0  0  0  0  0  0  0  0  0
   58.7930   27.2400   44.5920 C   0  0  0  0  0  0  0  0  0  0  0  0
   57.4470   26.8700   44.6450 C   0  0  0  0  0  0  0  0  0  0  0  0
   56.7820   26.7990   45.8820 C   0  0  0  0  0  0  0  0  0  0  0  0
   55.4070   26.3980   45.9780 N   0  0  0  0  0  0  0  0  0  0  0  0
   54.8760   25.1050   45.6570 C   0  0  0  0  0  0  0  0  0  0  0  0
   53.6890   24.8430   45.9880 O   0  0  0  0  0  0  0  0  0  0  0  0
   55.6630   24.0890   44.9200 C   0  0  0  0  0  0  0  0  0  0  0  0
   56.9760   23.8000   45.3260 C   0  0  0  0  0  0  0  0  0  0  0  0
   57.7340   22.8550   44.6360 C   0  0  0  0  0  0  0  0  0  0  0  0
   57.1710   22.1910   43.5460 C   0  0  0  0  0  0  0  0  0  0  0  0
   55.8920   22.4570   43.1740 N   0  0  0  0  0  0  0  0  0  0  0  0
   55.1270   23.3740   43.8270 C   0  0  0  0  0  0  0  0  0  0  0  0
   53.9370   23.5540   43.4570 O   0  0  0  0  0  0  0  0  0  0  0  0
   57.4910   27.0650   47.0600 C   0  0  0  0  0  0  0  0  0  0  0  0
   56.8786   31.8714   43.0477 H   0  0  0  0  0  0  0  0  0  0  0  0
   57.9489   30.5069   42.5792 H   0  0  0  0  0  0  0  0  0  0  0  0
   56.1656   30.2906   42.5792 H   0  0  0  0  0  0  0  0  0  0  0  0
   56.9778   35.0736   45.1940 H   0  0  0  0  0  0  0  0  0  0  0  0
   59.1725   35.2731   46.3743 H   0  0  0  0  0  0  0  0  0  0  0  0
   60.4529   33.2032   46.9481 H   0  0  0  0  0  0  0  0  0  0  0  0
   60.3190   30.2670   45.7260 H   0  0  0  0  0  0  0  0  0  0  0  0
   60.2789   26.9026   48.5048 H   0  0  0  0  0  0  0  0  0  0  0  0
   58.8813   27.8815   49.0950 H   0  0  0  0  0  0  0  0  0  0  0  0
   60.5457   27.8298   45.7193 H   0  0  0  0  0  0  0  0  0  0  0  0
   59.3062   27.3047   43.6212 H   0  0  0  0  0  0  0  0  0  0  0  0
   56.9060   26.6336   43.7169 H   0  0  0  0  0  0  0  0  0  0  0  0
   57.4084   24.3217   46.1925 H   0  0  0  0  0  0  0  0  0  0  0  0
   58.7657   22.6352   44.9480 H   0  0  0  0  0  0  0  0  0  0  0  0
   57.7633   21.4514   42.9873 H   0  0  0  0  0  0  0  0  0  0  0  0
   56.9827   26.9844   48.0322 H   0  0  0  0  0  0  0  0  0  0  0  0
  1  2  1  0
  2  3  1  0
  3  4  2  0
  4  5  1  0
  5  6  2  0
  6  7  1  0
  7  8  2  0
  8  9  1  0
  9 10  1  0
 10 11  2  0
 10 12  1  0
 12 13  1  0
 13 14  1  0
 14 15  2  0
 15 16  1  0
 16 17  2  0
 17 18  1  0
 18 19  1  0
 19 20  1  0
 20 21  2  0
 20 22  1  0
 22 23  2  0
 23 24  1  0
 24 25  2  0
 25 26  1  0
 26 27  1  0
 27 28  2  0
 18 29  2  0
  8  3  1  0
 29 14  1  0
 27 22  1  0
  1 30  1  0
  1 31  1  0
  1 32  1  0
  5 33  1  0
  6 34  1  0
  7 35  1  0
  9 36  1  0
 13 37  1  0
 13 38  1  0
 15 39  1  0
 16 40  1  0
 17 41  1  0
 23 42  1  0
 24 43  1  0
 25 44  1  0
 29 45  1  0
M  CHG  3  12  -1  19  -1  26  -1
M  END
>  <UniqueID>  (28) 
27

>  <SMILES>  (28) 
CSc1ncccc1NC(=O)[N-]Cc1cccc([N-]C(=O)c2ccc[n-]c2=O)c1

>  <Energy>  (28) 
54.932593329825366

>  <Genealogy>  (28) 
CSc1ncccc1NC(=O)[N-]Cc1cccc([N-]C(=O)c2ccc[n-]c2=O)c1 (protonated)
CSc1ncccc1NC(=O)[N-]Cc1cccc([N-]C(=O)c2ccc[n-]c2=O)c1 (3D coordinates assigned)
CSc1ncccc1NC(=O)[N-]Cc1cccc([N-]C(=O)c2ccc[n-]c2=O)c1 (optimized conformer: 54.932593329825366 kcal/mol)

>  <smiles>  (28) 
CSc1ncccc1NC(=O)NCc1cccc(NC(=O)c2ccc[nH]c2=O)c1

>  <score_type>  (28) 
oracle

>  <origin>  (28) 
adg

>  <m_score__min__energy>  (28) 
-13.59

>  <m_primary>  (28) 
energy

$$$$
28:0
     RDKit          3D

 47 50  0  0  0  0  0  0  0  0999 V2000
   50.8750   21.0830   44.6790 N   0  0  0  0  0  0  0  0  0  0  0  0
   51.3220   22.6040   45.3670 S   0  0  0  0  0  0  0  0  0  0  0  0
   50.1390   23.5320   45.3500 O   0  0  0  0  0  0  0  0  0  0  0  0
   52.4250   23.2120   44.5460 O   0  0  0  0  0  0  0  0  0  0  0  0
   51.8580   22.3640   47.0270 C   0  0  0  0  0  0  0  0  0  0  0  0
   50.9420   22.0260   48.0320 C   0  0  0  0  0  0  0  0  0  0  0  0
   51.3830   21.8260   49.3420 C   0  0  0  0  0  0  0  0  0  0  0  0
   52.7360   21.9780   49.6590 C   0  0  0  0  0  0  0  0  0  0  0  0
   53.6570   22.3520   48.6730 C   0  0  0  0  0  0  0  0  0  0  0  0
   55.0410   22.4850   49.0410 N   0  0  0  0  0  0  0  0  0  0  0  0
   55.9920   22.9530   48.2880 C   0  0  0  0  0  0  0  0  0  0  0  0
   56.9620   22.1810   47.7670 N   0  0  0  0  0  0  0  0  0  0  0  0
   57.7490   23.0000   47.0860 N   0  0  0  0  0  0  0  0  0  0  0  0
   57.2280   24.2360   47.2270 C   0  0  0  0  0  0  0  0  0  0  0  0
   57.7920   25.4510   46.6280 C   0  0  0  0  0  0  0  0  0  0  0  0
   58.9140   25.3870   46.0570 O   0  0  0  0  0  0  0  0  0  0  0  0
   57.0570   26.6860   46.6570 N   0  0  0  0  0  0  0  0  0  0  0  0
   57.6170   27.9580   46.2830 C   0  0  0  0  0  0  0  0  0  0  0  0
   58.9250   28.3120   46.6570 C   0  0  0  0  0  0  0  0  0  0  0  0
   59.4490   29.5590   46.3080 C   0  0  0  0  0  0  0  0  0  0  0  0
   58.6740   30.4750   45.5780 C   0  0  0  0  0  0  0  0  0  0  0  0
   59.1600   31.7410   45.2210 O   0  0  0  0  0  0  0  0  0  0  0  0
   59.3100   32.8300   46.0930 C   0  0  0  0  0  0  0  0  0  0  0  0
   59.4480   34.1500   45.6220 C   0  0  0  0  0  0  0  0  0  0  0  0
   59.5780   35.2090   46.5250 C   0  0  0  0  0  0  0  0  0  0  0  0
   59.5590   34.9630   47.9010 C   0  0  0  0  0  0  0  0  0  0  0  0
   59.4020   33.6580   48.3750 C   0  0  0  0  0  0  0  0  0  0  0  0
   59.2710   32.5960   47.4730 C   0  0  0  0  0  0  0  0  0  0  0  0
   57.3590   30.1400   45.2390 C   0  0  0  0  0  0  0  0  0  0  0  0
   56.8300   28.8920   45.5860 C   0  0  0  0  0  0  0  0  0  0  0  0
   55.5240   28.5820   45.2240 O   0  0  0  0  0  0  0  0  0  0  0  0
   56.1470   24.2150   47.9690 O   0  0  0  0  0  0  0  0  0  0  0  0
   53.2130   22.5220   47.3470 C   0  0  0  0  0  0  0  0  0  0  0  0
   51.7500   20.5220   44.5800 H   0  0  0  0  0  0  0  0  0  0  0  0
   49.8746   21.9181   47.7890 H   0  0  0  0  0  0  0  0  0  0  0  0
   50.6637   21.5481   50.1265 H   0  0  0  0  0  0  0  0  0  0  0  0
   53.0791   21.8027   50.6893 H   0  0  0  0  0  0  0  0  0  0  0  0
   56.0390   26.6460   46.8860 H   0  0  0  0  0  0  0  0  0  0  0  0
   59.5405   27.6018   47.2287 H   0  0  0  0  0  0  0  0  0  0  0  0
   60.4738   29.8249   46.6064 H   0  0  0  0  0  0  0  0  0  0  0  0
   59.4535   34.3483   44.5400 H   0  0  0  0  0  0  0  0  0  0  0  0
   59.6954   36.2373   46.1524 H   0  0  0  0  0  0  0  0  0  0  0  0
   59.6676   35.7966   48.6104 H   0  0  0  0  0  0  0  0  0  0  0  0
   59.3814   33.4652   49.4578 H   0  0  0  0  0  0  0  0  0  0  0  0
   59.1366   31.5715   47.8503 H   0  0  0  0  0  0  0  0  0  0  0  0
   56.7351   30.8642   44.6947 H   0  0  0  0  0  0  0  0  0  0  0  0
   53.9345   22.7804   46.5579 H   0  0  0  0  0  0  0  0  0  0  0  0
  1  2  1  0
  2  3  2  0
  2  4  2  0
  2  5  1  0
  5  6  2  0
  6  7  1  0
  7  8  2  0
  8  9  1  0
  9 10  1  0
 10 11  2  3
 11 12  1  0
 12 13  1  0
 13 14  2  0
 14 15  1  0
 15 16  2  0
 15 17  1  0
 17 18  1  0
 18 19  2  0
 19 20  1  0
 20 21  2  0
 21 22  1  0
 22 23  1  0
 23 24  2  0
 24 25  1  0
 25 26  2  0
 26 27  1  0
 27 28  2  0
 21 29  1  0
 29 30  2  0
 30 31  1  0
 14 32  1  0
  9 33  2  0
 33  5  1  0
 32 11  1  0
 30 18  1  0
 28 23  1  0
  1 34  1  0
  6 35  1  0
  7 36  1  0
  8 37  1  0
 17 38  1  0
 19 39  1  0
 20 40  1  0
 24 41  1  0
 25 42  1  0
 26 43  1  0
 27 44  1  0
 28 45  1  0
 29 46  1  0
 33 47  1  0
M  CHG  3   1  -1  12  -1  31  -1
M  END
>  <UniqueID>  (29) 
28

>  <SMILES>  (29) 
[NH-]S(=O)(=O)c1cccc(N=c2[n-]nc(C(=O)Nc3ccc(Oc4ccccc4)cc3[O-])o2)c1

>  <Energy>  (29) 
100.96593124243617

>  <Genealogy>  (29) 
[NH-]S(=O)(=O)c1cccc(N=c2[n-]nc(C(=O)Nc3ccc(Oc4ccccc4)cc3[O-])o2)c1 (protonated)
[NH-]S(=O)(=O)c1cccc(N=c2[n-]nc(C(=O)Nc3ccc(Oc4ccccc4)cc3[O-])o2)c1 (3D coordinates assigned)
[NH-]S(=O)(=O)c1cccc(N=c2[n-]nc(C(=O)Nc3ccc(Oc4ccccc4)cc3[O-])o2)c1 (optimized conformer: 100.96593124243617 kcal/mol)

>  <smiles>  (29) 
NS(=O)(=O)c1cccc(N=c2[nH]nc(C(=O)Nc3ccc(Oc4ccccc4)cc3O)o2)c1

>  <score_type>  (29) 
oracle

>  <origin>  (29) 
adg

>  <m_score__min__energy>  (29) 
-14.51

>  <m_primary>  (29) 
energy

$$$$
29:0
     RDKit          3D

 57 58  0  0  0  0  0  0  0  0999 V2000
   60.9448   28.8099   43.8294 H   0  0  0  0  0  0  0  0  0  0  0  0
   60.1420   28.4900   44.5100 C   0  0  0  0  0  0  0  0  0  0  0  0
   59.1610   27.7890   44.0300 N   0  0  0  0  0  0  0  0  0  0  0  0
   57.8450   28.0930   44.3010 O   0  0  0  0  0  0  0  0  0  0  0  0
   57.1610   29.1100   43.5840 C   0  0  0  0  0  0  0  0  0  0  0  0
   57.8899   29.8077   43.1458 H   0  0  0  0  0  0  0  0  0  0  0  0
   56.5642   28.6614   42.7762 H   0  0  0  0  0  0  0  0  0  0  0  0
   56.2670   29.8450   44.5280 C   0  0  0  0  0  0  0  0  0  0  0  0
   55.1510   29.3590   44.8500 O   0  0  0  0  0  0  0  0  0  0  0  0
   56.6780   31.1180   45.0290 N   0  0  0  0  0  0  0  0  0  0  0  0
   57.5480   32.0230   44.2910 C   0  0  0  0  0  0  0  0  0  0  0  0
   58.2616   31.4349   43.6953 H   0  0  0  0  0  0  0  0  0  0  0  0
   56.9324   32.6510   43.6302 H   0  0  0  0  0  0  0  0  0  0  0  0
   58.3070   32.9100   45.2410 C   0  0  0  0  0  0  0  0  0  0  0  0
   58.8880   34.1080   44.7940 C   0  0  0  0  0  0  0  0  0  0  0  0
   58.8279   34.3885   43.7321 H   0  0  0  0  0  0  0  0  0  0  0  0
   59.5420   34.9410   45.7030 C   0  0  0  0  0  0  0  0  0  0  0  0
   60.0009   35.8787   45.3564 H   0  0  0  0  0  0  0  0  0  0  0  0
   59.6130   34.5960   47.0150 N   0  0  0  0  0  0  0  0  0  0  0  0
   59.0520   33.4480   47.4820 C   0  0  0  0  0  0  0  0  0  0  0  0
   59.1720   33.0520   49.1850 Cl  0  0  0  0  0  0  0  0  0  0  0  0
   58.3820   32.5890   46.6060 C   0  0  0  0  0  0  0  0  0  0  0  0
   57.9162   31.6669   46.9838 H   0  0  0  0  0  0  0  0  0  0  0  0
   60.2240   28.8760   45.9350 C   0  0  0  0  0  0  0  0  0  0  0  0
   59.7730   28.0130   46.9480 C   0  0  0  0  0  0  0  0  0  0  0  0
   59.3609   27.0279   46.6840 H   0  0  0  0  0  0  0  0  0  0  0  0
   59.8450   28.3990   48.2880 C   0  0  0  0  0  0  0  0  0  0  0  0
   59.4903   27.7142   49.0724 H   0  0  0  0  0  0  0  0  0  0  0  0
   60.3660   29.6530   48.6430 C   0  0  0  0  0  0  0  0  0  0  0  0
   60.4660   30.0380   50.0670 C   0  0  0  0  0  0  0  0  0  0  0  0
   59.6710   29.5500   50.9150 O   0  0  0  0  0  0  0  0  0  0  0  0
   61.4730   30.9680   50.4830 N   0  0  0  0  0  0  0  0  0  0  0  0
   62.9070   30.7340   50.3630 C   0  0  0  0  0  0  0  0  0  0  0  0
   63.0740   29.8250   49.7664 H   0  0  0  0  0  0  0  0  0  0  0  0
   63.3275   30.6165   51.3727 H   0  0  0  0  0  0  0  0  0  0  0  0
   63.6080   31.9230   49.6760 C   0  0  0  0  0  0  0  0  0  0  0  0
   64.5320   31.5523   49.2082 H   0  0  0  0  0  0  0  0  0  0  0  0
   63.7908   32.6718   50.4608 H   0  0  0  0  0  0  0  0  0  0  0  0
   62.7990   32.6000   48.6300 N   0  0  0  0  0  0  0  0  0  0  0  0
   63.4150   32.5020   47.2870 C   0  0  0  0  0  0  0  0  0  0  0  0
   62.9062   31.7160   46.7097 H   0  0  0  0  0  0  0  0  0  0  0  0
   64.4812   32.2545   47.3968 H   0  0  0  0  0  0  0  0  0  0  0  0
   63.2840   33.8320   46.5530 C   0  0  0  0  0  0  0  0  0  0  0  0
   63.2036   34.6487   47.2855 H   0  0  0  0  0  0  0  0  0  0  0  0
   64.1708   33.9915   45.9220 H   0  0  0  0  0  0  0  0  0  0  0  0
   62.3831   33.8154   45.9220 H   0  0  0  0  0  0  0  0  0  0  0  0
   62.4150   33.9950   48.9530 C   0  0  0  0  0  0  0  0  0  0  0  0
   63.0020   34.6801   48.3236 H   0  0  0  0  0  0  0  0  0  0  0  0
   61.3374   34.1047   48.7612 H   0  0  0  0  0  0  0  0  0  0  0  0
   62.6710   34.3320   50.4220 C   0  0  0  0  0  0  0  0  0  0  0  0
   62.1296   33.6193   51.0614 H   0  0  0  0  0  0  0  0  0  0  0  0
   63.7490   34.2663   50.6308 H   0  0  0  0  0  0  0  0  0  0  0  0
   62.3186   35.3529   50.6308 H   0  0  0  0  0  0  0  0  0  0  0  0
   60.7730   30.5330   47.6250 C   0  0  0  0  0  0  0  0  0  0  0  0
   61.1574   31.5298   47.8868 H   0  0  0  0  0  0  0  0  0  0  0  0
   60.6930   30.1510   46.2820 C   0  0  0  0  0  0  0  0  0  0  0  0
   60.9996   30.8544   45.4939 H   0  0  0  0  0  0  0  0  0  0  0  0
  1  2  1  0
  2  3  2  0
  3  4  1  0
  4  5  1  0
  5  6  1  0
  5  7  1  0
  5  8  1  0
  8  9  2  0
  8 10  1  0
 10 11  1  0
 11 12  1  0
 11 13  1  0
 11 14  1  0
 14 15  2  0
 15 16  1  0
 15 17  1  0
 17 18  1  0
 17 19  2  0
 19 20  1  0
 20 21  1  0
 20 22  2  0
 22 23  1  0
  2 24  1  0
 24 25  2  0
 25 26  1  0
 25 27  1  0
 27 28  1  0
 27 29  2  0
 29 30  1  0
 30 31  2  0
 30 32  1  0
 32 33  1  0
 33 34  1  0
 33 35  1  0
 33 36  1  0
 36 37  1  0
 36 38  1  0
 36 39  1  0
 39 40  1  0
 40 41  1  0
 40 42  1  0
 40 43  1  0
 43 44  1  0
 43 45  1  0
 43 46  1  0
 39 47  1  0
 47 48  1  0
 47 49  1  0
 47 50  1  0
 50 51  1  0
 50 52  1  0
 50 53  1  0
 29 54  1  0
 54 55  1  0
 54 56  2  0
 56 57  1  0
 22 14  1  0
 56 24  1  0
M  CHG  2  10  -1  32  -1
M  END
>  <UniqueID>  (30) 
29

>  <SMILES>  (30) 
CCN(CC)CC[N-]C(=O)c1ccc(/C=N\OCC(=O)[N-]Cc2ccnc(Cl)c2)cc1

>  <Energy>  (30) 
54.695153862996605

>  <Genealogy>  (30) 
CCN(CC)CC[N-]C(=O)c1ccc(C=NOCC(=O)[N-]Cc2ccnc(Cl)c2)cc1 (protonated)
CCN(CC)CC[N-]C(=O)c1ccc(/C=N\OCC(=O)[N-]Cc2ccnc(Cl)c2)cc1 (cis-trans isomerization)
CCN(CC)CC[N-]C(=O)c1ccc(/C=N\OCC(=O)[N-]Cc2ccnc(Cl)c2)cc1 (3D coordinates assigned)
CCN(CC)CC[N-]C(=O)c1ccc(/C=N\OCC(=O)[N-]Cc2ccnc(Cl)c2)cc1 (optimized conformer: 54.695153862996605 kcal/mol)

>  <smiles>  (30) 
CCN(CC)CCNC(=O)c1ccc(C=NOCC(=O)NCc2ccnc(Cl)c2)cc1

>  <score_type>  (30) 
oracle

>  <origin>  (30) 
adg

>  <m_score__min__energy>  (30) 
-10.76

>  <m_primary>  (30) 
energy

$$$$
30:0
     RDKit          3D

 45 48  0  0  0  0  0  0  0  0999 V2000
   55.3940   29.0580   44.4690 O   0  0  0  0  0  0  0  0  0  0  0  0
   56.2790   29.8610   44.8710 C   0  0  0  0  0  0  0  0  0  0  0  0
   56.0920   31.1930   44.6970 N   0  0  0  0  0  0  0  0  0  0  0  0
   57.0120   32.1140   45.0830 C   0  0  0  0  0  0  0  0  0  0  0  0
   58.2230   31.7150   45.6930 C   0  0  0  0  0  0  0  0  0  0  0  0
   59.2250   32.6920   46.1150 N   0  0  0  0  0  0  0  0  0  0  0  0
   60.4720   32.2200   46.7550 C   0  0  0  0  0  0  0  0  0  0  0  0
   61.4520   33.3440   47.1180 C   0  0  0  0  0  0  0  0  0  0  0  0
   60.7770   34.5190   47.5040 O   0  0  0  0  0  0  0  0  0  0  0  0
   60.0960   35.0280   46.3820 C   0  0  0  0  0  0  0  0  0  0  0  0
   58.9110   34.1330   46.0270 C   0  0  0  0  0  0  0  0  0  0  0  0
   58.4250   30.3270   45.8720 C   0  0  0  0  0  0  0  0  0  0  0  0
   57.4600   29.3910   45.4710 C   0  0  0  0  0  0  0  0  0  0  0  0
   57.7070   27.9420   45.6760 C   0  0  0  0  0  0  0  0  0  0  0  0
   56.6440   27.0820   46.0000 C   0  0  0  0  0  0  0  0  0  0  0  0
   56.8710   25.7160   46.1850 C   0  0  0  0  0  0  0  0  0  0  0  0
   58.1540   25.1820   46.0270 C   0  0  0  0  0  0  0  0  0  0  0  0
   58.3430   23.8070   46.2250 O   0  0  0  0  0  0  0  0  0  0  0  0
   57.7870   22.7880   45.4360 C   0  0  0  0  0  0  0  0  0  0  0  0
   57.5100   21.5510   46.0330 C   0  0  0  0  0  0  0  0  0  0  0  0
   56.9320   20.5190   45.2860 C   0  0  0  0  0  0  0  0  0  0  0  0
   56.6180   20.7190   43.9390 C   0  0  0  0  0  0  0  0  0  0  0  0
   56.8760   21.9560   43.3390 C   0  0  0  0  0  0  0  0  0  0  0  0
   57.4540   22.9900   44.0820 C   0  0  0  0  0  0  0  0  0  0  0  0
   59.2230   26.0410   45.7170 C   0  0  0  0  0  0  0  0  0  0  0  0
   59.0000   27.4090   45.5360 C   0  0  0  0  0  0  0  0  0  0  0  0
   56.8125   33.1833   44.9190 H   0  0  0  0  0  0  0  0  0  0  0  0
   60.2055   31.6824   47.6769 H   0  0  0  0  0  0  0  0  0  0  0  0
   60.9822   31.5775   46.0222 H   0  0  0  0  0  0  0  0  0  0  0  0
   62.0874   33.0079   47.9507 H   0  0  0  0  0  0  0  0  0  0  0  0
   62.0569   33.5725   46.2281 H   0  0  0  0  0  0  0  0  0  0  0  0
   59.7304   36.0404   46.6085 H   0  0  0  0  0  0  0  0  0  0  0  0
   60.7885   35.0583   45.5279 H   0  0  0  0  0  0  0  0  0  0  0  0
   58.0856   34.3542   46.7197 H   0  0  0  0  0  0  0  0  0  0  0  0
   58.6409   34.3462   44.9822 H   0  0  0  0  0  0  0  0  0  0  0  0
   59.3581   29.9738   46.3353 H   0  0  0  0  0  0  0  0  0  0  0  0
   55.6270   27.4868   46.1086 H   0  0  0  0  0  0  0  0  0  0  0  0
   56.0345   25.0555   46.4570 H   0  0  0  0  0  0  0  0  0  0  0  0
   57.7483   21.3905   47.0948 H   0  0  0  0  0  0  0  0  0  0  0  0
   56.7243   19.5482   45.7598 H   0  0  0  0  0  0  0  0  0  0  0  0
   56.1686   19.9049   43.3514 H   0  0  0  0  0  0  0  0  0  0  0  0
   56.6236   22.1157   42.2803 H   0  0  0  0  0  0  0  0  0  0  0  0
   57.6492   23.9634   43.6083 H   0  0  0  0  0  0  0  0  0  0  0  0
   60.2401   25.6344   45.6164 H   0  0  0  0  0  0  0  0  0  0  0  0
   59.8406   28.0717   45.2827 H   0  0  0  0  0  0  0  0  0  0  0  0
  1  2  2  0
  2  3  1  0
  3  4  1  0
  4  5  2  0
  5  6  1  0
  6  7  1  0
  7  8  1  0
  8  9  1  0
  9 10  1  0
 10 11  1  0
  5 12  1  0
 12 13  2  0
 13 14  1  0
 14 15  2  0
 15 16  1  0
 16 17  2  0
 17 18  1  0
 18 19  1  0
 19 20  2  0
 20 21  1  0
 21 22  2  0
 22 23  1  0
 23 24  2  0
 17 25  1  0
 25 26  2  0
 13  2  1  0
 26 14  1  0
 11  6  1  0
 24 19  1  0
  4 27  1  0
  7 28  1  0
  7 29  1  0
  8 30  1  0
  8 31  1  0
 10 32  1  0
 10 33  1  0
 11 34  1  0
 11 35  1  0
 12 36  1  0
 15 37  1  0
 16 38  1  0
 20 39  1  0
 21 40  1  0
 22 41  1  0
 23 42  1  0
 24 43  1  0
 25 44  1  0
 26 45  1  0
M  CHG  1   3  -1
M  END
>  <UniqueID>  (31) 
30

>  <SMILES>  (31) 
O=c1[n-]cc(N2CCOCC2)cc1-c1ccc(Oc2ccccc2)cc1

>  <Energy>  (31) 
70.94147265239566

>  <Genealogy>  (31) 
O=c1[n-]cc(N2CCOCC2)cc1-c1ccc(Oc2ccccc2)cc1 (protonated)
O=c1[n-]cc(N2CCOCC2)cc1-c1ccc(Oc2ccccc2)cc1 (3D coordinates assigned)
O=c1[n-]cc(N2CCOCC2)cc1-c1ccc(Oc2ccccc2)cc1 (nonaromatic ring conformer: 70.94147265239566 kcal/mol)

>  <smiles>  (31) 
O=c1[nH]cc(N2CCOCC2)cc1-c1ccc(Oc2ccccc2)cc1

>  <score_type>  (31) 
oracle

>  <origin>  (31) 
adg

>  <m_score__min__energy>  (31) 
-9.3000000000000007

>  <m_primary>  (31) 
energy

$$$$
31:0
     RDKit          3D

 58 61  0  0  0  0  0  0  0  0999 V2000
   63.1080   32.0060   48.9990 C   0  0  0  0  0  0  0  0  0  0  0  0
   62.9500   32.0730   47.4720 C   0  0  0  0  0  0  0  0  0  0  0  0
   63.3430   33.4560   46.9540 C   0  0  0  0  0  0  0  0  0  0  0  0
   61.6030   31.8020   47.0700 O   0  0  0  0  0  0  0  0  0  0  0  0
   60.7290   30.9760   47.7840 C   0  0  0  0  0  0  0  0  0  0  0  0
   60.8010   29.5900   47.5780 C   0  0  0  0  0  0  0  0  0  0  0  0
   59.9660   28.7100   48.2850 C   0  0  0  0  0  0  0  0  0  0  0  0
   60.0530   27.2490   48.0650 C   0  0  0  0  0  0  0  0  0  0  0  0
   61.1470   26.7160   47.7300 O   0  0  0  0  0  0  0  0  0  0  0  0
   58.9270   26.4430   48.2270 O   0  0  0  0  0  0  0  0  0  0  0  0
   59.0520   29.2340   49.2110 C   0  0  0  0  0  0  0  0  0  0  0  0
   58.9740   30.6140   49.4240 C   0  0  0  0  0  0  0  0  0  0  0  0
   59.8170   31.4980   48.7290 C   0  0  0  0  0  0  0  0  0  0  0  0
   59.7350   32.9790   49.0140 C   0  0  0  0  0  0  0  0  0  0  0  0
   59.5000   33.7410   47.7870 N   0  0  0  0  0  0  0  0  0  0  0  0
   60.0210   34.9560   47.4940 C   0  0  0  0  0  0  0  0  0  0  0  0
   59.6300   35.3660   46.2250 C   0  0  0  0  0  0  0  0  0  0  0  0
   58.8530   34.3390   45.7350 C   0  0  0  0  0  0  0  0  0  0  0  0
   58.2240   34.1930   44.5030 C   0  0  0  0  0  0  0  0  0  0  0  0
   57.5170   33.0010   44.2600 C   0  0  0  0  0  0  0  0  0  0  0  0
   57.4590   31.9810   45.2480 C   0  0  0  0  0  0  0  0  0  0  0  0
   56.7330   30.7640   45.0270 N   0  0  0  0  0  0  0  0  0  0  0  0
   57.2180   29.4480   45.3090 C   0  0  0  0  0  0  0  0  0  0  0  0
   58.4220   29.2760   45.6370 O   0  0  0  0  0  0  0  0  0  0  0  0
   56.2940   28.3490   45.3070 N   0  0  0  0  0  0  0  0  0  0  0  0
   56.6430   26.9810   45.5880 C   0  0  0  0  0  0  0  0  0  0  0  0
   57.9490   26.5430   45.3240 C   0  0  0  0  0  0  0  0  0  0  0  0
   58.3220   25.2220   45.5810 C   0  0  0  0  0  0  0  0  0  0  0  0
   57.3960   24.3120   46.1200 C   0  0  0  0  0  0  0  0  0  0  0  0
   57.7770   22.9050   46.3690 C   0  0  0  0  0  0  0  0  0  0  0  0
   58.4690   22.2700   45.5270 O   0  0  0  0  0  0  0  0  0  0  0  0
   57.3620   22.2560   47.5230 O   0  0  0  0  0  0  0  0  0  0  0  0
   56.0980   24.7600   46.4180 C   0  0  0  0  0  0  0  0  0  0  0  0
   55.7280   26.0820   46.1650 C   0  0  0  0  0  0  0  0  0  0  0  0
   58.0930   32.1740   46.4910 C   0  0  0  0  0  0  0  0  0  0  0  0
   58.7900   33.3670   46.7010 C   0  0  0  0  0  0  0  0  0  0  0  0
   62.1969   32.3924   49.4792 H   0  0  0  0  0  0  0  0  0  0  0  0
   63.2695   30.9620   49.3055 H   0  0  0  0  0  0  0  0  0  0  0  0
   63.9708   32.6157   49.3055 H   0  0  0  0  0  0  0  0  0  0  0  0
   63.6130   31.3060   47.0452 H   0  0  0  0  0  0  0  0  0  0  0  0
   63.5334   34.1260   47.8054 H   0  0  0  0  0  0  0  0  0  0  0  0
   64.2532   33.3733   46.3419 H   0  0  0  0  0  0  0  0  0  0  0  0
   62.5253   33.8643   46.3419 H   0  0  0  0  0  0  0  0  0  0  0  0
   61.5223   29.1868   46.8519 H   0  0  0  0  0  0  0  0  0  0  0  0
   58.3929   28.5557   49.7728 H   0  0  0  0  0  0  0  0  0  0  0  0
   58.2441   31.0123   50.1441 H   0  0  0  0  0  0  0  0  0  0  0  0
   58.9082   33.1643   49.7155 H   0  0  0  0  0  0  0  0  0  0  0  0
   60.6919   33.3040   49.4484 H   0  0  0  0  0  0  0  0  0  0  0  0
   60.6657   35.5389   48.1683 H   0  0  0  0  0  0  0  0  0  0  0  0
   59.8861   36.3089   45.7197 H   0  0  0  0  0  0  0  0  0  0  0  0
   58.2777   34.9853   43.7418 H   0  0  0  0  0  0  0  0  0  0  0  0
   57.0048   32.8573   43.2972 H   0  0  0  0  0  0  0  0  0  0  0  0
   55.2790   28.5850   45.2150 H   0  0  0  0  0  0  0  0  0  0  0  0
   58.6865   27.2467   44.9106 H   0  0  0  0  0  0  0  0  0  0  0  0
   59.3476   24.8912   45.3601 H   0  0  0  0  0  0  0  0  0  0  0  0
   55.3673   24.0631   46.8543 H   0  0  0  0  0  0  0  0  0  0  0  0
   54.7135   26.4232   46.4187 H   0  0  0  0  0  0  0  0  0  0  0  0
   58.0408   31.4054   47.2762 H   0  0  0  0  0  0  0  0  0  0  0  0
  1  2  1  0
  2  3  1  0
  2  4  1  0
  4  5  1  0
  5  6  2  0
  6  7  1  0
  7  8  1  0
  8  9  2  0
  8 10  1  0
  7 11  2  0
 11 12  1  0
 12 13  2  0
 13 14  1  0
 14 15  1  0
 15 16  1  0
 16 17  2  0
 17 18  1  0
 18 19  2  0
 19 20  1  0
 20 21  2  0
 21 22  1  0
 22 23  1  0
 23 24  2  0
 23 25  1  0
 25 26  1  0
 26 27  2  0
 27 28  1  0
 28 29  2  0
 29 30  1  0
 30 31  2  0
 30 32  1  0
 29 33  1  0
 33 34  2  0
 21 35  1  0
 35 36  2  0
 13  5  1  0
 36 15  1  0
 36 18  1  0
 34 26  1  0
  1 37  1  0
  1 38  1  0
  1 39  1  0
  2 40  1  0
  3 41  1  0
  3 42  1  0
  3 43  1  0
  6 44  1  0
 11 45  1  0
 12 46  1  0
 14 47  1  0
 14 48  1  0
 16 49  1  0
 17 50  1  0
 19 51  1  0
 20 52  1  0
 25 53  1  0
 27 54  1  0
 28 55  1  0
 33 56  1  0
 34 57  1  0
 35 58  1  0
M  CHG  3  10  -1  22  -1  32  -1
M  END
>  <UniqueID>  (32) 
31

>  <SMILES>  (32) 
CC(C)Oc1cc(C(=O)[O-])ccc1Cn1ccc2ccc([N-]C(=O)Nc3ccc(C(=O)[O-])cc3)cc21

>  <Energy>  (32) 
105.38270608879128

>  <Genealogy>  (32) 
CC(C)Oc1cc(C(=O)[O-])ccc1Cn1ccc2ccc([N-]C(=O)Nc3ccc(C(=O)[O-])cc3)cc21 (protonated)
CC(C)Oc1cc(C(=O)[O-])ccc1Cn1ccc2ccc([N-]C(=O)Nc3ccc(C(=O)[O-])cc3)cc21 (3D coordinates assigned)
CC(C)Oc1cc(C(=O)[O-])ccc1Cn1ccc2ccc([N-]C(=O)Nc3ccc(C(=O)[O-])cc3)cc21 (optimized conformer: 105.38270608879128 kcal/mol)

>  <smiles>  (32) 
CC(C)Oc1cc(C(=O)O)ccc1Cn1ccc2ccc(NC(=O)Nc3ccc(C(=O)O)cc3)cc21

>  <score_type>  (32) 
oracle

>  <origin>  (32) 
adg

>  <m_score__min__energy>  (32) 
-13.84

>  <m_primary>  (32) 
energy

$$$$
32:0
     RDKit          3D

 50 52  0  0  0  0  0  0  0  0999 V2000
   59.1490   34.4610   46.1190 C   0  0  0  0  0  0  0  0  0  0  0  0
   59.7360   33.3110   46.7160 O   0  0  0  0  0  0  0  0  0  0  0  0
   61.0820   33.2130   47.1060 C   0  0  0  0  0  0  0  0  0  0  0  0
   62.1100   33.8370   46.3710 C   0  0  0  0  0  0  0  0  0  0  0  0
   63.4400   33.7290   46.7800 C   0  0  0  0  0  0  0  0  0  0  0  0
   63.7640   33.0030   47.9250 C   0  0  0  0  0  0  0  0  0  0  0  0
   62.7580   32.3770   48.6640 C   0  0  0  0  0  0  0  0  0  0  0  0
   61.4140   32.4670   48.2620 C   0  0  0  0  0  0  0  0  0  0  0  0
   60.3540   31.7600   49.0800 C   0  0  0  0  0  0  0  0  0  0  0  0
   60.2430   30.2630   48.7320 C   0  0  0  0  0  0  0  0  0  0  0  0
   59.2430   29.9440   47.6510 C   0  0  0  0  0  0  0  0  0  0  0  0
   58.3750   29.0450   47.8190 O   0  0  0  0  0  0  0  0  0  0  0  0
   59.3070   30.6560   46.4070 N   0  0  0  0  0  0  0  0  0  0  0  0
   58.4210   30.3740   45.3160 C   0  0  0  0  0  0  0  0  0  0  0  0
   57.7120   31.4320   44.7280 C   0  0  0  0  0  0  0  0  0  0  0  0
   56.8660   31.1990   43.6410 C   0  0  0  0  0  0  0  0  0  0  0  0
   56.7110   29.9060   43.1410 C   0  0  0  0  0  0  0  0  0  0  0  0
   57.3910   28.8390   43.7340 C   0  0  0  0  0  0  0  0  0  0  0  0
   58.2440   29.0580   44.8290 C   0  0  0  0  0  0  0  0  0  0  0  0
   58.8650   27.9380   45.4860 N   0  0  0  0  0  0  0  0  0  0  0  0
   60.3270   27.8820   45.6080 C   0  0  0  0  0  0  0  0  0  0  0  0
   60.7580   26.6660   46.4360 C   0  0  0  0  0  0  0  0  0  0  0  0
   59.8430   26.4660   47.5640 N   0  0  0  0  0  0  0  0  0  0  0  0
   58.4830   26.1020   47.1230 C   0  0  0  0  0  0  0  0  0  0  0  0
   58.0700   26.7390   45.7780 C   0  0  0  0  0  0  0  0  0  0  0  0
   58.7998   35.1451   46.9065 H   0  0  0  0  0  0  0  0  0  0  0  0
   59.8966   34.9719   45.4944 H   0  0  0  0  0  0  0  0  0  0  0  0
   58.2967   34.1553   45.4944 H   0  0  0  0  0  0  0  0  0  0  0  0
   61.8621   34.4138   45.4677 H   0  0  0  0  0  0  0  0  0  0  0  0
   64.2346   34.2180   46.1973 H   0  0  0  0  0  0  0  0  0  0  0  0
   64.8129   32.9231   48.2467 H   0  0  0  0  0  0  0  0  0  0  0  0
   63.0196   31.8085   49.5686 H   0  0  0  0  0  0  0  0  0  0  0  0
   60.6078   31.8568   50.1459 H   0  0  0  0  0  0  0  0  0  0  0  0
   59.3860   32.2296   48.8512 H   0  0  0  0  0  0  0  0  0  0  0  0
   61.2315   29.9137   48.3992 H   0  0  0  0  0  0  0  0  0  0  0  0
   59.8910   29.7560   49.6425 H   0  0  0  0  0  0  0  0  0  0  0  0
   60.1490   31.2450   46.2170 H   0  0  0  0  0  0  0  0  0  0  0  0
   57.8229   32.4517   45.1254 H   0  0  0  0  0  0  0  0  0  0  0  0
   56.3217   32.0358   43.1790 H   0  0  0  0  0  0  0  0  0  0  0  0
   56.0524   29.7261   42.2785 H   0  0  0  0  0  0  0  0  0  0  0  0
   57.2576   27.8204   43.3408 H   0  0  0  0  0  0  0  0  0  0  0  0
   60.7702   27.8099   44.6038 H   0  0  0  0  0  0  0  0  0  0  0  0
   60.6737   28.7946   46.1150 H   0  0  0  0  0  0  0  0  0  0  0  0
   60.7474   25.7704   45.7974 H   0  0  0  0  0  0  0  0  0  0  0  0
   61.7719   26.8404   46.8253 H   0  0  0  0  0  0  0  0  0  0  0  0
   59.7870   27.3620   48.1020 H   0  0  0  0  0  0  0  0  0  0  0  0
   58.4342   25.0081   47.0177 H   0  0  0  0  0  0  0  0  0  0  0  0
   57.7873   26.4843   47.8845 H   0  0  0  0  0  0  0  0  0  0  0  0
   58.2211   26.0047   44.9730 H   0  0  0  0  0  0  0  0  0  0  0  0
   57.0122   27.0332   45.8449 H   0  0  0  0  0  0  0  0  0  0  0  0
  1  2  1  0
  2  3  1  0
  3  4  2  0
  4  5  1  0
  5  6  2  0
  6  7  1  0
  7  8  2  0
  8  9  1  0
  9 10  1  0
 10 11  1  0
 11 12  2  0
 11 13  1  0
 13 14  1  0
 14 15  2  0
 15 16  1  0
 16 17  2  0
 17 18  1  0
 18 19  2  0
 19 20  1  0
 20 21  1  0
 21 22  1  0
 22 23  1  0
 23 24  1  0
 24 25  1  0
  8  3  1  0
 19 14  1  0
 25 20  1  0
  1 26  1  0
  1 27  1  0
  1 28  1  0
  4 29  1  0
  5 30  1  0
  6 31  1  0
  7 32  1  0
  9 33  1  0
  9 34  1  0
 10 35  1  0
 10 36  1  0
 13 37  1  0
 15 38  1  0
 16 39  1  0
 17 40  1  0
 18 41  1  0
 21 42  1  0
 21 43  1  0
 22 44  1  0
 22 45  1  0
 23 46  1  0
 24 47  1  0
 24 48  1  0
 25 49  1  0
 25 50  1  0
M  END
>  <UniqueID>  (33) 
32

>  <SMILES>  (33) 
COc1ccccc1CCC(=O)Nc1ccccc1N1CCNCC1

>  <Energy>  (33) 
59.74727837260988

>  <Genealogy>  (33) 
COc1ccccc1CCC(=O)Nc1ccccc1N1CCNCC1 (3D coordinates assigned)
COc1ccccc1CCC(=O)Nc1ccccc1N1CCNCC1 (nonaromatic ring conformer: 59.74727837260988 kcal/mol)

>  <smiles>  (33) 
COc1ccccc1CCC(=O)Nc1ccccc1N1CCNCC1

>  <score_type>  (33) 
oracle

>  <origin>  (33) 
adg

>  <m_score__min__energy>  (33) 
-7.3899999999999997

>  <m_primary>  (33) 
energy

$$$$
33:0
     RDKit          3D

 41 43  0  0  0  0  0  0  0  0999 V2000
   55.8520   29.7290   43.8130 C   0  0  0  0  0  0  0  0  0  0  0  0
   56.8430   30.8360   43.9400 C   0  0  0  0  0  0  0  0  0  0  0  0
   57.2970   31.3070   45.1210 N   0  0  0  0  0  0  0  0  0  0  0  0
   58.1500   32.3600   44.9720 C   0  0  0  0  0  0  0  0  0  0  0  0
   58.7650   33.0450   46.1320 C   0  0  0  0  0  0  0  0  0  0  0  0
   59.2480   34.3740   46.1250 C   0  0  0  0  0  0  0  0  0  0  0  0
   59.2420   35.2810   44.9300 C   0  0  0  0  0  0  0  0  0  0  0  0
   59.7350   34.7940   47.3610 C   0  0  0  0  0  0  0  0  0  0  0  0
   59.5970   33.5260   48.4540 S   0  0  0  0  0  0  0  0  0  0  0  0
   58.9220   32.4300   47.3720 C   0  0  0  0  0  0  0  0  0  0  0  0
   58.4530   31.1130   47.6850 N   0  0  0  0  0  0  0  0  0  0  0  0
   58.8780   30.2930   48.7810 C   0  0  0  0  0  0  0  0  0  0  0  0
   58.2680   30.3320   49.8820 O   0  0  0  0  0  0  0  0  0  0  0  0
   60.0790   29.4430   48.6630 C   0  0  0  0  0  0  0  0  0  0  0  0
   60.4280   28.7220   47.5850 C   0  0  0  0  0  0  0  0  0  0  0  0
   59.4970   28.1730   46.5750 C   0  0  0  0  0  0  0  0  0  0  0  0
   59.8080   28.3100   45.2150 C   0  0  0  0  0  0  0  0  0  0  0  0
   58.9620   27.7730   44.2430 C   0  0  0  0  0  0  0  0  0  0  0  0
   57.8020   27.0930   44.6170 C   0  0  0  0  0  0  0  0  0  0  0  0
   57.4820   26.9260   45.9760 C   0  0  0  0  0  0  0  0  0  0  0  0
   56.2780   26.2410   46.3680 N   0  0  0  0  0  0  0  0  0  0  0  0
   55.1590   26.6650   46.0110 O   0  0  0  0  0  0  0  0  0  0  0  0
   56.3380   25.1230   47.1680 O   0  0  0  0  0  0  0  0  0  0  0  0
   58.3530   27.4450   46.9500 C   0  0  0  0  0  0  0  0  0  0  0  0
   58.3560   32.7530   43.6500 C   0  0  0  0  0  0  0  0  0  0  0  0
   57.4520   31.7350   42.6590 S   0  0  0  0  0  0  0  0  0  0  0  0
   55.5494   29.3910   44.8151 H   0  0  0  0  0  0  0  0  0  0  0  0
   54.9686   30.0888   43.2651 H   0  0  0  0  0  0  0  0  0  0  0  0
   56.3070   28.8907   43.2651 H   0  0  0  0  0  0  0  0  0  0  0  0
   57.0310   30.8950   46.0430 H   0  0  0  0  0  0  0  0  0  0  0  0
   59.2351   36.3287   45.2649 H   0  0  0  0  0  0  0  0  0  0  0  0
   60.1414   35.0956   44.3244 H   0  0  0  0  0  0  0  0  0  0  0  0
   58.3451   35.0837   44.3244 H   0  0  0  0  0  0  0  0  0  0  0  0
   60.1425   35.7911   47.5842 H   0  0  0  0  0  0  0  0  0  0  0  0
   60.7474   29.3959   49.5353 H   0  0  0  0  0  0  0  0  0  0  0  0
   61.5000   28.5222   47.4405 H   0  0  0  0  0  0  0  0  0  0  0  0
   60.7218   28.8425   44.9127 H   0  0  0  0  0  0  0  0  0  0  0  0
   59.2108   27.8863   43.1775 H   0  0  0  0  0  0  0  0  0  0  0  0
   57.1340   26.6852   43.8440 H   0  0  0  0  0  0  0  0  0  0  0  0
   58.1378   27.2802   48.0161 H   0  0  0  0  0  0  0  0  0  0  0  0
   58.9962   33.5819   43.3138 H   0  0  0  0  0  0  0  0  0  0  0  0
  1  2  1  0
  2  3  2  0
  3  4  1  0
  4  5  1  0
  5  6  1  0
  6  7  1  0
  6  8  2  0
  8  9  1  0
  9 10  1  0
 10 11  1  0
 11 12  1  0
 12 13  2  0
 12 14  1  0
 14 15  2  3
 15 16  1  0
 16 17  2  0
 17 18  1  0
 18 19  2  0
 19 20  1  0
 20 21  1  0
 21 22  2  0
 21 23  1  0
 20 24  2  0
  4 25  2  0
 25 26  1  0
 26  2  1  0
 10  5  2  0
 24 16  1  0
  1 27  1  0
  1 28  1  0
  1 29  1  0
  3 30  1  0
  7 31  1  0
  7 32  1  0
  7 33  1  0
  8 34  1  0
 14 35  1  0
 15 36  1  0
 17 37  1  0
 18 38  1  0
 19 39  1  0
 24 40  1  0
 25 41  1  0
M  CHG  4   3   1  11  -1  21   1  23  -1
M  END
>  <UniqueID>  (34) 
33

>  <SMILES>  (34) 
Cc1[nH+]c(-c2c(C)csc2[N-]C(=O)C=Cc2cccc([N+](=O)[O-])c2)cs1

>  <Energy>  (34) 
105.0607499459329

>  <Genealogy>  (34) 
Cc1[nH+]c(-c2c(C)csc2[N-]C(=O)C=Cc2cccc([N+](=O)[O-])c2)cs1 (protonated)
Cc1[nH+]c(-c2c(C)csc2[N-]C(=O)C=Cc2cccc([N+](=O)[O-])c2)cs1 (3D coordinates assigned)
Cc1[nH+]c(-c2c(C)csc2[N-]C(=O)C=Cc2cccc([N+](=O)[O-])c2)cs1 (optimized conformer: 105.0607499459329 kcal/mol)

>  <smiles>  (34) 
Cc1nc(-c2c(C)csc2NC(=O)C=Cc2cccc([N+](=O)[O-])c2)cs1

>  <score_type>  (34) 
oracle

>  <origin>  (34) 
adg

>  <m_score__min__energy>  (34) 
-8.5999999999999996

>  <m_primary>  (34) 
energy

$$$$
34:0
     RDKit          3D

 43 46  0  0  1  0  0  0  0  0999 V2000
   57.3130   24.0540   44.7890 C   0  0  0  0  0  0  0  0  0  0  0  0
   56.9530   24.9940   46.2510 S   0  0  0  0  0  0  0  0  0  0  0  0
   57.4940   24.2940   47.4610 O   0  0  0  0  0  0  0  0  0  0  0  0
   55.4430   25.1580   46.3590 O   0  0  0  0  0  0  0  0  0  0  0  0
   57.6580   26.5970   46.0570 C   0  0  0  0  0  0  0  0  0  0  0  0
   58.9690   26.8380   46.3990 C   0  0  0  0  0  0  0  0  0  0  0  0
   59.4850   28.1190   46.2300 C   0  0  0  0  0  0  0  0  0  0  0  0
   58.6920   29.1380   45.7220 C   0  0  0  0  0  0  0  0  0  0  0  0
   57.3790   28.8760   45.3840 C   0  0  0  0  0  0  0  0  0  0  0  0
   58.1500   33.9580   46.0270 N   0  0  0  0  0  0  0  0  0  0  0  0
   57.9620   33.0890   45.0910 C   0  0  0  0  0  0  0  0  0  0  0  0
   57.5250   31.2140   43.2150 N   0  0  0  0  0  0  0  0  0  0  0  0
   58.1430   32.3420   42.8370 C   0  0  0  0  0  0  0  0  0  0  0  0
   58.3700   33.3050   43.7970 C   0  0  0  0  0  0  0  0  0  0  0  0
   57.1230   30.9920   44.4780 C   0  0  0  0  0  0  0  0  0  0  0  0
   56.5260   29.9100   44.8550 N   0  0  0  0  0  0  0  0  0  0  0  0
   59.3480   33.9580   46.7520 C   0  0  0  0  0  0  0  0  0  0  0  0
   59.2750   34.1480   48.1280 C   0  0  0  0  0  0  0  0  0  0  0  0
   60.3980   34.1630   48.9300 C   0  0  0  0  0  0  0  0  0  0  0  0
   61.6510   33.9860   48.3540 C   0  0  0  0  0  0  0  0  0  0  0  0
   62.9060   33.9540   48.8730 N   0  0  0  0  0  0  0  0  0  0  0  0
   63.7840   33.7520   47.8940 N   0  0  0  0  0  0  0  0  0  0  0  0
   63.1000   33.6530   46.7330 C   0  0  0  0  0  0  0  0  0  0  0  0
   61.7520   33.7960   46.9890 C   0  0  0  0  0  0  0  0  0  0  0  0
   60.6030   33.7830   46.2040 C   0  0  0  0  0  0  0  0  0  0  0  0
   57.3400   31.9320   45.4280 N   0  0  0  0  0  0  0  0  0  0  0  0
   56.8600   27.6010   45.5520 C   0  0  0  0  0  0  0  0  0  0  0  0
   57.6929   23.0621   45.0751 H   0  0  0  0  0  0  0  0  0  0  0  0
   56.3959   23.9375   44.1929 H   0  0  0  0  0  0  0  0  0  0  0  0
   58.0734   24.5799   44.1929 H   0  0  0  0  0  0  0  0  0  0  0  0
   59.5992   26.0304   46.7998 H   0  0  0  0  0  0  0  0  0  0  0  0
   60.5307   28.3257   46.5015 H   0  0  0  0  0  0  0  0  0  0  0  0
   59.1066   30.1482   45.5894 H   0  0  0  0  0  0  0  0  0  0  0  0
   57.3480   30.4780   42.4990 H   0  0  0  0  0  0  0  0  0  0  0  0
   58.4588   32.4943   41.7944 H   0  0  0  0  0  0  0  0  0  0  0  0
   58.8763   34.2437   43.5277 H   0  0  0  0  0  0  0  0  0  0  0  0
   58.2884   34.2912   48.5928 H   0  0  0  0  0  0  0  0  0  0  0  0
   60.3026   34.3137   50.0155 H   0  0  0  0  0  0  0  0  0  0  0  0
   63.1760   34.0660   49.8810 H   0  0  0  0  0  0  0  0  0  0  0  0
   63.5467   33.4852   45.7419 H   0  0  0  0  0  0  0  0  0  0  0  0
   60.6972   33.6293   45.1189 H   0  0  0  0  0  0  0  0  0  0  0  0
   57.0270   31.7580   46.4090 H   0  0  0  0  0  0  0  0  0  0  0  0
   55.8142   27.3915   45.2829 H   0  0  0  0  0  0  0  0  0  0  0  0
  1  2  1  0
  2  3  2  0
  2  4  2  0
  2  5  1  0
  5  6  2  0
  6  7  1  0
  7  8  2  0
  8  9  1  0
  9 10  1  0
 10 11  2  0
 11 12  1  0
 12 13  1  0
 13 14  2  0
 14 15  1  0
 15 16  2  0
 16 17  1  0
 17 18  2  0
 18 19  1  0
 19 20  2  0
 20 21  1  0
 21 22  1  0
 22 23  2  0
 23 24  1  0
 24 25  2  0
 15 26  1  0
  9 27  2  0
 27  5  1  0
 26 11  1  0
 25 17  1  0
 24 20  1  0
  1 28  1  0
  1 29  1  0
  1 30  1  0
  6 31  1  0
  7 32  1  0
  8 33  1  0
 12 34  1  0
 13 35  1  0
 14 36  1  0
 18 37  1  0
 19 38  1  0
 21 39  1  0
 23 40  1  0
 25 41  1  0
 26 42  1  0
 27 43  1  0
M  END
>  <smiles>  (35) 
CS(=O)(=O)c1cccc(N=c2[nH]ccc(=Nc3ccc4[nH]ncc4c3)[nH]2)c1

>  <score_type>  (35) 
oracle

>  <origin>  (35) 
adg

>  <m_score__min__energy>  (35) 
-10.369999999999999

>  <m_primary>  (35) 
energy

$$$$
35:0
     RDKit          3D

 44 46  0  0  0  0  0  0  0  0999 V2000
   58.9020   31.1860   48.1880 C   0  0  0  0  0  0  0  0  0  0  0  0
   58.1240   32.1060   47.4290 O   0  0  0  0  0  0  0  0  0  0  0  0
   58.6300   33.2690   46.8250 C   0  0  0  0  0  0  0  0  0  0  0  0
   59.5230   34.1270   47.4980 C   0  0  0  0  0  0  0  0  0  0  0  0
   60.0220   35.2670   46.8620 C   0  0  0  0  0  0  0  0  0  0  0  0
   59.6430   35.5610   45.5530 C   0  0  0  0  0  0  0  0  0  0  0  0
   58.7580   34.7210   44.8750 C   0  0  0  0  0  0  0  0  0  0  0  0
   58.2350   33.5810   45.5070 C   0  0  0  0  0  0  0  0  0  0  0  0
   57.3060   32.6670   44.7470 C   0  0  0  0  0  0  0  0  0  0  0  0
   57.4510   31.2860   45.2080 N   0  0  0  0  0  0  0  0  0  0  0  0
   57.3740   30.1820   44.2920 C   0  0  0  0  0  0  0  0  0  0  0  0
   57.0370   30.3930   43.0930 O   0  0  0  0  0  0  0  0  0  0  0  0
   57.6620   28.7970   44.7330 C   0  0  0  0  0  0  0  0  0  0  0  0
   58.0110   27.7970   43.8080 C   0  0  0  0  0  0  0  0  0  0  0  0
   58.2790   26.4940   44.2390 C   0  0  0  0  0  0  0  0  0  0  0  0
   58.2130   26.1710   45.6040 C   0  0  0  0  0  0  0  0  0  0  0  0
   58.4610   24.8380   46.0750 N   0  0  0  0  0  0  0  0  0  0  0  0
   57.4800   23.8060   46.2440 C   0  0  0  0  0  0  0  0  0  0  0  0
   57.8430   22.7030   46.7330 O   0  0  0  0  0  0  0  0  0  0  0  0
   56.0810   23.9800   45.7920 C   0  0  0  0  0  0  0  0  0  0  0  0
   55.5590   23.2150   44.7400 C   0  0  0  0  0  0  0  0  0  0  0  0
   54.2410   23.4170   44.3360 C   0  0  0  0  0  0  0  0  0  0  0  0
   53.4740   24.3850   44.9840 C   0  0  0  0  0  0  0  0  0  0  0  0
   52.2810   24.5890   44.6390 O   0  0  0  0  0  0  0  0  0  0  0  0
   54.0240   25.1110   45.9910 N   0  0  0  0  0  0  0  0  0  0  0  0
   55.2860   24.9160   46.3790 N   0  0  0  0  0  0  0  0  0  0  0  0
   57.8270   27.1530   46.5220 C   0  0  0  0  0  0  0  0  0  0  0  0
   57.5570   28.4560   46.0940 C   0  0  0  0  0  0  0  0  0  0  0  0
   58.7454   31.3712   49.2609 H   0  0  0  0  0  0  0  0  0  0  0  0
   58.5950   30.1581   47.9447 H   0  0  0  0  0  0  0  0  0  0  0  0
   59.9666   31.3180   47.9447 H   0  0  0  0  0  0  0  0  0  0  0  0
   59.8289   33.8981   48.5295 H   0  0  0  0  0  0  0  0  0  0  0  0
   60.7154   35.9338   47.3955 H   0  0  0  0  0  0  0  0  0  0  0  0
   60.0420   36.4563   45.0537 H   0  0  0  0  0  0  0  0  0  0  0  0
   58.4685   34.9533   43.8395 H   0  0  0  0  0  0  0  0  0  0  0  0
   56.2677   32.9939   44.9055 H   0  0  0  0  0  0  0  0  0  0  0  0
   57.5603   32.7124   43.6778 H   0  0  0  0  0  0  0  0  0  0  0  0
   57.5570   31.0970   46.2310 H   0  0  0  0  0  0  0  0  0  0  0  0
   58.0737   28.0416   42.7374 H   0  0  0  0  0  0  0  0  0  0  0  0
   58.5428   25.7182   43.5052 H   0  0  0  0  0  0  0  0  0  0  0  0
   56.1842   22.4620   44.2379 H   0  0  0  0  0  0  0  0  0  0  0  0
   53.8113   22.8212   43.5172 H   0  0  0  0  0  0  0  0  0  0  0  0
   57.7353   26.8982   47.5881 H   0  0  0  0  0  0  0  0  0  0  0  0
   57.2601   29.2207   46.8269 H   0  0  0  0  0  0  0  0  0  0  0  0
  1  2  1  0
  2  3  1  0
  3  4  2  0
  4  5  1  0
  5  6  2  0
  6  7  1  0
  7  8  2  0
  8  9  1  0
  9 10  1  0
 10 11  1  0
 11 12  2  0
 11 13  1  0
 13 14  2  0
 14 15  1  0
 15 16  2  0
 16 17  1  0
 17 18  1  0
 18 19  2  0
 18 20  1  0
 20 21  1  0
 21 22  2  0
 22 23  1  0
 23 24  2  0
 23 25  1  0
 25 26  1  0
 16 27  1  0
 27 28  2  0
  8  3  1  0
 28 13  1  0
 26 20  2  0
  1 29  1  0
  1 30  1  0
  1 31  1  0
  4 32  1  0
  5 33  1  0
  6 34  1  0
  7 35  1  0
  9 36  1  0
  9 37  1  0
 10 38  1  0
 14 39  1  0
 15 40  1  0
 21 41  1  0
 22 42  1  0
 27 43  1  0
 28 44  1  0
M  CHG  2  17  -1  25  -1
M  END
>  <UniqueID>  (36) 
34

>  <SMILES>  (36) 
COc1ccccc1CNC(=O)c1ccc([N-]C(=O)c2ccc(=O)[n-]n2)cc1

>  <Energy>  (36) 
54.195134941909345

>  <Genealogy>  (36) 
COc1ccccc1CNC(=O)c1ccc([N-]C(=O)c2ccc(=O)[n-]n2)cc1 (protonated)
COc1ccccc1CNC(=O)c1ccc([N-]C(=O)c2ccc(=O)[n-]n2)cc1 (3D coordinates assigned)
COc1ccccc1CNC(=O)c1ccc([N-]C(=O)c2ccc(=O)[n-]n2)cc1 (optimized conformer: 54.195134941909345 kcal/mol)

>  <smiles>  (36) 
COc1ccccc1CNC(=O)c1ccc(NC(=O)c2ccc(=O)[nH]n2)cc1

>  <score_type>  (36) 
oracle

>  <origin>  (36) 
adg

>  <m_score__min__energy>  (36) 
-11.220000000000001

>  <m_primary>  (36) 
energy

$$$$
36:0
     RDKit          3D

 53 56  0  0  0  0  0  0  0  0999 V2000
   53.4000   25.8350   45.2250 H   0  0  0  0  0  0  0  0  0  0  0  0
   54.0590   25.1500   45.6570 N   0  0  0  0  0  0  0  0  0  0  0  0
   53.7800   23.6160   44.9080 S   0  0  0  0  0  0  0  0  0  0  0  0
   52.3310   23.2550   45.0730 O   0  0  0  0  0  0  0  0  0  0  0  0
   54.0960   23.7030   43.4400 O   0  0  0  0  0  0  0  0  0  0  0  0
   54.7510   22.3950   45.6810 N   0  0  0  0  0  0  0  0  0  0  0  0
   56.0970   22.3290   45.1070 C   0  0  0  0  0  0  0  0  0  0  0  0
   56.7537   21.7772   45.7957 H   0  0  0  0  0  0  0  0  0  0  0  0
   56.0354   21.8178   44.1349 H   0  0  0  0  0  0  0  0  0  0  0  0
   56.6650   23.7060   44.8850 C   0  0  0  0  0  0  0  0  0  0  0  0
   56.9260   24.1590   43.5840 C   0  0  0  0  0  0  0  0  0  0  0  0
   56.7085   23.5080   42.7244 H   0  0  0  0  0  0  0  0  0  0  0  0
   57.4610   25.4330   43.3730 C   0  0  0  0  0  0  0  0  0  0  0  0
   57.6703   25.7737   42.3483 H   0  0  0  0  0  0  0  0  0  0  0  0
   57.7340   26.2830   44.4600 C   0  0  0  0  0  0  0  0  0  0  0  0
   58.3110   27.6290   44.2300 C   0  0  0  0  0  0  0  0  0  0  0  0
   59.5630   27.7820   44.2680 O   0  0  0  0  0  0  0  0  0  0  0  0
   57.4670   28.7490   43.9160 N   0  0  0  0  0  0  0  0  0  0  0  0
   56.5650   28.5620   43.4230 H   0  0  0  0  0  0  0  0  0  0  0  0
   57.8500   30.1210   44.1190 C   0  0  0  0  0  0  0  0  0  0  0  0
   57.4360   31.1030   43.1810 C   0  0  0  0  0  0  0  0  0  0  0  0
   56.8476   30.8004   42.3023 H   0  0  0  0  0  0  0  0  0  0  0  0
   57.7690   32.4600   43.3610 C   0  0  0  0  0  0  0  0  0  0  0  0
   57.4611   33.2236   42.6315 H   0  0  0  0  0  0  0  0  0  0  0  0
   58.5010   32.8000   44.4940 C   0  0  0  0  0  0  0  0  0  0  0  0
   58.9140   34.0220   44.8730 N   0  0  0  0  0  0  0  0  0  0  0  0
   59.5480   33.7450   46.0420 C   0  0  0  0  0  0  0  0  0  0  0  0
   60.1170   34.6680   46.7580 N   0  0  0  0  0  0  0  0  0  0  0  0
   60.3870   34.5770   48.1650 C   0  0  0  0  0  0  0  0  0  0  0  0
   59.4710   34.8820   48.9740 O   0  0  0  0  0  0  0  0  0  0  0  0
   61.6870   34.0970   48.6950 C   0  0  0  0  0  0  0  0  0  0  0  0
   62.6510   33.5400   47.8370 C   0  0  0  0  0  0  0  0  0  0  0  0
   62.4427   33.4578   46.7600 H   0  0  0  0  0  0  0  0  0  0  0  0
   63.8730   33.0900   48.3450 C   0  0  0  0  0  0  0  0  0  0  0  0
   64.6265   32.6666   47.6646 H   0  0  0  0  0  0  0  0  0  0  0  0
   64.1420   33.1760   49.7170 C   0  0  0  0  0  0  0  0  0  0  0  0
   65.6910   32.6300   50.3480 S   0  0  0  0  0  0  0  0  0  0  0  0
   65.6810   31.1350   50.5090 O   0  0  0  0  0  0  0  0  0  0  0  0
   66.7890   33.0040   49.3910 O   0  0  0  0  0  0  0  0  0  0  0  0
   65.9790   33.3730   51.8800 N   0  0  0  0  0  0  0  0  0  0  0  0
   65.8060   34.3960   51.7620 H   0  0  0  0  0  0  0  0  0  0  0  0
   63.1770   33.7160   50.5780 C   0  0  0  0  0  0  0  0  0  0  0  0
   63.3828   33.7860   51.6563 H   0  0  0  0  0  0  0  0  0  0  0  0
   61.9540   34.1660   50.0720 C   0  0  0  0  0  0  0  0  0  0  0  0
   61.1967   34.5764   50.7561 H   0  0  0  0  0  0  0  0  0  0  0  0
   59.5410   32.4610   46.3650 O   0  0  0  0  0  0  0  0  0  0  0  0
   58.8870   31.8660   45.4060 C   0  0  0  0  0  0  0  0  0  0  0  0
   58.5810   30.5160   45.2650 C   0  0  0  0  0  0  0  0  0  0  0  0
   58.8967   29.7800   46.0191 H   0  0  0  0  0  0  0  0  0  0  0  0
   57.4710   25.8230   45.7640 C   0  0  0  0  0  0  0  0  0  0  0  0
   57.6883   26.4715   46.6255 H   0  0  0  0  0  0  0  0  0  0  0  0
   56.9360   24.5490   45.9730 C   0  0  0  0  0  0  0  0  0  0  0  0
   56.7262   24.2052   46.9966 H   0  0  0  0  0  0  0  0  0  0  0  0
  1  2  1  0
  2  3  1  0
  3  4  2  0
  3  5  2  0
  3  6  1  0
  6  7  1  0
  7  8  1  0
  7  9  1  0
  7 10  1  0
 10 11  2  0
 11 12  1  0
 11 13  1  0
 13 14  1  0
 13 15  2  0
 15 16  1  0
 16 17  2  0
 16 18  1  0
 18 19  1  0
 18 20  1  0
 20 21  2  0
 21 22  1  0
 21 23  1  0
 23 24  1  0
 23 25  2  0
 25 26  1  0
 26 27  1  0
 27 28  2  0
 28 29  1  0
 29 30  2  0
 29 31  1  0
 31 32  2  0
 32 33  1  0
 32 34  1  0
 34 35  1  0
 34 36  2  0
 36 37  1  0
 37 38  2  0
 37 39  2  0
 37 40  1  0
 40 41  1  0
 36 42  1  0
 42 43  1  0
 42 44  2  0
 44 45  1  0
 27 46  1  0
 46 47  1  0
 47 48  2  0
 48 49  1  0
 15 50  1  0
 50 51  1  0
 50 52  2  0
 52 53  1  0
 52 10  1  0
 48 20  1  0
 47 25  1  0
 44 31  1  0
M  CHG  4   2  -1   6  -1  26  -1  40  -1
M  END
>  <UniqueID>  (37) 
35

>  <SMILES>  (37) 
[NH-]S(=O)(=O)[N-]Cc1ccc(C(=O)Nc2ccc3[n-]/c(=N/C(=O)c4ccc(S([NH-])(=O)=O)cc4)oc3c2)cc1

>  <Energy>  (37) 
103.90969821266113

>  <Genealogy>  (37) 
[NH-]S(=O)(=O)[N-]Cc1ccc(C(=O)Nc2ccc3[n-]c(=NC(=O)c4ccc(S([NH-])(=O)=O)cc4)oc3c2)cc1 (protonated)
[NH-]S(=O)(=O)[N-]Cc1ccc(C(=O)Nc2ccc3[n-]/c(=N/C(=O)c4ccc(S([NH-])(=O)=O)cc4)oc3c2)cc1 (cis-trans isomerization)
[NH-]S(=O)(=O)[N-]Cc1ccc(C(=O)Nc2ccc3[n-]/c(=N/C(=O)c4ccc(S([NH-])(=O)=O)cc4)oc3c2)cc1 (3D coordinates assigned)
[NH-]S(=O)(=O)[N-]Cc1ccc(C(=O)Nc2ccc3[n-]/c(=N/C(=O)c4ccc(S([NH-])(=O)=O)cc4)oc3c2)cc1 (optimized conformer: 103.90969821266113 kcal/mol)

>  <smiles>  (37) 
NS(=O)(=O)NCc1ccc(C(=O)Nc2ccc3[nH]c(=NC(=O)c4ccc(S(N)(=O)=O)cc4)oc3c2)cc1

>  <score_type>  (37) 
oracle

>  <origin>  (37) 
adg

>  <m_score__min__energy>  (37) 
-14.880000000000001

>  <m_primary>  (37) 
energy

$$$$
37:0
     RDKit          3D

 55 57  0  0  0  0  0  0  0  0999 V2000
   56.8980   22.1020   43.2280 C   0  0  0  0  0  0  0  0  0  0  0  0
   56.0250   22.5630   44.3910 C   0  0  0  0  0  0  0  0  0  0  0  0
   55.1240   23.7500   44.0240 C   0  0  0  0  0  0  0  0  0  0  0  0
   54.2150   24.3990   45.4330 S   0  0  0  0  0  0  0  0  0  0  0  0
   54.4620   23.5270   46.6290 O   0  0  0  0  0  0  0  0  0  0  0  0
   52.7440   24.4350   45.1260 O   0  0  0  0  0  0  0  0  0  0  0  0
   54.7850   26.0000   45.7520 N   0  0  0  0  0  0  0  0  0  0  0  0
   56.1600   26.2490   46.0340 C   0  0  0  0  0  0  0  0  0  0  0  0
   57.0280   25.1930   46.3390 C   0  0  0  0  0  0  0  0  0  0  0  0
   58.3810   25.4430   46.5740 C   0  0  0  0  0  0  0  0  0  0  0  0
   58.8730   26.7450   46.5000 C   0  0  0  0  0  0  0  0  0  0  0  0
   58.0160   27.8220   46.2150 C   0  0  0  0  0  0  0  0  0  0  0  0
   58.5620   29.2010   46.1470 C   0  0  0  0  0  0  0  0  0  0  0  0
   59.7760   29.4000   46.4000 O   0  0  0  0  0  0  0  0  0  0  0  0
   57.7350   30.3240   45.8350 N   0  0  0  0  0  0  0  0  0  0  0  0
   57.6240   30.9130   44.5290 C   0  0  0  0  0  0  0  0  0  0  0  0
   56.8610   30.2870   43.5290 C   0  0  0  0  0  0  0  0  0  0  0  0
   56.7470   30.8540   42.2670 C   0  0  0  0  0  0  0  0  0  0  0  0
   57.3860   32.0570   41.9770 C   0  0  0  0  0  0  0  0  0  0  0  0
   58.1250   32.7120   42.9640 C   0  0  0  0  0  0  0  0  0  0  0  0
   58.2510   32.1610   44.2550 C   0  0  0  0  0  0  0  0  0  0  0  0
   58.9290   32.9490   45.3310 C   0  0  0  0  0  0  0  0  0  0  0  0
   59.1000   34.1870   45.1820 O   0  0  0  0  0  0  0  0  0  0  0  0
   59.4380   32.3040   46.5190 N   0  0  0  0  0  0  0  0  0  0  0  0
   60.4680   32.8950   47.3280 C   0  0  0  0  0  0  0  0  0  0  0  0
   61.6970   33.2420   46.7480 C   0  0  0  0  0  0  0  0  0  0  0  0
   62.6960   33.8470   47.5160 C   0  0  0  0  0  0  0  0  0  0  0  0
   62.4680   34.1350   48.8630 C   0  0  0  0  0  0  0  0  0  0  0  0
   61.2460   33.8010   49.4500 C   0  0  0  0  0  0  0  0  0  0  0  0
   60.2330   33.1860   48.6940 C   0  0  0  0  0  0  0  0  0  0  0  0
   58.9130   32.8770   49.3460 C   0  0  0  0  0  0  0  0  0  0  0  0
   56.6540   27.5630   45.9800 C   0  0  0  0  0  0  0  0  0  0  0  0
   57.8070   21.6220   43.6196 H   0  0  0  0  0  0  0  0  0  0  0  0
   56.3389   21.3816   42.6129 H   0  0  0  0  0  0  0  0  0  0  0  0
   57.1777   22.9700   42.6129 H   0  0  0  0  0  0  0  0  0  0  0  0
   55.3887   21.7233   44.7073 H   0  0  0  0  0  0  0  0  0  0  0  0
   56.6956   22.8932   45.1980 H   0  0  0  0  0  0  0  0  0  0  0  0
   55.7521   24.5532   43.6112 H   0  0  0  0  0  0  0  0  0  0  0  0
   54.3860   23.3907   43.2917 H   0  0  0  0  0  0  0  0  0  0  0  0
   56.6426   24.1642   46.3935 H   0  0  0  0  0  0  0  0  0  0  0  0
   59.0593   24.6120   46.8177 H   0  0  0  0  0  0  0  0  0  0  0  0
   59.9442   26.9318   46.6665 H   0  0  0  0  0  0  0  0  0  0  0  0
   56.3490   29.3384   43.7482 H   0  0  0  0  0  0  0  0  0  0  0  0
   56.1493   30.3509   41.4926 H   0  0  0  0  0  0  0  0  0  0  0  0
   57.3084   32.4915   40.9694 H   0  0  0  0  0  0  0  0  0  0  0  0
   58.6145   33.6692   42.7313 H   0  0  0  0  0  0  0  0  0  0  0  0
   59.1330   31.3350   46.7530 H   0  0  0  0  0  0  0  0  0  0  0  0
   61.8758   33.0368   45.6822 H   0  0  0  0  0  0  0  0  0  0  0  0
   63.6644   34.0969   47.0579 H   0  0  0  0  0  0  0  0  0  0  0  0
   63.2505   34.6246   49.4613 H   0  0  0  0  0  0  0  0  0  0  0  0
   61.0744   34.0212   50.5140 H   0  0  0  0  0  0  0  0  0  0  0  0
   59.0289   32.9041   50.4395 H   0  0  0  0  0  0  0  0  0  0  0  0
   58.1677   33.6250   49.0376 H   0  0  0  0  0  0  0  0  0  0  0  0
   58.5771   31.8760   49.0376 H   0  0  0  0  0  0  0  0  0  0  0  0
   55.9710   28.3947   45.7524 H   0  0  0  0  0  0  0  0  0  0  0  0
  1  2  1  0
  2  3  1  0
  3  4  1  0
  4  5  2  0
  4  6  2  0
  4  7  1  0
  7  8  1  0
  8  9  2  0
  9 10  1  0
 10 11  2  0
 11 12  1  0
 12 13  1  0
 13 14  2  0
 13 15  1  0
 15 16  1  0
 16 17  2  0
 17 18  1  0
 18 19  2  0
 19 20  1  0
 20 21  2  0
 21 22  1  0
 22 23  2  0
 22 24  1  0
 24 25  1  0
 25 26  2  0
 26 27  1  0
 27 28  2  0
 28 29  1  0
 29 30  2  0
 30 31  1  0
 12 32  2  0
 32  8  1  0
 21 16  1  0
 30 25  1  0
  1 33  1  0
  1 34  1  0
  1 35  1  0
  2 36  1  0
  2 37  1  0
  3 38  1  0
  3 39  1  0
  9 40  1  0
 10 41  1  0
 11 42  1  0
 17 43  1  0
 18 44  1  0
 19 45  1  0
 20 46  1  0
 24 47  1  0
 26 48  1  0
 27 49  1  0
 28 50  1  0
 29 51  1  0
 31 52  1  0
 31 53  1  0
 31 54  1  0
 32 55  1  0
M  CHG  2   7  -1  15  -1
M  END
>  <UniqueID>  (38) 
36

>  <SMILES>  (38) 
CCCS(=O)(=O)[N-]c1cccc(C(=O)[N-]c2ccccc2C(=O)Nc2ccccc2C)c1

>  <Energy>  (38) 
83.39654969686978

>  <Genealogy>  (38) 
CCCS(=O)(=O)[N-]c1cccc(C(=O)[N-]c2ccccc2C(=O)Nc2ccccc2C)c1 (protonated)
CCCS(=O)(=O)[N-]c1cccc(C(=O)[N-]c2ccccc2C(=O)Nc2ccccc2C)c1 (3D coordinates assigned)
CCCS(=O)(=O)[N-]c1cccc(C(=O)[N-]c2ccccc2C(=O)Nc2ccccc2C)c1 (optimized conformer: 83.39654969686978 kcal/mol)

>  <smiles>  (38) 
CCCS(=O)(=O)Nc1cccc(C(=O)Nc2ccccc2C(=O)Nc2ccccc2C)c1

>  <score_type>  (38) 
oracle

>  <origin>  (38) 
adg

>  <m_score__min__energy>  (38) 
-12.49

>  <m_primary>  (38) 
energy

$$$$
38:0
     RDKit          3D

 40 43  0  0  0  0  0  0  0  0999 V2000
   58.9310   34.6000   44.7290 O   0  0  0  0  0  0  0  0  0  0  0  0
   58.6610   33.4870   45.2620 C   0  0  0  0  0  0  0  0  0  0  0  0
   58.1010   32.4670   44.4730 C   0  0  0  0  0  0  0  0  0  0  0  0
   57.8180   32.6400   43.1050 C   0  0  0  0  0  0  0  0  0  0  0  0
   57.2670   31.5910   42.3620 C   0  0  0  0  0  0  0  0  0  0  0  0
   56.9970   30.3640   42.9750 C   0  0  0  0  0  0  0  0  0  0  0  0
   57.2750   30.1830   44.3330 C   0  0  0  0  0  0  0  0  0  0  0  0
   57.8250   31.2310   45.0810 C   0  0  0  0  0  0  0  0  0  0  0  0
   58.0960   31.0540   46.3940 N   0  0  0  0  0  0  0  0  0  0  0  0
   58.6230   32.0460   47.1570 C   0  0  0  0  0  0  0  0  0  0  0  0
   58.8980   31.7390   48.5720 C   0  0  0  0  0  0  0  0  0  0  0  0
   58.1460   32.3410   49.5930 C   0  0  0  0  0  0  0  0  0  0  0  0
   58.4170   32.0440   50.9330 C   0  0  0  0  0  0  0  0  0  0  0  0
   59.4290   31.1350   51.2580 C   0  0  0  0  0  0  0  0  0  0  0  0
   59.6920   30.8510   52.5580 F   0  0  0  0  0  0  0  0  0  0  0  0
   60.1670   30.5170   50.2440 C   0  0  0  0  0  0  0  0  0  0  0  0
   59.8970   30.8110   48.9040 C   0  0  0  0  0  0  0  0  0  0  0  0
   58.9180   33.2730   46.5970 N   0  0  0  0  0  0  0  0  0  0  0  0
   59.5580   34.3370   47.4080 C   0  0  0  0  0  0  0  0  0  0  0  0
   61.0190   34.0380   47.6320 C   0  0  0  0  0  0  0  0  0  0  0  0
   61.8610   33.7640   46.5400 C   0  0  0  0  0  0  0  0  0  0  0  0
   63.2130   33.4720   46.7490 C   0  0  0  0  0  0  0  0  0  0  0  0
   63.7350   33.4570   48.0460 C   0  0  0  0  0  0  0  0  0  0  0  0
   62.9070   33.7400   49.1350 C   0  0  0  0  0  0  0  0  0  0  0  0
   61.5550   34.0350   48.9310 C   0  0  0  0  0  0  0  0  0  0  0  0
   58.0309   33.6034   42.6187 H   0  0  0  0  0  0  0  0  0  0  0  0
   57.0458   31.7317   41.2937 H   0  0  0  0  0  0  0  0  0  0  0  0
   56.5653   29.5399   42.3881 H   0  0  0  0  0  0  0  0  0  0  0  0
   57.0616   29.2170   44.8140 H   0  0  0  0  0  0  0  0  0  0  0  0
   57.3421   33.0476   49.3390 H   0  0  0  0  0  0  0  0  0  0  0  0
   57.8337   32.5258   51.7316 H   0  0  0  0  0  0  0  0  0  0  0  0
   60.9602   29.7993   50.5005 H   0  0  0  0  0  0  0  0  0  0  0  0
   60.4695   30.3133   48.1074 H   0  0  0  0  0  0  0  0  0  0  0  0
   59.4638   35.2976   46.8805 H   0  0  0  0  0  0  0  0  0  0  0  0
   59.0552   34.3842   48.3852 H   0  0  0  0  0  0  0  0  0  0  0  0
   61.4552   33.7793   45.5177 H   0  0  0  0  0  0  0  0  0  0  0  0
   63.8666   33.2538   45.8915 H   0  0  0  0  0  0  0  0  0  0  0  0
   64.7973   33.2224   48.2089 H   0  0  0  0  0  0  0  0  0  0  0  0
   63.3190   33.7308   50.1549 H   0  0  0  0  0  0  0  0  0  0  0  0
   60.9088   34.2656   49.7908 H   0  0  0  0  0  0  0  0  0  0  0  0
  1  2  2  0
  2  3  1  0
  3  4  2  0
  4  5  1  0
  5  6  2  0
  6  7  1  0
  7  8  2  0
  8  9  1  0
  9 10  2  0
 10 11  1  0
 11 12  2  0
 12 13  1  0
 13 14  2  0
 14 15  1  0
 14 16  1  0
 16 17  2  0
 10 18  1  0
 18 19  1  0
 19 20  1  0
 20 21  2  0
 21 22  1  0
 22 23  2  0
 23 24  1  0
 24 25  2  0
 18  2  1  0
 25 20  1  0
  8  3  1  0
 17 11  1  0
  4 26  1  0
  5 27  1  0
  6 28  1  0
  7 29  1  0
 12 30  1  0
 13 31  1  0
 16 32  1  0
 17 33  1  0
 19 34  1  0
 19 35  1  0
 21 36  1  0
 22 37  1  0
 23 38  1  0
 24 39  1  0
 25 40  1  0
M  END
>  <UniqueID>  (39) 
37

>  <SMILES>  (39) 
O=c1c2ccccc2nc(-c2ccc(F)cc2)n1Cc1ccccc1

>  <Energy>  (39) 
58.971092729348904

>  <Genealogy>  (39) 
O=c1c2ccccc2nc(-c2ccc(F)cc2)n1Cc1ccccc1 (3D coordinates assigned)
O=c1c2ccccc2nc(-c2ccc(F)cc2)n1Cc1ccccc1 (optimized conformer: 58.971092729348904 kcal/mol)

>  <smiles>  (39) 
O=c1c2ccccc2nc(-c2ccc(F)cc2)n1Cc1ccccc1

>  <score_type>  (39) 
oracle

>  <origin>  (39) 
adg

>  <m_score__min__energy>  (39) 
-7.8399999999999999

>  <m_primary>  (39) 
energy

$$$$
39:0
     RDKit          3D

 49 52  0  0  0  0  0  0  0  0999 V2000
   55.4750   29.7100   43.6330 C   0  0  0  0  0  0  0  0  0  0  0  0
   56.6100   30.3150   44.4150 C   0  0  0  0  0  0  0  0  0  0  0  0
   57.1180   31.5010   43.9260 C   0  0  0  0  0  0  0  0  0  0  0  0
   58.1590   32.1170   44.5880 C   0  0  0  0  0  0  0  0  0  0  0  0
   58.7420   33.4060   44.0930 C   0  0  0  0  0  0  0  0  0  0  0  0
   58.6350   31.4900   45.7230 C   0  0  0  0  0  0  0  0  0  0  0  0
   59.6040   31.8180   46.5620 N   0  0  0  0  0  0  0  0  0  0  0  0
   59.7060   30.8910   47.5310 C   0  0  0  0  0  0  0  0  0  0  0  0
   60.7130   30.9860   48.6240 C   0  0  0  0  0  0  0  0  0  0  0  0
   58.7790   29.9300   47.3200 N   0  0  0  0  0  0  0  0  0  0  0  0
   58.5500   28.7690   48.1140 C   0  0  0  0  0  0  0  0  0  0  0  0
   58.8170   27.4770   47.4580 C   0  0  0  0  0  0  0  0  0  0  0  0
   60.0240   27.1180   46.9010 C   0  0  0  0  0  0  0  0  0  0  0  0
   60.2300   25.8860   46.2910 C   0  0  0  0  0  0  0  0  0  0  0  0
   59.1950   24.9440   46.2170 C   0  0  0  0  0  0  0  0  0  0  0  0
   59.4730   23.7120   45.5360 C   0  0  0  0  0  0  0  0  0  0  0  0
   60.6820   23.2860   45.6250 O   0  0  0  0  0  0  0  0  0  0  0  0
   58.5740   22.8940   44.7650 C   0  0  0  0  0  0  0  0  0  0  0  0
   58.6390   21.5410   44.7540 N   0  0  0  0  0  0  0  0  0  0  0  0
   57.6860   21.0300   43.9990 N   0  0  0  0  0  0  0  0  0  0  0  0
   56.9510   22.0250   43.4820 C   0  0  0  0  0  0  0  0  0  0  0  0
   55.9460   21.9240   42.7060 O   0  0  0  0  0  0  0  0  0  0  0  0
   57.5030   23.2020   43.9600 C   0  0  0  0  0  0  0  0  0  0  0  0
   56.9470   24.5320   43.6380 C   0  0  0  0  0  0  0  0  0  0  0  0
   58.0020   25.3220   46.7750 C   0  0  0  0  0  0  0  0  0  0  0  0
   57.7870   26.5380   47.3830 C   0  0  0  0  0  0  0  0  0  0  0  0
   58.1000   30.2910   46.1910 C   0  0  0  0  0  0  0  0  0  0  0  0
   57.0870   29.7190   45.5220 N   0  0  0  0  0  0  0  0  0  0  0  0
   54.7231   29.3092   44.3287 H   0  0  0  0  0  0  0  0  0  0  0  0
   55.0138   30.4819   42.9994 H   0  0  0  0  0  0  0  0  0  0  0  0
   55.8587   28.8968   42.9994 H   0  0  0  0  0  0  0  0  0  0  0  0
   56.6960   31.9514   43.0155 H   0  0  0  0  0  0  0  0  0  0  0  0
   59.0258   34.0334   44.9508 H   0  0  0  0  0  0  0  0  0  0  0  0
   59.6324   33.1952   43.4825 H   0  0  0  0  0  0  0  0  0  0  0  0
   57.9957   33.9354   43.4825 H   0  0  0  0  0  0  0  0  0  0  0  0
   60.2031   30.9379   49.5975 H   0  0  0  0  0  0  0  0  0  0  0  0
   61.4242   30.1510   48.5409 H   0  0  0  0  0  0  0  0  0  0  0  0
   61.2555   31.9393   48.5409 H   0  0  0  0  0  0  0  0  0  0  0  0
   59.1955   28.8356   49.0022 H   0  0  0  0  0  0  0  0  0  0  0  0
   57.4735   28.7709   48.3400 H   0  0  0  0  0  0  0  0  0  0  0  0
   60.8580   27.8342   46.9403 H   0  0  0  0  0  0  0  0  0  0  0  0
   61.2147   25.6482   45.8623 H   0  0  0  0  0  0  0  0  0  0  0  0
   59.3290   20.9150   45.2540 H   0  0  0  0  0  0  0  0  0  0  0  0
   57.4890   20.0250   43.8020 H   0  0  0  0  0  0  0  0  0  0  0  0
   56.7218   25.0707   44.5702 H   0  0  0  0  0  0  0  0  0  0  0  0
   57.6812   25.1043   43.0520 H   0  0  0  0  0  0  0  0  0  0  0  0
   56.0239   24.4115   43.0520 H   0  0  0  0  0  0  0  0  0  0  0  0
   57.1646   24.6099   46.7346 H   0  0  0  0  0  0  0  0  0  0  0  0
   56.8007   26.7704   47.8110 H   0  0  0  0  0  0  0  0  0  0  0  0
  1  2  1  0
  2  3  2  0
  3  4  1  0
  4  5  1  0
  4  6  2  0
  6  7  1  0
  7  8  2  0
  8  9  1  0
  8 10  1  0
 10 11  1  0
 11 12  1  0
 12 13  2  0
 13 14  1  0
 14 15  2  0
 15 16  1  0
 16 17  2  0
 16 18  1  0
 18 19  1  0
 19 20  1  0
 20 21  1  0
 21 22  2  0
 21 23  1  0
 23 24  1  0
 15 25  1  0
 25 26  2  0
 10 27  1  0
 27 28  2  0
 28  2  1  0
 27  6  1  0
 26 12  1  0
 23 18  2  0
  1 29  1  0
  1 30  1  0
  1 31  1  0
  3 32  1  0
  5 33  1  0
  5 34  1  0
  5 35  1  0
  9 36  1  0
  9 37  1  0
  9 38  1  0
 11 39  1  0
 11 40  1  0
 13 41  1  0
 14 42  1  0
 19 43  1  0
 20 44  1  0
 24 45  1  0
 24 46  1  0
 24 47  1  0
 25 48  1  0
 26 49  1  0
M  END
>  <smiles>  (40) 
Cc1cc(C)c2nc(C)n(Cc3ccc(C(=O)c4[nH][nH]c(=O)c4C)cc3)c2n1

>  <score_type>  (40) 
oracle

>  <origin>  (40) 
adg

>  <m_score__min__energy>  (40) 
-9.7799999999999994

>  <m_primary>  (40) 
energy

$$$$
40:0
     RDKit          3D

 44 46  0  0  0  0  0  0  0  0999 V2000
   58.1940   33.8670   44.6900 C   0  0  0  0  0  0  0  0  0  0  0  0
   59.0360   33.9580   45.9280 C   0  0  0  0  0  0  0  0  0  0  0  0
   58.5330   34.5740   47.0820 C   0  0  0  0  0  0  0  0  0  0  0  0
   59.2910   34.5960   48.2540 C   0  0  0  0  0  0  0  0  0  0  0  0
   60.5490   33.9920   48.2890 C   0  0  0  0  0  0  0  0  0  0  0  0
   61.0740   33.3660   47.1410 C   0  0  0  0  0  0  0  0  0  0  0  0
   62.3910   32.5980   47.1900 C   0  0  1  0  0  0  0  0  0  0  0  0
   63.5160   33.4220   47.9040 C   0  0  0  0  0  0  0  0  0  0  0  0
   64.1420   32.7510   49.1440 C   0  0  0  0  0  0  0  0  0  0  0  0
   63.1080   32.0130   49.9360 C   0  0  0  0  0  0  0  0  0  0  0  0
   63.1090   32.0510   51.1940 O   0  0  0  0  0  0  0  0  0  0  0  0
   62.1360   31.2380   49.2420 N   0  0  0  0  0  0  0  0  0  0  0  0
   62.2030   31.1710   47.7850 C   0  0  1  0  0  0  0  0  0  0  0  0
   60.9960   30.4560   47.2070 C   0  0  0  0  0  0  0  0  0  0  0  0
   61.1210   29.7710   45.9870 C   0  0  0  0  0  0  0  0  0  0  0  0
   60.0000   29.2140   45.3660 C   0  0  0  0  0  0  0  0  0  0  0  0
   58.7350   29.3380   45.9540 C   0  0  0  0  0  0  0  0  0  0  0  0
   57.3110   28.7010   45.1410 S   0  0  0  0  0  0  0  0  0  0  0  0
   57.7910   28.0310   43.5650 C   0  0  0  0  0  0  0  0  0  0  0  0
   56.6830   27.6200   45.9750 O   0  0  0  0  0  0  0  0  0  0  0  0
   56.3070   29.8010   44.9390 O   0  0  0  0  0  0  0  0  0  0  0  0
   58.6000   30.0230   47.1680 C   0  0  0  0  0  0  0  0  0  0  0  0
   59.7200   30.5790   47.7910 C   0  0  0  0  0  0  0  0  0  0  0  0
   60.2990   33.3480   45.9650 C   0  0  0  0  0  0  0  0  0  0  0  0
   57.1372   33.7528   44.9729 H   0  0  0  0  0  0  0  0  0  0  0  0
   58.3172   34.7837   44.0946 H   0  0  0  0  0  0  0  0  0  0  0  0
   58.5102   32.9978   44.0946 H   0  0  0  0  0  0  0  0  0  0  0  0
   57.5376   35.0417   47.0641 H   0  0  0  0  0  0  0  0  0  0  0  0
   58.8956   35.0911   49.1532 H   0  0  0  0  0  0  0  0  0  0  0  0
   61.1349   34.0048   49.2199 H   0  0  0  0  0  0  0  0  0  0  0  0
   62.7329   32.4525   46.1546 H   0  0  0  0  0  0  0  0  0  0  0  0
   64.3190   33.6030   47.1744 H   0  0  0  0  0  0  0  0  0  0  0  0
   63.0338   34.3413   48.2679 H   0  0  0  0  0  0  0  0  0  0  0  0
   64.9171   32.0426   48.8165 H   0  0  0  0  0  0  0  0  0  0  0  0
   64.5787   33.5334   49.7821 H   0  0  0  0  0  0  0  0  0  0  0  0
   63.0808   30.5731   47.4989 H   0  0  0  0  0  0  0  0  0  0  0  0
   62.1103   29.6722   45.5163 H   0  0  0  0  0  0  0  0  0  0  0  0
   60.1114   28.6766   44.4127 H   0  0  0  0  0  0  0  0  0  0  0  0
   58.4252   27.1458   43.7207 H   0  0  0  0  0  0  0  0  0  0  0  0
   56.8922   27.7433   42.9998 H   0  0  0  0  0  0  0  0  0  0  0  0
   58.3525   28.7895   42.9998 H   0  0  0  0  0  0  0  0  0  0  0  0
   57.6081   30.1237   47.6329 H   0  0  0  0  0  0  0  0  0  0  0  0
   59.6047   31.1164   48.7439 H   0  0  0  0  0  0  0  0  0  0  0  0
   60.6885   32.8498   45.0650 H   0  0  0  0  0  0  0  0  0  0  0  0
  1  2  1  0
  2  3  2  0
  3  4  1  0
  4  5  2  0
  5  6  1  0
  6  7  1  0
  7  8  1  0
  8  9  1  0
  9 10  1  0
 10 11  2  0
 10 12  1  0
 12 13  1  0
 13 14  1  0
 14 15  2  0
 15 16  1  0
 16 17  2  0
 17 18  1  0
 18 19  1  0
 18 20  2  0
 18 21  2  0
 17 22  1  0
 22 23  2  0
  6 24  2  0
 24  2  1  0
 13  7  1  0
 23 14  1  0
  1 25  1  0
  1 26  1  0
  1 27  1  0
  3 28  1  0
  4 29  1  0
  5 30  1  0
  7 31  1  6
  8 32  1  0
  8 33  1  0
  9 34  1  0
  9 35  1  0
 13 36  1  1
 15 37  1  0
 16 38  1  0
 19 39  1  0
 19 40  1  0
 19 41  1  0
 22 42  1  0
 23 43  1  0
 24 44  1  0
M  CHG  1  12  -1
M  END
>  <UniqueID>  (41) 
38

>  <SMILES>  (41) 
Cc1cccc([C@H]2CCC(=O)[N-][C@H]2c2ccc(S(C)(=O)=O)cc2)c1

>  <Energy>  (41) 
46.516227935714234

>  <Genealogy>  (41) 
Cc1cccc(C2CCC(=O)[N-]C2c2ccc(S(C)(=O)=O)cc2)c1 (protonated)
Cc1cccc([C@H]2CCC(=O)[N-][C@H]2c2ccc(S(C)(=O)=O)cc2)c1 (chirality)
Cc1cccc([C@H]2CCC(=O)[N-][C@H]2c2ccc(S(C)(=O)=O)cc2)c1 (3D coordinates assigned)
Cc1cccc([C@H]2CCC(=O)[N-][C@H]2c2ccc(S(C)(=O)=O)cc2)c1 (nonaromatic ring conformer: 46.516227935714234 kcal/mol)

>  <smiles>  (41) 
Cc1cccc(C2CCC(=O)NC2c2ccc(S(C)(=O)=O)cc2)c1

>  <score_type>  (41) 
oracle

>  <origin>  (41) 
adg

>  <m_score__min__energy>  (41) 
-10.32

>  <m_primary>  (41) 
energy

$$$$
41:0
     RDKit          3D

 47 49  0  0  1  0  0  0  0  0999 V2000
   57.9820   28.2390   44.0350 O   0  0  0  0  0  0  0  0  0  0  0  0
   57.1280   28.2880   44.9300 C   0  0  0  0  0  0  0  0  0  0  0  0
   56.6460   27.1530   45.6190 N   0  0  0  0  0  0  0  0  0  0  0  0
   57.0440   25.8200   45.4080 C   0  0  0  0  0  0  0  0  0  0  0  0
   56.5880   24.9980   44.4070 C   0  0  0  0  0  0  0  0  0  0  0  0
   57.0330   23.6770   44.2600 C   0  0  0  0  0  0  0  0  0  0  0  0
   57.9600   23.1510   45.1320 C   0  0  0  0  0  0  0  0  0  0  0  0
   58.4840   21.7780   45.0550 C   0  0  0  0  0  0  0  0  0  0  0  0
   57.4360   20.7640   45.2340 C   0  0  0  0  0  0  0  0  0  0  0  0
   57.6620   19.7250   46.1270 O   0  0  0  0  0  0  0  0  0  0  0  0
   56.3160   20.8040   44.5920 N   0  0  0  0  0  0  0  0  0  0  0  0
   56.2190   20.4360   43.2620 O   0  0  0  0  0  0  0  0  0  0  0  0
   58.4120   23.9830   46.1340 C   0  0  0  0  0  0  0  0  0  0  0  0
   57.9730   25.2820   46.2750 C   0  0  0  0  0  0  0  0  0  0  0  0
   56.6220   29.6020   45.2570 N   0  0  0  0  0  0  0  0  0  0  0  0
   57.0920   30.7560   44.5780 C   0  0  0  0  0  0  0  0  0  0  0  0
   57.2190   30.8320   43.2070 C   0  0  0  0  0  0  0  0  0  0  0  0
   57.6880   31.9990   42.6090 C   0  0  0  0  0  0  0  0  0  0  0  0
   58.0320   33.0960   43.3870 C   0  0  0  0  0  0  0  0  0  0  0  0
   57.9110   33.0320   44.7560 C   0  0  0  0  0  0  0  0  0  0  0  0
   58.2330   34.0830   45.6050 O   0  0  0  0  0  0  0  0  0  0  0  0
   59.2360   33.9680   46.5550 C   0  0  0  0  0  0  0  0  0  0  0  0
   58.9940   33.8780   47.9100 C   0  0  0  0  0  0  0  0  0  0  0  0
   60.0710   33.7660   48.7780 C   0  0  0  0  0  0  0  0  0  0  0  0
   61.3750   33.7440   48.2820 C   0  0  0  0  0  0  0  0  0  0  0  0
   61.6170   33.8350   46.9210 C   0  0  0  0  0  0  0  0  0  0  0  0
   60.5420   33.9460   46.0600 C   0  0  0  0  0  0  0  0  0  0  0  0
   57.4470   31.8750   45.3300 C   0  0  0  0  0  0  0  0  0  0  0  0
   55.9120   27.3570   46.3640 H   0  0  0  0  0  0  0  0  0  0  0  0
   55.8469   25.3903   43.6950 H   0  0  0  0  0  0  0  0  0  0  0  0
   56.6389   23.0559   43.4421 H   0  0  0  0  0  0  0  0  0  0  0  0
   58.9500   21.6332   44.0692 H   0  0  0  0  0  0  0  0  0  0  0  0
   59.2125   21.6525   45.8696 H   0  0  0  0  0  0  0  0  0  0  0  0
   58.4430   19.0910   46.0140 H   0  0  0  0  0  0  0  0  0  0  0  0
   56.7650   19.6070   43.0080 H   0  0  0  0  0  0  0  0  0  0  0  0
   59.1522   23.5949   46.8492 H   0  0  0  0  0  0  0  0  0  0  0  0
   58.3703   25.9007   47.0931 H   0  0  0  0  0  0  0  0  0  0  0  0
   55.9000   29.7130   46.0050 H   0  0  0  0  0  0  0  0  0  0  0  0
   56.9488   29.9673   42.5831 H   0  0  0  0  0  0  0  0  0  0  0  0
   57.7863   32.0518   41.5147 H   0  0  0  0  0  0  0  0  0  0  0  0
   58.4010   34.0156   42.9094 H   0  0  0  0  0  0  0  0  0  0  0  0
   57.9642   33.8947   48.2962 H   0  0  0  0  0  0  0  0  0  0  0  0
   59.8959   33.6943   49.8616 H   0  0  0  0  0  0  0  0  0  0  0  0
   62.2206   33.6534   48.9797 H   0  0  0  0  0  0  0  0  0  0  0  0
   62.6461   33.8192   46.5329 H   0  0  0  0  0  0  0  0  0  0  0  0
   60.7160   34.0176   44.9762 H   0  0  0  0  0  0  0  0  0  0  0  0
   57.3516   31.8288   46.4249 H   0  0  0  0  0  0  0  0  0  0  0  0
  1  2  2  0
  2  3  1  0
  3  4  1  0
  4  5  2  0
  5  6  1  0
  6  7  2  0
  7  8  1  0
  8  9  1  0
  9 10  1  0
  9 11  2  0
 11 12  1  0
  7 13  1  0
 13 14  2  0
  2 15  1  0
 15 16  1  0
 16 17  2  0
 17 18  1  0
 18 19  2  0
 19 20  1  0
 20 21  1  0
 21 22  1  0
 22 23  2  0
 23 24  1  0
 24 25  2  0
 25 26  1  0
 26 27  2  0
 20 28  2  0
 14  4  1  0
 28 16  1  0
 27 22  1  0
  3 29  1  0
  5 30  1  0
  6 31  1  0
  8 32  1  0
  8 33  1  0
 10 34  1  0
 12 35  1  0
 13 36  1  0
 14 37  1  0
 15 38  1  0
 17 39  1  0
 18 40  1  0
 19 41  1  0
 23 42  1  0
 24 43  1  0
 25 44  1  0
 26 45  1  0
 27 46  1  0
 28 47  1  0
M  END
>  <smiles>  (42) 
O=C(Nc1ccc(CC(O)=NO)cc1)Nc1cccc(Oc2ccccc2)c1

>  <score_type>  (42) 
oracle

>  <origin>  (42) 
adg

>  <m_score__min__energy>  (42) 
-9.5099999999999998

>  <m_primary>  (42) 
energy

$$$$
42:0
     RDKit          3D

 58 61  0  0  0  0  0  0  0  0999 V2000
   63.2210   33.8283   49.7141 H   0  0  0  0  0  0  0  0  0  0  0  0
   62.1960   33.7580   49.3210 C   0  0  0  0  0  0  0  0  0  0  0  0
   61.9630   33.8890   47.9490 C   0  0  0  0  0  0  0  0  0  0  0  0
   62.8045   34.0686   47.2637 H   0  0  0  0  0  0  0  0  0  0  0  0
   60.6610   33.7920   47.4460 C   0  0  0  0  0  0  0  0  0  0  0  0
   60.4791   33.9081   46.3674 H   0  0  0  0  0  0  0  0  0  0  0  0
   59.5830   33.5460   48.3180 C   0  0  0  0  0  0  0  0  0  0  0  0
   58.2290   33.4620   47.8480 N   0  0  0  0  0  0  0  0  0  0  0  0
   57.8030   33.3810   46.4820 C   0  0  0  0  0  0  0  0  0  0  0  0
   57.3870   34.4090   45.8800 O   0  0  0  0  0  0  0  0  0  0  0  0
   57.8670   32.1190   45.8060 N   0  0  0  0  0  0  0  0  0  0  0  0
   57.9960   31.2650   46.3930 H   0  0  0  0  0  0  0  0  0  0  0  0
   57.6650   31.9570   44.3900 C   0  0  0  0  0  0  0  0  0  0  0  0
   58.3250   32.7980   43.4740 C   0  0  0  0  0  0  0  0  0  0  0  0
   58.9816   33.5994   43.8435 H   0  0  0  0  0  0  0  0  0  0  0  0
   58.1520   32.6220   42.1000 C   0  0  0  0  0  0  0  0  0  0  0  0
   58.6740   33.2822   41.3917 H   0  0  0  0  0  0  0  0  0  0  0  0
   57.3180   31.6100   41.6240 C   0  0  0  0  0  0  0  0  0  0  0  0
   57.1703   31.4835   40.5413 H   0  0  0  0  0  0  0  0  0  0  0  0
   56.6710   30.7580   42.5200 C   0  0  0  0  0  0  0  0  0  0  0  0
   56.0077   29.9673   42.1394 H   0  0  0  0  0  0  0  0  0  0  0  0
   56.8610   30.9030   43.9080 C   0  0  0  0  0  0  0  0  0  0  0  0
   56.1680   30.0620   44.8470 N   0  0  0  0  0  0  0  0  0  0  0  0
   56.6780   29.0880   45.5420 C   0  0  0  0  0  0  0  0  0  0  0  0
   56.0250   27.9000   45.5940 N   0  0  0  0  0  0  0  0  0  0  0  0
   56.5200   26.8690   46.3290 C   0  0  0  0  0  0  0  0  0  0  0  0
   55.8970   25.7300   46.4040 N   0  0  0  0  0  0  0  0  0  0  0  0
   55.9350   24.6650   45.4400 C   0  0  0  0  0  0  0  0  0  0  0  0
   57.1490   24.1330   44.9650 C   0  0  0  0  0  0  0  0  0  0  0  0
   58.1046   24.5544   45.3104 H   0  0  0  0  0  0  0  0  0  0  0  0
   57.1440   23.0700   44.0550 C   0  0  0  0  0  0  0  0  0  0  0  0
   58.0950   22.6675   43.6759 H   0  0  0  0  0  0  0  0  0  0  0  0
   55.9340   22.5190   43.6270 C   0  0  0  0  0  0  0  0  0  0  0  0
   55.9310   21.4640   42.7240 O   0  0  0  0  0  0  0  0  0  0  0  0
   54.7240   23.0250   44.1160 C   0  0  0  0  0  0  0  0  0  0  0  0
   53.7710   22.5874   43.7840 H   0  0  0  0  0  0  0  0  0  0  0  0
   54.7260   24.0860   45.0260 C   0  0  0  0  0  0  0  0  0  0  0  0
   53.7733   24.4695   45.4201 H   0  0  0  0  0  0  0  0  0  0  0  0
   57.6660   27.0440   47.0350 N   0  0  0  0  0  0  0  0  0  0  0  0
   58.3250   28.2330   46.9950 C   0  0  0  0  0  0  0  0  0  0  0  0
   59.4250   28.4110   47.6620 N   0  0  0  0  0  0  0  0  0  0  0  0
   59.6280   29.4790   48.6370 C   0  0  0  0  0  0  0  0  0  0  0  0
   59.5234   29.0720   49.6536 H   0  0  0  0  0  0  0  0  0  0  0  0
   58.8776   30.2675   48.4784 H   0  0  0  0  0  0  0  0  0  0  0  0
   61.0310   30.0680   48.4650 C   0  0  0  0  0  0  0  0  0  0  0  0
   61.7690   29.2616   48.5881 H   0  0  0  0  0  0  0  0  0  0  0  0
   61.1575   30.8537   49.2244 H   0  0  0  0  0  0  0  0  0  0  0  0
   61.2360   30.7170   47.0850 C   0  0  0  0  0  0  0  0  0  0  0  0
   62.0840   30.2250   46.5861 H   0  0  0  0  0  0  0  0  0  0  0  0
   61.4273   31.7885   47.2442 H   0  0  0  0  0  0  0  0  0  0  0  0
   60.0550   30.5980   46.2300 N   0  0  0  0  0  0  0  0  0  0  0  0
   59.2040   30.8600   46.7770 H   0  0  0  0  0  0  0  0  0  0  0  0
   59.9510   29.6050   45.9200 H   0  0  0  0  0  0  0  0  0  0  0  0
   57.8260   29.2510   46.2510 N   0  0  0  0  0  0  0  0  0  0  0  0
   59.8250   33.4410   49.6940 C   0  0  0  0  0  0  0  0  0  0  0  0
   58.9853   33.2814   50.3864 H   0  0  0  0  0  0  0  0  0  0  0  0
   61.1280   33.5380   50.1920 C   0  0  0  0  0  0  0  0  0  0  0  0
   61.3116   33.4407   51.2722 H   0  0  0  0  0  0  0  0  0  0  0  0
  1  2  1  0
  2  3  2  0
  3  4  1  0
  3  5  1  0
  5  6  1  0
  5  7  2  0
  7  8  1  0
  8  9  1  0
  9 10  2  0
  9 11  1  0
 11 12  1  0
 11 13  1  0
 13 14  2  0
 14 15  1  0
 14 16  1  0
 16 17  1  0
 16 18  2  0
 18 19  1  0
 18 20  1  0
 20 21  1  0
 20 22  2  0
 22 23  1  0
 23 24  2  3
 24 25  1  0
 25 26  1  0
 26 27  2  3
 27 28  1  0
 28 29  2  0
 29 30  1  0
 29 31  1  0
 31 32  1  0
 31 33  2  0
 33 34  1  0
 33 35  1  0
 35 36  1  0
 35 37  2  0
 37 38  1  0
 26 39  1  0
 39 40  1  0
 40 41  2  0
 41 42  1  0
 42 43  1  0
 42 44  1  0
 42 45  1  0
 45 46  1  0
 45 47  1  0
 45 48  1  0
 48 49  1  0
 48 50  1  0
 48 51  1  0
 51 52  1  0
 51 53  1  0
 40 54  1  0
  7 55  1  0
 55 56  1  0
 55 57  2  0
 57 58  1  0
 57  2  1  0
 22 13  1  0
 54 24  1  0
 37 28  1  0
M  CHG  5   8  -1  25  -1  34  -1  39  -1  54  -1
M  END
>  <UniqueID>  (43) 
39

>  <SMILES>  (43) 
NCCC/N=c1\[n-]c(=Nc2ccc([O-])cc2)[n-]c(=Nc2ccccc2NC(=O)[N-]c2ccccc2)[n-]1

>  <Energy>  (43) 
78.04059760443506

>  <Genealogy>  (43) 
NCCCN=c1[n-]c(=Nc2ccc([O-])cc2)[n-]c(=Nc2ccccc2NC(=O)[N-]c2ccccc2)[n-]1 (protonated)
NCCC/N=c1\[n-]c(=Nc2ccc([O-])cc2)[n-]c(=Nc2ccccc2NC(=O)[N-]c2ccccc2)[n-]1 (cis-trans isomerization)
NCCC/N=c1\[n-]c(=Nc2ccc([O-])cc2)[n-]c(=Nc2ccccc2NC(=O)[N-]c2ccccc2)[n-]1 (3D coordinates assigned)
NCCC/N=c1\[n-]c(=Nc2ccc([O-])cc2)[n-]c(=Nc2ccccc2NC(=O)[N-]c2ccccc2)[n-]1 (optimized conformer: 78.04059760443506 kcal/mol)

>  <smiles>  (43) 
NCCCN=c1[nH]c(=Nc2ccc(O)cc2)[nH]c(=Nc2ccccc2NC(=O)Nc2ccccc2)[nH]1

>  <score_type>  (43) 
oracle

>  <origin>  (43) 
adg

>  <m_score__min__energy>  (43) 
-16.039999999999999

>  <m_primary>  (43) 
energy

$$$$
43:0
     RDKit          3D

 30 31  0  0  0  0  0  0  0  0999 V2000
   55.1280   29.3520   44.7850 N   0  0  0  0  0  0  0  0  0  0  0  0
   56.3850   29.9380   44.4700 C   0  0  0  0  0  0  0  0  0  0  0  0
   56.5930   30.3830   43.3100 O   0  0  0  0  0  0  0  0  0  0  0  0
   57.3790   30.0600   45.4950 N   0  0  0  0  0  0  0  0  0  0  0  0
   58.0440   28.9850   46.1750 C   0  0  0  0  0  0  0  0  0  0  0  0
   59.3330   29.1290   46.7190 C   0  0  0  0  0  0  0  0  0  0  0  0
   59.9500   28.0510   47.3590 C   0  0  0  0  0  0  0  0  0  0  0  0
   59.2990   26.8190   47.4470 C   0  0  0  0  0  0  0  0  0  0  0  0
   58.0280   26.6490   46.8750 C   0  0  0  0  0  0  0  0  0  0  0  0
   57.3270   25.3170   46.9490 C   0  0  0  0  0  0  0  0  0  0  0  0
   55.9120   25.4530   46.6100 N   0  0  0  0  0  0  0  0  0  0  0  0
   55.1160   24.5160   45.8690 C   0  0  0  0  0  0  0  0  0  0  0  0
   53.8620   24.6010   45.9510 O   0  0  0  0  0  0  0  0  0  0  0  0
   55.7090   23.4660   45.0120 C   0  0  0  0  0  0  0  0  0  0  0  0
   56.8700   22.7880   45.4100 C   0  0  0  0  0  0  0  0  0  0  0  0
   57.4110   21.8130   44.5760 C   0  0  0  0  0  0  0  0  0  0  0  0
   56.7920   21.5420   43.3570 C   0  0  0  0  0  0  0  0  0  0  0  0
   57.2590   20.6650   42.5840 O   0  0  0  0  0  0  0  0  0  0  0  0
   55.6770   22.2340   43.0050 N   0  0  0  0  0  0  0  0  0  0  0  0
   55.1570   23.1660   43.8050 N   0  0  0  0  0  0  0  0  0  0  0  0
   57.4060   27.7400   46.2450 C   0  0  0  0  0  0  0  0  0  0  0  0
   54.7710   29.3420   45.7670 H   0  0  0  0  0  0  0  0  0  0  0  0
   59.8569   30.0930   46.6404 H   0  0  0  0  0  0  0  0  0  0  0  0
   60.9524   28.1734   47.7951 H   0  0  0  0  0  0  0  0  0  0  0  0
   59.7834   25.9788   47.9661 H   0  0  0  0  0  0  0  0  0  0  0  0
   57.8014   24.6205   46.2420 H   0  0  0  0  0  0  0  0  0  0  0  0
   57.4069   24.9344   47.9772 H   0  0  0  0  0  0  0  0  0  0  0  0
   57.3488   23.0241   46.3718 H   0  0  0  0  0  0  0  0  0  0  0  0
   58.3156   21.2635   44.8755 H   0  0  0  0  0  0  0  0  0  0  0  0
   56.4070   27.6151   45.8019 H   0  0  0  0  0  0  0  0  0  0  0  0
  1  2  1  0
  2  3  2  0
  2  4  1  0
  4  5  1  0
  5  6  2  0
  6  7  1  0
  7  8  2  0
  8  9  1  0
  9 10  1  0
 10 11  1  0
 11 12  1  0
 12 13  2  0
 12 14  1  0
 14 15  1  0
 15 16  2  0
 16 17  1  0
 17 18  2  0
 17 19  1  0
 19 20  1  0
  9 21  2  0
 21  5  1  0
 20 14  2  0
  1 22  1  0
  6 23  1  0
  7 24  1  0
  8 25  1  0
 10 26  1  0
 10 27  1  0
 15 28  1  0
 16 29  1  0
 21 30  1  0
M  CHG  4   1  -1   4  -1  11  -1  19  -1
M  END
>  <UniqueID>  (44) 
40

>  <SMILES>  (44) 
[NH-]C(=O)[N-]c1cccc(C[N-]C(=O)c2ccc(=O)[n-]n2)c1

>  <Energy>  (44) 
35.56326253299209

>  <Genealogy>  (44) 
[NH-]C(=O)[N-]c1cccc(C[N-]C(=O)c2ccc(=O)[n-]n2)c1 (protonated)
[NH-]C(=O)[N-]c1cccc(C[N-]C(=O)c2ccc(=O)[n-]n2)c1 (3D coordinates assigned)
[NH-]C(=O)[N-]c1cccc(C[N-]C(=O)c2ccc(=O)[n-]n2)c1 (optimized conformer: 35.56326253299209 kcal/mol)

>  <smiles>  (44) 
NC(=O)Nc1cccc(CNC(=O)c2ccc(=O)[nH]n2)c1

>  <score_type>  (44) 
oracle

>  <origin>  (44) 
adg

>  <m_score__min__energy>  (44) 
-14.539999999999999

>  <m_primary>  (44) 
energy

$$$$
44:0
     RDKit          3D

 49 51  0  0  0  0  0  0  0  0999 V2000
   63.7740   33.7890   47.4280 C   0  0  0  0  0  0  0  0  0  0  0  0
   62.4350   33.8480   48.0290 N   0  0  0  0  0  0  0  0  0  0  0  0
   62.2920   34.3890   49.3860 C   0  0  0  0  0  0  0  0  0  0  0  0
   61.2740   33.3800   47.2940 C   0  0  0  0  0  0  0  0  0  0  0  0
   60.5850   34.2360   46.4090 C   0  0  0  0  0  0  0  0  0  0  0  0
   59.4650   33.7850   45.7040 C   0  0  0  0  0  0  0  0  0  0  0  0
   58.9960   32.4750   45.8820 C   0  0  0  0  0  0  0  0  0  0  0  0
   57.8690   31.9760   45.1470 N   0  0  0  0  0  0  0  0  0  0  0  0
   57.4910   30.6000   45.0220 C   0  0  0  0  0  0  0  0  0  0  0  0
   56.2730   30.3210   44.8690 O   0  0  0  0  0  0  0  0  0  0  0  0
   58.4830   29.5580   45.0430 N   0  0  0  0  0  0  0  0  0  0  0  0
   58.1810   28.1550   44.9570 C   0  0  0  0  0  0  0  0  0  0  0  0
   58.0840   27.5520   43.6960 C   0  0  0  0  0  0  0  0  0  0  0  0
   57.7670   26.1950   43.5820 C   0  0  0  0  0  0  0  0  0  0  0  0
   57.5160   25.4300   44.7290 C   0  0  0  0  0  0  0  0  0  0  0  0
   57.1840   23.9970   44.6050 C   0  0  0  0  0  0  0  0  0  0  0  0
   57.9820   23.1990   43.7690 C   0  0  0  0  0  0  0  0  0  0  0  0
   57.7270   21.8330   43.6370 C   0  0  0  0  0  0  0  0  0  0  0  0
   56.6710   21.2500   44.3360 C   0  0  0  0  0  0  0  0  0  0  0  0
   55.8600   22.0320   45.1610 C   0  0  0  0  0  0  0  0  0  0  0  0
   56.0960   23.4090   45.2990 C   0  0  0  0  0  0  0  0  0  0  0  0
   55.0000   24.3640   46.3110 S   0  0  0  0  0  0  0  0  0  0  0  0
   54.7740   25.9360   45.6250 N   0  0  0  0  0  0  0  0  0  0  0  0
   55.5700   24.4900   47.6950 O   0  0  0  0  0  0  0  0  0  0  0  0
   53.6590   23.6890   46.3940 O   0  0  0  0  0  0  0  0  0  0  0  0
   57.6030   26.0320   45.9930 C   0  0  0  0  0  0  0  0  0  0  0  0
   57.9210   27.3890   46.1070 C   0  0  0  0  0  0  0  0  0  0  0  0
   59.6870   31.6110   46.7330 C   0  0  0  0  0  0  0  0  0  0  0  0
   60.8080   32.0560   47.4390 C   0  0  0  0  0  0  0  0  0  0  0  0
   64.5322   33.7556   48.2243 H   0  0  0  0  0  0  0  0  0  0  0  0
   63.8568   32.8863   46.8048 H   0  0  0  0  0  0  0  0  0  0  0  0
   63.9358   34.6809   46.8048 H   0  0  0  0  0  0  0  0  0  0  0  0
   62.5013   33.5972   50.1203 H   0  0  0  0  0  0  0  0  0  0  0  0
   63.0021   35.2171   49.5273 H   0  0  0  0  0  0  0  0  0  0  0  0
   61.2654   34.7581   49.5273 H   0  0  0  0  0  0  0  0  0  0  0  0
   60.9331   35.2704   46.2721 H   0  0  0  0  0  0  0  0  0  0  0  0
   58.9490   34.4609   45.0062 H   0  0  0  0  0  0  0  0  0  0  0  0
   59.4810   29.8230   45.1990 H   0  0  0  0  0  0  0  0  0  0  0  0
   58.2584   28.1502   42.7895 H   0  0  0  0  0  0  0  0  0  0  0  0
   57.7144   25.7262   42.5883 H   0  0  0  0  0  0  0  0  0  0  0  0
   58.8151   23.6544   43.2135 H   0  0  0  0  0  0  0  0  0  0  0  0
   58.3594   21.2164   42.9813 H   0  0  0  0  0  0  0  0  0  0  0  0
   56.4763   20.1719   44.2374 H   0  0  0  0  0  0  0  0  0  0  0  0
   55.0281   21.5645   45.7081 H   0  0  0  0  0  0  0  0  0  0  0  0
   53.8560   26.2920   45.9730 H   0  0  0  0  0  0  0  0  0  0  0  0
   57.4204   25.4343   46.8982 H   0  0  0  0  0  0  0  0  0  0  0  0
   57.9679   27.8590   47.1004 H   0  0  0  0  0  0  0  0  0  0  0  0
   59.3465   30.5715   46.8489 H   0  0  0  0  0  0  0  0  0  0  0  0
   61.3333   31.3660   48.1157 H   0  0  0  0  0  0  0  0  0  0  0  0
  1  2  1  0
  2  3  1  0
  2  4  1  0
  4  5  2  0
  5  6  1  0
  6  7  2  0
  7  8  1  0
  8  9  1  0
  9 10  2  0
  9 11  1  0
 11 12  1  0
 12 13  2  0
 13 14  1  0
 14 15  2  0
 15 16  1  0
 16 17  2  0
 17 18  1  0
 18 19  2  0
 19 20  1  0
 20 21  2  0
 21 22  1  0
 22 23  1  0
 22 24  2  0
 22 25  2  0
 15 26  1  0
 26 27  2  0
  7 28  1  0
 28 29  2  0
 29  4  1  0
 27 12  1  0
 21 16  1  0
  1 30  1  0
  1 31  1  0
  1 32  1  0
  3 33  1  0
  3 34  1  0
  3 35  1  0
  5 36  1  0
  6 37  1  0
 11 38  1  0
 13 39  1  0
 14 40  1  0
 17 41  1  0
 18 42  1  0
 19 43  1  0
 20 44  1  0
 23 45  1  0
 26 46  1  0
 27 47  1  0
 28 48  1  0
 29 49  1  0
M  CHG  2   8  -1  23  -1
M  END
>  <UniqueID>  (45) 
41

>  <SMILES>  (45) 
CN(C)c1ccc([N-]C(=O)Nc2ccc(-c3ccccc3S([NH-])(=O)=O)cc2)cc1

>  <Energy>  (45) 
69.38731802483797

>  <Genealogy>  (45) 
CN(C)c1ccc([N-]C(=O)Nc2ccc(-c3ccccc3S([NH-])(=O)=O)cc2)cc1 (protonated)
CN(C)c1ccc([N-]C(=O)Nc2ccc(-c3ccccc3S([NH-])(=O)=O)cc2)cc1 (3D coordinates assigned)
CN(C)c1ccc([N-]C(=O)Nc2ccc(-c3ccccc3S([NH-])(=O)=O)cc2)cc1 (optimized conformer: 69.38731802483797 kcal/mol)

>  <smiles>  (45) 
CN(C)c1ccc(NC(=O)Nc2ccc(-c3ccccc3S(N)(=O)=O)cc2)cc1

>  <score_type>  (45) 
oracle

>  <origin>  (45) 
adg

>  <m_score__min__energy>  (45) 
-12.449999999999999

>  <m_primary>  (45) 
energy

$$$$
45:0
     RDKit          3D

 38 40  0  0  0  0  0  0  0  0999 V2000
   62.8580   32.6460   51.1320 N   0  0  0  0  0  0  0  0  0  0  0  0
   62.3330   32.1570   50.2240 C   0  0  0  0  0  0  0  0  0  0  0  0
   61.6800   31.5480   49.0950 C   0  0  0  0  0  0  0  0  0  0  0  0
   60.9460   30.3670   49.2610 C   0  0  0  0  0  0  0  0  0  0  0  0
   60.3170   29.7720   48.1640 C   0  0  0  0  0  0  0  0  0  0  0  0
   60.4250   30.3480   46.8850 C   0  0  0  0  0  0  0  0  0  0  0  0
   59.8110   29.7420   45.7350 N   0  0  0  0  0  0  0  0  0  0  0  0
   58.6030   28.9620   45.7790 C   0  0  0  0  0  0  0  0  0  0  0  0
   58.6250   27.7310   46.4380 C   0  0  0  0  0  0  0  0  0  0  0  0
   57.4830   26.9300   46.4580 C   0  0  0  0  0  0  0  0  0  0  0  0
   57.5200   25.8130   47.0420 O   0  0  0  0  0  0  0  0  0  0  0  0
   56.3360   27.3460   45.8480 N   0  0  0  0  0  0  0  0  0  0  0  0
   55.2300   26.5180   45.8800 O   0  0  0  0  0  0  0  0  0  0  0  0
   56.2740   28.5620   45.2240 C   0  0  0  0  0  0  0  0  0  0  0  0
   55.0890   28.9780   44.6240 O   0  0  0  0  0  0  0  0  0  0  0  0
   57.3940   29.4090   45.1970 C   0  0  0  0  0  0  0  0  0  0  0  0
   57.2840   30.6990   44.5690 N   0  0  0  0  0  0  0  0  0  0  0  0
   57.8130   31.9160   45.1230 C   0  0  0  0  0  0  0  0  0  0  0  0
   58.3670   32.8780   44.2660 C   0  0  0  0  0  0  0  0  0  0  0  0
   58.9110   34.0570   44.7840 C   0  0  0  0  0  0  0  0  0  0  0  0
   58.8940   34.2900   46.1610 C   0  0  0  0  0  0  0  0  0  0  0  0
   58.3270   33.3460   47.0220 C   0  0  0  0  0  0  0  0  0  0  0  0
   57.7830   32.1650   46.5080 C   0  0  0  0  0  0  0  0  0  0  0  0
   61.1430   31.5440   46.7310 C   0  0  0  0  0  0  0  0  0  0  0  0
   61.7730   32.1370   47.8280 C   0  0  0  0  0  0  0  0  0  0  0  0
   60.8644   29.9068   50.2568 H   0  0  0  0  0  0  0  0  0  0  0  0
   59.7347   28.8489   48.3012 H   0  0  0  0  0  0  0  0  0  0  0  0
   60.2340   29.9250   44.7970 H   0  0  0  0  0  0  0  0  0  0  0  0
   59.5428   27.3929   46.9413 H   0  0  0  0  0  0  0  0  0  0  0  0
   54.3870   26.7240   45.3600 H   0  0  0  0  0  0  0  0  0  0  0  0
   56.7470   30.7570   43.6730 H   0  0  0  0  0  0  0  0  0  0  0  0
   58.3735   32.7038   43.1799 H   0  0  0  0  0  0  0  0  0  0  0  0
   59.3530   34.8022   44.1062 H   0  0  0  0  0  0  0  0  0  0  0  0
   59.3266   35.2160   46.5678 H   0  0  0  0  0  0  0  0  0  0  0  0
   58.3088   33.5326   48.1059 H   0  0  0  0  0  0  0  0  0  0  0  0
   57.3303   31.4283   47.1880 H   0  0  0  0  0  0  0  0  0  0  0  0
   61.2102   32.0175   45.7404 H   0  0  0  0  0  0  0  0  0  0  0  0
   62.3432   33.0684   47.6962 H   0  0  0  0  0  0  0  0  0  0  0  0
  1  2  3  0
  2  3  1  0
  3  4  2  0
  4  5  1  0
  5  6  2  0
  6  7  1  0
  7  8  1  0
  8  9  2  0
  9 10  1  0
 10 11  2  0
 10 12  1  0
 12 13  1  0
 12 14  1  0
 14 15  1  0
 14 16  2  0
 16 17  1  0
 17 18  1  0
 18 19  2  0
 19 20  1  0
 20 21  2  0
 21 22  1  0
 22 23  2  0
  6 24  1  0
 24 25  2  0
 25  3  1  0
 16  8  1  0
 23 18  1  0
  4 26  1  0
  5 27  1  0
  7 28  1  0
  9 29  1  0
 13 30  1  0
 17 31  1  0
 19 32  1  0
 20 33  1  0
 21 34  1  0
 22 35  1  0
 23 36  1  0
 24 37  1  0
 25 38  1  0
M  CHG  1  15  -1
M  END
>  <UniqueID>  (46) 
42

>  <SMILES>  (46) 
N#Cc1ccc(Nc2cc(=O)n(O)c([O-])c2Nc2ccccc2)cc1

>  <Energy>  (46) 
52.728146811120475

>  <Genealogy>  (46) 
N#Cc1ccc(Nc2cc(=O)n(O)c([O-])c2Nc2ccccc2)cc1 (protonated)
N#Cc1ccc(Nc2cc(=O)n(O)c([O-])c2Nc2ccccc2)cc1 (3D coordinates assigned)
N#Cc1ccc(Nc2cc(=O)n(O)c([O-])c2Nc2ccccc2)cc1 (optimized conformer: 52.728146811120475 kcal/mol)

>  <smiles>  (46) 
N#Cc1ccc(Nc2cc(=O)n(O)c(O)c2Nc2ccccc2)cc1

>  <score_type>  (46) 
oracle

>  <origin>  (46) 
adg

>  <m_score__min__energy>  (46) 
-11.380000000000001

>  <m_primary>  (46) 
energy

$$$$
46:0
     RDKit          3D

 51 53  0  0  0  0  0  0  0  0999 V2000
   59.6610   35.0110   46.8580 C   0  0  0  0  0  0  0  0  0  0  0  0
   58.9300   33.9080   46.1510 C   0  0  0  0  0  0  0  0  0  0  0  0
   58.8010   32.6450   46.7490 C   0  0  0  0  0  0  0  0  0  0  0  0
   58.1460   31.6100   46.0760 C   0  0  0  0  0  0  0  0  0  0  0  0
   57.6280   31.8220   44.7900 C   0  0  0  0  0  0  0  0  0  0  0  0
   56.7720   30.5360   43.9420 S   0  0  0  0  0  0  0  0  0  0  0  0
   55.3880   30.4150   44.5160 O   0  0  0  0  0  0  0  0  0  0  0  0
   56.6520   30.8730   42.4820 O   0  0  0  0  0  0  0  0  0  0  0  0
   57.5980   29.0130   44.1260 N   0  0  0  0  0  0  0  0  0  0  0  0
   57.2310   28.3510   45.3800 C   0  0  0  0  0  0  0  0  0  0  0  0
   58.4430   27.7940   46.0800 C   0  0  0  0  0  0  0  0  0  0  0  0
   58.9640   26.5430   45.7180 C   0  0  0  0  0  0  0  0  0  0  0  0
   60.0710   26.0230   46.3910 C   0  0  0  0  0  0  0  0  0  0  0  0
   60.6590   26.7400   47.4360 C   0  0  0  0  0  0  0  0  0  0  0  0
   60.1460   27.9880   47.8190 C   0  0  0  0  0  0  0  0  0  0  0  0
   60.7430   28.6840   48.9290 N   0  0  0  0  0  0  0  0  0  0  0  0
   60.2320   30.2560   49.4610 S   0  0  0  0  0  0  0  0  0  0  0  0
   58.8450   30.5270   48.9480 O   0  0  0  0  0  0  0  0  0  0  0  0
   60.2100   30.2660   50.9640 O   0  0  0  0  0  0  0  0  0  0  0  0
   61.3250   31.4920   48.8240 C   0  0  0  0  0  0  0  0  0  0  0  0
   62.0350   31.2220   47.6430 C   0  0  0  0  0  0  0  0  0  0  0  0
   62.9420   32.1510   47.1340 C   0  0  0  0  0  0  0  0  0  0  0  0
   63.1480   33.3600   47.7960 C   0  0  0  0  0  0  0  0  0  0  0  0
   62.4370   33.6510   48.9620 C   0  0  0  0  0  0  0  0  0  0  0  0
   61.5120   32.7240   49.4860 C   0  0  0  0  0  0  0  0  0  0  0  0
   60.7690   32.9930   50.6490 O   0  0  0  0  0  0  0  0  0  0  0  0
   59.4890   33.6210   50.6900 C   0  0  0  0  0  0  0  0  0  0  0  0
   59.3180   34.2050   51.9310 F   0  0  0  0  0  0  0  0  0  0  0  0
   59.4110   34.6050   49.7220 F   0  0  0  0  0  0  0  0  0  0  0  0
   58.4900   32.6840   50.4970 F   0  0  0  0  0  0  0  0  0  0  0  0
   59.0500   28.5210   47.1160 C   0  0  0  0  0  0  0  0  0  0  0  0
   57.7690   33.0770   44.1850 C   0  0  0  0  0  0  0  0  0  0  0  0
   58.4230   34.1130   44.8590 C   0  0  0  0  0  0  0  0  0  0  0  0
   59.5697   34.8732   47.9455 H   0  0  0  0  0  0  0  0  0  0  0  0
   60.7233   34.9881   46.5734 H   0  0  0  0  0  0  0  0  0  0  0  0
   59.2260   35.9804   46.5734 H   0  0  0  0  0  0  0  0  0  0  0  0
   59.2173   32.4689   47.7519 H   0  0  0  0  0  0  0  0  0  0  0  0
   58.0364   30.6264   46.5562 H   0  0  0  0  0  0  0  0  0  0  0  0
   56.7399   29.0810   46.0402 H   0  0  0  0  0  0  0  0  0  0  0  0
   56.5513   27.5181   45.1469 H   0  0  0  0  0  0  0  0  0  0  0  0
   58.4992   25.9703   44.9019 H   0  0  0  0  0  0  0  0  0  0  0  0
   60.4816   25.0456   46.0976 H   0  0  0  0  0  0  0  0  0  0  0  0
   61.5304   26.3229   47.9621 H   0  0  0  0  0  0  0  0  0  0  0  0
   61.4480   28.1880   49.5200 H   0  0  0  0  0  0  0  0  0  0  0  0
   61.8745   30.2703   47.1152 H   0  0  0  0  0  0  0  0  0  0  0  0
   63.4952   31.9294   46.2094 H   0  0  0  0  0  0  0  0  0  0  0  0
   63.8723   34.0866   47.3991 H   0  0  0  0  0  0  0  0  0  0  0  0
   62.5994   34.6101   49.4756 H   0  0  0  0  0  0  0  0  0  0  0  0
   58.6651   29.5169   47.3808 H   0  0  0  0  0  0  0  0  0  0  0  0
   57.3641   33.2483   43.1767 H   0  0  0  0  0  0  0  0  0  0  0  0
   58.5405   35.0933   44.3740 H   0  0  0  0  0  0  0  0  0  0  0  0
  1  2  1  0
  2  3  2  0
  3  4  1  0
  4  5  2  0
  5  6  1  0
  6  7  2  0
  6  8  2  0
  6  9  1  0
  9 10  1  0
 10 11  1  0
 11 12  2  0
 12 13  1  0
 13 14  2  0
 14 15  1  0
 15 16  1  0
 16 17  1  0
 17 18  2  0
 17 19  2  0
 17 20  1  0
 20 21  2  0
 21 22  1  0
 22 23  2  0
 23 24  1  0
 24 25  2  0
 25 26  1  0
 26 27  1  0
 27 28  1  0
 27 29  1  0
 27 30  1  0
 15 31  2  0
  5 32  1  0
 32 33  2  0
 33  2  1  0
 31 11  1  0
 25 20  1  0
  1 34  1  0
  1 35  1  0
  1 36  1  0
  3 37  1  0
  4 38  1  0
 10 39  1  0
 10 40  1  0
 12 41  1  0
 13 42  1  0
 14 43  1  0
 16 44  1  0
 21 45  1  0
 22 46  1  0
 23 47  1  0
 24 48  1  0
 31 49  1  0
 32 50  1  0
 33 51  1  0
M  CHG  1   9  -1
M  END
>  <UniqueID>  (47) 
43

>  <SMILES>  (47) 
Cc1ccc(S(=O)(=O)[N-]Cc2cccc(NS(=O)(=O)c3ccccc3OC(F)(F)F)c2)cc1

>  <Energy>  (47) 
52.47025593622505

>  <Genealogy>  (47) 
Cc1ccc(S(=O)(=O)[N-]Cc2cccc(NS(=O)(=O)c3ccccc3OC(F)(F)F)c2)cc1 (protonated)
Cc1ccc(S(=O)(=O)[N-]Cc2cccc(NS(=O)(=O)c3ccccc3OC(F)(F)F)c2)cc1 (3D coordinates assigned)
Cc1ccc(S(=O)(=O)[N-]Cc2cccc(NS(=O)(=O)c3ccccc3OC(F)(F)F)c2)cc1 (optimized conformer: 52.47025593622505 kcal/mol)

>  <smiles>  (47) 
Cc1ccc(S(=O)(=O)NCc2cccc(NS(=O)(=O)c3ccccc3OC(F)(F)F)c2)cc1

>  <score_type>  (47) 
oracle

>  <origin>  (47) 
adg

>  <m_score__min__energy>  (47) 
-10.66

>  <m_primary>  (47) 
energy

$$$$
47:0
     RDKit          3D

 56 58  0  0  0  0  0  0  0  0999 V2000
   55.0580   26.2980   45.9450 N   0  0  0  0  0  0  0  0  0  0  0  0
   56.7790   26.3710   45.7940 S   0  0  0  0  0  0  0  0  0  0  0  0
   57.2290   25.4530   44.6920 O   0  0  0  0  0  0  0  0  0  0  0  0
   57.4100   25.9270   47.0840 O   0  0  0  0  0  0  0  0  0  0  0  0
   57.2590   28.0210   45.4160 C   0  0  0  0  0  0  0  0  0  0  0  0
   56.3040   28.9770   45.0430 C   0  0  0  0  0  0  0  0  0  0  0  0
   56.6980   30.2830   44.7350 C   0  0  0  0  0  0  0  0  0  0  0  0
   58.0480   30.6550   44.8100 C   0  0  0  0  0  0  0  0  0  0  0  0
   58.4300   31.9990   44.4700 N   0  0  0  0  0  0  0  0  0  0  0  0
   57.8130   33.1740   45.0190 C   0  0  0  0  0  0  0  0  0  0  0  0
   56.7670   33.0830   45.7200 O   0  0  0  0  0  0  0  0  0  0  0  0
   58.4100   34.5270   44.7650 C   0  0  0  0  0  0  0  0  0  0  0  0
   59.6780   34.6490   45.4060 O   0  0  0  0  0  0  0  0  0  0  0  0
   59.8350   34.6550   46.7960 C   0  0  0  0  0  0  0  0  0  0  0  0
   59.0750   35.3550   47.5190 O   0  0  0  0  0  0  0  0  0  0  0  0
   60.9410   33.8780   47.3850 C   0  0  0  0  0  0  0  0  0  0  0  0
   61.1880   32.5780   47.1630 C   0  0  0  0  0  0  0  0  0  0  0  0
   60.5940   31.4500   47.9130 C   0  0  0  0  0  0  0  0  0  0  0  0
   60.9510   30.1190   47.6350 C   0  0  0  0  0  0  0  0  0  0  0  0
   60.4170   29.0740   48.3940 C   0  0  0  0  0  0  0  0  0  0  0  0
   59.5490   29.3500   49.4530 C   0  0  0  0  0  0  0  0  0  0  0  0
   59.2180   30.6760   49.7670 C   0  0  0  0  0  0  0  0  0  0  0  0
   58.1480   31.0280   51.1280 S   0  0  0  0  0  0  0  0  0  0  0  0
   57.4850   29.7550   51.5780 O   0  0  0  0  0  0  0  0  0  0  0  0
   57.0740   31.9790   50.6810 O   0  0  0  0  0  0  0  0  0  0  0  0
   59.0220   31.7250   52.4730 N   0  0  0  0  0  0  0  0  0  0  0  0
   59.6700   33.0020   52.1020 C   0  0  0  0  0  0  0  0  0  0  0  0
   58.9370   34.2170   52.6970 C   0  0  0  0  0  0  0  0  0  0  0  0
   58.8530   34.1800   54.1160 O   0  0  0  0  0  0  0  0  0  0  0  0
   58.7130   32.8690   54.6490 C   0  0  0  0  0  0  0  0  0  0  0  0
   58.1460   31.8420   53.6540 C   0  0  0  0  0  0  0  0  0  0  0  0
   59.7440   31.7220   48.9940 C   0  0  0  0  0  0  0  0  0  0  0  0
   59.0060   29.6850   45.1580 C   0  0  0  0  0  0  0  0  0  0  0  0
   58.6110   28.3800   45.4650 C   0  0  0  0  0  0  0  0  0  0  0  0
   54.7730   27.0870   46.5690 H   0  0  0  0  0  0  0  0  0  0  0  0
   55.2409   28.6989   44.9924 H   0  0  0  0  0  0  0  0  0  0  0  0
   55.9435   31.0238   44.4317 H   0  0  0  0  0  0  0  0  0  0  0  0
   59.1400   32.1270   43.7120 H   0  0  0  0  0  0  0  0  0  0  0  0
   58.5386   34.6669   43.6815 H   0  0  0  0  0  0  0  0  0  0  0  0
   57.7337   35.2931   45.1722 H   0  0  0  0  0  0  0  0  0  0  0  0
   61.6225   34.4100   48.0651 H   0  0  0  0  0  0  0  0  0  0  0  0
   61.8918   32.3301   46.3548 H   0  0  0  0  0  0  0  0  0  0  0  0
   61.6531   29.8992   46.8172 H   0  0  0  0  0  0  0  0  0  0  0  0
   60.6806   28.0327   48.1571 H   0  0  0  0  0  0  0  0  0  0  0  0
   59.1237   28.5245   50.0426 H   0  0  0  0  0  0  0  0  0  0  0  0
   60.7054   32.9955   52.4735 H   0  0  0  0  0  0  0  0  0  0  0  0
   59.6399   33.0914   51.0061 H   0  0  0  0  0  0  0  0  0  0  0  0
   59.4760   35.1294   52.4022 H   0  0  0  0  0  0  0  0  0  0  0  0
   57.9083   34.2013   52.3078 H   0  0  0  0  0  0  0  0  0  0  0  0
   59.7042   32.5218   54.9762 H   0  0  0  0  0  0  0  0  0  0  0  0
   57.9919   32.9392   55.4767 H   0  0  0  0  0  0  0  0  0  0  0  0
   58.0728   30.8620   54.1483 H   0  0  0  0  0  0  0  0  0  0  0  0
   57.1513   32.1779   53.3258 H   0  0  0  0  0  0  0  0  0  0  0  0
   59.4875   32.7635   49.2380 H   0  0  0  0  0  0  0  0  0  0  0  0
   60.0718   29.9553   45.1886 H   0  0  0  0  0  0  0  0  0  0  0  0
   59.3662   27.6314   45.7465 H   0  0  0  0  0  0  0  0  0  0  0  0
  1  2  1  0
  2  3  2  0
  2  4  2  0
  2  5  1  0
  5  6  2  0
  6  7  1  0
  7  8  2  0
  8  9  1  0
  9 10  1  0
 10 11  2  0
 10 12  1  0
 12 13  1  0
 13 14  1  0
 14 15  2  0
 14 16  1  0
 16 17  2  3
 17 18  1  0
 18 19  2  0
 19 20  1  0
 20 21  2  0
 21 22  1  0
 22 23  1  0
 23 24  2  0
 23 25  2  0
 23 26  1  0
 26 27  1  0
 27 28  1  0
 28 29  1  0
 29 30  1  0
 30 31  1  0
 22 32  2  0
  8 33  1  0
 33 34  2  0
 34  5  1  0
 32 18  1  0
 31 26  1  0
  1 35  1  0
  6 36  1  0
  7 37  1  0
  9 38  1  0
 12 39  1  0
 12 40  1  0
 16 41  1  0
 17 42  1  0
 19 43  1  0
 20 44  1  0
 21 45  1  0
 27 46  1  0
 27 47  1  0
 28 48  1  0
 28 49  1  0
 30 50  1  0
 30 51  1  0
 31 52  1  0
 31 53  1  0
 32 54  1  0
 33 55  1  0
 34 56  1  0
M  CHG  1   1  -1
M  END
>  <UniqueID>  (48) 
44

>  <SMILES>  (48) 
[NH-]S(=O)(=O)c1ccc(NC(=O)COC(=O)C=Cc2cccc(S(=O)(=O)N3CCOCC3)c2)cc1

>  <Energy>  (48) 
77.04540436077775

>  <Genealogy>  (48) 
[NH-]S(=O)(=O)c1ccc(NC(=O)COC(=O)C=Cc2cccc(S(=O)(=O)N3CCOCC3)c2)cc1 (protonated)
[NH-]S(=O)(=O)c1ccc(NC(=O)COC(=O)C=Cc2cccc(S(=O)(=O)N3CCOCC3)c2)cc1 (3D coordinates assigned)
[NH-]S(=O)(=O)c1ccc(NC(=O)COC(=O)C=Cc2cccc(S(=O)(=O)N3CCOCC3)c2)cc1 (nonaromatic ring conformer: 77.04540436077775 kcal/mol)

>  <smiles>  (48) 
NS(=O)(=O)c1ccc(NC(=O)COC(=O)C=Cc2cccc(S(=O)(=O)N3CCOCC3)c2)cc1

>  <score_type>  (48) 
oracle

>  <origin>  (48) 
adg

>  <m_score__min__energy>  (48) 
-11.84

>  <m_primary>  (48) 
energy

$$$$
48:0
     RDKit          3D

 49 52  0  0  1  0  0  0  0  0999 V2000
   55.6220   28.9120   44.8640 O   0  0  0  0  0  0  0  0  0  0  0  0
   56.8780   29.1040   45.4020 C   0  0  0  0  0  0  0  0  0  0  0  0
   57.6470   30.1970   45.0250 C   0  0  0  0  0  0  0  0  0  0  0  0
   58.9090   30.3620   45.5850 C   0  0  0  0  0  0  0  0  0  0  0  0
   59.4460   29.5040   46.4970 C   0  0  0  0  0  0  0  0  0  0  0  0
   60.7390   29.6670   47.0750 N   0  0  0  0  0  0  0  0  0  0  0  0
   61.1130   30.8670   47.4490 C   0  0  0  0  0  0  0  0  0  0  0  0
   60.1820   31.8110   47.6940 N   0  0  0  0  0  0  0  0  0  0  0  0
   66.6080   32.8440   50.6640 C   0  0  0  0  0  0  0  0  0  0  0  0
   59.6350   33.9690   48.3190 N   0  0  0  0  0  0  0  0  0  0  0  0
   60.5170   33.0690   48.0840 C   0  0  0  0  0  0  0  0  0  0  0  0
   61.8590   33.3800   48.2290 C   0  0  0  0  0  0  0  0  0  0  0  0
   64.4910   32.5230   51.7180 C   0  0  0  0  0  0  0  0  0  0  0  0
   65.8640   32.6750   51.8060 C   0  0  0  0  0  0  0  0  0  0  0  0
   62.7930   32.3910   47.9700 C   0  0  0  0  0  0  0  0  0  0  0  0
   62.4020   31.1610   47.5870 N   0  0  0  0  0  0  0  0  0  0  0  0
   63.9550   32.5530   50.4390 C   0  0  0  0  0  0  0  0  0  0  0  0
   64.7270   32.7240   49.3100 C   0  0  0  0  0  0  0  0  0  0  0  0
   64.1720   32.7450   48.1300 N   0  0  0  0  0  0  0  0  0  0  0  0
   58.7230   34.4580   47.3120 C   0  0  0  0  0  0  0  0  0  0  0  0
   57.6360   33.4750   46.9520 C   0  0  0  0  0  0  0  0  0  0  0  0
   57.2800   33.7840   45.4920 C   0  0  0  0  0  0  0  0  0  0  0  0
   58.4350   34.5710   44.9330 C   0  0  0  0  0  0  0  0  0  0  0  0
   59.5090   34.4650   45.9940 C   0  0  0  0  0  0  0  0  0  0  0  0
   66.0580   32.8690   49.4240 N   0  0  0  0  0  0  0  0  0  0  0  0
   58.6740   28.4100   46.8740 C   0  0  0  0  0  0  0  0  0  0  0  0
   57.4130   28.2140   46.3360 C   0  0  0  0  0  0  0  0  0  0  0  0
   55.1560   28.0190   44.9190 H   0  0  0  0  0  0  0  0  0  0  0  0
   57.2629   30.9227   44.2930 H   0  0  0  0  0  0  0  0  0  0  0  0
   59.5061   31.2323   45.2749 H   0  0  0  0  0  0  0  0  0  0  0  0
   59.1530   31.6290   47.6000 H   0  0  0  0  0  0  0  0  0  0  0  0
   62.1745   34.3863   48.5417 H   0  0  0  0  0  0  0  0  0  0  0  0
   63.8619   32.3864   52.6100 H   0  0  0  0  0  0  0  0  0  0  0  0
   66.3582   32.6605   52.7886 H   0  0  0  0  0  0  0  0  0  0  0  0
   67.6973   32.9643   50.7588 H   0  0  0  0  0  0  0  0  0  0  0  0
   63.1090   30.4220   47.3940 H   0  0  0  0  0  0  0  0  0  0  0  0
   62.8677   32.4353   50.3207 H   0  0  0  0  0  0  0  0  0  0  0  0
   58.3160   35.4049   47.6964 H   0  0  0  0  0  0  0  0  0  0  0  0
   58.0024   32.4424   47.0492 H   0  0  0  0  0  0  0  0  0  0  0  0
   56.7635   33.5663   47.6156 H   0  0  0  0  0  0  0  0  0  0  0  0
   57.1464   32.8499   44.9266 H   0  0  0  0  0  0  0  0  0  0  0  0
   56.3392   34.3495   45.4210 H   0  0  0  0  0  0  0  0  0  0  0  0
   58.7805   34.1350   43.9840 H   0  0  0  0  0  0  0  0  0  0  0  0
   58.1646   35.6141   44.7118 H   0  0  0  0  0  0  0  0  0  0  0  0
   60.0853   33.5354   45.8766 H   0  0  0  0  0  0  0  0  0  0  0  0
   60.2418   35.2836   45.9404 H   0  0  0  0  0  0  0  0  0  0  0  0
   66.6840   32.9980   48.6170 H   0  0  0  0  0  0  0  0  0  0  0  0
   59.0696   27.6924   47.6078 H   0  0  0  0  0  0  0  0  0  0  0  0
   56.8218   27.3412   46.6501 H   0  0  0  0  0  0  0  0  0  0  0  0
  1  2  1  0
  2  3  2  0
  3  4  1  0
  4  5  2  0
  5  6  1  0
  6  7  2  0
  7  8  1  0
  8  9  1  0
  9 10  1  0
 10 11  2  0
 11 12  1  0
 12 13  2  0
 13 14  1  0
 14 15  2  0
 15 16  1  0
  9 17  2  0
 17 18  1  0
 18 19  2  0
 19 20  1  0
 20 21  1  0
 21 22  1  0
 22 23  1  0
 23 24  1  0
 18 25  1  0
  5 26  1  0
 26 27  2  0
 27  2  1  0
 25  7  1  0
 16 11  1  0
 24 20  1  0
  1 28  1  0
  3 29  1  0
  4 30  1  0
  8 31  1  0
 12 32  1  0
 13 33  1  0
 14 34  1  0
 15 35  1  0
 16 36  1  0
 17 37  1  0
 20 38  1  0
 21 39  1  0
 21 40  1  0
 22 41  1  0
 22 42  1  0
 23 43  1  0
 23 44  1  0
 24 45  1  0
 24 46  1  0
 25 47  1  0
 26 48  1  0
 27 49  1  0
M  END
>  <smiles>  (49) 
Oc1ccc(N=c2[nH]c(N=c3cccc[nH]3)cc(=NC3CCCC3)[nH]2)cc1

>  <score_type>  (49) 
oracle

>  <origin>  (49) 
adg

>  <m_score__min__energy>  (49) 
-9.0500000000000007

>  <m_primary>  (49) 
energy

$$$$
49:0
     RDKit          3D

 43 45  0  0  0  0  0  0  0  0999 V2000
   55.5350   23.2350   43.1060 C   0  0  0  0  0  0  0  0  0  0  0  0
   56.1820   22.2020   43.9720 C   0  0  0  0  0  0  0  0  0  0  0  0
   57.3640   21.5220   43.6990 C   0  0  0  0  0  0  0  0  0  0  0  0
   57.6430   20.6480   44.6910 N   0  0  0  0  0  0  0  0  0  0  0  0
   56.6480   20.7710   45.5860 C   0  0  0  0  0  0  0  0  0  0  0  0
   56.5040   20.0690   46.7810 C   0  0  0  0  0  0  0  0  0  0  0  0
   55.3860   20.3550   47.5820 C   0  0  0  0  0  0  0  0  0  0  0  0
   54.4410   21.3230   47.1770 C   0  0  0  0  0  0  0  0  0  0  0  0
   54.5970   22.0070   45.9500 C   0  0  0  0  0  0  0  0  0  0  0  0
   53.6700   23.0130   45.5230 N   0  0  0  0  0  0  0  0  0  0  0  0
   53.8870   24.4270   45.6130 C   0  0  0  0  0  0  0  0  0  0  0  0
   52.9700   25.2130   45.2560 O   0  0  0  0  0  0  0  0  0  0  0  0
   55.0880   24.9710   46.1740 N   0  0  0  0  0  0  0  0  0  0  0  0
   56.4310   24.5100   45.8460 C   0  0  0  0  0  0  0  0  0  0  0  0
   57.2560   24.4630   47.0880 C   0  0  0  0  0  0  0  0  0  0  0  0
   57.3840   23.3750   47.7130 O   0  0  0  0  0  0  0  0  0  0  0  0
   57.8360   25.6720   47.5940 N   0  0  0  0  0  0  0  0  0  0  0  0
   58.2940   26.7850   46.8110 C   0  0  0  0  0  0  0  0  0  0  0  0
   59.6610   27.0880   46.8080 C   0  0  0  0  0  0  0  0  0  0  0  0
   60.1430   28.1800   46.0780 C   0  0  0  0  0  0  0  0  0  0  0  0
   59.2570   28.9830   45.3580 C   0  0  0  0  0  0  0  0  0  0  0  0
   57.8840   28.7040   45.3670 C   0  0  0  0  0  0  0  0  0  0  0  0
   56.7750   29.7610   44.4980 S   0  0  0  0  0  0  0  0  0  0  0  0
   55.1470   29.3500   44.9100 N   0  0  0  0  0  0  0  0  0  0  0  0
   56.9620   29.6080   43.0130 O   0  0  0  0  0  0  0  0  0  0  0  0
   57.0460   31.1900   44.8740 O   0  0  0  0  0  0  0  0  0  0  0  0
   57.4020   27.6110   46.1030 C   0  0  0  0  0  0  0  0  0  0  0  0
   55.7330   21.7120   45.1860 C   0  0  0  0  0  0  0  0  0  0  0  0
   55.0575   23.9974   43.7391 H   0  0  0  0  0  0  0  0  0  0  0  0
   56.2969   23.7105   42.4709 H   0  0  0  0  0  0  0  0  0  0  0  0
   54.7746   22.7570   42.4709 H   0  0  0  0  0  0  0  0  0  0  0  0
   57.9837   21.6740   42.8029 H   0  0  0  0  0  0  0  0  0  0  0  0
   58.4660   20.0070   44.7450 H   0  0  0  0  0  0  0  0  0  0  0  0
   57.2430   19.3141   47.0877 H   0  0  0  0  0  0  0  0  0  0  0  0
   55.2455   19.8203   48.5330 H   0  0  0  0  0  0  0  0  0  0  0  0
   53.5775   21.5462   47.8209 H   0  0  0  0  0  0  0  0  0  0  0  0
   56.3760   23.5043   45.4037 H   0  0  0  0  0  0  0  0  0  0  0  0
   56.8911   25.2020   45.1253 H   0  0  0  0  0  0  0  0  0  0  0  0
   60.3604   26.4636   47.3832 H   0  0  0  0  0  0  0  0  0  0  0  0
   61.2196   28.4055   46.0715 H   0  0  0  0  0  0  0  0  0  0  0  0
   59.6383   29.8385   44.7811 H   0  0  0  0  0  0  0  0  0  0  0  0
   55.1960   28.6130   45.6480 H   0  0  0  0  0  0  0  0  0  0  0  0
   56.3228   27.3992   46.1265 H   0  0  0  0  0  0  0  0  0  0  0  0
  1  2  1  0
  2  3  2  0
  3  4  1  0
  4  5  1  0
  5  6  2  0
  6  7  1  0
  7  8  2  0
  8  9  1  0
  9 10  1  0
 10 11  1  0
 11 12  2  0
 11 13  1  0
 13 14  1  0
 14 15  1  0
 15 16  2  0
 15 17  1  0
 17 18  1  0
 18 19  2  0
 19 20  1  0
 20 21  2  0
 21 22  1  0
 22 23  1  0
 23 24  1  0
 23 25  2  0
 23 26  2  0
 22 27  2  0
  9 28  2  0
 28  2  1  0
 28  5  1  0
 27 18  1  0
  1 29  1  0
  1 30  1  0
  1 31  1  0
  3 32  1  0
  4 33  1  0
  6 34  1  0
  7 35  1  0
  8 36  1  0
 14 37  1  0
 14 38  1  0
 19 39  1  0
 20 40  1  0
 21 41  1  0
 24 42  1  0
 27 43  1  0
M  CHG  4  10  -1  13  -1  17  -1  24  -1
M  END
>  <UniqueID>  (50) 
45

>  <SMILES>  (50) 
Cc1c[nH]c2cccc([N-]C(=O)[N-]CC(=O)[N-]c3cccc(S([NH-])(=O)=O)c3)c12

>  <Energy>  (50) 
83.85348617678365

>  <Genealogy>  (50) 
Cc1c[nH]c2cccc([N-]C(=O)[N-]CC(=O)[N-]c3cccc(S([NH-])(=O)=O)c3)c12 (protonated)
Cc1c[nH]c2cccc([N-]C(=O)[N-]CC(=O)[N-]c3cccc(S([NH-])(=O)=O)c3)c12 (3D coordinates assigned)
Cc1c[nH]c2cccc([N-]C(=O)[N-]CC(=O)[N-]c3cccc(S([NH-])(=O)=O)c3)c12 (optimized conformer: 83.85348617678365 kcal/mol)

>  <smiles>  (50) 
Cc1c[nH]c2cccc(NC(=O)NCC(=O)Nc3cccc(S(N)(=O)=O)c3)c12

>  <score_type>  (50) 
oracle

>  <origin>  (50) 
adg

>  <m_score__min__energy>  (50) 
-15.449999999999999

>  <m_primary>  (50) 
energy

$$$$
50:0
     RDKit          3D

 44 46  0  0  0  0  0  0  0  0999 V2000
   66.3030   32.6810   49.7620 C   0  0  0  0  0  0  0  0  0  0  0  0
   64.8990   33.2100   49.8050 C   0  0  0  0  0  0  0  0  0  0  0  0
   64.3810   33.7310   50.9990 C   0  0  0  0  0  0  0  0  0  0  0  0
   63.0680   34.2030   51.0460 C   0  0  0  0  0  0  0  0  0  0  0  0
   62.2570   34.1400   49.9100 C   0  0  0  0  0  0  0  0  0  0  0  0
   62.7480   33.5900   48.7120 C   0  0  0  0  0  0  0  0  0  0  0  0
   61.8690   33.5290   47.5200 C   0  0  0  0  0  0  0  0  0  0  0  0
   62.3800   33.6990   46.3780 O   0  0  0  0  0  0  0  0  0  0  0  0
   60.4580   33.2710   47.6440 N   0  0  0  0  0  0  0  0  0  0  0  0
   59.5380   33.3050   46.5400 C   0  0  0  0  0  0  0  0  0  0  0  0
   59.1940   34.5400   45.9710 C   0  0  0  0  0  0  0  0  0  0  0  0
   58.3230   34.5970   44.8790 C   0  0  0  0  0  0  0  0  0  0  0  0
   57.8030   33.4210   44.3350 C   0  0  0  0  0  0  0  0  0  0  0  0
   58.1610   32.1790   44.8740 C   0  0  0  0  0  0  0  0  0  0  0  0
   57.5430   30.6890   44.1670 S   0  0  0  0  0  0  0  0  0  0  0  0
   57.2830   30.8650   42.6970 O   0  0  0  0  0  0  0  0  0  0  0  0
   56.2540   30.3290   44.8500 O   0  0  0  0  0  0  0  0  0  0  0  0
   58.6830   29.4010   44.3930 N   0  0  0  0  0  0  0  0  0  0  0  0
   58.4150   28.2810   44.9950 C   0  0  0  0  0  0  0  0  0  0  0  0
   59.3760   27.4650   45.7750 C   0  0  0  0  0  0  0  0  0  0  0  0
   58.5460   26.2430   46.2010 C   0  0  0  0  0  0  0  0  0  0  0  0
   57.0930   26.5030   45.7630 C   0  0  0  0  0  0  0  0  0  0  0  0
   57.1200   27.7220   44.9830 N   0  0  0  0  0  0  0  0  0  0  0  0
   59.0280   32.1230   45.9740 C   0  0  0  0  0  0  0  0  0  0  0  0
   64.0780   33.1290   48.6690 C   0  0  0  0  0  0  0  0  0  0  0  0
   66.6738   32.5413   50.7882 H   0  0  0  0  0  0  0  0  0  0  0  0
   66.3154   31.7165   49.2332 H   0  0  0  0  0  0  0  0  0  0  0  0
   66.9488   33.3975   49.2332 H   0  0  0  0  0  0  0  0  0  0  0  0
   65.0103   33.7680   51.9005 H   0  0  0  0  0  0  0  0  0  0  0  0
   62.6706   34.6259   51.9805 H   0  0  0  0  0  0  0  0  0  0  0  0
   61.2269   34.5234   49.9528 H   0  0  0  0  0  0  0  0  0  0  0  0
   60.0690   32.9980   48.5740 H   0  0  0  0  0  0  0  0  0  0  0  0
   59.6119   35.4689   46.3863 H   0  0  0  0  0  0  0  0  0  0  0  0
   58.0468   35.5704   44.4475 H   0  0  0  0  0  0  0  0  0  0  0  0
   57.1108   33.4701   43.4815 H   0  0  0  0  0  0  0  0  0  0  0  0
   60.2307   27.1621   45.1524 H   0  0  0  0  0  0  0  0  0  0  0  0
   59.8064   28.0093   46.6285 H   0  0  0  0  0  0  0  0  0  0  0  0
   58.9308   25.3367   45.7105 H   0  0  0  0  0  0  0  0  0  0  0  0
   58.6043   26.0920   47.2890 H   0  0  0  0  0  0  0  0  0  0  0  0
   56.7233   25.6667   45.1514 H   0  0  0  0  0  0  0  0  0  0  0  0
   56.4228   26.5960   46.6303 H   0  0  0  0  0  0  0  0  0  0  0  0
   56.2840   28.1590   44.5330 H   0  0  0  0  0  0  0  0  0  0  0  0
   59.3113   31.1480   46.3973 H   0  0  0  0  0  0  0  0  0  0  0  0
   64.4771   32.7017   47.7372 H   0  0  0  0  0  0  0  0  0  0  0  0
  1  2  1  0
  2  3  2  0
  3  4  1  0
  4  5  2  0
  5  6  1  0
  6  7  1  0
  7  8  2  0
  7  9  1  0
  9 10  1  0
 10 11  2  0
 11 12  1  0
 12 13  2  0
 13 14  1  0
 14 15  1  0
 15 16  2  0
 15 17  2  0
 15 18  1  0
 18 19  2  3
 19 20  1  0
 20 21  1  0
 21 22  1  0
 22 23  1  0
 14 24  2  0
  6 25  2  0
 25  2  1  0
 24 10  1  0
 23 19  1  0
  1 26  1  0
  1 27  1  0
  1 28  1  0
  3 29  1  0
  4 30  1  0
  5 31  1  0
  9 32  1  0
 11 33  1  0
 12 34  1  0
 13 35  1  0
 20 36  1  0
 20 37  1  0
 21 38  1  0
 21 39  1  0
 22 40  1  0
 22 41  1  0
 23 42  1  0
 24 43  1  0
 25 44  1  0
M  END
>  <UniqueID>  (51) 
46

>  <SMILES>  (51) 
Cc1cccc(C(=O)Nc2cccc(S(=O)(=O)N=C3CCCN3)c2)c1

>  <Energy>  (51) 
59.22975038697736

>  <Genealogy>  (51) 
Cc1cccc(C(=O)Nc2cccc(S(=O)(=O)N=C3CCCN3)c2)c1 (3D coordinates assigned)
Cc1cccc(C(=O)Nc2cccc(S(=O)(=O)N=C3CCCN3)c2)c1 (nonaromatic ring conformer: 59.22975038697736 kcal/mol)

>  <smiles>  (51) 
Cc1cccc(C(=O)Nc2cccc(S(=O)(=O)N=C3CCCN3)c2)c1

>  <score_type>  (51) 
oracle

>  <origin>  (51) 
adg

>  <m_score__min__energy>  (51) 
-9.5399999999999991

>  <m_primary>  (51) 
energy

$$$$
51:0
     RDKit          3D

 39 41  0  0  0  0  0  0  0  0999 V2000
   57.4890   27.3030   46.9830 O   0  0  0  0  0  0  0  0  0  0  0  0
   57.0090   27.0240   45.8490 C   0  0  0  0  0  0  0  0  0  0  0  0
   57.0810   27.9880   44.7830 N   0  0  0  0  0  0  0  0  0  0  0  0
   57.4060   29.3740   44.9790 C   0  0  0  0  0  0  0  0  0  0  0  0
   58.3380   29.7810   45.9510 C   0  0  0  0  0  0  0  0  0  0  0  0
   58.6230   31.1380   46.1330 C   0  0  0  0  0  0  0  0  0  0  0  0
   57.9700   32.1050   45.3580 C   0  0  0  0  0  0  0  0  0  0  0  0
   58.3190   33.8170   45.5740 S   0  0  0  0  0  0  0  0  0  0  0  0
   57.0290   34.5840   45.5370 O   0  0  0  0  0  0  0  0  0  0  0  0
   59.2180   34.3260   44.4810 O   0  0  0  0  0  0  0  0  0  0  0  0
   59.0890   34.0710   47.1070 N   0  0  0  0  0  0  0  0  0  0  0  0
   60.4740   33.8200   47.3920 C   0  0  0  0  0  0  0  0  0  0  0  0
   61.4550   33.8390   46.3810 C   0  0  0  0  0  0  0  0  0  0  0  0
   62.7950   33.5930   46.6940 C   0  0  0  0  0  0  0  0  0  0  0  0
   63.1700   33.3310   48.0130 C   0  0  0  0  0  0  0  0  0  0  0  0
   62.2050   33.3100   49.0230 C   0  0  0  0  0  0  0  0  0  0  0  0
   60.8610   33.5510   48.7160 C   0  0  0  0  0  0  0  0  0  0  0  0
   59.6720   33.5180   50.0130 Cl  0  0  0  0  0  0  0  0  0  0  0  0
   57.0240   31.7070   44.4060 C   0  0  0  0  0  0  0  0  0  0  0  0
   56.7390   30.3510   44.2230 C   0  0  0  0  0  0  0  0  0  0  0  0
   56.4190   25.6900   45.6110 C   0  0  0  0  0  0  0  0  0  0  0  0
   57.1580   24.6700   44.9860 C   0  0  0  0  0  0  0  0  0  0  0  0
   56.5670   23.4220   44.7750 C   0  0  0  0  0  0  0  0  0  0  0  0
   55.2510   23.1980   45.1850 C   0  0  0  0  0  0  0  0  0  0  0  0
   54.5450   24.2290   45.8060 C   0  0  0  0  0  0  0  0  0  0  0  0
   55.1380   25.4370   46.0030 N   0  0  0  0  0  0  0  0  0  0  0  0
   56.9870   27.6460   43.8000 H   0  0  0  0  0  0  0  0  0  0  0  0
   58.8455   29.0276   46.5714 H   0  0  0  0  0  0  0  0  0  0  0  0
   59.3621   31.4469   46.8869 H   0  0  0  0  0  0  0  0  0  0  0  0
   61.1652   34.0483   45.3407 H   0  0  0  0  0  0  0  0  0  0  0  0
   63.5555   33.6059   45.8994 H   0  0  0  0  0  0  0  0  0  0  0  0
   64.2256   33.1410   48.2571 H   0  0  0  0  0  0  0  0  0  0  0  0
   62.5022   33.1036   50.0618 H   0  0  0  0  0  0  0  0  0  0  0  0
   56.5035   32.4635   43.8003 H   0  0  0  0  0  0  0  0  0  0  0  0
   55.9862   30.0469   43.4808 H   0  0  0  0  0  0  0  0  0  0  0  0
   58.1941   24.8535   44.6655 H   0  0  0  0  0  0  0  0  0  0  0  0
   57.1369   22.6176   44.2870 H   0  0  0  0  0  0  0  0  0  0  0  0
   54.7762   22.2195   45.0202 H   0  0  0  0  0  0  0  0  0  0  0  0
   53.5087   24.0647   46.1363 H   0  0  0  0  0  0  0  0  0  0  0  0
  1  2  2  0
  2  3  1  0
  3  4  1  0
  4  5  2  0
  5  6  1  0
  6  7  2  0
  7  8  1  0
  8  9  2  0
  8 10  2  0
  8 11  1  0
 11 12  1  0
 12 13  2  0
 13 14  1  0
 14 15  2  0
 15 16  1  0
 16 17  2  0
 17 18  1  0
  7 19  1  0
 19 20  2  0
  2 21  1  0
 21 22  2  0
 22 23  1  0
 23 24  2  0
 24 25  1  0
 25 26  2  0
 20  4  1  0
 26 21  1  0
 17 12  1  0
  3 27  1  0
  5 28  1  0
  6 29  1  0
 13 30  1  0
 14 31  1  0
 15 32  1  0
 16 33  1  0
 19 34  1  0
 20 35  1  0
 22 36  1  0
 23 37  1  0
 24 38  1  0
 25 39  1  0
M  CHG  1  11  -1
M  END
>  <UniqueID>  (52) 
47

>  <SMILES>  (52) 
O=C(Nc1ccc(S(=O)(=O)[N-]c2ccccc2Cl)cc1)c1ccccn1

>  <Energy>  (52) 
50.08906763291696

>  <Genealogy>  (52) 
O=C(Nc1ccc(S(=O)(=O)[N-]c2ccccc2Cl)cc1)c1ccccn1 (protonated)
O=C(Nc1ccc(S(=O)(=O)[N-]c2ccccc2Cl)cc1)c1ccccn1 (3D coordinates assigned)
O=C(Nc1ccc(S(=O)(=O)[N-]c2ccccc2Cl)cc1)c1ccccn1 (optimized conformer: 50.08906763291696 kcal/mol)

>  <smiles>  (52) 
O=C(Nc1ccc(S(=O)(=O)Nc2ccccc2Cl)cc1)c1ccccn1

>  <score_type>  (52) 
oracle

>  <origin>  (52) 
adg

>  <m_score__min__energy>  (52) 
-9.9100000000000001

>  <m_primary>  (52) 
energy

$$$$
52:0
     RDKit          3D

 37 39  0  0  0  0  0  0  0  0999 V2000
   59.1130   29.2790   45.7750 O   0  0  0  0  0  0  0  0  0  0  0  0
   57.9080   29.2290   45.4050 C   0  0  0  0  0  0  0  0  0  0  0  0
   57.2460   27.9650   45.2440 N   0  0  0  0  0  0  0  0  0  0  0  0
   57.8330   26.7000   45.5930 C   0  0  0  0  0  0  0  0  0  0  0  0
   58.9750   26.6530   46.1270 O   0  0  0  0  0  0  0  0  0  0  0  0
   57.1130   25.4420   45.3010 C   0  0  0  0  0  0  0  0  0  0  0  0
   57.8460   24.3380   44.8310 C   0  0  0  0  0  0  0  0  0  0  0  0
   57.2170   23.1140   44.6000 C   0  0  0  0  0  0  0  0  0  0  0  0
   55.8510   22.9730   44.8400 C   0  0  0  0  0  0  0  0  0  0  0  0
   55.1020   24.0610   45.2980 C   0  0  0  0  0  0  0  0  0  0  0  0
   53.3770   23.8600   45.5700 Cl  0  0  0  0  0  0  0  0  0  0  0  0
   55.7190   25.3040   45.5180 C   0  0  0  0  0  0  0  0  0  0  0  0
   54.9220   26.3800   45.9170 O   0  0  0  0  0  0  0  0  0  0  0  0
   57.1950   30.4410   45.1270 N   0  0  0  0  0  0  0  0  0  0  0  0
   57.7680   31.7350   45.3560 C   0  0  0  0  0  0  0  0  0  0  0  0
   58.1260   32.1020   46.6600 C   0  0  0  0  0  0  0  0  0  0  0  0
   58.6690   33.3630   46.9160 C   0  0  0  0  0  0  0  0  0  0  0  0
   58.8730   34.2620   45.8670 C   0  0  0  0  0  0  0  0  0  0  0  0
   58.5450   33.8970   44.5590 C   0  0  0  0  0  0  0  0  0  0  0  0
   58.0020   32.6340   44.2930 C   0  0  0  0  0  0  0  0  0  0  0  0
   57.7610   32.2560   42.9370 N   0  0  0  0  0  0  0  0  0  0  0  0
   57.9650   32.3560   41.4600 C   0  0  0  0  0  0  0  0  0  0  0  0
   57.0290   31.4530   41.9130 C   0  0  0  0  0  0  0  0  0  0  0  0
   56.2620   27.9740   44.8910 H   0  0  0  0  0  0  0  0  0  0  0  0
   58.9251   24.4401   44.6437 H   0  0  0  0  0  0  0  0  0  0  0  0
   57.8001   22.2588   44.2278 H   0  0  0  0  0  0  0  0  0  0  0  0
   55.3612   22.0031   44.6686 H   0  0  0  0  0  0  0  0  0  0  0  0
   54.0320   26.2690   46.3840 H   0  0  0  0  0  0  0  0  0  0  0  0
   56.3110   30.3830   44.5720 H   0  0  0  0  0  0  0  0  0  0  0  0
   57.9784   31.3924   47.4874 H   0  0  0  0  0  0  0  0  0  0  0  0
   58.9361   33.6482   47.9443 H   0  0  0  0  0  0  0  0  0  0  0  0
   59.2923   35.2583   46.0708 H   0  0  0  0  0  0  0  0  0  0  0  0
   58.7141   34.6050   43.7343 H   0  0  0  0  0  0  0  0  0  0  0  0
   57.6342   33.2591   40.9261 H   0  0  0  0  0  0  0  0  0  0  0  0
   58.8449   32.2785   40.8045 H   0  0  0  0  0  0  0  0  0  0  0  0
   55.9603   31.6442   41.7358 H   0  0  0  0  0  0  0  0  0  0  0  0
   56.8726   30.3752   41.7586 H   0  0  0  0  0  0  0  0  0  0  0  0
  1  2  2  0
  2  3  1  0
  3  4  1  0
  4  5  2  0
  4  6  1  0
  6  7  2  0
  7  8  1  0
  8  9  2  0
  9 10  1  0
 10 11  1  0
 10 12  2  0
 12 13  1  0
  2 14  1  0
 14 15  1  0
 15 16  2  0
 16 17  1  0
 17 18  2  0
 18 19  1  0
 19 20  2  0
 20 21  1  0
 21 22  1  0
 22 23  1  0
 12  6  1  0
 20 15  1  0
 23 21  1  0
  3 24  1  0
  7 25  1  0
  8 26  1  0
  9 27  1  0
 13 28  1  0
 14 29  1  0
 16 30  1  0
 17 31  1  0
 18 32  1  0
 19 33  1  0
 22 34  1  0
 22 35  1  0
 23 36  1  0
 23 37  1  0
M  END
>  <UniqueID>  (53) 
48

>  <SMILES>  (53) 
O=C(NC(=O)c1cccc(Cl)c1O)Nc1ccccc1N1CC1

>  <Energy>  (53) 
280.9514511902804

>  <Genealogy>  (53) 
O=C(NC(=O)c1cccc(Cl)c1O)Nc1ccccc1N1CC1 (3D coordinates assigned)
O=C(NC(=O)c1cccc(Cl)c1O)Nc1ccccc1N1CC1 (nonaromatic ring conformer: 280.9514511902804 kcal/mol)

>  <smiles>  (53) 
O=C(NC(=O)c1cccc(Cl)c1O)Nc1ccccc1N1CC1

>  <score_type>  (53) 
oracle

>  <origin>  (53) 
adg

>  <m_score__min__energy>  (53) 
-9.4900000000000002

>  <m_primary>  (53) 
energy

$$$$
53:0
     RDKit          3D

 65 69  0  0  0  0  0  0  0  0999 V2000
   64.5770   30.6240   52.5480 C   0  0  0  0  0  0  0  0  0  0  0  0
   63.2820   31.1930   52.7250 O   0  0  0  0  0  0  0  0  0  0  0  0
   62.1850   30.9450   51.8870 C   0  0  0  0  0  0  0  0  0  0  0  0
   62.4300   30.4570   50.5980 C   0  0  0  0  0  0  0  0  0  0  0  0
   61.3730   30.2210   49.7160 C   0  0  0  0  0  0  0  0  0  0  0  0
   60.0490   30.4520   50.1220 C   0  0  0  0  0  0  0  0  0  0  0  0
   58.9100   30.2090   49.1710 C   0  0  0  0  0  0  0  0  0  0  0  0
   59.3850   29.8420   47.7580 C   0  0  0  0  0  0  0  0  0  0  0  0
   58.9880   30.8500   46.7610 N   0  0  0  0  0  0  0  0  0  0  0  0
   58.7890   30.6610   45.4360 C   0  0  0  0  0  0  0  0  0  0  0  0
   58.9590   29.3680   44.6730 C   0  0  0  0  0  0  0  0  0  0  0  0
   58.1040   28.2410   45.2340 C   0  0  0  0  0  0  0  0  0  0  0  0
   56.6800   28.2600   45.1760 C   0  0  0  0  0  0  0  0  0  0  0  0
   55.8870   29.4170   44.7140 C   0  0  0  0  0  0  0  0  0  0  0  0
   54.7960   29.7220   45.2640 O   0  0  0  0  0  0  0  0  0  0  0  0
   56.2990   30.1220   43.5890 O   0  0  0  0  0  0  0  0  0  0  0  0
   55.9790   27.1610   45.5650 N   0  0  0  0  0  0  0  0  0  0  0  0
   56.5690   26.0470   46.0620 C   0  0  0  0  0  0  0  0  0  0  0  0
   55.7820   24.9530   46.4420 C   0  0  0  0  0  0  0  0  0  0  0  0
   56.3830   23.8080   46.9710 C   0  0  0  0  0  0  0  0  0  0  0  0
   57.7730   23.7510   47.1230 C   0  0  0  0  0  0  0  0  0  0  0  0
   58.5640   24.8440   46.7560 C   0  0  0  0  0  0  0  0  0  0  0  0
   57.9680   26.0030   46.2210 C   0  0  0  0  0  0  0  0  0  0  0  0
   58.7300   27.1190   45.8280 C   0  0  0  0  0  0  0  0  0  0  0  0
   59.9780   27.1170   46.0140 O   0  0  0  0  0  0  0  0  0  0  0  0
   58.4950   31.8760   44.8590 C   0  0  0  0  0  0  0  0  0  0  0  0
   58.5090   32.8340   45.8030 N   0  0  0  0  0  0  0  0  0  0  0  0
   58.7950   32.1820   46.9520 C   0  0  0  0  0  0  0  0  0  0  0  0
   59.0520   32.9210   48.2430 C   0  0  0  0  0  0  0  0  0  0  0  0
   59.9420   34.1570   48.0320 C   0  0  0  0  0  0  0  0  0  0  0  0
   61.4010   33.7970   48.1550 C   0  0  0  0  0  0  0  0  0  0  0  0
   62.0970   33.2640   47.0550 C   0  0  0  0  0  0  0  0  0  0  0  0
   63.4440   32.9130   47.1770 C   0  0  0  0  0  0  0  0  0  0  0  0
   64.1040   33.0770   48.3980 C   0  0  0  0  0  0  0  0  0  0  0  0
   63.4170   33.5970   49.5020 C   0  0  0  0  0  0  0  0  0  0  0  0
   64.2430   33.7940   51.0390 Cl  0  0  0  0  0  0  0  0  0  0  0  0
   62.0730   33.9600   49.3780 C   0  0  0  0  0  0  0  0  0  0  0  0
   59.7980   30.9280   51.4190 C   0  0  0  0  0  0  0  0  0  0  0  0
   60.8570   31.1740   52.2960 C   0  0  0  0  0  0  0  0  0  0  0  0
   65.0280   30.4258   53.5315 H   0  0  0  0  0  0  0  0  0  0  0  0
   64.4899   29.6813   51.9879 H   0  0  0  0  0  0  0  0  0  0  0  0
   65.2124   31.3258   51.9879 H   0  0  0  0  0  0  0  0  0  0  0  0
   63.4632   30.2578   50.2772 H   0  0  0  0  0  0  0  0  0  0  0  0
   61.5786   29.8530   48.7000 H   0  0  0  0  0  0  0  0  0  0  0  0
   58.2960   29.3839   49.5611 H   0  0  0  0  0  0  0  0  0  0  0  0
   58.3353   31.1439   49.0956 H   0  0  0  0  0  0  0  0  0  0  0  0
   60.4820   29.7605   47.7626 H   0  0  0  0  0  0  0  0  0  0  0  0
   58.9150   28.8871   47.4800 H   0  0  0  0  0  0  0  0  0  0  0  0
   58.6742   29.5377   43.6242 H   0  0  0  0  0  0  0  0  0  0  0  0
   60.0123   29.0638   44.7631 H   0  0  0  0  0  0  0  0  0  0  0  0
   54.6892   24.9951   46.3239 H   0  0  0  0  0  0  0  0  0  0  0  0
   55.7625   22.9498   47.2685 H   0  0  0  0  0  0  0  0  0  0  0  0
   58.2440   22.8449   47.5318 H   0  0  0  0  0  0  0  0  0  0  0  0
   59.6554   24.7988   46.8855 H   0  0  0  0  0  0  0  0  0  0  0  0
   58.2818   32.0380   43.7921 H   0  0  0  0  0  0  0  0  0  0  0  0
   58.0890   33.2447   48.6647 H   0  0  0  0  0  0  0  0  0  0  0  0
   59.5764   32.2376   48.9271 H   0  0  0  0  0  0  0  0  0  0  0  0
   59.7558   34.5678   47.0287 H   0  0  0  0  0  0  0  0  0  0  0  0
   59.6976   34.9018   48.8037 H   0  0  0  0  0  0  0  0  0  0  0  0
   61.5789   33.1229   46.0950 H   0  0  0  0  0  0  0  0  0  0  0  0
   63.9860   32.5068   46.3103 H   0  0  0  0  0  0  0  0  0  0  0  0
   65.1637   32.7975   48.4919 H   0  0  0  0  0  0  0  0  0  0  0  0
   61.5376   34.3762   50.2441 H   0  0  0  0  0  0  0  0  0  0  0  0
   58.7632   31.1079   51.7457 H   0  0  0  0  0  0  0  0  0  0  0  0
   60.6529   31.5481   53.3101 H   0  0  0  0  0  0  0  0  0  0  0  0
  1  2  1  0
  2  3  1  0
  3  4  2  0
  4  5  1  0
  5  6  2  0
  6  7  1  0
  7  8  1  0
  8  9  1  0
  9 10  1  0
 10 11  1  0
 11 12  1  0
 12 13  2  0
 13 14  1  0
 14 15  2  0
 14 16  1  0
 13 17  1  0
 17 18  1  0
 18 19  2  0
 19 20  1  0
 20 21  2  0
 21 22  1  0
 22 23  2  0
 23 24  1  0
 24 25  2  0
 10 26  2  0
 26 27  1  0
 27 28  2  0
 28 29  1  0
 29 30  1  0
 30 31  1  0
 31 32  2  0
 32 33  1  0
 33 34  2  0
 34 35  1  0
 35 36  1  0
 35 37  2  0
  6 38  1  0
 38 39  2  0
 39  3  1  0
 28  9  1  0
 37 31  1  0
 24 12  1  0
 23 18  1  0
  1 40  1  0
  1 41  1  0
  1 42  1  0
  4 43  1  0
  5 44  1  0
  7 45  1  0
  7 46  1  0
  8 47  1  0
  8 48  1  0
 11 49  1  0
 11 50  1  0
 19 51  1  0
 20 52  1  0
 21 53  1  0
 22 54  1  0
 26 55  1  0
 29 56  1  0
 29 57  1  0
 30 58  1  0
 30 59  1  0
 32 60  1  0
 33 61  1  0
 34 62  1  0
 37 63  1  0
 38 64  1  0
 39 65  1  0
M  CHG  2  16  -1  17  -1
M  END
>  <UniqueID>  (54) 
49

>  <SMILES>  (54) 
COc1ccc(CCn2c(Cc3c(C(=O)[O-])[n-]c4ccccc4c3=O)cnc2CCc2cccc(Cl)c2)cc1

>  <Energy>  (54) 
102.48978634546174

>  <Genealogy>  (54) 
COc1ccc(CCn2c(Cc3c(C(=O)[O-])[n-]c4ccccc4c3=O)cnc2CCc2cccc(Cl)c2)cc1 (protonated)
COc1ccc(CCn2c(Cc3c(C(=O)[O-])[n-]c4ccccc4c3=O)cnc2CCc2cccc(Cl)c2)cc1 (3D coordinates assigned)
COc1ccc(CCn2c(Cc3c(C(=O)[O-])[n-]c4ccccc4c3=O)cnc2CCc2cccc(Cl)c2)cc1 (optimized conformer: 102.48978634546174 kcal/mol)

>  <smiles>  (54) 
COc1ccc(CCn2c(Cc3c(C(=O)O)[nH]c4ccccc4c3=O)cnc2CCc2cccc(Cl)c2)cc1

>  <score_type>  (54) 
oracle

>  <origin>  (54) 
adg

>  <m_score__min__energy>  (54) 
-13.27

>  <m_primary>  (54) 
energy

$$$$
54:0
     RDKit          3D

 37 39  0  0  0  0  0  0  0  0999 V2000
   61.2940   30.2000   47.5810 O   0  0  0  0  0  0  0  0  0  0  0  0
   60.3830   29.8530   46.7850 C   0  0  0  0  0  0  0  0  0  0  0  0
   60.1330   28.4570   46.5860 N   0  0  0  0  0  0  0  0  0  0  0  0
   58.8480   27.8530   46.3840 C   0  0  0  0  0  0  0  0  0  0  0  0
   58.4950   26.7390   47.1540 C   0  0  0  0  0  0  0  0  0  0  0  0
   57.2410   26.1400   47.0020 C   0  0  0  0  0  0  0  0  0  0  0  0
   56.3070   26.6730   46.0960 C   0  0  0  0  0  0  0  0  0  0  0  0
   55.0200   26.0710   45.9010 N   0  0  0  0  0  0  0  0  0  0  0  0
   54.7710   24.6930   45.5950 C   0  0  0  0  0  0  0  0  0  0  0  0
   53.8050   24.1120   46.1540 O   0  0  0  0  0  0  0  0  0  0  0  0
   55.6450   23.9190   44.6960 C   0  0  0  0  0  0  0  0  0  0  0  0
   57.0230   23.8190   44.7670 C   0  0  0  0  0  0  0  0  0  0  0  0
   57.3880   22.9780   43.7380 C   0  0  0  0  0  0  0  0  0  0  0  0
   56.2170   22.6120   43.1080 C   0  0  0  0  0  0  0  0  0  0  0  0
   55.1960   23.1850   43.7030 O   0  0  0  0  0  0  0  0  0  0  0  0
   56.6590   27.7880   45.3260 C   0  0  0  0  0  0  0  0  0  0  0  0
   57.9140   28.3860   45.4790 C   0  0  0  0  0  0  0  0  0  0  0  0
   59.6780   30.8430   46.0200 N   0  0  0  0  0  0  0  0  0  0  0  0
   59.6620   32.2400   46.3550 C   0  0  0  0  0  0  0  0  0  0  0  0
   60.8520   32.8610   46.7650 C   0  0  0  0  0  0  0  0  0  0  0  0
   60.8680   34.2220   47.0830 C   0  0  0  0  0  0  0  0  0  0  0  0
   59.6980   34.9780   46.9780 C   0  0  0  0  0  0  0  0  0  0  0  0
   58.5130   34.3770   46.5470 C   0  0  0  0  0  0  0  0  0  0  0  0
   58.4910   33.0140   46.2280 C   0  0  0  0  0  0  0  0  0  0  0  0
   57.3440   32.4690   45.7510 F   0  0  0  0  0  0  0  0  0  0  0  0
   59.2096   26.3316   47.8843 H   0  0  0  0  0  0  0  0  0  0  0  0
   56.9841   25.2487   47.5932 H   0  0  0  0  0  0  0  0  0  0  0  0
   57.6885   24.3086   45.4932 H   0  0  0  0  0  0  0  0  0  0  0  0
   58.4078   22.6623   43.4726 H   0  0  0  0  0  0  0  0  0  0  0  0
   56.1485   21.9415   42.2386 H   0  0  0  0  0  0  0  0  0  0  0  0
   55.9442   28.1962   44.5963 H   0  0  0  0  0  0  0  0  0  0  0  0
   58.1713   29.2776   44.8883 H   0  0  0  0  0  0  0  0  0  0  0  0
   59.2760   30.5530   45.1000 H   0  0  0  0  0  0  0  0  0  0  0  0
   61.7786   32.2725   46.8366 H   0  0  0  0  0  0  0  0  0  0  0  0
   61.8021   34.6979   47.4160 H   0  0  0  0  0  0  0  0  0  0  0  0
   59.7099   36.0475   47.2349 H   0  0  0  0  0  0  0  0  0  0  0  0
   57.5948   34.9762   46.4580 H   0  0  0  0  0  0  0  0  0  0  0  0
  1  2  2  0
  2  3  1  0
  3  4  1  0
  4  5  2  0
  5  6  1  0
  6  7  2  0
  7  8  1  0
  8  9  1  0
  9 10  2  0
  9 11  1  0
 11 12  2  0
 12 13  1  0
 13 14  2  0
 14 15  1  0
  7 16  1  0
 16 17  2  0
  2 18  1  0
 18 19  1  0
 19 20  2  0
 20 21  1  0
 21 22  2  0
 22 23  1  0
 23 24  2  0
 24 25  1  0
 17  4  1  0
 24 19  1  0
 15 11  1  0
  5 26  1  0
  6 27  1  0
 12 28  1  0
 13 29  1  0
 14 30  1  0
 16 31  1  0
 17 32  1  0
 18 33  1  0
 20 34  1  0
 21 35  1  0
 22 36  1  0
 23 37  1  0
M  CHG  2   3  -1   8  -1
M  END
>  <UniqueID>  (55) 
50

>  <SMILES>  (55) 
O=C([N-]c1ccc([N-]C(=O)c2ccco2)cc1)Nc1ccccc1F

>  <Energy>  (55) 
78.72219182379273

>  <Genealogy>  (55) 
O=C([N-]c1ccc([N-]C(=O)c2ccco2)cc1)Nc1ccccc1F (protonated)
O=C([N-]c1ccc([N-]C(=O)c2ccco2)cc1)Nc1ccccc1F (3D coordinates assigned)
O=C([N-]c1ccc([N-]C(=O)c2ccco2)cc1)Nc1ccccc1F (optimized conformer: 78.72219182379273 kcal/mol)

>  <smiles>  (55) 
O=C(Nc1ccc(NC(=O)c2ccco2)cc1)Nc1ccccc1F

>  <score_type>  (55) 
oracle

>  <origin>  (55) 
adg

>  <m_score__min__energy>  (55) 
-10.109999999999999

>  <m_primary>  (55) 
energy

$$$$
55:0
     RDKit          3D

 46 50  0  0  0  0  0  0  0  0999 V2000
   66.0510   32.5590   48.6620 H   0  0  0  0  0  0  0  0  0  0  0  0
   65.8350   33.1320   49.4410 O   0  0  0  0  0  0  0  0  0  0  0  0
   64.9500   32.1440   50.4730 S   0  0  0  0  0  0  0  0  0  0  0  0
   63.2570   32.1020   50.0150 C   0  0  0  0  0  0  0  0  0  0  0  0
   62.3210   32.8760   50.7090 C   0  0  0  0  0  0  0  0  0  0  0  0
   62.6480   33.5242   51.5353 H   0  0  0  0  0  0  0  0  0  0  0  0
   60.9710   32.8260   50.3530 C   0  0  0  0  0  0  0  0  0  0  0  0
   60.2348   33.4279   50.9058 H   0  0  0  0  0  0  0  0  0  0  0  0
   60.5540   32.0120   49.2950 C   0  0  0  0  0  0  0  0  0  0  0  0
   59.4879   31.9630   49.0283 H   0  0  0  0  0  0  0  0  0  0  0  0
   61.4940   31.2550   48.5700 C   0  0  0  0  0  0  0  0  0  0  0  0
   61.1050   30.3810   47.4960 N   0  0  0  0  0  0  0  0  0  0  0  0
   59.9790   30.3990   46.8450 C   0  0  0  0  0  0  0  0  0  0  0  0
   59.4230   29.2530   46.3630 N   0  0  0  0  0  0  0  0  0  0  0  0
   58.2390   29.3350   45.7160 C   0  0  0  0  0  0  0  0  0  0  0  0
   57.5180   28.3120   45.1480 C   0  0  0  0  0  0  0  0  0  0  0  0
   57.8590   27.0160   45.0900 C   0  0  0  0  0  0  0  0  0  0  0  0
   58.6317   26.7171   44.3664 H   0  0  0  0  0  0  0  0  0  0  0  0
   57.2620   25.9690   45.9360 C   0  0  0  0  0  0  0  0  0  0  0  0
   57.9850   25.0090   46.5400 N   0  0  0  0  0  0  0  0  0  0  0  0
   57.0660   24.3300   47.2610 C   0  0  0  0  0  0  0  0  0  0  0  0
   57.3620   23.3320   47.9660 O   0  0  0  0  0  0  0  0  0  0  0  0
   55.8080   24.8120   47.1750 N   0  0  0  0  0  0  0  0  0  0  0  0
   55.9500   25.8570   46.3420 C   0  0  0  0  0  0  0  0  0  0  0  0
   54.9110   26.7150   46.0060 O   0  0  0  0  0  0  0  0  0  0  0  0
   56.4080   28.9560   44.6110 C   0  0  0  0  0  0  0  0  0  0  0  0
   55.5916   28.4635   44.0624 H   0  0  0  0  0  0  0  0  0  0  0  0
   56.4880   30.2820   44.8680 N   0  0  0  0  0  0  0  0  0  0  0  0
   57.6020   30.5030   45.5440 N   0  0  0  0  0  0  0  0  0  0  0  0
   58.1330   31.6710   46.0290 C   0  0  0  0  0  0  0  0  0  0  0  0
   57.5950   32.8630   45.9250 N   0  0  0  0  0  0  0  0  0  0  0  0
   57.9350   34.3000   45.9060 C   0  0  0  0  0  0  0  0  0  0  0  0
   56.8827   34.6040   45.8044 H   0  0  0  0  0  0  0  0  0  0  0  0
   59.0930   34.7570   46.7640 C   0  0  0  0  0  0  0  0  0  0  0  0
   59.0468   35.7260   47.2825 H   0  0  0  0  0  0  0  0  0  0  0  0
   59.6533   34.3335   47.6106 H   0  0  0  0  0  0  0  0  0  0  0  0
   59.2240   34.7070   45.2320 C   0  0  0  0  0  0  0  0  0  0  0  0
   59.2722   35.6403   44.6518 H   0  0  0  0  0  0  0  0  0  0  0  0
   59.9180   34.2327   44.5225 H   0  0  0  0  0  0  0  0  0  0  0  0
   59.3270   31.5870   46.6810 N   0  0  0  0  0  0  0  0  0  0  0  0
   62.8410   31.2860   48.9570 C   0  0  0  0  0  0  0  0  0  0  0  0
   63.5763   30.6644   48.4251 H   0  0  0  0  0  0  0  0  0  0  0  0
   65.1670   32.6070   52.1760 C   0  0  0  0  0  0  0  0  0  0  0  0
   64.7902   31.8031   52.8254 H   0  0  0  0  0  0  0  0  0  0  0  0
   66.2358   32.7710   52.3781 H   0  0  0  0  0  0  0  0  0  0  0  0
   64.6093   33.5333   52.3781 H   0  0  0  0  0  0  0  0  0  0  0  0
  1  2  1  0
  3  2  1  6
  3  4  1  0
  4  5  2  0
  5  6  1  0
  5  7  1  0
  7  8  1  0
  7  9  2  0
  9 10  1  0
  9 11  1  0
 11 12  1  0
 12 13  2  0
 13 14  1  0
 14 15  2  0
 15 16  1  0
 16 17  2  0
 17 18  1  0
 17 19  1  0
 19 20  1  0
 20 21  1  0
 21 22  2  0
 21 23  1  0
 23 24  1  0
 24 25  1  0
 16 26  1  0
 26 27  1  0
 26 28  2  0
 28 29  1  0
 29 30  1  0
 30 31  2  3
 31 32  1  0
 32 33  1  0
 32 34  1  0
 34 35  1  0
 34 36  1  0
 34 37  1  0
 37 38  1  0
 37 39  1  0
 30 40  1  0
 11 41  2  0
 41 42  1  0
  3 43  1  0
 43 44  1  0
 43 45  1  0
 43 46  1  0
 41  4  1  0
 40 13  1  0
 29 15  1  0
 37 32  1  0
 24 19  2  0
M  CHG  5   3   1  20  -1  23  -1  25  -1  40  -1
M  END
>  <UniqueID>  (56) 
51

>  <SMILES>  (56) 
C[S@+](O)c1cccc(/N=c2\nc3/c(=C/c4[n-]c(=O)[n-]c4[O-])cnn3c(=NC3CC3)[n-]2)c1

>  <Energy>  (56) 
417.27143642057337

>  <Genealogy>  (56) 
C[S+](O)c1cccc(N=c2nc3c(=Cc4[n-]c(=O)[n-]c4[O-])cnn3c(=NC3CC3)[n-]2)c1 (protonated)
C[S@+](O)c1cccc(N=c2nc3c(=Cc4[n-]c(=O)[n-]c4[O-])cnn3c(=NC3CC3)[n-]2)c1 (chirality)
C[S@+](O)c1cccc(/N=c2\nc3/c(=C/c4[n-]c(=O)[n-]c4[O-])cnn3c(=NC3CC3)[n-]2)c1 (cis-trans isomerization)
C[S@+](O)c1cccc(/N=c2\nc3/c(=C/c4[n-]c(=O)[n-]c4[O-])cnn3c(=NC3CC3)[n-]2)c1 (3D coordinates assigned)
C[S@+](O)c1cccc(/N=c2\nc3/c(=C/c4[n-]c(=O)[n-]c4[O-])cnn3c(=NC3CC3)[n-]2)c1 (nonaromatic ring conformer: 417.27143642057337 kcal/mol)

>  <smiles>  (56) 
C[S+]([O-])c1cccc(N=c2nc3c(=Cc4[nH]c(=O)[nH]c4O)cnn3c(=NC3CC3)[nH]2)c1

>  <score_type>  (56) 
oracle

>  <origin>  (56) 
adg

>  <m_score__min__energy>  (56) 
-16.66

>  <m_primary>  (56) 
energy

$$$$
56:0
     RDKit          3D

 48 50  0  0  0  0  0  0  0  0999 V2000
   58.9105   35.9987   47.3769 H   0  0  0  0  0  0  0  0  0  0  0  0
   59.2980   34.9760   47.2590 C   0  0  0  0  0  0  0  0  0  0  0  0
   60.2000   34.5490   48.1570 C   0  0  0  0  0  0  0  0  0  0  0  0
   60.1560   34.9834   49.1667 H   0  0  0  0  0  0  0  0  0  0  0  0
   61.2500   33.5380   47.8930 C   0  0  0  0  0  0  0  0  0  0  0  0
   62.5830   33.9660   47.8130 C   0  0  0  0  0  0  0  0  0  0  0  0
   62.8245   35.0296   47.9561 H   0  0  0  0  0  0  0  0  0  0  0  0
   63.6060   33.0520   47.5530 C   0  0  0  0  0  0  0  0  0  0  0  0
   64.6470   33.3992   47.4774 H   0  0  0  0  0  0  0  0  0  0  0  0
   63.3090   31.6990   47.3890 C   0  0  0  0  0  0  0  0  0  0  0  0
   64.1149   30.9820   47.1736 H   0  0  0  0  0  0  0  0  0  0  0  0
   61.9890   31.2530   47.4980 C   0  0  0  0  0  0  0  0  0  0  0  0
   61.7619   30.1841   47.3720 H   0  0  0  0  0  0  0  0  0  0  0  0
   60.9470   32.1620   47.7680 C   0  0  0  0  0  0  0  0  0  0  0  0
   59.6200   31.7350   47.9310 O   0  0  0  0  0  0  0  0  0  0  0  0
   59.0960   30.5120   47.4270 C   0  0  0  0  0  0  0  0  0  0  0  0
   58.8163   29.8591   48.2670 H   0  0  0  0  0  0  0  0  0  0  0  0
   58.2077   30.7194   46.8122 H   0  0  0  0  0  0  0  0  0  0  0  0
   59.8589   30.0119   46.8122 H   0  0  0  0  0  0  0  0  0  0  0  0
   58.7840   34.1790   46.1230 C   0  0  0  0  0  0  0  0  0  0  0  0
   59.3970   34.2120   44.8600 C   0  0  0  0  0  0  0  0  0  0  0  0
   60.2781   34.8499   44.6967 H   0  0  0  0  0  0  0  0  0  0  0  0
   58.8950   33.4400   43.8100 C   0  0  0  0  0  0  0  0  0  0  0  0
   59.3892   33.4695   42.8277 H   0  0  0  0  0  0  0  0  0  0  0  0
   57.7650   32.6260   43.9960 C   0  0  0  0  0  0  0  0  0  0  0  0
   57.2690   31.8240   42.8510 C   0  0  0  0  0  0  0  0  0  0  0  0
   57.3614   32.2480   41.8402 H   0  0  0  0  0  0  0  0  0  0  0  0
   56.7140   30.6100   42.9810 C   0  0  0  0  0  0  0  0  0  0  0  0
   56.0484   30.2422   42.1862 H   0  0  0  0  0  0  0  0  0  0  0  0
   56.9660   29.7510   44.1540 C   0  0  0  0  0  0  0  0  0  0  0  0
   56.2440   29.8500   45.1850 O   0  0  0  0  0  0  0  0  0  0  0  0
   58.0650   28.8270   44.1290 N   0  0  0  0  0  0  0  0  0  0  0  0
   58.8090   28.9670   43.4080 H   0  0  0  0  0  0  0  0  0  0  0  0
   58.2910   27.8380   45.1460 C   0  0  0  0  0  0  0  0  0  0  0  0
   59.6050   27.4480   45.4430 C   0  0  0  0  0  0  0  0  0  0  0  0
   60.4470   27.9096   44.9064 H   0  0  0  0  0  0  0  0  0  0  0  0
   59.8510   26.4750   46.4180 C   0  0  0  0  0  0  0  0  0  0  0  0
   60.8849   26.1833   46.6544 H   0  0  0  0  0  0  0  0  0  0  0  0
   58.7860   25.8740   47.0910 C   0  0  0  0  0  0  0  0  0  0  0  0
   58.9811   25.1157   47.8636 H   0  0  0  0  0  0  0  0  0  0  0  0
   57.4720   26.2360   46.7830 C   0  0  0  0  0  0  0  0  0  0  0  0
   56.6336   25.7551   47.3081 H   0  0  0  0  0  0  0  0  0  0  0  0
   57.2190   27.2080   45.8090 C   0  0  0  0  0  0  0  0  0  0  0  0
   55.9330   27.4940   45.4830 F   0  0  0  0  0  0  0  0  0  0  0  0
   57.1220   32.6360   45.2490 C   0  0  0  0  0  0  0  0  0  0  0  0
   56.2174   32.0295   45.4033 H   0  0  0  0  0  0  0  0  0  0  0  0
   57.6250   33.4110   46.2980 C   0  0  0  0  0  0  0  0  0  0  0  0
   57.1070   33.4181   47.2684 H   0  0  0  0  0  0  0  0  0  0  0  0
  1  2  1  0
  2  3  2  3
  3  4  1  0
  3  5  1  0
  5  6  2  0
  6  7  1  0
  6  8  1  0
  8  9  1  0
  8 10  2  0
 10 11  1  0
 10 12  1  0
 12 13  1  0
 12 14  2  0
 14 15  1  0
 15 16  1  0
 16 17  1  0
 16 18  1  0
 16 19  1  0
  2 20  1  0
 20 21  2  0
 21 22  1  0
 21 23  1  0
 23 24  1  0
 23 25  2  0
 25 26  1  0
 26 27  1  0
 26 28  2  0
 28 29  1  0
 28 30  1  0
 30 31  2  0
 30 32  1  0
 32 33  1  0
 32 34  1  0
 34 35  2  0
 35 36  1  0
 35 37  1  0
 37 38  1  0
 37 39  2  0
 39 40  1  0
 39 41  1  0
 41 42  1  0
 41 43  2  0
 43 44  1  0
 25 45  1  0
 45 46  1  0
 45 47  2  0
 47 48  1  0
 14  5  1  0
 47 20  1  0
 43 34  1  0
M  END
>  <UniqueID>  (57) 
52

>  <SMILES>  (57) 
COc1ccccc1C=Cc1ccc(/C=C/C(=O)Nc2ccccc2F)cc1

>  <Energy>  (57) 
65.88618088746105

>  <Genealogy>  (57) 
COc1ccccc1C=Cc1ccc(/C=C/C(=O)Nc2ccccc2F)cc1 (cis-trans isomerization)
COc1ccccc1C=Cc1ccc(/C=C/C(=O)Nc2ccccc2F)cc1 (3D coordinates assigned)
COc1ccccc1C=Cc1ccc(/C=C/C(=O)Nc2ccccc2F)cc1 (optimized conformer: 65.88618088746105 kcal/mol)

>  <smiles>  (57) 
COc1ccccc1C=Cc1ccc(C=CC(=O)Nc2ccccc2F)cc1

>  <score_type>  (57) 
oracle

>  <origin>  (57) 
adg

>  <m_score__min__energy>  (57) 
-9.4199999999999999

>  <m_primary>  (57) 
energy

$$$$
57:0
     RDKit          3D

 41 43  0  0  0  0  0  0  0  0999 V2000
   56.6520   30.6830   43.6810 C   0  0  0  0  0  0  0  0  0  0  0  0
   56.7380   31.4500   44.8760 O   0  0  0  0  0  0  0  0  0  0  0  0
   57.7940   32.3200   45.1940 C   0  0  0  0  0  0  0  0  0  0  0  0
   57.8270   33.6480   44.7180 C   0  0  0  0  0  0  0  0  0  0  0  0
   58.8620   34.5070   45.0920 C   0  0  0  0  0  0  0  0  0  0  0  0
   58.8830   35.7830   44.6360 F   0  0  0  0  0  0  0  0  0  0  0  0
   59.8710   34.0590   45.9460 C   0  0  0  0  0  0  0  0  0  0  0  0
   59.8540   32.7440   46.4170 C   0  0  0  0  0  0  0  0  0  0  0  0
   58.8350   31.8620   46.0290 C   0  0  0  0  0  0  0  0  0  0  0  0
   58.8480   30.5170   46.5370 N   0  0  0  0  0  0  0  0  0  0  0  0
   58.9620   29.3630   45.6880 C   0  0  0  0  0  0  0  0  0  0  0  0
   59.3780   29.4980   44.5050 O   0  0  0  0  0  0  0  0  0  0  0  0
   58.6320   28.0090   46.1970 C   0  0  0  0  0  0  0  0  0  0  0  0
   59.5630   27.2990   46.9750 C   0  0  0  0  0  0  0  0  0  0  0  0
   59.2610   26.0200   47.4520 C   0  0  0  0  0  0  0  0  0  0  0  0
   58.0330   25.4230   47.1560 C   0  0  0  0  0  0  0  0  0  0  0  0
   57.7670   24.1090   47.6650 N   0  0  0  0  0  0  0  0  0  0  0  0
   56.4840   23.0720   47.1340 S   0  0  0  0  0  0  0  0  0  0  0  0
   56.5510   21.7710   47.8810 O   0  0  0  0  0  0  0  0  0  0  0  0
   55.1560   23.7360   47.3690 O   0  0  0  0  0  0  0  0  0  0  0  0
   56.6740   22.7600   45.4200 C   0  0  0  0  0  0  0  0  0  0  0  0
   57.4920   21.7920   44.8580 C   0  0  0  0  0  0  0  0  0  0  0  0
   57.4510   21.7880   43.4600 C   0  0  0  0  0  0  0  0  0  0  0  0
   56.6070   22.7540   42.9240 C   0  0  0  0  0  0  0  0  0  0  0  0
   55.9100   23.6130   44.1920 S   0  0  0  0  0  0  0  0  0  0  0  0
   57.1010   26.1220   46.3680 C   0  0  0  0  0  0  0  0  0  0  0  0
   57.4010   27.4020   45.8930 C   0  0  0  0  0  0  0  0  0  0  0  0
   56.5328   29.6195   43.9357 H   0  0  0  0  0  0  0  0  0  0  0  0
   55.7858   31.0183   43.0917 H   0  0  0  0  0  0  0  0  0  0  0  0
   57.5709   30.8181   43.0917 H   0  0  0  0  0  0  0  0  0  0  0  0
   57.0324   34.0086   44.0482 H   0  0  0  0  0  0  0  0  0  0  0  0
   60.6793   34.7412   46.2481 H   0  0  0  0  0  0  0  0  0  0  0  0
   60.6459   32.3977   47.0974 H   0  0  0  0  0  0  0  0  0  0  0  0
   58.9680   30.3860   47.5670 H   0  0  0  0  0  0  0  0  0  0  0  0
   60.5368   27.7533   47.2103 H   0  0  0  0  0  0  0  0  0  0  0  0
   59.9965   25.4791   48.0656 H   0  0  0  0  0  0  0  0  0  0  0  0
   58.1088   21.0995   45.4497 H   0  0  0  0  0  0  0  0  0  0  0  0
   58.0317   21.0867   42.8428 H   0  0  0  0  0  0  0  0  0  0  0  0
   56.4256   22.9273   41.8530 H   0  0  0  0  0  0  0  0  0  0  0  0
   56.1329   25.6599   46.1247 H   0  0  0  0  0  0  0  0  0  0  0  0
   56.6666   27.9396   45.2752 H   0  0  0  0  0  0  0  0  0  0  0  0
  1  2  1  0
  2  3  1  0
  3  4  2  0
  4  5  1  0
  5  6  1  0
  5  7  2  0
  7  8  1  0
  8  9  2  0
  9 10  1  0
 10 11  1  0
 11 12  2  0
 11 13  1  0
 13 14  2  0
 14 15  1  0
 15 16  2  0
 16 17  1  0
 17 18  1  0
 18 19  2  0
 18 20  2  0
 18 21  1  0
 21 22  2  0
 22 23  1  0
 23 24  2  0
 24 25  1  0
 16 26  1  0
 26 27  2  0
  9  3  1  0
 27 13  1  0
 25 21  1  0
  1 28  1  0
  1 29  1  0
  1 30  1  0
  4 31  1  0
  7 32  1  0
  8 33  1  0
 10 34  1  0
 14 35  1  0
 15 36  1  0
 22 37  1  0
 23 38  1  0
 24 39  1  0
 26 40  1  0
 27 41  1  0
M  CHG  1  17  -1
M  END
>  <UniqueID>  (58) 
53

>  <SMILES>  (58) 
COc1cc(F)ccc1NC(=O)c1ccc([N-]S(=O)(=O)c2cccs2)cc1

>  <Energy>  (58) 
79.95959417837408

>  <Genealogy>  (58) 
COc1cc(F)ccc1NC(=O)c1ccc([N-]S(=O)(=O)c2cccs2)cc1 (protonated)
COc1cc(F)ccc1NC(=O)c1ccc([N-]S(=O)(=O)c2cccs2)cc1 (3D coordinates assigned)
COc1cc(F)ccc1NC(=O)c1ccc([N-]S(=O)(=O)c2cccs2)cc1 (optimized conformer: 79.95959417837408 kcal/mol)

>  <smiles>  (58) 
COc1cc(F)ccc1NC(=O)c1ccc(NS(=O)(=O)c2cccs2)cc1

>  <score_type>  (58) 
oracle

>  <origin>  (58) 
adg

>  <m_score__min__energy>  (58) 
-9.2799999999999994

>  <m_primary>  (58) 
energy

$$$$
58:0
     RDKit          3D

 66 69  0  0  0  0  0  0  0  0999 V2000
   58.8960   25.5030   46.3130 C   0  0  0  0  0  0  0  0  0  0  0  0
   59.0660   26.8670   46.9280 C   0  0  0  0  0  0  0  0  0  0  0  0
   60.0880   27.0550   47.8740 C   0  0  0  0  0  0  0  0  0  0  0  0
   60.2980   28.3040   48.4590 C   0  0  0  0  0  0  0  0  0  0  0  0
   59.4920   29.3930   48.1100 C   0  0  0  0  0  0  0  0  0  0  0  0
   59.7180   30.7230   48.7170 C   0  0  0  0  0  0  0  0  0  0  0  0
   60.4730   31.5440   48.1260 O   0  0  0  0  0  0  0  0  0  0  0  0
   59.1010   31.0990   49.9650 N   0  0  0  0  0  0  0  0  0  0  0  0
   58.8280   30.0910   51.0040 C   0  0  0  0  0  0  0  0  0  0  0  0
   59.1680   30.6600   52.3830 C   0  0  0  0  0  0  0  0  0  0  0  0
   58.3610   31.9450   52.6980 C   0  0  0  0  0  0  0  0  0  0  0  0
   59.1580   32.8590   53.6390 C   0  0  0  0  0  0  0  0  0  0  0  0
   57.9130   32.7090   51.4260 C   0  0  0  0  0  0  0  0  0  0  0  0
   58.8880   32.5250   50.2580 C   0  0  0  0  0  0  0  0  0  0  0  0
   58.4470   29.2080   47.1940 C   0  0  0  0  0  0  0  0  0  0  0  0
   58.2190   27.9550   46.5980 C   0  0  0  0  0  0  0  0  0  0  0  0
   56.9160   27.8300   45.4010 S   0  0  0  0  0  0  0  0  0  0  0  0
   55.8650   26.8790   45.9040 O   0  0  0  0  0  0  0  0  0  0  0  0
   57.4330   27.2850   44.1000 O   0  0  0  0  0  0  0  0  0  0  0  0
   56.1890   29.3930   45.1960 N   0  0  0  0  0  0  0  0  0  0  0  0
   56.8070   30.5080   44.5440 C   0  0  0  0  0  0  0  0  0  0  0  0
   56.8550   30.5270   43.1480 C   0  0  0  0  0  0  0  0  0  0  0  0
   57.4290   31.6070   42.4780 C   0  0  0  0  0  0  0  0  0  0  0  0
   57.9810   32.6690   43.1970 C   0  0  0  0  0  0  0  0  0  0  0  0
   57.9920   32.6450   44.6050 C   0  0  0  0  0  0  0  0  0  0  0  0
   58.6000   33.7490   45.3900 C   0  0  0  0  0  0  0  0  0  0  0  0
   58.6660   34.9040   44.8810 O   0  0  0  0  0  0  0  0  0  0  0  0
   59.0940   33.5350   46.7230 N   0  0  0  0  0  0  0  0  0  0  0  0
   59.7550   34.5850   47.4930 C   0  0  0  0  0  0  0  0  0  0  0  0
   61.1920   34.2140   47.7360 C   0  0  0  0  0  0  0  0  0  0  0  0
   62.0080   33.8180   46.6640 C   0  0  0  0  0  0  0  0  0  0  0  0
   63.3340   33.4350   46.8930 C   0  0  0  0  0  0  0  0  0  0  0  0
   63.8490   33.4350   48.1920 C   0  0  0  0  0  0  0  0  0  0  0  0
   63.0390   33.8170   49.2650 C   0  0  0  0  0  0  0  0  0  0  0  0
   61.7130   34.2010   49.0410 C   0  0  0  0  0  0  0  0  0  0  0  0
   57.3990   31.5540   45.2710 C   0  0  0  0  0  0  0  0  0  0  0  0
   58.8022   24.7506   47.1099 H   0  0  0  0  0  0  0  0  0  0  0  0
   57.9895   25.4921   45.6899 H   0  0  0  0  0  0  0  0  0  0  0  0
   59.7720   25.2699   45.6899 H   0  0  0  0  0  0  0  0  0  0  0  0
   60.7299   26.2075   48.1565 H   0  0  0  0  0  0  0  0  0  0  0  0
   61.1018   28.4333   49.1988 H   0  0  0  0  0  0  0  0  0  0  0  0
   57.7632   29.8164   50.9751 H   0  0  0  0  0  0  0  0  0  0  0  0
   59.4466   29.2009   50.8167 H   0  0  0  0  0  0  0  0  0  0  0  0
   58.9393   29.9014   53.1460 H   0  0  0  0  0  0  0  0  0  0  0  0
   60.2366   30.9211   52.3879 H   0  0  0  0  0  0  0  0  0  0  0  0
   57.4374   31.6262   53.2034 H   0  0  0  0  0  0  0  0  0  0  0  0
   58.9305   32.5981   54.6831 H   0  0  0  0  0  0  0  0  0  0  0  0
   60.2342   32.7267   53.4541 H   0  0  0  0  0  0  0  0  0  0  0  0
   58.8804   33.9072   53.4541 H   0  0  0  0  0  0  0  0  0  0  0  0
   56.9234   32.3377   51.1215 H   0  0  0  0  0  0  0  0  0  0  0  0
   57.8842   33.7807   51.6721 H   0  0  0  0  0  0  0  0  0  0  0  0
   58.4757   33.0175   49.3650 H   0  0  0  0  0  0  0  0  0  0  0  0
   59.8538   32.9726   50.5355 H   0  0  0  0  0  0  0  0  0  0  0  0
   57.7953   30.0562   46.9375 H   0  0  0  0  0  0  0  0  0  0  0  0
   56.4380   29.6860   42.5745 H   0  0  0  0  0  0  0  0  0  0  0  0
   57.4470   31.6223   41.3783 H   0  0  0  0  0  0  0  0  0  0  0  0
   58.4094   33.5287   42.6610 H   0  0  0  0  0  0  0  0  0  0  0  0
   58.8330   32.6650   47.2370 H   0  0  0  0  0  0  0  0  0  0  0  0
   59.7122   35.5304   46.9323 H   0  0  0  0  0  0  0  0  0  0  0  0
   59.2429   34.7023   48.4594 H   0  0  0  0  0  0  0  0  0  0  0  0
   61.6035   33.8089   45.6411 H   0  0  0  0  0  0  0  0  0  0  0  0
   63.9721   33.1334   46.0492 H   0  0  0  0  0  0  0  0  0  0  0  0
   64.8920   33.1343   48.3701 H   0  0  0  0  0  0  0  0  0  0  0  0
   63.4451   33.8156   50.2873 H   0  0  0  0  0  0  0  0  0  0  0  0
   61.0761   34.4937   49.8888 H   0  0  0  0  0  0  0  0  0  0  0  0
   57.3997   31.5211   46.3705 H   0  0  0  0  0  0  0  0  0  0  0  0
  1  2  1  0
  2  3  2  0
  3  4  1  0
  4  5  2  0
  5  6  1  0
  6  7  2  0
  6  8  1  0
  8  9  1  0
  9 10  1  0
 10 11  1  0
 11 12  1  0
 11 13  1  0
 13 14  1  0
  5 15  1  0
 15 16  2  0
 16 17  1  0
 17 18  2  0
 17 19  2  0
 17 20  1  0
 20 21  1  0
 21 22  2  0
 22 23  1  0
 23 24  2  0
 24 25  1  0
 25 26  1  0
 26 27  2  0
 26 28  1  0
 28 29  1  0
 29 30  1  0
 30 31  2  0
 31 32  1  0
 32 33  2  0
 33 34  1  0
 34 35  2  0
 25 36  2  0
 16  2  1  0
 36 21  1  0
 14  8  1  0
 35 30  1  0
  1 37  1  0
  1 38  1  0
  1 39  1  0
  3 40  1  0
  4 41  1  0
  9 42  1  0
  9 43  1  0
 10 44  1  0
 10 45  1  0
 11 46  1  0
 12 47  1  0
 12 48  1  0
 12 49  1  0
 13 50  1  0
 13 51  1  0
 14 52  1  0
 14 53  1  0
 15 54  1  0
 22 55  1  0
 23 56  1  0
 24 57  1  0
 28 58  1  0
 29 59  1  0
 29 60  1  0
 31 61  1  0
 32 62  1  0
 33 63  1  0
 34 64  1  0
 35 65  1  0
 36 66  1  0
M  CHG  1  20  -1
M  END
>  <UniqueID>  (59) 
54

>  <SMILES>  (59) 
Cc1ccc(C(=O)N2CCC(C)CC2)cc1S(=O)(=O)[N-]c1cccc(C(=O)NCc2ccccc2)c1

>  <Energy>  (59) 
83.72126272354994

>  <Genealogy>  (59) 
Cc1ccc(C(=O)N2CCC(C)CC2)cc1S(=O)(=O)[N-]c1cccc(C(=O)NCc2ccccc2)c1 (protonated)
Cc1ccc(C(=O)N2CCC(C)CC2)cc1S(=O)(=O)[N-]c1cccc(C(=O)NCc2ccccc2)c1 (3D coordinates assigned)
Cc1ccc(C(=O)N2CCC(C)CC2)cc1S(=O)(=O)[N-]c1cccc(C(=O)NCc2ccccc2)c1 (nonaromatic ring conformer: 83.72126272354994 kcal/mol)

>  <smiles>  (59) 
Cc1ccc(C(=O)N2CCC(C)CC2)cc1S(=O)(=O)Nc1cccc(C(=O)NCc2ccccc2)c1

>  <score_type>  (59) 
oracle

>  <origin>  (59) 
adg

>  <m_score__min__energy>  (59) 
-12.449999999999999

>  <m_primary>  (59) 
energy

$$$$
59:0
     RDKit          3D

 32 33  0  0  0  0  0  0  0  0999 V2000
   58.8930   31.1350   47.8160 C   0  0  0  0  0  0  0  0  0  0  0  0
   59.0070   30.1620   46.7330 N   0  0  0  0  0  0  0  0  0  0  0  0
   60.1870   29.3040   46.6850 C   0  0  0  0  0  0  0  0  0  0  0  0
   58.2750   30.3900   45.5210 C   0  0  0  0  0  0  0  0  0  0  0  0
   58.4180   31.5770   44.8700 N   0  0  0  0  0  0  0  0  0  0  0  0
   57.7590   31.8500   43.7150 C   0  0  0  0  0  0  0  0  0  0  0  0
   56.9070   30.8970   43.1560 C   0  0  0  0  0  0  0  0  0  0  0  0
   56.7460   29.6670   43.7930 C   0  0  0  0  0  0  0  0  0  0  0  0
   57.4310   29.3930   44.9870 C   0  0  0  0  0  0  0  0  0  0  0  0
   57.2880   28.0440   45.6470 C   0  0  0  0  0  0  0  0  0  0  0  0
   55.8960   27.6040   45.6220 N   0  0  0  0  0  0  0  0  0  0  0  0
   55.4630   26.3220   46.0820 C   0  0  0  0  0  0  0  0  0  0  0  0
   56.2430   25.5930   46.7510 O   0  0  0  0  0  0  0  0  0  0  0  0
   54.1410   25.8810   45.7580 N   0  0  0  0  0  0  0  0  0  0  0  0
   53.7150   24.5240   45.5780 C   0  0  0  0  0  0  0  0  0  0  0  0
   54.3370   23.3600   45.9780 C   0  0  0  0  0  0  0  0  0  0  0  0
   53.5550   22.3210   45.6260 N   0  0  0  0  0  0  0  0  0  0  0  0
   52.4680   22.7870   45.0250 N   0  0  0  0  0  0  0  0  0  0  0  0
   52.5400   24.1310   44.9870 C   0  0  0  0  0  0  0  0  0  0  0  0
   58.9539   30.6154   48.7836 H   0  0  0  0  0  0  0  0  0  0  0  0
   59.7117   31.8658   47.7401 H   0  0  0  0  0  0  0  0  0  0  0  0
   57.9276   31.6567   47.7401 H   0  0  0  0  0  0  0  0  0  0  0  0
   60.5110   29.0684   47.7095 H   0  0  0  0  0  0  0  0  0  0  0  0
   59.9414   28.3721   46.1547 H   0  0  0  0  0  0  0  0  0  0  0  0
   60.9978   29.8249   46.1547 H   0  0  0  0  0  0  0  0  0  0  0  0
   57.8967   32.8225   43.2198 H   0  0  0  0  0  0  0  0  0  0  0  0
   56.3677   31.1137   42.2221 H   0  0  0  0  0  0  0  0  0  0  0  0
   56.0792   28.9081   43.3578 H   0  0  0  0  0  0  0  0  0  0  0  0
   57.9083   27.3113   45.1100 H   0  0  0  0  0  0  0  0  0  0  0  0
   57.6152   28.1253   46.6941 H   0  0  0  0  0  0  0  0  0  0  0  0
   55.3052   23.2916   46.4955 H   0  0  0  0  0  0  0  0  0  0  0  0
   51.7834   24.8022   44.5545 H   0  0  0  0  0  0  0  0  0  0  0  0
  1  2  1  0
  2  3  1  0
  2  4  1  0
  4  5  2  0
  5  6  1  0
  6  7  2  0
  7  8  1  0
  8  9  2  0
  9 10  1  0
 10 11  1  0
 11 12  1  0
 12 13  2  0
 12 14  1  0
 14 15  1  0
 15 16  1  0
 16 17  2  0
 17 18  1  0
 18 19  1  0
  9  4  1  0
 19 15  2  0
  1 20  1  0
  1 21  1  0
  1 22  1  0
  3 23  1  0
  3 24  1  0
  3 25  1  0
  6 26  1  0
  7 27  1  0
  8 28  1  0
 10 29  1  0
 10 30  1  0
 16 31  1  0
 19 32  1  0
M  CHG  3  11  -1  14  -1  18  -1
M  END
>  <UniqueID>  (60) 
55

>  <SMILES>  (60) 
CN(C)c1ncccc1C[N-]C(=O)[N-]c1cn[n-]c1

>  <Energy>  (60) 
66.45631297601378

>  <Genealogy>  (60) 
CN(C)c1ncccc1C[N-]C(=O)[N-]c1cn[n-]c1 (protonated)
CN(C)c1ncccc1C[N-]C(=O)[N-]c1cn[n-]c1 (3D coordinates assigned)
CN(C)c1ncccc1C[N-]C(=O)[N-]c1cn[n-]c1 (optimized conformer: 66.45631297601378 kcal/mol)

>  <smiles>  (60) 
CN(C)c1ncccc1CNC(=O)Nc1cn[nH]c1

>  <score_type>  (60) 
oracle

>  <origin>  (60) 
adg

>  <m_score__min__energy>  (60) 
-12.279999999999999

>  <m_primary>  (60) 
energy

$$$$
60:0
     RDKit          3D

 47 49  0  0  0  0  0  0  0  0999 V2000
   64.9500   31.4310   50.8400 C   0  0  0  0  0  0  0  0  0  0  0  0
   65.9690   32.3490   50.1760 C   0  0  0  0  0  0  0  0  0  0  0  0
   65.3230   33.4720   49.5810 O   0  0  0  0  0  0  0  0  0  0  0  0
   63.9550   33.7380   49.7130 C   0  0  0  0  0  0  0  0  0  0  0  0
   63.5280   34.3630   50.7240 O   0  0  0  0  0  0  0  0  0  0  0  0
   63.0330   33.3070   48.6940 N   0  0  0  0  0  0  0  0  0  0  0  0
   61.6300   33.7470   48.7610 C   0  0  0  0  0  0  0  0  0  0  0  0
   60.8450   33.3160   47.5200 C   0  0  0  0  0  0  0  0  0  0  0  0
   61.1230   31.9060   47.2260 N   0  0  0  0  0  0  0  0  0  0  0  0
   60.0650   31.0090   46.8490 C   0  0  0  0  0  0  0  0  0  0  0  0
   60.1060   29.7150   47.2640 N   0  0  0  0  0  0  0  0  0  0  0  0
   59.1410   28.8060   46.9530 C   0  0  0  0  0  0  0  0  0  0  0  0
   58.0250   29.2190   46.1910 C   0  0  0  0  0  0  0  0  0  0  0  0
   57.9560   30.5570   45.7630 C   0  0  0  0  0  0  0  0  0  0  0  0
   58.9720   31.4540   46.0930 C   0  0  0  0  0  0  0  0  0  0  0  0
   58.8600   32.7540   45.7220 F   0  0  0  0  0  0  0  0  0  0  0  0
   57.0070   28.2950   45.9020 C   0  0  0  0  0  0  0  0  0  0  0  0
   56.0090   28.6550   45.2180 O   0  0  0  0  0  0  0  0  0  0  0  0
   57.1040   26.9740   46.3830 C   0  0  0  0  0  0  0  0  0  0  0  0
   56.0500   25.9590   46.1140 C   0  0  0  0  0  0  0  0  0  0  0  0
   56.3530   24.7420   45.9950 O   0  0  0  0  0  0  0  0  0  0  0  0
   54.7140   26.3260   45.9900 O   0  0  0  0  0  0  0  0  0  0  0  0
   58.2350   26.6180   47.1380 C   0  0  0  0  0  0  0  0  0  0  0  0
   59.2340   27.5110   47.3950 N   0  0  0  0  0  0  0  0  0  0  0  0
   60.3430   27.0660   48.1500 N   0  0  0  0  0  0  0  0  0  0  0  0
   60.5470   27.4670   49.5390 C   0  0  0  0  0  0  0  0  0  0  0  0
   62.5110   31.4270   47.1780 C   0  0  0  0  0  0  0  0  0  0  0  0
   63.5110   32.5350   47.5370 C   0  0  0  0  0  0  0  0  0  0  0  0
   65.0406   31.5126   51.9332 H   0  0  0  0  0  0  0  0  0  0  0  0
   63.9358   31.7262   50.5331 H   0  0  0  0  0  0  0  0  0  0  0  0
   65.1381   30.3916   50.5331 H   0  0  0  0  0  0  0  0  0  0  0  0
   66.6837   32.7031   50.9336 H   0  0  0  0  0  0  0  0  0  0  0  0
   66.4936   31.7855   49.3903 H   0  0  0  0  0  0  0  0  0  0  0  0
   61.1596   33.3058   49.6521 H   0  0  0  0  0  0  0  0  0  0  0  0
   61.6159   34.8457   48.8129 H   0  0  0  0  0  0  0  0  0  0  0  0
   59.7684   33.4459   47.7046 H   0  0  0  0  0  0  0  0  0  0  0  0
   61.1493   33.9344   46.6627 H   0  0  0  0  0  0  0  0  0  0  0  0
   57.0974   30.8975   45.1656 H   0  0  0  0  0  0  0  0  0  0  0  0
   58.3167   25.5940   47.5314 H   0  0  0  0  0  0  0  0  0  0  0  0
   61.1780   26.6920   47.6430 H   0  0  0  0  0  0  0  0  0  0  0  0
   60.1509   26.6883   50.2074 H   0  0  0  0  0  0  0  0  0  0  0  0
   61.6224   27.6001   49.7280 H   0  0  0  0  0  0  0  0  0  0  0  0
   60.0214   28.4146   49.7280 H   0  0  0  0  0  0  0  0  0  0  0  0
   62.6263   30.5986   47.8924 H   0  0  0  0  0  0  0  0  0  0  0  0
   62.7225   31.0964   46.1504 H   0  0  0  0  0  0  0  0  0  0  0  0
   64.4822   32.0803   47.7818 H   0  0  0  0  0  0  0  0  0  0  0  0
   63.6147   33.2123   46.6765 H   0  0  0  0  0  0  0  0  0  0  0  0
  1  2  1  0
  2  3  1  0
  3  4  1  0
  4  5  2  0
  4  6  1  0
  6  7  1  0
  7  8  1  0
  8  9  1  0
  9 10  1  0
 10 11  2  0
 11 12  1  0
 12 13  2  0
 13 14  1  0
 14 15  2  0
 15 16  1  0
 13 17  1  0
 17 18  2  0
 17 19  1  0
 19 20  1  0
 20 21  2  0
 20 22  1  0
 19 23  2  0
 23 24  1  0
 24 25  1  0
 25 26  1  0
  9 27  1  0
 27 28  1  0
 28  6  1  0
 15 10  1  0
 24 12  1  0
  1 29  1  0
  1 30  1  0
  1 31  1  0
  2 32  1  0
  2 33  1  0
  7 34  1  0
  7 35  1  0
  8 36  1  0
  8 37  1  0
 14 38  1  0
 23 39  1  0
 25 40  1  0
 26 41  1  0
 26 42  1  0
 26 43  1  0
 27 44  1  0
 27 45  1  0
 28 46  1  0
 28 47  1  0
M  CHG  1  22  -1
M  END
>  <UniqueID>  (61) 
56

>  <SMILES>  (61) 
CCOC(=O)N1CCN(c2nc3c(cc2F)c(=O)c(C(=O)[O-])cn3NC)CC1

>  <Energy>  (61) 
59.0177799064497

>  <Genealogy>  (61) 
CCOC(=O)N1CCN(c2nc3c(cc2F)c(=O)c(C(=O)[O-])cn3NC)CC1 (protonated)
CCOC(=O)N1CCN(c2nc3c(cc2F)c(=O)c(C(=O)[O-])cn3NC)CC1 (3D coordinates assigned)
CCOC(=O)N1CCN(c2nc3c(cc2F)c(=O)c(C(=O)[O-])cn3NC)CC1 (nonaromatic ring conformer: 59.0177799064497 kcal/mol)

>  <smiles>  (61) 
CCOC(=O)N1CCN(c2nc3c(cc2F)c(=O)c(C(=O)O)cn3NC)CC1

>  <score_type>  (61) 
oracle

>  <origin>  (61) 
adg

>  <m_score__min__energy>  (61) 
-9.2599999999999998

>  <m_primary>  (61) 
energy

$$$$
61:0
     RDKit          3D

 43 45  0  0  0  0  0  0  0  0999 V2000
   63.9075   35.1507   48.4723 H   0  0  0  0  0  0  0  0  0  0  0  0
   63.4230   34.1740   48.3260 C   0  0  0  0  0  0  0  0  0  0  0  0
   63.4040   33.2830   46.8990 S   0  0  0  0  0  0  0  0  0  0  0  0
   62.5050   32.0180   47.5690 C   0  0  0  0  0  0  0  0  0  0  0  0
   62.0990   30.9410   46.9590 N   0  0  0  0  0  0  0  0  0  0  0  0
   61.0330   30.0590   47.3530 C   0  0  0  0  0  0  0  0  0  0  0  0
   60.8910   29.7220   48.5600 O   0  0  0  0  0  0  0  0  0  0  0  0
   60.0840   29.5500   46.3350 C   0  0  0  0  0  0  0  0  0  0  0  0
   60.2000   28.2370   45.8370 C   0  0  0  0  0  0  0  0  0  0  0  0
   61.0097   27.5858   46.1979 H   0  0  0  0  0  0  0  0  0  0  0  0
   59.2940   27.7560   44.8880 C   0  0  0  0  0  0  0  0  0  0  0  0
   59.3987   26.7322   44.4997 H   0  0  0  0  0  0  0  0  0  0  0  0
   58.2560   28.5710   44.4310 C   0  0  0  0  0  0  0  0  0  0  0  0
   57.5423   28.1867   43.6874 H   0  0  0  0  0  0  0  0  0  0  0  0
   58.1230   29.8780   44.9190 C   0  0  0  0  0  0  0  0  0  0  0  0
   56.7750   30.8760   44.3740 S   0  0  0  0  0  0  0  0  0  0  0  0
   55.5080   30.0750   44.4950 O   0  0  0  0  0  0  0  0  0  0  0  0
   56.9570   31.2750   42.9350 O   0  0  0  0  0  0  0  0  0  0  0  0
   56.6490   32.2860   45.3800 N   0  0  0  0  0  0  0  0  0  0  0  0
   57.7470   33.1660   45.6600 C   0  0  0  0  0  0  0  0  0  0  0  0
   58.2830   33.9170   44.6080 C   0  0  0  0  0  0  0  0  0  0  0  0
   57.8752   33.8007   43.5930 H   0  0  0  0  0  0  0  0  0  0  0  0
   59.3320   34.8140   44.8340 C   0  0  0  0  0  0  0  0  0  0  0  0
   59.7408   35.4049   44.0011 H   0  0  0  0  0  0  0  0  0  0  0  0
   59.8590   34.9580   46.1180 C   0  0  0  0  0  0  0  0  0  0  0  0
   60.6702   35.6779   46.3018 H   0  0  0  0  0  0  0  0  0  0  0  0
   59.3560   34.1870   47.1720 C   0  0  0  0  0  0  0  0  0  0  0  0
   59.7807   34.2975   48.1807 H   0  0  0  0  0  0  0  0  0  0  0  0
   58.3080   33.2690   46.9500 C   0  0  0  0  0  0  0  0  0  0  0  0
   57.8340   32.4290   47.9690 O   0  0  0  0  0  0  0  0  0  0  0  0
   58.5690   32.0670   49.1340 C   0  0  0  0  0  0  0  0  0  0  0  0
   57.9972   32.3486   50.0305 H   0  0  0  0  0  0  0  0  0  0  0  0
   58.7419   30.9807   49.1356 H   0  0  0  0  0  0  0  0  0  0  0  0
   59.5356   32.5921   49.1356 H   0  0  0  0  0  0  0  0  0  0  0  0
   59.0410   30.3670   45.8610 C   0  0  0  0  0  0  0  0  0  0  0  0
   58.9444   31.3980   46.2321 H   0  0  0  0  0  0  0  0  0  0  0  0
   62.2190   32.2620   48.8640 N   0  0  0  0  0  0  0  0  0  0  0  0
   61.6730   31.6070   49.4720 H   0  0  0  0  0  0  0  0  0  0  0  0
   62.7170   33.4570   49.2900 C   0  0  0  0  0  0  0  0  0  0  0  0
   62.5650   33.9320   50.6960 C   0  0  0  0  0  0  0  0  0  0  0  0
   62.8255   33.1178   51.3883 H   0  0  0  0  0  0  0  0  0  0  0  0
   63.2341   34.7879   50.8682 H   0  0  0  0  0  0  0  0  0  0  0  0
   61.5233   34.2405   50.8682 H   0  0  0  0  0  0  0  0  0  0  0  0
  1  2  1  0
  2  3  1  0
  3  4  1  0
  4  5  2  0
  5  6  1  0
  6  7  2  0
  6  8  1  0
  8  9  2  0
  9 10  1  0
  9 11  1  0
 11 12  1  0
 11 13  2  0
 13 14  1  0
 13 15  1  0
 15 16  1  0
 16 17  2  0
 16 18  2  0
 16 19  1  0
 19 20  1  0
 20 21  2  0
 21 22  1  0
 21 23  1  0
 23 24  1  0
 23 25  2  0
 25 26  1  0
 25 27  1  0
 27 28  1  0
 27 29  2  0
 29 30  1  0
 30 31  1  0
 31 32  1  0
 31 33  1  0
 31 34  1  0
 15 35  2  0
 35 36  1  0
  4 37  1  0
 37 38  1  0
 37 39  1  0
 39 40  1  0
 40 41  1  0
 40 42  1  0
 40 43  1  0
 39  2  2  0
 35  8  1  0
 29 20  1  0
M  CHG  1  19  -1
M  END
>  <UniqueID>  (62) 
57

>  <SMILES>  (62) 
COc1ccccc1[N-]S(=O)(=O)c1cccc(C(=O)/N=c2/[nH]c(C)cs2)c1

>  <Energy>  (62) 
84.27649877311892

>  <Genealogy>  (62) 
COc1ccccc1[N-]S(=O)(=O)c1cccc(C(=O)N=c2[nH]c(C)cs2)c1 (protonated)
COc1ccccc1[N-]S(=O)(=O)c1cccc(C(=O)/N=c2/[nH]c(C)cs2)c1 (cis-trans isomerization)
COc1ccccc1[N-]S(=O)(=O)c1cccc(C(=O)/N=c2/[nH]c(C)cs2)c1 (3D coordinates assigned)
COc1ccccc1[N-]S(=O)(=O)c1cccc(C(=O)/N=c2/[nH]c(C)cs2)c1 (optimized conformer: 84.27649877311892 kcal/mol)

>  <smiles>  (62) 
COc1ccccc1NS(=O)(=O)c1cccc(C(=O)N=c2[nH]c(C)cs2)c1

>  <score_type>  (62) 
oracle

>  <origin>  (62) 
adg

>  <m_score__min__energy>  (62) 
-10.609999999999999

>  <m_primary>  (62) 
energy

$$$$
62:0
     RDKit          3D

 36 38  0  0  1  0  0  0  0  0999 V2000
   63.8460   32.8770   47.8760 C   0  0  0  0  0  0  0  0  0  0  0  0
   62.4790   32.5900   47.3670 C   0  0  0  0  0  0  0  0  0  0  0  0
   61.6760   33.5870   46.9150 N   0  0  0  0  0  0  0  0  0  0  0  0
   60.4480   33.2590   46.4670 C   0  0  0  0  0  0  0  0  0  0  0  0
   59.9940   31.9540   46.4570 C   0  0  0  0  0  0  0  0  0  0  0  0
   58.7310   31.9460   45.9540 C   0  0  0  0  0  0  0  0  0  0  0  0
   58.4680   33.2630   45.6750 N   0  0  0  0  0  0  0  0  0  0  0  0
   59.4680   34.0380   45.9730 N   0  0  0  0  0  0  0  0  0  0  0  0
   59.5470   35.4790   45.8150 C   0  0  0  0  0  0  0  0  0  0  0  0
   60.8050   30.9820   46.9100 C   0  0  0  0  0  0  0  0  0  0  0  0
   60.4900   29.7570   46.9460 N   0  0  0  0  0  0  0  0  0  0  0  0
   60.4090   28.9500   45.7570 C   0  0  0  0  0  0  0  0  0  0  0  0
   59.0440   28.2810   45.8770 C   0  0  0  0  0  0  0  0  0  0  0  0
   58.9230   27.0320   46.4510 C   0  0  0  0  0  0  0  0  0  0  0  0
   57.6890   26.4210   46.5620 C   0  0  0  0  0  0  0  0  0  0  0  0
   56.6030   27.0850   46.0890 C   0  0  0  0  0  0  0  0  0  0  0  0
   55.3490   26.5000   46.1840 O   0  0  0  0  0  0  0  0  0  0  0  0
   56.6580   28.3380   45.5020 C   0  0  0  0  0  0  0  0  0  0  0  0
   55.5300   28.9970   45.0250 O   0  0  0  0  0  0  0  0  0  0  0  0
   57.9090   28.9150   45.4110 C   0  0  0  0  0  0  0  0  0  0  0  0
   62.0440   31.3180   47.3610 N   0  0  0  0  0  0  0  0  0  0  0  0
   63.8357   32.8748   48.9759 H   0  0  0  0  0  0  0  0  0  0  0  0
   64.5414   32.1053   47.5143 H   0  0  0  0  0  0  0  0  0  0  0  0
   64.1724   33.8632   47.5143 H   0  0  0  0  0  0  0  0  0  0  0  0
   58.0698   31.0797   45.8046 H   0  0  0  0  0  0  0  0  0  0  0  0
   59.5731   35.9556   46.8060 H   0  0  0  0  0  0  0  0  0  0  0  0
   60.4607   35.7374   45.2596 H   0  0  0  0  0  0  0  0  0  0  0  0
   58.6671   35.8358   45.2596 H   0  0  0  0  0  0  0  0  0  0  0  0
   60.4634   29.5743   44.8530 H   0  0  0  0  0  0  0  0  0  0  0  0
   61.2349   28.2286   45.6702 H   0  0  0  0  0  0  0  0  0  0  0  0
   59.8200   26.5166   46.8247 H   0  0  0  0  0  0  0  0  0  0  0  0
   57.5891   25.4259   47.0201 H   0  0  0  0  0  0  0  0  0  0  0  0
   54.5080   27.0580   46.0160 H   0  0  0  0  0  0  0  0  0  0  0  0
   54.7680   28.5040   44.6210 H   0  0  0  0  0  0  0  0  0  0  0  0
   58.0047   29.9106   44.9531 H   0  0  0  0  0  0  0  0  0  0  0  0
   62.6770   30.5690   47.7120 H   0  0  0  0  0  0  0  0  0  0  0  0
  1  2  1  0
  2  3  2  0
  3  4  1  0
  4  5  2  0
  5  6  1  0
  6  7  2  0
  7  8  1  0
  8  9  1  0
  5 10  1  0
 10 11  2  0
 11 12  1  0
 12 13  1  0
 13 14  2  0
 14 15  1  0
 15 16  2  0
 16 17  1  0
 16 18  1  0
 18 19  1  0
 18 20  2  0
 10 21  1  0
 21  2  1  0
  8  4  1  0
 20 13  1  0
  1 22  1  0
  1 23  1  0
  1 24  1  0
  6 25  1  0
  9 26  1  0
  9 27  1  0
  9 28  1  0
 12 29  1  0
 12 30  1  0
 14 31  1  0
 15 32  1  0
 17 33  1  0
 19 34  1  0
 20 35  1  0
 21 36  1  0
M  END
>  <smiles>  (63) 
Cc1nc2c(cnn2C)c(=NCc2ccc(O)c(O)c2)[nH]1

>  <score_type>  (63) 
oracle

>  <origin>  (63) 
adg

>  <m_score__min__energy>  (63) 
-8.4800000000000004

>  <m_primary>  (63) 
energy

$$$$
63:0
     RDKit          3D

 26 27  0  0  1  0  0  0  0  0999 V2000
   57.9010   29.6050   44.1190 F   0  0  0  0  0  0  0  0  0  0  0  0
   56.5860   29.9960   44.1040 C   0  0  0  0  0  0  0  0  0  0  0  0
   55.8520   29.0460   44.8210 F   0  0  0  0  0  0  0  0  0  0  0  0
   56.1450   30.0250   42.7840 F   0  0  0  0  0  0  0  0  0  0  0  0
   56.3550   31.2650   44.6700 O   0  0  0  0  0  0  0  0  0  0  0  0
   57.3850   32.0190   45.2180 C   0  0  0  0  0  0  0  0  0  0  0  0
   58.3920   31.5010   45.9860 C   0  0  0  0  0  0  0  0  0  0  0  0
   59.3700   32.3720   46.4780 C   0  0  0  0  0  0  0  0  0  0  0  0
   59.3270   33.7220   46.2020 C   0  0  0  0  0  0  0  0  0  0  0  0
   60.3830   34.5310   46.7580 N   0  0  0  0  0  0  0  0  0  0  0  0
   60.7810   34.1840   47.9580 C   0  0  0  0  0  0  0  0  0  0  0  0
   59.9340   34.1740   49.0030 N   0  0  0  0  0  0  0  0  0  0  0  0
   60.3010   33.8250   50.2500 C   0  0  0  0  0  0  0  0  0  0  0  0
   59.1810   33.8190   51.5980 Cl  0  0  0  0  0  0  0  0  0  0  0  0
   61.5910   33.4650   50.4590 N   0  0  0  0  0  0  0  0  0  0  0  0
   62.5090   33.4430   49.4830 C   0  0  0  0  0  0  0  0  0  0  0  0
   62.0980   33.8110   48.1990 C   0  0  0  0  0  0  0  0  0  0  0  0
   63.3380   33.8090   46.7490 Br  0  0  0  0  0  0  0  0  0  0  0  0
   58.3240   34.2370   45.4380 C   0  0  0  0  0  0  0  0  0  0  0  0
   57.3590   33.3790   44.9510 C   0  0  0  0  0  0  0  0  0  0  0  0
   58.4316   30.4250   46.2113 H   0  0  0  0  0  0  0  0  0  0  0  0
   60.1877   31.9726   47.0960 H   0  0  0  0  0  0  0  0  0  0  0  0
   58.9200   34.4530   48.8550 H   0  0  0  0  0  0  0  0  0  0  0  0
   63.5486   33.1460   49.6852 H   0  0  0  0  0  0  0  0  0  0  0  0
   58.2840   35.3132   45.2140 H   0  0  0  0  0  0  0  0  0  0  0  0
   56.5454   33.7863   44.3328 H   0  0  0  0  0  0  0  0  0  0  0  0
  1  2  1  0
  2  3  1  0
  2  4  1  0
  2  5  1  0
  5  6  1  0
  6  7  2  0
  7  8  1  0
  8  9  2  0
  9 10  1  0
 10 11  2  0
 11 12  1  0
 12 13  1  0
 13 14  1  0
 13 15  2  0
 15 16  1  0
 16 17  2  0
 17 18  1  0
  9 19  1  0
 19 20  2  0
 20  6  1  0
 17 11  1  0
  7 21  1  0
  8 22  1  0
 12 23  1  0
 16 24  1  0
 19 25  1  0
 20 26  1  0
M  END
>  <smiles>  (64) 
FC(F)(F)Oc1ccc(N=c2[nH]c(Cl)ncc2Br)cc1

>  <score_type>  (64) 
oracle

>  <origin>  (64) 
adg

>  <m_score__min__energy>  (64) 
-6.4100000000000001

>  <m_primary>  (64) 
energy

$$$$
64:0
     RDKit          3D

 40 41  0  0  0  0  0  0  0  0999 V2000
   57.7980   32.0930   51.5790 C   0  0  0  0  0  0  0  0  0  0  0  0
   58.2200   31.8030   50.2510 O   0  0  0  0  0  0  0  0  0  0  0  0
   58.9200   32.6980   49.4270 C   0  0  0  0  0  0  0  0  0  0  0  0
   59.9170   33.4900   50.0090 C   0  0  0  0  0  0  0  0  0  0  0  0
   60.6310   34.4080   49.2360 C   0  0  0  0  0  0  0  0  0  0  0  0
   60.3600   34.5410   47.8730 C   0  0  0  0  0  0  0  0  0  0  0  0
   59.3760   33.7460   47.2640 C   0  0  0  0  0  0  0  0  0  0  0  0
   59.0830   33.8980   45.8200 C   0  0  0  0  0  0  0  0  0  0  0  0
   59.0580   35.0500   45.3070 O   0  0  0  0  0  0  0  0  0  0  0  0
   58.8430   32.7470   44.9970 N   0  0  0  0  0  0  0  0  0  0  0  0
   58.0390   32.8020   43.7790 C   0  0  0  0  0  0  0  0  0  0  0  0
   57.1940   31.5720   43.6820 C   0  0  0  0  0  0  0  0  0  0  0  0
   56.7330   31.2160   42.5660 O   0  0  0  0  0  0  0  0  0  0  0  0
   56.9630   30.7890   44.8610 N   0  0  0  0  0  0  0  0  0  0  0  0
   57.6330   29.5790   45.2400 C   0  0  0  0  0  0  0  0  0  0  0  0
   59.0240   29.5230   45.4410 C   0  0  0  0  0  0  0  0  0  0  0  0
   59.6300   28.3180   45.8060 C   0  0  0  0  0  0  0  0  0  0  0  0
   58.8610   27.1620   45.9640 C   0  0  0  0  0  0  0  0  0  0  0  0
   57.4790   27.2020   45.7370 C   0  0  0  0  0  0  0  0  0  0  0  0
   56.4940   25.7590   45.9490 S   0  0  0  0  0  0  0  0  0  0  0  0
   54.8260   26.2100   45.9920 N   0  0  0  0  0  0  0  0  0  0  0  0
   56.7300   24.8140   44.8040 O   0  0  0  0  0  0  0  0  0  0  0  0
   56.8590   25.0680   47.2340 O   0  0  0  0  0  0  0  0  0  0  0  0
   56.8740   28.4100   45.3690 C   0  0  0  0  0  0  0  0  0  0  0  0
   58.6520   32.8280   48.0510 C   0  0  0  0  0  0  0  0  0  0  0  0
   58.4868   31.6197   52.2942 H   0  0  0  0  0  0  0  0  0  0  0  0
   57.7992   33.1819   51.7346 H   0  0  0  0  0  0  0  0  0  0  0  0
   56.7819   31.7015   51.7346 H   0  0  0  0  0  0  0  0  0  0  0  0
   60.1392   33.3886   51.0815 H   0  0  0  0  0  0  0  0  0  0  0  0
   61.4100   35.0287   49.7029 H   0  0  0  0  0  0  0  0  0  0  0  0
   60.9206   35.2728   47.2728 H   0  0  0  0  0  0  0  0  0  0  0  0
   59.2210   31.8190   45.2970 H   0  0  0  0  0  0  0  0  0  0  0  0
   57.3910   33.6904   43.8075 H   0  0  0  0  0  0  0  0  0  0  0  0
   58.7033   32.8598   42.9041 H   0  0  0  0  0  0  0  0  0  0  0  0
   59.6351   30.4283   45.3108 H   0  0  0  0  0  0  0  0  0  0  0  0
   60.7171   28.2792   45.9697 H   0  0  0  0  0  0  0  0  0  0  0  0
   59.3411   26.2198   46.2669 H   0  0  0  0  0  0  0  0  0  0  0  0
   54.7640   27.0930   46.5440 H   0  0  0  0  0  0  0  0  0  0  0  0
   55.7909   28.4406   45.1793 H   0  0  0  0  0  0  0  0  0  0  0  0
   57.8712   32.2080   47.5864 H   0  0  0  0  0  0  0  0  0  0  0  0
  1  2  1  0
  2  3  1  0
  3  4  2  0
  4  5  1  0
  5  6  2  0
  6  7  1  0
  7  8  1  0
  8  9  2  0
  8 10  1  0
 10 11  1  0
 11 12  1  0
 12 13  2  0
 12 14  1  0
 14 15  1  0
 15 16  2  0
 16 17  1  0
 17 18  2  0
 18 19  1  0
 19 20  1  0
 20 21  1  0
 20 22  2  0
 20 23  2  0
 19 24  2  0
  7 25  2  0
 25  3  1  0
 24 15  1  0
  1 26  1  0
  1 27  1  0
  1 28  1  0
  4 29  1  0
  5 30  1  0
  6 31  1  0
 10 32  1  0
 11 33  1  0
 11 34  1  0
 16 35  1  0
 17 36  1  0
 18 37  1  0
 21 38  1  0
 24 39  1  0
 25 40  1  0
M  CHG  2  14  -1  21  -1
M  END
>  <UniqueID>  (65) 
58

>  <SMILES>  (65) 
COc1cccc(C(=O)NCC(=O)[N-]c2cccc(S([NH-])(=O)=O)c2)c1

>  <Energy>  (65) 
42.922033627823645

>  <Genealogy>  (65) 
COc1cccc(C(=O)NCC(=O)[N-]c2cccc(S([NH-])(=O)=O)c2)c1 (protonated)
COc1cccc(C(=O)NCC(=O)[N-]c2cccc(S([NH-])(=O)=O)c2)c1 (3D coordinates assigned)
COc1cccc(C(=O)NCC(=O)[N-]c2cccc(S([NH-])(=O)=O)c2)c1 (optimized conformer: 42.922033627823645 kcal/mol)

>  <smiles>  (65) 
COc1cccc(C(=O)NCC(=O)Nc2cccc(S(N)(=O)=O)c2)c1

>  <score_type>  (65) 
oracle

>  <origin>  (65) 
adg

>  <m_score__min__energy>  (65) 
-12.369999999999999

>  <m_primary>  (65) 
energy

$$$$
65:0
     RDKit          3D

 46 48  0  0  0  0  0  0  0  0999 V2000
   56.6470   30.5520   43.9050 C   0  0  0  0  0  0  0  0  0  0  0  0
   57.0270   31.0810   45.1710 O   0  0  0  0  0  0  0  0  0  0  0  0
   57.7890   32.2440   45.3460 C   0  0  0  0  0  0  0  0  0  0  0  0
   58.2080   33.0410   44.2640 C   0  0  0  0  0  0  0  0  0  0  0  0
   58.9570   34.1970   44.4930 C   0  0  0  0  0  0  0  0  0  0  0  0
   59.3080   34.5650   45.7930 C   0  0  0  0  0  0  0  0  0  0  0  0
   60.0170   35.7050   45.9870 F   0  0  0  0  0  0  0  0  0  0  0  0
   58.9240   33.7620   46.8830 C   0  0  0  0  0  0  0  0  0  0  0  0
   59.2890   34.1460   48.2970 C   0  0  0  0  0  0  0  0  0  0  0  0
   60.7350   34.2860   48.4530 N   0  0  0  0  0  0  0  0  0  0  0  0
   61.6770   33.3220   47.9680 C   0  0  0  0  0  0  0  0  0  0  0  0
   61.9480   31.9770   48.1790 C   0  0  0  0  0  0  0  0  0  0  0  0
   61.3810   30.9350   48.9870 N   0  0  0  0  0  0  0  0  0  0  0  0
   59.9160   30.8560   48.8450 C   0  0  0  0  0  0  0  0  0  0  0  0
   59.3940   29.4190   48.6390 C   0  0  0  0  0  0  0  0  0  0  0  0
   59.3370   29.0290   47.1840 C   0  0  0  0  0  0  0  0  0  0  0  0
   60.3440   29.4460   46.2970 C   0  0  0  0  0  0  0  0  0  0  0  0
   60.3070   29.0540   44.9560 C   0  0  0  0  0  0  0  0  0  0  0  0
   59.2670   28.2450   44.4920 C   0  0  0  0  0  0  0  0  0  0  0  0
   58.2630   27.8260   45.3680 C   0  0  0  0  0  0  0  0  0  0  0  0
   58.2950   28.2160   46.7090 C   0  0  0  0  0  0  0  0  0  0  0  0
   62.9580   32.0390   47.2350 C   0  0  0  0  0  0  0  0  0  0  0  0
   63.7700   31.2140   46.7440 O   0  0  0  0  0  0  0  0  0  0  0  0
   62.7180   33.3850   47.0630 C   0  0  0  0  0  0  0  0  0  0  0  0
   63.2240   34.2950   46.3540 O   0  0  0  0  0  0  0  0  0  0  0  0
   58.1420   32.6180   46.6480 C   0  0  0  0  0  0  0  0  0  0  0  0
   56.0111   29.6668   44.0534 H   0  0  0  0  0  0  0  0  0  0  0  0
   56.0887   31.3142   43.3417 H   0  0  0  0  0  0  0  0  0  0  0  0
   57.5476   30.2663   43.3417 H   0  0  0  0  0  0  0  0  0  0  0  0
   57.9448   32.7525   43.2357 H   0  0  0  0  0  0  0  0  0  0  0  0
   59.2723   34.8213   43.6440 H   0  0  0  0  0  0  0  0  0  0  0  0
   58.8076   35.1038   48.5437 H   0  0  0  0  0  0  0  0  0  0  0  0
   58.9424   33.3505   48.9731 H   0  0  0  0  0  0  0  0  0  0  0  0
   61.1080   35.1590   48.8870 H   0  0  0  0  0  0  0  0  0  0  0  0
   61.8050   30.0190   48.7290 H   0  0  0  0  0  0  0  0  0  0  0  0
   61.6150   31.1360   49.9860 H   0  0  0  0  0  0  0  0  0  0  0  0
   59.4553   31.2665   49.7557 H   0  0  0  0  0  0  0  0  0  0  0  0
   59.6468   31.4299   47.9460 H   0  0  0  0  0  0  0  0  0  0  0  0
   60.0627   28.7219   49.1652 H   0  0  0  0  0  0  0  0  0  0  0  0
   58.3696   29.3750   49.0374 H   0  0  0  0  0  0  0  0  0  0  0  0
   61.1642   30.0831   46.6594 H   0  0  0  0  0  0  0  0  0  0  0  0
   61.0975   29.3828   44.2653 H   0  0  0  0  0  0  0  0  0  0  0  0
   59.2387   27.9378   43.4362 H   0  0  0  0  0  0  0  0  0  0  0  0
   57.4456   27.1877   45.0012 H   0  0  0  0  0  0  0  0  0  0  0  0
   57.5014   27.8852   47.3952 H   0  0  0  0  0  0  0  0  0  0  0  0
   57.8028   32.0084   47.4985 H   0  0  0  0  0  0  0  0  0  0  0  0
  1  2  1  0
  2  3  1  0
  3  4  2  0
  4  5  1  0
  5  6  2  0
  6  7  1  0
  6  8  1  0
  8  9  1  0
  9 10  1  0
 10 11  1  0
 11 12  2  0
 12 13  1  0
 13 14  1  0
 14 15  1  0
 15 16  1  0
 16 17  2  0
 17 18  1  0
 18 19  2  0
 19 20  1  0
 20 21  2  0
 12 22  1  0
 22 23  2  0
 22 24  1  0
 24 25  2  0
  8 26  2  0
 26  3  1  0
 24 11  1  0
 21 16  1  0
  1 27  1  0
  1 28  1  0
  1 29  1  0
  4 30  1  0
  5 31  1  0
  9 32  1  0
  9 33  1  0
 10 34  1  0
 13 35  1  0
 13 36  1  0
 14 37  1  0
 14 38  1  0
 15 39  1  0
 15 40  1  0
 17 41  1  0
 18 42  1  0
 19 43  1  0
 20 44  1  0
 21 45  1  0
 26 46  1  0
M  CHG  1  13   1
M  END
>  <UniqueID>  (66) 
59

>  <SMILES>  (66) 
COc1ccc(F)c(CNc2c([NH2+]CCc3ccccc3)c(=O)c2=O)c1

>  <Energy>  (66) 
32.729433900169795

>  <Genealogy>  (66) 
COc1ccc(F)c(CNc2c([NH2+]CCc3ccccc3)c(=O)c2=O)c1 (protonated)
COc1ccc(F)c(CNc2c([NH2+]CCc3ccccc3)c(=O)c2=O)c1 (3D coordinates assigned)
COc1ccc(F)c(CNc2c([NH2+]CCc3ccccc3)c(=O)c2=O)c1 (optimized conformer: 32.729433900169795 kcal/mol)

>  <smiles>  (66) 
COc1ccc(F)c(CNc2c(NCCc3ccccc3)c(=O)c2=O)c1

>  <score_type>  (66) 
oracle

>  <origin>  (66) 
adg

>  <m_score__min__energy>  (66) 
-5.9699999999999998

>  <m_primary>  (66) 
energy

$$$$
66:0
     RDKit          3D

 44 46  0  0  0  0  0  0  0  0999 V2000
   63.3030   33.8120   47.3800 C   0  0  0  0  0  0  0  0  0  0  0  0
   62.2710   33.9990   46.4180 O   0  0  0  0  0  0  0  0  0  0  0  0
   60.9100   33.7410   46.6390 C   0  0  0  0  0  0  0  0  0  0  0  0
   59.9450   34.7650   46.5520 C   0  0  0  0  0  0  0  0  0  0  0  0
   58.5970   34.4910   46.7860 C   0  0  0  0  0  0  0  0  0  0  0  0
   58.1930   33.1980   47.1160 C   0  0  0  0  0  0  0  0  0  0  0  0
   59.1360   32.1730   47.2070 C   0  0  0  0  0  0  0  0  0  0  0  0
   60.4980   32.4240   46.9560 C   0  0  0  0  0  0  0  0  0  0  0  0
   61.4910   31.2840   47.0830 C   0  0  0  0  0  0  0  0  0  0  0  0
   61.0030   30.1780   48.0180 C   0  0  0  0  0  0  0  0  0  0  0  0
   60.4620   28.9430   47.5360 C   0  0  0  0  0  0  0  0  0  0  0  0
   60.2950   28.6480   46.0490 C   0  0  0  0  0  0  0  0  0  0  0  0
   58.8520   28.7360   45.6070 C   0  0  0  0  0  0  0  0  0  0  0  0
   57.9690   27.6760   45.8800 C   0  0  0  0  0  0  0  0  0  0  0  0
   56.6250   27.7600   45.5040 C   0  0  0  0  0  0  0  0  0  0  0  0
   56.1450   28.9060   44.8660 C   0  0  0  0  0  0  0  0  0  0  0  0
   54.8090   28.9870   44.4930 O   0  0  0  0  0  0  0  0  0  0  0  0
   57.0100   29.9740   44.6060 C   0  0  0  0  0  0  0  0  0  0  0  0
   58.3540   29.8940   44.9800 C   0  0  0  0  0  0  0  0  0  0  0  0
   60.0850   27.9550   48.4840 C   0  0  0  0  0  0  0  0  0  0  0  0
   59.5830   26.6690   48.0960 N   0  0  0  0  0  0  0  0  0  0  0  0
   60.2030   28.2090   49.8110 N   0  0  0  0  0  0  0  0  0  0  0  0
   60.6910   29.3730   50.2950 C   0  0  0  0  0  0  0  0  0  0  0  0
   60.7680   29.5330   51.5440 O   0  0  0  0  0  0  0  0  0  0  0  0
   61.1110   30.3770   49.4180 C   0  0  0  0  0  0  0  0  0  0  0  0
   61.6640   31.5990   49.9690 C   0  0  0  0  0  0  0  0  0  0  0  0
   62.1070   32.5720   50.4110 N   0  0  0  0  0  0  0  0  0  0  0  0
   62.8791   33.8888   48.3921 H   0  0  0  0  0  0  0  0  0  0  0  0
   63.7536   32.8176   47.2457 H   0  0  0  0  0  0  0  0  0  0  0  0
   64.0739   34.5851   47.2457 H   0  0  0  0  0  0  0  0  0  0  0  0
   60.2573   35.7886   46.2975 H   0  0  0  0  0  0  0  0  0  0  0  0
   57.8518   35.2965   46.7100 H   0  0  0  0  0  0  0  0  0  0  0  0
   57.1303   32.9855   47.3048 H   0  0  0  0  0  0  0  0  0  0  0  0
   58.8111   31.1576   47.4779 H   0  0  0  0  0  0  0  0  0  0  0  0
   61.6605   30.8522   46.0856 H   0  0  0  0  0  0  0  0  0  0  0  0
   62.4169   31.6961   47.5107 H   0  0  0  0  0  0  0  0  0  0  0  0
   60.8862   29.3766   45.4749 H   0  0  0  0  0  0  0  0  0  0  0  0
   60.6410   27.6196   45.8682 H   0  0  0  0  0  0  0  0  0  0  0  0
   58.3380   26.7753   46.3925 H   0  0  0  0  0  0  0  0  0  0  0  0
   55.9439   26.9214   45.7112 H   0  0  0  0  0  0  0  0  0  0  0  0
   56.6318   30.8781   44.1064 H   0  0  0  0  0  0  0  0  0  0  0  0
   59.0273   30.7413   44.7832 H   0  0  0  0  0  0  0  0  0  0  0  0
   58.5970   26.3680   48.2440 H   0  0  0  0  0  0  0  0  0  0  0  0
   60.2090   26.0070   47.5860 H   0  0  0  0  0  0  0  0  0  0  0  0
  1  2  1  0
  2  3  1  0
  3  4  2  0
  4  5  1  0
  5  6  2  0
  6  7  1  0
  7  8  2  0
  8  9  1  0
  9 10  1  0
 10 11  1  0
 11 12  1  0
 12 13  1  0
 13 14  2  0
 14 15  1  0
 15 16  2  0
 16 17  1  0
 16 18  1  0
 18 19  2  0
 11 20  2  0
 20 21  1  0
 20 22  1  0
 22 23  1  0
 23 24  2  0
 23 25  1  0
 25 26  1  0
 26 27  3  0
  8  3  1  0
 25 10  2  0
 19 13  1  0
  1 28  1  0
  1 29  1  0
  1 30  1  0
  4 31  1  0
  5 32  1  0
  6 33  1  0
  7 34  1  0
  9 35  1  0
  9 36  1  0
 12 37  1  0
 12 38  1  0
 14 39  1  0
 15 40  1  0
 18 41  1  0
 19 42  1  0
 21 43  1  0
 21 44  1  0
M  CHG  2  17  -1  22  -1
M  END
>  <UniqueID>  (67) 
60

>  <SMILES>  (67) 
COc1ccccc1Cc1c(Cc2ccc([O-])cc2)c(N)[n-]c(=O)c1C#N

>  <Energy>  (67) 
54.998323679092664

>  <Genealogy>  (67) 
COc1ccccc1Cc1c(Cc2ccc([O-])cc2)c(N)[n-]c(=O)c1C#N (protonated)
COc1ccccc1Cc1c(Cc2ccc([O-])cc2)c(N)[n-]c(=O)c1C#N (3D coordinates assigned)
COc1ccccc1Cc1c(Cc2ccc([O-])cc2)c(N)[n-]c(=O)c1C#N (optimized conformer: 54.998323679092664 kcal/mol)

>  <smiles>  (67) 
COc1ccccc1Cc1c(Cc2ccc(O)cc2)c(N)[nH]c(=O)c1C#N

>  <score_type>  (67) 
oracle

>  <origin>  (67) 
adg

>  <m_score__min__energy>  (67) 
-10.779999999999999

>  <m_primary>  (67) 
energy

$$$$
67:0
     RDKit          3D

 38 39  0  0  0  0  0  0  0  0999 V2000
   59.0754   25.1502   46.7131 H   0  0  0  0  0  0  0  0  0  0  0  0
   58.4300   25.9510   46.3230 C   0  0  0  0  0  0  0  0  0  0  0  0
   59.0000   27.0850   45.7400 C   0  0  0  0  0  0  0  0  0  0  0  0
   60.0939   27.1745   45.6673 H   0  0  0  0  0  0  0  0  0  0  0  0
   58.1820   28.1060   45.2490 C   0  0  0  0  0  0  0  0  0  0  0  0
   58.6353   28.9933   44.7830 H   0  0  0  0  0  0  0  0  0  0  0  0
   56.7830   28.0060   45.3470 C   0  0  0  0  0  0  0  0  0  0  0  0
   55.9150   29.0940   44.7690 C   0  0  0  0  0  0  0  0  0  0  0  0
   55.2093   29.4448   45.5364 H   0  0  0  0  0  0  0  0  0  0  0  0
   55.3578   28.6959   43.9081 H   0  0  0  0  0  0  0  0  0  0  0  0
   56.7720   30.2410   44.3180 C   0  0  0  0  0  0  0  0  0  0  0  0
   57.2970   31.0210   45.2130 N   0  0  0  0  0  0  0  0  0  0  0  0
   57.0240   32.3700   45.2440 O   0  0  0  0  0  0  0  0  0  0  0  0
   57.8470   33.2840   44.5910 C   0  0  0  0  0  0  0  0  0  0  0  0
   58.4060   32.9790   43.5030 O   0  0  0  0  0  0  0  0  0  0  0  0
   58.1350   34.5980   45.2400 C   0  0  0  0  0  0  0  0  0  0  0  0
   57.9715   35.4044   44.5100 H   0  0  0  0  0  0  0  0  0  0  0  0
   57.4630   34.7203   46.1023 H   0  0  0  0  0  0  0  0  0  0  0  0
   59.8640   34.6650   45.8300 S   0  0  0  0  0  0  0  0  0  0  0  0
   59.5830   33.6610   47.2970 C   0  0  0  0  0  0  0  0  0  0  0  0
   59.8510   34.1910   48.5650 C   0  0  0  0  0  0  0  0  0  0  0  0
   60.2171   35.2230   48.6696 H   0  0  0  0  0  0  0  0  0  0  0  0
   59.6490   33.3970   49.6950 C   0  0  0  0  0  0  0  0  0  0  0  0
   59.8606   33.7991   50.6968 H   0  0  0  0  0  0  0  0  0  0  0  0
   59.1780   32.0920   49.5500 C   0  0  0  0  0  0  0  0  0  0  0  0
   59.0178   31.4573   50.4340 H   0  0  0  0  0  0  0  0  0  0  0  0
   58.9120   31.6000   48.2700 C   0  0  0  0  0  0  0  0  0  0  0  0
   58.5381   30.5732   48.1441 H   0  0  0  0  0  0  0  0  0  0  0  0
   59.1140   32.3870   47.1780 N   0  0  0  0  0  0  0  0  0  0  0  0
   58.9130   31.9980   46.2280 H   0  0  0  0  0  0  0  0  0  0  0  0
   56.9400   30.5340   42.8530 C   0  0  0  0  0  0  0  0  0  0  0  0
   57.4836   31.4822   42.7287 H   0  0  0  0  0  0  0  0  0  0  0  0
   57.5088   29.7204   42.3792 H   0  0  0  0  0  0  0  0  0  0  0  0
   55.9505   30.6139   42.3792 H   0  0  0  0  0  0  0  0  0  0  0  0
   56.2150   26.8510   45.9210 C   0  0  0  0  0  0  0  0  0  0  0  0
   54.8350   26.7040   46.0040 O   0  0  0  0  0  0  0  0  0  0  0  0
   57.0410   25.8330   46.4110 C   0  0  0  0  0  0  0  0  0  0  0  0
   56.5948   24.9369   46.8670 H   0  0  0  0  0  0  0  0  0  0  0  0
  1  2  1  0
  2  3  2  0
  3  4  1  0
  3  5  1  0
  5  6  1  0
  5  7  2  0
  7  8  1  0
  8  9  1  0
  8 10  1  0
  8 11  1  0
 11 12  2  0
 12 13  1  0
 13 14  1  0
 14 15  2  0
 14 16  1  0
 16 17  1  0
 16 18  1  0
 16 19  1  0
 19 20  1  0
 20 21  2  0
 21 22  1  0
 21 23  1  0
 23 24  1  0
 23 25  2  0
 25 26  1  0
 25 27  1  0
 27 28  1  0
 27 29  2  0
 29 30  1  0
 11 31  1  0
 31 32  1  0
 31 33  1  0
 31 34  1  0
  7 35  1  0
 35 36  1  0
 35 37  2  0
 37 38  1  0
 37  2  1  0
 29 20  1  0
M  CHG  2  29   1  36  -1
M  END
>  <UniqueID>  (68) 
61

>  <SMILES>  (68) 
C/C(Cc1ccccc1[O-])=N\OC(=O)CSc1cccc[nH+]1

>  <Energy>  (68) 
24.386396831119132

>  <Genealogy>  (68) 
CC(Cc1ccccc1[O-])=NOC(=O)CSc1cccc[nH+]1 (protonated)
C/C(Cc1ccccc1[O-])=N\OC(=O)CSc1cccc[nH+]1 (cis-trans isomerization)
C/C(Cc1ccccc1[O-])=N\OC(=O)CSc1cccc[nH+]1 (3D coordinates assigned)
C/C(Cc1ccccc1[O-])=N\OC(=O)CSc1cccc[nH+]1 (optimized conformer: 24.386396831119132 kcal/mol)

>  <smiles>  (68) 
CC(Cc1ccccc1O)=NOC(=O)CSc1ccccn1

>  <score_type>  (68) 
oracle

>  <origin>  (68) 
adg

>  <m_score__min__energy>  (68) 
-9.6999999999999993

>  <m_primary>  (68) 
energy

$$$$
68:0
     RDKit          3D

 42 44  0  0  0  0  0  0  0  0999 V2000
   55.1360   29.3330   44.8680 O   0  0  0  0  0  0  0  0  0  0  0  0
   56.3690   29.5270   44.7020 C   0  0  0  0  0  0  0  0  0  0  0  0
   56.8300   30.7950   44.0460 C   0  0  0  0  0  0  0  0  0  0  0  0
   56.5170   31.9060   44.8790 O   0  0  0  0  0  0  0  0  0  0  0  0
   57.4570   32.8320   45.3510 C   0  0  0  0  0  0  0  0  0  0  0  0
   57.6050   33.1320   46.7200 C   0  0  0  0  0  0  0  0  0  0  0  0
   58.5560   34.0660   47.1370 C   0  0  0  0  0  0  0  0  0  0  0  0
   59.3690   34.7070   46.1970 C   0  0  0  0  0  0  0  0  0  0  0  0
   59.2330   34.4110   44.8400 C   0  0  0  0  0  0  0  0  0  0  0  0
   58.2800   33.4790   44.4180 C   0  0  0  0  0  0  0  0  0  0  0  0
   57.2990   28.5460   45.1790 N   0  0  0  0  0  0  0  0  0  0  0  0
   58.2750   28.7780   46.2040 C   0  0  0  0  0  0  0  0  0  0  0  0
   58.9050   30.0260   46.3160 C   0  0  0  0  0  0  0  0  0  0  0  0
   59.8260   30.2620   47.3380 C   0  0  0  0  0  0  0  0  0  0  0  0
   60.1310   29.2490   48.2620 C   0  0  0  0  0  0  0  0  0  0  0  0
   61.0470   29.4710   49.3430 N   0  0  0  0  0  0  0  0  0  0  0  0
   61.4710   30.7500   49.8360 C   0  0  0  0  0  0  0  0  0  0  0  0
   61.3800   30.9800   51.0710 O   0  0  0  0  0  0  0  0  0  0  0  0
   61.9650   31.8200   48.9330 C   0  0  0  0  0  0  0  0  0  0  0  0
   61.4840   33.1380   49.0450 C   0  0  0  0  0  0  0  0  0  0  0  0
   61.9590   34.1380   48.1890 C   0  0  0  0  0  0  0  0  0  0  0  0
   62.9250   33.8350   47.2270 C   0  0  0  0  0  0  0  0  0  0  0  0
   63.4170   32.5330   47.1160 C   0  0  0  0  0  0  0  0  0  0  0  0
   62.9440   31.5290   47.9670 C   0  0  0  0  0  0  0  0  0  0  0  0
   59.5590   27.9810   48.1040 C   0  0  0  0  0  0  0  0  0  0  0  0
   58.6350   27.7420   47.0790 C   0  0  0  0  0  0  0  0  0  0  0  0
   57.9050   26.1490   46.9370 Cl  0  0  0  0  0  0  0  0  0  0  0  0
   57.9178   30.7509   43.8884 H   0  0  0  0  0  0  0  0  0  0  0  0
   56.3214   30.9105   43.0775 H   0  0  0  0  0  0  0  0  0  0  0  0
   56.9690   32.6286   47.4630 H   0  0  0  0  0  0  0  0  0  0  0  0
   58.6657   34.2978   48.2067 H   0  0  0  0  0  0  0  0  0  0  0  0
   60.1155   35.4444   46.5271 H   0  0  0  0  0  0  0  0  0  0  0  0
   59.8764   34.9116   44.1014 H   0  0  0  0  0  0  0  0  0  0  0  0
   58.1751   33.2517   43.3469 H   0  0  0  0  0  0  0  0  0  0  0  0
   58.6721   30.8231   45.5946 H   0  0  0  0  0  0  0  0  0  0  0  0
   60.3144   31.2442   47.4200 H   0  0  0  0  0  0  0  0  0  0  0  0
   60.7313   33.3831   49.8088 H   0  0  0  0  0  0  0  0  0  0  0  0
   61.5711   35.1638   48.2740 H   0  0  0  0  0  0  0  0  0  0  0  0
   63.2986   34.6227   46.5562 H   0  0  0  0  0  0  0  0  0  0  0  0
   64.1781   32.2965   46.3578 H   0  0  0  0  0  0  0  0  0  0  0  0
   63.3400   30.5065   47.8800 H   0  0  0  0  0  0  0  0  0  0  0  0
   59.8372   27.1669   48.7895 H   0  0  0  0  0  0  0  0  0  0  0  0
  1  2  2  0
  2  3  1  0
  3  4  1  0
  4  5  1  0
  5  6  2  0
  6  7  1  0
  7  8  2  0
  8  9  1  0
  9 10  2  0
  2 11  1  0
 11 12  1  0
 12 13  2  0
 13 14  1  0
 14 15  2  0
 15 16  1  0
 16 17  1  0
 17 18  2  0
 17 19  1  0
 19 20  2  0
 20 21  1  0
 21 22  2  0
 22 23  1  0
 23 24  2  0
 15 25  1  0
 25 26  2  0
 26 27  1  0
 10  5  1  0
 26 12  1  0
 24 19  1  0
  3 28  1  0
  3 29  1  0
  6 30  1  0
  7 31  1  0
  8 32  1  0
  9 33  1  0
 10 34  1  0
 13 35  1  0
 14 36  1  0
 20 37  1  0
 21 38  1  0
 22 39  1  0
 23 40  1  0
 24 41  1  0
 25 42  1  0
M  CHG  2  11  -1  16  -1
M  END
>  <UniqueID>  (69) 
62

>  <SMILES>  (69) 
O=C(COc1ccccc1)[N-]c1ccc([N-]C(=O)c2ccccc2)cc1Cl

>  <Energy>  (69) 
52.62471039442615

>  <Genealogy>  (69) 
O=C(COc1ccccc1)[N-]c1ccc([N-]C(=O)c2ccccc2)cc1Cl (protonated)
O=C(COc1ccccc1)[N-]c1ccc([N-]C(=O)c2ccccc2)cc1Cl (3D coordinates assigned)
O=C(COc1ccccc1)[N-]c1ccc([N-]C(=O)c2ccccc2)cc1Cl (optimized conformer: 52.62471039442615 kcal/mol)

>  <smiles>  (69) 
O=C(COc1ccccc1)Nc1ccc(NC(=O)c2ccccc2)cc1Cl

>  <score_type>  (69) 
oracle

>  <origin>  (69) 
adg

>  <m_score__min__energy>  (69) 
-11.550000000000001

>  <m_primary>  (69) 
energy

$$$$
69:0
     RDKit          3D

 51 54  0  0  0  0  0  0  0  0999 V2000
   59.4860   33.0830   49.5030 C   0  0  0  0  0  0  0  0  0  0  0  0
   59.2830   31.6970   48.9130 C   0  0  0  0  0  0  0  0  0  0  0  0
   60.5000   31.2520   48.3200 O   0  0  0  0  0  0  0  0  0  0  0  0
   61.5430   32.0940   47.9050 C   0  0  0  0  0  0  0  0  0  0  0  0
   62.7760   32.1390   48.5860 C   0  0  0  0  0  0  0  0  0  0  0  0
   63.7770   33.0260   48.1790 C   0  0  0  0  0  0  0  0  0  0  0  0
   63.5580   33.8790   47.0970 C   0  0  0  0  0  0  0  0  0  0  0  0
   62.3440   33.8390   46.4100 C   0  0  0  0  0  0  0  0  0  0  0  0
   61.3410   32.9360   46.7900 C   0  0  0  0  0  0  0  0  0  0  0  0
   60.1050   32.9220   46.0610 N   0  0  0  0  0  0  0  0  0  0  0  0
   59.1690   34.0110   46.0830 C   0  0  0  0  0  0  0  0  0  0  0  0
   59.3620   35.0060   46.8340 O   0  0  0  0  0  0  0  0  0  0  0  0
   57.9210   33.9440   45.2590 C   0  0  0  0  0  0  0  0  0  0  0  0
   58.2090   33.0160   43.7120 S   0  0  0  0  0  0  0  0  0  0  0  0
   57.8880   31.4100   44.4370 C   0  0  0  0  0  0  0  0  0  0  0  0
   58.6320   30.8860   45.4400 N   0  0  0  0  0  0  0  0  0  0  0  0
   58.1670   29.6620   45.7940 C   0  0  0  0  0  0  0  0  0  0  0  0
   58.7210   28.8680   46.7970 C   0  0  0  0  0  0  0  0  0  0  0  0
   58.1420   27.6160   47.0660 C   0  0  0  0  0  0  0  0  0  0  0  0
   57.0250   27.1610   46.3200 C   0  0  0  0  0  0  0  0  0  0  0  0
   56.4060   25.8960   46.5950 N   0  0  0  0  0  0  0  0  0  0  0  0
   55.4960   25.1990   45.7350 C   0  0  0  0  0  0  0  0  0  0  0  0
   54.3210   25.6370   45.6210 O   0  0  0  0  0  0  0  0  0  0  0  0
   55.9330   24.0400   44.9250 C   0  0  0  0  0  0  0  0  0  0  0  0
   55.9110   24.0860   43.5630 N   0  0  0  0  0  0  0  0  0  0  0  0
   56.3270   22.9330   42.9960 C   0  0  0  0  0  0  0  0  0  0  0  0
   56.7370   21.7990   44.1650 S   0  0  0  0  0  0  0  0  0  0  0  0
   56.3750   22.8210   45.4510 C   0  0  0  0  0  0  0  0  0  0  0  0
   56.5130   22.4480   46.8920 C   0  0  0  0  0  0  0  0  0  0  0  0
   56.4670   27.9870   45.3280 C   0  0  0  0  0  0  0  0  0  0  0  0
   57.0630   29.2210   45.0820 C   0  0  0  0  0  0  0  0  0  0  0  0
   56.6250   30.3880   43.9590 S   0  0  0  0  0  0  0  0  0  0  0  0
   59.4766   33.0190   50.6011 H   0  0  0  0  0  0  0  0  0  0  0  0
   60.4528   33.4864   49.1674 H   0  0  0  0  0  0  0  0  0  0  0  0
   58.6755   33.7467   49.1674 H   0  0  0  0  0  0  0  0  0  0  0  0
   58.9862   30.9989   49.7096 H   0  0  0  0  0  0  0  0  0  0  0  0
   58.4939   31.7355   48.1476 H   0  0  0  0  0  0  0  0  0  0  0  0
   62.9518   31.4722   49.4430 H   0  0  0  0  0  0  0  0  0  0  0  0
   64.7386   33.0514   48.7126 H   0  0  0  0  0  0  0  0  0  0  0  0
   64.3429   34.5837   46.7851 H   0  0  0  0  0  0  0  0  0  0  0  0
   62.1727   34.5210   45.5641 H   0  0  0  0  0  0  0  0  0  0  0  0
   59.7990   32.0200   45.6300 H   0  0  0  0  0  0  0  0  0  0  0  0
   57.1332   33.4411   45.8391 H   0  0  0  0  0  0  0  0  0  0  0  0
   57.6147   34.9687   45.0018 H   0  0  0  0  0  0  0  0  0  0  0  0
   59.5952   29.2150   47.3674 H   0  0  0  0  0  0  0  0  0  0  0  0
   58.5592   26.9828   47.8629 H   0  0  0  0  0  0  0  0  0  0  0  0
   56.3891   22.7595   41.9115 H   0  0  0  0  0  0  0  0  0  0  0  0
   56.2000   23.2941   47.5214 H   0  0  0  0  0  0  0  0  0  0  0  0
   55.8780   21.5761   47.1075 H   0  0  0  0  0  0  0  0  0  0  0  0
   57.5626   22.1994   47.1075 H   0  0  0  0  0  0  0  0  0  0  0  0
   55.5812   27.6660   44.7602 H   0  0  0  0  0  0  0  0  0  0  0  0
  1  2  1  0
  2  3  1  0
  3  4  1  0
  4  5  2  0
  5  6  1  0
  6  7  2  0
  7  8  1  0
  8  9  2  0
  9 10  1  0
 10 11  1  0
 11 12  2  0
 11 13  1  0
 13 14  1  0
 14 15  1  0
 15 16  2  0
 16 17  1  0
 17 18  2  0
 18 19  1  0
 19 20  2  0
 20 21  1  0
 21 22  1  0
 22 23  2  0
 22 24  1  0
 24 25  1  0
 25 26  2  0
 26 27  1  0
 27 28  1  0
 28 29  1  0
 20 30  1  0
 30 31  2  0
 31 32  1  0
  9  4  1  0
 32 15  1  0
 31 17  1  0
 28 24  2  0
  1 33  1  0
  1 34  1  0
  1 35  1  0
  2 36  1  0
  2 37  1  0
  5 38  1  0
  6 39  1  0
  7 40  1  0
  8 41  1  0
 10 42  1  0
 13 43  1  0
 13 44  1  0
 18 45  1  0
 19 46  1  0
 26 47  1  0
 29 48  1  0
 29 49  1  0
 29 50  1  0
 30 51  1  0
M  CHG  1  21  -1
M  END
>  <UniqueID>  (70) 
63

>  <SMILES>  (70) 
CCOc1ccccc1NC(=O)CSc1nc2ccc([N-]C(=O)c3ncsc3C)cc2s1

>  <Energy>  (70) 
119.81701683929346

>  <Genealogy>  (70) 
CCOc1ccccc1NC(=O)CSc1nc2ccc([N-]C(=O)c3ncsc3C)cc2s1 (protonated)
CCOc1ccccc1NC(=O)CSc1nc2ccc([N-]C(=O)c3ncsc3C)cc2s1 (3D coordinates assigned)
CCOc1ccccc1NC(=O)CSc1nc2ccc([N-]C(=O)c3ncsc3C)cc2s1 (optimized conformer: 119.81701683929346 kcal/mol)

>  <smiles>  (70) 
CCOc1ccccc1NC(=O)CSc1nc2ccc(NC(=O)c3ncsc3C)cc2s1

>  <score_type>  (70) 
oracle

>  <origin>  (70) 
adg

>  <m_score__min__energy>  (70) 
-10.300000000000001

>  <m_primary>  (70) 
energy

$$$$
70:0
     RDKit          3D

 39 41  0  0  0  0  0  0  0  0999 V2000
   57.5889   25.5450   47.4247 H   0  0  0  0  0  0  0  0  0  0  0  0
   57.1500   25.9010   46.4810 C   0  0  0  0  0  0  0  0  0  0  0  0
   56.3200   24.9610   45.6960 C   0  0  0  0  0  0  0  0  0  0  0  0
   56.9060   23.7760   45.2230 C   0  0  0  0  0  0  0  0  0  0  0  0
   57.9659   23.5689   45.4323 H   0  0  0  0  0  0  0  0  0  0  0  0
   56.1510   22.8580   44.4880 C   0  0  0  0  0  0  0  0  0  0  0  0
   56.6209   21.9384   44.1091 H   0  0  0  0  0  0  0  0  0  0  0  0
   54.8000   23.1070   44.2340 C   0  0  0  0  0  0  0  0  0  0  0  0
   54.2097   22.3886   43.6463 H   0  0  0  0  0  0  0  0  0  0  0  0
   54.1980   24.2680   44.7260 C   0  0  0  0  0  0  0  0  0  0  0  0
   53.1323   24.4582   44.5305 H   0  0  0  0  0  0  0  0  0  0  0  0
   54.9470   25.1900   45.4670 C   0  0  0  0  0  0  0  0  0  0  0  0
   54.3130   26.3120   45.9910 O   0  0  0  0  0  0  0  0  0  0  0  0
   57.3970   27.1710   46.1010 C   0  0  0  0  0  0  0  0  0  0  0  0
   56.3870   27.9520   45.6360 N   0  0  0  0  0  0  0  0  0  0  0  0
   56.5860   29.2280   45.2220 C   0  0  0  0  0  0  0  0  0  0  0  0
   55.6000   29.8960   44.8060 O   0  0  0  0  0  0  0  0  0  0  0  0
   57.8870   29.7770   45.2550 C   0  0  0  0  0  0  0  0  0  0  0  0
   58.1010   31.0510   44.8470 C   0  0  0  0  0  0  0  0  0  0  0  0
   57.7274   31.3361   43.8525 H   0  0  0  0  0  0  0  0  0  0  0  0
   58.7990   32.0870   45.6380 C   0  0  0  0  0  0  0  0  0  0  0  0
   58.4590   33.4440   45.5170 C   0  0  0  0  0  0  0  0  0  0  0  0
   57.6887   33.7525   44.7949 H   0  0  0  0  0  0  0  0  0  0  0  0
   59.0940   34.4050   46.3090 C   0  0  0  0  0  0  0  0  0  0  0  0
   58.8335   35.4677   46.1953 H   0  0  0  0  0  0  0  0  0  0  0  0
   60.0660   34.0180   47.2520 C   0  0  0  0  0  0  0  0  0  0  0  0
   60.7330   34.9430   48.0690 O   0  0  0  0  0  0  0  0  0  0  0  0
   61.6500   34.5910   49.0990 C   0  0  0  0  0  0  0  0  0  0  0  0
   61.1856   34.7693   50.0801 H   0  0  0  0  0  0  0  0  0  0  0  0
   61.9147   33.5273   49.0065 H   0  0  0  0  0  0  0  0  0  0  0  0
   62.5584   35.2043   49.0065 H   0  0  0  0  0  0  0  0  0  0  0  0
   60.3800   32.6600   47.3900 C   0  0  0  0  0  0  0  0  0  0  0  0
   61.1330   32.3466   48.1281 H   0  0  0  0  0  0  0  0  0  0  0  0
   59.7440   31.6990   46.5970 C   0  0  0  0  0  0  0  0  0  0  0  0
   59.9868   30.6340   46.7269 H   0  0  0  0  0  0  0  0  0  0  0  0
   58.9050   28.9970   45.7360 N   0  0  0  0  0  0  0  0  0  0  0  0
   59.8740   29.3760   45.8350 H   0  0  0  0  0  0  0  0  0  0  0  0
   58.6970   27.7150   46.1490 C   0  0  0  0  0  0  0  0  0  0  0  0
   59.6700   27.0370   46.5800 O   0  0  0  0  0  0  0  0  0  0  0  0
  1  2  1  0
  2  3  1  0
  3  4  2  0
  4  5  1  0
  4  6  1  0
  6  7  1  0
  6  8  2  0
  8  9  1  0
  8 10  1  0
 10 11  1  0
 10 12  2  0
 12 13  1  0
  2 14  2  3
 14 15  1  0
 15 16  1  0
 16 17  2  0
 16 18  1  0
 18 19  2  0
 19 20  1  0
 19 21  1  0
 21 22  2  0
 22 23  1  0
 22 24  1  0
 24 25  1  0
 24 26  2  0
 26 27  1  0
 27 28  1  0
 28 29  1  0
 28 30  1  0
 28 31  1  0
 26 32  1  0
 32 33  1  0
 32 34  2  0
 34 35  1  0
 18 36  1  0
 36 37  1  0
 36 38  1  0
 38 39  2  0
 12  3  1  0
 38 14  1  0
 34 21  1  0
M  CHG  2  13  -1  15  -1
M  END
>  <UniqueID>  (71) 
64

>  <SMILES>  (71) 
COc1ccc(/C=c2\[nH]c(=O)c(=Cc3ccccc3[O-])[n-]c2=O)cc1

>  <Energy>  (71) 
62.66408132145978

>  <Genealogy>  (71) 
COc1ccc(C=c2[nH]c(=O)c(=Cc3ccccc3[O-])[n-]c2=O)cc1 (protonated)
COc1ccc(/C=c2\[nH]c(=O)c(=Cc3ccccc3[O-])[n-]c2=O)cc1 (cis-trans isomerization)
COc1ccc(/C=c2\[nH]c(=O)c(=Cc3ccccc3[O-])[n-]c2=O)cc1 (3D coordinates assigned)
COc1ccc(/C=c2\[nH]c(=O)c(=Cc3ccccc3[O-])[n-]c2=O)cc1 (optimized conformer: 62.66408132145978 kcal/mol)

>  <smiles>  (71) 
COc1ccc(C=c2[nH]c(=O)c(=Cc3ccccc3O)[nH]c2=O)cc1

>  <score_type>  (71) 
oracle

>  <origin>  (71) 
adg

>  <m_score__min__energy>  (71) 
-12.85

>  <m_primary>  (71) 
energy

$$$$
71:0
     RDKit          3D

 36 37  0  0  0  0  0  0  0  0999 V2000
   59.7118   34.2128   48.1055 H   0  0  0  0  0  0  0  0  0  0  0  0
   59.2250   34.0060   47.1410 C   0  0  0  0  0  0  0  0  0  0  0  0
   59.2660   34.9600   46.1300 C   0  0  0  0  0  0  0  0  0  0  0  0
   59.7826   35.9176   46.2914 H   0  0  0  0  0  0  0  0  0  0  0  0
   58.6490   34.6930   44.9150 C   0  0  0  0  0  0  0  0  0  0  0  0
   58.6747   35.4424   44.1102 H   0  0  0  0  0  0  0  0  0  0  0  0
   58.0140   33.5090   44.7180 N   0  0  0  0  0  0  0  0  0  0  0  0
   57.5630   33.3430   43.7900 H   0  0  0  0  0  0  0  0  0  0  0  0
   57.9500   32.5390   45.6790 C   0  0  0  0  0  0  0  0  0  0  0  0
   57.3180   31.4340   45.3760 N   0  0  0  0  0  0  0  0  0  0  0  0
   57.6300   30.3950   44.3910 C   0  0  0  0  0  0  0  0  0  0  0  0
   56.8968   30.4565   43.5733 H   0  0  0  0  0  0  0  0  0  0  0  0
   58.6564   30.5750   44.0388 H   0  0  0  0  0  0  0  0  0  0  0  0
   57.5900   28.9850   44.9740 C   0  0  0  0  0  0  0  0  0  0  0  0
   56.3480   28.3590   45.2400 C   0  0  0  0  0  0  0  0  0  0  0  0
   55.1430   28.9800   44.9210 O   0  0  0  0  0  0  0  0  0  0  0  0
   56.3230   27.0900   45.8200 C   0  0  0  0  0  0  0  0  0  0  0  0
   55.2240   26.5340   46.0880 O   0  0  0  0  0  0  0  0  0  0  0  0
   57.5140   26.4360   46.1040 C   0  0  0  0  0  0  0  0  0  0  0  0
   57.5022   25.4504   46.5924 H   0  0  0  0  0  0  0  0  0  0  0  0
   58.7240   27.0370   45.7660 C   0  0  0  0  0  0  0  0  0  0  0  0
   59.6672   26.5111   45.9752 H   0  0  0  0  0  0  0  0  0  0  0  0
   58.7570   28.2730   45.1770 N   0  0  0  0  0  0  0  0  0  0  0  0
   60.0650   28.8070   44.7660 C   0  0  0  0  0  0  0  0  0  0  0  0
   60.6592   29.0496   45.6594 H   0  0  0  0  0  0  0  0  0  0  0  0
   60.5963   28.0538   44.1657 H   0  0  0  0  0  0  0  0  0  0  0  0
   59.9174   29.7168   44.1657 H   0  0  0  0  0  0  0  0  0  0  0  0
   58.5650   32.7760   46.9410 C   0  0  0  0  0  0  0  0  0  0  0  0
   58.5000   31.8140   47.9630 O   0  0  0  0  0  0  0  0  0  0  0  0
   59.1910   30.5640   47.9880 C   0  0  0  0  0  0  0  0  0  0  0  0
   58.6846   29.8577   47.3136 H   0  0  0  0  0  0  0  0  0  0  0  0
   59.1866   30.1776   49.0179 H   0  0  0  0  0  0  0  0  0  0  0  0
   60.6360   30.7390   47.5360 C   0  0  0  0  0  0  0  0  0  0  0  0
   61.2890   30.8181   48.4177 H   0  0  0  0  0  0  0  0  0  0  0  0
   60.9390   29.8710   46.9320 H   0  0  0  0  0  0  0  0  0  0  0  0
   60.7230   31.6542   46.9320 H   0  0  0  0  0  0  0  0  0  0  0  0
  1  2  1  0
  2  3  1  0
  3  4  1  0
  3  5  2  0
  5  6  1  0
  5  7  1  0
  7  8  1  0
  7  9  1  0
  9 10  2  0
 10 11  1  0
 11 12  1  0
 11 13  1  0
 11 14  1  0
 14 15  2  0
 15 16  1  0
 15 17  1  0
 17 18  2  0
 17 19  1  0
 19 20  1  0
 19 21  2  0
 21 22  1  0
 21 23  1  0
 23 24  1  0
 24 25  1  0
 24 26  1  0
 24 27  1  0
  9 28  1  0
 28 29  1  0
 29 30  1  0
 30 31  1  0
 30 32  1  0
 30 33  1  0
 33 34  1  0
 33 35  1  0
 33 36  1  0
 28  2  2  0
 23 14  1  0
M  CHG  1  16  -1
M  END
>  <UniqueID>  (72) 
65

>  <SMILES>  (72) 
CCOc1ccc[nH]/c1=N/Cc1c([O-])c(=O)ccn1C

>  <Energy>  (72) 
46.18306592879476

>  <Genealogy>  (72) 
CCOc1ccc[nH]c1=NCc1c([O-])c(=O)ccn1C (protonated)
CCOc1ccc[nH]/c1=N/Cc1c([O-])c(=O)ccn1C (cis-trans isomerization)
CCOc1ccc[nH]/c1=N/Cc1c([O-])c(=O)ccn1C (3D coordinates assigned)
CCOc1ccc[nH]/c1=N/Cc1c([O-])c(=O)ccn1C (optimized conformer: 46.18306592879476 kcal/mol)

>  <smiles>  (72) 
CCOc1ccc[nH]c1=NCc1c(O)c(=O)ccn1C

>  <score_type>  (72) 
oracle

>  <origin>  (72) 
adg

>  <m_score__min__energy>  (72) 
-10.23

>  <m_primary>  (72) 
energy

$$$$
72:0
     RDKit          3D

 62 65  0  0  0  0  0  0  0  0999 V2000
   59.3671   34.9486   49.5856 H   0  0  0  0  0  0  0  0  0  0  0  0
   59.7670   34.5760   48.6310 C   0  0  0  0  0  0  0  0  0  0  0  0
   61.1180   34.2350   48.5270 C   0  0  0  0  0  0  0  0  0  0  0  0
   61.7778   34.3264   49.4024 H   0  0  0  0  0  0  0  0  0  0  0  0
   61.6310   33.7770   47.3080 C   0  0  0  0  0  0  0  0  0  0  0  0
   63.0250   33.4310   47.1990 C   0  0  0  0  0  0  0  0  0  0  0  0
   64.1450   33.1530   47.1110 N   0  0  0  0  0  0  0  0  0  0  0  0
   60.7890   33.6500   46.1970 C   0  0  0  0  0  0  0  0  0  0  0  0
   61.1994   33.3088   45.2352 H   0  0  0  0  0  0  0  0  0  0  0  0
   59.4190   33.9570   46.3050 C   0  0  0  0  0  0  0  0  0  0  0  0
   58.4960   33.7420   45.1660 C   0  0  0  0  0  0  0  0  0  0  0  0
   57.6300   34.6200   44.9030 O   0  0  0  0  0  0  0  0  0  0  0  0
   58.5560   32.5690   44.3400 N   0  0  0  0  0  0  0  0  0  0  0  0
   57.9850   31.2820   44.6310 C   0  0  0  0  0  0  0  0  0  0  0  0
   57.0440   30.7340   43.7430 C   0  0  0  0  0  0  0  0  0  0  0  0
   56.6590   31.4890   42.6240 O   0  0  0  0  0  0  0  0  0  0  0  0
   57.5620   32.0310   41.6640 C   0  0  0  0  0  0  0  0  0  0  0  0
   58.3934   32.5300   42.1834 H   0  0  0  0  0  0  0  0  0  0  0  0
   57.9570   31.2206   41.0338 H   0  0  0  0  0  0  0  0  0  0  0  0
   57.0326   32.7608   41.0338 H   0  0  0  0  0  0  0  0  0  0  0  0
   56.5230   29.4500   43.9920 C   0  0  0  0  0  0  0  0  0  0  0  0
   55.7808   29.0197   43.3035 H   0  0  0  0  0  0  0  0  0  0  0  0
   56.9410   28.7170   45.1070 C   0  0  0  0  0  0  0  0  0  0  0  0
   56.4730   27.4570   45.3000 N   0  0  0  0  0  0  0  0  0  0  0  0
   56.8730   26.6930   46.3500 C   0  0  0  0  0  0  0  0  0  0  0  0
   56.3230   25.3130   46.5150 C   0  0  0  0  0  0  0  0  0  0  0  0
   56.2305   25.0808   47.5862 H   0  0  0  0  0  0  0  0  0  0  0  0
   55.3326   25.2538   46.0401 H   0  0  0  0  0  0  0  0  0  0  0  0
   57.0012   24.5888   46.0401 H   0  0  0  0  0  0  0  0  0  0  0  0
   57.8010   27.1970   47.2690 C   0  0  0  0  0  0  0  0  0  0  0  0
   58.1331   26.5749   48.1132 H   0  0  0  0  0  0  0  0  0  0  0  0
   58.3090   28.5010   47.1120 C   0  0  0  0  0  0  0  0  0  0  0  0
   59.2020   29.0010   47.9260 N   0  0  0  0  0  0  0  0  0  0  0  0
   60.6290   29.2120   47.6860 C   0  0  0  0  0  0  0  0  0  0  0  0
   61.2087   28.4936   48.2842 H   0  0  0  0  0  0  0  0  0  0  0  0
   60.8399   29.0647   46.6165 H   0  0  0  0  0  0  0  0  0  0  0  0
   61.0250   30.6400   48.0840 C   0  0  0  0  0  0  0  0  0  0  0  0
   62.1135   30.7459   47.9655 H   0  0  0  0  0  0  0  0  0  0  0  0
   60.4670   31.3261   47.4299 H   0  0  0  0  0  0  0  0  0  0  0  0
   60.6550   30.9950   49.5370 C   0  0  0  0  0  0  0  0  0  0  0  0
   61.3204   30.4297   50.2061 H   0  0  0  0  0  0  0  0  0  0  0  0
   60.7695   32.0855   49.6251 H   0  0  0  0  0  0  0  0  0  0  0  0
   59.2500   30.6930   49.9210 N   0  0  0  0  0  0  0  0  0  0  0  0
   58.8320   30.1020   49.1630 H   0  0  0  0  0  0  0  0  0  0  0  0
   59.2080   29.8810   51.1660 C   0  0  0  0  0  0  0  0  0  0  0  0
   58.3451   29.2008   51.1136 H   0  0  0  0  0  0  0  0  0  0  0  0
   60.1571   29.3293   51.2351 H   0  0  0  0  0  0  0  0  0  0  0  0
   59.0780   30.7470   52.4380 C   0  0  0  0  0  0  0  0  0  0  0  0
   58.0145   30.8399   52.7030 H   0  0  0  0  0  0  0  0  0  0  0  0
   59.6364   30.2613   53.2518 H   0  0  0  0  0  0  0  0  0  0  0  0
   59.6160   32.0350   52.2290 O   0  0  0  0  0  0  0  0  0  0  0  0
   58.8340   32.7500   51.2870 C   0  0  0  0  0  0  0  0  0  0  0  0
   57.9314   33.1222   51.7938 H   0  0  0  0  0  0  0  0  0  0  0  0
   59.4594   33.5675   50.8990 H   0  0  0  0  0  0  0  0  0  0  0  0
   58.3980   31.8930   50.0750 C   0  0  0  0  0  0  0  0  0  0  0  0
   57.3553   31.5741   50.2201 H   0  0  0  0  0  0  0  0  0  0  0  0
   58.4991   32.5053   49.1668 H   0  0  0  0  0  0  0  0  0  0  0  0
   57.8600   29.2780   46.0210 C   0  0  0  0  0  0  0  0  0  0  0  0
   58.3340   30.5800   45.7950 C   0  0  0  0  0  0  0  0  0  0  0  0
   58.9878   31.0564   46.5404 H   0  0  0  0  0  0  0  0  0  0  0  0
   58.9230   34.4450   47.5260 C   0  0  0  0  0  0  0  0  0  0  0  0
   57.8629   34.7257   47.6120 H   0  0  0  0  0  0  0  0  0  0  0  0
  1  2  1  0
  2  3  2  0
  3  4  1  0
  3  5  1  0
  5  6  1  0
  6  7  3  0
  5  8  2  0
  8  9  1  0
  8 10  1  0
 10 11  1  0
 11 12  2  0
 11 13  1  0
 13 14  1  0
 14 15  2  0
 15 16  1  0
 16 17  1  0
 17 18  1  0
 17 19  1  0
 17 20  1  0
 15 21  1  0
 21 22  1  0
 21 23  2  0
 23 24  1  0
 24 25  1  0
 25 26  1  0
 26 27  1  0
 26 28  1  0
 26 29  1  0
 25 30  2  0
 30 31  1  0
 30 32  1  0
 32 33  2  0
 33 34  1  0
 34 35  1  0
 34 36  1  0
 34 37  1  0
 37 38  1  0
 37 39  1  0
 37 40  1  0
 40 41  1  0
 40 42  1  0
 40 43  1  0
 43 44  1  0
 43 45  1  0
 45 46  1  0
 45 47  1  0
 45 48  1  0
 48 49  1  0
 48 50  1  0
 48 51  1  0
 51 52  1  0
 52 53  1  0
 52 54  1  0
 52 55  1  0
 55 56  1  0
 55 57  1  0
 32 58  1  0
 58 59  2  0
 59 60  1  0
 10 61  2  0
 61 62  1  0
 61  2  1  0
 59 14  1  0
 58 23  1  0
 55 43  1  0
M  CHG  3  13  -1  24  -1  43   1
M  END
>  <UniqueID>  (73) 
66

>  <SMILES>  (73) 
COc1cc2[n-]c(C)c/c(=N\CCC[NH+]3CCOCC3)c2cc1[N-]C(=O)c1cccc(C#N)c1

>  <Energy>  (73) 
86.80220337563189

>  <Genealogy>  (73) 
COc1cc2[n-]c(C)cc(=NCCC[NH+]3CCOCC3)c2cc1[N-]C(=O)c1cccc(C#N)c1 (protonated)
COc1cc2[n-]c(C)c/c(=N\CCC[NH+]3CCOCC3)c2cc1[N-]C(=O)c1cccc(C#N)c1 (cis-trans isomerization)
COc1cc2[n-]c(C)c/c(=N\CCC[NH+]3CCOCC3)c2cc1[N-]C(=O)c1cccc(C#N)c1 (3D coordinates assigned)
COc1cc2[n-]c(C)c/c(=N\CCC[NH+]3CCOCC3)c2cc1[N-]C(=O)c1cccc(C#N)c1 (nonaromatic ring conformer: 86.80220337563189 kcal/mol)

>  <smiles>  (73) 
COc1cc2[nH]c(C)cc(=NCCCN3CCOCC3)c2cc1NC(=O)c1cccc(C#N)c1

>  <score_type>  (73) 
oracle

>  <origin>  (73) 
adg

>  <m_score__min__energy>  (73) 
-9.8699999999999992

>  <m_primary>  (73) 
energy

$$$$
73:0
     RDKit          3D

 45 47  0  0  0  0  0  0  0  0999 V2000
   55.1730   29.3510   44.8500 O   0  0  0  0  0  0  0  0  0  0  0  0
   56.3480   29.8020   44.8600 C   0  0  0  0  0  0  0  0  0  0  0  0
   56.5620   31.1850   44.5400 N   0  0  0  0  0  0  0  0  0  0  0  0
   57.8280   31.8970   44.7020 C   0  0  0  0  0  0  0  0  0  0  0  0
   57.6290   33.1970   45.4320 C   0  0  0  0  0  0  0  0  0  0  0  0
   56.7730   34.0160   44.9930 O   0  0  0  0  0  0  0  0  0  0  0  0
   58.4100   33.5370   46.6000 N   0  0  0  0  0  0  0  0  0  0  0  0
   59.3700   34.6550   46.5780 C   0  0  0  0  0  0  0  0  0  0  0  0
   60.6920   34.2340   47.1550 C   0  0  0  0  0  0  0  0  0  0  0  0
   61.8070   33.8420   46.4250 C   0  0  0  0  0  0  0  0  0  0  0  0
   62.9070   33.5140   47.2240 C   0  0  0  0  0  0  0  0  0  0  0  0
   62.6730   33.6680   48.5840 C   0  0  0  0  0  0  0  0  0  0  0  0
   61.0930   34.2070   48.7880 S   0  0  0  0  0  0  0  0  0  0  0  0
   58.1550   32.8490   47.8760 C   0  0  0  0  0  0  0  0  0  0  0  0
   59.0320   31.6280   48.0110 C   0  0  0  0  0  0  0  0  0  0  0  0
   59.8770   31.2560   46.9520 C   0  0  0  0  0  0  0  0  0  0  0  0
   60.6250   30.0760   47.0240 C   0  0  0  0  0  0  0  0  0  0  0  0
   60.5330   29.2560   48.1510 C   0  0  0  0  0  0  0  0  0  0  0  0
   59.7040   29.6210   49.2130 C   0  0  0  0  0  0  0  0  0  0  0  0
   58.9560   30.8030   49.1500 C   0  0  0  0  0  0  0  0  0  0  0  0
   58.1370   31.1230   50.1850 F   0  0  0  0  0  0  0  0  0  0  0  0
   57.4660   28.8820   45.1400 C   0  0  0  0  0  0  0  0  0  0  0  0
   57.3910   27.9560   46.1940 C   0  0  0  0  0  0  0  0  0  0  0  0
   58.4660   27.1020   46.4570 C   0  0  0  0  0  0  0  0  0  0  0  0
   59.6160   27.1550   45.6630 C   0  0  0  0  0  0  0  0  0  0  0  0
   59.6870   28.0580   44.5970 C   0  0  0  0  0  0  0  0  0  0  0  0
   58.6140   28.9150   44.3320 C   0  0  0  0  0  0  0  0  0  0  0  0
   58.5240   31.2664   45.2746 H   0  0  0  0  0  0  0  0  0  0  0  0
   58.2358   32.1157   43.7041 H   0  0  0  0  0  0  0  0  0  0  0  0
   59.5181   34.9829   45.5385 H   0  0  0  0  0  0  0  0  0  0  0  0
   58.9663   35.4786   47.1852 H   0  0  0  0  0  0  0  0  0  0  0  0
   61.8231   33.7943   45.3262 H   0  0  0  0  0  0  0  0  0  0  0  0
   63.8668   33.1668   46.8138 H   0  0  0  0  0  0  0  0  0  0  0  0
   63.3963   33.4714   49.3891 H   0  0  0  0  0  0  0  0  0  0  0  0
   58.3668   33.5388   48.7063 H   0  0  0  0  0  0  0  0  0  0  0  0
   57.1021   32.5315   47.9012 H   0  0  0  0  0  0  0  0  0  0  0  0
   59.9509   31.8965   46.0608 H   0  0  0  0  0  0  0  0  0  0  0  0
   61.2866   29.7935   46.1918 H   0  0  0  0  0  0  0  0  0  0  0  0
   61.1136   28.3231   48.2016 H   0  0  0  0  0  0  0  0  0  0  0  0
   59.6381   28.9776   50.1028 H   0  0  0  0  0  0  0  0  0  0  0  0
   56.4839   27.9029   46.8139 H   0  0  0  0  0  0  0  0  0  0  0  0
   58.4072   26.3866   47.2905 H   0  0  0  0  0  0  0  0  0  0  0  0
   60.4638   26.4874   45.8765 H   0  0  0  0  0  0  0  0  0  0  0  0
   60.5877   28.0941   43.9665 H   0  0  0  0  0  0  0  0  0  0  0  0
   58.6696   29.6176   43.4874 H   0  0  0  0  0  0  0  0  0  0  0  0
  1  2  2  0
  2  3  1  0
  3  4  1  0
  4  5  1  0
  5  6  2  0
  5  7  1  0
  7  8  1  0
  8  9  1  0
  9 10  2  0
 10 11  1  0
 11 12  2  0
 12 13  1  0
  7 14  1  0
 14 15  1  0
 15 16  2  0
 16 17  1  0
 17 18  2  0
 18 19  1  0
 19 20  2  0
 20 21  1  0
  2 22  1  0
 22 23  2  0
 23 24  1  0
 24 25  2  0
 25 26  1  0
 26 27  2  0
 13  9  1  0
 20 15  1  0
 27 22  1  0
  4 28  1  0
  4 29  1  0
  8 30  1  0
  8 31  1  0
 10 32  1  0
 11 33  1  0
 12 34  1  0
 14 35  1  0
 14 36  1  0
 16 37  1  0
 17 38  1  0
 18 39  1  0
 19 40  1  0
 23 41  1  0
 24 42  1  0
 25 43  1  0
 26 44  1  0
 27 45  1  0
M  CHG  1   3  -1
M  END
>  <UniqueID>  (74) 
67

>  <SMILES>  (74) 
O=C([N-]CC(=O)N(Cc1cccs1)Cc1ccccc1F)c1ccccc1

>  <Energy>  (74) 
75.26532226977437

>  <Genealogy>  (74) 
O=C([N-]CC(=O)N(Cc1cccs1)Cc1ccccc1F)c1ccccc1 (protonated)
O=C([N-]CC(=O)N(Cc1cccs1)Cc1ccccc1F)c1ccccc1 (3D coordinates assigned)
O=C([N-]CC(=O)N(Cc1cccs1)Cc1ccccc1F)c1ccccc1 (optimized conformer: 75.26532226977437 kcal/mol)

>  <smiles>  (74) 
O=C(NCC(=O)N(Cc1cccs1)Cc1ccccc1F)c1ccccc1

>  <score_type>  (74) 
oracle

>  <origin>  (74) 
adg

>  <m_score__min__energy>  (74) 
-10.56

>  <m_primary>  (74) 
energy

$$$$
74:0
     RDKit          3D

 20 21  0  0  0  0  0  0  0  0999 V2000
   61.1430   27.4120   45.9210 O   0  0  0  0  0  0  0  0  0  0  0  0
   60.1700   28.1600   45.6920 C   0  0  0  0  0  0  0  0  0  0  0  0
   60.3950   29.4500   45.3880 N   0  0  0  0  0  0  0  0  0  0  0  0
   59.4340   30.3190   45.1300 N   0  0  0  0  0  0  0  0  0  0  0  0
   58.1440   29.9500   45.1590 C   0  0  0  0  0  0  0  0  0  0  0  0
   57.1870   30.7380   44.9210 O   0  0  0  0  0  0  0  0  0  0  0  0
   57.8780   28.6310   45.4690 C   0  0  0  0  0  0  0  0  0  0  0  0
   56.5560   28.2110   45.5080 C   0  0  0  0  0  0  0  0  0  0  0  0
   55.5060   29.1080   45.2400 O   0  0  0  0  0  0  0  0  0  0  0  0
   56.3070   26.8830   45.8210 C   0  0  0  0  0  0  0  0  0  0  0  0
   54.9840   26.4480   45.8650 O   0  0  0  0  0  0  0  0  0  0  0  0
   57.3060   25.9760   46.0890 C   0  0  0  0  0  0  0  0  0  0  0  0
   58.6070   26.4030   46.0470 C   0  0  0  0  0  0  0  0  0  0  0  0
   58.8740   27.7120   45.7400 C   0  0  0  0  0  0  0  0  0  0  0  0
   61.3860   29.8270   45.3420 H   0  0  0  0  0  0  0  0  0  0  0  0
   59.6330   31.3190   44.8950 H   0  0  0  0  0  0  0  0  0  0  0  0
   55.4500   30.0130   45.6600 H   0  0  0  0  0  0  0  0  0  0  0  0
   54.3900   26.7070   45.0830 H   0  0  0  0  0  0  0  0  0  0  0  0
   57.0653   24.9305   46.3318 H   0  0  0  0  0  0  0  0  0  0  0  0
   59.4288   25.7028   46.2574 H   0  0  0  0  0  0  0  0  0  0  0  0
  1  2  2  0
  2  3  1  0
  3  4  1  0
  4  5  1  0
  5  6  2  0
  5  7  1  0
  7  8  2  0
  8  9  1  0
  8 10  1  0
 10 11  1  0
 10 12  2  0
 12 13  1  0
 13 14  2  0
 14  2  1  0
 14  7  1  0
  3 15  1  0
  4 16  1  0
  9 17  1  0
 11 18  1  0
 12 19  1  0
 13 20  1  0
M  END
>  <smiles>  (75) 
O=c1[nH][nH]c(=O)c2c(O)c(O)ccc12

>  <score_type>  (75) 
oracle

>  <origin>  (75) 
adg

>  <m_score__min__energy>  (75) 
-6.79

>  <m_primary>  (75) 
energy

$$$$
75:0
     RDKit          3D

 47 49  0  0  0  0  0  0  0  0999 V2000
   62.4208   32.2601   48.7961 H   0  0  0  0  0  0  0  0  0  0  0  0
   61.8000   31.4080   48.4820 C   0  0  0  0  0  0  0  0  0  0  0  0
   61.5540   31.1850   47.1250 C   0  0  0  0  0  0  0  0  0  0  0  0
   61.9901   31.8559   46.3702 H   0  0  0  0  0  0  0  0  0  0  0  0
   60.7540   30.1100   46.7250 C   0  0  0  0  0  0  0  0  0  0  0  0
   60.5759   29.9299   45.6546 H   0  0  0  0  0  0  0  0  0  0  0  0
   60.1780   29.2610   47.6790 C   0  0  0  0  0  0  0  0  0  0  0  0
   59.3910   28.1460   47.2250 N   0  0  0  0  0  0  0  0  0  0  0  0
   58.2530   28.1970   46.5980 C   0  0  0  0  0  0  0  0  0  0  0  0
   57.4570   27.0990   46.5840 N   0  0  0  0  0  0  0  0  0  0  0  0
   56.2690   27.1110   45.9210 C   0  0  0  0  0  0  0  0  0  0  0  0
   55.5000   26.0630   45.8870 N   0  0  0  0  0  0  0  0  0  0  0  0
   55.8920   24.6930   46.0820 C   0  0  0  0  0  0  0  0  0  0  0  0
   57.2860   24.3380   46.1180 N   0  0  0  0  0  0  0  0  0  0  0  0
   57.9350   24.9710   46.6380 H   0  0  0  0  0  0  0  0  0  0  0  0
   57.8730   23.4240   45.1440 C   0  0  0  0  0  0  0  0  0  0  0  0
   58.3947   22.6117   45.6714 H   0  0  0  0  0  0  0  0  0  0  0  0
   57.0777   23.0002   44.5131 H   0  0  0  0  0  0  0  0  0  0  0  0
   58.5892   23.9709   44.5131 H   0  0  0  0  0  0  0  0  0  0  0  0
   54.9650   23.8150   46.3500 N   0  0  0  0  0  0  0  0  0  0  0  0
   55.0970   23.1820   47.1720 H   0  0  0  0  0  0  0  0  0  0  0  0
   53.7650   23.6110   45.5400 C   0  0  0  0  0  0  0  0  0  0  0  0
   52.8976   23.4635   46.2003 H   0  0  0  0  0  0  0  0  0  0  0  0
   53.5967   24.4934   44.9052 H   0  0  0  0  0  0  0  0  0  0  0  0
   53.8978   22.7225   44.9052 H   0  0  0  0  0  0  0  0  0  0  0  0
   55.8930   28.2300   45.2520 N   0  0  0  0  0  0  0  0  0  0  0  0
   56.6870   29.3330   45.2500 C   0  0  0  0  0  0  0  0  0  0  0  0
   56.3360   30.4090   44.6130 N   0  0  0  0  0  0  0  0  0  0  0  0
   57.2540   31.2320   43.8320 C   0  0  0  0  0  0  0  0  0  0  0  0
   58.0911   30.6129   43.4772 H   0  0  0  0  0  0  0  0  0  0  0  0
   56.7227   31.6573   42.9678 H   0  0  0  0  0  0  0  0  0  0  0  0
   57.7820   32.3430   44.6940 C   0  0  0  0  0  0  0  0  0  0  0  0
   58.3550   33.4840   44.1070 C   0  0  0  0  0  0  0  0  0  0  0  0
   58.3922   33.5765   43.0115 H   0  0  0  0  0  0  0  0  0  0  0  0
   58.8780   34.5020   44.9100 C   0  0  0  0  0  0  0  0  0  0  0  0
   59.3155   35.3983   44.4462 H   0  0  0  0  0  0  0  0  0  0  0  0
   58.8450   34.3810   46.3020 C   0  0  0  0  0  0  0  0  0  0  0  0
   59.2549   35.1834   46.9330 H   0  0  0  0  0  0  0  0  0  0  0  0
   58.2920   33.2420   46.8930 C   0  0  0  0  0  0  0  0  0  0  0  0
   58.2689   33.1477   47.9887 H   0  0  0  0  0  0  0  0  0  0  0  0
   57.7680   32.2220   46.0930 C   0  0  0  0  0  0  0  0  0  0  0  0
   57.3433   31.3217   46.5611 H   0  0  0  0  0  0  0  0  0  0  0  0
   57.8660   29.3110   45.9200 N   0  0  0  0  0  0  0  0  0  0  0  0
   60.4570   29.4720   49.0440 C   0  0  0  0  0  0  0  0  0  0  0  0
   60.0441   28.7881   49.8002 H   0  0  0  0  0  0  0  0  0  0  0  0
   61.2570   30.5480   49.4400 C   0  0  0  0  0  0  0  0  0  0  0  0
   61.4593   30.7179   50.5078 H   0  0  0  0  0  0  0  0  0  0  0  0
  1  2  1  0
  2  3  2  0
  3  4  1  0
  3  5  1  0
  5  6  1  0
  5  7  2  0
  7  8  1  0
  8  9  2  3
  9 10  1  0
 10 11  1  0
 11 12  2  0
 12 13  1  0
 13 14  1  0
 14 15  1  0
 14 16  1  0
 16 17  1  0
 16 18  1  0
 16 19  1  0
 13 20  2  0
 20 21  1  0
 20 22  1  0
 22 23  1  0
 22 24  1  0
 22 25  1  0
 11 26  1  0
 26 27  1  0
 27 28  2  0
 28 29  1  0
 29 30  1  0
 29 31  1  0
 29 32  1  0
 32 33  2  0
 33 34  1  0
 33 35  1  0
 35 36  1  0
 35 37  2  0
 37 38  1  0
 37 39  1  0
 39 40  1  0
 39 41  2  0
 41 42  1  0
 27 43  1  0
  7 44  1  0
 44 45  1  0
 44 46  2  0
 46 47  1  0
 46  2  1  0
 43  9  1  0
 41 32  1  0
M  CHG  4  10  -1  20   1  26  -1  43  -1
M  END
>  <UniqueID>  (76) 
68

>  <SMILES>  (76) 
CN/C(N=c1[n-]c(=Nc2ccccc2)[n-]/c(=N/Cc2ccccc2)[n-]1)=[NH+]\C

>  <Energy>  (76) 
60.28760182051079

>  <Genealogy>  (76) 
CNC(N=c1[n-]c(=NCc2ccccc2)[n-]c(=Nc2ccccc2)[n-]1)=[NH+]C (protonated)
CN/C(N=c1[n-]c(=Nc2ccccc2)[n-]/c(=N/Cc2ccccc2)[n-]1)=[NH+]\C (cis-trans isomerization)
CN/C(N=c1[n-]c(=Nc2ccccc2)[n-]/c(=N/Cc2ccccc2)[n-]1)=[NH+]\C (3D coordinates assigned)
CN/C(N=c1[n-]c(=Nc2ccccc2)[n-]/c(=N/Cc2ccccc2)[n-]1)=[NH+]\C (optimized conformer: 60.28760182051079 kcal/mol)

>  <smiles>  (76) 
CN=C(N=c1[nH]c(=NCc2ccccc2)[nH]c(=Nc2ccccc2)[nH]1)NC

>  <score_type>  (76) 
oracle

>  <origin>  (76) 
adg

>  <m_score__min__energy>  (76) 
-10.390000000000001

>  <m_primary>  (76) 
energy

$$$$
76:0
     RDKit          3D

 51 54  0  0  0  0  0  0  0  0999 V2000
   59.7770   28.2340   48.6820 H   0  0  0  0  0  0  0  0  0  0  0  0
   60.1120   29.0100   49.2960 N   0  0  0  0  0  0  0  0  0  0  0  0
   60.2560   30.2150   48.8490 C   0  0  0  0  0  0  0  0  0  0  0  0
   61.8970   30.8440   48.5650 S   0  0  0  0  0  0  0  0  0  0  0  0
   61.4760   31.3630   46.8750 C   0  0  0  0  0  0  0  0  0  0  0  0
   61.1600   30.4792   46.3013 H   0  0  0  0  0  0  0  0  0  0  0  0
   62.3687   31.8292   46.4325 H   0  0  0  0  0  0  0  0  0  0  0  0
   60.3390   32.4020   46.8520 C   0  0  2  0  0  0  0  0  0  0  0  0
   60.2828   32.5704   45.7664 H   0  0  0  0  0  0  0  0  0  0  0  0
   60.6210   33.6630   47.6260 C   0  0  0  0  0  0  0  0  0  0  0  0
   61.1316   34.4072   46.9971 H   0  0  0  0  0  0  0  0  0  0  0  0
   61.2849   33.5033   48.4884 H   0  0  0  0  0  0  0  0  0  0  0  0
   59.2350   34.1390   48.0180 C   0  0  0  0  0  0  0  0  0  0  0  0
   58.9416   34.9774   47.3692 H   0  0  0  0  0  0  0  0  0  0  0  0
   59.2508   34.4653   49.0684 H   0  0  0  0  0  0  0  0  0  0  0  0
   58.3010   33.0890   47.8750 O   0  0  0  0  0  0  0  0  0  0  0  0
   58.9830   31.9360   47.4220 C   0  0  1  0  0  0  0  0  0  0  0  0
   58.1610   31.2600   46.3120 C   0  0  0  0  0  0  0  0  0  0  0  0
   58.0260   29.8550   46.2810 C   0  0  0  0  0  0  0  0  0  0  0  0
   58.5082   29.2496   47.0626 H   0  0  0  0  0  0  0  0  0  0  0  0
   57.2890   29.2160   45.2730 C   0  0  0  0  0  0  0  0  0  0  0  0
   57.1520   27.7860   45.2410 N   0  0  0  0  0  0  0  0  0  0  0  0
   56.3430   27.3950   44.7080 H   0  0  0  0  0  0  0  0  0  0  0  0
   58.0210   26.8790   45.9450 C   0  0  0  0  0  0  0  0  0  0  0  0
   58.9520   27.3240   46.6700 O   0  0  0  0  0  0  0  0  0  0  0  0
   57.8440   25.4160   45.8280 C   0  0  0  0  0  0  0  0  0  0  0  0
   56.5680   24.8180   45.8140 C   0  0  0  0  0  0  0  0  0  0  0  0
   55.4180   25.6040   45.9560 O   0  0  0  0  0  0  0  0  0  0  0  0
   54.1160   25.1390   45.6200 C   0  0  0  0  0  0  0  0  0  0  0  0
   53.5498   24.9368   46.5412 H   0  0  0  0  0  0  0  0  0  0  0  0
   53.5937   25.9062   45.0295 H   0  0  0  0  0  0  0  0  0  0  0  0
   54.1979   24.2145   45.0295 H   0  0  0  0  0  0  0  0  0  0  0  0
   56.4590   23.4640   45.6910 N   0  0  0  0  0  0  0  0  0  0  0  0
   57.5470   22.6570   45.5950 C   0  0  0  0  0  0  0  0  0  0  0  0
   57.4181   21.5698   45.4881 H   0  0  0  0  0  0  0  0  0  0  0  0
   58.8270   23.2070   45.6320 C   0  0  0  0  0  0  0  0  0  0  0  0
   59.7126   22.5580   45.5640 H   0  0  0  0  0  0  0  0  0  0  0  0
   58.9740   24.5880   45.7560 C   0  0  0  0  0  0  0  0  0  0  0  0
   59.9804   25.0301   45.7975 H   0  0  0  0  0  0  0  0  0  0  0  0
   56.7410   29.9780   44.2400 C   0  0  0  0  0  0  0  0  0  0  0  0
   56.1793   29.4820   43.4347 H   0  0  0  0  0  0  0  0  0  0  0  0
   56.9000   31.3620   44.2210 C   0  0  0  0  0  0  0  0  0  0  0  0
   56.4616   31.9490   43.4005 H   0  0  0  0  0  0  0  0  0  0  0  0
   57.6160   32.0170   45.2410 C   0  0  0  0  0  0  0  0  0  0  0  0
   57.8180   33.4080   45.2060 O   0  0  0  0  0  0  0  0  0  0  0  0
   58.8710   34.0610   44.5060 C   0  0  0  0  0  0  0  0  0  0  0  0
   59.5758   34.4981   45.2286 H   0  0  0  0  0  0  0  0  0  0  0  0
   59.3989   33.3315   43.8742 H   0  0  0  0  0  0  0  0  0  0  0  0
   58.4522   34.8581   43.8742 H   0  0  0  0  0  0  0  0  0  0  0  0
   59.1110   31.0350   48.5850 N   0  0  0  0  0  0  0  0  0  0  0  0
   58.2250   30.7960   49.0880 H   0  0  0  0  0  0  0  0  0  0  0  0
  1  2  1  0
  2  3  2  0
  3  4  1  0
  4  5  1  0
  5  6  1  0
  5  7  1  0
  5  8  1  0
  8  9  1  6
  8 10  1  0
 10 11  1  0
 10 12  1  0
 10 13  1  0
 13 14  1  0
 13 15  1  0
 13 16  1  0
 16 17  1  0
 17 18  1  6
 18 19  2  0
 19 20  1  0
 19 21  1  0
 21 22  1  0
 22 23  1  0
 22 24  1  0
 24 25  2  0
 24 26  1  0
 26 27  2  0
 27 28  1  0
 28 29  1  0
 29 30  1  0
 29 31  1  0
 29 32  1  0
 27 33  1  0
 33 34  2  0
 34 35  1  0
 34 36  1  0
 36 37  1  0
 36 38  2  0
 38 39  1  0
 21 40  2  0
 40 41  1  0
 40 42  1  0
 42 43  1  0
 42 44  2  0
 44 45  1  0
 45 46  1  0
 46 47  1  0
 46 48  1  0
 46 49  1  0
 17 50  1  0
 50 51  1  0
 50  3  1  0
 17  8  1  0
 44 18  1  0
 38 26  1  0
M  END
>  <UniqueID>  (77) 
69

>  <SMILES>  (77) 
[H]/N=C1\N[C@@]2(c3cc(NC(=O)c4cccnc4OC)ccc3OC)OCC[C@H]2CS1

>  <Energy>  (77) 
70.62607949012418

>  <Genealogy>  (77) 
COc1ccc(NC(=O)c2cccnc2OC)cc1[C@@]12NC(=N)SC[C@@H]1CCO2 (chirality)
[H]/N=C1\N[C@@]2(c3cc(NC(=O)c4cccnc4OC)ccc3OC)OCC[C@H]2CS1 (cis-trans isomerization)
[H]/N=C1\N[C@@]2(c3cc(NC(=O)c4cccnc4OC)ccc3OC)OCC[C@H]2CS1 (3D coordinates assigned)
[H]/N=C1\N[C@@]2(c3cc(NC(=O)c4cccnc4OC)ccc3OC)OCC[C@H]2CS1 (nonaromatic ring conformer: 70.62607949012418 kcal/mol)

>  <smiles>  (77) 
COc1ccc(NC(=O)c2cccnc2OC)cc1C12NC(=N)SCC1CCO2

>  <score_type>  (77) 
oracle

>  <origin>  (77) 
adg

>  <m_score__min__energy>  (77) 
-8.1300000000000008

>  <m_primary>  (77) 
energy

$$$$
77:0
     RDKit          3D

 42 43  0  0  0  0  0  0  0  0999 V2000
   58.7160   32.3270   49.4370 C   0  0  0  0  0  0  0  0  0  0  0  0
   59.3260   33.3240   50.4070 C   0  0  0  0  0  0  0  0  0  0  0  0
   60.0720   34.2980   49.6820 O   0  0  0  0  0  0  0  0  0  0  0  0
   61.0500   34.0040   48.7190 C   0  0  0  0  0  0  0  0  0  0  0  0
   62.3250   33.5290   49.0820 C   0  0  0  0  0  0  0  0  0  0  0  0
   63.2820   33.2520   48.1060 C   0  0  0  0  0  0  0  0  0  0  0  0
   62.9820   33.4440   46.7590 C   0  0  0  0  0  0  0  0  0  0  0  0
   61.7220   33.9120   46.3810 C   0  0  0  0  0  0  0  0  0  0  0  0
   60.7430   34.2010   47.3530 C   0  0  0  0  0  0  0  0  0  0  0  0
   59.4360   34.6850   46.9770 N   0  0  0  0  0  0  0  0  0  0  0  0
   58.7700   34.3680   45.7130 C   0  0  0  0  0  0  0  0  0  0  0  0
   58.0990   33.0300   45.7960 C   0  0  0  0  0  0  0  0  0  0  0  0
   56.8460   32.9580   45.6730 O   0  0  0  0  0  0  0  0  0  0  0  0
   58.8800   31.8540   46.0600 N   0  0  0  0  0  0  0  0  0  0  0  0
   58.3550   30.5150   46.0370 C   0  0  0  0  0  0  0  0  0  0  0  0
   58.8560   29.5660   46.9400 C   0  0  0  0  0  0  0  0  0  0  0  0
   58.3760   28.2530   46.9260 C   0  0  0  0  0  0  0  0  0  0  0  0
   57.4040   27.8670   45.9940 C   0  0  0  0  0  0  0  0  0  0  0  0
   56.7910   26.2160   45.9870 S   0  0  0  0  0  0  0  0  0  0  0  0
   55.0640   26.2420   45.9930 N   0  0  0  0  0  0  0  0  0  0  0  0
   57.2880   25.4840   47.2030 O   0  0  0  0  0  0  0  0  0  0  0  0
   57.2760   25.4960   44.7610 O   0  0  0  0  0  0  0  0  0  0  0  0
   56.9120   28.8070   45.0790 C   0  0  0  0  0  0  0  0  0  0  0  0
   57.3900   30.1210   45.0930 C   0  0  0  0  0  0  0  0  0  0  0  0
   58.2231   31.5214   50.0009 H   0  0  0  0  0  0  0  0  0  0  0  0
   57.9754   32.8375   48.8038 H   0  0  0  0  0  0  0  0  0  0  0  0
   59.5077   31.9001   48.8038 H   0  0  0  0  0  0  0  0  0  0  0  0
   58.5248   33.8223   50.9725 H   0  0  0  0  0  0  0  0  0  0  0  0
   59.9933   32.7957   51.1038 H   0  0  0  0  0  0  0  0  0  0  0  0
   62.5681   33.3752   50.1437 H   0  0  0  0  0  0  0  0  0  0  0  0
   64.2751   32.8814   48.4001 H   0  0  0  0  0  0  0  0  0  0  0  0
   63.7395   33.2264   45.9916 H   0  0  0  0  0  0  0  0  0  0  0  0
   61.4913   34.0564   45.3152 H   0  0  0  0  0  0  0  0  0  0  0  0
   58.9370   35.3460   47.6140 H   0  0  0  0  0  0  0  0  0  0  0  0
   58.0155   35.1389   45.4978 H   0  0  0  0  0  0  0  0  0  0  0  0
   59.5223   34.3403   44.9109 H   0  0  0  0  0  0  0  0  0  0  0  0
   59.8640   31.9870   46.3860 H   0  0  0  0  0  0  0  0  0  0  0  0
   59.6316   29.8566   47.6639 H   0  0  0  0  0  0  0  0  0  0  0  0
   58.7630   27.5203   47.6495 H   0  0  0  0  0  0  0  0  0  0  0  0
   54.7730   27.0940   46.5230 H   0  0  0  0  0  0  0  0  0  0  0  0
   56.1467   28.5102   44.3467 H   0  0  0  0  0  0  0  0  0  0  0  0
   57.0094   30.8498   44.3623 H   0  0  0  0  0  0  0  0  0  0  0  0
  1  2  1  0
  2  3  1  0
  3  4  1  0
  4  5  2  0
  5  6  1  0
  6  7  2  0
  7  8  1  0
  8  9  2  0
  9 10  1  0
 10 11  1  0
 11 12  1  0
 12 13  2  0
 12 14  1  0
 14 15  1  0
 15 16  2  0
 16 17  1  0
 17 18  2  0
 18 19  1  0
 19 20  1  0
 19 21  2  0
 19 22  2  0
 18 23  1  0
 23 24  2  0
  9  4  1  0
 24 15  1  0
  1 25  1  0
  1 26  1  0
  1 27  1  0
  2 28  1  0
  2 29  1  0
  5 30  1  0
  6 31  1  0
  7 32  1  0
  8 33  1  0
 10 34  1  0
 11 35  1  0
 11 36  1  0
 14 37  1  0
 16 38  1  0
 17 39  1  0
 20 40  1  0
 23 41  1  0
 24 42  1  0
M  CHG  1  20  -1
M  END
>  <UniqueID>  (78) 
70

>  <SMILES>  (78) 
CCOc1ccccc1NCC(=O)Nc1ccc(S([NH-])(=O)=O)cc1

>  <Energy>  (78) 
40.973329088946805

>  <Genealogy>  (78) 
CCOc1ccccc1NCC(=O)Nc1ccc(S([NH-])(=O)=O)cc1 (protonated)
CCOc1ccccc1NCC(=O)Nc1ccc(S([NH-])(=O)=O)cc1 (3D coordinates assigned)
CCOc1ccccc1NCC(=O)Nc1ccc(S([NH-])(=O)=O)cc1 (optimized conformer: 40.973329088946805 kcal/mol)

>  <smiles>  (78) 
CCOc1ccccc1NCC(=O)Nc1ccc(S(N)(=O)=O)cc1

>  <score_type>  (78) 
oracle

>  <origin>  (78) 
adg

>  <m_score__min__energy>  (78) 
-10.130000000000001

>  <m_primary>  (78) 
energy

$$$$
78:0
     RDKit          3D

 38 40  0  0  0  0  0  0  0  0999 V2000
   59.9580   28.2300   44.5340 C   0  0  0  0  0  0  0  0  0  0  0  0
   59.3940   29.5530   45.0690 C   0  0  2  0  0  0  0  0  0  0  0  0
   59.8590   29.8120   46.4880 C   0  0  0  0  0  0  0  0  0  0  0  0
   59.2560   29.1620   47.5810 C   0  0  0  0  0  0  0  0  0  0  0  0
   59.7070   29.4010   48.8820 C   0  0  0  0  0  0  0  0  0  0  0  0
   60.7670   30.2820   49.1070 C   0  0  0  0  0  0  0  0  0  0  0  0
   61.3810   30.9230   48.0280 C   0  0  0  0  0  0  0  0  0  0  0  0
   60.9350   30.6870   46.7250 C   0  0  0  0  0  0  0  0  0  0  0  0
   57.9230   29.6740   44.9570 N   0  0  0  0  0  0  0  0  0  0  0  0
   57.2420   30.8010   44.6180 C   0  0  0  0  0  0  0  0  0  0  0  0
   57.8590   32.1140   44.2110 C   0  0  0  0  0  0  0  0  0  0  0  0
   58.3510   32.8610   45.3830 N   0  0  0  0  0  0  0  0  0  0  0  0
   57.9210   32.5030   46.6340 C   0  0  0  0  0  0  0  0  0  0  0  0
   58.3680   33.1860   47.7670 C   0  0  0  0  0  0  0  0  0  0  0  0
   59.2490   34.2530   47.6200 C   0  0  0  0  0  0  0  0  0  0  0  0
   59.6650   34.6320   46.3470 C   0  0  0  0  0  0  0  0  0  0  0  0
   59.2010   33.9310   45.2290 C   0  0  0  0  0  0  0  0  0  0  0  0
   59.5700   34.3000   44.0800 O   0  0  0  0  0  0  0  0  0  0  0  0
   55.9060   30.6250   44.6880 N   0  0  0  0  0  0  0  0  0  0  0  0
   55.7160   29.3820   45.0870 N   0  0  0  0  0  0  0  0  0  0  0  0
   56.9170   28.8090   45.2600 C   0  0  0  0  0  0  0  0  0  0  0  0
   57.0810   27.2720   45.8080 S   0  0  0  0  0  0  0  0  0  0  0  0
   60.2346   27.5813   45.3782 H   0  0  0  0  0  0  0  0  0  0  0  0
   59.1957   27.7280   43.9202 H   0  0  0  0  0  0  0  0  0  0  0  0
   60.8481   28.4324   43.9202 H   0  0  0  0  0  0  0  0  0  0  0  0
   59.8036   30.3347   44.4124 H   0  0  0  0  0  0  0  0  0  0  0  0
   58.4250   28.4618   47.4103 H   0  0  0  0  0  0  0  0  0  0  0  0
   59.2257   28.8938   49.7312 H   0  0  0  0  0  0  0  0  0  0  0  0
   61.1180   30.4710   50.1322 H   0  0  0  0  0  0  0  0  0  0  0  0
   62.2175   31.6151   48.2047 H   0  0  0  0  0  0  0  0  0  0  0  0
   61.4282   31.1884   45.8792 H   0  0  0  0  0  0  0  0  0  0  0  0
   58.7014   31.9186   43.5312 H   0  0  0  0  0  0  0  0  0  0  0  0
   57.0884   32.7197   43.7118 H   0  0  0  0  0  0  0  0  0  0  0  0
   57.2149   31.6672   46.7471 H   0  0  0  0  0  0  0  0  0  0  0  0
   58.0264   32.8830   48.7677 H   0  0  0  0  0  0  0  0  0  0  0  0
   59.6147   34.7941   48.5052 H   0  0  0  0  0  0  0  0  0  0  0  0
   60.3555   35.4789   46.2207 H   0  0  0  0  0  0  0  0  0  0  0  0
   54.7790   28.9490   45.2480 H   0  0  0  0  0  0  0  0  0  0  0  0
  1  2  1  0
  2  3  1  0
  3  4  2  0
  4  5  1  0
  5  6  2  0
  6  7  1  0
  7  8  2  0
  2  9  1  0
  9 10  1  0
 10 11  1  0
 11 12  1  0
 12 13  1  0
 13 14  2  0
 14 15  1  0
 15 16  2  0
 16 17  1  0
 17 18  2  0
 10 19  2  0
 19 20  1  0
 20 21  1  0
 21 22  2  0
  8  3  1  0
 21  9  1  0
 17 12  1  0
  1 23  1  0
  1 24  1  0
  1 25  1  0
  2 26  1  6
  4 27  1  0
  5 28  1  0
  6 29  1  0
  7 30  1  0
  8 31  1  0
 11 32  1  0
 11 33  1  0
 13 34  1  0
 14 35  1  0
 15 36  1  0
 16 37  1  0
 20 38  1  0
M  END
>  <UniqueID>  (79) 
71

>  <SMILES>  (79) 
C[C@H](c1ccccc1)n1c(Cn2ccccc2=O)n[nH]c1=S

>  <Energy>  (79) 
81.49151605868082

>  <Genealogy>  (79) 
C[C@H](c1ccccc1)n1c(Cn2ccccc2=O)n[nH]c1=S (chirality)
C[C@H](c1ccccc1)n1c(Cn2ccccc2=O)n[nH]c1=S (3D coordinates assigned)
C[C@H](c1ccccc1)n1c(Cn2ccccc2=O)n[nH]c1=S (optimized conformer: 81.49151605868082 kcal/mol)

>  <smiles>  (79) 
CC(c1ccccc1)n1c(Cn2ccccc2=O)n[nH]c1=S

>  <score_type>  (79) 
oracle

>  <origin>  (79) 
adg

>  <m_score__min__energy>  (79) 
-7.8300000000000001

>  <m_primary>  (79) 
energy

$$$$
79:0
     RDKit          3D

 44 48  0  0  0  0  0  0  0  0999 V2000
   55.5334   28.5167   43.8917 H   0  0  0  0  0  0  0  0  0  0  0  0
   56.3170   29.0750   44.4250 C   0  0  0  0  0  0  0  0  0  0  0  0
   56.5300   30.3480   44.3280 N   0  0  0  0  0  0  0  0  0  0  0  0
   57.6100   30.6690   45.1590 N   0  0  0  0  0  0  0  0  0  0  0  0
   57.7400   31.7630   45.9460 C   0  0  0  0  0  0  0  0  0  0  0  0
   57.5100   33.0140   45.6320 N   0  0  0  0  0  0  0  0  0  0  0  0
   58.2570   34.2850   45.6750 C   0  0  0  0  0  0  0  0  0  0  0  0
   57.4929   34.8248   45.0964 H   0  0  0  0  0  0  0  0  0  0  0  0
   59.0550   34.6270   46.9180 C   0  0  0  0  0  0  0  0  0  0  0  0
   59.1418   35.6732   47.2467 H   0  0  0  0  0  0  0  0  0  0  0  0
   59.0418   34.2998   47.9681 H   0  0  0  0  0  0  0  0  0  0  0  0
   59.7670   34.1610   45.6430 C   0  0  0  0  0  0  0  0  0  0  0  0
   60.3659   34.8721   45.0551 H   0  0  0  0  0  0  0  0  0  0  0  0
   60.4786   33.3594   45.3957 H   0  0  0  0  0  0  0  0  0  0  0  0
   58.2050   31.4150   47.1600 N   0  0  0  0  0  0  0  0  0  0  0  0
   58.3620   32.0320   47.9890 H   0  0  0  0  0  0  0  0  0  0  0  0
   58.3240   30.0730   47.0910 C   0  0  0  0  0  0  0  0  0  0  0  0
   58.5730   29.3580   48.1520 N   0  0  0  0  0  0  0  0  0  0  0  0
   59.4970   29.6330   49.2410 C   0  0  0  0  0  0  0  0  0  0  0  0
   60.0584   28.7199   49.4883 H   0  0  0  0  0  0  0  0  0  0  0  0
   58.9383   29.9638   50.1290 H   0  0  0  0  0  0  0  0  0  0  0  0
   60.4510   30.7100   48.8100 C   0  0  0  0  0  0  0  0  0  0  0  0
   61.4220   30.4470   47.8310 C   0  0  0  0  0  0  0  0  0  0  0  0
   61.5036   29.4392   47.3977 H   0  0  0  0  0  0  0  0  0  0  0  0
   62.2860   31.4600   47.4040 C   0  0  0  0  0  0  0  0  0  0  0  0
   63.0491   31.2452   46.6414 H   0  0  0  0  0  0  0  0  0  0  0  0
   62.1820   32.7470   47.9450 C   0  0  0  0  0  0  0  0  0  0  0  0
   63.0710   33.7890   47.5050 C   0  0  0  0  0  0  0  0  0  0  0  0
   63.7860   34.6280   47.1510 N   0  0  0  0  0  0  0  0  0  0  0  0
   61.2040   33.0200   48.9110 C   0  0  0  0  0  0  0  0  0  0  0  0
   61.1167   34.0315   49.3343 H   0  0  0  0  0  0  0  0  0  0  0  0
   60.3390   32.0070   49.3370 C   0  0  0  0  0  0  0  0  0  0  0  0
   59.5668   32.2272   50.0888 H   0  0  0  0  0  0  0  0  0  0  0  0
   58.0280   29.6220   45.8400 N   0  0  0  0  0  0  0  0  0  0  0  0
   57.2910   28.4940   45.3630 C   0  0  0  0  0  0  0  0  0  0  0  0
   57.7650   27.2410   45.3040 C   0  0  0  0  0  0  0  0  0  0  0  0
   58.6141   27.0432   44.6332 H   0  0  0  0  0  0  0  0  0  0  0  0
   57.2210   26.1100   46.0810 C   0  0  0  0  0  0  0  0  0  0  0  0
   57.9390   25.0860   46.5770 N   0  0  0  0  0  0  0  0  0  0  0  0
   57.0040   24.2930   47.1420 C   0  0  0  0  0  0  0  0  0  0  0  0
   57.2920   23.2160   47.7280 O   0  0  0  0  0  0  0  0  0  0  0  0
   55.7360   24.7410   47.0280 N   0  0  0  0  0  0  0  0  0  0  0  0
   55.8910   25.8880   46.3480 C   0  0  0  0  0  0  0  0  0  0  0  0
   54.8370   26.7150   45.9770 O   0  0  0  0  0  0  0  0  0  0  0  0
  1  2  1  0
  2  3  2  0
  3  4  1  0
  4  5  1  0
  5  6  2  3
  6  7  1  0
  7  8  1  0
  7  9  1  0
  9 10  1  0
  9 11  1  0
  9 12  1  0
 12 13  1  0
 12 14  1  0
  5 15  1  0
 15 16  1  0
 15 17  1  0
 17 18  2  0
 18 19  1  0
 19 20  1  0
 19 21  1  0
 19 22  1  0
 22 23  2  0
 23 24  1  0
 23 25  1  0
 25 26  1  0
 25 27  2  0
 27 28  1  0
 28 29  3  0
 27 30  1  0
 30 31  1  0
 30 32  2  0
 32 33  1  0
 17 34  1  0
 34 35  1  0
 35 36  2  3
 36 37  1  0
 36 38  1  0
 38 39  1  0
 39 40  1  0
 40 41  2  0
 40 42  1  0
 42 43  1  0
 43 44  1  0
 35  2  1  0
 43 38  2  0
 34  4  1  0
 12  7  1  0
 32 22  1  0
M  CHG  3  39  -1  42  -1  44  -1
M  END
>  <UniqueID>  (80) 
72

>  <SMILES>  (80) 
N#Cc1ccc(C/N=c2/[nH]c(=NC3CC3)n3n2C(=Cc2[n-]c(=O)[n-]c2[O-])C=N3)cc1

>  <Energy>  (80) 
466.19313220502875

>  <Genealogy>  (80) 
N#Cc1ccc(CN=c2[nH]c(=NC3CC3)n3n2C(=Cc2[n-]c(=O)[n-]c2[O-])C=N3)cc1 (protonated)
N#Cc1ccc(C/N=c2/[nH]c(=NC3CC3)n3n2C(=Cc2[n-]c(=O)[n-]c2[O-])C=N3)cc1 (cis-trans isomerization)
N#Cc1ccc(C/N=c2/[nH]c(=NC3CC3)n3n2C(=Cc2[n-]c(=O)[n-]c2[O-])C=N3)cc1 (3D coordinates assigned)
N#Cc1ccc(C/N=c2/[nH]c(=NC3CC3)n3n2C(=Cc2[n-]c(=O)[n-]c2[O-])C=N3)cc1 (nonaromatic ring conformer: 466.19313220502875 kcal/mol)

>  <smiles>  (80) 
N#Cc1ccc(CN=c2[nH]c(=NC3CC3)n3n2C(=Cc2[nH]c(=O)[nH]c2O)C=N3)cc1

>  <score_type>  (80) 
oracle

>  <origin>  (80) 
adg

>  <m_score__min__energy>  (80) 
-16.059999999999999

>  <m_primary>  (80) 
energy

$$$$
80:0
     RDKit          3D

 49 51  0  0  0  0  0  0  0  0999 V2000
   56.6540   33.3500   45.5780 O   0  0  0  0  0  0  0  0  0  0  0  0
   57.7030   32.7680   45.1900 C   0  0  0  0  0  0  0  0  0  0  0  0
   58.8560   33.5470   44.8310 N   0  0  0  0  0  0  0  0  0  0  0  0
   58.8710   35.0080   44.9030 C   0  0  0  0  0  0  0  0  0  0  0  0
   59.6470   35.4960   46.1330 C   0  0  0  0  0  0  0  0  0  0  0  0
   60.2150   34.3420   46.9180 C   0  0  0  0  0  0  0  0  0  0  0  0
   59.4990   33.7990   47.9970 C   0  0  0  0  0  0  0  0  0  0  0  0
   60.0430   32.7530   48.7490 C   0  0  0  0  0  0  0  0  0  0  0  0
   61.3080   32.2480   48.4340 C   0  0  0  0  0  0  0  0  0  0  0  0
   62.0310   32.7900   47.3680 C   0  0  0  0  0  0  0  0  0  0  0  0
   61.4910   33.8360   46.6130 C   0  0  0  0  0  0  0  0  0  0  0  0
   57.7310   31.2870   45.1390 C   0  0  0  0  0  0  0  0  0  0  0  0
   58.7460   30.5510   45.7770 C   0  0  0  0  0  0  0  0  0  0  0  0
   58.7540   29.1550   45.7190 C   0  0  0  0  0  0  0  0  0  0  0  0
   57.7580   28.4680   45.0090 C   0  0  0  0  0  0  0  0  0  0  0  0
   57.7470   26.9670   44.9820 C   0  0  0  0  0  0  0  0  0  0  0  0
   57.4200   26.4680   46.3150 N   0  0  0  0  0  0  0  0  0  0  0  0
   56.0960   25.3490   46.2180 S   0  0  0  0  0  0  0  0  0  0  0  0
   55.9010   24.6980   47.5580 O   0  0  0  0  0  0  0  0  0  0  0  0
   54.8350   26.0840   45.8570 O   0  0  0  0  0  0  0  0  0  0  0  0
   56.4400   24.1040   45.0200 C   0  0  0  0  0  0  0  0  0  0  0  0
   57.5880   23.3090   45.1530 C   0  0  0  0  0  0  0  0  0  0  0  0
   57.8800   22.3310   44.1980 C   0  0  0  0  0  0  0  0  0  0  0  0
   57.0310   22.1460   43.1030 C   0  0  0  0  0  0  0  0  0  0  0  0
   55.8890   22.9390   42.9620 C   0  0  0  0  0  0  0  0  0  0  0  0
   55.5940   23.9180   43.9170 C   0  0  0  0  0  0  0  0  0  0  0  0
   56.7420   29.1960   44.3740 C   0  0  0  0  0  0  0  0  0  0  0  0
   56.7340   30.5920   44.4290 C   0  0  0  0  0  0  0  0  0  0  0  0
   59.7440   33.0720   44.5540 H   0  0  0  0  0  0  0  0  0  0  0  0
   59.3489   35.4068   43.9960 H   0  0  0  0  0  0  0  0  0  0  0  0
   57.8329   35.3630   44.9833 H   0  0  0  0  0  0  0  0  0  0  0  0
   60.4718   36.1441   45.8019 H   0  0  0  0  0  0  0  0  0  0  0  0
   58.9531   36.0489   46.7832 H   0  0  0  0  0  0  0  0  0  0  0  0
   58.5061   34.1981   48.2518 H   0  0  0  0  0  0  0  0  0  0  0  0
   59.4750   32.3271   49.5892 H   0  0  0  0  0  0  0  0  0  0  0  0
   61.7342   31.4241   49.0252 H   0  0  0  0  0  0  0  0  0  0  0  0
   63.0270   32.3930   47.1222 H   0  0  0  0  0  0  0  0  0  0  0  0
   62.0659   34.2640   45.7785 H   0  0  0  0  0  0  0  0  0  0  0  0
   59.5398   31.0788   46.3260 H   0  0  0  0  0  0  0  0  0  0  0  0
   59.5462   28.5911   46.2333 H   0  0  0  0  0  0  0  0  0  0  0  0
   56.9924   26.6170   44.2622 H   0  0  0  0  0  0  0  0  0  0  0  0
   58.7366   26.5943   44.6790 H   0  0  0  0  0  0  0  0  0  0  0  0
   58.2603   23.4556   46.0112 H   0  0  0  0  0  0  0  0  0  0  0  0
   58.7787   21.7064   44.3082 H   0  0  0  0  0  0  0  0  0  0  0  0
   57.2619   21.3760   42.3521 H   0  0  0  0  0  0  0  0  0  0  0  0
   55.2217   22.7934   42.0997 H   0  0  0  0  0  0  0  0  0  0  0  0
   54.6963   24.5434   43.8024 H   0  0  0  0  0  0  0  0  0  0  0  0
   55.9470   28.6653   43.8296 H   0  0  0  0  0  0  0  0  0  0  0  0
   55.9412   31.1532   43.9127 H   0  0  0  0  0  0  0  0  0  0  0  0
  1  2  2  0
  2  3  1  0
  3  4  1  0
  4  5  1  0
  5  6  1  0
  6  7  2  0
  7  8  1  0
  8  9  2  0
  9 10  1  0
 10 11  2  0
  2 12  1  0
 12 13  2  0
 13 14  1  0
 14 15  2  0
 15 16  1  0
 16 17  1  0
 17 18  1  0
 18 19  2  0
 18 20  2  0
 18 21  1  0
 21 22  2  0
 22 23  1  0
 23 24  2  0
 24 25  1  0
 25 26  2  0
 15 27  1  0
 27 28  2  0
 11  6  1  0
 28 12  1  0
 26 21  1  0
  3 29  1  0
  4 30  1  0
  4 31  1  0
  5 32  1  0
  5 33  1  0
  7 34  1  0
  8 35  1  0
  9 36  1  0
 10 37  1  0
 11 38  1  0
 13 39  1  0
 14 40  1  0
 16 41  1  0
 16 42  1  0
 22 43  1  0
 23 44  1  0
 24 45  1  0
 25 46  1  0
 26 47  1  0
 27 48  1  0
 28 49  1  0
M  CHG  1  17  -1
M  END
>  <UniqueID>  (81) 
73

>  <SMILES>  (81) 
O=C(NCCc1ccccc1)c1ccc(C[N-]S(=O)(=O)c2ccccc2)cc1

>  <Energy>  (81) 
46.66043926452509

>  <Genealogy>  (81) 
O=C(NCCc1ccccc1)c1ccc(C[N-]S(=O)(=O)c2ccccc2)cc1 (protonated)
O=C(NCCc1ccccc1)c1ccc(C[N-]S(=O)(=O)c2ccccc2)cc1 (3D coordinates assigned)
O=C(NCCc1ccccc1)c1ccc(C[N-]S(=O)(=O)c2ccccc2)cc1 (optimized conformer: 46.66043926452509 kcal/mol)

>  <smiles>  (81) 
O=C(NCCc1ccccc1)c1ccc(CNS(=O)(=O)c2ccccc2)cc1

>  <score_type>  (81) 
oracle

>  <origin>  (81) 
adg

>  <m_score__min__energy>  (81) 
-11.06

>  <m_primary>  (81) 
energy

$$$$
81:0
     RDKit          3D

 61 64  0  0  0  0  0  0  0  0999 V2000
   55.6980   29.8280   43.8150 C   0  0  0  0  0  0  0  0  0  0  0  0
   57.0100   29.2110   43.3490 C   0  0  0  0  0  0  0  0  0  0  0  0
   57.9410   28.9920   44.5070 C   0  0  0  0  0  0  0  0  0  0  0  0
   58.7620   29.9430   44.9890 N   0  0  0  0  0  0  0  0  0  0  0  0
   59.4620   29.4410   45.9940 N   0  0  0  0  0  0  0  0  0  0  0  0
   60.4130   30.2330   46.7790 C   0  0  0  0  0  0  0  0  0  0  0  0
   59.7700   30.6810   48.0630 C   0  0  0  0  0  0  0  0  0  0  0  0
   59.6970   29.8080   49.1580 C   0  0  0  0  0  0  0  0  0  0  0  0
   59.0640   30.2080   50.3390 C   0  0  0  0  0  0  0  0  0  0  0  0
   58.4940   31.4880   50.4450 C   0  0  0  0  0  0  0  0  0  0  0  0
   57.8120   31.9110   51.6900 C   0  0  0  0  0  0  0  0  0  0  0  0
   58.0840   33.0360   52.1910 O   0  0  0  0  0  0  0  0  0  0  0  0
   56.8320   31.0740   52.3300 N   0  0  0  0  0  0  0  0  0  0  0  0
   57.1870   30.3330   53.5440 C   0  0  0  0  0  0  0  0  0  0  0  0
   56.5320   28.9540   53.5170 C   0  0  0  0  0  0  0  0  0  0  0  0
   55.0670   29.0400   53.1780 C   0  0  0  0  0  0  0  0  0  0  0  0
   54.2200   27.9750   53.5250 C   0  0  0  0  0  0  0  0  0  0  0  0
   52.8680   28.0030   53.1760 C   0  0  0  0  0  0  0  0  0  0  0  0
   52.3520   29.0880   52.4670 C   0  0  0  0  0  0  0  0  0  0  0  0
   53.1860   30.1470   52.1010 C   0  0  0  0  0  0  0  0  0  0  0  0
   54.5490   30.1290   52.4380 C   0  0  0  0  0  0  0  0  0  0  0  0
   55.4110   31.3070   52.0490 C   0  0  0  0  0  0  0  0  0  0  0  0
   58.5470   32.3500   49.3370 C   0  0  0  0  0  0  0  0  0  0  0  0
   59.1780   31.9490   48.1560 C   0  0  0  0  0  0  0  0  0  0  0  0
   59.1030   28.1470   46.1780 C   0  0  0  0  0  0  0  0  0  0  0  0
   59.7080   27.2080   47.1900 C   0  0  0  0  0  0  0  0  0  0  0  0
   60.7910   26.3420   46.5530 C   0  0  0  0  0  0  0  0  0  0  0  0
   58.1380   27.8200   45.2280 C   0  0  0  0  0  0  0  0  0  0  0  0
   57.4490   26.4940   45.0370 C   0  0  0  0  0  0  0  0  0  0  0  0
   56.4490   26.2450   46.1210 C   0  0  0  0  0  0  0  0  0  0  0  0
   56.7770   25.6070   47.1550 O   0  0  0  0  0  0  0  0  0  0  0  0
   55.1480   26.7130   45.9880 O   0  0  0  0  0  0  0  0  0  0  0  0
   55.6693   29.8415   44.9145 H   0  0  0  0  0  0  0  0  0  0  0  0
   55.6207   30.8568   43.4335 H   0  0  0  0  0  0  0  0  0  0  0  0
   54.8563   29.2313   43.4335 H   0  0  0  0  0  0  0  0  0  0  0  0
   56.8021   28.2446   42.8664 H   0  0  0  0  0  0  0  0  0  0  0  0
   57.4894   29.9003   42.6384 H   0  0  0  0  0  0  0  0  0  0  0  0
   58.8400   30.9250   44.6420 H   0  0  0  0  0  0  0  0  0  0  0  0
   61.2966   29.6193   47.0084 H   0  0  0  0  0  0  0  0  0  0  0  0
   60.7145   31.1168   46.1977 H   0  0  0  0  0  0  0  0  0  0  0  0
   60.1399   28.8036   49.0876 H   0  0  0  0  0  0  0  0  0  0  0  0
   59.0119   29.5152   51.1918 H   0  0  0  0  0  0  0  0  0  0  0  0
   58.2797   30.2175   53.5952 H   0  0  0  0  0  0  0  0  0  0  0  0
   56.8317   30.8872   54.4253 H   0  0  0  0  0  0  0  0  0  0  0  0
   57.0370   28.3342   52.7615 H   0  0  0  0  0  0  0  0  0  0  0  0
   56.6268   28.5095   54.5187 H   0  0  0  0  0  0  0  0  0  0  0  0
   54.6242   27.1127   54.0755 H   0  0  0  0  0  0  0  0  0  0  0  0
   52.2096   27.1690   53.4604 H   0  0  0  0  0  0  0  0  0  0  0  0
   51.2862   29.1096   52.1956 H   0  0  0  0  0  0  0  0  0  0  0  0
   52.7721   31.0011   51.5449 H   0  0  0  0  0  0  0  0  0  0  0  0
   55.2894   31.4939   50.9718 H   0  0  0  0  0  0  0  0  0  0  0  0
   55.0874   32.1724   52.6459 H   0  0  0  0  0  0  0  0  0  0  0  0
   58.0885   33.3480   49.3993 H   0  0  0  0  0  0  0  0  0  0  0  0
   59.2105   32.6320   47.2944 H   0  0  0  0  0  0  0  0  0  0  0  0
   60.1519   27.7965   48.0065 H   0  0  0  0  0  0  0  0  0  0  0  0
   58.9152   26.5504   47.5760 H   0  0  0  0  0  0  0  0  0  0  0  0
   61.3893   25.8636   47.3424 H   0  0  0  0  0  0  0  0  0  0  0  0
   60.3213   25.5676   45.9287 H   0  0  0  0  0  0  0  0  0  0  0  0
   61.4431   26.9706   45.9287 H   0  0  0  0  0  0  0  0  0  0  0  0
   56.9331   26.4940   44.0655 H   0  0  0  0  0  0  0  0  0  0  0  0
   58.2075   25.6982   45.0723 H   0  0  0  0  0  0  0  0  0  0  0  0
  1  2  1  0
  2  3  1  0
  3  4  2  0
  4  5  1  0
  5  6  1  0
  6  7  1  0
  7  8  2  0
  8  9  1  0
  9 10  2  0
 10 11  1  0
 11 12  2  0
 11 13  1  0
 13 14  1  0
 14 15  1  0
 15 16  1  0
 16 17  2  0
 17 18  1  0
 18 19  2  0
 19 20  1  0
 20 21  2  0
 21 22  1  0
 10 23  1  0
 23 24  2  0
  5 25  1  0
 25 26  1  0
 26 27  1  0
 25 28  2  0
 28 29  1  0
 29 30  1  0
 30 31  2  0
 30 32  1  0
 28  3  1  0
 24  7  1  0
 22 13  1  0
 21 16  1  0
  1 33  1  0
  1 34  1  0
  1 35  1  0
  2 36  1  0
  2 37  1  0
  4 38  1  0
  6 39  1  0
  6 40  1  0
  8 41  1  0
  9 42  1  0
 14 43  1  0
 14 44  1  0
 15 45  1  0
 15 46  1  0
 17 47  1  0
 18 48  1  0
 19 49  1  0
 20 50  1  0
 22 51  1  0
 22 52  1  0
 23 53  1  0
 24 54  1  0
 26 55  1  0
 26 56  1  0
 27 57  1  0
 27 58  1  0
 27 59  1  0
 29 60  1  0
 29 61  1  0
M  CHG  2   4   1  32  -1
M  END
>  <UniqueID>  (82) 
74

>  <SMILES>  (82) 
CCc1[nH+]n(Cc2ccc(C(=O)N3CCc4ccccc4C3)cc2)c(CC)c1CC(=O)[O-]

>  <Energy>  (82) 
90.82006473802937

>  <Genealogy>  (82) 
CCc1[nH+]n(Cc2ccc(C(=O)N3CCc4ccccc4C3)cc2)c(CC)c1CC(=O)[O-] (protonated)
CCc1[nH+]n(Cc2ccc(C(=O)N3CCc4ccccc4C3)cc2)c(CC)c1CC(=O)[O-] (3D coordinates assigned)
CCc1[nH+]n(Cc2ccc(C(=O)N3CCc4ccccc4C3)cc2)c(CC)c1CC(=O)[O-] (nonaromatic ring conformer: 90.82006473802937 kcal/mol)

>  <smiles>  (82) 
CCc1nn(Cc2ccc(C(=O)N3CCc4ccccc4C3)cc2)c(CC)c1CC(=O)O

>  <score_type>  (82) 
oracle

>  <origin>  (82) 
adg

>  <m_score__min__energy>  (82) 
-10.4

>  <m_primary>  (82) 
energy

$$$$
82:0
     RDKit          3D

 52 54  0  0  0  0  0  0  0  0999 V2000
   66.4920   32.0880   50.4930 C   0  0  0  0  0  0  0  0  0  0  0  0
   65.8850   33.4430   50.6970 C   0  0  0  0  0  0  0  0  0  0  0  0
   66.5810   34.3520   51.2170 O   0  0  0  0  0  0  0  0  0  0  0  0
   64.5200   33.7200   50.3580 N   0  0  0  0  0  0  0  0  0  0  0  0
   63.7040   32.9870   49.4350 C   0  0  0  0  0  0  0  0  0  0  0  0
   62.6800   32.1750   49.9340 C   0  0  0  0  0  0  0  0  0  0  0  0
   61.8510   31.4650   49.0610 C   0  0  0  0  0  0  0  0  0  0  0  0
   62.0150   31.5880   47.6700 C   0  0  0  0  0  0  0  0  0  0  0  0
   61.1870   30.8620   46.7480 N   0  0  0  0  0  0  0  0  0  0  0  0
   60.5550   29.6050   47.0510 C   0  0  0  0  0  0  0  0  0  0  0  0
   60.7990   29.0060   48.1330 O   0  0  0  0  0  0  0  0  0  0  0  0
   59.6130   28.9900   46.0940 C   0  0  0  0  0  0  0  0  0  0  0  0
   58.6640   29.8180   45.4690 C   0  0  0  0  0  0  0  0  0  0  0  0
   57.7470   29.2870   44.5530 C   0  0  0  0  0  0  0  0  0  0  0  0
   56.5750   30.3250   43.7450 S   0  0  0  0  0  0  0  0  0  0  0  0
   55.2690   30.3580   44.4920 O   0  0  0  0  0  0  0  0  0  0  0  0
   56.3240   29.7870   42.3640 O   0  0  0  0  0  0  0  0  0  0  0  0
   57.2140   31.9330   43.6200 N   0  0  0  0  0  0  0  0  0  0  0  0
   57.8210   32.6690   44.6910 C   0  0  0  0  0  0  0  0  0  0  0  0
   58.8850   33.5300   44.3950 C   0  0  0  0  0  0  0  0  0  0  0  0
   59.5150   34.2550   45.4110 C   0  0  0  0  0  0  0  0  0  0  0  0
   59.0850   34.1290   46.7400 C   0  0  0  0  0  0  0  0  0  0  0  0
   59.7750   34.9060   47.8210 C   0  0  0  0  0  0  0  0  0  0  0  0
   58.0180   33.2690   47.0400 C   0  0  0  0  0  0  0  0  0  0  0  0
   57.3870   32.5460   46.0250 C   0  0  0  0  0  0  0  0  0  0  0  0
   57.7690   27.9200   44.2640 C   0  0  0  0  0  0  0  0  0  0  0  0
   58.7110   27.0880   44.8690 C   0  0  0  0  0  0  0  0  0  0  0  0
   59.6570   27.6110   45.7660 C   0  0  0  0  0  0  0  0  0  0  0  0
   60.6860   26.6770   46.3500 C   0  0  0  0  0  0  0  0  0  0  0  0
   63.0370   32.4070   47.1730 C   0  0  0  0  0  0  0  0  0  0  0  0
   63.8680   33.1140   48.0460 C   0  0  0  0  0  0  0  0  0  0  0  0
   66.6982   31.6277   51.4705 H   0  0  0  0  0  0  0  0  0  0  0  0
   65.7920   31.4537   49.9294 H   0  0  0  0  0  0  0  0  0  0  0  0
   67.4313   32.1881   49.9294 H   0  0  0  0  0  0  0  0  0  0  0  0
   62.5263   32.0948   51.0202 H   0  0  0  0  0  0  0  0  0  0  0  0
   61.0669   30.8071   49.4639 H   0  0  0  0  0  0  0  0  0  0  0  0
   60.9410   31.3320   45.8490 H   0  0  0  0  0  0  0  0  0  0  0  0
   58.6415   30.8929   45.7016 H   0  0  0  0  0  0  0  0  0  0  0  0
   59.2277   33.6367   43.3552 H   0  0  0  0  0  0  0  0  0  0  0  0
   60.3511   34.9268   45.1671 H   0  0  0  0  0  0  0  0  0  0  0  0
   59.4473   34.5369   48.8041 H   0  0  0  0  0  0  0  0  0  0  0  0
   60.8635   34.7791   47.7260 H   0  0  0  0  0  0  0  0  0  0  0  0
   59.5204   35.9719   47.7260 H   0  0  0  0  0  0  0  0  0  0  0  0
   57.6764   33.1635   48.0803 H   0  0  0  0  0  0  0  0  0  0  0  0
   56.5478   31.8779   46.2687 H   0  0  0  0  0  0  0  0  0  0  0  0
   57.0402   27.4982   43.5562 H   0  0  0  0  0  0  0  0  0  0  0  0
   58.7131   26.0118   44.6414 H   0  0  0  0  0  0  0  0  0  0  0  0
   60.6388   26.7199   47.4481 H   0  0  0  0  0  0  0  0  0  0  0  0
   60.4814   25.6497   46.0140 H   0  0  0  0  0  0  0  0  0  0  0  0
   61.6887   26.9798   46.0140 H   0  0  0  0  0  0  0  0  0  0  0  0
   63.1866   32.4943   46.0867 H   0  0  0  0  0  0  0  0  0  0  0  0
   64.6528   33.7718   47.6442 H   0  0  0  0  0  0  0  0  0  0  0  0
  1  2  1  0
  2  3  2  0
  2  4  1  0
  4  5  1  0
  5  6  2  0
  6  7  1  0
  7  8  2  0
  8  9  1  0
  9 10  1  0
 10 11  2  0
 10 12  1  0
 12 13  2  0
 13 14  1  0
 14 15  1  0
 15 16  2  0
 15 17  2  0
 15 18  1  0
 18 19  1  0
 19 20  2  0
 20 21  1  0
 21 22  2  0
 22 23  1  0
 22 24  1  0
 24 25  2  0
 14 26  2  0
 26 27  1  0
 27 28  2  0
 28 29  1  0
  8 30  1  0
 30 31  2  0
 31  5  1  0
 28 12  1  0
 25 19  1  0
  1 32  1  0
  1 33  1  0
  1 34  1  0
  6 35  1  0
  7 36  1  0
  9 37  1  0
 13 38  1  0
 20 39  1  0
 21 40  1  0
 23 41  1  0
 23 42  1  0
 23 43  1  0
 24 44  1  0
 25 45  1  0
 26 46  1  0
 27 47  1  0
 29 48  1  0
 29 49  1  0
 29 50  1  0
 30 51  1  0
 31 52  1  0
M  CHG  2   4  -1  18  -1
M  END
>  <UniqueID>  (83) 
75

>  <SMILES>  (83) 
CC(=O)[N-]c1ccc(NC(=O)c2cc(S(=O)(=O)[N-]c3ccc(C)cc3)ccc2C)cc1

>  <Energy>  (83) 
69.98833349106275

>  <Genealogy>  (83) 
CC(=O)[N-]c1ccc(NC(=O)c2cc(S(=O)(=O)[N-]c3ccc(C)cc3)ccc2C)cc1 (protonated)
CC(=O)[N-]c1ccc(NC(=O)c2cc(S(=O)(=O)[N-]c3ccc(C)cc3)ccc2C)cc1 (3D coordinates assigned)
CC(=O)[N-]c1ccc(NC(=O)c2cc(S(=O)(=O)[N-]c3ccc(C)cc3)ccc2C)cc1 (optimized conformer: 69.98833349106275 kcal/mol)

>  <smiles>  (83) 
CC(=O)Nc1ccc(NC(=O)c2cc(S(=O)(=O)Nc3ccc(C)cc3)ccc2C)cc1

>  <score_type>  (83) 
oracle

>  <origin>  (83) 
adg

>  <m_score__min__energy>  (83) 
-11.880000000000001

>  <m_primary>  (83) 
energy

$$$$
83:0
     RDKit          3D

 40 41  0  0  0  0  0  0  0  0999 V2000
   57.7470   33.4010   46.9890 C   0  0  0  0  0  0  0  0  0  0  0  0
   58.2250   32.7960   45.6630 C   0  0  0  0  0  0  0  0  0  0  0  0
   58.8340   33.8670   44.7470 C   0  0  0  0  0  0  0  0  0  0  0  0
   59.1430   31.5630   45.8540 C   0  0  0  0  0  0  0  0  0  0  0  0
   59.0620   30.4530   44.7800 C   0  0  0  0  0  0  0  0  0  0  0  0
   58.0480   29.4190   45.0840 N   0  0  0  0  0  0  0  0  0  0  0  0
   56.7060   29.6910   44.9470 C   0  0  0  0  0  0  0  0  0  0  0  0
   56.3150   30.8240   44.5550 O   0  0  0  0  0  0  0  0  0  0  0  0
   55.7790   28.7440   45.2450 N   0  0  0  0  0  0  0  0  0  0  0  0
   56.1390   27.5040   45.6550 C   0  0  0  0  0  0  0  0  0  0  0  0
   55.1540   26.5890   46.0130 O   0  0  0  0  0  0  0  0  0  0  0  0
   57.4940   27.1620   45.7310 C   0  0  0  0  0  0  0  0  0  0  0  0
   57.9300   25.8080   46.1530 C   0  0  0  0  0  0  0  0  0  0  0  0
   58.5820   24.9820   45.3840 N   0  0  0  0  0  0  0  0  0  0  0  0
   58.0380   23.8660   44.6620 C   0  0  0  0  0  0  0  0  0  0  0  0
   56.8160   24.0220   43.9940 C   0  0  0  0  0  0  0  0  0  0  0  0
   56.2520   22.9520   43.2930 C   0  0  0  0  0  0  0  0  0  0  0  0
   56.8950   21.7110   43.2750 C   0  0  0  0  0  0  0  0  0  0  0  0
   56.3460   20.6730   42.5970 F   0  0  0  0  0  0  0  0  0  0  0  0
   58.0950   21.5350   43.9700 C   0  0  0  0  0  0  0  0  0  0  0  0
   58.6620   22.6030   44.6730 C   0  0  0  0  0  0  0  0  0  0  0  0
   59.7890   22.3900   45.3980 F   0  0  0  0  0  0  0  0  0  0  0  0
   58.4450   28.1540   45.4440 C   0  0  0  0  0  0  0  0  0  0  0  0
   59.6730   27.8610   45.4980 O   0  0  0  0  0  0  0  0  0  0  0  0
   58.1885   32.8421   47.8273 H   0  0  0  0  0  0  0  0  0  0  0  0
   58.0596   34.4542   47.0453 H   0  0  0  0  0  0  0  0  0  0  0  0
   56.6501   33.3406   47.0453 H   0  0  0  0  0  0  0  0  0  0  0  0
   57.3339   32.4067   45.1487 H   0  0  0  0  0  0  0  0  0  0  0  0
   59.2853   34.6607   45.3605 H   0  0  0  0  0  0  0  0  0  0  0  0
   59.6073   33.4099   44.1121 H   0  0  0  0  0  0  0  0  0  0  0  0
   58.0458   34.2978   44.1121 H   0  0  0  0  0  0  0  0  0  0  0  0
   60.1818   31.9238   45.8803 H   0  0  0  0  0  0  0  0  0  0  0  0
   58.7929   31.0878   46.7823 H   0  0  0  0  0  0  0  0  0  0  0  0
   58.8089   30.9177   43.8157 H   0  0  0  0  0  0  0  0  0  0  0  0
   60.0410   29.9522   44.7537 H   0  0  0  0  0  0  0  0  0  0  0  0
   54.7620   28.9770   45.1680 H   0  0  0  0  0  0  0  0  0  0  0  0
   57.6887   25.4820   47.1755 H   0  0  0  0  0  0  0  0  0  0  0  0
   56.2977   24.9918   44.0214 H   0  0  0  0  0  0  0  0  0  0  0  0
   55.3018   23.0867   42.7554 H   0  0  0  0  0  0  0  0  0  0  0  0
   58.5943   20.5548   43.9640 H   0  0  0  0  0  0  0  0  0  0  0  0
  1  2  1  0
  2  3  1  0
  2  4  1  0
  4  5  1  0
  5  6  1  0
  6  7  1  0
  7  8  2  0
  7  9  1  0
  9 10  1  0
 10 11  1  0
 10 12  2  0
 12 13  1  0
 13 14  2  3
 14 15  1  0
 15 16  2  0
 16 17  1  0
 17 18  2  0
 18 19  1  0
 18 20  1  0
 20 21  2  0
 21 22  1  0
 12 23  1  0
 23 24  2  0
 23  6  1  0
 21 15  1  0
  1 25  1  0
  1 26  1  0
  1 27  1  0
  2 28  1  0
  3 29  1  0
  3 30  1  0
  3 31  1  0
  4 32  1  0
  4 33  1  0
  5 34  1  0
  5 35  1  0
  9 36  1  0
 13 37  1  0
 16 38  1  0
 17 39  1  0
 20 40  1  0
M  CHG  1  11  -1
M  END
>  <UniqueID>  (84) 
76

>  <SMILES>  (84) 
CC(C)CCn1c(=O)[nH]c([O-])c(C=Nc2ccc(F)cc2F)c1=O

>  <Energy>  (84) 
55.73316216116471

>  <Genealogy>  (84) 
CC(C)CCn1c(=O)[nH]c([O-])c(C=Nc2ccc(F)cc2F)c1=O (protonated)
CC(C)CCn1c(=O)[nH]c([O-])c(C=Nc2ccc(F)cc2F)c1=O (3D coordinates assigned)
CC(C)CCn1c(=O)[nH]c([O-])c(C=Nc2ccc(F)cc2F)c1=O (optimized conformer: 55.73316216116471 kcal/mol)

>  <smiles>  (84) 
CC(C)CCn1c(=O)[nH]c(O)c(C=Nc2ccc(F)cc2F)c1=O

>  <score_type>  (84) 
oracle

>  <origin>  (84) 
adg

>  <m_score__min__energy>  (84) 
-10.49

>  <m_primary>  (84) 
energy

$$$$
84:0
     RDKit          3D

 45 47  0  0  1  0  0  0  0  0999 V2000
   56.3110   29.6200   42.2930 C   0  0  0  0  0  0  0  0  0  0  0  0
   56.7380   30.2780   43.8730 S   0  0  0  0  0  0  0  0  0  0  0  0
   55.4990   30.2040   44.7370 O   0  0  0  0  0  0  0  0  0  0  0  0
   57.7560   29.3480   44.4920 O   0  0  0  0  0  0  0  0  0  0  0  0
   57.3800   31.8530   43.8290 N   0  0  0  0  0  0  0  0  0  0  0  0
   57.8840   32.5600   44.9550 C   0  0  0  0  0  0  0  0  0  0  0  0
   58.1020   33.9150   44.8750 C   0  0  0  0  0  0  0  0  0  0  0  0
   58.5910   34.5670   45.9850 C   0  0  0  0  0  0  0  0  0  0  0  0
   58.8590   33.8620   47.1590 C   0  0  0  0  0  0  0  0  0  0  0  0
   58.6480   32.5010   47.2630 C   0  0  0  0  0  0  0  0  0  0  0  0
   58.9270   31.7670   48.4890 C   0  0  0  0  0  0  0  0  0  0  0  0
   59.2450   30.4240   48.4670 C   0  0  0  0  0  0  0  0  0  0  0  0
   59.5160   29.7060   49.6360 C   0  0  0  0  0  0  0  0  0  0  0  0
   59.8090   28.4550   49.5890 N   0  0  0  0  0  0  0  0  0  0  0  0
   59.6080   27.7770   48.3540 C   0  0  0  0  0  0  0  0  0  0  0  0
   60.7670   27.3890   47.6810 C   0  0  0  0  0  0  0  0  0  0  0  0
   60.7460   26.7280   46.4840 C   0  0  0  0  0  0  0  0  0  0  0  0
   59.5090   26.4420   45.9330 C   0  0  0  0  0  0  0  0  0  0  0  0
   58.3580   26.8290   46.6040 C   0  0  0  0  0  0  0  0  0  0  0  0
   56.8350   26.4280   45.8360 S   0  0  0  0  0  0  0  0  0  0  0  0
   55.9230   27.8620   45.4490 N   0  0  0  0  0  0  0  0  0  0  0  0
   56.0010   25.5570   46.7640 O   0  0  0  0  0  0  0  0  0  0  0  0
   57.0080   25.6610   44.5740 O   0  0  0  0  0  0  0  0  0  0  0  0
   58.3940   27.4960   47.8120 C   0  0  0  0  0  0  0  0  0  0  0  0
   59.4640   30.3580   50.8260 N   0  0  0  0  0  0  0  0  0  0  0  0
   59.1540   31.6690   50.8490 C   0  0  0  0  0  0  0  0  0  0  0  0
   58.8920   32.3550   49.6980 N   0  0  0  0  0  0  0  0  0  0  0  0
   58.1570   31.8680   46.1410 C   0  0  0  0  0  0  0  0  0  0  0  0
   55.7166   28.7040   42.4257 H   0  0  0  0  0  0  0  0  0  0  0  0
   55.7217   30.3618   41.7340 H   0  0  0  0  0  0  0  0  0  0  0  0
   57.2285   29.3839   41.7340 H   0  0  0  0  0  0  0  0  0  0  0  0
   57.4300   32.3910   42.9110 H   0  0  0  0  0  0  0  0  0  0  0  0
   57.8908   34.4654   43.9463 H   0  0  0  0  0  0  0  0  0  0  0  0
   58.7716   35.6514   45.9459 H   0  0  0  0  0  0  0  0  0  0  0  0
   59.2510   34.4078   48.0298 H   0  0  0  0  0  0  0  0  0  0  0  0
   59.2866   29.9021   47.4996 H   0  0  0  0  0  0  0  0  0  0  0  0
   61.7413   27.6254   48.1335 H   0  0  0  0  0  0  0  0  0  0  0  0
   61.6776   26.4346   45.9779 H   0  0  0  0  0  0  0  0  0  0  0  0
   59.4391   25.9124   44.9714 H   0  0  0  0  0  0  0  0  0  0  0  0
   56.0370   28.0400   44.4470 H   0  0  0  0  0  0  0  0  0  0  0  0
   56.3100   28.6760   45.9970 H   0  0  0  0  0  0  0  0  0  0  0  0
   57.4654   27.7920   48.3219 H   0  0  0  0  0  0  0  0  0  0  0  0
   59.1112   32.1966   51.8133 H   0  0  0  0  0  0  0  0  0  0  0  0
   58.6660   33.3570   49.8290 H   0  0  0  0  0  0  0  0  0  0  0  0
   57.9738   30.7840   46.1789 H   0  0  0  0  0  0  0  0  0  0  0  0
  1  2  1  0
  2  3  2  0
  2  4  2  0
  2  5  1  0
  5  6  1  0
  6  7  2  0
  7  8  1  0
  8  9  2  0
  9 10  1  0
 10 11  1  0
 11 12  2  0
 12 13  1  0
 13 14  2  0
 14 15  1  0
 15 16  2  0
 16 17  1  0
 17 18  2  0
 18 19  1  0
 19 20  1  0
 20 21  1  0
 20 22  2  0
 20 23  2  0
 19 24  2  0
 13 25  1  0
 25 26  2  0
 26 27  1  0
 10 28  2  0
 28  6  1  0
 27 11  1  0
 24 15  1  0
  1 29  1  0
  1 30  1  0
  1 31  1  0
  5 32  1  0
  7 33  1  0
  8 34  1  0
  9 35  1  0
 12 36  1  0
 16 37  1  0
 17 38  1  0
 18 39  1  0
 21 40  1  0
 21 41  1  0
 24 42  1  0
 26 43  1  0
 27 44  1  0
 28 45  1  0
M  END
>  <smiles>  (85) 
CS(=O)(=O)Nc1cccc(-c2cc(=Nc3cccc(S(N)(=O)=O)c3)nc[nH]2)c1

>  <score_type>  (85) 
oracle

>  <origin>  (85) 
adg

>  <m_score__min__energy>  (85) 
-10.199999999999999

>  <m_primary>  (85) 
energy

$$$$
85:0
     RDKit          3D

 45 47  0  0  0  0  0  0  0  0999 V2000
   63.5820   33.2920   47.2180 C   0  0  0  0  0  0  0  0  0  0  0  0
   62.1230   33.5710   47.4540 C   0  0  0  0  0  0  0  0  0  0  0  0
   61.2090   33.4680   46.3900 C   0  0  0  0  0  0  0  0  0  0  0  0
   59.8420   33.7330   46.5870 C   0  0  0  0  0  0  0  0  0  0  0  0
   58.8730   33.6280   45.4700 C   0  0  0  0  0  0  0  0  0  0  0  0
   58.5240   34.6730   44.8550 O   0  0  0  0  0  0  0  0  0  0  0  0
   58.3070   32.3630   45.0930 N   0  0  0  0  0  0  0  0  0  0  0  0
   57.4140   32.2430   43.9410 C   0  0  0  0  0  0  0  0  0  0  0  0
   56.7250   30.9020   43.9370 C   0  0  0  0  0  0  0  0  0  0  0  0
   56.2740   30.4590   42.8480 O   0  0  0  0  0  0  0  0  0  0  0  0
   56.5840   30.0950   45.1170 N   0  0  0  0  0  0  0  0  0  0  0  0
   57.1660   28.7710   45.3360 C   0  0  1  0  0  0  0  0  0  0  0  0
   57.7280   28.2370   44.0070 C   0  0  0  0  0  0  0  0  0  0  0  0
   58.4510   26.8700   44.1480 C   0  0  0  0  0  0  0  0  0  0  0  0
   58.7110   26.4210   45.6030 C   0  0  0  0  0  0  0  0  0  0  0  0
   59.0400   27.5920   46.4910 C   0  0  0  0  0  0  0  0  0  0  0  0
   60.0600   27.5090   47.4510 C   0  0  0  0  0  0  0  0  0  0  0  0
   60.3480   28.6080   48.2630 C   0  0  0  0  0  0  0  0  0  0  0  0
   59.6230   29.7940   48.1210 C   0  0  0  0  0  0  0  0  0  0  0  0
   58.5990   29.8820   47.1730 C   0  0  0  0  0  0  0  0  0  0  0  0
   58.2810   28.7710   46.3660 C   0  0  0  0  0  0  0  0  0  0  0  0
   59.4020   34.1240   47.8610 C   0  0  0  0  0  0  0  0  0  0  0  0
   60.3030   34.2300   48.9210 C   0  0  0  0  0  0  0  0  0  0  0  0
   61.6600   33.9560   48.7270 C   0  0  0  0  0  0  0  0  0  0  0  0
   62.8460   34.1340   50.2240 Br  0  0  0  0  0  0  0  0  0  0  0  0
   64.0975   33.1934   48.1847 H   0  0  0  0  0  0  0  0  0  0  0  0
   63.6891   32.3571   46.6483 H   0  0  0  0  0  0  0  0  0  0  0  0
   64.0265   34.1214   46.6483 H   0  0  0  0  0  0  0  0  0  0  0  0
   61.5677   33.1767   45.3918 H   0  0  0  0  0  0  0  0  0  0  0  0
   58.4800   31.5270   45.6970 H   0  0  0  0  0  0  0  0  0  0  0  0
   56.6555   33.0383   43.9879 H   0  0  0  0  0  0  0  0  0  0  0  0
   58.0097   32.3368   43.0210 H   0  0  0  0  0  0  0  0  0  0  0  0
   56.3594   28.1297   45.7209 H   0  0  0  0  0  0  0  0  0  0  0  0
   56.8950   28.1194   43.2983 H   0  0  0  0  0  0  0  0  0  0  0  0
   58.4743   28.9642   43.6545 H   0  0  0  0  0  0  0  0  0  0  0  0
   57.8319   26.1035   43.6589 H   0  0  0  0  0  0  0  0  0  0  0  0
   59.4393   26.9931   43.6809 H   0  0  0  0  0  0  0  0  0  0  0  0
   57.8104   25.9213   45.9893 H   0  0  0  0  0  0  0  0  0  0  0  0
   59.5705   25.7345   45.6042 H   0  0  0  0  0  0  0  0  0  0  0  0
   60.6334   26.5771   47.5641 H   0  0  0  0  0  0  0  0  0  0  0  0
   61.1471   28.5399   49.0158 H   0  0  0  0  0  0  0  0  0  0  0  0
   59.8584   30.6605   48.7565 H   0  0  0  0  0  0  0  0  0  0  0  0
   58.0394   30.8219   47.0566 H   0  0  0  0  0  0  0  0  0  0  0  0
   58.3378   34.3488   48.0252 H   0  0  0  0  0  0  0  0  0  0  0  0
   59.9432   34.5312   49.9159 H   0  0  0  0  0  0  0  0  0  0  0  0
  1  2  1  0
  2  3  2  0
  3  4  1  0
  4  5  1  0
  5  6  2  0
  5  7  1  0
  7  8  1  0
  8  9  1  0
  9 10  2  0
  9 11  1  0
 11 12  1  0
 12 13  1  0
 13 14  1  0
 14 15  1  0
 15 16  1  0
 16 17  2  0
 17 18  1  0
 18 19  2  0
 19 20  1  0
 20 21  2  0
  4 22  2  0
 22 23  1  0
 23 24  2  0
 24 25  1  0
 24  2  1  0
 21 12  1  0
 21 16  1  0
  1 26  1  0
  1 27  1  0
  1 28  1  0
  3 29  1  0
  7 30  1  0
  8 31  1  0
  8 32  1  0
 12 33  1  1
 13 34  1  0
 13 35  1  0
 14 36  1  0
 14 37  1  0
 15 38  1  0
 15 39  1  0
 17 40  1  0
 18 41  1  0
 19 42  1  0
 20 43  1  0
 22 44  1  0
 23 45  1  0
M  CHG  1  11  -1
M  END
>  <UniqueID>  (86) 
77

>  <SMILES>  (86) 
Cc1cc(C(=O)NCC(=O)[N-][C@H]2CCCc3ccccc32)ccc1Br

>  <Energy>  (86) 
53.3845327149808

>  <Genealogy>  (86) 
Cc1cc(C(=O)NCC(=O)[N-]C2CCCc3ccccc32)ccc1Br (protonated)
Cc1cc(C(=O)NCC(=O)[N-][C@H]2CCCc3ccccc32)ccc1Br (chirality)
Cc1cc(C(=O)NCC(=O)[N-][C@H]2CCCc3ccccc32)ccc1Br (3D coordinates assigned)
Cc1cc(C(=O)NCC(=O)[N-][C@H]2CCCc3ccccc32)ccc1Br (nonaromatic ring conformer: 53.3845327149808 kcal/mol)

>  <smiles>  (86) 
Cc1cc(C(=O)NCC(=O)NC2CCCc3ccccc32)ccc1Br

>  <score_type>  (86) 
oracle

>  <origin>  (86) 
adg

>  <m_score__min__energy>  (86) 
-10.24

>  <m_primary>  (86) 
energy

$$$$
86:0
     RDKit          3D

 31 32  0  0  0  0  0  0  0  0999 V2000
   57.7960   28.0930   43.7560 C   0  0  0  0  0  0  0  0  0  0  0  0
   57.4220   28.9420   44.8340 O   0  0  0  0  0  0  0  0  0  0  0  0
   56.3190   29.8000   44.7710 C   0  0  0  0  0  0  0  0  0  0  0  0
   55.1480   29.3380   44.8330 O   0  0  0  0  0  0  0  0  0  0  0  0
   56.5010   31.2070   44.5820 N   0  0  0  0  0  0  0  0  0  0  0  0
   57.4410   32.0380   45.2780 C   0  0  0  0  0  0  0  0  0  0  0  0
   57.5440   33.3860   44.9150 C   0  0  0  0  0  0  0  0  0  0  0  0
   58.4340   34.2350   45.5810 C   0  0  0  0  0  0  0  0  0  0  0  0
   59.2130   33.7510   46.6460 C   0  0  0  0  0  0  0  0  0  0  0  0
   60.1540   34.5970   47.3290 N   0  0  0  0  0  0  0  0  0  0  0  0
   61.4580   34.1740   47.7660 C   0  0  0  0  0  0  0  0  0  0  0  0
   62.4460   33.7790   46.8470 C   0  0  0  0  0  0  0  0  0  0  0  0
   63.7160   33.4000   47.2950 C   0  0  0  0  0  0  0  0  0  0  0  0
   64.0130   33.4260   48.6600 C   0  0  0  0  0  0  0  0  0  0  0  0
   63.0440   33.8410   49.5780 C   0  0  0  0  0  0  0  0  0  0  0  0
   61.7740   34.2200   49.1330 C   0  0  0  0  0  0  0  0  0  0  0  0
   59.1070   32.4010   47.0110 C   0  0  0  0  0  0  0  0  0  0  0  0
   58.2190   31.5530   46.3440 C   0  0  0  0  0  0  0  0  0  0  0  0
   58.2093   27.1548   44.1546 H   0  0  0  0  0  0  0  0  0  0  0  0
   56.9120   27.8717   43.1398 H   0  0  0  0  0  0  0  0  0  0  0  0
   58.5559   28.5959   43.1398 H   0  0  0  0  0  0  0  0  0  0  0  0
   56.9201   33.7807   44.0996 H   0  0  0  0  0  0  0  0  0  0  0  0
   58.5246   35.2862   45.2698 H   0  0  0  0  0  0  0  0  0  0  0  0
   59.8720   35.5860   47.5190 H   0  0  0  0  0  0  0  0  0  0  0  0
   62.2194   33.7679   45.7707 H   0  0  0  0  0  0  0  0  0  0  0  0
   64.4813   33.0813   46.5720 H   0  0  0  0  0  0  0  0  0  0  0  0
   65.0091   33.1200   49.0122 H   0  0  0  0  0  0  0  0  0  0  0  0
   63.2810   33.8694   50.6518 H   0  0  0  0  0  0  0  0  0  0  0  0
   61.0182   34.5561   49.8581 H   0  0  0  0  0  0  0  0  0  0  0  0
   59.7279   32.0066   47.8289 H   0  0  0  0  0  0  0  0  0  0  0  0
   58.1282   30.5016   46.6542 H   0  0  0  0  0  0  0  0  0  0  0  0
  1  2  1  0
  2  3  1  0
  3  4  2  0
  3  5  1  0
  5  6  1  0
  6  7  2  0
  7  8  1  0
  8  9  2  0
  9 10  1  0
 10 11  1  0
 11 12  2  0
 12 13  1  0
 13 14  2  0
 14 15  1  0
 15 16  2  0
  9 17  1  0
 17 18  2  0
 18  6  1  0
 16 11  1  0
  1 19  1  0
  1 20  1  0
  1 21  1  0
  7 22  1  0
  8 23  1  0
 10 24  1  0
 12 25  1  0
 13 26  1  0
 14 27  1  0
 15 28  1  0
 16 29  1  0
 17 30  1  0
 18 31  1  0
M  CHG  1   5  -1
M  END
>  <UniqueID>  (87) 
78

>  <SMILES>  (87) 
COC(=O)[N-]c1ccc(Nc2ccccc2)cc1

>  <Energy>  (87) 
37.54004134212452

>  <Genealogy>  (87) 
COC(=O)[N-]c1ccc(Nc2ccccc2)cc1 (protonated)
COC(=O)[N-]c1ccc(Nc2ccccc2)cc1 (3D coordinates assigned)
COC(=O)[N-]c1ccc(Nc2ccccc2)cc1 (optimized conformer: 37.54004134212452 kcal/mol)

>  <smiles>  (87) 
COC(=O)Nc1ccc(Nc2ccccc2)cc1

>  <score_type>  (87) 
oracle

>  <origin>  (87) 
adg

>  <m_score__min__energy>  (87) 
-8.0299999999999994

>  <m_primary>  (87) 
energy

$$$$
87:0
     RDKit          3D

 23 23  0  0  0  0  0  0  0  0999 V2000
   55.5430   30.1070   43.7580 C   0  0  0  0  0  0  0  0  0  0  0  0
   55.5140   29.1620   44.8230 O   0  0  0  0  0  0  0  0  0  0  0  0
   56.6110   28.3850   45.2250 C   0  0  0  0  0  0  0  0  0  0  0  0
   57.9400   28.8080   45.0430 C   0  0  0  0  0  0  0  0  0  0  0  0
   59.0200   28.0030   45.4500 C   0  0  0  0  0  0  0  0  0  0  0  0
   60.4240   28.5220   45.2300 C   0  0  0  0  0  0  0  0  0  0  0  0
   60.7030   29.6960   46.1190 C   0  0  0  0  0  0  0  0  0  0  0  0
   59.8990   30.0280   46.9750 O   0  0  0  0  0  0  0  0  0  0  0  0
   58.7600   26.7560   46.0790 C   0  0  0  0  0  0  0  0  0  0  0  0
   59.8550   25.8810   46.5680 C   0  0  0  0  0  0  0  0  0  0  0  0
   60.8030   26.3500   47.2520 O   0  0  0  0  0  0  0  0  0  0  0  0
   57.4260   26.3450   46.2510 C   0  0  0  0  0  0  0  0  0  0  0  0
   56.3660   27.1480   45.8280 C   0  0  0  0  0  0  0  0  0  0  0  0
   55.0590   26.7120   46.0140 O   0  0  0  0  0  0  0  0  0  0  0  0
   55.5743   31.1255   44.1723 H   0  0  0  0  0  0  0  0  0  0  0  0
   56.4363   29.9352   43.1395 H   0  0  0  0  0  0  0  0  0  0  0  0
   54.6408   29.9903   43.1395 H   0  0  0  0  0  0  0  0  0  0  0  0
   58.1383   29.7836   44.5751 H   0  0  0  0  0  0  0  0  0  0  0  0
   61.1438   27.7209   45.4540 H   0  0  0  0  0  0  0  0  0  0  0  0
   60.5213   28.8423   44.1822 H   0  0  0  0  0  0  0  0  0  0  0  0
   61.6385   30.2621   45.9991 H   0  0  0  0  0  0  0  0  0  0  0  0
   59.8382   24.8073   46.3295 H   0  0  0  0  0  0  0  0  0  0  0  0
   57.2150   25.3757   46.7263 H   0  0  0  0  0  0  0  0  0  0  0  0
  1  2  1  0
  2  3  1  0
  3  4  2  0
  4  5  1  0
  5  6  1  0
  6  7  1  0
  7  8  2  0
  5  9  2  0
  9 10  1  0
 10 11  2  0
  9 12  1  0
 12 13  2  0
 13 14  1  0
 13  3  1  0
  1 15  1  0
  1 16  1  0
  1 17  1  0
  4 18  1  0
  6 19  1  0
  6 20  1  0
  7 21  1  0
 10 22  1  0
 12 23  1  0
M  CHG  1  14  -1
M  END
>  <UniqueID>  (88) 
79

>  <SMILES>  (88) 
COc1cc(CC=O)c(C=O)cc1[O-]

>  <Energy>  (88) 
21.8327979776816

>  <Genealogy>  (88) 
COc1cc(CC=O)c(C=O)cc1[O-] (protonated)
COc1cc(CC=O)c(C=O)cc1[O-] (3D coordinates assigned)
COc1cc(CC=O)c(C=O)cc1[O-] (optimized conformer: 21.8327979776816 kcal/mol)

>  <smiles>  (88) 
COc1cc(CC=O)c(C=O)cc1O

>  <score_type>  (88) 
oracle

>  <origin>  (88) 
adg

>  <m_score__min__energy>  (88) 
-8.7400000000000002

>  <m_primary>  (88) 
energy

$$$$
88:0
     RDKit          3D

 37 39  0  0  0  0  0  0  0  0999 V2000
   58.1330   27.2500   43.4240 C   0  0  0  0  0  0  0  0  0  0  0  0
   58.5600   27.4960   44.8400 C   0  0  0  0  0  0  0  0  0  0  0  0
   59.6460   26.8540   45.2680 O   0  0  0  0  0  0  0  0  0  0  0  0
   60.1240   26.9710   46.5010 C   0  0  0  0  0  0  0  0  0  0  0  0
   61.1570   26.3330   46.8330 O   0  0  0  0  0  0  0  0  0  0  0  0
   59.4870   27.7940   47.4250 C   0  0  0  0  0  0  0  0  0  0  0  0
   58.3490   28.4910   47.0300 C   0  0  0  0  0  0  0  0  0  0  0  0
   57.8570   28.3650   45.7200 C   0  0  0  0  0  0  0  0  0  0  0  0
   56.6430   29.1350   45.3300 C   0  0  0  0  0  0  0  0  0  0  0  0
   55.5330   28.5590   45.1760 O   0  0  0  0  0  0  0  0  0  0  0  0
   56.7340   30.5570   45.1630 N   0  0  0  0  0  0  0  0  0  0  0  0
   57.1770   31.2680   43.9950 C   0  0  0  0  0  0  0  0  0  0  0  0
   56.7790   30.8840   42.7010 C   0  0  0  0  0  0  0  0  0  0  0  0
   57.2230   31.5980   41.5860 C   0  0  0  0  0  0  0  0  0  0  0  0
   58.0740   32.6930   41.7470 C   0  0  0  0  0  0  0  0  0  0  0  0
   58.4960   33.0670   43.0240 C   0  0  0  0  0  0  0  0  0  0  0  0
   58.0670   32.3510   44.1520 C   0  0  0  0  0  0  0  0  0  0  0  0
   58.5180   32.7470   45.4600 N   0  0  0  0  0  0  0  0  0  0  0  0
   59.4390   31.9720   46.1060 C   0  0  0  0  0  0  0  0  0  0  0  0
   59.9050   32.3340   47.3720 C   0  0  0  0  0  0  0  0  0  0  0  0
   60.8840   31.5160   48.0450 C   0  0  0  0  0  0  0  0  0  0  0  0
   61.6680   30.8590   48.5860 N   0  0  0  0  0  0  0  0  0  0  0  0
   59.4020   33.5010   47.9570 C   0  0  0  0  0  0  0  0  0  0  0  0
   59.7920   33.8720   49.0960 O   0  0  0  0  0  0  0  0  0  0  0  0
   58.4800   34.2410   47.2920 N   0  0  0  0  0  0  0  0  0  0  0  0
   58.0350   33.8790   46.0610 C   0  0  0  0  0  0  0  0  0  0  0  0
   57.1660   34.5920   45.4870 O   0  0  0  0  0  0  0  0  0  0  0  0
   57.1799   26.7009   43.4186 H   0  0  0  0  0  0  0  0  0  0  0  0
   58.0046   28.2125   42.9073 H   0  0  0  0  0  0  0  0  0  0  0  0
   58.9013   26.6561   42.9073 H   0  0  0  0  0  0  0  0  0  0  0  0
   59.8760   27.8918   48.4492 H   0  0  0  0  0  0  0  0  0  0  0  0
   57.8316   29.1445   47.7478 H   0  0  0  0  0  0  0  0  0  0  0  0
   56.1150   30.0173   42.5672 H   0  0  0  0  0  0  0  0  0  0  0  0
   56.9014   31.2968   40.5781 H   0  0  0  0  0  0  0  0  0  0  0  0
   58.4119   33.2610   40.8677 H   0  0  0  0  0  0  0  0  0  0  0  0
   59.1690   33.9284   43.1468 H   0  0  0  0  0  0  0  0  0  0  0  0
   59.8161   31.0569   45.6260 H   0  0  0  0  0  0  0  0  0  0  0  0
  1  2  1  0
  2  3  1  0
  3  4  1  0
  4  5  2  0
  4  6  1  0
  6  7  2  0
  7  8  1  0
  8  9  1  0
  9 10  2  0
  9 11  1  0
 11 12  1  0
 12 13  2  0
 13 14  1  0
 14 15  2  0
 15 16  1  0
 16 17  2  0
 17 18  1  0
 18 19  1  0
 19 20  2  0
 20 21  1  0
 21 22  3  0
 20 23  1  0
 23 24  2  0
 23 25  1  0
 25 26  1  0
 26 27  2  0
  8  2  2  0
 17 12  1  0
 26 18  1  0
  1 28  1  0
  1 29  1  0
  1 30  1  0
  6 31  1  0
  7 32  1  0
 13 33  1  0
 14 34  1  0
 15 35  1  0
 16 36  1  0
 19 37  1  0
M  CHG  2  11  -1  25  -1
M  END
>  <UniqueID>  (89) 
80

>  <SMILES>  (89) 
Cc1oc(=O)ccc1C(=O)[N-]c1ccccc1-n1cc(C#N)c(=O)[n-]c1=O

>  <Energy>  (89) 
57.72168706230342

>  <Genealogy>  (89) 
Cc1oc(=O)ccc1C(=O)[N-]c1ccccc1-n1cc(C#N)c(=O)[n-]c1=O (protonated)
Cc1oc(=O)ccc1C(=O)[N-]c1ccccc1-n1cc(C#N)c(=O)[n-]c1=O (3D coordinates assigned)
Cc1oc(=O)ccc1C(=O)[N-]c1ccccc1-n1cc(C#N)c(=O)[n-]c1=O (optimized conformer: 57.72168706230342 kcal/mol)

>  <smiles>  (89) 
Cc1oc(=O)ccc1C(=O)Nc1ccccc1-n1cc(C#N)c(=O)[nH]c1=O

>  <score_type>  (89) 
oracle

>  <origin>  (89) 
adg

>  <m_score__min__energy>  (89) 
-11.92

>  <m_primary>  (89) 
energy

$$$$
89:0
     RDKit          3D

 41 43  0  0  0  0  0  0  0  0999 V2000
   57.9541   30.7820   43.8209 H   0  0  0  0  0  0  0  0  0  0  0  0
   57.6840   30.5220   44.8550 C   0  0  0  0  0  0  0  0  0  0  0  0
   57.4040   31.5100   45.7130 C   0  0  0  0  0  0  0  0  0  0  0  0
   56.5349   31.4063   46.3792 H   0  0  0  0  0  0  0  0  0  0  0  0
   58.2260   32.7370   45.7940 C   0  0  0  0  0  0  0  0  0  0  0  0
   58.5210   33.4030   44.5940 C   0  0  0  0  0  0  0  0  0  0  0  0
   58.1596   32.9924   43.6396 H   0  0  0  0  0  0  0  0  0  0  0  0
   59.2690   34.5820   44.6010 C   0  0  0  0  0  0  0  0  0  0  0  0
   59.4885   35.0988   43.6551 H   0  0  0  0  0  0  0  0  0  0  0  0
   59.7380   35.1050   45.8050 C   0  0  0  0  0  0  0  0  0  0  0  0
   60.3126   36.0430   45.8092 H   0  0  0  0  0  0  0  0  0  0  0  0
   59.4800   34.4410   47.0050 C   0  0  0  0  0  0  0  0  0  0  0  0
   59.8529   34.8601   47.9512 H   0  0  0  0  0  0  0  0  0  0  0  0
   58.7470   33.2400   47.0150 C   0  0  0  0  0  0  0  0  0  0  0  0
   58.5480   32.5280   48.3270 C   0  0  0  0  0  0  0  0  0  0  0  0
   58.7428   33.2248   49.1556 H   0  0  0  0  0  0  0  0  0  0  0  0
   57.5129   32.1613   48.3919 H   0  0  0  0  0  0  0  0  0  0  0  0
   59.2429   31.6778   48.3919 H   0  0  0  0  0  0  0  0  0  0  0  0
   57.6450   29.0890   45.2420 C   0  0  0  0  0  0  0  0  0  0  0  0
   56.4240   28.3750   45.2460 C   0  0  0  0  0  0  0  0  0  0  0  0
   55.2310   28.9890   44.8800 O   0  0  0  0  0  0  0  0  0  0  0  0
   56.3890   27.0390   45.6550 C   0  0  0  0  0  0  0  0  0  0  0  0
   55.4394   26.4843   45.6318 H   0  0  0  0  0  0  0  0  0  0  0  0
   57.5510   26.4060   46.0920 C   0  0  0  0  0  0  0  0  0  0  0  0
   57.5164   25.3542   46.4121 H   0  0  0  0  0  0  0  0  0  0  0  0
   58.7570   27.1040   46.1240 C   0  0  0  0  0  0  0  0  0  0  0  0
   59.6690   26.5998   46.4761 H   0  0  0  0  0  0  0  0  0  0  0  0
   58.8190   28.4450   45.7110 C   0  0  0  0  0  0  0  0  0  0  0  0
   60.1320   29.1310   45.7240 C   0  0  0  0  0  0  0  0  0  0  0  0
   60.8520   29.0780   44.6910 O   0  0  0  0  0  0  0  0  0  0  0  0
   60.6280   29.8530   46.9240 C   0  0  0  0  0  0  0  0  0  0  0  0
   60.2930   29.3940   48.2130 C   0  0  0  0  0  0  0  0  0  0  0  0
   59.6557   28.5048   48.3278 H   0  0  0  0  0  0  0  0  0  0  0  0
   60.7650   30.0610   49.3470 C   0  0  0  0  0  0  0  0  0  0  0  0
   60.4937   29.6987   50.3495 H   0  0  0  0  0  0  0  0  0  0  0  0
   61.5800   31.1860   49.2100 C   0  0  0  0  0  0  0  0  0  0  0  0
   61.9472   31.7109   50.1042 H   0  0  0  0  0  0  0  0  0  0  0  0
   61.9290   31.6450   47.9400 C   0  0  0  0  0  0  0  0  0  0  0  0
   62.5744   32.5294   47.8341 H   0  0  0  0  0  0  0  0  0  0  0  0
   61.4600   30.9830   46.8010 C   0  0  0  0  0  0  0  0  0  0  0  0
   61.7427   31.3471   45.8023 H   0  0  0  0  0  0  0  0  0  0  0  0
  1  2  1  0
  2  3  2  0
  3  4  1  0
  3  5  1  0
  5  6  2  0
  6  7  1  0
  6  8  1  0
  8  9  1  0
  8 10  2  0
 10 11  1  0
 10 12  1  0
 12 13  1  0
 12 14  2  0
 14 15  1  0
 15 16  1  0
 15 17  1  0
 15 18  1  0
  2 19  1  0
 19 20  2  0
 20 21  1  0
 20 22  1  0
 22 23  1  0
 22 24  2  0
 24 25  1  0
 24 26  1  0
 26 27  1  0
 26 28  2  0
 28 29  1  0
 29 30  2  0
 29 31  1  0
 31 32  2  0
 32 33  1  0
 32 34  1  0
 34 35  1  0
 34 36  2  0
 36 37  1  0
 36 38  1  0
 38 39  1  0
 38 40  2  0
 40 41  1  0
 14  5  1  0
 28 19  1  0
 40 31  1  0
M  CHG  1  21  -1
M  END
>  <UniqueID>  (90) 
81

>  <SMILES>  (90) 
Cc1ccccc1/C=C/c1c([O-])cccc1C(=O)c1ccccc1

>  <Energy>  (90) 
63.151803564247196

>  <Genealogy>  (90) 
Cc1ccccc1C=Cc1c([O-])cccc1C(=O)c1ccccc1 (protonated)
Cc1ccccc1/C=C/c1c([O-])cccc1C(=O)c1ccccc1 (cis-trans isomerization)
Cc1ccccc1/C=C/c1c([O-])cccc1C(=O)c1ccccc1 (3D coordinates assigned)
Cc1ccccc1/C=C/c1c([O-])cccc1C(=O)c1ccccc1 (optimized conformer: 63.151803564247196 kcal/mol)

>  <smiles>  (90) 
Cc1ccccc1C=Cc1c(O)cccc1C(=O)c1ccccc1

>  <score_type>  (90) 
oracle

>  <origin>  (90) 
adg

>  <m_score__min__energy>  (90) 
-11.970000000000001

>  <m_primary>  (90) 
energy

$$$$
90:0
     RDKit          3D

 58 61  0  0  0  0  0  0  0  0999 V2000
   54.9260   23.8730   44.9100 C   0  0  0  0  0  0  0  0  0  0  0  0
   55.7530   25.0840   45.9180 S   0  0  0  0  0  0  0  0  0  0  0  0
   54.9110   26.3270   45.9960 O   0  0  0  0  0  0  0  0  0  0  0  0
   55.9400   24.5270   47.3020 O   0  0  0  0  0  0  0  0  0  0  0  0
   57.3530   25.4830   45.2300 C   0  0  0  0  0  0  0  0  0  0  0  0
   57.8100   26.8380   45.6950 C   0  0  0  0  0  0  0  0  0  0  0  0
   58.9300   26.9610   46.5300 C   0  0  0  0  0  0  0  0  0  0  0  0
   59.3890   28.2240   46.9110 C   0  0  0  0  0  0  0  0  0  0  0  0
   58.7280   29.3730   46.4690 C   0  0  0  0  0  0  0  0  0  0  0  0
   57.5920   29.2700   45.6560 C   0  0  0  0  0  0  0  0  0  0  0  0
   56.9680   30.4790   45.1910 N   0  0  0  0  0  0  0  0  0  0  0  0
   57.4440   31.6880   45.2680 C   0  0  0  0  0  0  0  0  0  0  0  0
   58.0300   32.0930   46.4250 N   0  0  0  0  0  0  0  0  0  0  0  0
   58.5170   33.3540   46.5740 C   0  0  0  0  0  0  0  0  0  0  0  0
   59.1380   33.7000   47.7820 O   0  0  0  0  0  0  0  0  0  0  0  0
   60.5060   33.5600   48.0620 C   0  0  0  0  0  0  0  0  0  0  0  0
   61.3290   32.9590   47.1060 C   0  0  0  0  0  0  0  0  0  0  0  0
   62.6940   32.7880   47.3530 C   0  0  0  0  0  0  0  0  0  0  0  0
   63.2580   33.2180   48.5630 C   0  0  0  0  0  0  0  0  0  0  0  0
   64.6620   33.0040   48.8020 N   0  0  0  0  0  0  0  0  0  0  0  0
   65.3040   33.1890   50.0740 C   0  0  0  0  0  0  0  0  0  0  0  0
   64.6950   33.7500   51.0260 O   0  0  0  0  0  0  0  0  0  0  0  0
   66.7340   32.7780   50.2620 C   0  0  0  0  0  0  0  0  0  0  0  0
   66.8740   31.9150   51.4880 C   0  0  0  0  0  0  0  0  0  0  0  0
   66.7850   32.4940   52.7650 C   0  0  0  0  0  0  0  0  0  0  0  0
   66.9460   31.7070   53.9080 C   0  0  0  0  0  0  0  0  0  0  0  0
   67.2060   30.3420   53.7870 C   0  0  0  0  0  0  0  0  0  0  0  0
   67.3060   29.7540   52.5220 C   0  0  0  0  0  0  0  0  0  0  0  0
   67.6550   28.0420   52.3820 Cl  0  0  0  0  0  0  0  0  0  0  0  0
   67.1430   30.5390   51.3700 C   0  0  0  0  0  0  0  0  0  0  0  0
   67.2550   29.9630   50.1460 F   0  0  0  0  0  0  0  0  0  0  0  0
   62.4220   33.7840   49.5430 C   0  0  0  0  0  0  0  0  0  0  0  0
   61.0560   33.9570   49.2930 C   0  0  0  0  0  0  0  0  0  0  0  0
   58.4280   34.2530   45.4990 C   0  0  0  0  0  0  0  0  0  0  0  0
   57.8150   33.8270   44.3220 C   0  0  0  0  0  0  0  0  0  0  0  0
   57.3320   32.5620   44.2300 N   0  0  0  0  0  0  0  0  0  0  0  0
   57.1530   27.9960   45.2460 C   0  0  0  0  0  0  0  0  0  0  0  0
   54.4243   23.1383   45.5570 H   0  0  0  0  0  0  0  0  0  0  0  0
   54.1795   24.3725   44.2750 H   0  0  0  0  0  0  0  0  0  0  0  0
   55.6629   23.3595   44.2750 H   0  0  0  0  0  0  0  0  0  0  0  0
   58.0832   24.7258   45.5518 H   0  0  0  0  0  0  0  0  0  0  0  0
   57.2727   25.4947   44.1330 H   0  0  0  0  0  0  0  0  0  0  0  0
   59.4492   26.0591   46.8864 H   0  0  0  0  0  0  0  0  0  0  0  0
   60.2724   28.3143   47.5602 H   0  0  0  0  0  0  0  0  0  0  0  0
   59.1023   30.3651   46.7615 H   0  0  0  0  0  0  0  0  0  0  0  0
   60.8996   32.6181   46.1524 H   0  0  0  0  0  0  0  0  0  0  0  0
   63.3309   32.3125   46.5925 H   0  0  0  0  0  0  0  0  0  0  0  0
   65.2670   32.7880   47.9780 H   0  0  0  0  0  0  0  0  0  0  0  0
   67.0676   32.2118   49.3799 H   0  0  0  0  0  0  0  0  0  0  0  0
   67.3515   33.6797   50.3873 H   0  0  0  0  0  0  0  0  0  0  0  0
   66.5877   33.5715   52.8653 H   0  0  0  0  0  0  0  0  0  0  0  0
   66.8676   32.1647   54.9052 H   0  0  0  0  0  0  0  0  0  0  0  0
   67.3328   29.7260   54.6895 H   0  0  0  0  0  0  0  0  0  0  0  0
   62.8444   34.0922   50.5108 H   0  0  0  0  0  0  0  0  0  0  0  0
   60.4104   34.4053   50.0626 H   0  0  0  0  0  0  0  0  0  0  0  0
   58.8335   35.2720   45.5840 H   0  0  0  0  0  0  0  0  0  0  0  0
   57.7228   34.5151   43.4688 H   0  0  0  0  0  0  0  0  0  0  0  0
   56.2900   27.9070   44.5697 H   0  0  0  0  0  0  0  0  0  0  0  0
  1  2  1  0
  2  3  2  0
  2  4  2  0
  2  5  1  0
  5  6  1  0
  6  7  2  0
  7  8  1  0
  8  9  2  0
  9 10  1  0
 10 11  1  0
 11 12  2  3
 12 13  1  0
 13 14  2  0
 14 15  1  0
 15 16  1  0
 16 17  2  0
 17 18  1  0
 18 19  2  0
 19 20  1  0
 20 21  1  0
 21 22  2  0
 21 23  1  0
 23 24  1  0
 24 25  2  0
 25 26  1  0
 26 27  2  0
 27 28  1  0
 28 29  1  0
 28 30  2  0
 30 31  1  0
 19 32  1  0
 32 33  2  0
 14 34  1  0
 34 35  2  0
 35 36  1  0
 10 37  2  0
 37  6  1  0
 36 12  1  0
 33 16  1  0
 30 24  1  0
  1 38  1  0
  1 39  1  0
  1 40  1  0
  5 41  1  0
  5 42  1  0
  7 43  1  0
  8 44  1  0
  9 45  1  0
 17 46  1  0
 18 47  1  0
 20 48  1  0
 23 49  1  0
 23 50  1  0
 25 51  1  0
 26 52  1  0
 27 53  1  0
 32 54  1  0
 33 55  1  0
 34 56  1  0
 35 57  1  0
 37 58  1  0
M  CHG  1  36  -1
M  END
>  <UniqueID>  (91) 
82

>  <SMILES>  (91) 
CS(=O)(=O)Cc1cccc(N=c2nc(Oc3ccc(NC(=O)Cc4cccc(Cl)c4F)cc3)cc[n-]2)c1

>  <Energy>  (91) 
70.10135713862964

>  <Genealogy>  (91) 
CS(=O)(=O)Cc1cccc(N=c2nc(Oc3ccc(NC(=O)Cc4cccc(Cl)c4F)cc3)cc[n-]2)c1 (protonated)
CS(=O)(=O)Cc1cccc(N=c2nc(Oc3ccc(NC(=O)Cc4cccc(Cl)c4F)cc3)cc[n-]2)c1 (3D coordinates assigned)
CS(=O)(=O)Cc1cccc(N=c2nc(Oc3ccc(NC(=O)Cc4cccc(Cl)c4F)cc3)cc[n-]2)c1 (optimized conformer: 70.10135713862964 kcal/mol)

>  <smiles>  (91) 
CS(=O)(=O)Cc1cccc(N=c2nc(Oc3ccc(NC(=O)Cc4cccc(Cl)c4F)cc3)cc[nH]2)c1

>  <score_type>  (91) 
oracle

>  <origin>  (91) 
adg

>  <m_score__min__energy>  (91) 
-11.32

>  <m_primary>  (91) 
energy

$$$$
91:0
     RDKit          3D

 36 37  0  0  0  0  0  0  0  0999 V2000
   59.3680   34.6480   46.1340 C   0  0  0  0  0  0  0  0  0  0  0  0
   59.2700   34.1000   44.8220 O   0  0  0  0  0  0  0  0  0  0  0  0
   58.5150   32.9630   44.4940 C   0  0  0  0  0  0  0  0  0  0  0  0
   58.1600   32.0830   45.5210 C   0  0  0  0  0  0  0  0  0  0  0  0
   57.4090   30.9360   45.2470 C   0  0  0  0  0  0  0  0  0  0  0  0
   57.0120   30.6480   43.9320 C   0  0  0  0  0  0  0  0  0  0  0  0
   56.1690   29.4400   43.6450 C   0  0  0  0  0  0  0  0  0  0  0  0
   55.6620   28.9010   44.8990 N   0  0  0  0  0  0  0  0  0  0  0  0
   56.2750   27.8040   45.5800 C   0  0  0  0  0  0  0  0  0  0  0  0
   57.5200   27.7940   45.7710 O   0  0  0  0  0  0  0  0  0  0  0  0
   55.4970   26.6790   46.0030 N   0  0  0  0  0  0  0  0  0  0  0  0
   55.5860   25.3460   45.4800 C   0  0  0  0  0  0  0  0  0  0  0  0
   56.8180   24.8850   45.0040 C   0  0  0  0  0  0  0  0  0  0  0  0
   56.9360   23.5850   44.5070 C   0  0  0  0  0  0  0  0  0  0  0  0
   55.8190   22.7450   44.5080 C   0  0  0  0  0  0  0  0  0  0  0  0
   55.9360   21.4450   44.0080 O   0  0  0  0  0  0  0  0  0  0  0  0
   56.7520   20.4550   44.6220 C   0  0  0  0  0  0  0  0  0  0  0  0
   54.6340   23.2010   45.0020 N   0  0  0  0  0  0  0  0  0  0  0  0
   54.4930   24.4630   45.4860 C   0  0  0  0  0  0  0  0  0  0  0  0
   57.3540   31.5370   42.9010 C   0  0  0  0  0  0  0  0  0  0  0  0
   58.1040   32.6840   43.1770 C   0  0  0  0  0  0  0  0  0  0  0  0
   59.2251   33.8492   46.8766 H   0  0  0  0  0  0  0  0  0  0  0  0
   60.3614   35.1008   46.2690 H   0  0  0  0  0  0  0  0  0  0  0  0
   58.5931   35.4170   46.2690 H   0  0  0  0  0  0  0  0  0  0  0  0
   58.4744   32.2950   46.5536 H   0  0  0  0  0  0  0  0  0  0  0  0
   57.1282   30.2566   46.0653 H   0  0  0  0  0  0  0  0  0  0  0  0
   55.3253   29.7251   42.9993 H   0  0  0  0  0  0  0  0  0  0  0  0
   56.7764   28.6784   43.1342 H   0  0  0  0  0  0  0  0  0  0  0  0
   57.6958   25.5478   45.0212 H   0  0  0  0  0  0  0  0  0  0  0  0
   57.9000   23.2253   44.1181 H   0  0  0  0  0  0  0  0  0  0  0  0
   56.6776   20.5453   45.7158 H   0  0  0  0  0  0  0  0  0  0  0  0
   56.4117   19.4558   44.3126 H   0  0  0  0  0  0  0  0  0  0  0  0
   57.7978   20.5983   44.3126 H   0  0  0  0  0  0  0  0  0  0  0  0
   53.5219   24.7937   45.8830 H   0  0  0  0  0  0  0  0  0  0  0  0
   57.0301   31.3300   41.8703 H   0  0  0  0  0  0  0  0  0  0  0  0
   58.3740   33.3713   42.3617 H   0  0  0  0  0  0  0  0  0  0  0  0
  1  2  1  0
  2  3  1  0
  3  4  2  0
  4  5  1  0
  5  6  2  0
  6  7  1  0
  7  8  1  0
  8  9  1  0
  9 10  2  0
  9 11  1  0
 11 12  1  0
 12 13  2  0
 13 14  1  0
 14 15  2  0
 15 16  1  0
 16 17  1  0
 15 18  1  0
 18 19  2  0
  6 20  1  0
 20 21  2  0
 21  3  1  0
 19 12  1  0
  1 22  1  0
  1 23  1  0
  1 24  1  0
  4 25  1  0
  5 26  1  0
  7 27  1  0
  7 28  1  0
 13 29  1  0
 14 30  1  0
 17 31  1  0
 17 32  1  0
 17 33  1  0
 19 34  1  0
 20 35  1  0
 21 36  1  0
M  CHG  2   8  -1  11  -1
M  END
>  <UniqueID>  (92) 
83

>  <SMILES>  (92) 
COc1ccc(C[N-]C(=O)[N-]c2ccc(OC)nc2)cc1

>  <Energy>  (92) 
34.366336358885164

>  <Genealogy>  (92) 
COc1ccc(C[N-]C(=O)[N-]c2ccc(OC)nc2)cc1 (protonated)
COc1ccc(C[N-]C(=O)[N-]c2ccc(OC)nc2)cc1 (3D coordinates assigned)
COc1ccc(C[N-]C(=O)[N-]c2ccc(OC)nc2)cc1 (optimized conformer: 34.366336358885164 kcal/mol)

>  <smiles>  (92) 
COc1ccc(CNC(=O)Nc2ccc(OC)nc2)cc1

>  <score_type>  (92) 
oracle

>  <origin>  (92) 
adg

>  <m_score__min__energy>  (92) 
-10.35

>  <m_primary>  (92) 
energy

$$$$
92:0
     RDKit          3D

 42 44  0  0  0  0  0  0  0  0999 V2000
   59.1530   32.8730   48.7320 O   0  0  0  0  0  0  0  0  0  0  0  0
   59.6630   33.2650   47.6470 C   0  0  0  0  0  0  0  0  0  0  0  0
   58.8240   33.2340   46.4300 C   0  0  0  0  0  0  0  0  0  0  0  0
   57.9200   34.2130   46.0530 C   0  0  0  0  0  0  0  0  0  0  0  0
   57.3770   33.7890   44.8590 C   0  0  0  0  0  0  0  0  0  0  0  0
   57.9810   32.5780   44.5850 C   0  0  0  0  0  0  0  0  0  0  0  0
   57.7440   31.7350   43.3760 C   0  0  0  0  0  0  0  0  0  0  0  0
   56.9970   30.1870   43.8450 S   0  0  0  0  0  0  0  0  0  0  0  0
   55.7440   30.4440   44.6340 O   0  0  0  0  0  0  0  0  0  0  0  0
   56.6390   29.4000   42.6150 O   0  0  0  0  0  0  0  0  0  0  0  0
   58.1370   29.2710   44.8250 C   0  0  0  0  0  0  0  0  0  0  0  0
   57.6820   28.5160   45.9140 C   0  0  0  0  0  0  0  0  0  0  0  0
   58.5910   27.8010   46.7010 C   0  0  0  0  0  0  0  0  0  0  0  0
   59.9560   27.8410   46.4060 C   0  0  0  0  0  0  0  0  0  0  0  0
   60.4150   28.6000   45.3250 C   0  0  0  0  0  0  0  0  0  0  0  0
   59.5080   29.3160   44.5370 C   0  0  0  0  0  0  0  0  0  0  0  0
   58.8390   32.2760   45.5300 O   0  0  0  0  0  0  0  0  0  0  0  0
   61.0340   33.7260   47.6290 N   0  0  0  0  0  0  0  0  0  0  0  0
   61.6960   34.1330   48.8780 C   0  0  0  0  0  0  0  0  0  0  0  0
   62.9530   33.2830   49.1240 C   0  0  0  0  0  0  0  0  0  0  0  0
   63.7300   32.9490   47.8330 C   0  0  0  0  0  0  0  0  0  0  0  0
   63.3270   33.8440   46.6550 C   0  0  0  0  0  0  0  0  0  0  0  0
   61.8200   33.7200   46.3830 C   0  0  0  0  0  0  0  0  0  0  0  0
   57.6834   35.1401   46.5957 H   0  0  0  0  0  0  0  0  0  0  0  0
   56.6205   34.3072   44.2514 H   0  0  0  0  0  0  0  0  0  0  0  0
   57.0732   32.2684   42.6865 H   0  0  0  0  0  0  0  0  0  0  0  0
   58.7065   31.5351   42.8825 H   0  0  0  0  0  0  0  0  0  0  0  0
   56.6082   28.4854   46.1505 H   0  0  0  0  0  0  0  0  0  0  0  0
   58.2305   27.2064   47.5534 H   0  0  0  0  0  0  0  0  0  0  0  0
   60.6693   27.2757   47.0238 H   0  0  0  0  0  0  0  0  0  0  0  0
   61.4900   28.6340   45.0942 H   0  0  0  0  0  0  0  0  0  0  0  0
   59.8714   29.9157   43.6895 H   0  0  0  0  0  0  0  0  0  0  0  0
   61.9838   35.1923   48.8064 H   0  0  0  0  0  0  0  0  0  0  0  0
   60.9976   33.9850   49.7149 H   0  0  0  0  0  0  0  0  0  0  0  0
   63.6214   33.8366   49.7998 H   0  0  0  0  0  0  0  0  0  0  0  0
   62.6197   32.3289   49.5582 H   0  0  0  0  0  0  0  0  0  0  0  0
   64.8051   33.0813   48.0245 H   0  0  0  0  0  0  0  0  0  0  0  0
   63.4918   31.9105   47.5596 H   0  0  0  0  0  0  0  0  0  0  0  0
   63.5676   34.8902   46.8951 H   0  0  0  0  0  0  0  0  0  0  0  0
   63.8799   33.5266   45.7586 H   0  0  0  0  0  0  0  0  0  0  0  0
   61.5008   34.5665   45.7572 H   0  0  0  0  0  0  0  0  0  0  0  0
   61.6436   32.7612   45.8735 H   0  0  0  0  0  0  0  0  0  0  0  0
  1  2  2  0
  2  3  1  0
  3  4  2  0
  4  5  1  0
  5  6  2  0
  6  7  1  0
  7  8  1  0
  8  9  2  0
  8 10  2  0
  8 11  1  0
 11 12  2  0
 12 13  1  0
 13 14  2  0
 14 15  1  0
 15 16  2  0
  6 17  1  0
  2 18  1  0
 18 19  1  0
 19 20  1  0
 20 21  1  0
 21 22  1  0
 22 23  1  0
 17  3  1  0
 23 18  1  0
 16 11  1  0
  4 24  1  0
  5 25  1  0
  7 26  1  0
  7 27  1  0
 12 28  1  0
 13 29  1  0
 14 30  1  0
 15 31  1  0
 16 32  1  0
 19 33  1  0
 19 34  1  0
 20 35  1  0
 20 36  1  0
 21 37  1  0
 21 38  1  0
 22 39  1  0
 22 40  1  0
 23 41  1  0
 23 42  1  0
M  END
>  <UniqueID>  (93) 
84

>  <SMILES>  (93) 
O=C(c1ccc(CS(=O)(=O)c2ccccc2)o1)N1CCCCC1

>  <Energy>  (93) 
67.85850349506902

>  <Genealogy>  (93) 
O=C(c1ccc(CS(=O)(=O)c2ccccc2)o1)N1CCCCC1 (3D coordinates assigned)
O=C(c1ccc(CS(=O)(=O)c2ccccc2)o1)N1CCCCC1 (nonaromatic ring conformer: 67.85850349506902 kcal/mol)

>  <smiles>  (93) 
O=C(c1ccc(CS(=O)(=O)c2ccccc2)o1)N1CCCCC1

>  <score_type>  (93) 
oracle

>  <origin>  (93) 
adg

>  <m_score__min__energy>  (93) 
-9.0999999999999996

>  <m_primary>  (93) 
energy

$$$$
93:0
     RDKit          3D

 44 46  0  0  0  0  0  0  0  0999 V2000
   55.6930   26.8440   46.0150 O   0  0  0  0  0  0  0  0  0  0  0  0
   56.4160   27.7390   45.5020 C   0  0  0  0  0  0  0  0  0  0  0  0
   57.8340   27.4300   45.1400 C   0  0  0  0  0  0  0  0  0  0  0  0
   58.7660   28.3200   45.9150 C   0  0  0  0  0  0  0  0  0  0  0  0
   59.9020   28.8700   45.2960 C   0  0  0  0  0  0  0  0  0  0  0  0
   60.7440   29.7300   46.0070 C   0  0  0  0  0  0  0  0  0  0  0  0
   60.4550   30.0530   47.3350 C   0  0  0  0  0  0  0  0  0  0  0  0
   59.3210   29.5190   47.9550 C   0  0  0  0  0  0  0  0  0  0  0  0
   58.4760   28.6600   47.2470 C   0  0  0  0  0  0  0  0  0  0  0  0
   55.8910   29.0480   45.2390 N   0  0  0  0  0  0  0  0  0  0  0  0
   56.5090   30.0640   44.4380 C   0  0  0  0  0  0  0  0  0  0  0  0
   56.3600   30.0060   43.0480 C   0  0  0  0  0  0  0  0  0  0  0  0
   56.9790   30.9540   42.2310 C   0  0  0  0  0  0  0  0  0  0  0  0
   57.7630   31.9640   42.7950 C   0  0  0  0  0  0  0  0  0  0  0  0
   57.9240   32.0380   44.1900 C   0  0  0  0  0  0  0  0  0  0  0  0
   58.7540   33.0290   44.8140 N   0  0  0  0  0  0  0  0  0  0  0  0
   58.5480   33.6530   46.0890 C   0  0  0  0  0  0  0  0  0  0  0  0
   57.4270   34.1580   46.3740 O   0  0  0  0  0  0  0  0  0  0  0  0
   59.6350   33.6590   47.0960 C   0  0  0  0  0  0  0  0  0  0  0  0
   59.3450   33.8540   48.4580 C   0  0  0  0  0  0  0  0  0  0  0  0
   60.3720   33.8700   49.4040 C   0  0  0  0  0  0  0  0  0  0  0  0
   60.0830   34.0740   50.7130 F   0  0  0  0  0  0  0  0  0  0  0  0
   61.6980   33.6800   49.0070 C   0  0  0  0  0  0  0  0  0  0  0  0
   62.0090   33.4570   47.6550 C   0  0  0  0  0  0  0  0  0  0  0  0
   63.4420   33.2960   47.2120 C   0  0  0  0  0  0  0  0  0  0  0  0
   64.2800   33.8110   48.1830 F   0  0  0  0  0  0  0  0  0  0  0  0
   63.7530   31.9630   47.0100 F   0  0  0  0  0  0  0  0  0  0  0  0
   63.6560   33.9740   46.0250 F   0  0  0  0  0  0  0  0  0  0  0  0
   60.9730   33.4700   46.7040 C   0  0  0  0  0  0  0  0  0  0  0  0
   57.3160   31.0700   45.0010 C   0  0  0  0  0  0  0  0  0  0  0  0
   58.0506   26.3785   45.3794 H   0  0  0  0  0  0  0  0  0  0  0  0
   57.9790   27.6039   44.0635 H   0  0  0  0  0  0  0  0  0  0  0  0
   60.1291   28.6228   44.2485 H   0  0  0  0  0  0  0  0  0  0  0  0
   61.6352   30.1529   45.5202 H   0  0  0  0  0  0  0  0  0  0  0  0
   61.1201   30.7280   47.8935 H   0  0  0  0  0  0  0  0  0  0  0  0
   59.0940   29.7752   49.0004 H   0  0  0  0  0  0  0  0  0  0  0  0
   57.5801   28.2483   47.7347 H   0  0  0  0  0  0  0  0  0  0  0  0
   55.7515   29.2087   42.5962 H   0  0  0  0  0  0  0  0  0  0  0  0
   56.8491   30.9057   41.1398 H   0  0  0  0  0  0  0  0  0  0  0  0
   58.2555   32.7031   42.1460 H   0  0  0  0  0  0  0  0  0  0  0  0
   58.3027   33.9948   48.7803 H   0  0  0  0  0  0  0  0  0  0  0  0
   62.5026   33.7051   49.7567 H   0  0  0  0  0  0  0  0  0  0  0  0
   61.2120   33.3305   45.6394 H   0  0  0  0  0  0  0  0  0  0  0  0
   57.4714   31.0970   46.0896 H   0  0  0  0  0  0  0  0  0  0  0  0
  1  2  2  0
  2  3  1  0
  3  4  1  0
  4  5  2  0
  5  6  1  0
  6  7  2  0
  7  8  1  0
  8  9  2  0
  2 10  1  0
 10 11  1  0
 11 12  2  0
 12 13  1  0
 13 14  2  0
 14 15  1  0
 15 16  1  0
 16 17  1  0
 17 18  2  0
 17 19  1  0
 19 20  2  0
 20 21  1  0
 21 22  1  0
 21 23  2  0
 23 24  1  0
 24 25  1  0
 25 26  1  0
 25 27  1  0
 25 28  1  0
 24 29  2  0
 15 30  2  0
  9  4  1  0
 30 11  1  0
 29 19  1  0
  3 31  1  0
  3 32  1  0
  5 33  1  0
  6 34  1  0
  7 35  1  0
  8 36  1  0
  9 37  1  0
 12 38  1  0
 13 39  1  0
 14 40  1  0
 20 41  1  0
 23 42  1  0
 29 43  1  0
 30 44  1  0
M  CHG  2  10  -1  16  -1
M  END
>  <UniqueID>  (94) 
85

>  <SMILES>  (94) 
O=C(Cc1ccccc1)[N-]c1cccc([N-]C(=O)c2cc(F)cc(C(F)(F)F)c2)c1

>  <Energy>  (94) 
53.242176727862145

>  <Genealogy>  (94) 
O=C(Cc1ccccc1)[N-]c1cccc([N-]C(=O)c2cc(F)cc(C(F)(F)F)c2)c1 (protonated)
O=C(Cc1ccccc1)[N-]c1cccc([N-]C(=O)c2cc(F)cc(C(F)(F)F)c2)c1 (3D coordinates assigned)
O=C(Cc1ccccc1)[N-]c1cccc([N-]C(=O)c2cc(F)cc(C(F)(F)F)c2)c1 (optimized conformer: 53.242176727862145 kcal/mol)

>  <smiles>  (94) 
O=C(Cc1ccccc1)Nc1cccc(NC(=O)c2cc(F)cc(C(F)(F)F)c2)c1

>  <score_type>  (94) 
oracle

>  <origin>  (94) 
adg

>  <m_score__min__energy>  (94) 
-12.039999999999999

>  <m_primary>  (94) 
energy

$$$$
94:0
     RDKit          3D

 40 42  0  0  0  0  0  0  0  0999 V2000
   59.3780   29.6240   47.6780 C   0  0  0  0  0  0  0  0  0  0  0  0
   58.2160   30.3980   47.4030 O   0  0  0  0  0  0  0  0  0  0  0  0
   58.0660   31.0800   46.1920 C   0  0  0  0  0  0  0  0  0  0  0  0
   57.3310   30.5120   45.1280 C   0  0  0  0  0  0  0  0  0  0  0  0
   56.7450   29.1510   45.2370 C   0  0  0  0  0  0  0  0  0  0  0  0
   55.5530   28.9490   44.8770 O   0  0  0  0  0  0  0  0  0  0  0  0
   57.5180   28.0750   45.7860 N   0  0  0  0  0  0  0  0  0  0  0  0
   57.2810   26.6710   45.6150 C   0  0  0  0  0  0  0  0  0  0  0  0
   56.1010   26.1230   46.1280 C   0  0  0  0  0  0  0  0  0  0  0  0
   55.8370   24.7550   46.0010 C   0  0  0  0  0  0  0  0  0  0  0  0
   56.7670   23.9100   45.3680 C   0  0  0  0  0  0  0  0  0  0  0  0
   56.5560   22.5330   45.2100 O   0  0  0  0  0  0  0  0  0  0  0  0
   56.6740   21.6920   43.7240 S   0  0  0  0  0  0  0  0  0  0  0  0
   55.9910   20.1150   43.9130 N   0  0  0  0  0  0  0  0  0  0  0  0
   58.1160   21.5670   43.3220 O   0  0  0  0  0  0  0  0  0  0  0  0
   55.9150   22.4340   42.6600 O   0  0  0  0  0  0  0  0  0  0  0  0
   57.9580   24.4560   44.8760 C   0  0  0  0  0  0  0  0  0  0  0  0
   58.2210   25.8240   45.0020 C   0  0  0  0  0  0  0  0  0  0  0  0
   57.1800   31.2730   43.9480 C   0  0  0  0  0  0  0  0  0  0  0  0
   56.5380   30.8180   42.9640 O   0  0  0  0  0  0  0  0  0  0  0  0
   57.7290   32.4790   43.8440 O   0  0  0  0  0  0  0  0  0  0  0  0
   58.4410   33.0360   44.8170 C   0  0  0  0  0  0  0  0  0  0  0  0
   58.9920   34.3080   44.6300 C   0  0  0  0  0  0  0  0  0  0  0  0
   59.7450   34.9030   45.6460 C   0  0  0  0  0  0  0  0  0  0  0  0
   59.9490   34.2300   46.8530 C   0  0  0  0  0  0  0  0  0  0  0  0
   59.4010   32.9580   47.0510 C   0  0  0  0  0  0  0  0  0  0  0  0
   58.6430   32.3510   46.0330 C   0  0  0  0  0  0  0  0  0  0  0  0
   59.5106   29.5357   48.7664 H   0  0  0  0  0  0  0  0  0  0  0  0
   59.2629   28.6215   47.2401 H   0  0  0  0  0  0  0  0  0  0  0  0
   60.2587   30.1165   47.2401 H   0  0  0  0  0  0  0  0  0  0  0  0
   55.3738   26.7735   46.6360 H   0  0  0  0  0  0  0  0  0  0  0  0
   54.8992   24.3386   46.3974 H   0  0  0  0  0  0  0  0  0  0  0  0
   55.7150   20.0220   44.9170 H   0  0  0  0  0  0  0  0  0  0  0  0
   56.7600   19.4270   43.7470 H   0  0  0  0  0  0  0  0  0  0  0  0
   58.6946   23.8028   44.3853 H   0  0  0  0  0  0  0  0  0  0  0  0
   59.1659   26.2383   44.6204 H   0  0  0  0  0  0  0  0  0  0  0  0
   58.8323   34.8412   43.6812 H   0  0  0  0  0  0  0  0  0  0  0  0
   60.1778   35.9030   45.4950 H   0  0  0  0  0  0  0  0  0  0  0  0
   60.5423   34.7016   47.6502 H   0  0  0  0  0  0  0  0  0  0  0  0
   59.5630   32.4321   48.0034 H   0  0  0  0  0  0  0  0  0  0  0  0
  1  2  1  0
  2  3  1  0
  3  4  2  0
  4  5  1  0
  5  6  2  0
  5  7  1  0
  7  8  1  0
  8  9  2  0
  9 10  1  0
 10 11  2  0
 11 12  1  0
 12 13  1  0
 13 14  1  0
 13 15  2  0
 13 16  2  0
 11 17  1  0
 17 18  2  0
  4 19  1  0
 19 20  2  0
 19 21  1  0
 21 22  1  0
 22 23  2  0
 23 24  1  0
 24 25  2  0
 25 26  1  0
 26 27  2  0
 27  3  1  0
 18  8  1  0
 27 22  1  0
  1 28  1  0
  1 29  1  0
  1 30  1  0
  9 31  1  0
 10 32  1  0
 14 33  1  0
 14 34  1  0
 17 35  1  0
 18 36  1  0
 23 37  1  0
 24 38  1  0
 25 39  1  0
 26 40  1  0
M  CHG  1   7  -1
M  END
>  <UniqueID>  (95) 
86

>  <SMILES>  (95) 
COc1c(C(=O)[N-]c2ccc(OS(N)(=O)=O)cc2)c(=O)oc2ccccc12

>  <Energy>  (95) 
58.14151644077164

>  <Genealogy>  (95) 
COc1c(C(=O)[N-]c2ccc(OS(N)(=O)=O)cc2)c(=O)oc2ccccc12 (protonated)
COc1c(C(=O)[N-]c2ccc(OS(N)(=O)=O)cc2)c(=O)oc2ccccc12 (3D coordinates assigned)
COc1c(C(=O)[N-]c2ccc(OS(N)(=O)=O)cc2)c(=O)oc2ccccc12 (optimized conformer: 58.14151644077164 kcal/mol)

>  <smiles>  (95) 
COc1c(C(=O)Nc2ccc(OS(N)(=O)=O)cc2)c(=O)oc2ccccc12

>  <score_type>  (95) 
oracle

>  <origin>  (95) 
adg

>  <m_score__min__energy>  (95) 
-10.109999999999999

>  <m_primary>  (95) 
energy

$$$$
95:0
     RDKit          3D

 35 36  0  0  0  0  0  0  0  0999 V2000
   54.2120   24.4600   47.1020 H   0  0  0  0  0  0  0  0  0  0  0  0
   55.0860   24.0160   46.8410 O   0  0  0  0  0  0  0  0  0  0  0  0
   56.1980   24.7650   46.4610 C   0  0  0  0  0  0  0  0  0  0  0  0
   57.4790   24.1980   46.4870 C   0  0  0  0  0  0  0  0  0  0  0  0
   57.6105   23.1552   46.8115 H   0  0  0  0  0  0  0  0  0  0  0  0
   58.5900   24.9530   46.1020 C   0  0  0  0  0  0  0  0  0  0  0  0
   59.5948   24.5069   46.1393 H   0  0  0  0  0  0  0  0  0  0  0  0
   58.4290   26.2810   45.6670 C   0  0  0  0  0  0  0  0  0  0  0  0
   59.5880   27.1150   45.2730 C   0  0  0  0  0  0  0  0  0  0  0  0
   60.5891   26.7586   45.5572 H   0  0  0  0  0  0  0  0  0  0  0  0
   59.5120   28.2720   44.5960 C   0  0  0  0  0  0  0  0  0  0  0  0
   59.6899   28.2394   43.5110 H   0  0  0  0  0  0  0  0  0  0  0  0
   59.2060   29.5910   45.2020 C   0  0  0  0  0  0  0  0  0  0  0  0
   60.1820   30.2360   45.9790 C   0  0  0  0  0  0  0  0  0  0  0  0
   61.1473   29.7408   46.1608 H   0  0  0  0  0  0  0  0  0  0  0  0
   59.9410   31.4960   46.5220 C   0  0  0  0  0  0  0  0  0  0  0  0
   60.7089   31.9794   47.1439 H   0  0  0  0  0  0  0  0  0  0  0  0
   58.7230   32.1530   46.2800 C   0  0  0  0  0  0  0  0  0  0  0  0
   58.4460   33.4270   46.8000 O   0  0  0  0  0  0  0  0  0  0  0  0
   58.5900   34.6440   46.0740 C   0  0  0  0  0  0  0  0  0  0  0  0
   58.6892   35.4822   46.7794 H   0  0  0  0  0  0  0  0  0  0  0  0
   59.4879   34.5893   45.4410 H   0  0  0  0  0  0  0  0  0  0  0  0
   57.7041   34.8004   45.4410 H   0  0  0  0  0  0  0  0  0  0  0  0
   57.7510   31.5270   45.4880 C   0  0  0  0  0  0  0  0  0  0  0  0
   56.5570   32.1990   45.2340 O   0  0  0  0  0  0  0  0  0  0  0  0
   57.9720   30.2400   44.9540 C   0  0  0  0  0  0  0  0  0  0  0  0
   56.9080   29.5910   44.1000 C   0  0  0  0  0  0  0  0  0  0  0  0
   56.8456   30.1111   43.1327 H   0  0  0  0  0  0  0  0  0  0  0  0
   57.1654   28.5350   43.9308 H   0  0  0  0  0  0  0  0  0  0  0  0
   55.6740   29.6730   44.7550 O   0  0  0  0  0  0  0  0  0  0  0  0
   55.6540   30.5620   45.1970 H   0  0  0  0  0  0  0  0  0  0  0  0
   57.1470   26.8520   45.6690 C   0  0  0  0  0  0  0  0  0  0  0  0
   57.0150   27.9007   45.3645 H   0  0  0  0  0  0  0  0  0  0  0  0
   56.0360   26.0950   46.0560 C   0  0  0  0  0  0  0  0  0  0  0  0
   54.7700   26.6700   46.0370 O   0  0  0  0  0  0  0  0  0  0  0  0
  1  2  1  0
  2  3  1  0
  3  4  2  0
  4  5  1  0
  4  6  1  0
  6  7  1  0
  6  8  2  0
  8  9  1  0
  9 10  1  0
  9 11  2  0
 11 12  1  0
 11 13  1  0
 13 14  2  0
 14 15  1  0
 14 16  1  0
 16 17  1  0
 16 18  2  0
 18 19  1  0
 19 20  1  0
 20 21  1  0
 20 22  1  0
 20 23  1  0
 18 24  1  0
 24 25  1  0
 24 26  2  0
 26 27  1  0
 27 28  1  0
 27 29  1  0
 27 30  1  0
 30 31  1  0
  8 32  1  0
 32 33  1  0
 32 34  2  0
 34 35  1  0
 34  3  1  0
 26 13  1  0
M  CHG  2  25  -1  35  -1
M  END
>  <UniqueID>  (96) 
87

>  <SMILES>  (96) 
COc1ccc(/C=C\c2ccc(O)c([O-])c2)c(CO)c1[O-]

>  <Energy>  (96) 
46.249373597929605

>  <Genealogy>  (96) 
COc1ccc(C=Cc2ccc(O)c([O-])c2)c(CO)c1[O-] (protonated)
COc1ccc(/C=C\c2ccc(O)c([O-])c2)c(CO)c1[O-] (cis-trans isomerization)
COc1ccc(/C=C\c2ccc(O)c([O-])c2)c(CO)c1[O-] (3D coordinates assigned)
COc1ccc(/C=C\c2ccc(O)c([O-])c2)c(CO)c1[O-] (optimized conformer: 46.249373597929605 kcal/mol)

>  <smiles>  (96) 
COc1ccc(C=Cc2ccc(O)c(O)c2)c(CO)c1O

>  <score_type>  (96) 
oracle

>  <origin>  (96) 
adg

>  <m_score__min__energy>  (96) 
-11.99

>  <m_primary>  (96) 
energy

$$$$
