0:0
     RDKit          3D

 65 69  0  0  0  0  0  0  0  0999 V2000
   60.0103   29.3720   45.8184 H   0  0  0  0  0  0  0  0  0  0  0  0
   59.2560   29.0400   46.5470 C   0  0  0  0  0  0  0  0  0  0  0  0
   58.1570   28.4370   46.0740 C   0  0  0  0  0  0  0  0  0  0  0  0
   57.9250   26.6640   46.2330 S   0  0  0  0  0  0  0  0  0  0  0  0
   56.2040   26.9430   45.7940 C   0  0  0  0  0  0  0  0  0  0  0  0
   55.3170   26.0740   45.9860 O   0  0  0  0  0  0  0  0  0  0  0  0
   55.8790   28.2330   45.2940 N   0  0  0  0  0  0  0  0  0  0  0  0
   57.0020   29.0820   45.4350 C   0  0  0  0  0  0  0  0  0  0  0  0
   57.0030   30.2530   44.9730 O   0  0  0  0  0  0  0  0  0  0  0  0
   59.5260   29.2900   47.9730 C   0  0  0  0  0  0  0  0  0  0  0  0
   59.0490   30.3180   48.6350 O   0  0  0  0  0  0  0  0  0  0  0  0
   59.5500   30.3120   49.8540 C   0  0  0  0  0  0  0  0  0  0  0  0
   59.1990   31.3490   50.8690 C   0  0  0  0  0  0  0  0  0  0  0  0
   57.8460   31.7280   50.9380 C   0  0  0  0  0  0  0  0  0  0  0  0
   57.1125   31.2377   50.2810 H   0  0  0  0  0  0  0  0  0  0  0  0
   57.4210   32.7120   51.8230 C   0  0  0  0  0  0  0  0  0  0  0  0
   56.3534   32.9700   51.8838 H   0  0  0  0  0  0  0  0  0  0  0  0
   58.3390   33.3710   52.6310 C   0  0  0  0  0  0  0  0  0  0  0  0
   57.9957   34.1643   53.3113 H   0  0  0  0  0  0  0  0  0  0  0  0
   59.6990   33.0340   52.5870 C   0  0  0  0  0  0  0  0  0  0  0  0
   60.6600   33.8210   53.4430 C   0  0  0  0  0  0  0  0  0  0  0  0
   60.4383   33.6394   54.5050 H   0  0  0  0  0  0  0  0  0  0  0  0
   61.6903   33.5039   53.2241 H   0  0  0  0  0  0  0  0  0  0  0  0
   60.5522   34.8936   53.2241 H   0  0  0  0  0  0  0  0  0  0  0  0
   60.1320   31.9630   51.7600 C   0  0  0  0  0  0  0  0  0  0  0  0
   61.5580   31.5500   51.8050 C   0  0  0  0  0  0  0  0  0  0  0  0
   61.8280   30.4750   52.4140 O   0  0  0  0  0  0  0  0  0  0  0  0
   62.6410   32.2800   51.1570 N   0  0  0  0  0  0  0  0  0  0  0  0
   63.4020   32.3240   51.8760 H   0  0  0  0  0  0  0  0  0  0  0  0
   63.1950   31.5250   50.0020 C   0  0  0  0  0  0  0  0  0  0  0  0
   64.2856   31.4516   50.1256 H   0  0  0  0  0  0  0  0  0  0  0  0
   62.7066   30.5394   49.9974 H   0  0  0  0  0  0  0  0  0  0  0  0
   62.9030   32.1790   48.6400 C   0  0  0  0  0  0  0  0  0  0  0  0
   63.6255   32.9898   48.4651 H   0  0  0  0  0  0  0  0  0  0  0  0
   62.9919   31.4165   47.8521 H   0  0  0  0  0  0  0  0  0  0  0  0
   61.5310   32.7350   48.6170 N   0  0  0  0  0  0  0  0  0  0  0  0
   61.1300   33.1520   47.2340 C   0  0  0  0  0  0  0  0  0  0  0  0
   62.0534   33.1513   46.6362 H   0  0  0  0  0  0  0  0  0  0  0  0
   60.5340   34.5950   47.1850 C   0  0  0  0  0  0  0  0  0  0  0  0
   60.9793   35.1955   47.9919 H   0  0  0  0  0  0  0  0  0  0  0  0
   60.7644   35.0357   46.2038 H   0  0  0  0  0  0  0  0  0  0  0  0
   59.0140   34.5680   47.3620 C   0  0  0  0  0  0  0  0  0  0  0  0
   58.7692   34.0156   48.2812 H   0  0  0  0  0  0  0  0  0  0  0  0
   58.6513   35.6045   47.4255 H   0  0  0  0  0  0  0  0  0  0  0  0
   58.3550   33.9090   46.2120 N   0  0  0  0  0  0  0  0  0  0  0  0
   57.0040   33.4590   46.5820 C   0  0  0  0  0  0  0  0  0  0  0  0
   56.9148   33.4293   47.6780 H   0  0  0  0  0  0  0  0  0  0  0  0
   56.2598   34.1578   46.1723 H   0  0  0  0  0  0  0  0  0  0  0  0
   56.8274   32.4535   46.1723 H   0  0  0  0  0  0  0  0  0  0  0  0
   59.1490   32.8030   45.6130 C   0  0  0  0  0  0  0  0  0  0  0  0
   58.4559   32.0366   45.2359 H   0  0  0  0  0  0  0  0  0  0  0  0
   59.7597   33.2325   44.8052 H   0  0  0  0  0  0  0  0  0  0  0  0
   60.1080   32.1460   46.6210 C   0  0  0  0  0  0  0  0  0  0  0  0
   59.5136   31.7092   47.4370 H   0  0  0  0  0  0  0  0  0  0  0  0
   60.6835   31.3819   46.0779 H   0  0  0  0  0  0  0  0  0  0  0  0
   61.4400   33.8590   49.5860 C   0  0  0  0  0  0  0  0  0  0  0  0
   61.7227   34.7872   49.0677 H   0  0  0  0  0  0  0  0  0  0  0  0
   60.4037   33.8806   49.9544 H   0  0  0  0  0  0  0  0  0  0  0  0
   62.3530   33.6940   50.8220 C   0  0  0  0  0  0  0  0  0  0  0  0
   63.3059   34.2059   50.6223 H   0  0  0  0  0  0  0  0  0  0  0  0
   61.8191   34.1284   51.6800 H   0  0  0  0  0  0  0  0  0  0  0  0
   60.4250   29.2390   49.9770 C   0  0  0  0  0  0  0  0  0  0  0  0
   61.0237   28.9741   50.8609 H   0  0  0  0  0  0  0  0  0  0  0  0
   60.3930   28.5750   48.7740 C   0  0  0  0  0  0  0  0  0  0  0  0
   60.9446   27.6621   48.5052 H   0  0  0  0  0  0  0  0  0  0  0  0
  1  2  1  0
  2  3  2  0
  3  4  1  0
  4  5  1  0
  5  6  2  0
  5  7  1  0
  7  8  1  0
  8  9  2  0
  2 10  1  0
 10 11  1  0
 11 12  1  0
 12 13  1  0
 13 14  2  0
 14 15  1  0
 14 16  1  0
 16 17  1  0
 16 18  2  0
 18 19  1  0
 18 20  1  0
 20 21  1  0
 21 22  1  0
 21 23  1  0
 21 24  1  0
 20 25  2  0
 25 26  1  0
 26 27  2  0
 26 28  1  0
 28 29  1  0
 28 30  1  0
 30 31  1  0
 30 32  1  0
 30 33  1  0
 33 34  1  0
 33 35  1  0
 33 36  1  0
 36 37  1  0
 37 38  1  0
 37 39  1  0
 39 40  1  0
 39 41  1  0
 39 42  1  0
 42 43  1  0
 42 44  1  0
 42 45  1  0
 45 46  1  0
 46 47  1  0
 46 48  1  0
 46 49  1  0
 45 50  1  0
 50 51  1  0
 50 52  1  0
 50 53  1  0
 53 54  1  0
 53 55  1  0
 36 56  1  0
 56 57  1  0
 56 58  1  0
 56 59  1  0
 59 60  1  0
 59 61  1  0
 12 62  2  0
 62 63  1  0
 62 64  1  0
 64 65  1  0
  8  3  1  0
 64 10  2  0
 25 13  1  0
 59 28  1  0
 53 37  1  0
M  CHG  2   7  -1  28   1
M  END
>  <UniqueID>  (1) 
1

>  <SMILES>  (1) 
Cc1cccc(-c2ccc(/C=C3/SC(=O)[N-]C3=O)o2)c1C(=O)[NH+]1CCN(C2CCN(C)CC2)CC1

>  <Energy>  (1) 
163.66000388753938

>  <Genealogy>  (1) 
Cc1cccc(-c2ccc(C=C3SC(=O)[N-]C3=O)o2)c1C(=O)[NH+]1CCN(C2CCN(C)CC2)CC1 (protonated)
Cc1cccc(-c2ccc(/C=C3/SC(=O)[N-]C3=O)o2)c1C(=O)[NH+]1CCN(C2CCN(C)CC2)CC1 (cis-trans isomerization)
Cc1cccc(-c2ccc(/C=C3/SC(=O)[N-]C3=O)o2)c1C(=O)[NH+]1CCN(C2CCN(C)CC2)CC1 (3D coordinates assigned)
Cc1cccc(-c2ccc(/C=C3/SC(=O)[N-]C3=O)o2)c1C(=O)[NH+]1CCN(C2CCN(C)CC2)CC1 (nonaromatic ring conformer: 163.66000388753938 kcal/mol)

>  <smiles>  (1) 
Cc1cccc(-c2ccc(C=C3SC(=O)NC3=O)o2)c1C(=O)N1CCN(C2CCN(C)CC2)CC1

>  <score_type>  (1) 
oracle

>  <origin>  (1) 
adg

>  <m_score__min__energy>  (1) 
-11.199999999999999

>  <m_primary>  (1) 
energy

$$$$
1:0
     RDKit          3D

 35 37  0  0  0  0  0  0  0  0999 V2000
   55.2130   27.2430   46.3710 H   0  0  0  0  0  0  0  0  0  0  0  0
   54.8320   26.3420   46.0050 N   0  0  0  0  0  0  0  0  0  0  0  0
   55.6130   25.3860   45.6130 C   0  0  0  0  0  0  0  0  0  0  0  0
   55.1070   24.1330   45.4450 N   0  0  0  0  0  0  0  0  0  0  0  0
   55.8840   23.0850   45.0660 C   0  0  0  0  0  0  0  0  0  0  0  0
   55.4378   22.0878   44.9375 H   0  0  0  0  0  0  0  0  0  0  0  0
   57.2460   23.2730   44.8400 C   0  0  0  0  0  0  0  0  0  0  0  0
   57.8803   22.4273   44.5359 H   0  0  0  0  0  0  0  0  0  0  0  0
   57.7970   24.5430   45.0030 C   0  0  0  0  0  0  0  0  0  0  0  0
   58.8718   24.6991   44.8287 H   0  0  0  0  0  0  0  0  0  0  0  0
   56.9870   25.6260   45.3890 C   0  0  0  0  0  0  0  0  0  0  0  0
   57.5800   26.9770   45.5370 C   0  0  0  0  0  0  0  0  0  0  0  0
   56.8400   28.0800   45.2300 N   0  0  0  0  0  0  0  0  0  0  0  0
   57.3390   29.3450   45.3390 C   0  0  0  0  0  0  0  0  0  0  0  0
   56.6160   30.3790   45.0220 N   0  0  0  0  0  0  0  0  0  0  0  0
   57.0200   31.4350   44.0940 C   0  0  0  0  0  0  0  0  0  0  0  0
   57.6972   31.0093   43.3388 H   0  0  0  0  0  0  0  0  0  0  0  0
   56.1169   31.8448   43.6181 H   0  0  0  0  0  0  0  0  0  0  0  0
   57.7280   32.5520   44.8150 C   0  0  0  0  0  0  0  0  0  0  0  0
   57.5000   32.7700   46.1840 C   0  0  0  0  0  0  0  0  0  0  0  0
   56.8226   32.1046   46.7393 H   0  0  0  0  0  0  0  0  0  0  0  0
   58.1310   33.8300   46.8440 C   0  0  0  0  0  0  0  0  0  0  0  0
   57.9503   33.9949   47.9165 H   0  0  0  0  0  0  0  0  0  0  0  0
   58.9910   34.6800   46.1420 C   0  0  0  0  0  0  0  0  0  0  0  0
   59.6050   35.7040   46.7840 F   0  0  0  0  0  0  0  0  0  0  0  0
   59.2120   34.4780   44.7770 C   0  0  0  0  0  0  0  0  0  0  0  0
   59.8859   35.1494   44.2247 H   0  0  0  0  0  0  0  0  0  0  0  0
   58.5780   33.4240   44.1120 C   0  0  0  0  0  0  0  0  0  0  0  0
   58.7448   33.2764   43.0348 H   0  0  0  0  0  0  0  0  0  0  0  0
   58.6510   29.5340   45.7860 C   0  0  0  0  0  0  0  0  0  0  0  0
   59.0631   30.5492   45.8835 H   0  0  0  0  0  0  0  0  0  0  0  0
   59.4320   28.4240   46.1070 C   0  0  0  0  0  0  0  0  0  0  0  0
   60.4647   28.5614   46.4602 H   0  0  0  0  0  0  0  0  0  0  0  0
   58.9030   27.1390   45.9800 C   0  0  0  0  0  0  0  0  0  0  0  0
   59.5172   26.2599   46.2249 H   0  0  0  0  0  0  0  0  0  0  0  0
  1  2  1  0
  2  3  2  0
  3  4  1  0
  4  5  1  0
  5  6  1  0
  5  7  2  0
  7  8  1  0
  7  9  1  0
  9 10  1  0
  9 11  2  0
 11 12  1  0
 12 13  1  0
 13 14  1  0
 14 15  2  0
 15 16  1  0
 16 17  1  0
 16 18  1  0
 16 19  1  0
 19 20  2  0
 20 21  1  0
 20 22  1  0
 22 23  1  0
 22 24  2  0
 24 25  1  0
 24 26  1  0
 26 27  1  0
 26 28  2  0
 28 29  1  0
 14 30  1  0
 30 31  1  0
 30 32  2  0
 32 33  1  0
 32 34  1  0
 34 35  1  0
 11  3  1  0
 34 12  2  0
 28 19  1  0
M  CHG  2   4  -1  13  -1
M  END
>  <UniqueID>  (2) 
2

>  <SMILES>  (2) 
[H]/N=c1\[n-]cccc1-c1ccc/c(=N/Cc2ccc(F)cc2)[n-]1

>  <Energy>  (2) 
43.401584913916814

>  <Genealogy>  (2) 
N=c1[n-]cccc1-c1cccc(=NCc2ccc(F)cc2)[n-]1 (protonated)
[H]/N=c1\[n-]cccc1-c1ccc/c(=N/Cc2ccc(F)cc2)[n-]1 (cis-trans isomerization)
[H]/N=c1\[n-]cccc1-c1ccc/c(=N/Cc2ccc(F)cc2)[n-]1 (3D coordinates assigned)
[H]/N=c1\[n-]cccc1-c1ccc/c(=N/Cc2ccc(F)cc2)[n-]1 (optimized conformer: 43.401584913916814 kcal/mol)

>  <smiles>  (2) 
N=c1[nH]cccc1-c1cccc(=NCc2ccc(F)cc2)[nH]1

>  <score_type>  (2) 
oracle

>  <origin>  (2) 
adg

>  <m_score__min__energy>  (2) 
-12.140000000000001

>  <m_primary>  (2) 
energy

$$$$
2:0
     RDKit          3D

 43 45  0  0  0  0  0  0  0  0999 V2000
   55.2220   30.3740   53.9280 O   0  0  0  0  0  0  0  0  0  0  0  0
   54.6030   30.5200   52.8400 C   0  0  0  0  0  0  0  0  0  0  0  0
   53.2250   29.9530   52.6960 C   0  0  0  0  0  0  0  0  0  0  0  0
   52.3400   30.9430   52.0070 C   0  0  0  0  0  0  0  0  0  0  0  0
   51.2740   31.6050   52.5720 C   0  0  0  0  0  0  0  0  0  0  0  0
   50.6770   32.3560   51.6300 N   0  0  0  0  0  0  0  0  0  0  0  0
   51.4050   32.1100   50.5220 C   0  0  0  0  0  0  0  0  0  0  0  0
   51.1480   32.6390   49.4100 O   0  0  0  0  0  0  0  0  0  0  0  0
   52.4260   31.2480   50.7000 N   0  0  0  0  0  0  0  0  0  0  0  0
   55.2060   31.2240   51.7430 N   0  0  0  0  0  0  0  0  0  0  0  0
   56.6030   31.5610   51.6740 C   0  0  0  0  0  0  0  0  0  0  0  0
   57.5000   30.8060   50.8970 C   0  0  0  0  0  0  0  0  0  0  0  0
   58.8470   31.1710   50.8240 C   0  0  0  0  0  0  0  0  0  0  0  0
   59.3130   32.3020   51.5070 C   0  0  0  0  0  0  0  0  0  0  0  0
   61.0100   32.7760   51.3910 S   0  0  0  0  0  0  0  0  0  0  0  0
   61.3800   33.5930   52.5990 O   0  0  0  0  0  0  0  0  0  0  0  0
   61.8700   31.5420   51.3840 O   0  0  0  0  0  0  0  0  0  0  0  0
   61.3210   33.7030   49.9410 N   0  0  0  0  0  0  0  0  0  0  0  0
   60.6840   33.0580   48.7720 C   0  0  0  0  0  0  0  0  0  0  0  0
   61.2680   33.5840   47.4570 C   0  0  0  0  0  0  0  0  0  0  0  0
   62.7690   33.2640   47.3500 C   0  0  0  0  0  0  0  0  0  0  0  0
   63.4440   33.1100   48.7240 C   0  0  0  0  0  0  0  0  0  0  0  0
   62.7670   33.9970   49.7780 C   0  0  0  0  0  0  0  0  0  0  0  0
   58.4180   33.0630   52.2710 C   0  0  0  0  0  0  0  0  0  0  0  0
   57.0700   32.7000   52.3440 C   0  0  0  0  0  0  0  0  0  0  0  0
   53.2707   29.0283   52.1019 H   0  0  0  0  0  0  0  0  0  0  0  0
   52.8165   29.7326   53.6933 H   0  0  0  0  0  0  0  0  0  0  0  0
   50.9610   31.5316   53.6240 H   0  0  0  0  0  0  0  0  0  0  0  0
   54.5790   31.5690   50.9810 H   0  0  0  0  0  0  0  0  0  0  0  0
   57.1400   29.9253   50.3449 H   0  0  0  0  0  0  0  0  0  0  0  0
   59.5456   30.5667   50.2267 H   0  0  0  0  0  0  0  0  0  0  0  0
   60.8494   31.9719   48.8281 H   0  0  0  0  0  0  0  0  0  0  0  0
   59.6090   33.2904   48.7911 H   0  0  0  0  0  0  0  0  0  0  0  0
   60.7394   33.1128   46.6153 H   0  0  0  0  0  0  0  0  0  0  0  0
   61.1410   34.6763   47.4307 H   0  0  0  0  0  0  0  0  0  0  0  0
   62.8892   32.3238   46.7918 H   0  0  0  0  0  0  0  0  0  0  0  0
   63.2522   34.1078   46.8358 H   0  0  0  0  0  0  0  0  0  0  0  0
   63.3752   32.0591   49.0417 H   0  0  0  0  0  0  0  0  0  0  0  0
   64.4955   33.4195   48.6320 H   0  0  0  0  0  0  0  0  0  0  0  0
   63.2682   33.8381   50.7442 H   0  0  0  0  0  0  0  0  0  0  0  0
   62.8546   35.0390   49.4367 H   0  0  0  0  0  0  0  0  0  0  0  0
   58.7774   33.9489   52.8151 H   0  0  0  0  0  0  0  0  0  0  0  0
   56.3706   33.3128   52.9316 H   0  0  0  0  0  0  0  0  0  0  0  0
  1  2  2  0
  2  3  1  0
  3  4  1  0
  4  5  2  0
  5  6  1  0
  6  7  1  0
  7  8  2  0
  7  9  1  0
  2 10  1  0
 10 11  1  0
 11 12  2  0
 12 13  1  0
 13 14  2  0
 14 15  1  0
 15 16  2  0
 15 17  2  0
 15 18  1  0
 18 19  1  0
 19 20  1  0
 20 21  1  0
 21 22  1  0
 22 23  1  0
 14 24  1  0
 24 25  2  0
  9  4  1  0
 25 11  1  0
 23 18  1  0
  3 26  1  0
  3 27  1  0
  5 28  1  0
 10 29  1  0
 12 30  1  0
 13 31  1  0
 19 32  1  0
 19 33  1  0
 20 34  1  0
 20 35  1  0
 21 36  1  0
 21 37  1  0
 22 38  1  0
 22 39  1  0
 23 40  1  0
 23 41  1  0
 24 42  1  0
 25 43  1  0
M  CHG  2   6  -1   9  -1
M  END
>  <UniqueID>  (3) 
3

>  <SMILES>  (3) 
O=C(Cc1c[n-]c(=O)[n-]1)Nc1ccc(S(=O)(=O)N2CCCCC2)cc1

>  <Energy>  (3) 
77.25233320892481

>  <Genealogy>  (3) 
O=C(Cc1c[n-]c(=O)[n-]1)Nc1ccc(S(=O)(=O)N2CCCCC2)cc1 (protonated)
O=C(Cc1c[n-]c(=O)[n-]1)Nc1ccc(S(=O)(=O)N2CCCCC2)cc1 (3D coordinates assigned)
O=C(Cc1c[n-]c(=O)[n-]1)Nc1ccc(S(=O)(=O)N2CCCCC2)cc1 (nonaromatic ring conformer: 77.25233320892481 kcal/mol)

>  <smiles>  (3) 
O=C(Cc1c[nH]c(=O)[nH]1)Nc1ccc(S(=O)(=O)N2CCCCC2)cc1

>  <score_type>  (3) 
oracle

>  <origin>  (3) 
adg

>  <m_score__min__energy>  (3) 
-12.380000000000001

>  <m_primary>  (3) 
energy

$$$$
3:0
     RDKit          3D

 51 54  0  0  0  0  0  0  0  0999 V2000
   63.7610   33.4960   47.8430 C   0  0  0  0  0  0  0  0  0  0  0  0
   62.6890   34.1340   48.6590 C   0  0  0  0  0  0  0  0  0  0  0  0
   62.9980   34.7700   49.7020 O   0  0  0  0  0  0  0  0  0  0  0  0
   61.3170   33.8890   48.3310 N   0  0  0  0  0  0  0  0  0  0  0  0
   60.7450   32.7300   48.1730 C   0  0  0  0  0  0  0  0  0  0  0  0
   59.8230   32.4460   47.1020 C   0  0  0  0  0  0  0  0  0  0  0  0
   59.2140   33.3000   46.1820 C   0  0  0  0  0  0  0  0  0  0  0  0
   58.3690   32.7330   45.2140 C   0  0  0  0  0  0  0  0  0  0  0  0
   58.1580   31.3350   45.1800 C   0  0  0  0  0  0  0  0  0  0  0  0
   57.0760   30.6210   43.9870 S   0  0  0  0  0  0  0  0  0  0  0  0
   57.0190   31.5270   42.7900 O   0  0  0  0  0  0  0  0  0  0  0  0
   55.6890   30.4640   44.5450 O   0  0  0  0  0  0  0  0  0  0  0  0
   57.6770   29.0670   43.5000 N   0  0  0  0  0  0  0  0  0  0  0  0
   57.5430   27.8740   44.2910 C   0  0  0  0  0  0  0  0  0  0  0  0
   57.9320   26.6100   43.8040 C   0  0  0  0  0  0  0  0  0  0  0  0
   57.7720   25.4670   44.5950 C   0  0  0  0  0  0  0  0  0  0  0  0
   57.2340   25.5720   45.8800 C   0  0  0  0  0  0  0  0  0  0  0  0
   57.0160   24.0110   46.9560 Br  0  0  0  0  0  0  0  0  0  0  0  0
   56.8590   26.8230   46.3770 C   0  0  0  0  0  0  0  0  0  0  0  0
   57.0160   27.9680   45.5900 C   0  0  0  0  0  0  0  0  0  0  0  0
   58.8010   30.5020   46.1160 C   0  0  0  0  0  0  0  0  0  0  0  0
   59.6320   31.0890   47.0720 C   0  0  0  0  0  0  0  0  0  0  0  0
   60.4300   30.4140   48.1430 C   0  0  0  0  0  0  0  0  0  0  0  0
   61.0460   31.5240   48.9000 N   0  0  0  0  0  0  0  0  0  0  0  0
   61.0310   31.4850   50.3690 C   0  0  0  0  0  0  0  0  0  0  0  0
   59.6190   31.3440   50.8850 C   0  0  0  0  0  0  0  0  0  0  0  0
   59.1000   30.0660   51.1530 C   0  0  0  0  0  0  0  0  0  0  0  0
   57.7900   29.9180   51.6170 C   0  0  0  0  0  0  0  0  0  0  0  0
   56.9860   31.0420   51.8150 C   0  0  0  0  0  0  0  0  0  0  0  0
   55.3420   30.8530   52.3940 Cl  0  0  0  0  0  0  0  0  0  0  0  0
   57.4910   32.3170   51.5460 C   0  0  0  0  0  0  0  0  0  0  0  0
   58.8010   32.4730   51.0820 C   0  0  0  0  0  0  0  0  0  0  0  0
   59.2640   33.7210   50.8210 F   0  0  0  0  0  0  0  0  0  0  0  0
   64.5125   33.0487   48.5102 H   0  0  0  0  0  0  0  0  0  0  0  0
   63.3214   32.7124   47.2083 H   0  0  0  0  0  0  0  0  0  0  0  0
   64.2401   34.2560   47.2083 H   0  0  0  0  0  0  0  0  0  0  0  0
   59.3905   34.3853   46.2139 H   0  0  0  0  0  0  0  0  0  0  0  0
   57.8686   33.3798   44.4783 H   0  0  0  0  0  0  0  0  0  0  0  0
   58.2560   29.0380   42.6320 H   0  0  0  0  0  0  0  0  0  0  0  0
   58.3639   26.5215   42.7962 H   0  0  0  0  0  0  0  0  0  0  0  0
   58.0706   24.4831   44.2040 H   0  0  0  0  0  0  0  0  0  0  0  0
   56.4391   26.9072   47.3902 H   0  0  0  0  0  0  0  0  0  0  0  0
   56.7246   28.9500   45.9910 H   0  0  0  0  0  0  0  0  0  0  0  0
   58.6517   29.4124   46.0943 H   0  0  0  0  0  0  0  0  0  0  0  0
   59.7775   29.8140   48.7944 H   0  0  0  0  0  0  0  0  0  0  0  0
   61.1791   29.7208   47.7327 H   0  0  0  0  0  0  0  0  0  0  0  0
   61.6286   30.6281   50.7135 H   0  0  0  0  0  0  0  0  0  0  0  0
   61.4552   32.4249   50.7520 H   0  0  0  0  0  0  0  0  0  0  0  0
   59.7284   29.1768   50.9967 H   0  0  0  0  0  0  0  0  0  0  0  0
   57.3918   28.9142   51.8265 H   0  0  0  0  0  0  0  0  0  0  0  0
   56.8555   33.2015   51.6999 H   0  0  0  0  0  0  0  0  0  0  0  0
  1  2  1  0
  2  3  2  0
  2  4  1  0
  4  5  2  3
  5  6  1  0
  6  7  2  0
  7  8  1  0
  8  9  2  0
  9 10  1  0
 10 11  2  0
 10 12  2  0
 10 13  1  0
 13 14  1  0
 14 15  2  0
 15 16  1  0
 16 17  2  0
 17 18  1  0
 17 19  1  0
 19 20  2  0
  9 21  1  0
 21 22  2  0
 22 23  1  0
 23 24  1  0
 24 25  1  0
 25 26  1  0
 26 27  2  0
 27 28  1  0
 28 29  2  0
 29 30  1  0
 29 31  1  0
 31 32  2  0
 32 33  1  0
 24  5  1  0
 32 26  1  0
 22  6  1  0
 20 14  1  0
  1 34  1  0
  1 35  1  0
  1 36  1  0
  7 37  1  0
  8 38  1  0
 13 39  1  0
 15 40  1  0
 16 41  1  0
 19 42  1  0
 20 43  1  0
 21 44  1  0
 23 45  1  0
 23 46  1  0
 25 47  1  0
 25 48  1  0
 27 49  1  0
 28 50  1  0
 31 51  1  0
M  END
>  <UniqueID>  (4) 
4

>  <SMILES>  (4) 
CC(=O)N=C1c2ccc(S(=O)(=O)Nc3ccc(Br)cc3)cc2CN1Cc1ccc(Cl)cc1F

>  <Energy>  (4) 
85.40858633148841

>  <Genealogy>  (4) 
CC(=O)N=C1c2ccc(S(=O)(=O)Nc3ccc(Br)cc3)cc2CN1Cc1ccc(Cl)cc1F (3D coordinates assigned)
CC(=O)N=C1c2ccc(S(=O)(=O)Nc3ccc(Br)cc3)cc2CN1Cc1ccc(Cl)cc1F (nonaromatic ring conformer: 85.40858633148841 kcal/mol)

>  <smiles>  (4) 
CC(=O)N=C1c2ccc(S(=O)(=O)Nc3ccc(Br)cc3)cc2CN1Cc1ccc(Cl)cc1F

>  <score_type>  (4) 
oracle

>  <origin>  (4) 
adg

>  <m_score__min__energy>  (4) 
-9.9299999999999997

>  <m_primary>  (4) 
energy

$$$$
4:0
     RDKit          3D

 45 48  0  0  0  0  0  0  0  0999 V2000
   57.0998   31.8258   51.9256 H   0  0  0  0  0  0  0  0  0  0  0  0
   56.0060   31.7550   52.0180 C   0  0  0  0  0  0  0  0  0  0  0  0
   55.3743   32.6134   51.7457 H   0  0  0  0  0  0  0  0  0  0  0  0
   55.4420   30.6210   52.4630 C   0  0  0  0  0  0  0  0  0  0  0  0
   54.0740   30.3820   52.6330 C   0  0  0  0  0  0  0  0  0  0  0  0
   53.0660   31.2570   52.4550 C   0  0  0  0  0  0  0  0  0  0  0  0
   52.8274   31.9445   53.2799 H   0  0  0  0  0  0  0  0  0  0  0  0
   52.2630   31.3500   51.2230 C   0  0  0  0  0  0  0  0  0  0  0  0
   52.2370   30.3860   50.2850 N   0  0  0  0  0  0  0  0  0  0  0  0
   51.3270   30.8390   49.3950 C   0  0  0  0  0  0  0  0  0  0  0  0
   51.0290   30.2060   48.3490 O   0  0  0  0  0  0  0  0  0  0  0  0
   50.7530   32.0160   49.7210 N   0  0  0  0  0  0  0  0  0  0  0  0
   51.3460   32.3210   50.8860 C   0  0  0  0  0  0  0  0  0  0  0  0
   51.0190   33.4390   51.6450 O   0  0  0  0  0  0  0  0  0  0  0  0
   53.9590   29.0680   53.0730 C   0  0  0  0  0  0  0  0  0  0  0  0
   53.0279   28.5339   53.3134 H   0  0  0  0  0  0  0  0  0  0  0  0
   55.2430   28.5650   53.1490 C   0  0  0  0  0  0  0  0  0  0  0  0
   55.5950   27.1700   53.5700 C   0  0  0  0  0  0  0  0  0  0  0  0
   55.6098   27.1112   54.6683 H   0  0  0  0  0  0  0  0  0  0  0  0
   54.8459   26.4678   53.1753 H   0  0  0  0  0  0  0  0  0  0  0  0
   56.5876   26.9073   53.1753 H   0  0  0  0  0  0  0  0  0  0  0  0
   56.1400   29.5050   52.7830 N   0  0  0  0  0  0  0  0  0  0  0  0
   57.5640   29.3160   52.7190 C   0  0  0  0  0  0  0  0  0  0  0  0
   58.3020   29.0450   53.8820 C   0  0  0  0  0  0  0  0  0  0  0  0
   57.5230   28.9080   55.4520 Cl  0  0  0  0  0  0  0  0  0  0  0  0
   59.6810   28.8580   53.7830 C   0  0  0  0  0  0  0  0  0  0  0  0
   60.2729   28.6532   54.6873 H   0  0  0  0  0  0  0  0  0  0  0  0
   60.3120   28.9300   52.5400 C   0  0  0  0  0  0  0  0  0  0  0  0
   62.0580   28.7440   52.4560 Cl  0  0  0  0  0  0  0  0  0  0  0  0
   59.5410   29.1870   51.3940 C   0  0  0  0  0  0  0  0  0  0  0  0
   60.1540   29.2520   50.0990 N   0  0  0  0  0  0  0  0  0  0  0  0
   60.2070   28.1180   49.1940 C   0  0  0  0  0  0  0  0  0  0  0  0
   60.9915   27.4131   49.5065 H   0  0  0  0  0  0  0  0  0  0  0  0
   59.2596   27.5592   49.1840 H   0  0  0  0  0  0  0  0  0  0  0  0
   60.5320   28.7040   47.8260 C   0  0  0  0  0  0  0  0  0  0  0  0
   61.3054   28.1026   47.3259 H   0  0  0  0  0  0  0  0  0  0  0  0
   59.6499   28.7099   47.1688 H   0  0  0  0  0  0  0  0  0  0  0  0
   61.0460   30.1190   48.0890 C   0  0  0  0  0  0  0  0  0  0  0  0
   62.1459   30.1335   48.0873 H   0  0  0  0  0  0  0  0  0  0  0  0
   60.7116   30.8223   47.3121 H   0  0  0  0  0  0  0  0  0  0  0  0
   60.5130   30.5050   49.4610 C   0  0  0  0  0  0  0  0  0  0  0  0
   61.2879   31.0255   50.0429 H   0  0  0  0  0  0  0  0  0  0  0  0
   59.6548   31.1895   49.3898 H   0  0  0  0  0  0  0  0  0  0  0  0
   58.1960   29.3750   51.5140 N   0  0  0  0  0  0  0  0  0  0  0  0
   57.6270   29.5600   50.6560 H   0  0  0  0  0  0  0  0  0  0  0  0
  1  2  1  0
  2  3  1  0
  2  4  2  0
  4  5  1  0
  5  6  2  0
  6  7  1  0
  6  8  1  0
  8  9  1  0
  9 10  1  0
 10 11  2  0
 10 12  1  0
 12 13  1  0
 13 14  1  0
  5 15  1  0
 15 16  1  0
 15 17  2  0
 17 18  1  0
 18 19  1  0
 18 20  1  0
 18 21  1  0
 17 22  1  0
 22 23  1  0
 23 24  2  0
 24 25  1  0
 24 26  1  0
 26 27  1  0
 26 28  2  0
 28 29  1  0
 28 30  1  0
 30 31  1  0
 31 32  1  0
 32 33  1  0
 32 34  1  0
 32 35  1  0
 35 36  1  0
 35 37  1  0
 35 38  1  0
 38 39  1  0
 38 40  1  0
 38 41  1  0
 41 42  1  0
 41 43  1  0
 30 44  2  0
 44 45  1  0
 22  4  1  0
 44 23  1  0
 13  8  2  0
 41 31  1  0
M  CHG  4   9  -1  12  -1  14  -1  44   1
M  END
>  <UniqueID>  (5) 
5

>  <SMILES>  (5) 
C=c1/c(=C/c2[n-]c(=O)[n-]c2[O-])cc(C)n1-c1[nH+]c(N2CCCC2)c(Cl)cc1Cl

>  <Energy>  (5) 
124.79197547648862

>  <Genealogy>  (5) 
C=c1c(=Cc2[n-]c(=O)[n-]c2[O-])cc(C)n1-c1[nH+]c(N2CCCC2)c(Cl)cc1Cl (protonated)
C=c1/c(=C/c2[n-]c(=O)[n-]c2[O-])cc(C)n1-c1[nH+]c(N2CCCC2)c(Cl)cc1Cl (cis-trans isomerization)
C=c1/c(=C/c2[n-]c(=O)[n-]c2[O-])cc(C)n1-c1[nH+]c(N2CCCC2)c(Cl)cc1Cl (3D coordinates assigned)
C=c1/c(=C/c2[n-]c(=O)[n-]c2[O-])cc(C)n1-c1[nH+]c(N2CCCC2)c(Cl)cc1Cl (nonaromatic ring conformer: 124.79197547648862 kcal/mol)

>  <smiles>  (5) 
C=c1c(=Cc2[nH]c(=O)[nH]c2O)cc(C)n1-c1nc(N2CCCC2)c(Cl)cc1Cl

>  <score_type>  (5) 
oracle

>  <origin>  (5) 
adg

>  <m_score__min__energy>  (5) 
-14.789999999999999

>  <m_primary>  (5) 
energy

$$$$
5:0
     RDKit          3D

 23 24  0  0  0  0  0  0  0  0999 V2000
   56.0010   28.7280   44.9470 O   0  0  0  0  0  0  0  0  0  0  0  0
   57.0230   28.4300   45.6200 C   0  0  0  0  0  0  0  0  0  0  0  0
   58.0170   29.4380   45.8450 N   0  0  0  0  0  0  0  0  0  0  0  0
   58.0740   30.7160   45.1930 C   0  0  0  0  0  0  0  0  0  0  0  0
   57.6920   30.7930   43.8480 C   0  0  0  0  0  0  0  0  0  0  0  0
   57.7530   32.0070   43.1640 C   0  0  0  0  0  0  0  0  0  0  0  0
   58.1760   33.1600   43.8240 C   0  0  0  0  0  0  0  0  0  0  0  0
   58.5220   33.1120   45.1780 C   0  0  0  0  0  0  0  0  0  0  0  0
   59.0100   34.6000   45.9770 Cl  0  0  0  0  0  0  0  0  0  0  0  0
   58.4600   31.8910   45.8770 C   0  0  0  0  0  0  0  0  0  0  0  0
   58.7620   31.8700   47.6150 Cl  0  0  0  0  0  0  0  0  0  0  0  0
   57.1780   27.0440   46.1290 C   0  0  0  0  0  0  0  0  0  0  0  0
   56.0520   26.2270   46.3380 C   0  0  0  0  0  0  0  0  0  0  0  0
   54.7710   26.7030   46.0850 O   0  0  0  0  0  0  0  0  0  0  0  0
   56.2070   24.9630   46.8090 N   0  0  0  0  0  0  0  0  0  0  0  0
   57.4380   24.4600   47.0770 C   0  0  0  0  0  0  0  0  0  0  0  0
   57.5550   23.2880   47.5200 O   0  0  0  0  0  0  0  0  0  0  0  0
   58.5420   25.2180   46.8630 N   0  0  0  0  0  0  0  0  0  0  0  0
   58.4450   26.4860   46.3890 C   0  0  0  0  0  0  0  0  0  0  0  0
   59.4980   27.1390   46.1650 O   0  0  0  0  0  0  0  0  0  0  0  0
   57.3414   29.8897   43.3273 H   0  0  0  0  0  0  0  0  0  0  0  0
   57.4671   32.0548   42.1029 H   0  0  0  0  0  0  0  0  0  0  0  0
   58.2379   34.1122   43.2768 H   0  0  0  0  0  0  0  0  0  0  0  0
  1  2  2  0
  2  3  1  0
  3  4  1  0
  4  5  2  0
  5  6  1  0
  6  7  2  0
  7  8  1  0
  8  9  1  0
  8 10  2  0
 10 11  1  0
  2 12  1  0
 12 13  2  0
 13 14  1  0
 13 15  1  0
 15 16  1  0
 16 17  2  0
 16 18  1  0
 18 19  1  0
 19 20  2  0
 10  4  1  0
 19 12  1  0
  5 21  1  0
  6 22  1  0
  7 23  1  0
M  CHG  4   3  -1  14  -1  15  -1  18  -1
M  END
>  <UniqueID>  (6) 
6

>  <SMILES>  (6) 
O=C([N-]c1cccc(Cl)c1Cl)c1c([O-])[n-]c(=O)[n-]c1=O

>  <Energy>  (6) 
39.535922154411196

>  <Genealogy>  (6) 
O=C([N-]c1cccc(Cl)c1Cl)c1c([O-])[n-]c(=O)[n-]c1=O (protonated)
O=C([N-]c1cccc(Cl)c1Cl)c1c([O-])[n-]c(=O)[n-]c1=O (3D coordinates assigned)
O=C([N-]c1cccc(Cl)c1Cl)c1c([O-])[n-]c(=O)[n-]c1=O (optimized conformer: 39.535922154411196 kcal/mol)

>  <smiles>  (6) 
O=C(Nc1cccc(Cl)c1Cl)c1c(O)[nH]c(=O)[nH]c1=O

>  <score_type>  (6) 
oracle

>  <origin>  (6) 
adg

>  <m_score__min__energy>  (6) 
-16.120000000000001

>  <m_primary>  (6) 
energy

$$$$
6:0
     RDKit          3D

 55 58  0  0  0  0  0  0  0  0999 V2000
   63.5490   33.4340   50.6350 C   0  0  0  0  0  0  0  0  0  0  0  0
   62.7360   33.1180   49.3640 C   0  0  0  0  0  0  0  0  0  0  0  0
   62.7680   31.5900   49.1310 C   0  0  0  0  0  0  0  0  0  0  0  0
   63.3710   33.8620   48.1620 C   0  0  0  0  0  0  0  0  0  0  0  0
   62.5220   33.7670   46.9250 C   0  0  0  0  0  0  0  0  0  0  0  0
   63.0730   33.8440   45.7930 O   0  0  0  0  0  0  0  0  0  0  0  0
   61.0520   33.6390   47.0380 C   0  0  0  0  0  0  0  0  0  0  0  0
   60.2350   33.6080   45.9000 C   0  0  0  0  0  0  0  0  0  0  0  0
   58.8400   33.5140   46.0230 C   0  0  0  0  0  0  0  0  0  0  0  0
   57.9790   33.5480   44.8120 C   0  0  0  0  0  0  0  0  0  0  0  0
   57.1990   34.5200   44.6320 O   0  0  0  0  0  0  0  0  0  0  0  0
   57.9730   32.4750   43.8580 N   0  0  0  0  0  0  0  0  0  0  0  0
   57.7470   31.0920   44.1650 C   0  0  0  0  0  0  0  0  0  0  0  0
   58.8120   30.1780   44.2570 C   0  0  0  0  0  0  0  0  0  0  0  0
   58.5730   28.8580   44.6460 C   0  0  0  0  0  0  0  0  0  0  0  0
   57.2690   28.4310   44.9250 C   0  0  0  0  0  0  0  0  0  0  0  0
   56.9770   26.8090   45.5450 S   0  0  0  0  0  0  0  0  0  0  0  0
   57.2180   25.7950   44.4600 O   0  0  0  0  0  0  0  0  0  0  0  0
   55.5440   26.7050   45.9880 O   0  0  0  0  0  0  0  0  0  0  0  0
   58.0360   26.5000   46.9000 N   0  0  0  0  0  0  0  0  0  0  0  0
   58.4460   27.7740   47.5210 C   0  0  0  0  0  0  0  0  0  0  0  0
   59.7160   27.5820   48.3630 C   0  0  0  0  0  0  0  0  0  0  0  0
   60.8380   27.1020   47.6290 O   0  0  0  0  0  0  0  0  0  0  0  0
   60.4930   26.4610   46.4100 C   0  0  0  0  0  0  0  0  0  0  0  0
   59.1840   25.6560   46.4990 C   0  0  0  0  0  0  0  0  0  0  0  0
   56.2010   29.3280   44.7850 C   0  0  0  0  0  0  0  0  0  0  0  0
   56.4390   30.6490   44.3930 C   0  0  0  0  0  0  0  0  0  0  0  0
   58.2890   33.4040   47.3140 C   0  0  0  0  0  0  0  0  0  0  0  0
   57.0430   33.3150   47.4790 O   0  0  0  0  0  0  0  0  0  0  0  0
   59.1010   33.4170   48.4030 N   0  0  0  0  0  0  0  0  0  0  0  0
   60.4520   33.5230   48.3040 C   0  0  0  0  0  0  0  0  0  0  0  0
   61.2750   33.6040   49.5650 C   0  0  0  0  0  0  0  0  0  0  0  0
   62.9454   33.1994   51.5241 H   0  0  0  0  0  0  0  0  0  0  0  0
   64.4663   32.8269   50.6439 H   0  0  0  0  0  0  0  0  0  0  0  0
   63.8155   34.5012   50.6439 H   0  0  0  0  0  0  0  0  0  0  0  0
   62.7789   31.0713   50.1010 H   0  0  0  0  0  0  0  0  0  0  0  0
   61.8760   31.2869   48.5631 H   0  0  0  0  0  0  0  0  0  0  0  0
   63.6719   31.3245   48.5631 H   0  0  0  0  0  0  0  0  0  0  0  0
   63.4947   34.9225   48.4266 H   0  0  0  0  0  0  0  0  0  0  0  0
   64.3400   33.3890   47.9447 H   0  0  0  0  0  0  0  0  0  0  0  0
   60.6914   33.6578   44.9004 H   0  0  0  0  0  0  0  0  0  0  0  0
   59.8361   30.5036   44.0219 H   0  0  0  0  0  0  0  0  0  0  0  0
   59.4118   28.1517   44.7334 H   0  0  0  0  0  0  0  0  0  0  0  0
   58.6444   28.5135   46.7313 H   0  0  0  0  0  0  0  0  0  0  0  0
   57.6358   28.1252   48.1770 H   0  0  0  0  0  0  0  0  0  0  0  0
   59.9844   28.5516   48.8079 H   0  0  0  0  0  0  0  0  0  0  0  0
   59.4816   26.8163   49.1171 H   0  0  0  0  0  0  0  0  0  0  0  0
   60.3791   27.2291   45.6309 H   0  0  0  0  0  0  0  0  0  0  0  0
   61.2990   25.7505   46.1741 H   0  0  0  0  0  0  0  0  0  0  0  0
   58.9721   25.2140   45.5143 H   0  0  0  0  0  0  0  0  0  0  0  0
   59.3165   24.8787   47.2660 H   0  0  0  0  0  0  0  0  0  0  0  0
   55.1727   28.9918   44.9841 H   0  0  0  0  0  0  0  0  0  0  0  0
   55.5951   31.3426   44.2633 H   0  0  0  0  0  0  0  0  0  0  0  0
   61.2964   34.6503   49.9038 H   0  0  0  0  0  0  0  0  0  0  0  0
   60.8061   32.9430   50.3088 H   0  0  0  0  0  0  0  0  0  0  0  0
  1  2  1  0
  2  3  1  0
  2  4  1  0
  4  5  1  0
  5  6  2  0
  5  7  1  0
  7  8  1  0
  8  9  2  0
  9 10  1  0
 10 11  2  0
 10 12  1  0
 12 13  1  0
 13 14  2  0
 14 15  1  0
 15 16  2  0
 16 17  1  0
 17 18  2  0
 17 19  2  0
 17 20  1  0
 20 21  1  0
 21 22  1  0
 22 23  1  0
 23 24  1  0
 24 25  1  0
 16 26  1  0
 26 27  2  0
  9 28  1  0
 28 29  2  0
 28 30  1  0
 30 31  1  0
 31 32  1  0
 32  2  1  0
 31  7  2  0
 27 13  1  0
 25 20  1  0
  1 33  1  0
  1 34  1  0
  1 35  1  0
  3 36  1  0
  3 37  1  0
  3 38  1  0
  4 39  1  0
  4 40  1  0
  8 41  1  0
 14 42  1  0
 15 43  1  0
 21 44  1  0
 21 45  1  0
 22 46  1  0
 22 47  1  0
 24 48  1  0
 24 49  1  0
 25 50  1  0
 25 51  1  0
 26 52  1  0
 27 53  1  0
 32 54  1  0
 32 55  1  0
M  CHG  2  12  -1  30  -1
M  END
>  <UniqueID>  (7) 
7

>  <SMILES>  (7) 
CC1(C)CC(=O)c2cc(C(=O)[N-]c3ccc(S(=O)(=O)N4CCOCC4)cc3)c(=O)[n-]c2C1

>  <Energy>  (7) 
75.68473458607828

>  <Genealogy>  (7) 
CC1(C)CC(=O)c2cc(C(=O)[N-]c3ccc(S(=O)(=O)N4CCOCC4)cc3)c(=O)[n-]c2C1 (protonated)
CC1(C)CC(=O)c2cc(C(=O)[N-]c3ccc(S(=O)(=O)N4CCOCC4)cc3)c(=O)[n-]c2C1 (3D coordinates assigned)
CC1(C)CC(=O)c2cc(C(=O)[N-]c3ccc(S(=O)(=O)N4CCOCC4)cc3)c(=O)[n-]c2C1 (nonaromatic ring conformer: 75.68473458607828 kcal/mol)

>  <smiles>  (7) 
CC1(C)CC(=O)c2cc(C(=O)Nc3ccc(S(=O)(=O)N4CCOCC4)cc3)c(=O)[nH]c2C1

>  <score_type>  (7) 
oracle

>  <origin>  (7) 
adg

>  <m_score__min__energy>  (7) 
-12.98

>  <m_primary>  (7) 
energy

$$$$
7:0
     RDKit          3D

 34 35  0  0  1  0  0  0  0  0999 V2000
   57.4040   31.9090   42.0480 C   0  0  0  0  0  0  0  0  0  0  0  0
   57.2830   31.2290   43.1660 C   0  0  0  0  0  0  0  0  0  0  0  0
   56.5620   29.8820   43.2230 C   0  0  0  0  0  0  0  0  0  0  0  0
   56.3350   29.7490   44.6320 N   0  0  0  0  0  0  0  0  0  0  0  0
   56.8580   28.8190   45.3290 C   0  0  0  0  0  0  0  0  0  0  0  0
   56.1270   27.7040   45.5950 N   0  0  0  0  0  0  0  0  0  0  0  0
   56.6350   26.6900   46.3220 C   0  0  0  0  0  0  0  0  0  0  0  0
   55.9910   25.6530   46.5850 O   0  0  0  0  0  0  0  0  0  0  0  0
   57.8970   26.7530   46.8110 N   0  0  0  0  0  0  0  0  0  0  0  0
   58.6170   27.8560   46.5460 C   0  0  0  0  0  0  0  0  0  0  0  0
   59.9100   27.8990   47.0580 O   0  0  0  0  0  0  0  0  0  0  0  0
   58.1310   28.9200   45.8040 C   0  0  0  0  0  0  0  0  0  0  0  0
   59.0190   30.0490   45.6210 C   0  0  0  0  0  0  0  0  0  0  0  0
   59.3410   30.7140   46.7020 N   0  0  0  0  0  0  0  0  0  0  0  0
   59.3670   32.1070   46.8420 C   0  0  0  0  0  0  0  0  0  0  0  0
   60.0720   32.8170   47.7680 C   0  0  0  0  0  0  0  0  0  0  0  0
   60.0280   34.2120   47.8270 C   0  0  0  0  0  0  0  0  0  0  0  0
   59.2460   34.9410   46.9260 C   0  0  0  0  0  0  0  0  0  0  0  0
   58.5270   34.2190   45.9850 C   0  0  0  0  0  0  0  0  0  0  0  0
   58.5830   32.8380   45.9380 C   0  0  0  0  0  0  0  0  0  0  0  0
   57.9298   32.8752   42.0461 H   0  0  0  0  0  0  0  0  0  0  0  0
   56.9794   31.5120   41.1141 H   0  0  0  0  0  0  0  0  0  0  0  0
   57.7141   31.6420   44.0899 H   0  0  0  0  0  0  0  0  0  0  0  0
   55.6158   29.9069   42.6625 H   0  0  0  0  0  0  0  0  0  0  0  0
   57.1238   29.0491   42.7749 H   0  0  0  0  0  0  0  0  0  0  0  0
   55.1460   27.5990   45.2450 H   0  0  0  0  0  0  0  0  0  0  0  0
   58.2930   25.9570   47.3820 H   0  0  0  0  0  0  0  0  0  0  0  0
   60.3090   28.8090   47.2300 H   0  0  0  0  0  0  0  0  0  0  0  0
   59.4017   30.3322   44.6293 H   0  0  0  0  0  0  0  0  0  0  0  0
   60.6961   32.2735   48.4926 H   0  0  0  0  0  0  0  0  0  0  0  0
   60.6152   34.7428   48.5908 H   0  0  0  0  0  0  0  0  0  0  0  0
   59.2028   36.0396   46.9619 H   0  0  0  0  0  0  0  0  0  0  0  0
   57.8983   34.7568   45.2600 H   0  0  0  0  0  0  0  0  0  0  0  0
   58.0000   32.3014   45.1750 H   0  0  0  0  0  0  0  0  0  0  0  0
  1  2  2  0
  2  3  1  0
  3  4  1  0
  4  5  2  0
  5  6  1  0
  6  7  1  0
  7  8  2  0
  7  9  1  0
  9 10  1  0
 10 11  1  0
 10 12  2  0
 12 13  1  0
 13 14  2  0
 14 15  1  0
 15 16  2  0
 16 17  1  0
 17 18  2  0
 18 19  1  0
 19 20  2  0
 12  5  1  0
 20 15  1  0
  1 21  1  0
  1 22  1  0
  2 23  1  0
  3 24  1  0
  3 25  1  0
  6 26  1  0
  9 27  1  0
 11 28  1  0
 13 29  1  0
 16 30  1  0
 17 31  1  0
 18 32  1  0
 19 33  1  0
 20 34  1  0
M  END
>  <smiles>  (8) 
C=CCN=c1[nH]c(=O)[nH]c(O)c1C=Nc1ccccc1

>  <score_type>  (8) 
oracle

>  <origin>  (8) 
adg

>  <m_score__min__energy>  (8) 
-7.1200000000000001

>  <m_primary>  (8) 
energy

$$$$
8:0
     RDKit          3D

 65 68  0  0  0  0  0  0  0  0999 V2000
   57.3662   31.2950   42.0472 H   0  0  0  0  0  0  0  0  0  0  0  0
   57.3570   31.5100   43.1260 C   0  0  0  0  0  0  0  0  0  0  0  0
   56.8780   30.4430   44.0320 C   0  0  0  0  0  0  0  0  0  0  0  0
   55.7010   30.4760   44.4720 O   0  0  0  0  0  0  0  0  0  0  0  0
   57.7240   29.3470   44.4020 N   0  0  0  0  0  0  0  0  0  0  0  0
   58.5040   29.2810   45.6010 C   0  0  0  0  0  0  0  0  0  0  0  0
   58.0900   28.4990   46.6910 C   0  0  0  0  0  0  0  0  0  0  0  0
   57.1530   27.9260   46.6300 H   0  0  0  0  0  0  0  0  0  0  0  0
   58.8640   28.4460   47.8530 C   0  0  0  0  0  0  0  0  0  0  0  0
   58.5270   27.8419   48.7083 H   0  0  0  0  0  0  0  0  0  0  0  0
   60.0710   29.1610   47.9340 C   0  0  0  0  0  0  0  0  0  0  0  0
   60.8370   29.1560   49.1500 N   0  0  0  0  0  0  0  0  0  0  0  0
   61.3450   30.4280   49.6800 C   0  0  0  0  0  0  0  0  0  0  0  0
   60.5160   31.1492   49.7304 H   0  0  0  0  0  0  0  0  0  0  0  0
   62.1395   30.7853   49.0084 H   0  0  0  0  0  0  0  0  0  0  0  0
   61.9480   30.2610   51.0900 C   0  0  0  0  0  0  0  0  0  0  0  0
   62.0669   31.2581   51.5391 H   0  0  0  0  0  0  0  0  0  0  0  0
   62.9104   29.7414   50.9730 H   0  0  0  0  0  0  0  0  0  0  0  0
   61.1090   29.4340   51.9940 N   0  0  0  0  0  0  0  0  0  0  0  0
   60.3240   30.1980   52.9880 C   0  0  0  0  0  0  0  0  0  0  0  0
   60.6375   31.2514   52.9431 H   0  0  0  0  0  0  0  0  0  0  0  0
   60.5197   29.7442   53.9707 H   0  0  0  0  0  0  0  0  0  0  0  0
   58.8100   30.1330   52.7570 C   0  0  0  0  0  0  0  0  0  0  0  0
   58.2917   30.1107   53.7270 H   0  0  0  0  0  0  0  0  0  0  0  0
   58.4874   31.0181   52.1891 H   0  0  0  0  0  0  0  0  0  0  0  0
   58.5644   29.2235   52.1891 H   0  0  0  0  0  0  0  0  0  0  0  0
   60.3600   28.3130   51.3740 C   0  0  0  0  0  0  0  0  0  0  0  0
   59.3027   28.6017   51.2809 H   0  0  0  0  0  0  0  0  0  0  0  0
   60.4779   27.4298   52.0190 H   0  0  0  0  0  0  0  0  0  0  0  0
   60.8970   27.9580   49.9890 C   0  0  0  0  0  0  0  0  0  0  0  0
   60.2816   27.1619   49.5446 H   0  0  0  0  0  0  0  0  0  0  0  0
   61.9348   27.6014   50.0656 H   0  0  0  0  0  0  0  0  0  0  0  0
   60.4940   29.9250   46.8350 C   0  0  0  0  0  0  0  0  0  0  0  0
   61.4351   30.4917   46.8910 H   0  0  0  0  0  0  0  0  0  0  0  0
   59.7220   29.9680   45.6680 C   0  0  0  0  0  0  0  0  0  0  0  0
   60.0740   30.5442   44.7996 H   0  0  0  0  0  0  0  0  0  0  0  0
   57.7810   32.7200   43.5210 C   0  0  0  0  0  0  0  0  0  0  0  0
   57.7722   33.5232   42.7695 H   0  0  0  0  0  0  0  0  0  0  0  0
   58.2600   33.0720   44.8780 C   0  0  0  0  0  0  0  0  0  0  0  0
   59.4230   33.8400   45.0760 C   0  0  0  0  0  0  0  0  0  0  0  0
   59.9699   34.2371   44.2081 H   0  0  0  0  0  0  0  0  0  0  0  0
   59.8870   34.1010   46.3670 C   0  0  0  0  0  0  0  0  0  0  0  0
   60.7817   34.7248   46.5094 H   0  0  0  0  0  0  0  0  0  0  0  0
   59.2200   33.5730   47.4860 C   0  0  0  0  0  0  0  0  0  0  0  0
   59.7210   33.8330   48.8550 C   0  0  0  0  0  0  0  0  0  0  0  0
   60.4920   34.8100   49.0630 O   0  0  0  0  0  0  0  0  0  0  0  0
   59.3680   32.9590   49.9410 N   0  0  0  0  0  0  0  0  0  0  0  0
   59.0310   31.9980   49.7220 H   0  0  0  0  0  0  0  0  0  0  0  0
   59.5460   33.3300   51.3170 C   0  0  0  0  0  0  0  0  0  0  0  0
   58.4190   33.4880   52.1450 C   0  0  0  0  0  0  0  0  0  0  0  0
   57.4096   33.3844   51.7203 H   0  0  0  0  0  0  0  0  0  0  0  0
   58.5750   33.7760   53.5050 C   0  0  0  0  0  0  0  0  0  0  0  0
   57.6896   33.8993   54.1460 H   0  0  0  0  0  0  0  0  0  0  0  0
   59.8540   33.9070   54.0490 C   0  0  0  0  0  0  0  0  0  0  0  0
   59.9751   34.1287   55.1196 H   0  0  0  0  0  0  0  0  0  0  0  0
   60.9810   33.7570   53.2360 C   0  0  0  0  0  0  0  0  0  0  0  0
   61.9856   33.8655   53.6706 H   0  0  0  0  0  0  0  0  0  0  0  0
   60.8410   33.4690   51.8690 C   0  0  0  0  0  0  0  0  0  0  0  0
   62.0170   33.3510   51.0590 N   0  0  0  0  0  0  0  0  0  0  0  0
   62.0570   33.7860   50.1080 H   0  0  0  0  0  0  0  0  0  0  0  0
   62.8410   32.7850   51.3630 H   0  0  0  0  0  0  0  0  0  0  0  0
   58.0850   32.7670   47.2860 C   0  0  0  0  0  0  0  0  0  0  0  0
   57.5683   32.3258   48.1510 H   0  0  0  0  0  0  0  0  0  0  0  0
   57.6090   32.5230   45.9920 C   0  0  0  0  0  0  0  0  0  0  0  0
   56.7171   31.8955   45.8482 H   0  0  0  0  0  0  0  0  0  0  0  0
  1  2  1  0
  2  3  1  0
  3  4  2  0
  3  5  1  0
  5  6  1  0
  6  7  2  0
  7  8  1  0
  7  9  1  0
  9 10  1  0
  9 11  2  0
 11 12  1  0
 12 13  1  0
 13 14  1  0
 13 15  1  0
 13 16  1  0
 16 17  1  0
 16 18  1  0
 16 19  1  0
 19 20  1  0
 20 21  1  0
 20 22  1  0
 20 23  1  0
 23 24  1  0
 23 25  1  0
 23 26  1  0
 19 27  1  0
 27 28  1  0
 27 29  1  0
 27 30  1  0
 30 31  1  0
 30 32  1  0
 11 33  1  0
 33 34  1  0
 33 35  2  0
 35 36  1  0
  2 37  2  0
 37 38  1  0
 37 39  1  0
 39 40  2  0
 40 41  1  0
 40 42  1  0
 42 43  1  0
 42 44  2  0
 44 45  1  0
 45 46  2  0
 45 47  1  0
 47 48  1  0
 47 49  1  0
 49 50  2  0
 50 51  1  0
 50 52  1  0
 52 53  1  0
 52 54  2  0
 54 55  1  0
 54 56  1  0
 56 57  1  0
 56 58  2  0
 58 59  1  0
 59 60  1  0
 59 61  1  0
 44 62  1  0
 62 63  1  0
 62 64  2  0
 64 65  1  0
 35  6  1  0
 64 39  1  0
 30 12  1  0
 58 49  1  0
M  CHG  1   5  -1
M  END
>  <UniqueID>  (9) 
8

>  <SMILES>  (9) 
CCN1CCN(c2ccc([N-]C(=O)/C=C\c3ccc(C(=O)Nc4ccccc4N)cc3)cc2)CC1

>  <Energy>  (9) 
103.29790068955175

>  <Genealogy>  (9) 
CCN1CCN(c2ccc([N-]C(=O)C=Cc3ccc(C(=O)Nc4ccccc4N)cc3)cc2)CC1 (protonated)
CCN1CCN(c2ccc([N-]C(=O)/C=C\c3ccc(C(=O)Nc4ccccc4N)cc3)cc2)CC1 (cis-trans isomerization)
CCN1CCN(c2ccc([N-]C(=O)/C=C\c3ccc(C(=O)Nc4ccccc4N)cc3)cc2)CC1 (3D coordinates assigned)
CCN1CCN(c2ccc([N-]C(=O)/C=C\c3ccc(C(=O)Nc4ccccc4N)cc3)cc2)CC1 (nonaromatic ring conformer: 103.29790068955175 kcal/mol)

>  <smiles>  (9) 
CCN1CCN(c2ccc(NC(=O)C=Cc3ccc(C(=O)Nc4ccccc4N)cc3)cc2)CC1

>  <score_type>  (9) 
oracle

>  <origin>  (9) 
adg

>  <m_score__min__energy>  (9) 
-10.539999999999999

>  <m_primary>  (9) 
energy

$$$$
9:0
     RDKit          3D

 35 37  0  0  0  0  0  0  0  0999 V2000
   58.6700   27.9990   47.9790 C   0  0  0  0  0  0  0  0  0  0  0  0
   58.4050   28.9570   47.0660 C   0  0  0  0  0  0  0  0  0  0  0  0
   57.7940   28.6810   45.8060 C   0  0  0  0  0  0  0  0  0  0  0  0
   57.7040   27.4670   45.2160 C   0  0  0  0  0  0  0  0  0  0  0  0
   57.2170   26.2210   45.8380 C   0  0  0  0  0  0  0  0  0  0  0  0
   58.0200   25.2400   46.2810 N   0  0  0  0  0  0  0  0  0  0  0  0
   57.1880   24.3580   46.8700 C   0  0  0  0  0  0  0  0  0  0  0  0
   57.5880   23.2880   47.3980 O   0  0  0  0  0  0  0  0  0  0  0  0
   55.8910   24.7280   46.8560 N   0  0  0  0  0  0  0  0  0  0  0  0
   55.9240   25.9110   46.2130 C   0  0  0  0  0  0  0  0  0  0  0  0
   54.8020   26.7050   46.0070 O   0  0  0  0  0  0  0  0  0  0  0  0
   57.2680   29.7200   45.1090 N   0  0  0  0  0  0  0  0  0  0  0  0
   57.4000   31.0090   45.4950 C   0  0  0  0  0  0  0  0  0  0  0  0
   56.8800   31.9100   44.7840 O   0  0  0  0  0  0  0  0  0  0  0  0
   58.1090   31.3230   46.6230 N   0  0  0  0  0  0  0  0  0  0  0  0
   58.2820   32.7350   47.0260 C   0  0  0  0  0  0  0  0  0  0  0  0
   59.7220   33.0160   47.3700 C   0  0  0  0  0  0  0  0  0  0  0  0
   60.0800   33.4140   48.6700 C   0  0  0  0  0  0  0  0  0  0  0  0
   61.4130   33.7010   48.9790 C   0  0  0  0  0  0  0  0  0  0  0  0
   62.3990   33.5970   47.9940 C   0  0  0  0  0  0  0  0  0  0  0  0
   63.6910   33.8770   48.2960 F   0  0  0  0  0  0  0  0  0  0  0  0
   62.0520   33.2040   46.6980 C   0  0  0  0  0  0  0  0  0  0  0  0
   60.7200   32.9160   46.3860 C   0  0  0  0  0  0  0  0  0  0  0  0
   58.6070   30.3170   47.4110 C   0  0  0  0  0  0  0  0  0  0  0  0
   59.2320   30.6060   48.4720 O   0  0  0  0  0  0  0  0  0  0  0  0
   59.1427   28.2665   48.9355 H   0  0  0  0  0  0  0  0  0  0  0  0
   58.4132   26.9507   47.7666 H   0  0  0  0  0  0  0  0  0  0  0  0
   58.0265   27.4023   44.1663 H   0  0  0  0  0  0  0  0  0  0  0  0
   59.0580   25.1780   46.1930 H   0  0  0  0  0  0  0  0  0  0  0  0
   57.9746   33.3881   46.1959 H   0  0  0  0  0  0  0  0  0  0  0  0
   57.6612   32.9291   47.9131 H   0  0  0  0  0  0  0  0  0  0  0  0
   59.3073   33.5001   49.4481 H   0  0  0  0  0  0  0  0  0  0  0  0
   61.6861   34.0092   49.9990 H   0  0  0  0  0  0  0  0  0  0  0  0
   62.8280   33.1213   45.9228 H   0  0  0  0  0  0  0  0  0  0  0  0
   60.4517   32.6093   45.3642 H   0  0  0  0  0  0  0  0  0  0  0  0
  1  2  2  0
  2  3  1  0
  3  4  2  3
  4  5  1  0
  5  6  1  0
  6  7  1  0
  7  8  2  0
  7  9  1  0
  9 10  1  0
 10 11  1  0
  3 12  1  0
 12 13  1  0
 13 14  2  0
 13 15  1  0
 15 16  1  0
 16 17  1  0
 17 18  2  0
 18 19  1  0
 19 20  2  0
 20 21  1  0
 20 22  1  0
 22 23  2  0
 15 24  1  0
 24 25  2  0
 24  2  1  0
 10  5  2  0
 23 17  1  0
  1 26  1  0
  1 27  1  0
  4 28  1  0
  6 29  1  0
 16 30  1  0
 16 31  1  0
 18 32  1  0
 19 33  1  0
 22 34  1  0
 23 35  1  0
M  CHG  3   9  -1  11  -1  12  -1
M  END
>  <UniqueID>  (10) 
9

>  <SMILES>  (10) 
C=c1c(=Cc2[nH]c(=O)[n-]c2[O-])[n-]c(=O)n(Cc2ccc(F)cc2)c1=O

>  <Energy>  (10) 
94.6756833837613

>  <Genealogy>  (10) 
C=c1c(=Cc2[nH]c(=O)[n-]c2[O-])[n-]c(=O)n(Cc2ccc(F)cc2)c1=O (protonated)
C=c1c(=Cc2[nH]c(=O)[n-]c2[O-])[n-]c(=O)n(Cc2ccc(F)cc2)c1=O (3D coordinates assigned)
C=c1c(=Cc2[nH]c(=O)[n-]c2[O-])[n-]c(=O)n(Cc2ccc(F)cc2)c1=O (optimized conformer: 94.6756833837613 kcal/mol)

>  <smiles>  (10) 
C=c1c(=Cc2[nH]c(=O)[nH]c2O)[nH]c(=O)n(Cc2ccc(F)cc2)c1=O

>  <score_type>  (10) 
oracle

>  <origin>  (10) 
adg

>  <m_score__min__energy>  (10) 
-15.460000000000001

>  <m_primary>  (10) 
energy

$$$$
10:0
     RDKit          3D

 38 40  0  0  0  0  0  0  0  0999 V2000
   50.8440   32.5250   51.7220 N   0  0  0  0  0  0  0  0  0  0  0  0
   51.1430   31.5000   52.6660 C   0  0  0  0  0  0  0  0  0  0  0  0
   50.2130   30.9800   53.3390 O   0  0  0  0  0  0  0  0  0  0  0  0
   52.5300   31.0500   52.8530 C   0  0  0  0  0  0  0  0  0  0  0  0
   53.0380   30.3920   53.9570 C   0  0  0  0  0  0  0  0  0  0  0  0
   54.3450   30.1370   53.7710 N   0  0  0  0  0  0  0  0  0  0  0  0
   54.6760   30.6270   52.5600 C   0  0  0  0  0  0  0  0  0  0  0  0
   56.0270   30.5440   51.9860 C   0  0  0  0  0  0  0  0  0  0  0  0
   56.6580   31.5120   51.2310 C   0  0  0  0  0  0  0  0  0  0  0  0
   57.8920   30.9580   50.9370 C   0  0  0  0  0  0  0  0  0  0  0  0
   58.9840   31.5730   50.1430 C   0  0  0  0  0  0  0  0  0  0  0  0
   60.3100   31.5000   50.6020 C   0  0  0  0  0  0  0  0  0  0  0  0
   61.3490   32.0720   49.8630 C   0  0  0  0  0  0  0  0  0  0  0  0
   63.0000   31.9680   50.4490 Cl  0  0  0  0  0  0  0  0  0  0  0  0
   61.0780   32.7260   48.6590 C   0  0  0  0  0  0  0  0  0  0  0  0
   59.7570   32.8150   48.1860 C   0  0  0  0  0  0  0  0  0  0  0  0
   59.4280   33.4830   46.9600 N   0  0  0  0  0  0  0  0  0  0  0  0
   58.0860   33.1050   45.9270 S   0  0  0  0  0  0  0  0  0  0  0  0
   56.7980   33.4760   46.6070 O   0  0  0  0  0  0  0  0  0  0  0  0
   58.2120   33.9060   44.6620 O   0  0  0  0  0  0  0  0  0  0  0  0
   58.0870   31.3690   45.5120 C   0  0  0  0  0  0  0  0  0  0  0  0
   57.0530   31.0890   44.4710 C   0  0  0  0  0  0  0  0  0  0  0  0
   57.2290   31.4700   43.2840 O   0  0  0  0  0  0  0  0  0  0  0  0
   55.9140   30.3640   44.8000 O   0  0  0  0  0  0  0  0  0  0  0  0
   58.7210   32.2350   48.9290 C   0  0  0  0  0  0  0  0  0  0  0  0
   57.9720   29.7320   51.4950 N   0  0  0  0  0  0  0  0  0  0  0  0
   56.8390   29.4800   52.1320 N   0  0  0  0  0  0  0  0  0  0  0  0
   53.5710   31.2030   51.9570 C   0  0  0  0  0  0  0  0  0  0  0  0
   50.2730   32.3210   50.8710 H   0  0  0  0  0  0  0  0  0  0  0  0
   52.4605   30.1183   54.8523 H   0  0  0  0  0  0  0  0  0  0  0  0
   54.9790   29.6500   54.4440 H   0  0  0  0  0  0  0  0  0  0  0  0
   56.2697   32.4968   50.9319 H   0  0  0  0  0  0  0  0  0  0  0  0
   60.5319   30.9887   51.5503 H   0  0  0  0  0  0  0  0  0  0  0  0
   61.8997   33.1723   48.0797 H   0  0  0  0  0  0  0  0  0  0  0  0
   59.0778   31.0880   45.1254 H   0  0  0  0  0  0  0  0  0  0  0  0
   57.8571   30.7832   46.4142 H   0  0  0  0  0  0  0  0  0  0  0  0
   57.6872   32.2977   48.5585 H   0  0  0  0  0  0  0  0  0  0  0  0
   53.5300   31.6835   50.9683 H   0  0  0  0  0  0  0  0  0  0  0  0
  1  2  1  0
  2  3  2  0
  2  4  1  0
  4  5  2  0
  5  6  1  0
  6  7  1  0
  7  8  1  0
  8  9  1  0
  9 10  2  0
 10 11  1  0
 11 12  2  0
 12 13  1  0
 13 14  1  0
 13 15  2  0
 15 16  1  0
 16 17  1  0
 17 18  1  0
 18 19  2  0
 18 20  2  0
 18 21  1  0
 21 22  1  0
 22 23  2  0
 22 24  1  0
 16 25  2  0
 10 26  1  0
 26 27  1  0
  7 28  2  0
 28  4  1  0
 27  8  2  0
 25 11  1  0
  1 29  1  0
  5 30  1  0
  6 31  1  0
  9 32  1  0
 12 33  1  0
 15 34  1  0
 21 35  1  0
 21 36  1  0
 25 37  1  0
 28 38  1  0
M  CHG  4   1  -1  17  -1  24  -1  26  -1
M  END
>  <UniqueID>  (11) 
10

>  <SMILES>  (11) 
[NH-]C(=O)c1c[nH]c(-c2cc(-c3cc(Cl)cc([N-]S(=O)(=O)CC(=O)[O-])c3)[n-]n2)c1

>  <Energy>  (11) 
92.44875992393442

>  <Genealogy>  (11) 
[NH-]C(=O)c1c[nH]c(-c2cc(-c3cc(Cl)cc([N-]S(=O)(=O)CC(=O)[O-])c3)[n-]n2)c1 (protonated)
[NH-]C(=O)c1c[nH]c(-c2cc(-c3cc(Cl)cc([N-]S(=O)(=O)CC(=O)[O-])c3)[n-]n2)c1 (3D coordinates assigned)
[NH-]C(=O)c1c[nH]c(-c2cc(-c3cc(Cl)cc([N-]S(=O)(=O)CC(=O)[O-])c3)[n-]n2)c1 (optimized conformer: 92.44875992393442 kcal/mol)

>  <smiles>  (11) 
NC(=O)c1c[nH]c(-c2cc(-c3cc(Cl)cc(NS(=O)(=O)CC(=O)O)c3)[nH]n2)c1

>  <score_type>  (11) 
oracle

>  <origin>  (11) 
adg

>  <m_score__min__energy>  (11) 
-15.279999999999999

>  <m_primary>  (11) 
energy

$$$$
11:0
     RDKit          3D

 45 48  0  0  0  0  0  0  0  0999 V2000
   61.7040   29.8510   47.3880 H   0  0  0  0  0  0  0  0  0  0  0  0
   61.9570   30.8300   47.3520 O   0  0  0  0  0  0  0  0  0  0  0  0
   61.0260   31.8400   47.0940 C   0  0  0  0  0  0  0  0  0  0  0  0
   61.4500   33.1860   47.0560 C   0  0  0  0  0  0  0  0  0  0  0  0
   62.8590   33.5430   47.3300 C   0  0  0  0  0  0  0  0  0  0  0  0
   63.4550   34.3580   46.5770 O   0  0  0  0  0  0  0  0  0  0  0  0
   63.5540   32.9990   48.4540 N   0  0  0  0  0  0  0  0  0  0  0  0
   63.2600   32.2060   49.6630 C   0  0  0  0  0  0  0  0  0  0  0  0
   62.4731   32.6570   50.2854 H   0  0  0  0  0  0  0  0  0  0  0  0
   62.8718   31.1879   49.5118 H   0  0  0  0  0  0  0  0  0  0  0  0
   64.6170   32.3320   50.2700 C   0  0  0  0  0  0  0  0  0  0  0  0
   64.6635   32.8886   51.2176 H   0  0  0  0  0  0  0  0  0  0  0  0
   65.2243   31.4765   50.6008 H   0  0  0  0  0  0  0  0  0  0  0  0
   64.8990   33.1290   49.0400 C   0  0  0  0  0  0  0  0  0  0  0  0
   65.1654   34.1727   49.2628 H   0  0  0  0  0  0  0  0  0  0  0  0
   65.7479   32.8066   48.4192 H   0  0  0  0  0  0  0  0  0  0  0  0
   60.5140   34.1940   46.7730 C   0  0  0  0  0  0  0  0  0  0  0  0
   60.8349   35.2459   46.7531 H   0  0  0  0  0  0  0  0  0  0  0  0
   59.1810   33.8730   46.5170 C   0  0  0  0  0  0  0  0  0  0  0  0
   58.4591   34.6706   46.2876 H   0  0  0  0  0  0  0  0  0  0  0  0
   58.7610   32.5440   46.5510 C   0  0  0  0  0  0  0  0  0  0  0  0
   57.7092   32.2962   46.3453 H   0  0  0  0  0  0  0  0  0  0  0  0
   59.6730   31.5240   46.8460 C   0  0  0  0  0  0  0  0  0  0  0  0
   59.2120   30.1640   46.8980 N   0  0  0  0  0  0  0  0  0  0  0  0
   59.2490   29.3610   47.9820 C   0  0  0  0  0  0  0  0  0  0  0  0
   59.8390   29.7430   49.3060 C   0  0  0  0  0  0  0  0  0  0  0  0
   59.2144   29.3386   50.1161 H   0  0  0  0  0  0  0  0  0  0  0  0
   60.8559   29.3314   49.3867 H   0  0  0  0  0  0  0  0  0  0  0  0
   59.8797   30.8393   49.3867 H   0  0  0  0  0  0  0  0  0  0  0  0
   58.7340   28.1170   47.6770 C   0  0  0  0  0  0  0  0  0  0  0  0
   58.6529   27.2549   48.3554 H   0  0  0  0  0  0  0  0  0  0  0  0
   58.3380   28.1660   46.3460 C   0  0  0  0  0  0  0  0  0  0  0  0
   57.8130   27.1540   45.6290 C   0  0  0  0  0  0  0  0  0  0  0  0
   57.8949   27.2000   44.5330 H   0  0  0  0  0  0  0  0  0  0  0  0
   57.1350   25.9880   46.2250 C   0  0  0  0  0  0  0  0  0  0  0  0
   57.7850   24.8740   46.6080 N   0  0  0  0  0  0  0  0  0  0  0  0
   56.7900   24.0520   47.0050 C   0  0  0  0  0  0  0  0  0  0  0  0
   57.0060   22.8950   47.4520 O   0  0  0  0  0  0  0  0  0  0  0  0
   55.5470   24.5620   46.8770 N   0  0  0  0  0  0  0  0  0  0  0  0
   55.7810   25.7830   46.3700 C   0  0  0  0  0  0  0  0  0  0  0  0
   54.7740   26.6680   46.0050 O   0  0  0  0  0  0  0  0  0  0  0  0
   58.6550   29.4510   45.8900 C   0  0  0  0  0  0  0  0  0  0  0  0
   58.4570   29.9330   44.6530 C   0  0  0  0  0  0  0  0  0  0  0  0
   58.7490   30.9657   44.4119 H   0  0  0  0  0  0  0  0  0  0  0  0
   58.0027   29.2953   43.8804 H   0  0  0  0  0  0  0  0  0  0  0  0
  1  2  1  0
  2  3  1  0
  3  4  2  0
  4  5  1  0
  5  6  2  0
  5  7  1  0
  7  8  1  0
  8  9  1  0
  8 10  1  0
  8 11  1  0
 11 12  1  0
 11 13  1  0
 11 14  1  0
 14 15  1  0
 14 16  1  0
  4 17  1  0
 17 18  1  0
 17 19  2  0
 19 20  1  0
 19 21  1  0
 21 22  1  0
 21 23  2  0
 23 24  1  0
 24 25  1  0
 25 26  1  0
 26 27  1  0
 26 28  1  0
 26 29  1  0
 25 30  2  0
 30 31  1  0
 30 32  1  0
 32 33  2  0
 33 34  1  0
 33 35  1  0
 35 36  1  0
 36 37  1  0
 37 38  2  0
 37 39  1  0
 39 40  1  0
 40 41  1  0
 32 42  1  0
 42 43  2  0
 43 44  1  0
 43 45  1  0
 23  3  1  0
 42 24  1  0
 14  7  1  0
 40 35  2  0
M  CHG  3  36  -1  39  -1  41  -1
M  END
>  <UniqueID>  (12) 
11

>  <SMILES>  (12) 
C=c1/c(=C/c2[n-]c(=O)[n-]c2[O-])cc(C)n1-c1cccc(C(=O)N2CCC2)c1O

>  <Energy>  (12) 
166.9505919486722

>  <Genealogy>  (12) 
C=c1c(=Cc2[n-]c(=O)[n-]c2[O-])cc(C)n1-c1cccc(C(=O)N2CCC2)c1O (protonated)
C=c1/c(=C/c2[n-]c(=O)[n-]c2[O-])cc(C)n1-c1cccc(C(=O)N2CCC2)c1O (cis-trans isomerization)
C=c1/c(=C/c2[n-]c(=O)[n-]c2[O-])cc(C)n1-c1cccc(C(=O)N2CCC2)c1O (3D coordinates assigned)
C=c1/c(=C/c2[n-]c(=O)[n-]c2[O-])cc(C)n1-c1cccc(C(=O)N2CCC2)c1O (nonaromatic ring conformer: 166.9505919486722 kcal/mol)

>  <smiles>  (12) 
C=c1c(=Cc2[nH]c(=O)[nH]c2O)cc(C)n1-c1cccc(C(=O)N2CCC2)c1O

>  <score_type>  (12) 
oracle

>  <origin>  (12) 
adg

>  <m_score__min__energy>  (12) 
-15.98

>  <m_primary>  (12) 
energy

$$$$
12:0
     RDKit          3D

 34 36  0  0  0  0  0  0  0  0999 V2000
   53.0097   29.1560   54.2568 H   0  0  0  0  0  0  0  0  0  0  0  0
   53.9750   29.1800   53.7300 C   0  0  0  0  0  0  0  0  0  0  0  0
   55.4210   28.5290   54.2920 S   0  0  0  0  0  0  0  0  0  0  0  0
   56.2880   29.0050   52.9260 C   0  0  0  0  0  0  0  0  0  0  0  0
   57.5520   28.7990   52.6980 N   0  0  0  0  0  0  0  0  0  0  0  0
   58.6530   29.0250   53.5940 C   0  0  0  0  0  0  0  0  0  0  0  0
   59.2770   30.1200   53.6070 O   0  0  0  0  0  0  0  0  0  0  0  0
   59.0350   27.9510   54.5620 C   0  0  0  0  0  0  0  0  0  0  0  0
   60.0594   28.1310   54.9199 H   0  0  0  0  0  0  0  0  0  0  0  0
   58.3350   27.9646   55.4104 H   0  0  0  0  0  0  0  0  0  0  0  0
   58.9710   26.6050   53.8910 C   0  0  0  0  0  0  0  0  0  0  0  0
   57.8600   25.7700   54.1050 C   0  0  0  0  0  0  0  0  0  0  0  0
   57.0318   26.1142   54.7419 H   0  0  0  0  0  0  0  0  0  0  0  0
   57.8020   24.5050   53.5130 C   0  0  0  0  0  0  0  0  0  0  0  0
   56.9257   23.8608   53.6779 H   0  0  0  0  0  0  0  0  0  0  0  0
   58.8560   24.0580   52.7120 C   0  0  0  0  0  0  0  0  0  0  0  0
   58.8067   23.0641   52.2433 H   0  0  0  0  0  0  0  0  0  0  0  0
   59.9720   24.8720   52.5060 C   0  0  0  0  0  0  0  0  0  0  0  0
   60.8027   24.5151   51.8794 H   0  0  0  0  0  0  0  0  0  0  0  0
   60.0370   26.1400   53.0940 C   0  0  0  0  0  0  0  0  0  0  0  0
   61.1630   26.9290   52.8850 O   0  0  0  0  0  0  0  0  0  0  0  0
   55.5010   29.6540   52.0450 N   0  0  0  0  0  0  0  0  0  0  0  0
   54.2110   29.7570   52.4780 C   0  0  0  0  0  0  0  0  0  0  0  0
   53.1760   30.4440   51.6610 C   0  0  0  0  0  0  0  0  0  0  0  0
   52.7650   29.8840   50.4360 C   0  0  0  0  0  0  0  0  0  0  0  0
   53.2142   28.9413   50.0903 H   0  0  0  0  0  0  0  0  0  0  0  0
   51.7920   30.5140   49.6550 C   0  0  0  0  0  0  0  0  0  0  0  0
   51.4823   30.0670   48.6988 H   0  0  0  0  0  0  0  0  0  0  0  0
   51.2120   31.7090   50.0850 C   0  0  0  0  0  0  0  0  0  0  0  0
   50.2460   32.3300   49.3030 O   0  0  0  0  0  0  0  0  0  0  0  0
   51.6040   32.2760   51.3020 C   0  0  0  0  0  0  0  0  0  0  0  0
   51.0240   33.4610   51.7390 O   0  0  0  0  0  0  0  0  0  0  0  0
   52.5790   31.6480   52.0870 C   0  0  0  0  0  0  0  0  0  0  0  0
   52.8816   32.0980   53.0441 H   0  0  0  0  0  0  0  0  0  0  0  0
  1  2  1  0
  2  3  1  0
  3  4  1  0
  4  5  2  0
  5  6  1  0
  6  7  2  0
  6  8  1  0
  8  9  1  0
  8 10  1  0
  8 11  1  0
 11 12  2  0
 12 13  1  0
 12 14  1  0
 14 15  1  0
 14 16  2  0
 16 17  1  0
 16 18  1  0
 18 19  1  0
 18 20  2  0
 20 21  1  0
  4 22  1  0
 22 23  1  0
 23 24  1  0
 24 25  2  0
 25 26  1  0
 25 27  1  0
 27 28  1  0
 27 29  2  0
 29 30  1  0
 29 31  1  0
 31 32  1  0
 31 33  2  0
 33 34  1  0
 23  2  2  0
 33 24  1  0
 20 11  1  0
M  CHG  4  21  -1  22  -1  30  -1  32  -1
M  END
>  <UniqueID>  (13) 
12

>  <SMILES>  (13) 
O=C(Cc1ccccc1[O-])/N=c1/[n-]c(-c2ccc([O-])c([O-])c2)cs1

>  <Energy>  (13) 
71.7834429869425

>  <Genealogy>  (13) 
O=C(Cc1ccccc1[O-])N=c1[n-]c(-c2ccc([O-])c([O-])c2)cs1 (protonated)
O=C(Cc1ccccc1[O-])/N=c1/[n-]c(-c2ccc([O-])c([O-])c2)cs1 (cis-trans isomerization)
O=C(Cc1ccccc1[O-])/N=c1/[n-]c(-c2ccc([O-])c([O-])c2)cs1 (3D coordinates assigned)
O=C(Cc1ccccc1[O-])/N=c1/[n-]c(-c2ccc([O-])c([O-])c2)cs1 (optimized conformer: 71.7834429869425 kcal/mol)

>  <smiles>  (13) 
O=C(Cc1ccccc1O)N=c1[nH]c(-c2ccc(O)c(O)c2)cs1

>  <score_type>  (13) 
oracle

>  <origin>  (13) 
adg

>  <m_score__min__energy>  (13) 
-16.73

>  <m_primary>  (13) 
energy

$$$$
13:0
     RDKit          3D

 28 30  0  0  0  0  0  0  0  0999 V2000
   58.6850   33.1240   49.0320 H   0  0  0  0  0  0  0  0  0  0  0  0
   58.7000   32.2730   48.4270 N   0  0  0  0  0  0  0  0  0  0  0  0
   58.3880   32.3300   47.1740 C   0  0  0  0  0  0  0  0  0  0  0  0
   58.3970   31.1910   46.4120 N   0  0  0  0  0  0  0  0  0  0  0  0
   58.0630   31.3100   45.1060 C   0  0  0  0  0  0  0  0  0  0  0  0
   57.7280   32.4960   44.5530 C   0  0  0  0  0  0  0  0  0  0  0  0
   57.4430   32.2220   43.2310 C   0  0  0  0  0  0  0  0  0  0  0  0
   57.1326   32.9546   42.4714 H   0  0  0  0  0  0  0  0  0  0  0  0
   57.6130   30.8890   43.0320 N   0  0  0  0  0  0  0  0  0  0  0  0
   57.9970   30.3390   44.1810 N   0  0  0  0  0  0  0  0  0  0  0  0
   58.2380   28.9120   44.3770 C   0  0  0  0  0  0  0  0  0  0  0  0
   58.3541   28.4260   43.3970 H   0  0  0  0  0  0  0  0  0  0  0  0
   59.1532   28.7832   44.9734 H   0  0  0  0  0  0  0  0  0  0  0  0
   57.0860   28.2820   45.1090 C   0  0  0  0  0  0  0  0  0  0  0  0
   56.0070   28.9300   45.1990 O   0  0  0  0  0  0  0  0  0  0  0  0
   57.1930   26.9660   45.7860 C   0  0  0  0  0  0  0  0  0  0  0  0
   56.0630   26.2240   46.1980 C   0  0  0  0  0  0  0  0  0  0  0  0
   54.7770   26.7150   46.0230 O   0  0  0  0  0  0  0  0  0  0  0  0
   56.2260   25.0180   46.8070 N   0  0  0  0  0  0  0  0  0  0  0  0
   57.4540   24.4920   47.0490 C   0  0  0  0  0  0  0  0  0  0  0  0
   57.5540   23.3690   47.6110 O   0  0  0  0  0  0  0  0  0  0  0  0
   58.6000   25.1960   46.6800 C   0  0  0  0  0  0  0  0  0  0  0  0
   59.5977   24.7784   46.8802 H   0  0  0  0  0  0  0  0  0  0  0  0
   58.4670   26.4360   46.0540 C   0  0  0  0  0  0  0  0  0  0  0  0
   59.3654   27.0027   45.7683 H   0  0  0  0  0  0  0  0  0  0  0  0
   57.7230   33.6370   45.3400 C   0  0  0  0  0  0  0  0  0  0  0  0
   57.4160   34.7600   44.8610 O   0  0  0  0  0  0  0  0  0  0  0  0
   58.0570   33.5120   46.6280 O   0  0  0  0  0  0  0  0  0  0  0  0
  1  2  1  0
  2  3  2  0
  3  4  1  0
  4  5  1  0
  5  6  2  0
  6  7  1  0
  7  8  1  0
  7  9  2  0
  9 10  1  0
 10 11  1  0
 11 12  1  0
 11 13  1  0
 11 14  1  0
 14 15  2  0
 14 16  1  0
 16 17  2  0
 17 18  1  0
 17 19  1  0
 19 20  1  0
 20 21  2  0
 20 22  1  0
 22 23  1  0
 22 24  2  0
 24 25  1  0
  6 26  1  0
 26 27  2  0
 26 28  1  0
 28  3  1  0
 10  5  1  0
 24 16  1  0
M  CHG  3   4  -1  18  -1  19  -1
M  END
>  <UniqueID>  (14) 
13

>  <SMILES>  (14) 
[H]/N=c1\[n-]c2c(cnn2CC(=O)c2ccc(=O)[n-]c2[O-])c(=O)o1

>  <Energy>  (14) 
79.50830315399811

>  <Genealogy>  (14) 
N=c1[n-]c2c(cnn2CC(=O)c2ccc(=O)[n-]c2[O-])c(=O)o1 (protonated)
[H]/N=c1\[n-]c2c(cnn2CC(=O)c2ccc(=O)[n-]c2[O-])c(=O)o1 (cis-trans isomerization)
[H]/N=c1\[n-]c2c(cnn2CC(=O)c2ccc(=O)[n-]c2[O-])c(=O)o1 (3D coordinates assigned)
[H]/N=c1\[n-]c2c(cnn2CC(=O)c2ccc(=O)[n-]c2[O-])c(=O)o1 (optimized conformer: 79.50830315399811 kcal/mol)

>  <smiles>  (14) 
N=c1[nH]c2c(cnn2CC(=O)c2ccc(=O)[nH]c2O)c(=O)o1

>  <score_type>  (14) 
oracle

>  <origin>  (14) 
adg

>  <m_score__min__energy>  (14) 
-14.199999999999999

>  <m_primary>  (14) 
energy

$$$$
14:0
     RDKit          3D

 53 55  0  0  0  0  0  0  0  0999 V2000
   64.3000   32.0440   50.5530 C   0  0  0  0  0  0  0  0  0  0  0  0
   63.5100   32.6350   49.4270 C   0  0  0  0  0  0  0  0  0  0  0  0
   64.0410   32.9230   48.2250 N   0  0  0  0  0  0  0  0  0  0  0  0
   63.0550   33.4340   47.4660 C   0  0  0  0  0  0  0  0  0  0  0  0
   63.2540   33.8610   46.0450 C   0  0  0  0  0  0  0  0  0  0  0  0
   61.8660   33.4630   48.1800 C   0  0  0  0  0  0  0  0  0  0  0  0
   60.2850   33.9730   47.5680 S   0  0  0  0  0  0  0  0  0  0  0  0
   59.6920   34.9650   48.5290 O   0  0  0  0  0  0  0  0  0  0  0  0
   60.4290   34.6270   46.2220 O   0  0  0  0  0  0  0  0  0  0  0  0
   59.2120   32.6150   47.4140 N   0  0  0  0  0  0  0  0  0  0  0  0
   57.9530   33.0290   46.7950 C   0  0  0  0  0  0  0  0  0  0  0  0
   57.8720   32.4510   45.4100 C   0  0  0  0  0  0  0  0  0  0  0  0
   57.4210   31.1340   45.2220 C   0  0  0  0  0  0  0  0  0  0  0  0
   57.2850   30.6140   43.9320 C   0  0  0  0  0  0  0  0  0  0  0  0
   57.5930   31.4060   42.8210 C   0  0  0  0  0  0  0  0  0  0  0  0
   58.0310   32.7210   43.0000 C   0  0  0  0  0  0  0  0  0  0  0  0
   58.1650   33.2460   44.2900 C   0  0  0  0  0  0  0  0  0  0  0  0
   62.1560   32.9580   49.4460 C   0  0  0  0  0  0  0  0  0  0  0  0
   61.2290   32.7870   50.5830 C   0  0  0  0  0  0  0  0  0  0  0  0
   61.6800   32.7120   51.7580 O   0  0  0  0  0  0  0  0  0  0  0  0
   59.8510   32.7060   50.3550 O   0  0  0  0  0  0  0  0  0  0  0  0
   58.9470   32.0230   51.2210 C   0  0  0  0  0  0  0  0  0  0  0  0
   58.3190   30.8460   50.5250 C   0  0  0  0  0  0  0  0  0  0  0  0
   57.5640   30.0730   51.1740 O   0  0  0  0  0  0  0  0  0  0  0  0
   58.5310   30.5910   49.1300 N   0  0  0  0  0  0  0  0  0  0  0  0
   59.1690   29.4400   48.5600 C   0  0  0  0  0  0  0  0  0  0  0  0
   60.0250   28.6190   49.3150 C   0  0  0  0  0  0  0  0  0  0  0  0
   60.6110   27.4900   48.7330 C   0  0  0  0  0  0  0  0  0  0  0  0
   60.3330   27.1630   47.4030 C   0  0  0  0  0  0  0  0  0  0  0  0
   60.9020   26.0680   46.8400 F   0  0  0  0  0  0  0  0  0  0  0  0
   59.4580   27.9580   46.6570 C   0  0  0  0  0  0  0  0  0  0  0  0
   58.8710   29.0870   47.2360 C   0  0  0  0  0  0  0  0  0  0  0  0
   63.8689   32.3665   51.5122 H   0  0  0  0  0  0  0  0  0  0  0  0
   64.2678   30.9465   50.4871 H   0  0  0  0  0  0  0  0  0  0  0  0
   65.3438   32.3848   50.4871 H   0  0  0  0  0  0  0  0  0  0  0  0
   65.0350   32.7760   47.9350 H   0  0  0  0  0  0  0  0  0  0  0  0
   63.7186   34.8578   46.0233 H   0  0  0  0  0  0  0  0  0  0  0  0
   63.9089   33.1401   45.5338 H   0  0  0  0  0  0  0  0  0  0  0  0
   62.2807   33.8988   45.5338 H   0  0  0  0  0  0  0  0  0  0  0  0
   59.0050   32.2760   48.3830 H   0  0  0  0  0  0  0  0  0  0  0  0
   57.1086   32.6623   47.3970 H   0  0  0  0  0  0  0  0  0  0  0  0
   57.9101   34.1268   46.7413 H   0  0  0  0  0  0  0  0  0  0  0  0
   57.1740   30.5097   46.0933 H   0  0  0  0  0  0  0  0  0  0  0  0
   56.9354   29.5807   43.7902 H   0  0  0  0  0  0  0  0  0  0  0  0
   57.4905   30.9938   41.8063 H   0  0  0  0  0  0  0  0  0  0  0  0
   58.2707   33.3440   42.1257 H   0  0  0  0  0  0  0  0  0  0  0  0
   58.5008   34.2844   44.4273 H   0  0  0  0  0  0  0  0  0  0  0  0
   59.4957   31.6671   52.1055 H   0  0  0  0  0  0  0  0  0  0  0  0
   58.1502   32.7212   51.5170 H   0  0  0  0  0  0  0  0  0  0  0  0
   60.2345   28.8652   50.3664 H   0  0  0  0  0  0  0  0  0  0  0  0
   61.2916   26.8586   49.3230 H   0  0  0  0  0  0  0  0  0  0  0  0
   59.2311   27.6950   45.6133 H   0  0  0  0  0  0  0  0  0  0  0  0
   58.1718   29.7016   46.6500 H   0  0  0  0  0  0  0  0  0  0  0  0
  1  2  1  0
  2  3  1  0
  3  4  1  0
  4  5  1  0
  4  6  2  0
  6  7  1  0
  7  8  2  0
  7  9  2  0
  7 10  1  0
 10 11  1  0
 11 12  1  0
 12 13  2  0
 13 14  1  0
 14 15  2  0
 15 16  1  0
 16 17  2  0
  6 18  1  0
 18 19  1  0
 19 20  2  0
 19 21  1  0
 21 22  1  0
 22 23  1  0
 23 24  2  0
 23 25  1  0
 25 26  1  0
 26 27  2  0
 27 28  1  0
 28 29  2  0
 29 30  1  0
 29 31  1  0
 31 32  2  0
 18  2  2  0
 32 26  1  0
 17 12  1  0
  1 33  1  0
  1 34  1  0
  1 35  1  0
  3 36  1  0
  5 37  1  0
  5 38  1  0
  5 39  1  0
 10 40  1  0
 11 41  1  0
 11 42  1  0
 13 43  1  0
 14 44  1  0
 15 45  1  0
 16 46  1  0
 17 47  1  0
 22 48  1  0
 22 49  1  0
 27 50  1  0
 28 51  1  0
 31 52  1  0
 32 53  1  0
M  CHG  1  25  -1
M  END
>  <UniqueID>  (15) 
14

>  <SMILES>  (15) 
Cc1[nH]c(C)c(S(=O)(=O)NCc2ccccc2)c1C(=O)OCC(=O)[N-]c1ccc(F)cc1

>  <Energy>  (15) 
79.66836563010945

>  <Genealogy>  (15) 
Cc1[nH]c(C)c(S(=O)(=O)NCc2ccccc2)c1C(=O)OCC(=O)[N-]c1ccc(F)cc1 (protonated)
Cc1[nH]c(C)c(S(=O)(=O)NCc2ccccc2)c1C(=O)OCC(=O)[N-]c1ccc(F)cc1 (3D coordinates assigned)
Cc1[nH]c(C)c(S(=O)(=O)NCc2ccccc2)c1C(=O)OCC(=O)[N-]c1ccc(F)cc1 (optimized conformer: 79.66836563010945 kcal/mol)

>  <smiles>  (15) 
Cc1[nH]c(C)c(S(=O)(=O)NCc2ccccc2)c1C(=O)OCC(=O)Nc1ccc(F)cc1

>  <score_type>  (15) 
oracle

>  <origin>  (15) 
adg

>  <m_score__min__energy>  (15) 
-9.8300000000000001

>  <m_primary>  (15) 
energy

$$$$
15:0
     RDKit          3D

 61 64  0  0  0  0  0  0  0  0999 V2000
   60.9220   27.3210   49.1670 O   0  0  0  0  0  0  0  0  0  0  0  0
   60.1930   27.9740   48.3730 C   0  0  0  0  0  0  0  0  0  0  0  0
   59.3810   27.2380   47.3460 C   0  0  0  0  0  0  0  0  0  0  0  0
   58.8170   28.1940   46.3770 N   0  0  0  0  0  0  0  0  0  0  0  0
   57.7090   27.6010   45.5950 C   0  0  0  0  0  0  0  0  0  0  0  0
   57.0230   28.6660   44.7050 C   0  0  0  0  0  0  0  0  0  0  0  0
   57.7440   30.0230   44.7890 C   0  0  0  0  0  0  0  0  0  0  0  0
   57.1440   31.0270   43.8310 C   0  0  0  0  0  0  0  0  0  0  0  0
   56.2870   30.6430   42.9920 O   0  0  0  0  0  0  0  0  0  0  0  0
   57.4380   32.4310   43.9200 N   0  0  0  0  0  0  0  0  0  0  0  0
   58.0320   33.1000   45.0400 C   0  0  0  0  0  0  0  0  0  0  0  0
   59.0040   34.0990   44.8640 C   0  0  0  0  0  0  0  0  0  0  0  0
   59.6070   34.6980   45.9730 C   0  0  0  0  0  0  0  0  0  0  0  0
   59.2110   34.3390   47.2750 C   0  0  0  0  0  0  0  0  0  0  0  0
   59.8210   34.8780   48.4180 O   0  0  0  0  0  0  0  0  0  0  0  0
   60.1690   34.1630   49.5730 C   0  0  0  0  0  0  0  0  0  0  0  0
   59.2450   33.3480   50.2530 C   0  0  0  0  0  0  0  0  0  0  0  0
   59.6380   32.6370   51.3910 C   0  0  0  0  0  0  0  0  0  0  0  0
   60.9550   32.7240   51.8510 C   0  0  0  0  0  0  0  0  0  0  0  0
   61.8830   33.5150   51.1670 C   0  0  0  0  0  0  0  0  0  0  0  0
   61.4920   34.2260   50.0280 C   0  0  0  0  0  0  0  0  0  0  0  0
   58.2110   33.3740   47.4430 C   0  0  0  0  0  0  0  0  0  0  0  0
   57.6140   32.7690   46.3330 C   0  0  0  0  0  0  0  0  0  0  0  0
   59.2520   29.8290   44.5430 C   0  0  0  0  0  0  0  0  0  0  0  0
   59.8480   28.7460   45.4760 C   0  0  0  0  0  0  0  0  0  0  0  0
   60.1770   29.4110   48.4110 N   0  0  0  0  0  0  0  0  0  0  0  0
   60.9770   30.1990   49.3460 C   0  0  0  0  0  0  0  0  0  0  0  0
   61.8230   31.1770   48.5830 C   0  0  0  0  0  0  0  0  0  0  0  0
   63.1030   31.5200   49.0490 C   0  0  0  0  0  0  0  0  0  0  0  0
   63.8740   32.4620   48.3600 C   0  0  0  0  0  0  0  0  0  0  0  0
   63.3680   33.0750   47.2100 C   0  0  0  0  0  0  0  0  0  0  0  0
   62.0880   32.7510   46.7500 C   0  0  0  0  0  0  0  0  0  0  0  0
   61.3130   31.8110   47.4370 C   0  0  0  0  0  0  0  0  0  0  0  0
   60.0250   26.5195   46.8177 H   0  0  0  0  0  0  0  0  0  0  0  0
   58.5612   26.7023   47.8469 H   0  0  0  0  0  0  0  0  0  0  0  0
   58.1091   26.8012   44.9545 H   0  0  0  0  0  0  0  0  0  0  0  0
   56.9630   27.1981   46.2959 H   0  0  0  0  0  0  0  0  0  0  0  0
   57.0340   28.3198   43.6610 H   0  0  0  0  0  0  0  0  0  0  0  0
   55.9916   28.8013   45.0627 H   0  0  0  0  0  0  0  0  0  0  0  0
   57.6083   30.4330   45.8007 H   0  0  0  0  0  0  0  0  0  0  0  0
   59.2915   34.4109   43.8491 H   0  0  0  0  0  0  0  0  0  0  0  0
   60.3939   35.4528   45.8280 H   0  0  0  0  0  0  0  0  0  0  0  0
   58.2102   33.2701   49.8881 H   0  0  0  0  0  0  0  0  0  0  0  0
   58.9100   32.0085   51.9248 H   0  0  0  0  0  0  0  0  0  0  0  0
   61.2612   32.1703   52.7508 H   0  0  0  0  0  0  0  0  0  0  0  0
   62.9212   33.5781   51.5249 H   0  0  0  0  0  0  0  0  0  0  0  0
   62.2279   34.8383   49.4863 H   0  0  0  0  0  0  0  0  0  0  0  0
   57.8923   33.0894   48.4566 H   0  0  0  0  0  0  0  0  0  0  0  0
   56.8123   32.0297   46.4771 H   0  0  0  0  0  0  0  0  0  0  0  0
   59.4066   29.5237   43.4976 H   0  0  0  0  0  0  0  0  0  0  0  0
   59.7600   30.7816   44.7538 H   0  0  0  0  0  0  0  0  0  0  0  0
   60.2622   27.9321   44.8628 H   0  0  0  0  0  0  0  0  0  0  0  0
   60.6359   29.2082   46.0888 H   0  0  0  0  0  0  0  0  0  0  0  0
   59.6220   29.9310   47.6950 H   0  0  0  0  0  0  0  0  0  0  0  0
   60.3098   30.7461   50.0283 H   0  0  0  0  0  0  0  0  0  0  0  0
   61.6271   29.5282   49.9269 H   0  0  0  0  0  0  0  0  0  0  0  0
   63.5003   31.0462   49.9588 H   0  0  0  0  0  0  0  0  0  0  0  0
   64.8795   32.7207   48.7234 H   0  0  0  0  0  0  0  0  0  0  0  0
   63.9771   33.8125   46.6668 H   0  0  0  0  0  0  0  0  0  0  0  0
   61.6900   33.2361   45.8465 H   0  0  0  0  0  0  0  0  0  0  0  0
   60.3017   31.5673   47.0795 H   0  0  0  0  0  0  0  0  0  0  0  0
  1  2  2  0
  2  3  1  0
  3  4  1  0
  4  5  1  0
  5  6  1  0
  6  7  1  0
  7  8  1  0
  8  9  2  0
  8 10  1  0
 10 11  1  0
 11 12  2  0
 12 13  1  0
 13 14  2  0
 14 15  1  0
 15 16  1  0
 16 17  2  0
 17 18  1  0
 18 19  2  0
 19 20  1  0
 20 21  2  0
 14 22  1  0
 22 23  2  0
  7 24  1  0
 24 25  1  0
  2 26  1  0
 26 27  1  0
 27 28  1  0
 28 29  2  0
 29 30  1  0
 30 31  2  0
 31 32  1  0
 32 33  2  0
 25  4  1  0
 33 28  1  0
 23 11  1  0
 21 16  1  0
  3 34  1  0
  3 35  1  0
  5 36  1  0
  5 37  1  0
  6 38  1  0
  6 39  1  0
  7 40  1  0
 12 41  1  0
 13 42  1  0
 17 43  1  0
 18 44  1  0
 19 45  1  0
 20 46  1  0
 21 47  1  0
 22 48  1  0
 23 49  1  0
 24 50  1  0
 24 51  1  0
 25 52  1  0
 25 53  1  0
 26 54  1  0
 27 55  1  0
 27 56  1  0
 29 57  1  0
 30 58  1  0
 31 59  1  0
 32 60  1  0
 33 61  1  0
M  CHG  1  10  -1
M  END
>  <UniqueID>  (16) 
15

>  <SMILES>  (16) 
O=C(CN1CCC(C(=O)[N-]c2ccc(Oc3ccccc3)cc2)CC1)NCc1ccccc1

>  <Energy>  (16) 
77.81174833530173

>  <Genealogy>  (16) 
O=C(CN1CCC(C(=O)[N-]c2ccc(Oc3ccccc3)cc2)CC1)NCc1ccccc1 (protonated)
O=C(CN1CCC(C(=O)[N-]c2ccc(Oc3ccccc3)cc2)CC1)NCc1ccccc1 (3D coordinates assigned)
O=C(CN1CCC(C(=O)[N-]c2ccc(Oc3ccccc3)cc2)CC1)NCc1ccccc1 (nonaromatic ring conformer: 77.81174833530173 kcal/mol)

>  <smiles>  (16) 
O=C(CN1CCC(C(=O)Nc2ccc(Oc3ccccc3)cc2)CC1)NCc1ccccc1

>  <score_type>  (16) 
oracle

>  <origin>  (16) 
adg

>  <m_score__min__energy>  (16) 
-10.73

>  <m_primary>  (16) 
energy

$$$$
16:0
     RDKit          3D

 34 36  0  0  0  0  0  0  0  0999 V2000
   56.7900   34.5880   44.5430 O   0  0  0  0  0  0  0  0  0  0  0  0
   57.4180   33.8790   45.3720 C   0  0  0  0  0  0  0  0  0  0  0  0
   58.0200   34.4020   46.5490 N   0  0  0  0  0  0  0  0  0  0  0  0
   58.5320   33.3530   47.1020 C   0  0  0  0  0  0  0  0  0  0  0  0
   59.3670   33.4120   48.3460 C   0  0  0  0  0  0  0  0  0  0  0  0
   60.8280   33.3580   47.9920 C   0  0  0  0  0  0  0  0  0  0  0  0
   61.7580   32.8570   48.9190 C   0  0  0  0  0  0  0  0  0  0  0  0
   63.1220   32.8370   48.6070 C   0  0  0  0  0  0  0  0  0  0  0  0
   63.5660   33.3210   47.3730 C   0  0  0  0  0  0  0  0  0  0  0  0
   62.6480   33.8270   46.4490 C   0  0  0  0  0  0  0  0  0  0  0  0
   61.2840   33.8500   46.7560 C   0  0  0  0  0  0  0  0  0  0  0  0
   58.2870   32.1710   46.2710 C   0  0  0  0  0  0  0  0  0  0  0  0
   58.6920   30.8310   46.5880 N   0  0  0  0  0  0  0  0  0  0  0  0
   58.6640   29.7560   45.6340 C   0  0  0  0  0  0  0  0  0  0  0  0
   59.8310   29.0130   45.3750 C   0  0  0  0  0  0  0  0  0  0  0  0
   59.8000   27.9330   44.4920 C   0  0  0  0  0  0  0  0  0  0  0  0
   58.6070   27.5750   43.8640 C   0  0  0  0  0  0  0  0  0  0  0  0
   57.4400   28.2980   44.1170 C   0  0  0  0  0  0  0  0  0  0  0  0
   57.4570   29.3900   44.9950 C   0  0  0  0  0  0  0  0  0  0  0  0
   56.2720   30.0990   45.1950 O   0  0  0  0  0  0  0  0  0  0  0  0
   57.5990   32.4770   45.2200 N   0  0  0  0  0  0  0  0  0  0  0  0
   59.1568   34.3499   48.8809 H   0  0  0  0  0  0  0  0  0  0  0  0
   59.1200   32.5522   48.9861 H   0  0  0  0  0  0  0  0  0  0  0  0
   61.4126   32.4794   49.8927 H   0  0  0  0  0  0  0  0  0  0  0  0
   63.8459   32.4399   49.3338 H   0  0  0  0  0  0  0  0  0  0  0  0
   64.6385   33.3035   47.1293 H   0  0  0  0  0  0  0  0  0  0  0  0
   62.9989   34.2079   45.4785 H   0  0  0  0  0  0  0  0  0  0  0  0
   60.5651   34.2543   46.0282 H   0  0  0  0  0  0  0  0  0  0  0  0
   59.0110   30.6290   47.5600 H   0  0  0  0  0  0  0  0  0  0  0  0
   60.7737   29.2855   45.8720 H   0  0  0  0  0  0  0  0  0  0  0  0
   60.7187   27.3625   44.2906 H   0  0  0  0  0  0  0  0  0  0  0  0
   58.5858   26.7226   43.1691 H   0  0  0  0  0  0  0  0  0  0  0  0
   56.5004   28.0085   43.6237 H   0  0  0  0  0  0  0  0  0  0  0  0
   56.2360   31.1090   45.2420 H   0  0  0  0  0  0  0  0  0  0  0  0
  1  2  2  0
  2  3  1  0
  3  4  2  0
  4  5  1  0
  5  6  1  0
  6  7  2  0
  7  8  1  0
  8  9  2  0
  9 10  1  0
 10 11  2  0
  4 12  1  0
 12 13  1  0
 13 14  1  0
 14 15  2  0
 15 16  1  0
 16 17  2  0
 17 18  1  0
 18 19  2  0
 19 20  1  0
 12 21  2  0
 21  2  1  0
 11  6  1  0
 19 14  1  0
  5 22  1  0
  5 23  1  0
  7 24  1  0
  8 25  1  0
  9 26  1  0
 10 27  1  0
 11 28  1  0
 13 29  1  0
 15 30  1  0
 16 31  1  0
 17 32  1  0
 18 33  1  0
 20 34  1  0
M  END
>  <UniqueID>  (17) 
16

>  <SMILES>  (17) 
O=C1N=C(Cc2ccccc2)C(Nc2ccccc2O)=N1

>  <Energy>  (17) 
66.36454356504673

>  <Genealogy>  (17) 
O=C1N=C(Cc2ccccc2)C(Nc2ccccc2O)=N1 (3D coordinates assigned)
O=C1N=C(Cc2ccccc2)C(Nc2ccccc2O)=N1 (nonaromatic ring conformer: 66.36454356504673 kcal/mol)

>  <smiles>  (17) 
O=C1N=C(Cc2ccccc2)C(Nc2ccccc2O)=N1

>  <score_type>  (17) 
oracle

>  <origin>  (17) 
adg

>  <m_score__min__energy>  (17) 
-8.8399999999999999

>  <m_primary>  (17) 
energy

$$$$
17:0
     RDKit          3D

 63 66  0  0  0  0  0  0  0  0999 V2000
   56.7610   21.7140   49.4090 C   0  0  0  0  0  0  0  0  0  0  0  0
   57.2310   22.4490   48.2810 O   0  0  0  0  0  0  0  0  0  0  0  0
   56.4370   23.3070   47.4990 C   0  0  0  0  0  0  0  0  0  0  0  0
   55.1680   22.8680   47.1200 C   0  0  0  0  0  0  0  0  0  0  0  0
   54.3420   23.7080   46.3690 C   0  0  0  0  0  0  0  0  0  0  0  0
   54.7770   24.9370   46.0060 N   0  0  0  0  0  0  0  0  0  0  0  0
   56.0140   25.4000   46.3360 C   0  0  0  0  0  0  0  0  0  0  0  0
   56.3320   26.6140   45.9790 N   0  0  0  0  0  0  0  0  0  0  0  0
   57.5470   27.0480   45.3510 C   0  0  0  0  0  0  0  0  0  0  0  0
   57.8110   26.6880   44.1720 O   0  0  0  0  0  0  0  0  0  0  0  0
   58.4600   27.9670   46.0620 C   0  0  0  0  0  0  0  0  0  0  0  0
   59.7240   27.5320   46.4880 C   0  0  0  0  0  0  0  0  0  0  0  0
   60.5840   28.4010   47.0800 N   0  0  0  0  0  0  0  0  0  0  0  0
   60.2590   29.7010   47.2930 C   0  0  0  0  0  0  0  0  0  0  0  0
   59.0000   30.1820   46.9210 C   0  0  0  0  0  0  0  0  0  0  0  0
   58.6720   31.5630   47.1300 N   0  0  0  0  0  0  0  0  0  0  0  0
   57.8930   32.3360   46.2030 C   0  0  0  0  0  0  0  0  0  0  0  0
   57.2550   31.7640   45.2770 O   0  0  0  0  0  0  0  0  0  0  0  0
   57.7430   33.8160   46.4180 C   0  0  0  0  0  0  0  0  0  0  0  0
   58.7880   34.6130   45.6740 C   0  0  0  0  0  0  0  0  0  0  0  0
   58.5480   34.9910   44.4970 O   0  0  0  0  0  0  0  0  0  0  0  0
   60.0240   35.0050   46.2860 N   0  0  0  0  0  0  0  0  0  0  0  0
   60.8350   34.1960   47.1490 C   0  0  0  0  0  0  0  0  0  0  0  0
   60.4690   34.0590   48.4910 C   0  0  0  0  0  0  0  0  0  0  0  0
   61.2330   33.2700   49.3540 C   0  0  0  0  0  0  0  0  0  0  0  0
   62.3980   32.6340   48.8940 C   0  0  0  0  0  0  0  0  0  0  0  0
   63.1910   31.7660   49.7920 C   0  0  0  0  0  0  0  0  0  0  0  0
   62.8010   30.5860   50.0080 O   0  0  0  0  0  0  0  0  0  0  0  0
   64.3720   32.2470   50.4580 N   0  0  0  0  0  0  0  0  0  0  0  0
   65.3390   33.1070   49.7660 C   0  0  0  0  0  0  0  0  0  0  0  0
   66.7820   32.6830   50.1010 C   0  0  0  0  0  0  0  0  0  0  0  0
   66.9920   32.2750   51.5090 N   0  0  0  0  0  0  0  0  0  0  0  0
   65.8620   32.5650   52.3950 C   0  0  0  0  0  0  0  0  0  0  0  0
   64.5950   31.8950   51.8640 C   0  0  0  0  0  0  0  0  0  0  0  0
   62.7780   32.7940   47.5510 C   0  0  0  0  0  0  0  0  0  0  0  0
   62.0090   33.5780   46.6870 C   0  0  0  0  0  0  0  0  0  0  0  0
   58.1040   29.3070   46.2880 C   0  0  0  0  0  0  0  0  0  0  0  0
   56.8700   24.5850   47.1000 C   0  0  0  0  0  0  0  0  0  0  0  0
   57.0821   22.2162   50.3335 H   0  0  0  0  0  0  0  0  0  0  0  0
   55.6625   21.6633   49.3818 H   0  0  0  0  0  0  0  0  0  0  0  0
   57.1758   20.6956   49.3818 H   0  0  0  0  0  0  0  0  0  0  0  0
   54.8198   21.8660   47.4109 H   0  0  0  0  0  0  0  0  0  0  0  0
   53.3379   23.3704   46.0727 H   0  0  0  0  0  0  0  0  0  0  0  0
   60.0199   26.4827   46.3420 H   0  0  0  0  0  0  0  0  0  0  0  0
   60.9886   30.3789   47.7600 H   0  0  0  0  0  0  0  0  0  0  0  0
   58.9220   32.0000   48.0430 H   0  0  0  0  0  0  0  0  0  0  0  0
   56.7471   34.1250   46.0678 H   0  0  0  0  0  0  0  0  0  0  0  0
   57.8710   34.0142   47.4924 H   0  0  0  0  0  0  0  0  0  0  0  0
   59.5745   34.5753   48.8695 H   0  0  0  0  0  0  0  0  0  0  0  0
   60.9202   33.1458   50.4012 H   0  0  0  0  0  0  0  0  0  0  0  0
   65.1818   33.0264   48.6803 H   0  0  0  0  0  0  0  0  0  0  0  0
   65.1894   34.1453   50.0972 H   0  0  0  0  0  0  0  0  0  0  0  0
   67.0495   31.8345   49.4541 H   0  0  0  0  0  0  0  0  0  0  0  0
   67.4142   33.5676   49.9345 H   0  0  0  0  0  0  0  0  0  0  0  0
   67.8340   32.7790   51.8810 H   0  0  0  0  0  0  0  0  0  0  0  0
   66.0816   32.1819   53.4025 H   0  0  0  0  0  0  0  0  0  0  0  0
   65.7050   33.6530   52.4351 H   0  0  0  0  0  0  0  0  0  0  0  0
   64.7005   30.8035   51.9505 H   0  0  0  0  0  0  0  0  0  0  0  0
   63.7361   32.2439   52.4561 H   0  0  0  0  0  0  0  0  0  0  0  0
   63.6865   32.2991   47.1773 H   0  0  0  0  0  0  0  0  0  0  0  0
   62.3239   33.7117   45.6416 H   0  0  0  0  0  0  0  0  0  0  0  0
   57.1174   29.6724   45.9670 H   0  0  0  0  0  0  0  0  0  0  0  0
   57.8703   24.9445   47.3832 H   0  0  0  0  0  0  0  0  0  0  0  0
  1  2  1  0
  2  3  1  0
  3  4  1  0
  4  5  2  0
  5  6  1  0
  6  7  1  0
  7  8  2  3
  8  9  1  0
  9 10  2  0
  9 11  1  0
 11 12  2  0
 12 13  1  0
 13 14  2  0
 14 15  1  0
 15 16  1  0
 16 17  1  0
 17 18  2  0
 17 19  1  0
 19 20  1  0
 20 21  2  0
 20 22  1  0
 22 23  1  0
 23 24  2  0
 24 25  1  0
 25 26  2  0
 26 27  1  0
 27 28  2  0
 27 29  1  0
 29 30  1  0
 30 31  1  0
 31 32  1  0
 32 33  1  0
 33 34  1  0
 26 35  1  0
 35 36  2  0
 15 37  2  0
  7 38  1  0
 38  3  2  0
 37 11  1  0
 36 23  1  0
 34 29  1  0
  1 39  1  0
  1 40  1  0
  1 41  1  0
  4 42  1  0
  5 43  1  0
 12 44  1  0
 14 45  1  0
 16 46  1  0
 19 47  1  0
 19 48  1  0
 24 49  1  0
 25 50  1  0
 30 51  1  0
 30 52  1  0
 31 53  1  0
 31 54  1  0
 32 55  1  0
 33 56  1  0
 33 57  1  0
 34 58  1  0
 34 59  1  0
 35 60  1  0
 36 61  1  0
 37 62  1  0
 38 63  1  0
M  CHG  2   6  -1  22  -1
M  END
>  <UniqueID>  (18) 
17

>  <SMILES>  (18) 
COc1cc[n-]c(=NC(=O)c2cncc(NC(=O)CC(=O)[N-]c3ccc(C(=O)N4CCNCC4)cc3)c2)c1

>  <Energy>  (18) 
93.49230921809756

>  <Genealogy>  (18) 
COc1cc[n-]c(=NC(=O)c2cncc(NC(=O)CC(=O)[N-]c3ccc(C(=O)N4CCNCC4)cc3)c2)c1 (protonated)
COc1cc[n-]c(=NC(=O)c2cncc(NC(=O)CC(=O)[N-]c3ccc(C(=O)N4CCNCC4)cc3)c2)c1 (3D coordinates assigned)
COc1cc[n-]c(=NC(=O)c2cncc(NC(=O)CC(=O)[N-]c3ccc(C(=O)N4CCNCC4)cc3)c2)c1 (nonaromatic ring conformer: 93.49230921809756 kcal/mol)

>  <smiles>  (18) 
COc1cc[nH]c(=NC(=O)c2cncc(NC(=O)CC(=O)Nc3ccc(C(=O)N4CCNCC4)cc3)c2)c1

>  <score_type>  (18) 
oracle

>  <origin>  (18) 
adg

>  <m_score__min__energy>  (18) 
-12.34

>  <m_primary>  (18) 
energy

$$$$
18:0
     RDKit          3D

 59 62  0  0  0  0  0  0  0  0999 V2000
   60.2300   29.0540   49.5190 C   0  0  0  0  0  0  0  0  0  0  0  0
   60.0360   30.4910   49.3630 N   0  0  0  0  0  0  0  0  0  0  0  0
   58.9280   31.1690   49.9630 C   0  0  0  0  0  0  0  0  0  0  0  0
   58.0440   30.5130   50.5800 O   0  0  0  0  0  0  0  0  0  0  0  0
   58.7790   32.6560   49.7930 C   0  0  0  0  0  0  0  0  0  0  0  0
   59.1440   33.0760   48.4270 N   0  0  0  0  0  0  0  0  0  0  0  0
   58.1420   33.2480   47.5110 C   0  0  0  0  0  0  0  0  0  0  0  0
   58.4220   33.6060   46.1850 C   0  0  0  0  0  0  0  0  0  0  0  0
   57.3090   33.7010   45.2110 C   0  0  0  0  0  0  0  0  0  0  0  0
   56.4890   34.6490   45.3080 O   0  0  0  0  0  0  0  0  0  0  0  0
   57.1460   32.7570   44.1420 N   0  0  0  0  0  0  0  0  0  0  0  0
   57.4630   31.3560   44.1790 C   0  0  0  0  0  0  0  0  0  0  0  0
   56.7390   30.4780   43.3640 C   0  0  0  0  0  0  0  0  0  0  0  0
   57.0320   29.1090   43.3640 C   0  0  0  0  0  0  0  0  0  0  0  0
   58.0470   28.6080   44.1840 C   0  0  0  0  0  0  0  0  0  0  0  0
   58.7660   29.4720   45.0190 C   0  0  0  0  0  0  0  0  0  0  0  0
   60.0340   28.8420   46.0730 S   0  0  0  0  0  0  0  0  0  0  0  0
   61.0650   28.1450   45.2270 O   0  0  0  0  0  0  0  0  0  0  0  0
   60.7070   29.9870   46.7810 O   0  0  0  0  0  0  0  0  0  0  0  0
   59.3750   27.7060   47.2370 N   0  0  0  0  0  0  0  0  0  0  0  0
   60.1140   26.4330   47.2470 C   0  0  0  0  0  0  0  0  0  0  0  0
   59.8180   25.5740   45.9960 C   0  0  0  0  0  0  0  0  0  0  0  0
   58.6210   25.9350   45.3270 O   0  0  0  0  0  0  0  0  0  0  0  0
   57.6030   26.2070   46.2620 C   0  0  0  0  0  0  0  0  0  0  0  0
   57.9240   27.5010   47.0380 C   0  0  0  0  0  0  0  0  0  0  0  0
   58.4540   30.8410   45.0330 C   0  0  0  0  0  0  0  0  0  0  0  0
   59.7590   33.8330   45.8080 C   0  0  0  0  0  0  0  0  0  0  0  0
   60.0310   34.2200   44.6360 O   0  0  0  0  0  0  0  0  0  0  0  0
   60.7880   33.6340   46.7430 C   0  0  0  0  0  0  0  0  0  0  0  0
   62.1440   33.8110   46.4010 C   0  0  0  0  0  0  0  0  0  0  0  0
   63.1390   33.5890   47.3530 C   0  0  0  0  0  0  0  0  0  0  0  0
   62.7780   33.1790   48.6420 C   0  0  0  0  0  0  0  0  0  0  0  0
   63.8210   32.9720   49.6920 C   0  0  0  0  0  0  0  0  0  0  0  0
   61.4620   33.0270   48.9600 N   0  0  0  0  0  0  0  0  0  0  0  0
   60.4590   33.2390   48.0610 C   0  0  0  0  0  0  0  0  0  0  0  0
   60.2639   28.8027   50.5894 H   0  0  0  0  0  0  0  0  0  0  0  0
   59.3961   28.5176   49.0427 H   0  0  0  0  0  0  0  0  0  0  0  0
   61.1763   28.7579   49.0427 H   0  0  0  0  0  0  0  0  0  0  0  0
   60.7060   31.0290   48.7660 H   0  0  0  0  0  0  0  0  0  0  0  0
   57.7332   32.9363   49.9872 H   0  0  0  0  0  0  0  0  0  0  0  0
   59.4532   33.1570   50.5033 H   0  0  0  0  0  0  0  0  0  0  0  0
   57.0967   33.1025   47.8212 H   0  0  0  0  0  0  0  0  0  0  0  0
   55.9357   30.8656   42.7202 H   0  0  0  0  0  0  0  0  0  0  0  0
   56.4620   28.4259   42.7171 H   0  0  0  0  0  0  0  0  0  0  0  0
   58.2813   27.5333   44.1734 H   0  0  0  0  0  0  0  0  0  0  0  0
   61.1919   26.6498   47.2805 H   0  0  0  0  0  0  0  0  0  0  0  0
   59.7916   25.8632   48.1310 H   0  0  0  0  0  0  0  0  0  0  0  0
   60.6562   25.6849   45.2923 H   0  0  0  0  0  0  0  0  0  0  0  0
   59.6936   24.5367   46.3403 H   0  0  0  0  0  0  0  0  0  0  0  0
   56.6465   26.3286   45.7326 H   0  0  0  0  0  0  0  0  0  0  0  0
   57.5353   25.3699   46.9725 H   0  0  0  0  0  0  0  0  0  0  0  0
   57.5222   28.3567   46.4756 H   0  0  0  0  0  0  0  0  0  0  0  0
   57.4629   27.4131   48.0328 H   0  0  0  0  0  0  0  0  0  0  0  0
   58.9891   31.5157   45.7174 H   0  0  0  0  0  0  0  0  0  0  0  0
   62.4177   34.1244   45.3827 H   0  0  0  0  0  0  0  0  0  0  0  0
   64.1979   33.7348   47.0933 H   0  0  0  0  0  0  0  0  0  0  0  0
   63.3622   33.0631   50.6876 H   0  0  0  0  0  0  0  0  0  0  0  0
   64.2594   31.9693   49.5807 H   0  0  0  0  0  0  0  0  0  0  0  0
   64.6091   33.7312   49.5807 H   0  0  0  0  0  0  0  0  0  0  0  0
  1  2  1  0
  2  3  1  0
  3  4  2  0
  3  5  1  0
  5  6  1  0
  6  7  1  0
  7  8  2  0
  8  9  1  0
  9 10  2  0
  9 11  1  0
 11 12  1  0
 12 13  2  0
 13 14  1  0
 14 15  2  0
 15 16  1  0
 16 17  1  0
 17 18  2  0
 17 19  2  0
 17 20  1  0
 20 21  1  0
 21 22  1  0
 22 23  1  0
 23 24  1  0
 24 25  1  0
 16 26  2  0
  8 27  1  0
 27 28  2  0
 27 29  1  0
 29 30  2  0
 30 31  1  0
 31 32  2  0
 32 33  1  0
 32 34  1  0
 34 35  2  0
 35  6  1  0
 26 12  1  0
 35 29  1  0
 25 20  1  0
  1 36  1  0
  1 37  1  0
  1 38  1  0
  2 39  1  0
  5 40  1  0
  5 41  1  0
  7 42  1  0
 13 43  1  0
 14 44  1  0
 15 45  1  0
 21 46  1  0
 21 47  1  0
 22 48  1  0
 22 49  1  0
 24 50  1  0
 24 51  1  0
 25 52  1  0
 25 53  1  0
 26 54  1  0
 30 55  1  0
 31 56  1  0
 33 57  1  0
 33 58  1  0
 33 59  1  0
M  CHG  1  11  -1
M  END
>  <UniqueID>  (19) 
18

>  <SMILES>  (19) 
CNC(=O)Cn1cc(C(=O)[N-]c2cccc(S(=O)(=O)N3CCOCC3)c2)c(=O)c2ccc(C)nc21

>  <Energy>  (19) 
80.72610273430625

>  <Genealogy>  (19) 
CNC(=O)Cn1cc(C(=O)[N-]c2cccc(S(=O)(=O)N3CCOCC3)c2)c(=O)c2ccc(C)nc21 (protonated)
CNC(=O)Cn1cc(C(=O)[N-]c2cccc(S(=O)(=O)N3CCOCC3)c2)c(=O)c2ccc(C)nc21 (3D coordinates assigned)
CNC(=O)Cn1cc(C(=O)[N-]c2cccc(S(=O)(=O)N3CCOCC3)c2)c(=O)c2ccc(C)nc21 (nonaromatic ring conformer: 80.72610273430625 kcal/mol)

>  <smiles>  (19) 
CNC(=O)Cn1cc(C(=O)Nc2cccc(S(=O)(=O)N3CCOCC3)c2)c(=O)c2ccc(C)nc21

>  <score_type>  (19) 
oracle

>  <origin>  (19) 
adg

>  <m_score__min__energy>  (19) 
-10.57

>  <m_primary>  (19) 
energy

$$$$
19:0
     RDKit          3D

 52 55  0  0  0  0  0  0  0  0999 V2000
   56.3260   29.8600   44.8330 C   0  0  0  0  0  0  0  0  0  0  0  0
   57.5750   29.4770   45.1420 C   0  0  0  0  0  0  0  0  0  0  0  0
   58.0880   28.1680   45.1910 C   0  0  0  0  0  0  0  0  0  0  0  0
   57.5420   26.9880   44.8380 C   0  0  0  0  0  0  0  0  0  0  0  0
   57.2150   25.8840   45.7600 C   0  0  0  0  0  0  0  0  0  0  0  0
   55.9370   25.7910   46.3280 C   0  0  0  0  0  0  0  0  0  0  0  0
   54.9450   26.7070   45.9930 O   0  0  0  0  0  0  0  0  0  0  0  0
   55.6560   24.7950   47.2080 N   0  0  0  0  0  0  0  0  0  0  0  0
   56.6020   23.8870   47.5640 C   0  0  0  0  0  0  0  0  0  0  0  0
   56.3170   22.9710   48.3760 O   0  0  0  0  0  0  0  0  0  0  0  0
   57.8550   23.9720   47.0470 N   0  0  0  0  0  0  0  0  0  0  0  0
   58.1850   24.9510   46.1640 C   0  0  0  0  0  0  0  0  0  0  0  0
   59.3630   25.0120   45.7200 O   0  0  0  0  0  0  0  0  0  0  0  0
   59.3790   28.2760   45.6830 C   0  0  0  0  0  0  0  0  0  0  0  0
   59.6250   29.6190   45.8750 C   0  0  0  0  0  0  0  0  0  0  0  0
   60.9140   30.1940   46.3750 C   0  0  0  0  0  0  0  0  0  0  0  0
   58.5380   30.3470   45.5360 N   0  0  0  0  0  0  0  0  0  0  0  0
   58.4420   31.7810   45.6070 C   0  0  0  0  0  0  0  0  0  0  0  0
   58.1860   32.5080   44.4370 C   0  0  0  0  0  0  0  0  0  0  0  0
   58.0010   33.8910   44.4930 C   0  0  0  0  0  0  0  0  0  0  0  0
   58.0630   34.5560   45.7180 C   0  0  0  0  0  0  0  0  0  0  0  0
   58.3200   33.8420   46.8920 C   0  0  0  0  0  0  0  0  0  0  0  0
   58.5280   32.4540   46.8490 C   0  0  0  0  0  0  0  0  0  0  0  0
   58.8210   31.7210   48.0970 C   0  0  0  0  0  0  0  0  0  0  0  0
   58.4750   30.5150   48.2160 O   0  0  0  0  0  0  0  0  0  0  0  0
   59.4780   32.3870   49.1810 N   0  0  0  0  0  0  0  0  0  0  0  0
   60.2410   33.6200   49.0070 C   0  0  0  0  0  0  0  0  0  0  0  0
   61.7100   33.3360   49.1680 C   0  0  0  0  0  0  0  0  0  0  0  0
   62.4110   32.6620   48.1530 C   0  0  0  0  0  0  0  0  0  0  0  0
   63.7920   32.4700   48.2580 C   0  0  0  0  0  0  0  0  0  0  0  0
   64.4880   32.9560   49.3690 C   0  0  0  0  0  0  0  0  0  0  0  0
   65.8660   32.7680   49.4530 O   0  0  0  0  0  0  0  0  0  0  0  0
   63.7960   33.6330   50.3820 C   0  0  0  0  0  0  0  0  0  0  0  0
   62.4140   33.8230   50.2830 C   0  0  0  0  0  0  0  0  0  0  0  0
   56.0619   30.9278   44.8344 H   0  0  0  0  0  0  0  0  0  0  0  0
   55.5666   29.1060   44.5784 H   0  0  0  0  0  0  0  0  0  0  0  0
   57.3212   26.8348   43.7713 H   0  0  0  0  0  0  0  0  0  0  0  0
   60.0750   27.4479   45.8824 H   0  0  0  0  0  0  0  0  0  0  0  0
   60.9134   30.1937   47.4750 H   0  0  0  0  0  0  0  0  0  0  0  0
   61.7537   29.5851   46.0087 H   0  0  0  0  0  0  0  0  0  0  0  0
   61.0219   31.2256   46.0087 H   0  0  0  0  0  0  0  0  0  0  0  0
   58.1305   31.9870   43.4698 H   0  0  0  0  0  0  0  0  0  0  0  0
   57.8061   34.4569   43.5701 H   0  0  0  0  0  0  0  0  0  0  0  0
   57.9093   35.6444   45.7601 H   0  0  0  0  0  0  0  0  0  0  0  0
   58.3595   34.3709   47.8557 H   0  0  0  0  0  0  0  0  0  0  0  0
   60.0553   34.0258   48.0016 H   0  0  0  0  0  0  0  0  0  0  0  0
   59.9269   34.3522   49.7654 H   0  0  0  0  0  0  0  0  0  0  0  0
   61.8709   32.2840   47.2724 H   0  0  0  0  0  0  0  0  0  0  0  0
   64.3328   31.9347   47.4637 H   0  0  0  0  0  0  0  0  0  0  0  0
   66.4520   32.7900   48.6280 H   0  0  0  0  0  0  0  0  0  0  0  0
   64.3411   34.0160   51.2573 H   0  0  0  0  0  0  0  0  0  0  0  0
   61.8757   34.3557   51.0808 H   0  0  0  0  0  0  0  0  0  0  0  0
  1  2  2  0
  2  3  1  0
  3  4  2  3
  4  5  1  0
  5  6  2  0
  6  7  1  0
  6  8  1  0
  8  9  1  0
  9 10  2  0
  9 11  1  0
 11 12  1  0
 12 13  2  0
  3 14  1  0
 14 15  2  0
 15 16  1  0
 15 17  1  0
 17 18  1  0
 18 19  2  0
 19 20  1  0
 20 21  2  0
 21 22  1  0
 22 23  2  0
 23 24  1  0
 24 25  2  0
 24 26  1  0
 26 27  1  0
 27 28  1  0
 28 29  2  0
 29 30  1  0
 30 31  2  0
 31 32  1  0
 31 33  1  0
 33 34  2  0
 17  2  1  0
 23 18  1  0
 34 28  1  0
 12  5  1  0
  1 35  1  0
  1 36  1  0
  4 37  1  0
 14 38  1  0
 16 39  1  0
 16 40  1  0
 16 41  1  0
 19 42  1  0
 20 43  1  0
 21 44  1  0
 22 45  1  0
 27 46  1  0
 27 47  1  0
 29 48  1  0
 30 49  1  0
 32 50  1  0
 33 51  1  0
 34 52  1  0
M  CHG  4   7  -1   8  -1  11  -1  26  -1
M  END
>  <UniqueID>  (20) 
19

>  <SMILES>  (20) 
C=c1c(=Cc2c([O-])[n-]c(=O)[n-]c2=O)cc(C)n1-c1ccccc1C(=O)[N-]Cc1ccc(O)cc1

>  <Energy>  (20) 
103.66690449125606

>  <Genealogy>  (20) 
C=c1c(=Cc2c([O-])[n-]c(=O)[n-]c2=O)cc(C)n1-c1ccccc1C(=O)[N-]Cc1ccc(O)cc1 (protonated)
C=c1c(=Cc2c([O-])[n-]c(=O)[n-]c2=O)cc(C)n1-c1ccccc1C(=O)[N-]Cc1ccc(O)cc1 (3D coordinates assigned)
C=c1c(=Cc2c([O-])[n-]c(=O)[n-]c2=O)cc(C)n1-c1ccccc1C(=O)[N-]Cc1ccc(O)cc1 (optimized conformer: 103.66690449125606 kcal/mol)

>  <smiles>  (20) 
C=c1c(=Cc2c(O)[nH]c(=O)[nH]c2=O)cc(C)n1-c1ccccc1C(=O)NCc1ccc(O)cc1

>  <score_type>  (20) 
oracle

>  <origin>  (20) 
adg

>  <m_score__min__energy>  (20) 
-17.34

>  <m_primary>  (20) 
energy

$$$$
20:0
     RDKit          3D

 52 55  0  0  0  0  0  0  0  0999 V2000
   57.8190   27.6400   43.3510 C   0  0  0  0  0  0  0  0  0  0  0  0
   57.9780   29.0100   43.9430 C   0  0  0  0  0  0  0  0  0  0  0  0
   59.1130   29.5280   44.4850 N   0  0  0  0  0  0  0  0  0  0  0  0
   58.8370   30.7460   44.8850 N   0  0  0  0  0  0  0  0  0  0  0  0
   57.5400   31.0380   44.6160 C   0  0  0  0  0  0  0  0  0  0  0  0
   56.9490   32.3530   44.9590 C   0  0  0  0  0  0  0  0  0  0  0  0
   58.0040   33.1610   45.6490 C   0  0  0  0  0  0  0  0  0  0  0  0
   58.4960   34.2400   44.9340 C   0  0  0  0  0  0  0  0  0  0  0  0
   59.4690   34.9930   45.5610 C   0  0  0  0  0  0  0  0  0  0  0  0
   59.9280   34.6770   46.8440 C   0  0  0  0  0  0  0  0  0  0  0  0
   59.4270   33.5970   47.5420 C   0  0  0  0  0  0  0  0  0  0  0  0
   59.9460   33.3320   48.8700 C   0  0  0  0  0  0  0  0  0  0  0  0
   59.3980   33.9790   49.8210 O   0  0  0  0  0  0  0  0  0  0  0  0
   61.0410   32.3860   49.1790 C   0  0  0  0  0  0  0  0  0  0  0  0
   60.4940   31.0480   48.9060 N   0  0  0  0  0  0  0  0  0  0  0  0
   59.8720   30.3250   49.8510 C   0  0  0  0  0  0  0  0  0  0  0  0
   59.3950   29.0780   49.4500 C   0  0  0  0  0  0  0  0  0  0  0  0
   59.5520   28.6120   48.1600 C   0  0  0  0  0  0  0  0  0  0  0  0
   59.0680   27.3460   47.7240 N   0  0  0  0  0  0  0  0  0  0  0  0
   57.9030   27.3540   46.9090 C   0  0  0  0  0  0  0  0  0  0  0  0
   57.4230   28.5150   46.6600 O   0  0  0  0  0  0  0  0  0  0  0  0
   57.2830   26.1450   46.3810 C   0  0  0  0  0  0  0  0  0  0  0  0
   58.1020   25.1570   45.9030 C   0  0  0  0  0  0  0  0  0  0  0  0
   57.5590   23.9850   45.3920 C   0  0  0  0  0  0  0  0  0  0  0  0
   56.1890   23.8190   45.3690 C   0  0  0  0  0  0  0  0  0  0  0  0
   55.3810   24.8450   45.8650 C   0  0  0  0  0  0  0  0  0  0  0  0
   55.9240   25.9850   46.3610 N   0  0  0  0  0  0  0  0  0  0  0  0
   60.1990   29.3820   47.2030 C   0  0  0  0  0  0  0  0  0  0  0  0
   60.6610   30.6140   47.6350 C   0  0  0  0  0  0  0  0  0  0  0  0
   61.2530   31.3230   46.7700 O   0  0  0  0  0  0  0  0  0  0  0  0
   58.4560   32.8430   46.9220 C   0  0  0  0  0  0  0  0  0  0  0  0
   57.0160   29.9600   44.0320 N   0  0  0  0  0  0  0  0  0  0  0  0
   57.7330   26.8990   44.1594 H   0  0  0  0  0  0  0  0  0  0  0  0
   56.9116   27.6120   42.7299 H   0  0  0  0  0  0  0  0  0  0  0  0
   58.6959   27.4049   42.7299 H   0  0  0  0  0  0  0  0  0  0  0  0
   59.5480   31.3760   45.3460 H   0  0  0  0  0  0  0  0  0  0  0  0
   56.6226   32.8673   44.0430 H   0  0  0  0  0  0  0  0  0  0  0  0
   56.0743   32.2231   45.6132 H   0  0  0  0  0  0  0  0  0  0  0  0
   58.1327   34.4833   43.9246 H   0  0  0  0  0  0  0  0  0  0  0  0
   59.8937   35.8629   45.0386 H   0  0  0  0  0  0  0  0  0  0  0  0
   60.7052   35.3030   47.3067 H   0  0  0  0  0  0  0  0  0  0  0  0
   61.9121   32.5834   48.5369 H   0  0  0  0  0  0  0  0  0  0  0  0
   61.3817   32.4826   50.2204 H   0  0  0  0  0  0  0  0  0  0  0  0
   59.7464   30.6943   50.8795 H   0  0  0  0  0  0  0  0  0  0  0  0
   58.8768   28.4448   50.1852 H   0  0  0  0  0  0  0  0  0  0  0  0
   59.5180   26.4370   47.9690 H   0  0  0  0  0  0  0  0  0  0  0  0
   59.1935   25.2919   45.9238 H   0  0  0  0  0  0  0  0  0  0  0  0
   58.2180   23.1927   45.0074 H   0  0  0  0  0  0  0  0  0  0  0  0
   55.7423   22.8972   44.9681 H   0  0  0  0  0  0  0  0  0  0  0  0
   54.2874   24.7267   45.8532 H   0  0  0  0  0  0  0  0  0  0  0  0
   60.3359   29.0357   46.1679 H   0  0  0  0  0  0  0  0  0  0  0  0
   58.0311   31.9734   47.4448 H   0  0  0  0  0  0  0  0  0  0  0  0
  1  2  1  0
  2  3  2  0
  3  4  1  0
  4  5  1  0
  5  6  1  0
  6  7  1  0
  7  8  2  0
  8  9  1  0
  9 10  2  0
 10 11  1  0
 11 12  1  0
 12 13  2  0
 12 14  1  0
 14 15  1  0
 15 16  1  0
 16 17  2  0
 17 18  1  0
 18 19  1  0
 19 20  1  0
 20 21  2  0
 20 22  1  0
 22 23  2  0
 23 24  1  0
 24 25  2  0
 25 26  1  0
 26 27  2  0
 18 28  2  0
 28 29  1  0
 29 30  2  0
 11 31  2  0
  5 32  2  0
 32  2  1  0
 31  7  1  0
 29 15  1  0
 27 22  1  0
  1 33  1  0
  1 34  1  0
  1 35  1  0
  4 36  1  0
  6 37  1  0
  6 38  1  0
  8 39  1  0
  9 40  1  0
 10 41  1  0
 14 42  1  0
 14 43  1  0
 16 44  1  0
 17 45  1  0
 19 46  1  0
 23 47  1  0
 24 48  1  0
 25 49  1  0
 26 50  1  0
 28 51  1  0
 31 52  1  0
M  END
>  <smiles>  (21) 
Cc1n[nH]c(Cc2cccc(C(=O)Cn3ccc(NC(=O)c4ccccn4)cc3=O)c2)n1

>  <score_type>  (21) 
oracle

>  <origin>  (21) 
adg

>  <m_score__min__energy>  (21) 
-9.9399999999999995

>  <m_primary>  (21) 
energy

$$$$
21:0
     RDKit          3D

 46 49  0  0  0  0  0  0  0  0999 V2000
   64.7650   33.6850   51.4860 O   0  0  0  0  0  0  0  0  0  0  0  0
   64.8480   33.3670   50.2670 C   0  0  0  0  0  0  0  0  0  0  0  0
   66.1370   33.0920   49.6940 N   0  0  0  0  0  0  0  0  0  0  0  0
   67.3250   32.9750   50.5500 C   0  0  0  0  0  0  0  0  0  0  0  0
   67.4760   31.6540   51.3450 C   0  0  0  0  0  0  0  0  0  0  0  0
   66.7370   30.4200   50.8480 C   0  0  0  0  0  0  0  0  0  0  0  0
   66.2800   31.1240   52.1230 C   0  0  0  0  0  0  0  0  0  0  0  0
   63.6140   33.3010   49.4470 C   0  0  0  0  0  0  0  0  0  0  0  0
   62.6430   34.3100   49.5580 C   0  0  0  0  0  0  0  0  0  0  0  0
   61.4730   34.2580   48.7940 C   0  0  0  0  0  0  0  0  0  0  0  0
   61.2420   33.1900   47.9120 C   0  0  0  0  0  0  0  0  0  0  0  0
   59.9990   33.1330   47.1010 C   0  0  0  0  0  0  0  0  0  0  0  0
   59.0050   34.1170   47.2460 C   0  0  0  0  0  0  0  0  0  0  0  0
   57.8420   34.0650   46.4740 C   0  0  0  0  0  0  0  0  0  0  0  0
   57.6510   33.0290   45.5580 C   0  0  0  0  0  0  0  0  0  0  0  0
   58.6220   32.0240   45.4180 C   0  0  0  0  0  0  0  0  0  0  0  0
   58.4650   30.9560   44.4730 N   0  0  0  0  0  0  0  0  0  0  0  0
   58.8910   29.6010   44.6600 C   0  0  0  0  0  0  0  0  0  0  0  0
   60.1090   29.3220   44.5050 O   0  0  0  0  0  0  0  0  0  0  0  0
   57.9580   28.5440   45.0940 C   0  0  0  0  0  0  0  0  0  0  0  0
   58.3270   27.3370   45.6840 C   0  0  0  0  0  0  0  0  0  0  0  0
   57.2360   26.5370   46.0440 C   0  0  0  0  0  0  0  0  0  0  0  0
   56.0190   27.1280   45.7460 C   0  0  0  0  0  0  0  0  0  0  0  0
   54.7740   26.5660   45.9960 O   0  0  0  0  0  0  0  0  0  0  0  0
   56.2720   28.6310   45.0430 S   0  0  0  0  0  0  0  0  0  0  0  0
   59.7990   32.0920   46.1740 C   0  0  0  0  0  0  0  0  0  0  0  0
   62.2070   32.1720   47.8130 C   0  0  0  0  0  0  0  0  0  0  0  0
   63.3790   32.2250   48.5740 C   0  0  0  0  0  0  0  0  0  0  0  0
   66.2040   33.0440   48.6570 H   0  0  0  0  0  0  0  0  0  0  0  0
   68.2116   33.0819   49.9078 H   0  0  0  0  0  0  0  0  0  0  0  0
   67.2147   33.7619   51.3107 H   0  0  0  0  0  0  0  0  0  0  0  0
   68.5211   31.8879   51.5959 H   0  0  0  0  0  0  0  0  0  0  0  0
   66.1220   30.4763   49.9377 H   0  0  0  0  0  0  0  0  0  0  0  0
   67.0269   29.3912   50.5881 H   0  0  0  0  0  0  0  0  0  0  0  0
   65.3356   31.6879   52.1319 H   0  0  0  0  0  0  0  0  0  0  0  0
   66.1038   30.8133   53.1634 H   0  0  0  0  0  0  0  0  0  0  0  0
   62.8044   35.1482   50.2518 H   0  0  0  0  0  0  0  0  0  0  0  0
   60.7267   35.0610   48.8847 H   0  0  0  0  0  0  0  0  0  0  0  0
   59.1440   34.9322   47.9713 H   0  0  0  0  0  0  0  0  0  0  0  0
   57.0735   34.8436   46.5883 H   0  0  0  0  0  0  0  0  0  0  0  0
   56.7383   32.9998   44.9447 H   0  0  0  0  0  0  0  0  0  0  0  0
   59.3734   27.0415   45.8507 H   0  0  0  0  0  0  0  0  0  0  0  0
   57.3344   25.5467   46.5126 H   0  0  0  0  0  0  0  0  0  0  0  0
   60.5755   31.3241   46.0423 H   0  0  0  0  0  0  0  0  0  0  0  0
   62.0384   31.3260   47.1305 H   0  0  0  0  0  0  0  0  0  0  0  0
   64.1224   31.4187   48.4887 H   0  0  0  0  0  0  0  0  0  0  0  0
  1  2  2  0
  2  3  1  0
  3  4  1  0
  4  5  1  0
  5  6  1  0
  6  7  1  0
  2  8  1  0
  8  9  2  0
  9 10  1  0
 10 11  2  0
 11 12  1  0
 12 13  2  0
 13 14  1  0
 14 15  2  0
 15 16  1  0
 16 17  1  0
 17 18  1  0
 18 19  2  0
 18 20  1  0
 20 21  2  0
 21 22  1  0
 22 23  2  0
 23 24  1  0
 23 25  1  0
 16 26  2  0
 11 27  1  0
 27 28  2  0
  7  5  1  0
 28  8  1  0
 26 12  1  0
 25 20  1  0
  3 29  1  0
  4 30  1  0
  4 31  1  0
  5 32  1  0
  6 33  1  0
  6 34  1  0
  7 35  1  0
  7 36  1  0
  9 37  1  0
 10 38  1  0
 13 39  1  0
 14 40  1  0
 15 41  1  0
 21 42  1  0
 22 43  1  0
 26 44  1  0
 27 45  1  0
 28 46  1  0
M  CHG  2  17  -1  24  -1
M  END
>  <UniqueID>  (22) 
20

>  <SMILES>  (22) 
O=C(NCC1CC1)c1ccc(-c2cccc([N-]C(=O)c3ccc([O-])s3)c2)cc1

>  <Energy>  (22) 
356.8697242653866

>  <Genealogy>  (22) 
O=C(NCC1CC1)c1ccc(-c2cccc([N-]C(=O)c3ccc([O-])s3)c2)cc1 (protonated)
O=C(NCC1CC1)c1ccc(-c2cccc([N-]C(=O)c3ccc([O-])s3)c2)cc1 (3D coordinates assigned)
O=C(NCC1CC1)c1ccc(-c2cccc([N-]C(=O)c3ccc([O-])s3)c2)cc1 (nonaromatic ring conformer: 356.8697242653866 kcal/mol)

>  <smiles>  (22) 
O=C(NCC1CC1)c1ccc(-c2cccc(NC(=O)c3ccc(O)s3)c2)cc1

>  <score_type>  (22) 
oracle

>  <origin>  (22) 
adg

>  <m_score__min__energy>  (22) 
-12.41

>  <m_primary>  (22) 
energy

$$$$
22:0
     RDKit          3D

 60 65  0  0  0  0  0  0  0  0999 V2000
   59.6860   29.0990   52.0130 C   0  0  0  0  0  0  0  0  0  0  0  0
   59.9500   30.1960   51.0180 C   0  0  0  0  0  0  0  0  0  0  0  0
   59.8060   31.5370   51.4030 C   0  0  0  0  0  0  0  0  0  0  0  0
   60.0290   32.5360   50.5120 N   0  0  0  0  0  0  0  0  0  0  0  0
   60.3890   32.2590   49.2290 C   0  0  0  0  0  0  0  0  0  0  0  0
   60.6410   33.3670   48.2520 C   0  0  0  0  0  0  0  0  0  0  0  0
   59.6150   33.6240   47.1840 C   0  0  0  0  0  0  0  0  0  0  0  0
   59.9400   34.4100   46.0660 C   0  0  0  0  0  0  0  0  0  0  0  0
   58.9730   34.6840   45.0930 C   0  0  0  0  0  0  0  0  0  0  0  0
   57.6750   34.1880   45.2380 C   0  0  0  0  0  0  0  0  0  0  0  0
   57.3390   33.4230   46.3590 C   0  0  0  0  0  0  0  0  0  0  0  0
   58.3030   33.1470   47.3330 C   0  0  0  0  0  0  0  0  0  0  0  0
   61.3720   34.5890   48.8010 C   0  0  0  0  0  0  0  0  0  0  0  0
   62.0990   33.6200   47.8820 C   0  0  0  0  0  0  0  0  0  0  0  0
   60.5610   30.9700   48.8410 N   0  0  0  0  0  0  0  0  0  0  0  0
   60.3620   29.9320   49.6950 C   0  0  0  0  0  0  0  0  0  0  0  0
   60.5080   28.5350   49.1500 C   0  0  0  0  0  0  0  0  0  0  0  0
   59.5920   28.3360   48.0300 N   0  0  0  0  0  0  0  0  0  0  0  0
   59.1810   29.2840   47.1660 C   0  0  0  0  0  0  0  0  0  0  0  0
   58.2880   28.7400   46.2610 C   0  0  0  0  0  0  0  0  0  0  0  0
   57.6850   29.4660   45.1220 C   0  0  0  0  0  0  0  0  0  0  0  0
   58.3750   30.5110   44.4890 C   0  0  0  0  0  0  0  0  0  0  0  0
   57.7760   31.1890   43.4250 C   0  0  0  0  0  0  0  0  0  0  0  0
   56.5270   30.8430   43.0130 N   0  0  0  0  0  0  0  0  0  0  0  0
   55.8290   29.8450   43.6170 C   0  0  0  0  0  0  0  0  0  0  0  0
   56.3910   29.1420   44.6840 C   0  0  0  0  0  0  0  0  0  0  0  0
   58.1500   27.3950   46.6050 C   0  0  0  0  0  0  0  0  0  0  0  0
   57.2420   26.3850   46.0210 C   0  0  0  0  0  0  0  0  0  0  0  0
   57.7220   25.4240   45.1230 C   0  0  0  0  0  0  0  0  0  0  0  0
   56.8800   24.4920   44.6060 N   0  0  0  0  0  0  0  0  0  0  0  0
   55.5660   24.4640   44.9570 C   0  0  0  0  0  0  0  0  0  0  0  0
   54.7760   23.5720   44.4570 N   0  0  0  0  0  0  0  0  0  0  0  0
   55.0820   25.3730   45.8410 N   0  0  0  0  0  0  0  0  0  0  0  0
   55.8880   26.3250   46.3800 C   0  0  0  0  0  0  0  0  0  0  0  0
   58.9770   27.1850   47.6960 C   0  0  0  0  0  0  0  0  0  0  0  0
   59.7821   29.4985   53.0334 H   0  0  0  0  0  0  0  0  0  0  0  0
   58.6682   28.7083   51.8666 H   0  0  0  0  0  0  0  0  0  0  0  0
   60.4146   28.2880   51.8666 H   0  0  0  0  0  0  0  0  0  0  0  0
   59.5103   31.7806   52.4341 H   0  0  0  0  0  0  0  0  0  0  0  0
   59.9170   33.5290   50.8210 H   0  0  0  0  0  0  0  0  0  0  0  0
   60.9582   34.8113   45.9553 H   0  0  0  0  0  0  0  0  0  0  0  0
   59.2347   35.2903   44.2133 H   0  0  0  0  0  0  0  0  0  0  0  0
   56.9168   34.3995   44.4696 H   0  0  0  0  0  0  0  0  0  0  0  0
   56.3151   33.0379   46.4746 H   0  0  0  0  0  0  0  0  0  0  0  0
   58.0327   32.5541   48.2192 H   0  0  0  0  0  0  0  0  0  0  0  0
   61.1084   35.5947   48.4417 H   0  0  0  0  0  0  0  0  0  0  0  0
   61.5592   34.9965   49.8054 H   0  0  0  0  0  0  0  0  0  0  0  0
   62.3612   33.9252   46.8582 H   0  0  0  0  0  0  0  0  0  0  0  0
   63.0296   33.0371   47.9472 H   0  0  0  0  0  0  0  0  0  0  0  0
   61.5419   28.3848   48.8058 H   0  0  0  0  0  0  0  0  0  0  0  0
   60.2694   27.8117   49.9437 H   0  0  0  0  0  0  0  0  0  0  0  0
   59.5071   30.3345   47.1784 H   0  0  0  0  0  0  0  0  0  0  0  0
   59.3820   30.7946   44.8288 H   0  0  0  0  0  0  0  0  0  0  0  0
   58.3151   32.0038   42.9196 H   0  0  0  0  0  0  0  0  0  0  0  0
   54.8187   29.5908   43.2640 H   0  0  0  0  0  0  0  0  0  0  0  0
   55.8238   28.3395   45.1784 H   0  0  0  0  0  0  0  0  0  0  0  0
   58.7837   25.4238   44.8354 H   0  0  0  0  0  0  0  0  0  0  0  0
   54.7160   23.4120   43.4250 H   0  0  0  0  0  0  0  0  0  0  0  0
   55.4777   27.0495   47.0989 H   0  0  0  0  0  0  0  0  0  0  0  0
   59.1114   26.2230   48.2121 H   0  0  0  0  0  0  0  0  0  0  0  0
  1  2  1  0
  2  3  2  0
  3  4  1  0
  4  5  2  0
  5  6  1  0
  6  7  1  0
  7  8  2  0
  8  9  1  0
  9 10  2  0
 10 11  1  0
 11 12  2  0
  6 13  1  0
 13 14  1  0
  5 15  1  0
 15 16  2  0
 16 17  1  0
 17 18  1  0
 18 19  1  0
 19 20  2  0
 20 21  1  0
 21 22  2  0
 22 23  1  0
 23 24  2  0
 24 25  1  0
 25 26  2  0
 20 27  1  0
 27 28  1  0
 28 29  1  0
 29 30  2  0
 30 31  1  0
 31 32  2  3
 31 33  1  0
 33 34  1  0
 27 35  2  0
 16  2  1  0
 35 18  1  0
 14  6  1  0
 26 21  1  0
 34 28  2  0
 12  7  1  0
  1 36  1  0
  1 37  1  0
  1 38  1  0
  3 39  1  0
  4 40  1  0
  8 41  1  0
  9 42  1  0
 10 43  1  0
 11 44  1  0
 12 45  1  0
 13 46  1  0
 13 47  1  0
 14 48  1  0
 14 49  1  0
 17 50  1  0
 17 51  1  0
 19 52  1  0
 22 53  1  0
 23 54  1  0
 25 55  1  0
 26 56  1  0
 29 57  1  0
 32 58  1  0
 34 59  1  0
 35 60  1  0
M  CHG  2   4   1  33  -1
M  END
>  <UniqueID>  (23) 
21

>  <SMILES>  (23) 
Cc1c[nH+]c(C2(c3ccccc3)CC2)nc1Cn1cc(-c2ccncc2)c(-c2cnc(=N)[n-]c2)c1

>  <Energy>  (23) 
366.63661207508085

>  <Genealogy>  (23) 
Cc1c[nH+]c(C2(c3ccccc3)CC2)nc1Cn1cc(-c2ccncc2)c(-c2cnc(=N)[n-]c2)c1 (protonated)
Cc1c[nH+]c(C2(c3ccccc3)CC2)nc1Cn1cc(-c2ccncc2)c(-c2cnc(=N)[n-]c2)c1 (3D coordinates assigned)
Cc1c[nH+]c(C2(c3ccccc3)CC2)nc1Cn1cc(-c2ccncc2)c(-c2cnc(=N)[n-]c2)c1 (nonaromatic ring conformer: 366.63661207508085 kcal/mol)

>  <smiles>  (23) 
Cc1cnc(C2(c3ccccc3)CC2)nc1Cn1cc(-c2ccncc2)c(-c2cnc(=N)[nH]c2)c1

>  <score_type>  (23) 
oracle

>  <origin>  (23) 
adg

>  <m_score__min__energy>  (23) 
-9.8800000000000008

>  <m_primary>  (23) 
energy

$$$$
23:0
     RDKit          3D

 57 60  0  0  0  0  0  0  0  0999 V2000
   57.5310   31.0698   41.3512 H   0  0  0  0  0  0  0  0  0  0  0  0
   57.4000   31.2200   42.4330 C   0  0  0  0  0  0  0  0  0  0  0  0
   56.7390   30.2910   43.1710 N   0  0  0  0  0  0  0  0  0  0  0  0
   56.5520   30.4370   44.5140 C   0  0  0  0  0  0  0  0  0  0  0  0
   55.9360   29.5250   45.2100 N   0  0  0  0  0  0  0  0  0  0  0  0
   56.4700   28.2430   45.5800 C   0  0  0  0  0  0  0  0  0  0  0  0
   55.6880   27.2560   45.6240 O   0  0  0  0  0  0  0  0  0  0  0  0
   57.9130   28.0360   45.8490 C   0  0  0  0  0  0  0  0  0  0  0  0
   58.5480   26.8380   45.4810 C   0  0  0  0  0  0  0  0  0  0  0  0
   57.9737   26.0471   44.9764 H   0  0  0  0  0  0  0  0  0  0  0  0
   59.9030   26.6460   45.7520 C   0  0  0  0  0  0  0  0  0  0  0  0
   60.3935   25.7077   45.4536 H   0  0  0  0  0  0  0  0  0  0  0  0
   60.6390   27.6390   46.4000 C   0  0  0  0  0  0  0  0  0  0  0  0
   61.7078   27.4804   46.6062 H   0  0  0  0  0  0  0  0  0  0  0  0
   60.0230   28.8410   46.7910 C   0  0  0  0  0  0  0  0  0  0  0  0
   60.8040   29.8970   47.4850 C   0  0  0  0  0  0  0  0  0  0  0  0
   60.8240   29.9650   48.8900 C   0  0  0  0  0  0  0  0  0  0  0  0
   60.2573   29.2300   49.4805 H   0  0  0  0  0  0  0  0  0  0  0  0
   61.5590   30.9600   49.5410 C   0  0  0  0  0  0  0  0  0  0  0  0
   61.5701   31.0021   50.6401 H   0  0  0  0  0  0  0  0  0  0  0  0
   62.2810   31.9030   48.8000 C   0  0  0  0  0  0  0  0  0  0  0  0
   63.2240   33.1420   49.6220 S   0  0  0  0  0  0  0  0  0  0  0  0
   63.5660   34.2400   48.6540 O   0  0  0  0  0  0  0  0  0  0  0  0
   64.5000   32.5440   50.1440 O   0  0  0  0  0  0  0  0  0  0  0  0
   62.2650   33.8010   50.9750 C   0  0  0  0  0  0  0  0  0  0  0  0
   61.2073   33.8479   50.6766 H   0  0  0  0  0  0  0  0  0  0  0  0
   62.6432   34.8056   51.2152 H   0  0  0  0  0  0  0  0  0  0  0  0
   62.3940   32.9260   52.2140 C   0  0  0  0  0  0  0  0  0  0  0  0
   62.3020   33.5503   53.1150 H   0  0  0  0  0  0  0  0  0  0  0  0
   61.5981   32.1667   52.2112 H   0  0  0  0  0  0  0  0  0  0  0  0
   63.3752   32.4287   52.2112 H   0  0  0  0  0  0  0  0  0  0  0  0
   62.2740   31.8360   47.4010 C   0  0  0  0  0  0  0  0  0  0  0  0
   62.8496   32.5672   46.8145 H   0  0  0  0  0  0  0  0  0  0  0  0
   61.5380   30.8430   46.7470 C   0  0  0  0  0  0  0  0  0  0  0  0
   61.5330   30.8014   45.6478 H   0  0  0  0  0  0  0  0  0  0  0  0
   58.6550   29.0270   46.5160 C   0  0  0  0  0  0  0  0  0  0  0  0
   58.1603   29.9591   46.8267 H   0  0  0  0  0  0  0  0  0  0  0  0
   57.0630   31.5670   45.1630 C   0  0  0  0  0  0  0  0  0  0  0  0
   56.9397   31.6823   46.2500 H   0  0  0  0  0  0  0  0  0  0  0  0
   57.7330   32.5520   44.4220 C   0  0  0  0  0  0  0  0  0  0  0  0
   58.2820   33.7560   45.0860 C   0  0  0  0  0  0  0  0  0  0  0  0
   58.1790   34.8720   44.5070 O   0  0  0  0  0  0  0  0  0  0  0  0
   58.9250   33.6830   46.3750 N   0  0  0  0  0  0  0  0  0  0  0  0
   58.7580   32.4750   47.2080 C   0  0  0  0  0  0  0  0  0  0  0  0
   59.5663   31.7651   46.9785 H   0  0  0  0  0  0  0  0  0  0  0  0
   57.7780   32.0279   46.9850 H   0  0  0  0  0  0  0  0  0  0  0  0
   58.8060   32.8180   48.6660 C   0  0  0  0  0  0  0  0  0  0  0  0
   58.1540   32.1430   49.5050 O   0  0  0  0  0  0  0  0  0  0  0  0
   59.6240   33.8980   49.1020 N   0  0  0  0  0  0  0  0  0  0  0  0
   60.4540   34.5920   48.1290 C   0  0  0  0  0  0  0  0  0  0  0  0
   61.3190   33.9629   47.8721 H   0  0  0  0  0  0  0  0  0  0  0  0
   60.8017   35.5423   48.5604 H   0  0  0  0  0  0  0  0  0  0  0  0
   59.6400   34.8790   46.8630 C   0  0  0  0  0  0  0  0  0  0  0  0
   60.3228   35.2293   46.0749 H   0  0  0  0  0  0  0  0  0  0  0  0
   58.8886   35.6430   47.1113 H   0  0  0  0  0  0  0  0  0  0  0  0
   57.9130   32.3640   43.0440 C   0  0  0  0  0  0  0  0  0  0  0  0
   58.4551   33.1137   42.4490 H   0  0  0  0  0  0  0  0  0  0  0  0
  1  2  1  0
  2  3  1  0
  3  4  1  0
  4  5  2  0
  5  6  1  0
  6  7  2  0
  6  8  1  0
  8  9  2  0
  9 10  1  0
  9 11  1  0
 11 12  1  0
 11 13  2  0
 13 14  1  0
 13 15  1  0
 15 16  1  0
 16 17  2  0
 17 18  1  0
 17 19  1  0
 19 20  1  0
 19 21  2  0
 21 22  1  0
 22 23  2  0
 22 24  2  0
 22 25  1  0
 25 26  1  0
 25 27  1  0
 25 28  1  0
 28 29  1  0
 28 30  1  0
 28 31  1  0
 21 32  1  0
 32 33  1  0
 32 34  2  0
 34 35  1  0
 15 36  2  0
 36 37  1  0
  4 38  1  0
 38 39  1  0
 38 40  2  0
 40 41  1  0
 41 42  2  0
 41 43  1  0
 43 44  1  0
 44 45  1  0
 44 46  1  0
 44 47  1  0
 47 48  2  0
 47 49  1  0
 49 50  1  0
 50 51  1  0
 50 52  1  0
 50 53  1  0
 53 54  1  0
 53 55  1  0
 40 56  1  0
 56 57  1  0
 56  2  2  0
 36  8  1  0
 53 43  1  0
 34 16  1  0
M  CHG  2   3  -1  49  -1
M  END
>  <UniqueID>  (24) 
22

>  <SMILES>  (24) 
CCS(=O)(=O)c1ccc(-c2cccc(C(=O)/N=c3/cc(C(=O)N4CC[N-]C(=O)C4)cc[n-]3)c2)cc1

>  <Energy>  (24) 
73.89702906947237

>  <Genealogy>  (24) 
CCS(=O)(=O)c1ccc(-c2cccc(C(=O)N=c3cc(C(=O)N4CC[N-]C(=O)C4)cc[n-]3)c2)cc1 (protonated)
CCS(=O)(=O)c1ccc(-c2cccc(C(=O)/N=c3/cc(C(=O)N4CC[N-]C(=O)C4)cc[n-]3)c2)cc1 (cis-trans isomerization)
CCS(=O)(=O)c1ccc(-c2cccc(C(=O)/N=c3/cc(C(=O)N4CC[N-]C(=O)C4)cc[n-]3)c2)cc1 (3D coordinates assigned)
CCS(=O)(=O)c1ccc(-c2cccc(C(=O)/N=c3/cc(C(=O)N4CC[N-]C(=O)C4)cc[n-]3)c2)cc1 (nonaromatic ring conformer: 73.89702906947237 kcal/mol)

>  <smiles>  (24) 
CCS(=O)(=O)c1ccc(-c2cccc(C(=O)N=c3cc(C(=O)N4CCNC(=O)C4)cc[nH]3)c2)cc1

>  <score_type>  (24) 
oracle

>  <origin>  (24) 
adg

>  <m_score__min__energy>  (24) 
-13.84

>  <m_primary>  (24) 
energy

$$$$
24:0
     RDKit          3D

 39 41  0  0  0  0  0  0  0  0999 V2000
   63.7100   33.2150   46.7880 C   0  0  0  0  0  0  0  0  0  0  0  0
   62.4090   33.4780   47.4820 C   0  0  0  0  0  0  0  0  0  0  0  0
   62.3060   33.4140   48.8650 C   0  0  0  0  0  0  0  0  0  0  0  0
   61.0690   33.6700   49.4550 C   0  0  0  0  0  0  0  0  0  0  0  0
   61.0080   33.5900   50.9360 C   0  0  0  0  0  0  0  0  0  0  0  0
   59.9590   33.9820   48.6970 C   0  0  0  0  0  0  0  0  0  0  0  0
   60.0530   34.0470   47.3290 C   0  0  0  0  0  0  0  0  0  0  0  0
   58.7070   34.4350   46.2470 S   0  0  0  0  0  0  0  0  0  0  0  0
   58.3390   33.0900   45.1300 C   0  0  0  0  0  0  0  0  0  0  0  0
   58.1950   31.8670   45.6760 N   0  0  0  0  0  0  0  0  0  0  0  0
   57.9150   30.7750   44.9290 C   0  0  0  0  0  0  0  0  0  0  0  0
   57.7690   29.4940   45.5290 N   0  0  0  0  0  0  0  0  0  0  0  0
   58.6400   28.8100   46.4680 C   0  0  0  0  0  0  0  0  0  0  0  0
   58.3650   27.3390   46.3040 C   0  0  0  0  0  0  0  0  0  0  0  0
   57.0650   27.2340   45.5370 C   0  0  0  0  0  0  0  0  0  0  0  0
   56.6600   28.6410   45.2670 C   0  0  0  0  0  0  0  0  0  0  0  0
   55.5180   28.9770   44.8740 O   0  0  0  0  0  0  0  0  0  0  0  0
   57.7760   30.9490   43.5570 C   0  0  0  0  0  0  0  0  0  0  0  0
   57.9240   32.2110   42.9970 C   0  0  0  0  0  0  0  0  0  0  0  0
   57.7990   32.3670   41.7610 O   0  0  0  0  0  0  0  0  0  0  0  0
   58.2040   33.2600   43.8010 N   0  0  0  0  0  0  0  0  0  0  0  0
   61.2880   33.7910   46.7570 C   0  0  0  0  0  0  0  0  0  0  0  0
   64.4995   33.0554   47.5372 H   0  0  0  0  0  0  0  0  0  0  0  0
   63.6150   32.3179   46.1586 H   0  0  0  0  0  0  0  0  0  0  0  0
   63.9710   34.0786   46.1586 H   0  0  0  0  0  0  0  0  0  0  0  0
   63.1821   33.1665   49.4824 H   0  0  0  0  0  0  0  0  0  0  0  0
   61.6203   34.3930   51.3721 H   0  0  0  0  0  0  0  0  0  0  0  0
   59.9650   33.7034   51.2667 H   0  0  0  0  0  0  0  0  0  0  0  0
   61.3934   32.6142   51.2667 H   0  0  0  0  0  0  0  0  0  0  0  0
   58.9959   34.1792   49.1904 H   0  0  0  0  0  0  0  0  0  0  0  0
   59.6935   29.0285   46.2390 H   0  0  0  0  0  0  0  0  0  0  0  0
   58.4523   29.1394   47.5006 H   0  0  0  0  0  0  0  0  0  0  0  0
   59.1794   26.8595   45.7411 H   0  0  0  0  0  0  0  0  0  0  0  0
   58.2966   26.8335   47.2786 H   0  0  0  0  0  0  0  0  0  0  0  0
   57.2158   26.6877   44.5942 H   0  0  0  0  0  0  0  0  0  0  0  0
   56.2967   26.6847   46.1009 H   0  0  0  0  0  0  0  0  0  0  0  0
   57.5485   30.0859   42.9141 H   0  0  0  0  0  0  0  0  0  0  0  0
   58.3210   34.2320   43.4010 H   0  0  0  0  0  0  0  0  0  0  0  0
   61.3744   33.8415   45.6616 H   0  0  0  0  0  0  0  0  0  0  0  0
  1  2  1  0
  2  3  2  0
  3  4  1  0
  4  5  1  0
  4  6  2  0
  6  7  1  0
  7  8  1  0
  8  9  1  0
  9 10  2  0
 10 11  1  0
 11 12  1  0
 12 13  1  0
 13 14  1  0
 14 15  1  0
 15 16  1  0
 16 17  2  0
 11 18  2  0
 18 19  1  0
 19 20  2  0
 19 21  1  0
  7 22  2  0
 22  2  1  0
 21  9  1  0
 16 12  1  0
  1 23  1  0
  1 24  1  0
  1 25  1  0
  3 26  1  0
  5 27  1  0
  5 28  1  0
  5 29  1  0
  6 30  1  0
 13 31  1  0
 13 32  1  0
 14 33  1  0
 14 34  1  0
 15 35  1  0
 15 36  1  0
 18 37  1  0
 21 38  1  0
 22 39  1  0
M  END
>  <smiles>  (25) 
Cc1cc(C)cc(Sc2nc(N3CCCC3=O)cc(=O)[nH]2)c1

>  <score_type>  (25) 
oracle

>  <origin>  (25) 
adg

>  <m_score__min__energy>  (25) 
-8.0700000000000003

>  <m_primary>  (25) 
energy

$$$$
25:0
     RDKit          3D

 64 67  0  0  0  0  0  0  0  0999 V2000
   59.7790   22.2860   44.8790 C   0  0  0  0  0  0  0  0  0  0  0  0
   58.4030   22.2730   44.2790 C   0  0  0  0  0  0  0  0  0  0  0  0
   58.0280   21.2550   43.3910 C   0  0  0  0  0  0  0  0  0  0  0  0
   56.7370   21.2460   42.8620 C   0  0  0  0  0  0  0  0  0  0  0  0
   55.8470   22.2080   43.2230 N   0  0  0  0  0  0  0  0  0  0  0  0
   56.1590   23.1980   44.1050 C   0  0  0  0  0  0  0  0  0  0  0  0
   55.2470   24.0910   44.3760 N   0  0  0  0  0  0  0  0  0  0  0  0
   55.0830   24.8600   45.5800 C   0  0  0  0  0  0  0  0  0  0  0  0
   54.1030   25.6420   45.7170 O   0  0  0  0  0  0  0  0  0  0  0  0
   56.1560   24.8300   46.6270 C   0  0  0  0  0  0  0  0  0  0  0  0
   56.9260   26.0710   46.5880 N   0  0  0  0  0  0  0  0  0  0  0  0
   58.3640   26.0780   46.6230 C   0  0  0  0  0  0  0  0  0  0  0  0
   58.9920   24.9990   46.4310 O   0  0  0  0  0  0  0  0  0  0  0  0
   59.1320   27.3140   46.9260 C   0  0  0  0  0  0  0  0  0  0  0  0
   58.9700   27.9450   48.1730 C   0  0  0  0  0  0  0  0  0  0  0  0
   59.6610   29.1210   48.4710 C   0  0  0  0  0  0  0  0  0  0  0  0
   60.5200   29.6950   47.5260 C   0  0  0  0  0  0  0  0  0  0  0  0
   61.3660   31.2010   47.8950 S   0  0  0  0  0  0  0  0  0  0  0  0
   61.6750   31.2410   49.3670 O   0  0  0  0  0  0  0  0  0  0  0  0
   62.6700   31.2390   47.1440 O   0  0  0  0  0  0  0  0  0  0  0  0
   60.4130   32.6000   47.4620 N   0  0  0  0  0  0  0  0  0  0  0  0
   61.0760   33.3700   46.4020 C   0  0  0  0  0  0  0  0  0  0  0  0
   60.1310   34.4710   45.8810 C   0  0  0  0  0  0  0  0  0  0  0  0
   59.1370   34.9210   46.8880 N   0  0  0  0  0  0  0  0  0  0  0  0
   57.8360   34.2250   46.7600 C   0  0  0  0  0  0  0  0  0  0  0  0
   57.9080   33.1620   45.6960 C   0  0  0  0  0  0  0  0  0  0  0  0
   57.8050   33.5190   44.3400 C   0  0  0  0  0  0  0  0  0  0  0  0
   57.8490   32.5350   43.3460 C   0  0  0  0  0  0  0  0  0  0  0  0
   57.9910   31.1890   43.6990 C   0  0  0  0  0  0  0  0  0  0  0  0
   58.0850   30.8260   45.0460 C   0  0  0  0  0  0  0  0  0  0  0  0
   58.0430   31.8070   46.0430 C   0  0  0  0  0  0  0  0  0  0  0  0
   59.6860   34.8620   48.2620 C   0  0  0  0  0  0  0  0  0  0  0  0
   60.1660   33.4430   48.6480 C   0  0  0  0  0  0  0  0  0  0  0  0
   60.7030   29.0640   46.2890 C   0  0  0  0  0  0  0  0  0  0  0  0
   60.0220   27.8790   45.9930 C   0  0  0  0  0  0  0  0  0  0  0  0
   57.4630   23.2460   44.6470 C   0  0  0  0  0  0  0  0  0  0  0  0
   59.7006   22.2853   45.9762 H   0  0  0  0  0  0  0  0  0  0  0  0
   60.3308   21.3930   44.5502 H   0  0  0  0  0  0  0  0  0  0  0  0
   60.3139   23.1892   44.5502 H   0  0  0  0  0  0  0  0  0  0  0  0
   58.7461   20.4693   43.1134 H   0  0  0  0  0  0  0  0  0  0  0  0
   56.4392   20.4600   42.1524 H   0  0  0  0  0  0  0  0  0  0  0  0
   55.6941   24.7188   47.6191 H   0  0  0  0  0  0  0  0  0  0  0  0
   56.8281   23.9814   46.4315 H   0  0  0  0  0  0  0  0  0  0  0  0
   56.3970   26.9490   46.7810 H   0  0  0  0  0  0  0  0  0  0  0  0
   58.2921   27.5074   48.9207 H   0  0  0  0  0  0  0  0  0  0  0  0
   59.5299   29.5989   49.4530 H   0  0  0  0  0  0  0  0  0  0  0  0
   61.9885   33.8337   46.8049 H   0  0  0  0  0  0  0  0  0  0  0  0
   61.3355   32.6947   45.5733 H   0  0  0  0  0  0  0  0  0  0  0  0
   60.7381   35.3373   45.5792 H   0  0  0  0  0  0  0  0  0  0  0  0
   59.5682   34.0433   45.0382 H   0  0  0  0  0  0  0  0  0  0  0  0
   57.5797   33.7572   47.7220 H   0  0  0  0  0  0  0  0  0  0  0  0
   57.0667   34.9588   46.4777 H   0  0  0  0  0  0  0  0  0  0  0  0
   57.6893   34.5763   44.0593 H   0  0  0  0  0  0  0  0  0  0  0  0
   57.7719   32.8202   42.2864 H   0  0  0  0  0  0  0  0  0  0  0  0
   58.0287   30.4162   42.9171 H   0  0  0  0  0  0  0  0  0  0  0  0
   58.1922   29.7668   45.3226 H   0  0  0  0  0  0  0  0  0  0  0  0
   58.1159   31.5166   47.1015 H   0  0  0  0  0  0  0  0  0  0  0  0
   60.5385   35.5537   48.3312 H   0  0  0  0  0  0  0  0  0  0  0  0
   58.8801   35.1424   48.9561 H   0  0  0  0  0  0  0  0  0  0  0  0
   61.0996   33.5284   49.2234 H   0  0  0  0  0  0  0  0  0  0  0  0
   59.3731   32.9669   49.2435 H   0  0  0  0  0  0  0  0  0  0  0  0
   61.3859   29.5028   45.5466 H   0  0  0  0  0  0  0  0  0  0  0  0
   60.1830   27.3846   45.0237 H   0  0  0  0  0  0  0  0  0  0  0  0
   57.7392   24.0424   45.3538 H   0  0  0  0  0  0  0  0  0  0  0  0
  1  2  1  0
  2  3  1  0
  3  4  2  0
  4  5  1  0
  5  6  1  0
  6  7  2  3
  7  8  1  0
  8  9  2  0
  8 10  1  0
 10 11  1  0
 11 12  1  0
 12 13  2  0
 12 14  1  0
 14 15  2  0
 15 16  1  0
 16 17  2  0
 17 18  1  0
 18 19  2  0
 18 20  2  0
 18 21  1  0
 21 22  1  0
 22 23  1  0
 23 24  1  0
 24 25  1  0
 25 26  1  0
 26 27  2  0
 27 28  1  0
 28 29  2  0
 29 30  1  0
 30 31  2  0
 24 32  1  0
 32 33  1  0
 17 34  1  0
 34 35  2  0
  6 36  1  0
 36  2  2  0
 35 14  1  0
 33 21  1  0
 31 26  1  0
  1 37  1  0
  1 38  1  0
  1 39  1  0
  3 40  1  0
  4 41  1  0
 10 42  1  0
 10 43  1  0
 11 44  1  0
 15 45  1  0
 16 46  1  0
 22 47  1  0
 22 48  1  0
 23 49  1  0
 23 50  1  0
 25 51  1  0
 25 52  1  0
 27 53  1  0
 28 54  1  0
 29 55  1  0
 30 56  1  0
 31 57  1  0
 32 58  1  0
 32 59  1  0
 33 60  1  0
 33 61  1  0
 34 62  1  0
 35 63  1  0
 36 64  1  0
M  CHG  1   5  -1
M  END
>  <UniqueID>  (26) 
23

>  <SMILES>  (26) 
Cc1cc[n-]c(=NC(=O)CNC(=O)c2ccc(S(=O)(=O)N3CCN(Cc4ccccc4)CC3)cc2)c1

>  <Energy>  (26) 
84.5792897843876

>  <Genealogy>  (26) 
Cc1cc[n-]c(=NC(=O)CNC(=O)c2ccc(S(=O)(=O)N3CCN(Cc4ccccc4)CC3)cc2)c1 (protonated)
Cc1cc[n-]c(=NC(=O)CNC(=O)c2ccc(S(=O)(=O)N3CCN(Cc4ccccc4)CC3)cc2)c1 (3D coordinates assigned)
Cc1cc[n-]c(=NC(=O)CNC(=O)c2ccc(S(=O)(=O)N3CCN(Cc4ccccc4)CC3)cc2)c1 (nonaromatic ring conformer: 84.5792897843876 kcal/mol)

>  <smiles>  (26) 
Cc1cc[nH]c(=NC(=O)CNC(=O)c2ccc(S(=O)(=O)N3CCN(Cc4ccccc4)CC3)cc2)c1

>  <score_type>  (26) 
oracle

>  <origin>  (26) 
adg

>  <m_score__min__energy>  (26) 
-11.92

>  <m_primary>  (26) 
energy

$$$$
26:0
     RDKit          3D

 40 41  0  0  0  0  0  0  0  0999 V2000
   59.2700   34.4380   48.5420 C   0  0  0  0  0  0  0  0  0  0  0  0
   60.0350   34.2230   47.2320 C   0  0  2  0  0  0  0  0  0  0  0  0
   59.4010   33.1670   46.4440 N   0  0  0  0  0  0  0  0  0  0  0  0
   58.4650   33.3530   45.3720 C   0  0  0  0  0  0  0  0  0  0  0  0
   58.7070   34.2400   44.5110 O   0  0  0  0  0  0  0  0  0  0  0  0
   57.1630   32.5990   45.3020 C   0  0  0  0  0  0  0  0  0  0  0  0
   57.4000   31.1680   45.1440 N   0  0  0  0  0  0  0  0  0  0  0  0
   56.4800   30.2870   44.4910 C   0  0  0  0  0  0  0  0  0  0  0  0
   55.2550   30.5770   44.4240 O   0  0  0  0  0  0  0  0  0  0  0  0
   56.9860   29.0370   43.8450 C   0  0  0  0  0  0  0  0  0  0  0  0
   57.6690   28.1660   44.8670 C   0  0  0  0  0  0  0  0  0  0  0  0
   59.0660   28.2230   45.0100 C   0  0  0  0  0  0  0  0  0  0  0  0
   59.7110   27.4450   45.9740 C   0  0  0  0  0  0  0  0  0  0  0  0
   58.9670   26.6100   46.8120 C   0  0  0  0  0  0  0  0  0  0  0  0
   57.5770   26.5540   46.6880 C   0  0  0  0  0  0  0  0  0  0  0  0
   56.9240   27.3320   45.7250 C   0  0  0  0  0  0  0  0  0  0  0  0
   55.5370   27.2680   45.6280 O   0  0  0  0  0  0  0  0  0  0  0  0
   61.4680   33.8430   47.5280 C   0  0  0  0  0  0  0  0  0  0  0  0
   62.3480   33.4810   46.4910 C   0  0  0  0  0  0  0  0  0  0  0  0
   63.6650   33.1070   46.7780 C   0  0  0  0  0  0  0  0  0  0  0  0
   64.1130   33.0790   48.1010 C   0  0  0  0  0  0  0  0  0  0  0  0
   63.2440   33.4220   49.1390 C   0  0  0  0  0  0  0  0  0  0  0  0
   61.9270   33.7990   48.8580 C   0  0  0  0  0  0  0  0  0  0  0  0
   59.9406   34.2495   49.3934 H   0  0  0  0  0  0  0  0  0  0  0  0
   58.9031   35.4741   48.5866 H   0  0  0  0  0  0  0  0  0  0  0  0
   58.4171   33.7448   48.5866 H   0  0  0  0  0  0  0  0  0  0  0  0
   60.0181   35.1602   46.6563 H   0  0  0  0  0  0  0  0  0  0  0  0
   56.5968   32.7704   46.2294 H   0  0  0  0  0  0  0  0  0  0  0  0
   56.5933   32.9598   44.4329 H   0  0  0  0  0  0  0  0  0  0  0  0
   56.1410   28.4872   43.4048 H   0  0  0  0  0  0  0  0  0  0  0  0
   57.7082   29.3046   43.0597 H   0  0  0  0  0  0  0  0  0  0  0  0
   59.6553   28.8848   44.3583 H   0  0  0  0  0  0  0  0  0  0  0  0
   60.8056   27.4895   46.0737 H   0  0  0  0  0  0  0  0  0  0  0  0
   59.4764   25.9965   47.5697 H   0  0  0  0  0  0  0  0  0  0  0  0
   56.9936   25.8964   47.3492 H   0  0  0  0  0  0  0  0  0  0  0  0
   61.9979   33.4922   45.4483 H   0  0  0  0  0  0  0  0  0  0  0  0
   64.3490   32.8345   45.9607 H   0  0  0  0  0  0  0  0  0  0  0  0
   65.1496   32.7870   48.3249 H   0  0  0  0  0  0  0  0  0  0  0  0
   63.5965   33.3956   50.1807 H   0  0  0  0  0  0  0  0  0  0  0  0
   61.2461   34.0626   49.6807 H   0  0  0  0  0  0  0  0  0  0  0  0
  1  2  1  0
  2  3  1  0
  3  4  1  0
  4  5  2  0
  4  6  1  0
  6  7  1  0
  7  8  1  0
  8  9  2  0
  8 10  1  0
 10 11  1  0
 11 12  2  0
 12 13  1  0
 13 14  2  0
 14 15  1  0
 15 16  2  0
 16 17  1  0
  2 18  1  0
 18 19  2  0
 19 20  1  0
 20 21  2  0
 21 22  1  0
 22 23  2  0
 16 11  1  0
 23 18  1  0
  1 24  1  0
  1 25  1  0
  1 26  1  0
  2 27  1  6
  6 28  1  0
  6 29  1  0
 10 30  1  0
 10 31  1  0
 12 32  1  0
 13 33  1  0
 14 34  1  0
 15 35  1  0
 19 36  1  0
 20 37  1  0
 21 38  1  0
 22 39  1  0
 23 40  1  0
M  CHG  3   3  -1   7  -1  17  -1
M  END
>  <UniqueID>  (27) 
24

>  <SMILES>  (27) 
C[C@H]([N-]C(=O)C[N-]C(=O)Cc1ccccc1[O-])c1ccccc1

>  <Energy>  (27) 
34.59496055841124

>  <Genealogy>  (27) 
CC([N-]C(=O)C[N-]C(=O)Cc1ccccc1[O-])c1ccccc1 (protonated)
C[C@H]([N-]C(=O)C[N-]C(=O)Cc1ccccc1[O-])c1ccccc1 (chirality)
C[C@H]([N-]C(=O)C[N-]C(=O)Cc1ccccc1[O-])c1ccccc1 (3D coordinates assigned)
C[C@H]([N-]C(=O)C[N-]C(=O)Cc1ccccc1[O-])c1ccccc1 (optimized conformer: 34.59496055841124 kcal/mol)

>  <smiles>  (27) 
CC(NC(=O)CNC(=O)Cc1ccccc1O)c1ccccc1

>  <score_type>  (27) 
oracle

>  <origin>  (27) 
adg

>  <m_score__min__energy>  (27) 
-14.24

>  <m_primary>  (27) 
energy

$$$$
27:0
     RDKit          3D

 69 73  0  0  0  0  0  0  0  0999 V2000
   60.5114   25.6194   46.9378 H   0  0  0  0  0  0  0  0  0  0  0  0
   59.6280   26.2700   47.0180 C   0  0  0  0  0  0  0  0  0  0  0  0
   58.3910   25.7920   46.3690 C   0  0  0  0  0  0  0  0  0  0  0  0
   58.3800   24.5890   45.6410 C   0  0  0  0  0  0  0  0  0  0  0  0
   59.3099   24.0153   45.5143 H   0  0  0  0  0  0  0  0  0  0  0  0
   57.1890   24.1210   45.0780 C   0  0  0  0  0  0  0  0  0  0  0  0
   57.1878   23.1898   44.4925 H   0  0  0  0  0  0  0  0  0  0  0  0
   56.0000   24.8330   45.2570 C   0  0  0  0  0  0  0  0  0  0  0  0
   55.0656   24.4660   44.8073 H   0  0  0  0  0  0  0  0  0  0  0  0
   55.9990   26.0120   46.0080 C   0  0  0  0  0  0  0  0  0  0  0  0
   54.8140   26.7130   46.1990 O   0  0  0  0  0  0  0  0  0  0  0  0
   57.1890   26.4860   46.5710 C   0  0  0  0  0  0  0  0  0  0  0  0
   57.1818   27.4060   47.1740 H   0  0  0  0  0  0  0  0  0  0  0  0
   59.7870   27.4400   47.7090 C   0  0  0  0  0  0  0  0  0  0  0  0
   60.2160   27.4300   49.0650 C   0  0  0  0  0  0  0  0  0  0  0  0
   60.4950   26.3570   49.6660 O   0  0  0  0  0  0  0  0  0  0  0  0
   60.3840   28.5950   49.7360 N   0  0  0  0  0  0  0  0  0  0  0  0
   60.6940   28.5370   50.7360 H   0  0  0  0  0  0  0  0  0  0  0  0
   60.2160   29.8070   49.1470 C   0  0  0  0  0  0  0  0  0  0  0  0
   60.4350   30.9160   49.9000 C   0  0  0  0  0  0  0  0  0  0  0  0
   59.5481   31.4508   50.2706 H   0  0  0  0  0  0  0  0  0  0  0  0
   61.7530   31.4700   50.2670 C   0  0  0  0  0  0  0  0  0  0  0  0
   62.4560   30.9170   51.3500 C   0  0  0  0  0  0  0  0  0  0  0  0
   62.0534   30.0360   51.8713 H   0  0  0  0  0  0  0  0  0  0  0  0
   63.6630   31.4800   51.7680 C   0  0  0  0  0  0  0  0  0  0  0  0
   64.2163   31.0326   52.6069 H   0  0  0  0  0  0  0  0  0  0  0  0
   64.1690   32.6100   51.1230 C   0  0  0  0  0  0  0  0  0  0  0  0
   65.1187   33.0538   51.4563 H   0  0  0  0  0  0  0  0  0  0  0  0
   63.4700   33.1780   50.0540 C   0  0  0  0  0  0  0  0  0  0  0  0
   63.8703   34.0716   49.5527 H   0  0  0  0  0  0  0  0  0  0  0  0
   62.2610   32.6160   49.6160 C   0  0  0  0  0  0  0  0  0  0  0  0
   61.5700   33.2040   48.5000 N   0  0  0  0  0  0  0  0  0  0  0  0
   60.4490   34.1270   48.7290 C   0  0  0  0  0  0  0  0  0  0  0  0
   60.8000   35.1634   48.6167 H   0  0  0  0  0  0  0  0  0  0  0  0
   60.0564   33.9779   49.7457 H   0  0  0  0  0  0  0  0  0  0  0  0
   59.3390   33.8530   47.7120 C   0  0  0  0  0  0  0  0  0  0  0  0
   58.5450   34.6022   47.8469 H   0  0  0  0  0  0  0  0  0  0  0  0
   58.9690   32.8325   47.8900 H   0  0  0  0  0  0  0  0  0  0  0  0
   59.8430   33.9210   46.2430 C   0  0  0  0  0  0  0  0  0  0  0  0
   59.4280   33.0323   45.7450 H   0  0  0  0  0  0  0  0  0  0  0  0
   59.3460   35.1660   45.5590 C   0  0  0  0  0  0  0  0  0  0  0  0
   58.3870   35.1010   44.7450 O   0  0  0  0  0  0  0  0  0  0  0  0
   59.9600   36.3900   45.7960 O   0  0  0  0  0  0  0  0  0  0  0  0
   61.3810   33.8380   46.1170 C   0  0  0  0  0  0  0  0  0  0  0  0
   61.8070   34.8375   46.2888 H   0  0  0  0  0  0  0  0  0  0  0  0
   61.6228   33.4740   45.1075 H   0  0  0  0  0  0  0  0  0  0  0  0
   61.9820   32.8610   47.1330 C   0  0  0  0  0  0  0  0  0  0  0  0
   63.0792   32.9029   47.0668 H   0  0  0  0  0  0  0  0  0  0  0  0
   61.6204   31.8482   46.9016 H   0  0  0  0  0  0  0  0  0  0  0  0
   59.8000   29.8420   47.7950 C   0  0  0  0  0  0  0  0  0  0  0  0
   59.6010   30.9520   47.2270 O   0  0  0  0  0  0  0  0  0  0  0  0
   59.5870   28.6720   47.0950 N   0  0  0  0  0  0  0  0  0  0  0  0
   59.1250   28.8080   45.6860 C   0  0  0  0  0  0  0  0  0  0  0  0
   59.8252   29.4596   45.1427 H   0  0  0  0  0  0  0  0  0  0  0  0
   59.0918   27.8039   45.2380 H   0  0  0  0  0  0  0  0  0  0  0  0
   57.7130   29.4160   45.6050 C   0  0  0  0  0  0  0  0  0  0  0  0
   56.9831   28.6000   45.4983 H   0  0  0  0  0  0  0  0  0  0  0  0
   57.5438   29.9921   46.5267 H   0  0  0  0  0  0  0  0  0  0  0  0
   57.5570   30.3580   44.4420 C   0  0  0  0  0  0  0  0  0  0  0  0
   58.2330   31.5910   44.4310 C   0  0  0  0  0  0  0  0  0  0  0  0
   58.8501   31.8851   45.2928 H   0  0  0  0  0  0  0  0  0  0  0  0
   58.1240   32.4440   43.3300 C   0  0  0  0  0  0  0  0  0  0  0  0
   58.6550   33.4074   43.3269 H   0  0  0  0  0  0  0  0  0  0  0  0
   57.3410   32.0750   42.2320 C   0  0  0  0  0  0  0  0  0  0  0  0
   57.2556   32.7480   41.3661 H   0  0  0  0  0  0  0  0  0  0  0  0
   56.6670   30.8510   42.2350 C   0  0  0  0  0  0  0  0  0  0  0  0
   56.0516   30.5613   41.3705 H   0  0  0  0  0  0  0  0  0  0  0  0
   56.7730   29.9940   43.3340 C   0  0  0  0  0  0  0  0  0  0  0  0
   56.2409   29.0313   43.3316 H   0  0  0  0  0  0  0  0  0  0  0  0
  1  2  1  0
  2  3  1  0
  3  4  2  0
  4  5  1  0
  4  6  1  0
  6  7  1  0
  6  8  2  0
  8  9  1  0
  8 10  1  0
 10 11  1  0
 10 12  2  0
 12 13  1  0
  2 14  2  3
 14 15  1  0
 15 16  2  0
 15 17  1  0
 17 18  1  0
 17 19  1  0
 19 20  2  0
 20 21  1  0
 20 22  1  0
 22 23  2  0
 23 24  1  0
 23 25  1  0
 25 26  1  0
 25 27  2  0
 27 28  1  0
 27 29  1  0
 29 30  1  0
 29 31  2  0
 31 32  1  0
 32 33  1  0
 33 34  1  0
 33 35  1  0
 33 36  1  0
 36 37  1  0
 36 38  1  0
 36 39  1  0
 39 40  1  0
 39 41  1  0
 41 42  2  0
 41 43  1  0
 39 44  1  0
 44 45  1  0
 44 46  1  0
 44 47  1  0
 47 48  1  0
 47 49  1  0
 19 50  1  0
 50 51  2  0
 50 52  1  0
 52 53  1  0
 53 54  1  0
 53 55  1  0
 53 56  1  0
 56 57  1  0
 56 58  1  0
 56 59  1  0
 59 60  2  0
 60 61  1  0
 60 62  1  0
 62 63  1  0
 62 64  2  0
 64 65  1  0
 64 66  1  0
 66 67  1  0
 66 68  2  0
 68 69  1  0
 12  3  1  0
 52 14  1  0
 68 59  1  0
 31 22  1  0
 47 32  1  0
M  CHG  2  11  -1  43  -1
M  END
>  <UniqueID>  (28) 
25

>  <SMILES>  (28) 
O=C([O-])C1CCN(c2ccccc2/C=c2/[nH]c(=O)c(=Cc3cccc([O-])c3)n(CCc3ccccc3)c2=O)CC1

>  <Energy>  (28) 
114.93138322325548

>  <Genealogy>  (28) 
O=C([O-])C1CCN(c2ccccc2C=c2[nH]c(=O)c(=Cc3cccc([O-])c3)n(CCc3ccccc3)c2=O)CC1 (protonated)
O=C([O-])C1CCN(c2ccccc2/C=c2/[nH]c(=O)c(=Cc3cccc([O-])c3)n(CCc3ccccc3)c2=O)CC1 (cis-trans isomerization)
O=C([O-])C1CCN(c2ccccc2/C=c2/[nH]c(=O)c(=Cc3cccc([O-])c3)n(CCc3ccccc3)c2=O)CC1 (3D coordinates assigned)
O=C([O-])C1CCN(c2ccccc2/C=c2/[nH]c(=O)c(=Cc3cccc([O-])c3)n(CCc3ccccc3)c2=O)CC1 (nonaromatic ring conformer: 114.93138322325548 kcal/mol)

>  <smiles>  (28) 
O=C(O)C1CCN(c2ccccc2C=c2[nH]c(=O)c(=Cc3cccc(O)c3)n(CCc3ccccc3)c2=O)CC1

>  <score_type>  (28) 
oracle

>  <origin>  (28) 
adg

>  <m_score__min__energy>  (28) 
-16.079999999999998

>  <m_primary>  (28) 
energy

$$$$
28:0
     RDKit          3D

 49 51  0  0  0  0  0  0  0  0999 V2000
   61.2160   30.9620   48.8930 H   0  0  0  0  0  0  0  0  0  0  0  0
   60.8310   30.1490   49.4160 N   0  0  0  0  0  0  0  0  0  0  0  0
   60.1410   29.1000   48.7320 C   0  0  0  0  0  0  0  0  0  0  0  0
   60.7570   28.0480   48.4020 O   0  0  0  0  0  0  0  0  0  0  0  0
   58.6760   29.2380   48.4460 C   0  0  0  0  0  0  0  0  0  0  0  0
   58.4138   30.3059   48.4151 H   0  0  0  0  0  0  0  0  0  0  0  0
   58.1125   28.7276   49.2410 H   0  0  0  0  0  0  0  0  0  0  0  0
   58.3340   28.6200   47.1550 N   0  0  0  0  0  0  0  0  0  0  0  0
   58.1050   29.2890   45.9960 C   0  0  0  0  0  0  0  0  0  0  0  0
   58.0920   30.7520   45.8540 C   0  0  0  0  0  0  0  0  0  0  0  0
   57.1310   31.2930   45.2420 O   0  0  0  0  0  0  0  0  0  0  0  0
   59.1570   31.5610   46.4000 N   0  0  0  0  0  0  0  0  0  0  0  0
   58.9570   33.0010   46.5890 C   0  0  0  0  0  0  0  0  0  0  0  0
   59.3042   33.5350   45.6922 H   0  0  0  0  0  0  0  0  0  0  0  0
   57.8864   33.1917   46.7547 H   0  0  0  0  0  0  0  0  0  0  0  0
   59.7450   33.5010   47.8120 C   0  0  0  0  0  0  0  0  0  0  0  0
   59.8358   34.5949   47.7396 H   0  0  0  0  0  0  0  0  0  0  0  0
   59.1852   33.1762   48.7015 H   0  0  0  0  0  0  0  0  0  0  0  0
   61.1200   32.9240   47.9370 N   0  0  0  0  0  0  0  0  0  0  0  0
   62.1360   33.9720   48.2370 C   0  0  0  0  0  0  0  0  0  0  0  0
   62.5154   34.3871   47.2917 H   0  0  0  0  0  0  0  0  0  0  0  0
   61.6610   34.7606   48.8391 H   0  0  0  0  0  0  0  0  0  0  0  0
   63.3090   33.3840   49.0350 C   0  0  0  0  0  0  0  0  0  0  0  0
   64.2305   33.4644   48.4397 H   0  0  0  0  0  0  0  0  0  0  0  0
   63.4207   33.9435   49.9755 H   0  0  0  0  0  0  0  0  0  0  0  0
   63.0630   32.0310   49.3310 O   0  0  0  0  0  0  0  0  0  0  0  0
   62.0880   31.8930   49.2090 H   0  0  0  0  0  0  0  0  0  0  0  0
   61.5360   32.1210   46.7660 C   0  0  0  0  0  0  0  0  0  0  0  0
   61.6095   32.7764   45.8856 H   0  0  0  0  0  0  0  0  0  0  0  0
   62.5121   31.6608   46.9794 H   0  0  0  0  0  0  0  0  0  0  0  0
   60.5170   31.0120   46.4850 C   0  0  0  0  0  0  0  0  0  0  0  0
   60.7689   30.5241   45.5319 H   0  0  0  0  0  0  0  0  0  0  0  0
   60.5521   30.2844   47.3093 H   0  0  0  0  0  0  0  0  0  0  0  0
   57.8030   28.4110   44.9790 C   0  0  0  0  0  0  0  0  0  0  0  0
   57.5842   28.6693   43.9324 H   0  0  0  0  0  0  0  0  0  0  0  0
   57.8280   27.1390   45.5290 C   0  0  0  0  0  0  0  0  0  0  0  0
   57.5170   26.0340   44.8200 C   0  0  0  0  0  0  0  0  0  0  0  0
   58.1464   25.7998   43.9488 H   0  0  0  0  0  0  0  0  0  0  0  0
   56.4050   25.1160   45.1160 C   0  0  0  0  0  0  0  0  0  0  0  0
   56.3790   23.8300   44.7240 N   0  0  0  0  0  0  0  0  0  0  0  0
   55.1360   23.4230   45.0750 C   0  0  0  0  0  0  0  0  0  0  0  0
   54.7260   22.2480   44.8760 O   0  0  0  0  0  0  0  0  0  0  0  0
   54.3570   24.3810   45.6300 N   0  0  0  0  0  0  0  0  0  0  0  0
   55.1700   25.4510   45.6400 C   0  0  0  0  0  0  0  0  0  0  0  0
   54.7850   26.7140   46.0780 O   0  0  0  0  0  0  0  0  0  0  0  0
   58.2030   27.2920   46.8780 C   0  0  0  0  0  0  0  0  0  0  0  0
   58.5040   26.3140   47.7520 C   0  0  0  0  0  0  0  0  0  0  0  0
   58.7839   26.5668   48.7853 H   0  0  0  0  0  0  0  0  0  0  0  0
   58.4701   25.2618   47.4331 H   0  0  0  0  0  0  0  0  0  0  0  0
  1  2  1  0
  2  3  1  0
  3  4  2  0
  3  5  1  0
  5  6  1  0
  5  7  1  0
  5  8  1  0
  8  9  1  0
  9 10  1  0
 10 11  2  0
 10 12  1  0
 12 13  1  0
 13 14  1  0
 13 15  1  0
 13 16  1  0
 16 17  1  0
 16 18  1  0
 16 19  1  0
 19 20  1  0
 20 21  1  0
 20 22  1  0
 20 23  1  0
 23 24  1  0
 23 25  1  0
 23 26  1  0
 26 27  1  0
 19 28  1  0
 28 29  1  0
 28 30  1  0
 28 31  1  0
 31 32  1  0
 31 33  1  0
  9 34  2  0
 34 35  1  0
 34 36  1  0
 36 37  2  0
 37 38  1  0
 37 39  1  0
 39 40  1  0
 40 41  1  0
 41 42  2  0
 41 43  1  0
 43 44  1  0
 44 45  1  0
 36 46  1  0
 46 47  2  0
 47 48  1  0
 47 49  1  0
 46  8  1  0
 31 12  1  0
 44 39  2  0
M  CHG  4   2  -1  40  -1  43  -1  45  -1
M  END
>  <UniqueID>  (29) 
26

>  <SMILES>  (29) 
C=c1/c(=C\c2[n-]c(=O)[n-]c2[O-])cc(C(=O)N2CCN(CCO)CC2)n1CC([NH-])=O

>  <Energy>  (29) 
129.70652834788305

>  <Genealogy>  (29) 
C=c1c(=Cc2[n-]c(=O)[n-]c2[O-])cc(C(=O)N2CCN(CCO)CC2)n1CC([NH-])=O (protonated)
C=c1/c(=C\c2[n-]c(=O)[n-]c2[O-])cc(C(=O)N2CCN(CCO)CC2)n1CC([NH-])=O (cis-trans isomerization)
C=c1/c(=C\c2[n-]c(=O)[n-]c2[O-])cc(C(=O)N2CCN(CCO)CC2)n1CC([NH-])=O (3D coordinates assigned)
C=c1/c(=C\c2[n-]c(=O)[n-]c2[O-])cc(C(=O)N2CCN(CCO)CC2)n1CC([NH-])=O (nonaromatic ring conformer: 129.70652834788305 kcal/mol)

>  <smiles>  (29) 
C=c1c(=Cc2[nH]c(=O)[nH]c2O)cc(C(=O)N2CCN(CCO)CC2)n1CC(N)=O

>  <score_type>  (29) 
oracle

>  <origin>  (29) 
adg

>  <m_score__min__energy>  (29) 
-14.94

>  <m_primary>  (29) 
energy

$$$$
29:0
     RDKit          3D

 54 57  0  0  0  0  0  0  0  0999 V2000
   53.1820   29.5460   55.6490 C   0  0  0  0  0  0  0  0  0  0  0  0
   53.9130   29.8170   54.5560 C   0  0  0  0  0  0  0  0  0  0  0  0
   53.4280   30.1270   53.2750 C   0  0  0  0  0  0  0  0  0  0  0  0
   52.1910   30.4440   52.8500 C   0  0  0  0  0  0  0  0  0  0  0  0
   51.8410   30.8830   51.4890 C   0  0  0  0  0  0  0  0  0  0  0  0
   51.8720   30.0880   50.4020 N   0  0  0  0  0  0  0  0  0  0  0  0
   51.3490   30.8670   49.4310 C   0  0  0  0  0  0  0  0  0  0  0  0
   51.2220   30.4740   48.2420 O   0  0  0  0  0  0  0  0  0  0  0  0
   50.9630   32.0950   49.8360 N   0  0  0  0  0  0  0  0  0  0  0  0
   51.2690   32.0870   51.1440 C   0  0  0  0  0  0  0  0  0  0  0  0
   51.0270   33.1610   51.9950 O   0  0  0  0  0  0  0  0  0  0  0  0
   54.5160   30.0540   52.4230 C   0  0  0  0  0  0  0  0  0  0  0  0
   55.6220   29.7810   53.2020 C   0  0  0  0  0  0  0  0  0  0  0  0
   56.9830   29.5630   52.6660 C   0  0  0  0  0  0  0  0  0  0  0  0
   57.6820   28.6270   53.1380 O   0  0  0  0  0  0  0  0  0  0  0  0
   57.5120   30.3900   51.6100 N   0  0  0  0  0  0  0  0  0  0  0  0
   58.5630   29.8800   50.7190 C   0  0  0  0  0  0  0  0  0  0  0  0
   59.8440   30.7220   50.8430 C   0  0  0  0  0  0  0  0  0  0  0  0
   59.5660   32.2180   51.1520 C   0  0  0  0  0  0  0  0  0  0  0  0
   60.6580   33.1630   50.5940 C   0  0  0  0  0  0  0  0  0  0  0  0
   60.5320   33.4640   49.1170 C   0  0  0  0  0  0  0  0  0  0  0  0
   61.2360   32.6950   48.1740 C   0  0  0  0  0  0  0  0  0  0  0  0
   61.1200   32.9730   46.8080 C   0  0  0  0  0  0  0  0  0  0  0  0
   60.2930   34.0120   46.3720 C   0  0  0  0  0  0  0  0  0  0  0  0
   60.1800   34.2790   45.0470 F   0  0  0  0  0  0  0  0  0  0  0  0
   59.5760   34.7700   47.3020 C   0  0  0  0  0  0  0  0  0  0  0  0
   59.6900   34.4960   48.6680 C   0  0  0  0  0  0  0  0  0  0  0  0
   58.1420   32.6320   50.7310 C   0  0  0  0  0  0  0  0  0  0  0  0
   57.1040   31.8020   51.5020 C   0  0  0  0  0  0  0  0  0  0  0  0
   55.2630   29.6600   54.5030 N   0  0  0  0  0  0  0  0  0  0  0  0
   56.1580   29.3350   55.6190 C   0  0  0  0  0  0  0  0  0  0  0  0
   53.6816   29.3162   56.6017 H   0  0  0  0  0  0  0  0  0  0  0  0
   52.0835   29.5537   55.5918 H   0  0  0  0  0  0  0  0  0  0  0  0
   51.3725   30.3688   53.5811 H   0  0  0  0  0  0  0  0  0  0  0  0
   51.3750   33.1700   52.9460 H   0  0  0  0  0  0  0  0  0  0  0  0
   54.5020   30.1882   51.3313 H   0  0  0  0  0  0  0  0  0  0  0  0
   58.7895   28.8379   50.9888 H   0  0  0  0  0  0  0  0  0  0  0  0
   58.2030   29.9387   49.6813 H   0  0  0  0  0  0  0  0  0  0  0  0
   60.4585   30.3058   51.6549 H   0  0  0  0  0  0  0  0  0  0  0  0
   60.3582   30.6793   49.8715 H   0  0  0  0  0  0  0  0  0  0  0  0
   59.6177   32.3290   52.2452 H   0  0  0  0  0  0  0  0  0  0  0  0
   60.6034   34.1139   51.1443 H   0  0  0  0  0  0  0  0  0  0  0  0
   61.6187   32.6438   50.7267 H   0  0  0  0  0  0  0  0  0  0  0  0
   61.8812   31.8707   48.5119 H   0  0  0  0  0  0  0  0  0  0  0  0
   61.6804   32.3731   46.0759 H   0  0  0  0  0  0  0  0  0  0  0  0
   58.9206   35.5839   46.9583 H   0  0  0  0  0  0  0  0  0  0  0  0
   59.1179   35.0910   49.3951 H   0  0  0  0  0  0  0  0  0  0  0  0
   57.9924   33.6991   50.9524 H   0  0  0  0  0  0  0  0  0  0  0  0
   58.0181   32.4538   49.6526 H   0  0  0  0  0  0  0  0  0  0  0  0
   56.9923   32.2199   52.5134 H   0  0  0  0  0  0  0  0  0  0  0  0
   56.1519   31.8445   50.9527 H   0  0  0  0  0  0  0  0  0  0  0  0
   55.6401   29.5231   56.5711 H   0  0  0  0  0  0  0  0  0  0  0  0
   56.4459   28.2749   55.5614 H   0  0  0  0  0  0  0  0  0  0  0  0
   57.0590   29.9633   55.5614 H   0  0  0  0  0  0  0  0  0  0  0  0
  1  2  2  0
  2  3  1  0
  3  4  2  3
  4  5  1  0
  5  6  1  0
  6  7  1  0
  7  8  2  0
  7  9  1  0
  9 10  1  0
 10 11  1  0
  3 12  1  0
 12 13  2  0
 13 14  1  0
 14 15  2  0
 14 16  1  0
 16 17  1  0
 17 18  1  0
 18 19  1  0
 19 20  1  0
 20 21  1  0
 21 22  2  0
 22 23  1  0
 23 24  2  0
 24 25  1  0
 24 26  1  0
 26 27  2  0
 19 28  1  0
 28 29  1  0
 13 30  1  0
 30 31  1  0
 30  2  1  0
 10  5  2  0
 29 16  1  0
 27 21  1  0
  1 32  1  0
  1 33  1  0
  4 34  1  0
 11 35  1  0
 12 36  1  0
 17 37  1  0
 17 38  1  0
 18 39  1  0
 18 40  1  0
 19 41  1  0
 20 42  1  0
 20 43  1  0
 22 44  1  0
 23 45  1  0
 26 46  1  0
 27 47  1  0
 28 48  1  0
 28 49  1  0
 29 50  1  0
 29 51  1  0
 31 52  1  0
 31 53  1  0
 31 54  1  0
M  CHG  2   6  -1   9  -1
M  END
>  <UniqueID>  (30) 
27

>  <SMILES>  (30) 
C=c1c(=Cc2[n-]c(=O)[n-]c2O)cc(C(=O)N2CCC(Cc3ccc(F)cc3)CC2)n1C

>  <Energy>  (30) 
133.2458922441177

>  <Genealogy>  (30) 
C=c1c(=Cc2[n-]c(=O)[n-]c2O)cc(C(=O)N2CCC(Cc3ccc(F)cc3)CC2)n1C (protonated)
C=c1c(=Cc2[n-]c(=O)[n-]c2O)cc(C(=O)N2CCC(Cc3ccc(F)cc3)CC2)n1C (3D coordinates assigned)
C=c1c(=Cc2[n-]c(=O)[n-]c2O)cc(C(=O)N2CCC(Cc3ccc(F)cc3)CC2)n1C (nonaromatic ring conformer: 133.2458922441177 kcal/mol)

>  <smiles>  (30) 
C=c1c(=Cc2[nH]c(=O)[nH]c2O)cc(C(=O)N2CCC(Cc3ccc(F)cc3)CC2)n1C

>  <score_type>  (30) 
oracle

>  <origin>  (30) 
adg

>  <m_score__min__energy>  (30) 
-14.039999999999999

>  <m_primary>  (30) 
energy

$$$$
30:0
     RDKit          3D

 44 46  0  0  0  0  0  0  0  0999 V2000
   53.9060   26.7060   46.3800 H   0  0  0  0  0  0  0  0  0  0  0  0
   54.7100   26.3360   45.8230 N   0  0  0  0  0  0  0  0  0  0  0  0
   55.8600   26.1110   46.3680 C   0  0  0  0  0  0  0  0  0  0  0  0
   56.8040   27.0890   46.4080 N   0  0  0  0  0  0  0  0  0  0  0  0
   58.0230   26.8780   46.9760 C   0  0  0  0  0  0  0  0  0  0  0  0
   59.0230   27.9670   46.9970 C   0  0  0  0  0  0  0  0  0  0  0  0
   60.2390   27.6970   47.2010 O   0  0  0  0  0  0  0  0  0  0  0  0
   58.6220   29.3310   46.7830 N   0  0  0  0  0  0  0  0  0  0  0  0
   57.6120   29.5590   46.6520 H   0  0  0  0  0  0  0  0  0  0  0  0
   59.5850   30.4320   46.7460 C   0  0  0  0  0  0  0  0  0  0  0  0
   59.9170   30.6573   47.7702 H   0  0  0  0  0  0  0  0  0  0  0  0
   60.4435   30.1334   46.1265 H   0  0  0  0  0  0  0  0  0  0  0  0
   58.9530   31.6680   46.1440 C   0  0  0  0  0  0  0  0  0  0  0  0
   58.3540   31.5500   44.8760 C   0  0  0  0  0  0  0  0  0  0  0  0
   58.3557   30.5766   44.3636 H   0  0  0  0  0  0  0  0  0  0  0  0
   57.7580   32.6510   44.2600 C   0  0  0  0  0  0  0  0  0  0  0  0
   57.2984   32.5433   43.2664 H   0  0  0  0  0  0  0  0  0  0  0  0
   57.7450   33.8860   44.9030 C   0  0  0  0  0  0  0  0  0  0  0  0
   57.2799   34.7544   44.4135 H   0  0  0  0  0  0  0  0  0  0  0  0
   58.3200   34.0250   46.1660 C   0  0  0  0  0  0  0  0  0  0  0  0
   58.3013   35.0041   46.6670 H   0  0  0  0  0  0  0  0  0  0  0  0
   58.9240   32.9270   46.8070 C   0  0  0  0  0  0  0  0  0  0  0  0
   59.5000   33.1290   48.1930 C   0  0  0  0  0  0  0  0  0  0  0  0
   58.7565   33.6401   48.8222 H   0  0  0  0  0  0  0  0  0  0  0  0
   59.7493   32.1461   48.6194 H   0  0  0  0  0  0  0  0  0  0  0  0
   60.7280   33.9460   48.1330 N   0  0  0  0  0  0  0  0  0  0  0  0
   61.5430   33.7470   49.3510 C   0  0  0  0  0  0  0  0  0  0  0  0
   61.0961   34.3131   50.1815 H   0  0  0  0  0  0  0  0  0  0  0  0
   61.5659   32.6738   49.5910 H   0  0  0  0  0  0  0  0  0  0  0  0
   62.9830   34.2350   49.1240 C   0  0  0  0  0  0  0  0  0  0  0  0
   62.9499   35.3115   48.9005 H   0  0  0  0  0  0  0  0  0  0  0  0
   63.5406   34.0041   50.0436 H   0  0  0  0  0  0  0  0  0  0  0  0
   63.6660   33.5810   48.0610 O   0  0  0  0  0  0  0  0  0  0  0  0
   62.8020   32.9390   47.1350 C   0  0  0  0  0  0  0  0  0  0  0  0
   63.3339   32.8279   46.1786 H   0  0  0  0  0  0  0  0  0  0  0  0
   62.5232   31.9661   47.5660 H   0  0  0  0  0  0  0  0  0  0  0  0
   61.5010   33.7200   46.8840 C   0  0  0  0  0  0  0  0  0  0  0  0
   61.7537   34.6956   46.4431 H   0  0  0  0  0  0  0  0  0  0  0  0
   60.8755   33.1218   46.2051 H   0  0  0  0  0  0  0  0  0  0  0  0
   58.3080   25.6220   47.5310 C   0  0  0  0  0  0  0  0  0  0  0  0
   59.2849   25.4225   47.9956 H   0  0  0  0  0  0  0  0  0  0  0  0
   57.3270   24.6300   47.4820 C   0  0  0  0  0  0  0  0  0  0  0  0
   57.5510   23.4920   47.9720 O   0  0  0  0  0  0  0  0  0  0  0  0
   56.1260   24.8920   46.9030 N   0  0  0  0  0  0  0  0  0  0  0  0
  1  2  1  0
  2  3  2  0
  3  4  1  0
  4  5  1  0
  5  6  1  0
  6  7  2  0
  6  8  1  0
  8  9  1  0
  8 10  1  0
 10 11  1  0
 10 12  1  0
 10 13  1  0
 13 14  2  0
 14 15  1  0
 14 16  1  0
 16 17  1  0
 16 18  2  0
 18 19  1  0
 18 20  1  0
 20 21  1  0
 20 22  2  0
 22 23  1  0
 23 24  1  0
 23 25  1  0
 23 26  1  0
 26 27  1  0
 27 28  1  0
 27 29  1  0
 27 30  1  0
 30 31  1  0
 30 32  1  0
 30 33  1  0
 33 34  1  0
 34 35  1  0
 34 36  1  0
 34 37  1  0
 37 38  1  0
 37 39  1  0
  5 40  2  0
 40 41  1  0
 40 42  1  0
 42 43  2  0
 42 44  1  0
 44  3  1  0
 22 13  1  0
 37 26  1  0
M  CHG  2   4  -1  44  -1
M  END
>  <UniqueID>  (31) 
28

>  <SMILES>  (31) 
[H]/N=c1\[n-]c(C(=O)NCc2ccccc2CN2CCOCC2)cc(=O)[n-]1

>  <Energy>  (31) 
60.010589158879924

>  <Genealogy>  (31) 
N=c1[n-]c(C(=O)NCc2ccccc2CN2CCOCC2)cc(=O)[n-]1 (protonated)
[H]/N=c1\[n-]c(C(=O)NCc2ccccc2CN2CCOCC2)cc(=O)[n-]1 (cis-trans isomerization)
[H]/N=c1\[n-]c(C(=O)NCc2ccccc2CN2CCOCC2)cc(=O)[n-]1 (3D coordinates assigned)
[H]/N=c1\[n-]c(C(=O)NCc2ccccc2CN2CCOCC2)cc(=O)[n-]1 (nonaromatic ring conformer: 60.010589158879924 kcal/mol)

>  <smiles>  (31) 
N=c1[nH]c(C(=O)NCc2ccccc2CN2CCOCC2)cc(=O)[nH]1

>  <score_type>  (31) 
oracle

>  <origin>  (31) 
adg

>  <m_score__min__energy>  (31) 
-12.630000000000001

>  <m_primary>  (31) 
energy

$$$$
31:0
     RDKit          3D

 53 56  0  0  0  0  0  0  0  0999 V2000
   57.7521   32.4626   51.9861 H   0  0  0  0  0  0  0  0  0  0  0  0
   56.6600   32.3330   52.0090 C   0  0  0  0  0  0  0  0  0  0  0  0
   56.0002   33.1900   51.8084 H   0  0  0  0  0  0  0  0  0  0  0  0
   56.1320   31.1280   52.2820 C   0  0  0  0  0  0  0  0  0  0  0  0
   54.7630   30.8160   52.3450 C   0  0  0  0  0  0  0  0  0  0  0  0
   53.6750   31.5210   51.9760 C   0  0  0  0  0  0  0  0  0  0  0  0
   53.5191   32.4947   52.4635 H   0  0  0  0  0  0  0  0  0  0  0  0
   52.6780   31.1030   50.9790 C   0  0  0  0  0  0  0  0  0  0  0  0
   52.8640   30.0820   50.1250 N   0  0  0  0  0  0  0  0  0  0  0  0
   51.7730   30.1380   49.3300 C   0  0  0  0  0  0  0  0  0  0  0  0
   51.5710   29.3160   48.3970 O   0  0  0  0  0  0  0  0  0  0  0  0
   50.9200   31.1470   49.6050 N   0  0  0  0  0  0  0  0  0  0  0  0
   51.5150   31.7590   50.6410 C   0  0  0  0  0  0  0  0  0  0  0  0
   51.0200   32.9070   51.2490 O   0  0  0  0  0  0  0  0  0  0  0  0
   54.6800   29.5380   52.8640 C   0  0  0  0  0  0  0  0  0  0  0  0
   53.7579   28.9829   53.0911 H   0  0  0  0  0  0  0  0  0  0  0  0
   55.9700   29.0910   53.0430 C   0  0  0  0  0  0  0  0  0  0  0  0
   56.3210   27.7080   53.5020 C   0  0  0  0  0  0  0  0  0  0  0  0
   56.3287   27.6775   54.6015 H   0  0  0  0  0  0  0  0  0  0  0  0
   55.5754   26.9948   53.1207 H   0  0  0  0  0  0  0  0  0  0  0  0
   57.3165   27.4367   53.1207 H   0  0  0  0  0  0  0  0  0  0  0  0
   56.8620   30.0450   52.6770 N   0  0  0  0  0  0  0  0  0  0  0  0
   58.3270   29.8840   52.7020 C   0  0  0  0  0  0  0  0  0  0  0  0
   58.7529   30.5681   53.4507 H   0  0  0  0  0  0  0  0  0  0  0  0
   58.5642   28.8413   52.9598 H   0  0  0  0  0  0  0  0  0  0  0  0
   58.9200   30.1970   51.3510 C   0  0  0  0  0  0  0  0  0  0  0  0
   58.5690   29.4270   50.2300 C   0  0  0  0  0  0  0  0  0  0  0  0
   57.8748   28.5814   50.3442 H   0  0  0  0  0  0  0  0  0  0  0  0
   59.0950   29.7270   48.9710 C   0  0  0  0  0  0  0  0  0  0  0  0
   58.8086   29.1208   48.0989 H   0  0  0  0  0  0  0  0  0  0  0  0
   59.9850   30.7960   48.8150 C   0  0  0  0  0  0  0  0  0  0  0  0
   60.6050   31.1910   47.2140 S   0  0  0  0  0  0  0  0  0  0  0  0
   60.4240   30.0010   46.3150 O   0  0  0  0  0  0  0  0  0  0  0  0
   62.0730   31.5090   47.2990 O   0  0  0  0  0  0  0  0  0  0  0  0
   59.7310   32.5570   46.5680 N   0  0  0  0  0  0  0  0  0  0  0  0
   60.0280   32.6750   45.5710 H   0  0  0  0  0  0  0  0  0  0  0  0
   58.2760   32.3020   46.6120 C   0  0  0  0  0  0  0  0  0  0  0  0
   58.0154   31.5799   45.8242 H   0  0  0  0  0  0  0  0  0  0  0  0
   58.0246   31.9035   47.6060 H   0  0  0  0  0  0  0  0  0  0  0  0
   57.4700   33.5980   46.3910 C   0  0  0  0  0  0  0  0  0  0  0  0
   56.6376   33.3907   45.7025 H   0  0  0  0  0  0  0  0  0  0  0  0
   57.0894   33.9437   47.3635 H   0  0  0  0  0  0  0  0  0  0  0  0
   58.2830   34.6130   45.8400 O   0  0  0  0  0  0  0  0  0  0  0  0
   59.2790   34.9900   46.7760 C   0  0  0  0  0  0  0  0  0  0  0  0
   59.9810   35.6803   46.2854 H   0  0  0  0  0  0  0  0  0  0  0  0
   58.7731   35.4662   47.6289 H   0  0  0  0  0  0  0  0  0  0  0  0
   60.0720   33.7780   47.3170 C   0  0  0  0  0  0  0  0  0  0  0  0
   61.1491   33.9760   47.2138 H   0  0  0  0  0  0  0  0  0  0  0  0
   59.8112   33.6284   48.3751 H   0  0  0  0  0  0  0  0  0  0  0  0
   60.3440   31.5650   49.9300 C   0  0  0  0  0  0  0  0  0  0  0  0
   61.0415   32.4074   49.8121 H   0  0  0  0  0  0  0  0  0  0  0  0
   59.8200   31.2670   51.1920 C   0  0  0  0  0  0  0  0  0  0  0  0
   60.1920   32.0240   52.2540 F   0  0  0  0  0  0  0  0  0  0  0  0
  1  2  1  0
  2  3  1  0
  2  4  2  0
  4  5  1  0
  5  6  2  0
  6  7  1  0
  6  8  1  0
  8  9  1  0
  9 10  1  0
 10 11  2  0
 10 12  1  0
 12 13  1  0
 13 14  1  0
  5 15  1  0
 15 16  1  0
 15 17  2  0
 17 18  1  0
 18 19  1  0
 18 20  1  0
 18 21  1  0
 17 22  1  0
 22 23  1  0
 23 24  1  0
 23 25  1  0
 23 26  1  0
 26 27  2  0
 27 28  1  0
 27 29  1  0
 29 30  1  0
 29 31  2  0
 31 32  1  0
 32 33  2  0
 32 34  2  0
 32 35  1  0
 35 36  1  0
 35 37  1  0
 37 38  1  0
 37 39  1  0
 37 40  1  0
 40 41  1  0
 40 42  1  0
 40 43  1  0
 43 44  1  0
 44 45  1  0
 44 46  1  0
 44 47  1  0
 47 48  1  0
 47 49  1  0
 31 50  1  0
 50 51  1  0
 50 52  2  0
 52 53  1  0
 22  4  1  0
 52 26  1  0
 13  8  2  0
 47 35  1  0
M  CHG  4   9  -1  12  -1  14  -1  35   1
M  END
>  <UniqueID>  (32) 
29

>  <SMILES>  (32) 
C=c1/c(=C\c2[n-]c(=O)[n-]c2[O-])cc(C)n1Cc1ccc(S(=O)(=O)[NH+]2CCOCC2)cc1F

>  <Energy>  (32) 
133.39757872793155

>  <Genealogy>  (32) 
C=c1c(=Cc2[n-]c(=O)[n-]c2[O-])cc(C)n1Cc1ccc(S(=O)(=O)[NH+]2CCOCC2)cc1F (protonated)
C=c1/c(=C\c2[n-]c(=O)[n-]c2[O-])cc(C)n1Cc1ccc(S(=O)(=O)[NH+]2CCOCC2)cc1F (cis-trans isomerization)
C=c1/c(=C\c2[n-]c(=O)[n-]c2[O-])cc(C)n1Cc1ccc(S(=O)(=O)[NH+]2CCOCC2)cc1F (3D coordinates assigned)
C=c1/c(=C\c2[n-]c(=O)[n-]c2[O-])cc(C)n1Cc1ccc(S(=O)(=O)[NH+]2CCOCC2)cc1F (nonaromatic ring conformer: 133.39757872793155 kcal/mol)

>  <smiles>  (32) 
C=c1c(=Cc2[nH]c(=O)[nH]c2O)cc(C)n1Cc1ccc(S(=O)(=O)N2CCOCC2)cc1F

>  <score_type>  (32) 
oracle

>  <origin>  (32) 
adg

>  <m_score__min__energy>  (32) 
-16.41

>  <m_primary>  (32) 
energy

$$$$
32:0
     RDKit          3D

 49 51  0  0  0  0  0  0  0  0999 V2000
   59.2520   35.1030   44.9790 C   0  0  0  0  0  0  0  0  0  0  0  0
   59.1520   34.3210   46.2630 C   0  0  0  0  0  0  0  0  0  0  0  0
   59.6330   34.9220   47.4420 C   0  0  0  0  0  0  0  0  0  0  0  0
   59.5840   34.2460   48.6610 C   0  0  0  0  0  0  0  0  0  0  0  0
   59.0540   32.9620   48.7250 C   0  0  0  0  0  0  0  0  0  0  0  0
   58.5660   32.3480   47.5710 C   0  0  0  0  0  0  0  0  0  0  0  0
   58.5980   33.0090   46.3260 C   0  0  0  0  0  0  0  0  0  0  0  0
   58.0480   32.2900   45.1380 C   0  0  0  0  0  0  0  0  0  0  0  0
   57.4370   31.0870   45.2330 N   0  0  0  0  0  0  0  0  0  0  0  0
   57.0920   30.7960   43.9670 C   0  0  0  0  0  0  0  0  0  0  0  0
   56.4180   29.5200   43.5520 C   0  0  0  0  0  0  0  0  0  0  0  0
   57.3930   28.4520   43.2780 N   0  0  0  0  0  0  0  0  0  0  0  0
   58.5890   28.5660   44.1350 C   0  0  0  0  0  0  0  0  0  0  0  0
   58.2920   28.1100   45.5750 C   0  0  1  0  0  0  0  0  0  0  0  0
   56.9370   27.3480   45.6410 C   0  0  0  0  0  0  0  0  0  0  0  0
   57.1900   25.9110   45.8180 N   0  0  0  0  0  0  0  0  0  0  0  0
   55.6950   25.0090   45.7830 S   0  0  0  0  0  0  0  0  0  0  0  0
   55.6440   23.8360   44.4380 C   0  0  0  0  0  0  0  0  0  0  0  0
   54.5400   25.9610   45.6400 O   0  0  0  0  0  0  0  0  0  0  0  0
   55.5450   24.2610   47.0780 O   0  0  0  0  0  0  0  0  0  0  0  0
   57.9190   25.6670   47.0770 C   0  0  0  0  0  0  0  0  0  0  0  0
   59.0470   26.6980   47.2650 C   0  0  0  0  0  0  0  0  0  0  0  0
   59.3740   27.3080   46.0330 O   0  0  0  0  0  0  0  0  0  0  0  0
   57.4960   31.8090   43.1350 C   0  0  0  0  0  0  0  0  0  0  0  0
   58.0980   32.7590   43.8710 N   0  0  0  0  0  0  0  0  0  0  0  0
   59.3884   36.1700   45.2092 H   0  0  0  0  0  0  0  0  0  0  0  0
   60.1112   34.7411   44.3952 H   0  0  0  0  0  0  0  0  0  0  0  0
   58.3294   34.9689   44.3952 H   0  0  0  0  0  0  0  0  0  0  0  0
   60.0529   35.9379   47.4011 H   0  0  0  0  0  0  0  0  0  0  0  0
   59.9650   34.7291   49.5728 H   0  0  0  0  0  0  0  0  0  0  0  0
   59.0194   32.4295   49.6869 H   0  0  0  0  0  0  0  0  0  0  0  0
   58.1496   31.3318   47.6336 H   0  0  0  0  0  0  0  0  0  0  0  0
   55.7479   29.1919   44.3603 H   0  0  0  0  0  0  0  0  0  0  0  0
   55.8552   29.7152   42.6273 H   0  0  0  0  0  0  0  0  0  0  0  0
   56.9370   27.5200   43.4170 H   0  0  0  0  0  0  0  0  0  0  0  0
   57.6850   28.5300   42.2750 H   0  0  0  0  0  0  0  0  0  0  0  0
   59.3895   27.9372   43.7181 H   0  0  0  0  0  0  0  0  0  0  0  0
   58.8969   29.6217   44.1621 H   0  0  0  0  0  0  0  0  0  0  0  0
   58.1965   28.9850   46.2348 H   0  0  0  0  0  0  0  0  0  0  0  0
   56.3464   27.7234   46.4897 H   0  0  0  0  0  0  0  0  0  0  0  0
   56.3801   27.5094   44.7062 H   0  0  0  0  0  0  0  0  0  0  0  0
   55.5996   22.8146   44.8438 H   0  0  0  0  0  0  0  0  0  0  0  0
   54.7532   24.0244   43.8208 H   0  0  0  0  0  0  0  0  0  0  0  0
   56.5478   23.9464   43.8208 H   0  0  0  0  0  0  0  0  0  0  0  0
   57.2171   25.7428   47.9205 H   0  0  0  0  0  0  0  0  0  0  0  0
   58.3636   24.6616   47.0375 H   0  0  0  0  0  0  0  0  0  0  0  0
   58.7158   27.4708   47.9743 H   0  0  0  0  0  0  0  0  0  0  0  0
   59.9378   26.1821   47.6526 H   0  0  0  0  0  0  0  0  0  0  0  0
   57.3512   31.8389   42.0450 H   0  0  0  0  0  0  0  0  0  0  0  0
  1  2  1  0
  2  3  2  0
  3  4  1  0
  4  5  2  0
  5  6  1  0
  6  7  2  0
  7  8  1  0
  8  9  2  0
  9 10  1  0
 10 11  1  0
 11 12  1  0
 12 13  1  0
 13 14  1  0
 14 15  1  0
 15 16  1  0
 16 17  1  0
 17 18  1  0
 17 19  2  0
 17 20  2  0
 16 21  1  0
 21 22  1  0
 22 23  1  0
 10 24  2  0
 24 25  1  0
  7  2  1  0
 25  8  1  0
 23 14  1  0
  1 26  1  0
  1 27  1  0
  1 28  1  0
  3 29  1  0
  4 30  1  0
  5 31  1  0
  6 32  1  0
 11 33  1  0
 11 34  1  0
 12 35  1  0
 12 36  1  0
 13 37  1  0
 13 38  1  0
 14 39  1  1
 15 40  1  0
 15 41  1  0
 18 42  1  0
 18 43  1  0
 18 44  1  0
 21 45  1  0
 21 46  1  0
 22 47  1  0
 22 48  1  0
 24 49  1  0
M  CHG  2  12   1  25  -1
M  END
>  <UniqueID>  (33) 
30

>  <SMILES>  (33) 
Cc1ccccc1-c1nc(C[NH2+]C[C@H]2CN(S(C)(=O)=O)CCO2)c[n-]1

>  <Energy>  (33) 
83.12311949735921

>  <Genealogy>  (33) 
Cc1ccccc1-c1nc(C[NH2+]CC2CN(S(C)(=O)=O)CCO2)c[n-]1 (protonated)
Cc1ccccc1-c1nc(C[NH2+]C[C@H]2CN(S(C)(=O)=O)CCO2)c[n-]1 (chirality)
Cc1ccccc1-c1nc(C[NH2+]C[C@H]2CN(S(C)(=O)=O)CCO2)c[n-]1 (3D coordinates assigned)
Cc1ccccc1-c1nc(C[NH2+]C[C@H]2CN(S(C)(=O)=O)CCO2)c[n-]1 (nonaromatic ring conformer: 83.12311949735921 kcal/mol)

>  <smiles>  (33) 
Cc1ccccc1-c1nc(CNCC2CN(S(C)(=O)=O)CCO2)c[nH]1

>  <score_type>  (33) 
oracle

>  <origin>  (33) 
adg

>  <m_score__min__energy>  (33) 
-9.0099999999999998

>  <m_primary>  (33) 
energy

$$$$
33:0
     RDKit          3D

 54 57  0  0  0  0  0  0  0  0999 V2000
   60.6650   26.4440   47.8430 O   0  0  0  0  0  0  0  0  0  0  0  0
   59.9070   27.3440   47.3900 C   0  0  0  0  0  0  0  0  0  0  0  0
   60.1930   28.7220   47.6470 N   0  0  0  0  0  0  0  0  0  0  0  0
   60.7110   29.6320   46.6310 C   0  0  0  0  0  0  0  0  0  0  0  0
   60.1580   31.0320   46.8500 C   0  0  0  0  0  0  0  0  0  0  0  0
   58.7990   31.3330   46.5340 C   0  0  0  0  0  0  0  0  0  0  0  0
   57.7850   30.2610   46.1700 C   0  0  0  0  0  0  0  0  0  0  0  0
   57.2580   30.4660   44.8200 N   0  0  0  0  0  0  0  0  0  0  0  0
   57.9130   31.2210   43.7630 C   0  0  0  0  0  0  0  0  0  0  0  0
   57.0110   31.0460   42.5150 C   0  0  0  0  0  0  0  0  0  0  0  0
   55.8980   30.1940   42.9200 N   0  0  0  0  0  0  0  0  0  0  0  0
   56.1000   29.8720   44.2780 C   0  0  0  0  0  0  0  0  0  0  0  0
   55.3190   29.1340   44.9350 O   0  0  0  0  0  0  0  0  0  0  0  0
   58.3800   32.6750   46.5140 C   0  0  0  0  0  0  0  0  0  0  0  0
   59.2430   33.6970   46.8940 C   0  0  0  0  0  0  0  0  0  0  0  0
   60.5310   33.4010   47.3230 C   0  0  0  0  0  0  0  0  0  0  0  0
   60.9970   32.0770   47.3360 C   0  0  0  0  0  0  0  0  0  0  0  0
   62.3310   31.8270   47.9310 C   0  0  0  0  0  0  0  0  0  0  0  0
   63.3290   31.6250   47.1850 O   0  0  0  0  0  0  0  0  0  0  0  0
   62.4700   31.7210   49.3520 N   0  0  0  0  0  0  0  0  0  0  0  0
   61.7180   32.5490   50.2840 C   0  0  0  0  0  0  0  0  0  0  0  0
   60.3460   31.9700   50.4720 C   0  0  0  0  0  0  0  0  0  0  0  0
   59.2700   32.8060   50.8110 C   0  0  0  0  0  0  0  0  0  0  0  0
   57.9970   32.2670   51.0190 C   0  0  0  0  0  0  0  0  0  0  0  0
   57.7910   30.8900   50.9020 C   0  0  0  0  0  0  0  0  0  0  0  0
   58.8600   30.0500   50.5810 C   0  0  0  0  0  0  0  0  0  0  0  0
   60.1350   30.5850   50.3720 C   0  0  0  0  0  0  0  0  0  0  0  0
   58.7240   26.9790   46.6000 C   0  0  0  0  0  0  0  0  0  0  0  0
   58.7470   26.4630   45.3160 C   0  0  0  0  0  0  0  0  0  0  0  0
   57.4330   26.2600   44.9590 C   0  0  0  0  0  0  0  0  0  0  0  0
   56.6860   26.6630   46.0470 C   0  0  0  0  0  0  0  0  0  0  0  0
   55.2980   26.6230   46.1200 O   0  0  0  0  0  0  0  0  0  0  0  0
   57.4600   27.1050   47.0550 N   0  0  0  0  0  0  0  0  0  0  0  0
   61.8088   29.6607   46.6944 H   0  0  0  0  0  0  0  0  0  0  0  0
   60.4019   29.2749   45.6376 H   0  0  0  0  0  0  0  0  0  0  0  0
   58.2715   29.2757   46.2192 H   0  0  0  0  0  0  0  0  0  0  0  0
   56.9486   30.3172   46.8822 H   0  0  0  0  0  0  0  0  0  0  0  0
   57.9879   32.2834   44.0382 H   0  0  0  0  0  0  0  0  0  0  0  0
   58.9381   30.8660   43.5807 H   0  0  0  0  0  0  0  0  0  0  0  0
   56.6369   32.0237   42.1772 H   0  0  0  0  0  0  0  0  0  0  0  0
   57.5708   30.5970   41.6813 H   0  0  0  0  0  0  0  0  0  0  0  0
   57.3565   32.9196   46.1937 H   0  0  0  0  0  0  0  0  0  0  0  0
   58.9049   34.7430   46.8548 H   0  0  0  0  0  0  0  0  0  0  0  0
   61.1932   34.2137   47.6563 H   0  0  0  0  0  0  0  0  0  0  0  0
   62.2396   32.5781   51.2520 H   0  0  0  0  0  0  0  0  0  0  0  0
   61.6337   33.5696   49.8824 H   0  0  0  0  0  0  0  0  0  0  0  0
   59.4294   33.8896   50.9133 H   0  0  0  0  0  0  0  0  0  0  0  0
   57.1560   32.9281   51.2752 H   0  0  0  0  0  0  0  0  0  0  0  0
   56.7880   30.4678   51.0625 H   0  0  0  0  0  0  0  0  0  0  0  0
   58.6985   28.9655   50.4925 H   0  0  0  0  0  0  0  0  0  0  0  0
   60.9757   29.9188   50.1284 H   0  0  0  0  0  0  0  0  0  0  0  0
   59.6370   26.2564   44.7034 H   0  0  0  0  0  0  0  0  0  0  0  0
   57.0571   25.8601   44.0057 H   0  0  0  0  0  0  0  0  0  0  0  0
   54.7610   27.4700   46.2620 H   0  0  0  0  0  0  0  0  0  0  0  0
  1  2  2  0
  2  3  1  0
  3  4  1  0
  4  5  1  0
  5  6  1  0
  6  7  1  0
  7  8  1  0
  8  9  1  0
  9 10  1  0
 10 11  1  0
 11 12  1  0
 12 13  2  0
  6 14  2  0
 14 15  1  0
 15 16  2  0
 16 17  1  0
 17 18  1  0
 18 19  2  0
 18 20  1  0
 20 21  1  0
 21 22  1  0
 22 23  2  0
 23 24  1  0
 24 25  2  0
 25 26  1  0
 26 27  2  0
  2 28  1  0
 28 29  2  0
 29 30  1  0
 30 31  2  0
 31 32  1  0
 31 33  1  0
 17  5  2  0
 27 22  1  0
 33 28  1  0
 12  8  1  0
  4 34  1  0
  4 35  1  0
  7 36  1  0
  7 37  1  0
  9 38  1  0
  9 39  1  0
 10 40  1  0
 10 41  1  0
 14 42  1  0
 15 43  1  0
 16 44  1  0
 21 45  1  0
 21 46  1  0
 23 47  1  0
 24 48  1  0
 25 49  1  0
 26 50  1  0
 27 51  1  0
 29 52  1  0
 30 53  1  0
 32 54  1  0
M  CHG  4   3  -1  11  -1  20  -1  33  -1
M  END
>  <UniqueID>  (34) 
31

>  <SMILES>  (34) 
O=C([N-]Cc1c(CN2CC[N-]C2=O)cccc1C(=O)[N-]Cc1ccccc1)c1ccc(O)[n-]1

>  <Energy>  (34) 
98.89818985135726

>  <Genealogy>  (34) 
O=C([N-]Cc1c(CN2CC[N-]C2=O)cccc1C(=O)[N-]Cc1ccccc1)c1ccc(O)[n-]1 (protonated)
O=C([N-]Cc1c(CN2CC[N-]C2=O)cccc1C(=O)[N-]Cc1ccccc1)c1ccc(O)[n-]1 (3D coordinates assigned)
O=C([N-]Cc1c(CN2CC[N-]C2=O)cccc1C(=O)[N-]Cc1ccccc1)c1ccc(O)[n-]1 (nonaromatic ring conformer: 98.89818985135726 kcal/mol)

>  <smiles>  (34) 
O=C(NCc1c(CN2CCNC2=O)cccc1C(=O)NCc1ccccc1)c1ccc(O)[nH]1

>  <score_type>  (34) 
oracle

>  <origin>  (34) 
adg

>  <m_score__min__energy>  (34) 
-14.359999999999999

>  <m_primary>  (34) 
energy

$$$$
34:0
     RDKit          3D

 66 69  0  0  0  0  0  0  0  0999 V2000
   57.9780   20.1830   50.2150 C   0  0  0  0  0  0  0  0  0  0  0  0
   57.3270   21.3600   50.8150 N   0  0  0  0  0  0  0  0  0  0  0  0
   56.0630   20.9860   51.4680 C   0  0  0  0  0  0  0  0  0  0  0  0
   57.1490   22.4660   49.8460 C   0  0  0  0  0  0  0  0  0  0  0  0
   56.5820   22.0190   48.5250 C   0  0  0  0  0  0  0  0  0  0  0  0
   55.2530   22.0760   48.1500 C   0  0  0  0  0  0  0  0  0  0  0  0
   55.2000   21.5520   46.8760 C   0  0  0  0  0  0  0  0  0  0  0  0
   56.4980   21.1980   46.5620 C   0  0  0  0  0  0  0  0  0  0  0  0
   56.9530   20.5840   45.2790 C   0  0  0  0  0  0  0  0  0  0  0  0
   57.3900   21.8500   44.1050 S   0  0  0  0  0  0  0  0  0  0  0  0
   58.6290   21.4410   43.3570 O   0  0  0  0  0  0  0  0  0  0  0  0
   56.2690   22.0200   43.1190 O   0  0  0  0  0  0  0  0  0  0  0  0
   57.6660   23.3700   44.9490 C   0  0  0  0  0  0  0  0  0  0  0  0
   58.8840   23.6070   45.6000 C   0  0  0  0  0  0  0  0  0  0  0  0
   59.0950   24.8140   46.2700 C   0  0  0  0  0  0  0  0  0  0  0  0
   58.0930   25.7870   46.2990 C   0  0  0  0  0  0  0  0  0  0  0  0
   56.8560   25.5570   45.6680 C   0  0  0  0  0  0  0  0  0  0  0  0
   55.7930   26.5870   45.7000 C   0  0  0  0  0  0  0  0  0  0  0  0
   54.6100   26.2660   45.9950 O   0  0  0  0  0  0  0  0  0  0  0  0
   56.0920   27.9410   45.3250 N   0  0  0  0  0  0  0  0  0  0  0  0
   57.3970   28.5360   45.3020 C   0  0  0  0  0  0  0  0  0  0  0  0
   57.7780   29.4870   46.2660 C   0  0  0  0  0  0  0  0  0  0  0  0
   59.0720   30.0200   46.2680 C   0  0  0  0  0  0  0  0  0  0  0  0
   59.5320   31.1940   47.5000 S   0  0  0  0  0  0  0  0  0  0  0  0
   59.2440   30.6070   48.8530 O   0  0  0  0  0  0  0  0  0  0  0  0
   61.0030   31.4870   47.4090 O   0  0  0  0  0  0  0  0  0  0  0  0
   58.6170   32.6660   47.2850 N   0  0  0  0  0  0  0  0  0  0  0  0
   58.0530   32.7150   45.9190 C   0  0  0  0  0  0  0  0  0  0  0  0
   57.7800   34.1670   45.4880 C   0  0  0  0  0  0  0  0  0  0  0  0
   58.9400   34.9900   45.4660 O   0  0  0  0  0  0  0  0  0  0  0  0
   59.9690   34.5530   46.3430 C   0  0  0  0  0  0  0  0  0  0  0  0
   59.4420   33.8540   47.6090 C   0  0  0  0  0  0  0  0  0  0  0  0
   59.9890   29.6150   45.2910 C   0  0  0  0  0  0  0  0  0  0  0  0
   59.6250   28.6610   44.3390 C   0  0  0  0  0  0  0  0  0  0  0  0
   58.3360   28.1110   44.3420 C   0  0  0  0  0  0  0  0  0  0  0  0
   58.0090   27.1560   43.3760 O   0  0  0  0  0  0  0  0  0  0  0  0
   56.6530   24.3360   44.9970 C   0  0  0  0  0  0  0  0  0  0  0  0
   57.3020   21.4960   47.5560 O   0  0  0  0  0  0  0  0  0  0  0  0
   58.3446   19.5203   51.0128 H   0  0  0  0  0  0  0  0  0  0  0  0
   57.2519   19.6401   49.5921 H   0  0  0  0  0  0  0  0  0  0  0  0
   58.8238   20.5095   49.5921 H   0  0  0  0  0  0  0  0  0  0  0  0
   56.1894   21.0234   52.5601 H   0  0  0  0  0  0  0  0  0  0  0  0
   55.2724   21.6887   51.1661 H   0  0  0  0  0  0  0  0  0  0  0  0
   55.7820   19.9662   51.1661 H   0  0  0  0  0  0  0  0  0  0  0  0
   56.4659   23.2078   50.2854 H   0  0  0  0  0  0  0  0  0  0  0  0
   58.1460   22.8855   49.6458 H   0  0  0  0  0  0  0  0  0  0  0  0
   54.4114   22.4601   48.7451 H   0  0  0  0  0  0  0  0  0  0  0  0
   54.3089   21.4391   46.2410 H   0  0  0  0  0  0  0  0  0  0  0  0
   57.8310   19.9501   45.4720 H   0  0  0  0  0  0  0  0  0  0  0  0
   56.1339   19.9791   44.8629 H   0  0  0  0  0  0  0  0  0  0  0  0
   59.6743   22.8420   45.5833 H   0  0  0  0  0  0  0  0  0  0  0  0
   60.0536   24.9992   46.7767 H   0  0  0  0  0  0  0  0  0  0  0  0
   58.2720   26.7398   46.8187 H   0  0  0  0  0  0  0  0  0  0  0  0
   57.0524   29.8146   47.0250 H   0  0  0  0  0  0  0  0  0  0  0  0
   58.7680   32.2598   45.2179 H   0  0  0  0  0  0  0  0  0  0  0  0
   57.1021   32.1621   45.9119 H   0  0  0  0  0  0  0  0  0  0  0  0
   57.3466   34.1524   44.4771 H   0  0  0  0  0  0  0  0  0  0  0  0
   57.0969   34.5983   46.2345 H   0  0  0  0  0  0  0  0  0  0  0  0
   60.6138   33.8474   45.7987 H   0  0  0  0  0  0  0  0  0  0  0  0
   60.5153   35.4492   46.6723 H   0  0  0  0  0  0  0  0  0  0  0  0
   60.2985   33.5353   48.2213 H   0  0  0  0  0  0  0  0  0  0  0  0
   58.8081   34.5696   48.1532 H   0  0  0  0  0  0  0  0  0  0  0  0
   60.9993   30.0497   45.2733 H   0  0  0  0  0  0  0  0  0  0  0  0
   60.3547   28.3389   43.5815 H   0  0  0  0  0  0  0  0  0  0  0  0
   57.0600   26.8250   43.2370 H   0  0  0  0  0  0  0  0  0  0  0  0
   55.6889   24.1387   44.5054 H   0  0  0  0  0  0  0  0  0  0  0  0
  1  2  1  0
  2  3  1  0
  2  4  1  0
  4  5  1  0
  5  6  2  0
  6  7  1  0
  7  8  2  0
  8  9  1  0
  9 10  1  0
 10 11  2  0
 10 12  2  0
 10 13  1  0
 13 14  2  0
 14 15  1  0
 15 16  2  0
 16 17  1  0
 17 18  1  0
 18 19  2  0
 18 20  1  0
 20 21  1  0
 21 22  2  0
 22 23  1  0
 23 24  1  0
 24 25  2  0
 24 26  2  0
 24 27  1  0
 27 28  1  0
 28 29  1  0
 29 30  1  0
 30 31  1  0
 31 32  1  0
 23 33  2  0
 33 34  1  0
 34 35  2  0
 35 36  1  0
 17 37  2  0
  8 38  1  0
 38  5  1  0
 37 13  1  0
 35 21  1  0
 32 27  1  0
  1 39  1  0
  1 40  1  0
  1 41  1  0
  3 42  1  0
  3 43  1  0
  3 44  1  0
  4 45  1  0
  4 46  1  0
  6 47  1  0
  7 48  1  0
  9 49  1  0
  9 50  1  0
 14 51  1  0
 15 52  1  0
 16 53  1  0
 22 54  1  0
 28 55  1  0
 28 56  1  0
 29 57  1  0
 29 58  1  0
 31 59  1  0
 31 60  1  0
 32 61  1  0
 32 62  1  0
 33 63  1  0
 34 64  1  0
 36 65  1  0
 37 66  1  0
M  CHG  1  20  -1
M  END
>  <UniqueID>  (35) 
32

>  <SMILES>  (35) 
CN(C)Cc1ccc(CS(=O)(=O)c2cccc(C(=O)[N-]c3cc(S(=O)(=O)N4CCOCC4)ccc3O)c2)o1

>  <Energy>  (35) 
107.64260548516083

>  <Genealogy>  (35) 
CN(C)Cc1ccc(CS(=O)(=O)c2cccc(C(=O)[N-]c3cc(S(=O)(=O)N4CCOCC4)ccc3O)c2)o1 (protonated)
CN(C)Cc1ccc(CS(=O)(=O)c2cccc(C(=O)[N-]c3cc(S(=O)(=O)N4CCOCC4)ccc3O)c2)o1 (3D coordinates assigned)
CN(C)Cc1ccc(CS(=O)(=O)c2cccc(C(=O)[N-]c3cc(S(=O)(=O)N4CCOCC4)ccc3O)c2)o1 (nonaromatic ring conformer: 107.64260548516083 kcal/mol)

>  <smiles>  (35) 
CN(C)Cc1ccc(CS(=O)(=O)c2cccc(C(=O)Nc3cc(S(=O)(=O)N4CCOCC4)ccc3O)c2)o1

>  <score_type>  (35) 
oracle

>  <origin>  (35) 
adg

>  <m_score__min__energy>  (35) 
-11.869999999999999

>  <m_primary>  (35) 
energy

$$$$
35:0
     RDKit          3D

 48 51  0  0  0  0  0  0  0  0999 V2000
   54.0260   26.3330   46.3910 H   0  0  0  0  0  0  0  0  0  0  0  0
   54.9400   26.3920   45.9600 O   0  0  0  0  0  0  0  0  0  0  0  0
   55.9650   25.5360   46.3500 C   0  0  0  0  0  0  0  0  0  0  0  0
   55.7930   24.4790   47.1620 N   0  0  0  0  0  0  0  0  0  0  0  0
   57.0340   23.9520   47.2270 C   0  0  0  0  0  0  0  0  0  0  0  0
   57.2990   22.9220   47.8990 O   0  0  0  0  0  0  0  0  0  0  0  0
   57.9680   24.6090   46.5060 N   0  0  0  0  0  0  0  0  0  0  0  0
   57.2800   25.6360   45.9700 C   0  0  0  0  0  0  0  0  0  0  0  0
   57.8240   26.5890   44.9870 C   0  0  0  0  0  0  0  0  0  0  0  0
   58.3518   26.1701   44.1176 H   0  0  0  0  0  0  0  0  0  0  0  0
   57.7290   27.9310   45.0640 C   0  0  0  0  0  0  0  0  0  0  0  0
   57.0620   28.6900   44.1180 C   0  0  0  0  0  0  0  0  0  0  0  0
   56.4945   28.3110   43.2553 H   0  0  0  0  0  0  0  0  0  0  0  0
   57.2450   30.0120   44.4640 C   0  0  0  0  0  0  0  0  0  0  0  0
   56.7120   31.1750   43.6840 C   0  0  0  0  0  0  0  0  0  0  0  0
   56.3566   31.9504   44.3786 H   0  0  0  0  0  0  0  0  0  0  0  0
   57.5105   31.5884   43.0504 H   0  0  0  0  0  0  0  0  0  0  0  0
   55.8776   30.8400   43.0504 H   0  0  0  0  0  0  0  0  0  0  0  0
   57.9700   30.1080   45.6010 N   0  0  0  0  0  0  0  0  0  0  0  0
   58.3440   31.3410   46.2420 C   0  0  0  0  0  0  0  0  0  0  0  0
   58.6190   31.4420   47.5210 O   0  0  0  0  0  0  0  0  0  0  0  0
   58.8880   32.7010   47.7800 C   0  0  0  0  0  0  0  0  0  0  0  0
   59.2720   33.2100   49.1360 C   0  0  0  0  0  0  0  0  0  0  0  0
   58.9933   34.2712   49.2147 H   0  0  0  0  0  0  0  0  0  0  0  0
   58.7436   32.6169   49.8969 H   0  0  0  0  0  0  0  0  0  0  0  0
   60.7260   33.0740   49.3570 N   0  0  0  0  0  0  0  0  0  0  0  0
   61.4760   34.2000   48.7350 C   0  0  0  0  0  0  0  0  0  0  0  0
   60.7892   35.0506   48.6131 H   0  0  0  0  0  0  0  0  0  0  0  0
   62.3179   34.4360   49.4025 H   0  0  0  0  0  0  0  0  0  0  0  0
   62.0710   33.8550   47.3620 C   0  0  0  0  0  0  0  0  0  0  0  0
   61.2569   33.6592   46.6486 H   0  0  0  0  0  0  0  0  0  0  0  0
   62.6784   34.6992   47.0037 H   0  0  0  0  0  0  0  0  0  0  0  0
   62.9340   32.6350   47.4820 C   0  0  0  0  0  0  0  0  0  0  0  0
   63.8220   32.4260   46.6700 O   0  0  0  0  0  0  0  0  0  0  0  0
   62.6960   31.6800   48.6110 C   0  0  0  0  0  0  0  0  0  0  0  0
   62.9749   30.6627   48.2990 H   0  0  0  0  0  0  0  0  0  0  0  0
   63.3059   31.9702   49.4792 H   0  0  0  0  0  0  0  0  0  0  0  0
   61.2090   31.7140   48.9860 C   0  0  0  0  0  0  0  0  0  0  0  0
   60.6236   31.3582   48.1253 H   0  0  0  0  0  0  0  0  0  0  0  0
   61.0807   31.0704   49.8688 H   0  0  0  0  0  0  0  0  0  0  0  0
   58.7820   33.4600   46.6300 C   0  0  0  0  0  0  0  0  0  0  0  0
   58.9495   34.5427   46.5318 H   0  0  0  0  0  0  0  0  0  0  0  0
   58.4230   32.5800   45.6310 C   0  0  0  0  0  0  0  0  0  0  0  0
   58.2384   32.8136   44.5721 H   0  0  0  0  0  0  0  0  0  0  0  0
   58.2340   28.8380   46.0100 C   0  0  0  0  0  0  0  0  0  0  0  0
   58.7080   28.5350   47.2290 C   0  0  0  0  0  0  0  0  0  0  0  0
   59.0799   29.3330   47.8885 H   0  0  0  0  0  0  0  0  0  0  0  0
   58.7244   27.4888   47.5683 H   0  0  0  0  0  0  0  0  0  0  0  0
  1  2  1  0
  2  3  1  0
  3  4  1  0
  4  5  1  0
  5  6  2  0
  5  7  1  0
  7  8  1  0
  8  9  1  0
  9 10  1  0
  9 11  2  0
 11 12  1  0
 12 13  1  0
 12 14  2  0
 14 15  1  0
 15 16  1  0
 15 17  1  0
 15 18  1  0
 14 19  1  0
 19 20  1  0
 20 21  1  0
 21 22  1  0
 22 23  1  0
 23 24  1  0
 23 25  1  0
 23 26  1  0
 26 27  1  0
 27 28  1  0
 27 29  1  0
 27 30  1  0
 30 31  1  0
 30 32  1  0
 30 33  1  0
 33 34  2  0
 33 35  1  0
 35 36  1  0
 35 37  1  0
 35 38  1  0
 38 39  1  0
 38 40  1  0
 22 41  2  0
 41 42  1  0
 41 43  1  0
 43 44  1  0
 19 45  1  0
 45 46  2  0
 46 47  1  0
 46 48  1  0
  8  3  2  0
 45 11  1  0
 43 20  2  0
 38 26  1  0
M  CHG  2   4  -1   7  -1
M  END
>  <UniqueID>  (36) 
33

>  <SMILES>  (36) 
C=c1/c(=C\c2[n-]c(=O)[n-]c2O)cc(C)n1-c1ccc(CN2CCC(=O)CC2)o1

>  <Energy>  (36) 
155.63551411428804

>  <Genealogy>  (36) 
C=c1c(=Cc2[n-]c(=O)[n-]c2O)cc(C)n1-c1ccc(CN2CCC(=O)CC2)o1 (protonated)
C=c1/c(=C\c2[n-]c(=O)[n-]c2O)cc(C)n1-c1ccc(CN2CCC(=O)CC2)o1 (cis-trans isomerization)
C=c1/c(=C\c2[n-]c(=O)[n-]c2O)cc(C)n1-c1ccc(CN2CCC(=O)CC2)o1 (3D coordinates assigned)
C=c1/c(=C\c2[n-]c(=O)[n-]c2O)cc(C)n1-c1ccc(CN2CCC(=O)CC2)o1 (nonaromatic ring conformer: 155.63551411428804 kcal/mol)

>  <smiles>  (36) 
C=c1c(=Cc2[nH]c(=O)[nH]c2O)cc(C)n1-c1ccc(CN2CCC(=O)CC2)o1

>  <score_type>  (36) 
oracle

>  <origin>  (36) 
adg

>  <m_score__min__energy>  (36) 
-13.34

>  <m_primary>  (36) 
energy

$$$$
36:0
     RDKit          3D

 49 51  0  0  0  0  0  0  0  0999 V2000
   60.3424   30.0210   45.5198 H   0  0  0  0  0  0  0  0  0  0  0  0
   59.7300   29.1200   45.3680 C   0  0  0  0  0  0  0  0  0  0  0  0
   60.1925   28.1238   45.4293 H   0  0  0  0  0  0  0  0  0  0  0  0
   58.4190   29.2360   45.1080 C   0  0  0  0  0  0  0  0  0  0  0  0
   57.5030   28.2060   44.8910 C   0  0  0  0  0  0  0  0  0  0  0  0
   57.7650   26.8880   44.8290 C   0  0  0  0  0  0  0  0  0  0  0  0
   58.4409   26.5314   44.0378 H   0  0  0  0  0  0  0  0  0  0  0  0
   57.1990   25.8920   45.7600 C   0  0  0  0  0  0  0  0  0  0  0  0
   57.9350   24.9190   46.3230 N   0  0  0  0  0  0  0  0  0  0  0  0
   57.0580   24.2830   47.1290 C   0  0  0  0  0  0  0  0  0  0  0  0
   57.3790   23.2870   47.8280 O   0  0  0  0  0  0  0  0  0  0  0  0
   55.8130   24.8020   47.1320 N   0  0  0  0  0  0  0  0  0  0  0  0
   55.9160   25.8260   46.2690 C   0  0  0  0  0  0  0  0  0  0  0  0
   54.8750   26.7030   45.9970 O   0  0  0  0  0  0  0  0  0  0  0  0
   56.2750   28.7360   44.6980 N   0  0  0  0  0  0  0  0  0  0  0  0
   56.4670   30.0650   44.8090 C   0  0  0  0  0  0  0  0  0  0  0  0
   55.5360   30.9020   44.6710 O   0  0  0  0  0  0  0  0  0  0  0  0
   57.7470   30.4080   45.0560 N   0  0  0  0  0  0  0  0  0  0  0  0
   58.2630   31.7440   45.1960 C   0  0  0  0  0  0  0  0  0  0  0  0
   58.4180   32.5540   44.0590 C   0  0  0  0  0  0  0  0  0  0  0  0
   58.1528   32.1606   43.0666 H   0  0  0  0  0  0  0  0  0  0  0  0
   58.9070   33.8560   44.1820 C   0  0  0  0  0  0  0  0  0  0  0  0
   59.0312   34.4836   43.2872 H   0  0  0  0  0  0  0  0  0  0  0  0
   59.2380   34.3610   45.4390 C   0  0  0  0  0  0  0  0  0  0  0  0
   59.6208   35.3879   45.5339 H   0  0  0  0  0  0  0  0  0  0  0  0
   59.0850   33.5670   46.5780 C   0  0  0  0  0  0  0  0  0  0  0  0
   59.3410   33.9741   47.5673 H   0  0  0  0  0  0  0  0  0  0  0  0
   58.6040   32.2460   46.4660 C   0  0  0  0  0  0  0  0  0  0  0  0
   58.4620   31.4020   47.5820 O   0  0  0  0  0  0  0  0  0  0  0  0
   59.4550   30.4990   48.0670 C   0  0  0  0  0  0  0  0  0  0  0  0
   59.2931   30.3244   49.1409 H   0  0  0  0  0  0  0  0  0  0  0  0
   59.3765   29.5509   47.5148 H   0  0  0  0  0  0  0  0  0  0  0  0
   60.8260   31.0720   47.8600 C   0  0  0  0  0  0  0  0  0  0  0  0
   61.6170   30.4880   47.0730 O   0  0  0  0  0  0  0  0  0  0  0  0
   61.2190   32.2740   48.5470 N   0  0  0  0  0  0  0  0  0  0  0  0
   60.5780   32.6180   49.2980 H   0  0  0  0  0  0  0  0  0  0  0  0
   62.4000   33.0910   48.2030 C   0  0  0  0  0  0  0  0  0  0  0  0
   63.6730   32.2520   48.4290 C   0  0  0  0  0  0  0  0  0  0  0  0
   63.8489   32.1361   49.5086 H   0  0  0  0  0  0  0  0  0  0  0  0
   63.5451   31.2606   47.9698 H   0  0  0  0  0  0  0  0  0  0  0  0
   64.5336   32.7605   47.9698 H   0  0  0  0  0  0  0  0  0  0  0  0
   62.4670   34.3350   49.1120 C   0  0  0  0  0  0  0  0  0  0  0  0
   62.4501   34.0204   50.1659 H   0  0  0  0  0  0  0  0  0  0  0  0
   63.3962   34.8877   48.9092 H   0  0  0  0  0  0  0  0  0  0  0  0
   61.6025   34.9843   48.9092 H   0  0  0  0  0  0  0  0  0  0  0  0
   62.3460   33.5110   46.7220 C   0  0  0  0  0  0  0  0  0  0  0  0
   62.2060   34.6000   46.6546 H   0  0  0  0  0  0  0  0  0  0  0  0
   63.2875   33.2310   46.2269 H   0  0  0  0  0  0  0  0  0  0  0  0
   61.5059   33.0020   46.2269 H   0  0  0  0  0  0  0  0  0  0  0  0
  1  2  1  0
  2  3  1  0
  2  4  2  0
  4  5  1  0
  5  6  2  0
  6  7  1  0
  6  8  1  0
  8  9  1  0
  9 10  1  0
 10 11  2  0
 10 12  1  0
 12 13  1  0
 13 14  1  0
  5 15  1  0
 15 16  1  0
 16 17  2  0
 16 18  1  0
 18 19  1  0
 19 20  2  0
 20 21  1  0
 20 22  1  0
 22 23  1  0
 22 24  2  0
 24 25  1  0
 24 26  1  0
 26 27  1  0
 26 28  2  0
 28 29  1  0
 29 30  1  0
 30 31  1  0
 30 32  1  0
 30 33  1  0
 33 34  2  0
 33 35  1  0
 35 36  1  0
 35 37  1  0
 37 38  1  0
 38 39  1  0
 38 40  1  0
 38 41  1  0
 37 42  1  0
 42 43  1  0
 42 44  1  0
 42 45  1  0
 37 46  1  0
 46 47  1  0
 46 48  1  0
 46 49  1  0
 18  4  1  0
 28 19  1  0
 13  8  2  0
M  CHG  4   9  -1  12  -1  14  -1  15  -1
M  END
>  <UniqueID>  (37) 
34

>  <SMILES>  (37) 
C=c1/c(=C/c2[n-]c(=O)[n-]c2[O-])[n-]c(=O)n1-c1ccccc1OCC(=O)NC(C)(C)C

>  <Energy>  (37) 
119.53876699237308

>  <Genealogy>  (37) 
C=c1c(=Cc2[n-]c(=O)[n-]c2[O-])[n-]c(=O)n1-c1ccccc1OCC(=O)NC(C)(C)C (protonated)
C=c1/c(=C/c2[n-]c(=O)[n-]c2[O-])[n-]c(=O)n1-c1ccccc1OCC(=O)NC(C)(C)C (cis-trans isomerization)
C=c1/c(=C/c2[n-]c(=O)[n-]c2[O-])[n-]c(=O)n1-c1ccccc1OCC(=O)NC(C)(C)C (3D coordinates assigned)
C=c1/c(=C/c2[n-]c(=O)[n-]c2[O-])[n-]c(=O)n1-c1ccccc1OCC(=O)NC(C)(C)C (optimized conformer: 119.53876699237308 kcal/mol)

>  <smiles>  (37) 
C=c1c(=Cc2[nH]c(=O)[nH]c2O)[nH]c(=O)n1-c1ccccc1OCC(=O)NC(C)(C)C

>  <score_type>  (37) 
oracle

>  <origin>  (37) 
adg

>  <m_score__min__energy>  (37) 
-17.73

>  <m_primary>  (37) 
energy

$$$$
37:0
     RDKit          3D

 51 54  0  0  0  0  0  0  0  0999 V2000
   59.5500   28.0600   47.2320 C   0  0  0  0  0  0  0  0  0  0  0  0
   59.0010   28.7900   46.2470 C   0  0  0  0  0  0  0  0  0  0  0  0
   58.0610   28.3650   45.2940 C   0  0  0  0  0  0  0  0  0  0  0  0
   57.6130   27.1330   44.9810 C   0  0  0  0  0  0  0  0  0  0  0  0
   57.1620   26.1140   45.9430 C   0  0  0  0  0  0  0  0  0  0  0  0
   57.9290   25.1130   46.4170 N   0  0  0  0  0  0  0  0  0  0  0  0
   57.0540   24.3520   47.1130 C   0  0  0  0  0  0  0  0  0  0  0  0
   57.4010   23.3070   47.7200 O   0  0  0  0  0  0  0  0  0  0  0  0
   55.7760   24.7900   47.0880 N   0  0  0  0  0  0  0  0  0  0  0  0
   55.8630   25.8980   46.3340 C   0  0  0  0  0  0  0  0  0  0  0  0
   54.7700   26.6850   45.9950 O   0  0  0  0  0  0  0  0  0  0  0  0
   57.6580   29.5030   44.6120 C   0  0  0  0  0  0  0  0  0  0  0  0
   58.4030   30.5540   45.1090 C   0  0  0  0  0  0  0  0  0  0  0  0
   58.3900   31.9500   44.5630 C   0  0  0  0  0  0  0  0  0  0  0  0
   59.2050   30.1250   46.1080 N   0  0  0  0  0  0  0  0  0  0  0  0
   60.1600   30.9330   46.8180 C   0  0  0  0  0  0  0  0  0  0  0  0
   61.5130   30.5770   46.7670 C   0  0  0  0  0  0  0  0  0  0  0  0
   62.4700   31.3250   47.4560 C   0  0  0  0  0  0  0  0  0  0  0  0
   62.0910   32.4460   48.2100 C   0  0  0  0  0  0  0  0  0  0  0  0
   63.1190   33.2230   48.9430 C   0  0  0  0  0  0  0  0  0  0  0  0
   62.8120   34.3590   49.4050 O   0  0  0  0  0  0  0  0  0  0  0  0
   64.4470   32.6830   49.1620 N   0  0  0  0  0  0  0  0  0  0  0  0
   65.2870   33.4890   50.0630 C   0  0  0  0  0  0  0  0  0  0  0  0
   65.3350   32.3900   51.1160 C   0  0  0  0  0  0  0  0  0  0  0  0
   64.4670   31.5950   50.1500 C   0  0  0  0  0  0  0  0  0  0  0  0
   60.7360   32.8190   48.2460 C   0  0  0  0  0  0  0  0  0  0  0  0
   59.7600   32.0620   47.5730 C   0  0  0  0  0  0  0  0  0  0  0  0
   58.3180   32.5130   47.6410 C   0  0  0  0  0  0  0  0  0  0  0  0
   58.1540   33.9160   47.0730 C   0  0  0  0  0  0  0  0  0  0  0  0
   60.2797   28.5188   47.9154 H   0  0  0  0  0  0  0  0  0  0  0  0
   59.2698   27.0034   47.3552 H   0  0  0  0  0  0  0  0  0  0  0  0
   57.5816   26.8658   43.9144 H   0  0  0  0  0  0  0  0  0  0  0  0
   56.8912   29.5580   43.8252 H   0  0  0  0  0  0  0  0  0  0  0  0
   58.3833   32.6692   45.3953 H   0  0  0  0  0  0  0  0  0  0  0  0
   59.2867   32.1110   43.9465 H   0  0  0  0  0  0  0  0  0  0  0  0
   57.4905   32.0942   43.9465 H   0  0  0  0  0  0  0  0  0  0  0  0
   61.8248   29.7009   46.1794 H   0  0  0  0  0  0  0  0  0  0  0  0
   63.5294   31.0331   47.4072 H   0  0  0  0  0  0  0  0  0  0  0  0
   64.9680   32.4420   48.2850 H   0  0  0  0  0  0  0  0  0  0  0  0
   66.2724   33.7352   49.6407 H   0  0  0  0  0  0  0  0  0  0  0  0
   64.9445   34.4926   50.3553 H   0  0  0  0  0  0  0  0  0  0  0  0
   66.3328   31.9666   51.3035 H   0  0  0  0  0  0  0  0  0  0  0  0
   65.0571   32.5585   52.1669 H   0  0  0  0  0  0  0  0  0  0  0  0
   64.9488   30.6773   49.7816 H   0  0  0  0  0  0  0  0  0  0  0  0
   63.5117   31.1838   50.5081 H   0  0  0  0  0  0  0  0  0  0  0  0
   60.4349   33.7152   48.8082 H   0  0  0  0  0  0  0  0  0  0  0  0
   57.6960   31.8157   47.0606 H   0  0  0  0  0  0  0  0  0  0  0  0
   58.0055   32.5248   48.6956 H   0  0  0  0  0  0  0  0  0  0  0  0
   58.0696   34.6382   47.8984 H   0  0  0  0  0  0  0  0  0  0  0  0
   59.0290   34.1660   46.4551 H   0  0  0  0  0  0  0  0  0  0  0  0
   57.2449   33.9575   46.4551 H   0  0  0  0  0  0  0  0  0  0  0  0
  1  2  2  0
  2  3  1  0
  3  4  2  3
  4  5  1  0
  5  6  1  0
  6  7  1  0
  7  8  2  0
  7  9  1  0
  9 10  1  0
 10 11  1  0
  3 12  1  0
 12 13  2  0
 13 14  1  0
 13 15  1  0
 15 16  1  0
 16 17  2  0
 17 18  1  0
 18 19  2  0
 19 20  1  0
 20 21  2  0
 20 22  1  0
 22 23  1  0
 23 24  1  0
 24 25  1  0
 19 26  1  0
 26 27  2  0
 27 28  1  0
 28 29  1  0
 15  2  1  0
 27 16  1  0
 10  5  2  0
 25 22  1  0
  1 30  1  0
  1 31  1  0
  4 32  1  0
 12 33  1  0
 14 34  1  0
 14 35  1  0
 14 36  1  0
 17 37  1  0
 18 38  1  0
 22 39  1  0
 23 40  1  0
 23 41  1  0
 24 42  1  0
 24 43  1  0
 25 44  1  0
 25 45  1  0
 26 46  1  0
 28 47  1  0
 28 48  1  0
 29 49  1  0
 29 50  1  0
 29 51  1  0
M  CHG  4   6  -1   9  -1  11  -1  22   1
M  END
>  <UniqueID>  (38) 
35

>  <SMILES>  (38) 
C=c1c(=Cc2[n-]c(=O)[n-]c2[O-])cc(C)n1-c1ccc(C(=O)[NH+]2CCC2)cc1CC

>  <Energy>  (38) 
203.00463596516326

>  <Genealogy>  (38) 
C=c1c(=Cc2[n-]c(=O)[n-]c2[O-])cc(C)n1-c1ccc(C(=O)[NH+]2CCC2)cc1CC (protonated)
C=c1c(=Cc2[n-]c(=O)[n-]c2[O-])cc(C)n1-c1ccc(C(=O)[NH+]2CCC2)cc1CC (3D coordinates assigned)
C=c1c(=Cc2[n-]c(=O)[n-]c2[O-])cc(C)n1-c1ccc(C(=O)[NH+]2CCC2)cc1CC (nonaromatic ring conformer: 203.00463596516326 kcal/mol)

>  <smiles>  (38) 
C=c1c(=Cc2[nH]c(=O)[nH]c2O)cc(C)n1-c1ccc(C(=O)N2CCC2)cc1CC

>  <score_type>  (38) 
oracle

>  <origin>  (38) 
adg

>  <m_score__min__energy>  (38) 
-15.01

>  <m_primary>  (38) 
energy

$$$$
38:0
     RDKit          3D

 24 25  0  0  0  0  0  0  0  0999 V2000
   51.7891   30.7598   54.8862 H   0  0  0  0  0  0  0  0  0  0  0  0
   52.8590   30.6860   55.1310 C   0  0  0  0  0  0  0  0  0  0  0  0
   53.1925   30.7841   56.1746 H   0  0  0  0  0  0  0  0  0  0  0  0
   53.7670   30.4740   54.1460 C   0  0  0  0  0  0  0  0  0  0  0  0
   55.1530   30.3880   54.5400 C   0  0  0  0  0  0  0  0  0  0  0  0
   55.4510   30.4320   55.7660 O   0  0  0  0  0  0  0  0  0  0  0  0
   56.2000   30.2720   53.6700 N   0  0  0  0  0  0  0  0  0  0  0  0
   53.3580   30.3780   52.7700 C   0  0  0  0  0  0  0  0  0  0  0  0
   57.2230   30.1120   51.6260 N   0  0  0  0  0  0  0  0  0  0  0  0
   58.0230   31.2410   51.1640 C   0  0  0  0  0  0  0  0  0  0  0  0
   58.4140   31.7928   52.0316 H   0  0  0  0  0  0  0  0  0  0  0  0
   58.8620   30.8715   50.5560 H   0  0  0  0  0  0  0  0  0  0  0  0
   57.3963   31.9100   50.5560 H   0  0  0  0  0  0  0  0  0  0  0  0
   54.6030   30.2480   51.6230 S   0  0  0  0  0  0  0  0  0  0  0  0
   56.1310   30.2090   52.3240 C   0  0  0  0  0  0  0  0  0  0  0  0
   52.0620   30.3290   52.3590 C   0  0  0  0  0  0  0  0  0  0  0  0
   51.3279   29.9226   53.0703 H   0  0  0  0  0  0  0  0  0  0  0  0
   51.5470   30.7730   51.0400 C   0  0  0  0  0  0  0  0  0  0  0  0
   51.5090   30.0340   49.9150 N   0  0  0  0  0  0  0  0  0  0  0  0
   51.0270   30.8880   48.9880 C   0  0  0  0  0  0  0  0  0  0  0  0
   50.8380   30.5550   47.7900 O   0  0  0  0  0  0  0  0  0  0  0  0
   50.7670   32.1310   49.4470 N   0  0  0  0  0  0  0  0  0  0  0  0
   51.1070   32.0430   50.7420 C   0  0  0  0  0  0  0  0  0  0  0  0
   51.0180   33.1030   51.6360 O   0  0  0  0  0  0  0  0  0  0  0  0
  1  2  1  0
  2  3  1  0
  2  4  2  0
  4  5  1  0
  5  6  2  0
  5  7  1  0
  7  8  1  0
  8  9  2  0
  9 10  1  0
 10 11  1  0
 10 12  1  0
 10 13  1  0
  8 14  1  0
 14 15  1  0
 15 16  2  0
 16 17  1  0
 16 18  1  0
 18 19  1  0
 19 20  1  0
 20 21  2  0
 20 22  1  0
 22 23  1  0
 23 24  1  0
 15  4  1  0
 23 18  2  0
M  CHG  4   7  -1  19  -1  22  -1  24  -1
M  END
>  <UniqueID>  (39) 
36

>  <SMILES>  (39) 
C=c1c(=O)[n-]/c(=N/C)s/c1=C\c1[n-]c(=O)[n-]c1[O-]

>  <Energy>  (39) 
74.03404527063063

>  <Genealogy>  (39) 
C=c1c(=O)[n-]c(=NC)sc1=Cc1[n-]c(=O)[n-]c1[O-] (protonated)
C=c1c(=O)[n-]/c(=N/C)s/c1=C\c1[n-]c(=O)[n-]c1[O-] (cis-trans isomerization)
C=c1c(=O)[n-]/c(=N/C)s/c1=C\c1[n-]c(=O)[n-]c1[O-] (3D coordinates assigned)
C=c1c(=O)[n-]/c(=N/C)s/c1=C\c1[n-]c(=O)[n-]c1[O-] (optimized conformer: 74.03404527063063 kcal/mol)

>  <smiles>  (39) 
C=c1c(=O)[nH]c(=NC)sc1=Cc1[nH]c(=O)[nH]c1O

>  <score_type>  (39) 
oracle

>  <origin>  (39) 
adg

>  <m_score__min__energy>  (39) 
-16.449999999999999

>  <m_primary>  (39) 
energy

$$$$
39:0
     RDKit          3D

 60 62  0  0  0  0  0  0  0  0999 V2000
   57.4330   34.1140   45.2310 C   0  0  0  0  0  0  0  0  0  0  0  0
   57.3460   33.0900   46.3600 C   0  0  0  0  0  0  0  0  0  0  0  0
   58.3250   31.9510   46.1240 C   0  0  0  0  0  0  0  0  0  0  0  0
   59.6780   31.9980   46.5570 C   0  0  0  0  0  0  0  0  0  0  0  0
   60.2610   33.3330   47.0070 C   0  0  0  0  0  0  0  0  0  0  0  0
   59.9130   33.5950   48.4460 C   0  0  0  0  0  0  0  0  0  0  0  0
   60.1190   34.7430   48.9420 O   0  0  0  0  0  0  0  0  0  0  0  0
   59.3940   32.5350   49.2680 N   0  0  0  0  0  0  0  0  0  0  0  0
   58.9650   32.7630   50.6210 C   0  0  0  0  0  0  0  0  0  0  0  0
   59.3060   33.9750   51.2400 C   0  0  0  0  0  0  0  0  0  0  0  0
   58.9010   34.2390   52.5500 C   0  0  0  0  0  0  0  0  0  0  0  0
   58.1520   33.2970   53.2580 C   0  0  0  0  0  0  0  0  0  0  0  0
   57.8130   32.0800   52.6580 C   0  0  0  0  0  0  0  0  0  0  0  0
   58.2280   31.7910   51.3440 C   0  0  0  0  0  0  0  0  0  0  0  0
   57.8570   30.4590   50.7420 C   0  0  0  0  0  0  0  0  0  0  0  0
   60.4750   30.8710   46.4310 N   0  0  0  0  0  0  0  0  0  0  0  0
   61.8500   30.8210   46.9950 C   0  0  0  0  0  0  0  0  0  0  0  0
   61.9030   30.9510   48.5250 C   0  0  0  0  0  0  0  0  0  0  0  0
   62.6090   32.0110   49.1740 C   0  0  0  0  0  0  0  0  0  0  0  0
   63.2750   33.1300   48.4130 C   0  0  0  0  0  0  0  0  0  0  0  0
   62.6970   32.0390   50.5740 C   0  0  0  0  0  0  0  0  0  0  0  0
   62.0330   31.0920   51.3530 C   0  0  0  0  0  0  0  0  0  0  0  0
   62.1290   31.1310   52.8490 C   0  0  0  0  0  0  0  0  0  0  0  0
   61.2720   30.1000   50.7330 C   0  0  0  0  0  0  0  0  0  0  0  0
   61.1690   30.0340   49.3360 C   0  0  0  0  0  0  0  0  0  0  0  0
   60.2610   28.9810   48.7380 C   0  0  0  0  0  0  0  0  0  0  0  0
   60.0010   29.7830   45.7390 C   0  0  0  0  0  0  0  0  0  0  0  0
   60.7460   28.7820   45.5210 O   0  0  0  0  0  0  0  0  0  0  0  0
   58.7110   29.7350   45.3100 N   0  0  0  0  0  0  0  0  0  0  0  0
   58.2660   28.6290   44.6250 O   0  0  0  0  0  0  0  0  0  0  0  0
   57.8600   30.7640   45.5330 C   0  0  0  0  0  0  0  0  0  0  0  0
   56.6500   30.6530   45.1870 O   0  0  0  0  0  0  0  0  0  0  0  0
   57.5188   35.1241   45.6580 H   0  0  0  0  0  0  0  0  0  0  0  0
   58.3164   33.9018   44.6108 H   0  0  0  0  0  0  0  0  0  0  0  0
   56.5265   34.0539   44.6108 H   0  0  0  0  0  0  0  0  0  0  0  0
   57.5865   33.5820   47.3140 H   0  0  0  0  0  0  0  0  0  0  0  0
   56.3254   32.6807   46.3905 H   0  0  0  0  0  0  0  0  0  0  0  0
   61.3552   33.3068   46.8971 H   0  0  0  0  0  0  0  0  0  0  0  0
   59.8393   34.1360   46.3846 H   0  0  0  0  0  0  0  0  0  0  0  0
   59.5060   31.5450   48.9380 H   0  0  0  0  0  0  0  0  0  0  0  0
   59.8964   34.7223   50.6896 H   0  0  0  0  0  0  0  0  0  0  0  0
   59.1730   35.1926   53.0260 H   0  0  0  0  0  0  0  0  0  0  0  0
   57.8287   33.5120   54.2872 H   0  0  0  0  0  0  0  0  0  0  0  0
   57.2176   31.3430   53.2169 H   0  0  0  0  0  0  0  0  0  0  0  0
   57.6557   29.7363   51.5465 H   0  0  0  0  0  0  0  0  0  0  0  0
   56.9571   30.5755   50.1202 H   0  0  0  0  0  0  0  0  0  0  0  0
   58.6875   30.0936   50.1202 H   0  0  0  0  0  0  0  0  0  0  0  0
   62.3045   29.8596   46.7136 H   0  0  0  0  0  0  0  0  0  0  0  0
   62.3944   31.6836   46.5833 H   0  0  0  0  0  0  0  0  0  0  0  0
   63.7045   33.8517   49.1234 H   0  0  0  0  0  0  0  0  0  0  0  0
   64.0749   32.7179   47.7803 H   0  0  0  0  0  0  0  0  0  0  0  0
   62.5313   33.6366   47.7803 H   0  0  0  0  0  0  0  0  0  0  0  0
   63.2983   32.8190   51.0640 H   0  0  0  0  0  0  0  0  0  0  0  0
   61.1939   30.7511   53.2864 H   0  0  0  0  0  0  0  0  0  0  0  0
   62.9698   30.5031   53.1790 H   0  0  0  0  0  0  0  0  0  0  0  0
   62.2937   32.1673   53.1790 H   0  0  0  0  0  0  0  0  0  0  0  0
   60.7444   29.3578   51.3501 H   0  0  0  0  0  0  0  0  0  0  0  0
   59.7735   28.4156   49.5458 H   0  0  0  0  0  0  0  0  0  0  0  0
   59.4946   29.4676   48.1168 H   0  0  0  0  0  0  0  0  0  0  0  0
   60.8550   28.2945   48.1168 H   0  0  0  0  0  0  0  0  0  0  0  0
  1  2  1  0
  2  3  1  0
  3  4  2  0
  4  5  1  0
  5  6  1  0
  6  7  2  0
  6  8  1  0
  8  9  1  0
  9 10  2  0
 10 11  1  0
 11 12  2  0
 12 13  1  0
 13 14  2  0
 14 15  1  0
  4 16  1  0
 16 17  1  0
 17 18  1  0
 18 19  2  0
 19 20  1  0
 19 21  1  0
 21 22  2  0
 22 23  1  0
 22 24  1  0
 24 25  2  0
 25 26  1  0
 16 27  1  0
 27 28  2  0
 27 29  1  0
 29 30  1  0
 29 31  1  0
 31 32  2  0
 31  3  1  0
 14  9  1  0
 25 18  1  0
  1 33  1  0
  1 34  1  0
  1 35  1  0
  2 36  1  0
  2 37  1  0
  5 38  1  0
  5 39  1  0
  8 40  1  0
 10 41  1  0
 11 42  1  0
 12 43  1  0
 13 44  1  0
 15 45  1  0
 15 46  1  0
 15 47  1  0
 17 48  1  0
 17 49  1  0
 20 50  1  0
 20 51  1  0
 20 52  1  0
 21 53  1  0
 23 54  1  0
 23 55  1  0
 23 56  1  0
 24 57  1  0
 26 58  1  0
 26 59  1  0
 26 60  1  0
M  CHG  1  30  -1
M  END
>  <UniqueID>  (40) 
37

>  <SMILES>  (40) 
CCc1c(CC(=O)Nc2ccccc2C)n(Cc2c(C)cc(C)cc2C)c(=O)n([O-])c1=O

>  <Energy>  (40) 
81.14884985110747

>  <Genealogy>  (40) 
CCc1c(CC(=O)Nc2ccccc2C)n(Cc2c(C)cc(C)cc2C)c(=O)n([O-])c1=O (protonated)
CCc1c(CC(=O)Nc2ccccc2C)n(Cc2c(C)cc(C)cc2C)c(=O)n([O-])c1=O (3D coordinates assigned)
CCc1c(CC(=O)Nc2ccccc2C)n(Cc2c(C)cc(C)cc2C)c(=O)n([O-])c1=O (optimized conformer: 81.14884985110747 kcal/mol)

>  <smiles>  (40) 
CCc1c(CC(=O)Nc2ccccc2C)n(Cc2c(C)cc(C)cc2C)c(=O)n(O)c1=O

>  <score_type>  (40) 
oracle

>  <origin>  (40) 
adg

>  <m_score__min__energy>  (40) 
-12.130000000000001

>  <m_primary>  (40) 
energy

$$$$
40:0
     RDKit          3D

 67 69  0  0  0  0  0  0  0  0999 V2000
   59.5830   23.3410   45.6030 C   0  0  0  0  0  0  0  0  0  0  0  0
   59.1000   22.0860   44.8740 C   0  0  0  0  0  0  0  0  0  0  0  0
   57.8200   21.4960   45.4920 C   0  0  0  0  0  0  0  0  0  0  0  0
   56.8960   20.8630   44.4460 C   0  0  0  0  0  0  0  0  0  0  0  0
   55.6120   21.5690   44.4450 N   0  0  0  0  0  0  0  0  0  0  0  0
   55.6970   23.0160   43.4870 S   0  0  0  0  0  0  0  0  0  0  0  0
   56.6050   22.7820   42.3160 O   0  0  0  0  0  0  0  0  0  0  0  0
   54.3240   23.3660   42.9880 O   0  0  0  0  0  0  0  0  0  0  0  0
   56.3460   24.3260   44.4690 C   0  0  0  0  0  0  0  0  0  0  0  0
   55.8120   24.6040   45.7350 C   0  0  0  0  0  0  0  0  0  0  0  0
   56.3410   25.6430   46.5080 C   0  0  0  0  0  0  0  0  0  0  0  0
   57.4020   26.4250   46.0140 C   0  0  0  0  0  0  0  0  0  0  0  0
   57.9810   27.4950   46.7730 N   0  0  0  0  0  0  0  0  0  0  0  0
   59.6570   27.6160   47.2030 S   0  0  0  0  0  0  0  0  0  0  0  0
   60.4770   27.7730   45.9530 O   0  0  0  0  0  0  0  0  0  0  0  0
   60.0870   26.3600   47.9080 O   0  0  0  0  0  0  0  0  0  0  0  0
   59.8990   29.0310   48.2220 C   0  0  0  0  0  0  0  0  0  0  0  0
   61.0970   29.7570   48.1770 C   0  0  0  0  0  0  0  0  0  0  0  0
   61.2820   30.8620   49.0140 C   0  0  0  0  0  0  0  0  0  0  0  0
   60.2660   31.2580   49.9070 C   0  0  0  0  0  0  0  0  0  0  0  0
   60.4310   32.3800   50.7960 N   0  0  0  0  0  0  0  0  0  0  0  0
   60.2030   33.7670   50.3900 C   0  0  0  0  0  0  0  0  0  0  0  0
   59.9580   33.8470   48.9130 C   0  0  0  0  0  0  0  0  0  0  0  0
   60.7020   34.5850   48.2100 O   0  0  0  0  0  0  0  0  0  0  0  0
   58.8510   33.1490   48.3220 N   0  0  0  0  0  0  0  0  0  0  0  0
   58.5170   33.2260   46.9250 C   0  0  0  0  0  0  0  0  0  0  0  0
   58.5750   34.4430   46.2250 C   0  0  0  0  0  0  0  0  0  0  0  0
   58.2060   34.5000   44.8800 C   0  0  0  0  0  0  0  0  0  0  0  0
   57.7850   33.3440   44.2170 C   0  0  0  0  0  0  0  0  0  0  0  0
   57.7530   32.1190   44.8940 C   0  0  0  0  0  0  0  0  0  0  0  0
   57.1740   30.6680   44.0790 S   0  0  0  0  0  0  0  0  0  0  0  0
   58.4070   29.3920   44.2180 C   0  0  0  0  0  0  0  0  0  0  0  0
   56.9110   30.9640   42.6290 O   0  0  0  0  0  0  0  0  0  0  0  0
   55.8940   30.2030   44.7160 O   0  0  0  0  0  0  0  0  0  0  0  0
   58.1280   32.0610   46.2430 C   0  0  0  0  0  0  0  0  0  0  0  0
   59.0650   30.5330   49.9340 C   0  0  0  0  0  0  0  0  0  0  0  0
   58.8830   29.4280   49.0980 C   0  0  0  0  0  0  0  0  0  0  0  0
   57.9260   26.1470   44.7420 C   0  0  0  0  0  0  0  0  0  0  0  0
   57.3950   25.1100   43.9700 C   0  0  0  0  0  0  0  0  0  0  0  0
   59.5212   23.1806   46.6895 H   0  0  0  0  0  0  0  0  0  0  0  0
   60.6258   23.5499   45.3219 H   0  0  0  0  0  0  0  0  0  0  0  0
   58.9493   24.1951   45.3219 H   0  0  0  0  0  0  0  0  0  0  0  0
   58.8970   22.3449   43.8243 H   0  0  0  0  0  0  0  0  0  0  0  0
   59.8911   21.3266   44.9599 H   0  0  0  0  0  0  0  0  0  0  0  0
   58.1051   20.7247   46.2226 H   0  0  0  0  0  0  0  0  0  0  0  0
   57.2689   22.3214   45.9663 H   0  0  0  0  0  0  0  0  0  0  0  0
   57.3591   20.9407   43.4513 H   0  0  0  0  0  0  0  0  0  0  0  0
   56.7339   19.8028   44.6903 H   0  0  0  0  0  0  0  0  0  0  0  0
   54.9751   24.0038   46.1214 H   0  0  0  0  0  0  0  0  0  0  0  0
   55.9263   25.8497   47.5056 H   0  0  0  0  0  0  0  0  0  0  0  0
   61.8943   29.4567   47.4811 H   0  0  0  0  0  0  0  0  0  0  0  0
   62.2260   31.4254   48.9752 H   0  0  0  0  0  0  0  0  0  0  0  0
   60.7680   32.1910   51.7670 H   0  0  0  0  0  0  0  0  0  0  0  0
   59.3262   34.1614   50.9245 H   0  0  0  0  0  0  0  0  0  0  0  0
   61.0953   34.3615   50.6359 H   0  0  0  0  0  0  0  0  0  0  0  0
   58.1770   32.6730   48.9620 H   0  0  0  0  0  0  0  0  0  0  0  0
   58.9127   35.3549   46.7392 H   0  0  0  0  0  0  0  0  0  0  0  0
   58.2467   35.4576   44.3403 H   0  0  0  0  0  0  0  0  0  0  0  0
   57.4784   33.3967   43.1619 H   0  0  0  0  0  0  0  0  0  0  0  0
   58.6047   29.1874   45.2806 H   0  0  0  0  0  0  0  0  0  0  0  0
   58.0433   28.4759   43.7297 H   0  0  0  0  0  0  0  0  0  0  0  0
   59.3350   29.7241   43.7297 H   0  0  0  0  0  0  0  0  0  0  0  0
   58.1177   31.0964   46.7717 H   0  0  0  0  0  0  0  0  0  0  0  0
   58.2598   30.8370   50.6190 H   0  0  0  0  0  0  0  0  0  0  0  0
   57.9368   28.8679   49.1289 H   0  0  0  0  0  0  0  0  0  0  0  0
   58.7594   26.7488   44.3504 H   0  0  0  0  0  0  0  0  0  0  0  0
   57.8016   24.9086   42.9679 H   0  0  0  0  0  0  0  0  0  0  0  0
  1  2  1  0
  2  3  1  0
  3  4  1  0
  4  5  1  0
  5  6  1  0
  6  7  2  0
  6  8  2  0
  6  9  1  0
  9 10  2  0
 10 11  1  0
 11 12  2  0
 12 13  1  0
 13 14  1  0
 14 15  2  0
 14 16  2  0
 14 17  1  0
 17 18  2  0
 18 19  1  0
 19 20  2  0
 20 21  1  0
 21 22  1  0
 22 23  1  0
 23 24  2  0
 23 25  1  0
 25 26  1  0
 26 27  2  0
 27 28  1  0
 28 29  2  0
 29 30  1  0
 30 31  1  0
 31 32  1  0
 31 33  2  0
 31 34  2  0
 30 35  2  0
 20 36  1  0
 36 37  2  0
 12 38  1  0
 38 39  2  0
 39  9  1  0
 37 17  1  0
 35 26  1  0
  1 40  1  0
  1 41  1  0
  1 42  1  0
  2 43  1  0
  2 44  1  0
  3 45  1  0
  3 46  1  0
  4 47  1  0
  4 48  1  0
 10 49  1  0
 11 50  1  0
 18 51  1  0
 19 52  1  0
 21 53  1  0
 22 54  1  0
 22 55  1  0
 25 56  1  0
 27 57  1  0
 28 58  1  0
 29 59  1  0
 32 60  1  0
 32 61  1  0
 32 62  1  0
 35 63  1  0
 36 64  1  0
 37 65  1  0
 38 66  1  0
 39 67  1  0
M  CHG  2   5  -1  13  -1
M  END
>  <UniqueID>  (41) 
38

>  <SMILES>  (41) 
CCCC[N-]S(=O)(=O)c1ccc([N-]S(=O)(=O)c2ccc(NCC(=O)Nc3cccc(S(C)(=O)=O)c3)cc2)cc1

>  <Energy>  (41) 
65.32764486600071

>  <Genealogy>  (41) 
CCCC[N-]S(=O)(=O)c1ccc([N-]S(=O)(=O)c2ccc(NCC(=O)Nc3cccc(S(C)(=O)=O)c3)cc2)cc1 (protonated)
CCCC[N-]S(=O)(=O)c1ccc([N-]S(=O)(=O)c2ccc(NCC(=O)Nc3cccc(S(C)(=O)=O)c3)cc2)cc1 (3D coordinates assigned)
CCCC[N-]S(=O)(=O)c1ccc([N-]S(=O)(=O)c2ccc(NCC(=O)Nc3cccc(S(C)(=O)=O)c3)cc2)cc1 (optimized conformer: 65.32764486600071 kcal/mol)

>  <smiles>  (41) 
CCCCNS(=O)(=O)c1ccc(NS(=O)(=O)c2ccc(NCC(=O)Nc3cccc(S(C)(=O)=O)c3)cc2)cc1

>  <score_type>  (41) 
oracle

>  <origin>  (41) 
adg

>  <m_score__min__energy>  (41) 
-13.119999999999999

>  <m_primary>  (41) 
energy

$$$$
41:0
     RDKit          3D

 58 62  0  0  0  0  0  0  0  0999 V2000
   51.0190   32.6670   49.3520 N   0  0  0  0  0  0  0  0  0  0  0  0
   51.2070   31.3160   49.7640 C   0  0  0  0  0  0  0  0  0  0  0  0
   51.3790   30.4210   48.8940 O   0  0  0  0  0  0  0  0  0  0  0  0
   51.1970   30.9800   51.2000 C   0  0  0  0  0  0  0  0  0  0  0  0
   51.4680   29.7020   51.6030 N   0  0  0  0  0  0  0  0  0  0  0  0
   51.4730   29.3330   52.8970 N   0  0  0  0  0  0  0  0  0  0  0  0
   51.8130   27.9450   53.2200 C   0  0  0  0  0  0  0  0  0  0  0  0
   53.2920   27.8180   53.4680 C   0  0  0  0  0  0  0  0  0  0  0  0
   53.8240   26.6430   54.0220 C   0  0  0  0  0  0  0  0  0  0  0  0
   55.1920   26.5490   54.2880 C   0  0  0  0  0  0  0  0  0  0  0  0
   56.0380   27.6240   54.0040 C   0  0  0  0  0  0  0  0  0  0  0  0
   55.5200   28.8010   53.4360 C   0  0  0  0  0  0  0  0  0  0  0  0
   56.3560   29.9330   53.1550 N   0  0  0  0  0  0  0  0  0  0  0  0
   56.1980   30.8520   52.0650 C   0  0  0  0  0  0  0  0  0  0  0  0
   55.1410   30.7990   51.3820 O   0  0  0  0  0  0  0  0  0  0  0  0
   57.2590   31.8160   51.6900 C   0  0  0  0  0  0  0  0  0  0  0  0
   57.4220   33.0200   52.3960 C   0  0  0  0  0  0  0  0  0  0  0  0
   58.4290   33.9170   52.0390 C   0  0  0  0  0  0  0  0  0  0  0  0
   59.2920   33.6220   50.9830 C   0  0  0  0  0  0  0  0  0  0  0  0
   59.1530   32.4200   50.2730 C   0  0  0  0  0  0  0  0  0  0  0  0
   60.0930   32.0840   49.1430 C   0  0  0  0  0  0  0  0  0  0  0  0
   59.3940   32.1490   47.8390 N   0  0  0  0  0  0  0  0  0  0  0  0
   58.3860   33.2350   47.7960 C   0  0  0  0  0  0  0  0  0  0  0  0
   58.9470   34.5470   47.2100 C   0  0  0  0  0  0  0  0  0  0  0  0
   60.3420   34.6220   47.4020 O   0  0  0  0  0  0  0  0  0  0  0  0
   60.9940   33.6430   46.6110 C   0  0  0  0  0  0  0  0  0  0  0  0
   60.3260   32.2490   46.6960 C   0  0  0  0  0  0  0  0  0  0  0  0
   58.1390   31.5180   50.6340 C   0  0  0  0  0  0  0  0  0  0  0  0
   54.1450   28.8980   53.1910 C   0  0  0  0  0  0  0  0  0  0  0  0
   51.2140   30.2530   53.8870 C   0  0  0  0  0  0  0  0  0  0  0  0
   51.2290   29.9320   55.1070 O   0  0  0  0  0  0  0  0  0  0  0  0
   50.9360   31.5580   53.5050 C   0  0  0  0  0  0  0  0  0  0  0  0
   50.6580   32.6140   54.2860 N   0  0  0  0  0  0  0  0  0  0  0  0
   50.4860   33.6000   53.3700 C   0  0  0  0  0  0  0  0  0  0  0  0
   50.2060   34.7820   53.6980 O   0  0  0  0  0  0  0  0  0  0  0  0
   50.6410   33.2210   52.0760 N   0  0  0  0  0  0  0  0  0  0  0  0
   50.9260   31.9150   52.1980 C   0  0  0  0  0  0  0  0  0  0  0  0
   51.3900   33.4590   49.9230 H   0  0  0  0  0  0  0  0  0  0  0  0
   51.2652   27.6371   54.1228 H   0  0  0  0  0  0  0  0  0  0  0  0
   51.5336   27.3001   52.3738 H   0  0  0  0  0  0  0  0  0  0  0  0
   53.1618   25.7940   54.2472 H   0  0  0  0  0  0  0  0  0  0  0  0
   55.6043   25.6262   54.7222 H   0  0  0  0  0  0  0  0  0  0  0  0
   57.1129   27.5492   54.2256 H   0  0  0  0  0  0  0  0  0  0  0  0
   56.7515   33.2566   53.2353 H   0  0  0  0  0  0  0  0  0  0  0  0
   58.5432   34.8608   52.5923 H   0  0  0  0  0  0  0  0  0  0  0  0
   60.0836   34.3339   50.7064 H   0  0  0  0  0  0  0  0  0  0  0  0
   60.9261   32.8023   49.1415 H   0  0  0  0  0  0  0  0  0  0  0  0
   60.4691   31.0608   49.2903 H   0  0  0  0  0  0  0  0  0  0  0  0
   57.5404   32.9055   47.1744 H   0  0  0  0  0  0  0  0  0  0  0  0
   58.0753   33.4403   48.8311 H   0  0  0  0  0  0  0  0  0  0  0  0
   58.7282   34.5839   46.1326 H   0  0  0  0  0  0  0  0  0  0  0  0
   58.4729   35.3956   47.7249 H   0  0  0  0  0  0  0  0  0  0  0  0
   60.9800   33.9744   45.5622 H   0  0  0  0  0  0  0  0  0  0  0  0
   62.0188   33.5393   46.9969 H   0  0  0  0  0  0  0  0  0  0  0  0
   59.7680   32.0655   45.7660 H   0  0  0  0  0  0  0  0  0  0  0  0
   61.1195   31.5007   46.8389 H   0  0  0  0  0  0  0  0  0  0  0  0
   58.0320   30.5702   50.0861 H   0  0  0  0  0  0  0  0  0  0  0  0
   53.7293   29.8288   52.7778 H   0  0  0  0  0  0  0  0  0  0  0  0
  1  2  1  0
  2  3  2  0
  2  4  1  0
  4  5  2  0
  5  6  1  0
  6  7  1  0
  7  8  1  0
  8  9  2  0
  9 10  1  0
 10 11  2  0
 11 12  1  0
 12 13  1  0
 13 14  1  0
 14 15  2  0
 14 16  1  0
 16 17  2  0
 17 18  1  0
 18 19  2  0
 19 20  1  0
 20 21  1  0
 21 22  1  0
 22 23  1  0
 23 24  1  0
 24 25  1  0
 25 26  1  0
 26 27  1  0
 20 28  2  0
 12 29  2  0
  6 30  1  0
 30 31  2  0
 30 32  1  0
 32 33  1  0
 33 34  1  0
 34 35  2  0
 34 36  1  0
 36 37  1  0
 37  4  1  0
 29  8  1  0
 37 32  2  0
 28 16  1  0
 27 22  1  0
  1 38  1  0
  7 39  1  0
  7 40  1  0
  9 41  1  0
 10 42  1  0
 11 43  1  0
 17 44  1  0
 18 45  1  0
 19 46  1  0
 21 47  1  0
 21 48  1  0
 23 49  1  0
 23 50  1  0
 24 51  1  0
 24 52  1  0
 26 53  1  0
 26 54  1  0
 27 55  1  0
 27 56  1  0
 28 57  1  0
 29 58  1  0
M  CHG  4   1  -1  13  -1  33  -1  36  -1
M  END
>  <UniqueID>  (42) 
39

>  <SMILES>  (42) 
[NH-]C(=O)c1nn(Cc2cccc([N-]C(=O)c3cccc(CN4CCOCC4)c3)c2)c(=O)c2[n-]c(=O)[n-]c12

>  <Energy>  (42) 
119.31040787948636

>  <Genealogy>  (42) 
[NH-]C(=O)c1nn(Cc2cccc([N-]C(=O)c3cccc(CN4CCOCC4)c3)c2)c(=O)c2[n-]c(=O)[n-]c12 (protonated)
[NH-]C(=O)c1nn(Cc2cccc([N-]C(=O)c3cccc(CN4CCOCC4)c3)c2)c(=O)c2[n-]c(=O)[n-]c12 (3D coordinates assigned)
[NH-]C(=O)c1nn(Cc2cccc([N-]C(=O)c3cccc(CN4CCOCC4)c3)c2)c(=O)c2[n-]c(=O)[n-]c12 (nonaromatic ring conformer: 119.31040787948636 kcal/mol)

>  <smiles>  (42) 
NC(=O)c1nn(Cc2cccc(NC(=O)c3cccc(CN4CCOCC4)c3)c2)c(=O)c2[nH]c(=O)[nH]c12

>  <score_type>  (42) 
oracle

>  <origin>  (42) 
adg

>  <m_score__min__energy>  (42) 
-17.75

>  <m_primary>  (42) 
energy

$$$$
42:0
     RDKit          3D

 46 48  0  0  0  0  0  0  0  0999 V2000
   58.7036   35.2992   46.1542 H   0  0  0  0  0  0  0  0  0  0  0  0
   58.4490   34.2720   45.8540 C   0  0  0  0  0  0  0  0  0  0  0  0
   58.1130   33.3250   46.8230 C   0  0  0  0  0  0  0  0  0  0  0  0
   58.1046   33.6061   47.8864 H   0  0  0  0  0  0  0  0  0  0  0  0
   57.7870   32.0190   46.4430 C   0  0  0  0  0  0  0  0  0  0  0  0
   57.5324   31.2734   47.2106 H   0  0  0  0  0  0  0  0  0  0  0  0
   57.7830   31.6540   45.0850 C   0  0  0  0  0  0  0  0  0  0  0  0
   57.4290   30.2740   44.6690 C   0  0  0  0  0  0  0  0  0  0  0  0
   56.2730   29.8350   44.9110 O   0  0  0  0  0  0  0  0  0  0  0  0
   58.3420   29.4370   43.9410 N   0  0  0  0  0  0  0  0  0  0  0  0
   58.7540   28.2450   44.2750 C   0  0  0  0  0  0  0  0  0  0  0  0
   58.1270   27.0140   43.7520 C   0  0  0  0  0  0  0  0  0  0  0  0
   58.1220   26.7930   42.5120 O   0  0  0  0  0  0  0  0  0  0  0  0
   57.4650   26.1130   44.6450 N   0  0  0  0  0  0  0  0  0  0  0  0
   58.1380   24.9960   45.2960 C   0  0  0  0  0  0  0  0  0  0  0  0
   59.2253   25.1606   45.2717 H   0  0  0  0  0  0  0  0  0  0  0  0
   57.7969   24.9249   46.3394 H   0  0  0  0  0  0  0  0  0  0  0  0
   57.8110   23.7160   44.5790 C   0  0  0  0  0  0  0  0  0  0  0  0
   56.7750   23.6790   43.6360 C   0  0  0  0  0  0  0  0  0  0  0  0
   56.1695   24.5781   43.4490 H   0  0  0  0  0  0  0  0  0  0  0  0
   56.5110   22.5020   42.9340 C   0  0  0  0  0  0  0  0  0  0  0  0
   55.6965   22.4666   42.1955 H   0  0  0  0  0  0  0  0  0  0  0  0
   57.2900   21.3710   43.1780 C   0  0  0  0  0  0  0  0  0  0  0  0
   57.0894   20.4383   42.6304 H   0  0  0  0  0  0  0  0  0  0  0  0
   58.2980   21.4180   44.0920 N   0  0  0  0  0  0  0  0  0  0  0  0
   58.8770   20.5660   44.2590 H   0  0  0  0  0  0  0  0  0  0  0  0
   58.5740   22.5560   44.7880 C   0  0  0  0  0  0  0  0  0  0  0  0
   59.3980   22.5662   45.5167 H   0  0  0  0  0  0  0  0  0  0  0  0
   60.0320   28.1210   45.0570 C   0  0  0  0  0  0  0  0  0  0  0  0
   60.1611   27.0778   45.3810 H   0  0  0  0  0  0  0  0  0  0  0  0
   60.8765   28.4205   44.4189 H   0  0  0  0  0  0  0  0  0  0  0  0
   59.9840   29.0200   46.2710 C   0  0  0  0  0  0  0  0  0  0  0  0
   60.8020   30.1640   46.2980 C   0  0  0  0  0  0  0  0  0  0  0  0
   61.4231   30.4095   45.4240 H   0  0  0  0  0  0  0  0  0  0  0  0
   60.8340   30.9910   47.4220 C   0  0  0  0  0  0  0  0  0  0  0  0
   61.4772   31.8833   47.4295 H   0  0  0  0  0  0  0  0  0  0  0  0
   60.0510   30.6870   48.5360 C   0  0  0  0  0  0  0  0  0  0  0  0
   60.0769   31.3399   49.4209 H   0  0  0  0  0  0  0  0  0  0  0  0
   59.2350   29.5550   48.5280 C   0  0  0  0  0  0  0  0  0  0  0  0
   58.6178   29.3207   49.4079 H   0  0  0  0  0  0  0  0  0  0  0  0
   59.1960   28.7150   47.4080 C   0  0  0  0  0  0  0  0  0  0  0  0
   58.1420   27.3070   47.4750 Cl  0  0  0  0  0  0  0  0  0  0  0  0
   58.1370   32.6120   44.1180 C   0  0  0  0  0  0  0  0  0  0  0  0
   58.1583   32.3343   43.0538 H   0  0  0  0  0  0  0  0  0  0  0  0
   58.4620   33.9160   44.5040 C   0  0  0  0  0  0  0  0  0  0  0  0
   58.7286   34.6633   43.7421 H   0  0  0  0  0  0  0  0  0  0  0  0
  1  2  1  0
  2  3  2  0
  3  4  1  0
  3  5  1  0
  5  6  1  0
  5  7  2  0
  7  8  1  0
  8  9  2  0
  8 10  1  0
 10 11  2  0
 11 12  1  0
 12 13  2  0
 12 14  1  0
 14 15  1  0
 15 16  1  0
 15 17  1  0
 15 18  1  0
 18 19  2  0
 19 20  1  0
 19 21  1  0
 21 22  1  0
 21 23  2  0
 23 24  1  0
 23 25  1  0
 25 26  1  0
 25 27  2  0
 27 28  1  0
 11 29  1  0
 29 30  1  0
 29 31  1  0
 29 32  1  0
 32 33  2  0
 33 34  1  0
 33 35  1  0
 35 36  1  0
 35 37  2  0
 37 38  1  0
 37 39  1  0
 39 40  1  0
 39 41  2  0
 41 42  1  0
  7 43  1  0
 43 44  1  0
 43 45  2  0
 45 46  1  0
 45  2  1  0
 27 18  1  0
 41 32  1  0
M  CHG  2  14  -1  25   1
M  END
>  <UniqueID>  (43) 
40

>  <SMILES>  (43) 
O=C([N-]Cc1ccc[nH+]c1)/C(Cc1ccccc1Cl)=N\C(=O)c1ccccc1

>  <Energy>  (43) 
54.00669880586354

>  <Genealogy>  (43) 
O=C([N-]Cc1ccc[nH+]c1)C(Cc1ccccc1Cl)=NC(=O)c1ccccc1 (protonated)
O=C([N-]Cc1ccc[nH+]c1)/C(Cc1ccccc1Cl)=N\C(=O)c1ccccc1 (cis-trans isomerization)
O=C([N-]Cc1ccc[nH+]c1)/C(Cc1ccccc1Cl)=N\C(=O)c1ccccc1 (3D coordinates assigned)
O=C([N-]Cc1ccc[nH+]c1)/C(Cc1ccccc1Cl)=N\C(=O)c1ccccc1 (optimized conformer: 54.00669880586354 kcal/mol)

>  <smiles>  (43) 
O=C(NCc1cccnc1)C(Cc1ccccc1Cl)=NC(=O)c1ccccc1

>  <score_type>  (43) 
oracle

>  <origin>  (43) 
adg

>  <m_score__min__energy>  (43) 
-10.34

>  <m_primary>  (43) 
energy

$$$$
43:0
     RDKit          3D

 55 58  0  0  0  0  0  0  0  0999 V2000
   53.6370   24.1690   45.2710 C   0  0  0  0  0  0  0  0  0  0  0  0
   53.8880   22.7730   44.9290 N   0  0  0  0  0  0  0  0  0  0  0  0
   55.5400   22.5770   44.4300 S   0  0  0  0  0  0  0  0  0  0  0  0
   55.6030   22.3640   42.9430 O   0  0  0  0  0  0  0  0  0  0  0  0
   56.1180   21.3660   45.1070 O   0  0  0  0  0  0  0  0  0  0  0  0
   56.4870   23.9950   44.8780 C   0  0  0  0  0  0  0  0  0  0  0  0
   56.6630   24.3180   46.2300 C   0  0  0  0  0  0  0  0  0  0  0  0
   57.3980   25.4500   46.5920 C   0  0  0  0  0  0  0  0  0  0  0  0
   57.9610   26.2760   45.6050 C   0  0  0  0  0  0  0  0  0  0  0  0
   58.7280   27.5080   46.0030 C   0  0  0  0  0  0  0  0  0  0  0  0
   57.8120   28.5420   46.4800 N   0  0  0  0  0  0  0  0  0  0  0  0
   57.0810   29.3840   45.5740 C   0  0  0  0  0  0  0  0  0  0  0  0
   55.9160   29.0190   45.0070 N   0  0  0  0  0  0  0  0  0  0  0  0
   55.5720   30.0870   44.2590 C   0  0  0  0  0  0  0  0  0  0  0  0
   56.4560   31.1040   44.3260 N   0  0  0  0  0  0  0  0  0  0  0  0
   57.4170   30.6620   45.1600 C   0  0  0  0  0  0  0  0  0  0  0  0
   58.6000   31.4750   45.5170 C   0  0  0  0  0  0  0  0  0  0  0  0
   58.7240   32.6470   45.0740 O   0  0  0  0  0  0  0  0  0  0  0  0
   59.6270   30.9120   46.3510 N   0  0  0  0  0  0  0  0  0  0  0  0
   60.6710   31.6850   46.9660 C   0  0  0  0  0  0  0  0  0  0  0  0
   61.9400   31.1110   47.1420 C   0  0  0  0  0  0  0  0  0  0  0  0
   62.9660   31.8350   47.7570 C   0  0  0  0  0  0  0  0  0  0  0  0
   62.7340   33.1450   48.2110 C   0  0  0  0  0  0  0  0  0  0  0  0
   63.7320   33.8960   48.8480 O   0  0  0  0  0  0  0  0  0  0  0  0
   64.5190   33.4570   49.9240 C   0  0  0  0  0  0  0  0  0  0  0  0
   65.6580   32.6510   49.7330 C   0  0  0  0  0  0  0  0  0  0  0  0
   66.4270   32.2500   50.8310 C   0  0  0  0  0  0  0  0  0  0  0  0
   66.0740   32.6580   52.1200 C   0  0  0  0  0  0  0  0  0  0  0  0
   64.9560   33.4750   52.3130 C   0  0  0  0  0  0  0  0  0  0  0  0
   64.1850   33.8770   51.2180 C   0  0  0  0  0  0  0  0  0  0  0  0
   61.4580   33.7010   48.0730 C   0  0  0  0  0  0  0  0  0  0  0  0
   60.4320   32.9800   47.4550 C   0  0  0  0  0  0  0  0  0  0  0  0
   57.7750   25.9540   44.2510 C   0  0  0  0  0  0  0  0  0  0  0  0
   57.0420   24.8200   43.8900 C   0  0  0  0  0  0  0  0  0  0  0  0
   53.6169   24.2806   46.3651 H   0  0  0  0  0  0  0  0  0  0  0  0
   54.4364   24.7984   44.8528 H   0  0  0  0  0  0  0  0  0  0  0  0
   52.6684   24.4805   44.8528 H   0  0  0  0  0  0  0  0  0  0  0  0
   56.2214   23.6787   47.0086 H   0  0  0  0  0  0  0  0  0  0  0  0
   57.5364   25.6956   47.6553 H   0  0  0  0  0  0  0  0  0  0  0  0
   59.4358   27.2518   46.8051 H   0  0  0  0  0  0  0  0  0  0  0  0
   59.2738   27.8889   45.1272 H   0  0  0  0  0  0  0  0  0  0  0  0
   57.7070   28.6510   47.5100 H   0  0  0  0  0  0  0  0  0  0  0  0
   54.6561   30.1254   43.6510 H   0  0  0  0  0  0  0  0  0  0  0  0
   59.6710   29.8710   46.4430 H   0  0  0  0  0  0  0  0  0  0  0  0
   62.1284   30.0847   46.7937 H   0  0  0  0  0  0  0  0  0  0  0  0
   63.9582   31.3779   47.8860 H   0  0  0  0  0  0  0  0  0  0  0  0
   65.9437   32.3361   48.7185 H   0  0  0  0  0  0  0  0  0  0  0  0
   67.3107   31.6127   50.6793 H   0  0  0  0  0  0  0  0  0  0  0  0
   66.6757   32.3364   52.9828 H   0  0  0  0  0  0  0  0  0  0  0  0
   64.6827   33.8018   53.3271 H   0  0  0  0  0  0  0  0  0  0  0  0
   63.3112   34.5268   51.3735 H   0  0  0  0  0  0  0  0  0  0  0  0
   61.2602   34.7138   48.4538 H   0  0  0  0  0  0  0  0  0  0  0  0
   59.4331   33.4288   47.3512 H   0  0  0  0  0  0  0  0  0  0  0  0
   58.2082   26.5972   43.4708 H   0  0  0  0  0  0  0  0  0  0  0  0
   56.9002   24.5742   42.8272 H   0  0  0  0  0  0  0  0  0  0  0  0
  1  2  1  0
  2  3  1  0
  3  4  2  0
  3  5  2  0
  3  6  1  0
  6  7  2  0
  7  8  1  0
  8  9  2  0
  9 10  1  0
 10 11  1  0
 11 12  1  0
 12 13  1  0
 13 14  1  0
 14 15  2  0
 15 16  1  0
 16 17  1  0
 17 18  2  0
 17 19  1  0
 19 20  1  0
 20 21  2  0
 21 22  1  0
 22 23  2  0
 23 24  1  0
 24 25  1  0
 25 26  2  0
 26 27  1  0
 27 28  2  0
 28 29  1  0
 29 30  2  0
 23 31  1  0
 31 32  2  0
  9 33  1  0
 33 34  2  0
 34  6  1  0
 16 12  2  0
 32 20  1  0
 30 25  1  0
  1 35  1  0
  1 36  1  0
  1 37  1  0
  7 38  1  0
  8 39  1  0
 10 40  1  0
 10 41  1  0
 11 42  1  0
 14 43  1  0
 19 44  1  0
 21 45  1  0
 22 46  1  0
 26 47  1  0
 27 48  1  0
 28 49  1  0
 29 50  1  0
 30 51  1  0
 31 52  1  0
 32 53  1  0
 33 54  1  0
 34 55  1  0
M  CHG  2   2  -1  13  -1
M  END
>  <UniqueID>  (44) 
41

>  <SMILES>  (44) 
C[N-]S(=O)(=O)c1ccc(CNc2[n-]cnc2C(=O)Nc2ccc(Oc3ccccc3)cc2)cc1

>  <Energy>  (44) 
94.35836902078248

>  <Genealogy>  (44) 
C[N-]S(=O)(=O)c1ccc(CNc2[n-]cnc2C(=O)Nc2ccc(Oc3ccccc3)cc2)cc1 (protonated)
C[N-]S(=O)(=O)c1ccc(CNc2[n-]cnc2C(=O)Nc2ccc(Oc3ccccc3)cc2)cc1 (3D coordinates assigned)
C[N-]S(=O)(=O)c1ccc(CNc2[n-]cnc2C(=O)Nc2ccc(Oc3ccccc3)cc2)cc1 (optimized conformer: 94.35836902078248 kcal/mol)

>  <smiles>  (44) 
CNS(=O)(=O)c1ccc(CNc2[nH]cnc2C(=O)Nc2ccc(Oc3ccccc3)cc2)cc1

>  <score_type>  (44) 
oracle

>  <origin>  (44) 
adg

>  <m_score__min__energy>  (44) 
-11.470000000000001

>  <m_primary>  (44) 
energy

$$$$
44:0
     RDKit          3D

 40 42  0  0  0  0  0  0  0  0999 V2000
   61.1049   28.8380   44.9362 H   0  0  0  0  0  0  0  0  0  0  0  0
   60.0600   28.6580   45.2290 C   0  0  0  0  0  0  0  0  0  0  0  0
   59.0250   29.3570   44.5940 C   0  0  0  0  0  0  0  0  0  0  0  0
   59.2617   30.0801   43.7996 H   0  0  0  0  0  0  0  0  0  0  0  0
   57.6920   29.1420   44.9630 C   0  0  0  0  0  0  0  0  0  0  0  0
   56.4120   30.0340   44.1480 S   0  0  0  0  0  0  0  0  0  0  0  0
   55.0830   29.3520   44.3180 O   0  0  0  0  0  0  0  0  0  0  0  0
   56.7320   30.1110   42.6820 O   0  0  0  0  0  0  0  0  0  0  0  0
   56.3200   31.6400   44.7950 N   0  0  0  0  0  0  0  0  0  0  0  0
   57.4390   32.4190   45.2440 C   0  0  0  0  0  0  0  0  0  0  0  0
   57.8680   33.5830   44.5590 C   0  0  0  0  0  0  0  0  0  0  0  0
   57.3253   33.9198   43.6634 H   0  0  0  0  0  0  0  0  0  0  0  0
   58.9810   34.3110   45.0140 C   0  0  0  0  0  0  0  0  0  0  0  0
   59.3172   35.2108   44.4780 H   0  0  0  0  0  0  0  0  0  0  0  0
   59.6530   33.8740   46.1570 C   0  0  0  0  0  0  0  0  0  0  0  0
   59.2190   32.7450   46.8330 C   0  0  0  0  0  0  0  0  0  0  0  0
   60.2120   32.4750   48.1590 S   0  0  0  0  0  0  0  0  0  0  0  0
   61.1700   33.8210   47.8050 C   0  0  0  0  0  0  0  0  0  0  0  0
   62.2050   34.1620   48.5160 N   0  0  0  0  0  0  0  0  0  0  0  0
   63.5810   33.7250   48.2830 C   0  0  0  0  0  0  0  0  0  0  0  0
   63.8586   32.9827   49.0458 H   0  0  0  0  0  0  0  0  0  0  0  0
   64.2457   34.5994   48.3431 H   0  0  0  0  0  0  0  0  0  0  0  0
   63.7180   33.0980   46.9010 C   0  0  0  0  0  0  0  0  0  0  0  0
   63.9517   32.0282   47.0053 H   0  0  0  0  0  0  0  0  0  0  0  0
   62.7731   33.2149   46.3500 H   0  0  0  0  0  0  0  0  0  0  0  0
   64.5280   33.5983   46.3500 H   0  0  0  0  0  0  0  0  0  0  0  0
   60.7430   34.4780   46.6930 N   0  0  0  0  0  0  0  0  0  0  0  0
   61.1830   35.3350   46.2900 H   0  0  0  0  0  0  0  0  0  0  0  0
   58.1250   32.0010   46.4000 C   0  0  0  0  0  0  0  0  0  0  0  0
   57.8030   31.1045   46.9501 H   0  0  0  0  0  0  0  0  0  0  0  0
   57.3960   28.2150   45.9700 C   0  0  0  0  0  0  0  0  0  0  0  0
   56.3507   28.0401   46.2647 H   0  0  0  0  0  0  0  0  0  0  0  0
   58.4260   27.5110   46.6020 C   0  0  0  0  0  0  0  0  0  0  0  0
   58.1839   26.7821   47.3894 H   0  0  0  0  0  0  0  0  0  0  0  0
   59.7640   27.7250   46.2420 C   0  0  0  0  0  0  0  0  0  0  0  0
   60.7640   26.9990   46.9090 O   0  0  0  0  0  0  0  0  0  0  0  0
   60.7800   26.7530   48.3140 C   0  0  0  0  0  0  0  0  0  0  0  0
   60.7178   27.7091   48.8544 H   0  0  0  0  0  0  0  0  0  0  0  0
   59.9210   26.1218   48.5855 H   0  0  0  0  0  0  0  0  0  0  0  0
   61.7135   26.2384   48.5855 H   0  0  0  0  0  0  0  0  0  0  0  0
  1  2  1  0
  2  3  2  0
  3  4  1  0
  3  5  1  0
  5  6  1  0
  6  7  2  0
  6  8  2  0
  6  9  1  0
  9 10  1  0
 10 11  2  0
 11 12  1  0
 11 13  1  0
 13 14  1  0
 13 15  2  0
 15 16  1  0
 16 17  1  0
 17 18  1  0
 18 19  2  0
 19 20  1  0
 20 21  1  0
 20 22  1  0
 20 23  1  0
 23 24  1  0
 23 25  1  0
 23 26  1  0
 18 27  1  0
 27 28  1  0
 16 29  2  0
 29 30  1  0
  5 31  2  0
 31 32  1  0
 31 33  1  0
 33 34  1  0
 33 35  2  0
 35 36  1  0
 36 37  1  0
 37 38  1  0
 37 39  1  0
 37 40  1  0
 35  2  1  0
 29 10  1  0
 27 15  1  0
M  CHG  1   9  -1
M  END
>  <UniqueID>  (45) 
42

>  <SMILES>  (45) 
CC/N=c1\[nH]c2ccc([N-]S(=O)(=O)c3ccc(OC)cc3)cc2s1

>  <Energy>  (45) 
77.15698058041131

>  <Genealogy>  (45) 
CCN=c1[nH]c2ccc([N-]S(=O)(=O)c3ccc(OC)cc3)cc2s1 (protonated)
CC/N=c1\[nH]c2ccc([N-]S(=O)(=O)c3ccc(OC)cc3)cc2s1 (cis-trans isomerization)
CC/N=c1\[nH]c2ccc([N-]S(=O)(=O)c3ccc(OC)cc3)cc2s1 (3D coordinates assigned)
CC/N=c1\[nH]c2ccc([N-]S(=O)(=O)c3ccc(OC)cc3)cc2s1 (optimized conformer: 77.15698058041131 kcal/mol)

>  <smiles>  (45) 
CCN=c1[nH]c2ccc(NS(=O)(=O)c3ccc(OC)cc3)cc2s1

>  <score_type>  (45) 
oracle

>  <origin>  (45) 
adg

>  <m_score__min__energy>  (45) 
-9.0199999999999996

>  <m_primary>  (45) 
energy

$$$$
45:0
     RDKit          3D

 63 66  0  0  0  0  0  0  0  0999 V2000
   55.8910   31.3840   44.5300 O   0  0  0  0  0  0  0  0  0  0  0  0
   56.9110   30.7120   44.2170 C   0  0  0  0  0  0  0  0  0  0  0  0
   56.7360   29.3810   43.5450 C   0  0  0  0  0  0  0  0  0  0  0  0
   56.9290   28.2690   44.5010 N   0  0  0  0  0  0  0  0  0  0  0  0
   57.3490   28.7670   45.8340 C   0  0  0  0  0  0  0  0  0  0  0  0
   58.0620   27.6760   46.6470 C   0  0  0  0  0  0  0  0  0  0  0  0
   59.2900   27.1850   45.9730 N   0  0  0  0  0  0  0  0  0  0  0  0
   60.5170   27.7670   46.5610 C   0  0  0  0  0  0  0  0  0  0  0  0
   60.5710   29.2610   46.3530 C   0  0  0  0  0  0  0  0  0  0  0  0
   60.4370   29.7260   45.1880 O   0  0  0  0  0  0  0  0  0  0  0  0
   60.7390   30.2010   47.4950 C   0  0  0  0  0  0  0  0  0  0  0  0
   61.7720   31.1600   47.5150 C   0  0  0  0  0  0  0  0  0  0  0  0
   61.9170   32.0240   48.6040 C   0  0  0  0  0  0  0  0  0  0  0  0
   61.0470   31.9380   49.6910 C   0  0  0  0  0  0  0  0  0  0  0  0
   60.0200   30.9860   49.6970 C   0  0  0  0  0  0  0  0  0  0  0  0
   58.9440   30.8490   51.0890 S   0  0  0  0  0  0  0  0  0  0  0  0
   57.9450   29.7540   50.8360 O   0  0  0  0  0  0  0  0  0  0  0  0
   59.7500   30.4670   52.2990 O   0  0  0  0  0  0  0  0  0  0  0  0
   58.0940   32.3440   51.4110 N   0  0  0  0  0  0  0  0  0  0  0  0
   58.9900   33.5010   51.2930 C   0  0  0  0  0  0  0  0  0  0  0  0
   59.4380   33.9070   52.6900 C   0  0  0  0  0  0  0  0  0  0  0  0
   58.5300   33.1640   53.6500 C   0  0  0  0  0  0  0  0  0  0  0  0
   57.5680   32.3700   52.7810 C   0  0  0  0  0  0  0  0  0  0  0  0
   59.8610   30.1320   48.5960 C   0  0  0  0  0  0  0  0  0  0  0  0
   59.2690   27.3780   44.5050 C   0  0  0  0  0  0  0  0  0  0  0  0
   57.8470   27.2410   43.9470 C   0  0  0  0  0  0  0  0  0  0  0  0
   58.2280   31.2230   44.4730 N   0  0  0  0  0  0  0  0  0  0  0  0
   58.5060   32.3110   45.3660 C   0  0  0  0  0  0  0  0  0  0  0  0
   58.2270   32.1660   46.7350 C   0  0  0  0  0  0  0  0  0  0  0  0
   58.4720   33.2170   47.6230 C   0  0  0  0  0  0  0  0  0  0  0  0
   58.9780   34.4290   47.1490 C   0  0  0  0  0  0  0  0  0  0  0  0
   59.2360   34.5940   45.7850 C   0  0  0  0  0  0  0  0  0  0  0  0
   59.7130   35.7780   45.3270 F   0  0  0  0  0  0  0  0  0  0  0  0
   58.9960   33.5440   44.8940 C   0  0  0  0  0  0  0  0  0  0  0  0
   55.7207   29.3215   43.1258 H   0  0  0  0  0  0  0  0  0  0  0  0
   57.4903   29.2909   42.7494 H   0  0  0  0  0  0  0  0  0  0  0  0
   58.0348   29.6162   45.6979 H   0  0  0  0  0  0  0  0  0  0  0  0
   56.4482   29.0736   46.3859 H   0  0  0  0  0  0  0  0  0  0  0  0
   58.3380   28.0892   47.6284 H   0  0  0  0  0  0  0  0  0  0  0  0
   57.3711   26.8263   46.7496 H   0  0  0  0  0  0  0  0  0  0  0  0
   60.5323   27.5549   47.6403 H   0  0  0  0  0  0  0  0  0  0  0  0
   61.3878   27.3159   46.0627 H   0  0  0  0  0  0  0  0  0  0  0  0
   62.4693   31.2289   46.6670 H   0  0  0  0  0  0  0  0  0  0  0  0
   62.7207   32.7751   48.6039 H   0  0  0  0  0  0  0  0  0  0  0  0
   61.1680   32.6198   50.5457 H   0  0  0  0  0  0  0  0  0  0  0  0
   59.8666   33.2315   50.6855 H   0  0  0  0  0  0  0  0  0  0  0  0
   58.4656   34.3368   50.8067 H   0  0  0  0  0  0  0  0  0  0  0  0
   60.4867   33.6185   52.8544 H   0  0  0  0  0  0  0  0  0  0  0  0
   59.3738   34.9956   52.8342 H   0  0  0  0  0  0  0  0  0  0  0  0
   59.1182   32.4872   54.2871 H   0  0  0  0  0  0  0  0  0  0  0  0
   57.9953   33.8553   54.3180 H   0  0  0  0  0  0  0  0  0  0  0  0
   57.4817   31.3429   53.1652 H   0  0  0  0  0  0  0  0  0  0  0  0
   56.5726   32.8380   52.7946 H   0  0  0  0  0  0  0  0  0  0  0  0
   59.0408   29.3990   48.5914 H   0  0  0  0  0  0  0  0  0  0  0  0
   59.6514   28.3822   44.2698 H   0  0  0  0  0  0  0  0  0  0  0  0
   59.9000   26.6043   44.0433 H   0  0  0  0  0  0  0  0  0  0  0  0
   57.8830   27.3500   42.8530 H   0  0  0  0  0  0  0  0  0  0  0  0
   57.4628   26.2518   44.2366 H   0  0  0  0  0  0  0  0  0  0  0  0
   59.0230   30.8160   43.9280 H   0  0  0  0  0  0  0  0  0  0  0  0
   57.8128   31.2187   47.1107 H   0  0  0  0  0  0  0  0  0  0  0  0
   58.2661   33.0893   48.6960 H   0  0  0  0  0  0  0  0  0  0  0  0
   59.1737   35.2544   47.8493 H   0  0  0  0  0  0  0  0  0  0  0  0
   59.1906   33.6814   43.8201 H   0  0  0  0  0  0  0  0  0  0  0  0
  1  2  2  0
  2  3  1  0
  3  4  1  0
  4  5  1  0
  5  6  1  0
  6  7  1  0
  7  8  1  0
  8  9  1  0
  9 10  2  0
  9 11  1  0
 11 12  2  0
 12 13  1  0
 13 14  2  0
 14 15  1  0
 15 16  1  0
 16 17  2  0
 16 18  2  0
 16 19  1  0
 19 20  1  0
 20 21  1  0
 21 22  1  0
 22 23  1  0
 15 24  2  0
  7 25  1  0
 25 26  1  0
  2 27  1  0
 27 28  1  0
 28 29  2  0
 29 30  1  0
 30 31  2  0
 31 32  1  0
 32 33  1  0
 32 34  2  0
 26  4  1  0
 34 28  1  0
 24 11  1  0
 23 19  1  0
  3 35  1  0
  3 36  1  0
  5 37  1  0
  5 38  1  0
  6 39  1  0
  6 40  1  0
  8 41  1  0
  8 42  1  0
 12 43  1  0
 13 44  1  0
 14 45  1  0
 20 46  1  0
 20 47  1  0
 21 48  1  0
 21 49  1  0
 22 50  1  0
 22 51  1  0
 23 52  1  0
 23 53  1  0
 24 54  1  0
 25 55  1  0
 25 56  1  0
 26 57  1  0
 26 58  1  0
 27 59  1  0
 29 60  1  0
 30 61  1  0
 31 62  1  0
 34 63  1  0
M  END
>  <UniqueID>  (46) 
43

>  <SMILES>  (46) 
O=C(CN1CCN(CC(=O)c2cccc(S(=O)(=O)N3CCCC3)c2)CC1)Nc1cccc(F)c1

>  <Energy>  (46) 
83.43017973206187

>  <Genealogy>  (46) 
O=C(CN1CCN(CC(=O)c2cccc(S(=O)(=O)N3CCCC3)c2)CC1)Nc1cccc(F)c1 (3D coordinates assigned)
O=C(CN1CCN(CC(=O)c2cccc(S(=O)(=O)N3CCCC3)c2)CC1)Nc1cccc(F)c1 (nonaromatic ring conformer: 83.43017973206187 kcal/mol)

>  <smiles>  (46) 
O=C(CN1CCN(CC(=O)c2cccc(S(=O)(=O)N3CCCC3)c2)CC1)Nc1cccc(F)c1

>  <score_type>  (46) 
oracle

>  <origin>  (46) 
adg

>  <m_score__min__energy>  (46) 
-10.65

>  <m_primary>  (46) 
energy

$$$$
46:0
     RDKit          3D

 66 71  0  0  0  0  0  0  0  0999 V2000
   64.2720   32.5350   48.9200 H   0  0  0  0  0  0  0  0  0  0  0  0
   63.6890   32.2120   48.1580 O   0  0  0  0  0  0  0  0  0  0  0  0
   62.4840   31.5450   48.3890 C   0  0  0  0  0  0  0  0  0  0  0  0
   61.8710   30.8290   47.3520 C   0  0  0  0  0  0  0  0  0  0  0  0
   62.3100   30.8517   46.3437 H   0  0  0  0  0  0  0  0  0  0  0  0
   60.7070   30.0850   47.5820 C   0  0  0  0  0  0  0  0  0  0  0  0
   60.1240   29.3850   46.4670 N   0  0  0  0  0  0  0  0  0  0  0  0
   58.9340   29.5170   45.9590 C   0  0  0  0  0  0  0  0  0  0  0  0
   58.0730   28.4700   46.0260 N   0  0  0  0  0  0  0  0  0  0  0  0
   56.8070   28.5870   45.5420 C   0  0  0  0  0  0  0  0  0  0  0  0
   55.9620   27.6060   45.6210 N   0  0  0  0  0  0  0  0  0  0  0  0
   56.1960   26.3690   46.3590 C   0  0  0  0  0  0  0  0  0  0  0  0
   57.1789   26.4121   46.8510 H   0  0  0  0  0  0  0  0  0  0  0  0
   55.4175   26.2373   47.1249 H   0  0  0  0  0  0  0  0  0  0  0  0
   56.1640   25.2180   45.3950 C   0  0  0  0  0  0  0  0  0  0  0  0
   55.0270   24.3970   45.3000 C   0  0  0  0  0  0  0  0  0  0  0  0
   54.1344   24.6248   45.9012 H   0  0  0  0  0  0  0  0  0  0  0  0
   55.0270   23.2920   44.4440 C   0  0  0  0  0  0  0  0  0  0  0  0
   54.1313   22.6584   44.3647 H   0  0  0  0  0  0  0  0  0  0  0  0
   56.1650   22.9910   43.6880 C   0  0  0  0  0  0  0  0  0  0  0  0
   56.1628   22.1219   43.0137 H   0  0  0  0  0  0  0  0  0  0  0  0
   57.3050   23.7940   43.7890 C   0  0  0  0  0  0  0  0  0  0  0  0
   58.2006   23.5535   43.1973 H   0  0  0  0  0  0  0  0  0  0  0  0
   57.3080   24.9020   44.6410 C   0  0  0  0  0  0  0  0  0  0  0  0
   58.2083   25.5289   44.7219 H   0  0  0  0  0  0  0  0  0  0  0  0
   56.4120   29.7530   44.9820 N   0  0  0  0  0  0  0  0  0  0  0  0
   57.2630   30.8090   44.9060 C   0  0  0  0  0  0  0  0  0  0  0  0
   56.8960   31.9310   44.3560 N   0  0  0  0  0  0  0  0  0  0  0  0
   57.1470   33.2860   44.8740 C   0  0  0  0  0  0  0  0  0  0  0  0
   56.3753   33.9225   44.4164 H   0  0  0  0  0  0  0  0  0  0  0  0
   57.0380   33.3460   46.4190 C   0  0  0  0  0  0  0  0  0  0  0  0
   56.3352   34.1321   46.7324 H   0  0  0  0  0  0  0  0  0  0  0  0
   56.6579   32.4109   46.8562 H   0  0  0  0  0  0  0  0  0  0  0  0
   58.4200   33.6660   46.8570 C   0  0  0  0  0  0  0  0  0  0  0  0
   58.8980   33.6770   48.1690 C   0  0  0  0  0  0  0  0  0  0  0  0
   58.2242   33.4683   49.0131 H   0  0  0  0  0  0  0  0  0  0  0  0
   60.2570   33.9600   48.3900 C   0  0  0  0  0  0  0  0  0  0  0  0
   60.6544   33.9758   49.4156 H   0  0  0  0  0  0  0  0  0  0  0  0
   61.1100   34.2230   47.3030 C   0  0  0  0  0  0  0  0  0  0  0  0
   62.1729   34.4440   47.4803 H   0  0  0  0  0  0  0  0  0  0  0  0
   60.6080   34.2040   45.9930 C   0  0  0  0  0  0  0  0  0  0  0  0
   61.2671   34.4145   45.1378 H   0  0  0  0  0  0  0  0  0  0  0  0
   59.2560   33.9130   45.7940 C   0  0  0  0  0  0  0  0  0  0  0  0
   58.5600   33.7950   44.4910 C   0  0  0  0  0  0  0  0  0  0  0  0
   58.5021   34.7712   43.9874 H   0  0  0  0  0  0  0  0  0  0  0  0
   59.0789   33.1250   43.7897 H   0  0  0  0  0  0  0  0  0  0  0  0
   58.5190   30.6890   45.4080 N   0  0  0  0  0  0  0  0  0  0  0  0
   60.1330   30.0940   48.8650 C   0  0  0  0  0  0  0  0  0  0  0  0
   59.2055   29.5337   49.0544 H   0  0  0  0  0  0  0  0  0  0  0  0
   60.7370   30.8130   49.9020 C   0  0  0  0  0  0  0  0  0  0  0  0
   60.2958   30.7915   50.9094 H   0  0  0  0  0  0  0  0  0  0  0  0
   61.8970   31.5590   49.6690 C   0  0  0  0  0  0  0  0  0  0  0  0
   62.4840   32.2880   50.7540 N   0  0  0  0  0  0  0  0  0  0  0  0
   63.0290   33.6060   50.6410 C   0  0  0  0  0  0  0  0  0  0  0  0
   62.2650   34.5930   50.4670 O   0  0  0  0  0  0  0  0  0  0  0  0
   64.4530   33.7760   50.6950 N   0  0  0  0  0  0  0  0  0  0  0  0
   65.3560   32.8380   50.7300 C   0  0  0  0  0  0  0  0  0  0  0  0
   66.2800   32.6930   49.7620 N   0  0  0  0  0  0  0  0  0  0  0  0
   67.0000   31.6580   50.0900 O   0  0  0  0  0  0  0  0  0  0  0  0
   66.5840   31.1280   51.2190 C   0  0  0  0  0  0  0  0  0  0  0  0
   67.1630   29.9010   51.8380 C   0  0  0  0  0  0  0  0  0  0  0  0
   67.1217   29.9886   52.9337 H   0  0  0  0  0  0  0  0  0  0  0  0
   66.5850   29.0214   51.5184 H   0  0  0  0  0  0  0  0  0  0  0  0
   68.2095   29.7879   51.5184 H   0  0  0  0  0  0  0  0  0  0  0  0
   65.5080   31.8500   51.6910 C   0  0  0  0  0  0  0  0  0  0  0  0
   64.9169   31.6834   52.6036 H   0  0  0  0  0  0  0  0  0  0  0  0
  1  2  1  0
  2  3  1  0
  3  4  2  0
  4  5  1  0
  4  6  1  0
  6  7  1  0
  7  8  2  0
  8  9  1  0
  9 10  1  0
 10 11  2  3
 11 12  1  0
 12 13  1  0
 12 14  1  0
 12 15  1  0
 15 16  2  0
 16 17  1  0
 16 18  1  0
 18 19  1  0
 18 20  2  0
 20 21  1  0
 20 22  1  0
 22 23  1  0
 22 24  2  0
 24 25  1  0
 10 26  1  0
 26 27  1  0
 27 28  2  0
 28 29  1  0
 29 30  1  0
 29 31  1  0
 31 32  1  0
 31 33  1  0
 31 34  1  0
 34 35  2  0
 35 36  1  0
 35 37  1  0
 37 38  1  0
 37 39  2  0
 39 40  1  0
 39 41  1  0
 41 42  1  0
 41 43  2  0
 43 44  1  0
 44 45  1  0
 44 46  1  0
 27 47  1  0
  6 48  2  0
 48 49  1  0
 48 50  1  0
 50 51  1  0
 50 52  2  0
 52 53  1  0
 53 54  1  0
 54 55  2  0
 54 56  1  0
 56 57  2  3
 57 58  1  0
 58 59  1  0
 59 60  1  0
 60 61  1  0
 61 62  1  0
 61 63  1  0
 61 64  1  0
 60 65  2  0
 65 66  1  0
 52  3  1  0
 65 57  1  0
 47  8  1  0
 24 15  1  0
 44 29  1  0
 43 34  1  0
M  CHG  5   9  -1  26  -1  47  -1  53  -1  58  -1
M  END
>  <UniqueID>  (47) 
44

>  <SMILES>  (47) 
Cc1cc(=NC(=O)[N-]c2ccc(/N=c3/[n-]c(=NCc4ccccc4)[n-]/c(=N\C4Cc5ccccc5C4)[n-]3)cc2O)[n-]o1

>  <Energy>  (47) 
128.16892280494113

>  <Genealogy>  (47) 
Cc1cc(=NC(=O)[N-]c2ccc(N=c3[n-]c(=NCc4ccccc4)[n-]c(=NC4Cc5ccccc5C4)[n-]3)cc2O)[n-]o1 (protonated)
Cc1cc(=NC(=O)[N-]c2ccc(/N=c3/[n-]c(=NCc4ccccc4)[n-]/c(=N\C4Cc5ccccc5C4)[n-]3)cc2O)[n-]o1 (cis-trans isomerization)
Cc1cc(=NC(=O)[N-]c2ccc(/N=c3/[n-]c(=NCc4ccccc4)[n-]/c(=N\C4Cc5ccccc5C4)[n-]3)cc2O)[n-]o1 (3D coordinates assigned)
Cc1cc(=NC(=O)[N-]c2ccc(/N=c3/[n-]c(=NCc4ccccc4)[n-]/c(=N\C4Cc5ccccc5C4)[n-]3)cc2O)[n-]o1 (nonaromatic ring conformer: 128.16892280494113 kcal/mol)

>  <smiles>  (47) 
Cc1cc(=NC(=O)Nc2ccc(N=c3[nH]c(=NCc4ccccc4)[nH]c(=NC4Cc5ccccc5C4)[nH]3)cc2O)[nH]o1

>  <score_type>  (47) 
oracle

>  <origin>  (47) 
adg

>  <m_score__min__energy>  (47) 
-15.77

>  <m_primary>  (47) 
energy

$$$$
47:0
     RDKit          3D

 53 56  0  0  0  0  0  0  0  0999 V2000
   56.5780   32.4060   44.1620 H   0  0  0  0  0  0  0  0  0  0  0  0
   56.8280   32.1350   45.1040 O   0  0  0  0  0  0  0  0  0  0  0  0
   58.0170   32.5440   45.7090 C   0  0  0  0  0  0  0  0  0  0  0  0
   58.3840   33.8930   45.6420 C   0  0  0  0  0  0  0  0  0  0  0  0
   57.5930   34.7790   44.9860 F   0  0  0  0  0  0  0  0  0  0  0  0
   59.5580   34.3380   46.2550 C   0  0  0  0  0  0  0  0  0  0  0  0
   59.8341   35.4014   46.2001 H   0  0  0  0  0  0  0  0  0  0  0  0
   60.3880   33.4360   46.9410 C   0  0  0  0  0  0  0  0  0  0  0  0
   61.5910   33.8960   47.5850 N   0  0  0  0  0  0  0  0  0  0  0  0
   62.8800   33.8400   46.8890 C   0  0  0  0  0  0  0  0  0  0  0  0
   62.7537   33.3304   45.9224 H   0  0  0  0  0  0  0  0  0  0  0  0
   63.2505   34.8614   46.7174 H   0  0  0  0  0  0  0  0  0  0  0  0
   63.8850   33.0680   47.7460 C   0  0  0  0  0  0  0  0  0  0  0  0
   63.6223   32.0000   47.7288 H   0  0  0  0  0  0  0  0  0  0  0  0
   64.8897   33.2329   47.3295 H   0  0  0  0  0  0  0  0  0  0  0  0
   63.8830   33.5380   49.1420 N   0  0  0  0  0  0  0  0  0  0  0  0
   64.8940   33.0280   50.0400 C   0  0  0  0  0  0  0  0  0  0  0  0
   65.5510   31.9990   49.7220 O   0  0  0  0  0  0  0  0  0  0  0  0
   65.1850   33.6820   51.3580 C   0  0  0  0  0  0  0  0  0  0  0  0
   64.8856   33.0092   52.1752 H   0  0  0  0  0  0  0  0  0  0  0  0
   66.2620   33.8931   51.4327 H   0  0  0  0  0  0  0  0  0  0  0  0
   64.6208   34.6233   51.4327 H   0  0  0  0  0  0  0  0  0  0  0  0
   62.9420   34.5930   49.5590 C   0  0  0  0  0  0  0  0  0  0  0  0
   62.8867   34.6133   50.6574 H   0  0  0  0  0  0  0  0  0  0  0  0
   63.3029   35.5589   49.1758 H   0  0  0  0  0  0  0  0  0  0  0  0
   61.5400   34.3300   48.9890 C   0  0  0  0  0  0  0  0  0  0  0  0
   61.0549   33.5442   49.5866 H   0  0  0  0  0  0  0  0  0  0  0  0
   60.9718   35.2708   49.0344 H   0  0  0  0  0  0  0  0  0  0  0  0
   60.0190   32.0840   47.0100 C   0  0  0  0  0  0  0  0  0  0  0  0
   60.6575   31.3726   47.5542 H   0  0  0  0  0  0  0  0  0  0  0  0
   58.8460   31.6310   46.3930 C   0  0  0  0  0  0  0  0  0  0  0  0
   58.4990   30.2390   46.4770 N   0  0  0  0  0  0  0  0  0  0  0  0
   58.5340   29.4890   47.5980 C   0  0  0  0  0  0  0  0  0  0  0  0
   58.9370   29.9930   48.9500 C   0  0  0  0  0  0  0  0  0  0  0  0
   58.4511   29.3854   49.7276 H   0  0  0  0  0  0  0  0  0  0  0  0
   60.0294   29.9210   49.0575 H   0  0  0  0  0  0  0  0  0  0  0  0
   58.6264   31.0427   49.0575 H   0  0  0  0  0  0  0  0  0  0  0  0
   58.1870   28.1850   47.3110 C   0  0  0  0  0  0  0  0  0  0  0  0
   58.1619   27.3426   48.0179 H   0  0  0  0  0  0  0  0  0  0  0  0
   57.8760   28.1400   45.9610 C   0  0  0  0  0  0  0  0  0  0  0  0
   57.4160   27.0270   45.3570 C   0  0  0  0  0  0  0  0  0  0  0  0
   57.4354   27.0071   44.2573 H   0  0  0  0  0  0  0  0  0  0  0  0
   56.8900   25.8360   46.0420 C   0  0  0  0  0  0  0  0  0  0  0  0
   57.6350   24.7860   46.4350 N   0  0  0  0  0  0  0  0  0  0  0  0
   56.7150   23.8980   46.8700 C   0  0  0  0  0  0  0  0  0  0  0  0
   57.0290   22.7710   47.3380 O   0  0  0  0  0  0  0  0  0  0  0  0
   55.4330   24.3040   46.7520 N   0  0  0  0  0  0  0  0  0  0  0  0
   55.5630   25.5270   46.2130 C   0  0  0  0  0  0  0  0  0  0  0  0
   54.4890   26.3390   45.8730 O   0  0  0  0  0  0  0  0  0  0  0  0
   58.1240   29.4280   45.4580 C   0  0  0  0  0  0  0  0  0  0  0  0
   58.1520   29.8100   44.1720 C   0  0  0  0  0  0  0  0  0  0  0  0
   58.3601   30.8589   43.9142 H   0  0  0  0  0  0  0  0  0  0  0  0
   57.9669   29.0742   43.3755 H   0  0  0  0  0  0  0  0  0  0  0  0
  1  2  1  0
  2  3  1  0
  3  4  2  0
  4  5  1  0
  4  6  1  0
  6  7  1  0
  6  8  2  0
  8  9  1  0
  9 10  1  0
 10 11  1  0
 10 12  1  0
 10 13  1  0
 13 14  1  0
 13 15  1  0
 13 16  1  0
 16 17  1  0
 17 18  2  0
 17 19  1  0
 19 20  1  0
 19 21  1  0
 19 22  1  0
 16 23  1  0
 23 24  1  0
 23 25  1  0
 23 26  1  0
 26 27  1  0
 26 28  1  0
  8 29  1  0
 29 30  1  0
 29 31  2  0
 31 32  1  0
 32 33  1  0
 33 34  1  0
 34 35  1  0
 34 36  1  0
 34 37  1  0
 33 38  2  0
 38 39  1  0
 38 40  1  0
 40 41  2  0
 41 42  1  0
 41 43  1  0
 43 44  1  0
 44 45  1  0
 45 46  2  0
 45 47  1  0
 47 48  1  0
 48 49  1  0
 40 50  1  0
 50 51  2  0
 51 52  1  0
 51 53  1  0
 31  3  1  0
 50 32  1  0
 26  9  1  0
 48 43  2  0
M  CHG  3  44  -1  47  -1  49  -1
M  END
>  <UniqueID>  (48) 
45

>  <SMILES>  (48) 
C=c1/c(=C\c2[n-]c(=O)[n-]c2[O-])cc(C)n1-c1cc(N2CCN(C(C)=O)CC2)cc(F)c1O

>  <Energy>  (48) 
134.96934345295693

>  <Genealogy>  (48) 
C=c1c(=Cc2[n-]c(=O)[n-]c2[O-])cc(C)n1-c1cc(N2CCN(C(C)=O)CC2)cc(F)c1O (protonated)
C=c1/c(=C\c2[n-]c(=O)[n-]c2[O-])cc(C)n1-c1cc(N2CCN(C(C)=O)CC2)cc(F)c1O (cis-trans isomerization)
C=c1/c(=C\c2[n-]c(=O)[n-]c2[O-])cc(C)n1-c1cc(N2CCN(C(C)=O)CC2)cc(F)c1O (3D coordinates assigned)
C=c1/c(=C\c2[n-]c(=O)[n-]c2[O-])cc(C)n1-c1cc(N2CCN(C(C)=O)CC2)cc(F)c1O (nonaromatic ring conformer: 134.96934345295693 kcal/mol)

>  <smiles>  (48) 
C=c1c(=Cc2[nH]c(=O)[nH]c2O)cc(C)n1-c1cc(N2CCN(C(C)=O)CC2)cc(F)c1O

>  <score_type>  (48) 
oracle

>  <origin>  (48) 
adg

>  <m_score__min__energy>  (48) 
-16.579999999999998

>  <m_primary>  (48) 
energy

$$$$
48:0
     RDKit          3D

 62 65  0  0  0  0  0  0  0  0999 V2000
   60.5362   27.4316   49.2378 H   0  0  0  0  0  0  0  0  0  0  0  0
   60.0400   28.1360   48.5540 C   0  0  0  0  0  0  0  0  0  0  0  0
   59.8590   27.7950   47.2540 N   0  0  0  0  0  0  0  0  0  0  0  0
   59.2430   28.6160   46.3640 C   0  0  0  0  0  0  0  0  0  0  0  0
   59.1140   28.2100   45.1320 N   0  0  0  0  0  0  0  0  0  0  0  0
   57.8730   28.0980   44.3570 C   0  0  0  0  0  0  0  0  0  0  0  0
   57.9195   27.1886   43.7399 H   0  0  0  0  0  0  0  0  0  0  0  0
   57.7792   28.9970   43.7300 H   0  0  0  0  0  0  0  0  0  0  0  0
   56.6650   28.0210   45.2460 C   0  0  0  0  0  0  0  0  0  0  0  0
   56.5340   27.0410   46.0260 O   0  0  0  0  0  0  0  0  0  0  0  0
   55.6680   29.0440   45.1970 N   0  0  0  0  0  0  0  0  0  0  0  0
   55.2860   29.7250   43.9660 C   0  0  0  0  0  0  0  0  0  0  0  0
   55.2404   28.9963   43.1432 H   0  0  0  0  0  0  0  0  0  0  0  0
   54.2992   30.1929   44.0978 H   0  0  0  0  0  0  0  0  0  0  0  0
   56.3020   30.7840   43.6410 C   0  0  0  0  0  0  0  0  0  0  0  0
   56.8320   30.8970   42.3430 C   0  0  0  0  0  0  0  0  0  0  0  0
   56.5002   30.2059   41.5541 H   0  0  0  0  0  0  0  0  0  0  0  0
   57.7780   31.8830   42.0510 C   0  0  0  0  0  0  0  0  0  0  0  0
   58.1900   31.9661   41.0344 H   0  0  0  0  0  0  0  0  0  0  0  0
   58.2010   32.7640   43.0510 C   0  0  0  0  0  0  0  0  0  0  0  0
   58.9416   33.5435   42.8186 H   0  0  0  0  0  0  0  0  0  0  0  0
   57.6840   32.6560   44.3470 C   0  0  0  0  0  0  0  0  0  0  0  0
   58.2040   33.7730   45.5960 Cl  0  0  0  0  0  0  0  0  0  0  0  0
   56.7390   31.6690   44.6440 C   0  0  0  0  0  0  0  0  0  0  0  0
   56.3363   31.5842   45.6641 H   0  0  0  0  0  0  0  0  0  0  0  0
   58.7760   29.8700   46.8000 C   0  0  0  0  0  0  0  0  0  0  0  0
   58.2677   30.5423   46.0932 H   0  0  0  0  0  0  0  0  0  0  0  0
   58.9580   30.2660   48.1390 C   0  0  0  0  0  0  0  0  0  0  0  0
   58.5140   31.5160   48.6010 O   0  0  0  0  0  0  0  0  0  0  0  0
   59.1840   32.7640   48.4140 C   0  0  0  0  0  0  0  0  0  0  0  0
   58.8633   33.2070   47.4596 H   0  0  0  0  0  0  0  0  0  0  0  0
   58.9278   33.4327   49.2490 H   0  0  0  0  0  0  0  0  0  0  0  0
   60.6760   32.5660   48.3910 C   0  0  0  0  0  0  0  0  0  0  0  0
   61.3560   32.5160   47.1590 C   0  0  0  0  0  0  0  0  0  0  0  0
   60.7939   32.6125   46.2184 H   0  0  0  0  0  0  0  0  0  0  0  0
   62.7440   32.3440   47.1270 C   0  0  0  0  0  0  0  0  0  0  0  0
   63.2718   32.3054   46.1627 H   0  0  0  0  0  0  0  0  0  0  0  0
   63.4610   32.2210   48.3240 C   0  0  0  0  0  0  0  0  0  0  0  0
   64.5515   32.0791   48.2976 H   0  0  0  0  0  0  0  0  0  0  0  0
   62.7950   32.2780   49.5530 C   0  0  0  0  0  0  0  0  0  0  0  0
   63.3621   32.1796   50.4904 H   0  0  0  0  0  0  0  0  0  0  0  0
   61.4090   32.4600   49.5910 C   0  0  0  0  0  0  0  0  0  0  0  0
   60.8896   32.5206   50.5587 H   0  0  0  0  0  0  0  0  0  0  0  0
   59.6000   29.3800   49.0360 C   0  0  0  0  0  0  0  0  0  0  0  0
   59.7860   29.7070   50.4720 C   0  0  0  0  0  0  0  0  0  0  0  0
   60.7770   29.2260   51.0870 O   0  0  0  0  0  0  0  0  0  0  0  0
   58.8690   30.5680   51.1700 N   0  0  0  0  0  0  0  0  0  0  0  0
   58.2720   31.2300   50.6240 H   0  0  0  0  0  0  0  0  0  0  0  0
   58.8730   30.7030   52.6240 C   0  0  0  0  0  0  0  0  0  0  0  0
   57.9620   30.2440   53.0355 H   0  0  0  0  0  0  0  0  0  0  0  0
   59.7607   30.1978   53.0323 H   0  0  0  0  0  0  0  0  0  0  0  0
   58.9130   32.1560   53.0020 C   0  0  0  0  0  0  0  0  0  0  0  0
   59.2980   32.5370   54.2980 C   0  0  0  0  0  0  0  0  0  0  0  0
   59.5850   31.7696   55.0320 H   0  0  0  0  0  0  0  0  0  0  0  0
   59.3180   33.8880   54.6590 C   0  0  0  0  0  0  0  0  0  0  0  0
   59.6223   34.1811   55.6746 H   0  0  0  0  0  0  0  0  0  0  0  0
   58.9520   34.8650   53.7310 C   0  0  0  0  0  0  0  0  0  0  0  0
   58.9837   35.9282   54.0112 H   0  0  0  0  0  0  0  0  0  0  0  0
   58.5450   34.4930   52.4450 C   0  0  0  0  0  0  0  0  0  0  0  0
   58.2438   35.2629   51.7194 H   0  0  0  0  0  0  0  0  0  0  0  0
   58.5210   33.1430   52.0820 C   0  0  0  0  0  0  0  0  0  0  0  0
   58.1941   32.8526   51.0727 H   0  0  0  0  0  0  0  0  0  0  0  0
  1  2  1  0
  2  3  1  0
  3  4  1  0
  4  5  2  0
  5  6  1  0
  6  7  1  0
  6  8  1  0
  6  9  1  0
  9 10  2  0
  9 11  1  0
 11 12  1  0
 12 13  1  0
 12 14  1  0
 12 15  1  0
 15 16  2  0
 16 17  1  0
 16 18  1  0
 18 19  1  0
 18 20  2  0
 20 21  1  0
 20 22  1  0
 22 23  1  0
 22 24  2  0
 24 25  1  0
  4 26  1  0
 26 27  1  0
 26 28  2  0
 28 29  1  0
 29 30  1  0
 30 31  1  0
 30 32  1  0
 30 33  1  0
 33 34  2  0
 34 35  1  0
 34 36  1  0
 36 37  1  0
 36 38  2  0
 38 39  1  0
 38 40  1  0
 40 41  1  0
 40 42  2  0
 42 43  1  0
 28 44  1  0
 44 45  1  0
 45 46  2  0
 45 47  1  0
 47 48  1  0
 47 49  1  0
 49 50  1  0
 49 51  1  0
 49 52  1  0
 52 53  2  0
 53 54  1  0
 53 55  1  0
 55 56  1  0
 55 57  2  0
 57 58  1  0
 57 59  1  0
 59 60  1  0
 59 61  2  0
 61 62  1  0
 44  2  2  0
 61 52  1  0
 24 15  1  0
 42 33  1  0
M  CHG  2   3  -1  11  -1
M  END
>  <UniqueID>  (49) 
46

>  <SMILES>  (49) 
O=C(C/N=c1\cc(OCc2ccccc2)c(C(=O)NCc2ccccc2)c[n-]1)[N-]Cc1cccc(Cl)c1

>  <Energy>  (49) 
67.29992098451406

>  <Genealogy>  (49) 
O=C(CN=c1cc(OCc2ccccc2)c(C(=O)NCc2ccccc2)c[n-]1)[N-]Cc1cccc(Cl)c1 (protonated)
O=C(C/N=c1\cc(OCc2ccccc2)c(C(=O)NCc2ccccc2)c[n-]1)[N-]Cc1cccc(Cl)c1 (cis-trans isomerization)
O=C(C/N=c1\cc(OCc2ccccc2)c(C(=O)NCc2ccccc2)c[n-]1)[N-]Cc1cccc(Cl)c1 (3D coordinates assigned)
O=C(C/N=c1\cc(OCc2ccccc2)c(C(=O)NCc2ccccc2)c[n-]1)[N-]Cc1cccc(Cl)c1 (optimized conformer: 67.29992098451406 kcal/mol)

>  <smiles>  (49) 
O=C(CN=c1cc(OCc2ccccc2)c(C(=O)NCc2ccccc2)c[nH]1)NCc1cccc(Cl)c1

>  <score_type>  (49) 
oracle

>  <origin>  (49) 
adg

>  <m_score__min__energy>  (49) 
-12.92

>  <m_primary>  (49) 
energy

$$$$
49:0
     RDKit          3D

 68 72  0  0  0  0  0  0  0  0999 V2000
   60.2700   32.3370   53.6220 C   0  0  0  0  0  0  0  0  0  0  0  0
   61.5830   32.9950   53.7210 N   0  0  0  0  0  0  0  0  0  0  0  0
   62.6560   32.0180   54.0400 C   0  0  0  0  0  0  0  0  0  0  0  0
   63.4820   31.6390   52.8040 C   0  0  0  0  0  0  0  0  0  0  0  0
   64.1470   32.8250   52.2220 N   0  0  0  0  0  0  0  0  0  0  0  0
   64.5940   32.5010   50.5630 S   0  0  0  0  0  0  0  0  0  0  0  0
   65.4500   31.2650   50.4990 O   0  0  0  0  0  0  0  0  0  0  0  0
   65.3770   33.6560   50.0000 O   0  0  0  0  0  0  0  0  0  0  0  0
   63.1410   32.2380   49.6030 C   0  0  0  0  0  0  0  0  0  0  0  0
   62.5970   33.2920   48.8560 C   0  0  0  0  0  0  0  0  0  0  0  0
   61.4840   33.0750   48.0390 C   0  0  0  0  0  0  0  0  0  0  0  0
   60.9000   31.7990   47.9610 C   0  0  0  0  0  0  0  0  0  0  0  0
   59.8030   31.5320   47.0720 N   0  0  0  0  0  0  0  0  0  0  0  0
   58.6210   32.3470   46.9880 C   0  0  0  0  0  0  0  0  0  0  0  0
   58.4330   33.2860   47.8080 O   0  0  0  0  0  0  0  0  0  0  0  0
   57.6430   32.1210   45.9640 N   0  0  0  0  0  0  0  0  0  0  0  0
   57.4910   30.9090   45.2160 C   0  0  0  0  0  0  0  0  0  0  0  0
   57.1190   30.9270   43.8620 C   0  0  0  0  0  0  0  0  0  0  0  0
   56.9880   29.7310   43.1520 C   0  0  0  0  0  0  0  0  0  0  0  0
   57.2390   28.5100   43.7840 C   0  0  0  0  0  0  0  0  0  0  0  0
   57.6440   28.4780   45.1270 C   0  0  0  0  0  0  0  0  0  0  0  0
   57.9200   27.1660   45.8140 C   0  0  0  0  0  0  0  0  0  0  0  0
   56.7460   26.2270   45.6880 C   0  0  0  0  0  0  0  0  0  0  0  0
   55.5120   26.7230   45.9690 N   0  0  0  0  0  0  0  0  0  0  0  0
   54.4170   25.9670   45.9250 N   0  0  0  0  0  0  0  0  0  0  0  0
   54.4740   24.6510   45.6120 C   0  0  0  0  0  0  0  0  0  0  0  0
   53.4080   23.9800   45.5710 O   0  0  0  0  0  0  0  0  0  0  0  0
   55.7140   24.0520   45.3360 C   0  0  0  0  0  0  0  0  0  0  0  0
   56.8780   24.8590   45.3410 C   0  0  0  0  0  0  0  0  0  0  0  0
   58.2470   24.2440   45.0960 C   0  0  0  0  0  0  0  0  0  0  0  0
   58.1820   22.8880   44.3880 C   0  0  0  0  0  0  0  0  0  0  0  0
   57.1610   21.9850   45.0710 C   0  0  0  0  0  0  0  0  0  0  0  0
   55.7610   22.5880   44.9450 C   0  0  0  0  0  0  0  0  0  0  0  0
   57.7770   29.6860   45.8340 C   0  0  0  0  0  0  0  0  0  0  0  0
   61.4590   30.7440   48.6970 C   0  0  0  0  0  0  0  0  0  0  0  0
   62.5670   30.9630   49.5200 C   0  0  0  0  0  0  0  0  0  0  0  0
   63.3500   34.0720   52.3300 C   0  0  0  0  0  0  0  0  0  0  0  0
   61.8490   33.7940   52.5020 C   0  0  0  0  0  0  0  0  0  0  0  0
   59.8806   32.1418   54.6321 H   0  0  0  0  0  0  0  0  0  0  0  0
   59.5717   32.9917   53.0800 H   0  0  0  0  0  0  0  0  0  0  0  0
   60.3765   31.3858   53.0800 H   0  0  0  0  0  0  0  0  0  0  0  0
   63.3261   32.4609   54.7915 H   0  0  0  0  0  0  0  0  0  0  0  0
   62.1773   31.1031   54.4193 H   0  0  0  0  0  0  0  0  0  0  0  0
   64.2477   30.9049   53.0952 H   0  0  0  0  0  0  0  0  0  0  0  0
   62.8046   31.2134   52.0490 H   0  0  0  0  0  0  0  0  0  0  0  0
   63.0478   34.2938   48.9130 H   0  0  0  0  0  0  0  0  0  0  0  0
   61.0633   33.9065   47.4545 H   0  0  0  0  0  0  0  0  0  0  0  0
   59.8870   30.6950   46.4560 H   0  0  0  0  0  0  0  0  0  0  0  0
   56.9300   31.8866   43.3585 H   0  0  0  0  0  0  0  0  0  0  0  0
   56.6869   29.7503   42.0942 H   0  0  0  0  0  0  0  0  0  0  0  0
   57.1185   27.5697   43.2260 H   0  0  0  0  0  0  0  0  0  0  0  0
   58.8038   26.6993   45.3545 H   0  0  0  0  0  0  0  0  0  0  0  0
   58.0963   27.3622   46.8819 H   0  0  0  0  0  0  0  0  0  0  0  0
   58.8344   24.9353   44.4738 H   0  0  0  0  0  0  0  0  0  0  0  0
   58.7107   24.0770   46.0794 H   0  0  0  0  0  0  0  0  0  0  0  0
   57.8883   23.0398   43.3388 H   0  0  0  0  0  0  0  0  0  0  0  0
   59.1718   22.4106   44.4360 H   0  0  0  0  0  0  0  0  0  0  0  0
   57.1748   20.9939   44.5941 H   0  0  0  0  0  0  0  0  0  0  0  0
   57.4185   21.8905   46.1362 H   0  0  0  0  0  0  0  0  0  0  0  0
   55.4300   22.4925   43.9003 H   0  0  0  0  0  0  0  0  0  0  0  0
   55.1014   22.0401   45.6340 H   0  0  0  0  0  0  0  0  0  0  0  0
   58.1089   29.6699   46.8826 H   0  0  0  0  0  0  0  0  0  0  0  0
   61.0221   29.7370   48.6259 H   0  0  0  0  0  0  0  0  0  0  0  0
   62.9894   30.1321   50.1041 H   0  0  0  0  0  0  0  0  0  0  0  0
   63.7053   34.6442   53.1997 H   0  0  0  0  0  0  0  0  0  0  0  0
   63.4818   34.6366   51.3952 H   0  0  0  0  0  0  0  0  0  0  0  0
   61.3141   34.7521   52.5784 H   0  0  0  0  0  0  0  0  0  0  0  0
   61.5011   33.2209   51.6299 H   0  0  0  0  0  0  0  0  0  0  0  0
  1  2  1  0
  2  3  1  0
  3  4  1  0
  4  5  1  0
  5  6  1  0
  6  7  2  0
  6  8  2  0
  6  9  1  0
  9 10  2  0
 10 11  1  0
 11 12  2  0
 12 13  1  0
 13 14  1  0
 14 15  2  0
 14 16  1  0
 16 17  1  0
 17 18  2  0
 18 19  1  0
 19 20  2  0
 20 21  1  0
 21 22  1  0
 22 23  1  0
 23 24  2  0
 24 25  1  0
 25 26  1  0
 26 27  2  0
 26 28  1  0
 28 29  2  0
 29 30  1  0
 30 31  1  0
 31 32  1  0
 32 33  1  0
 21 34  2  0
 12 35  1  0
 35 36  2  0
  5 37  1  0
 37 38  1  0
 38  2  1  0
 36  9  1  0
 34 17  1  0
 29 23  1  0
 33 28  1  0
  1 39  1  0
  1 40  1  0
  1 41  1  0
  3 42  1  0
  3 43  1  0
  4 44  1  0
  4 45  1  0
 10 46  1  0
 11 47  1  0
 13 48  1  0
 18 49  1  0
 19 50  1  0
 20 51  1  0
 22 52  1  0
 22 53  1  0
 30 54  1  0
 30 55  1  0
 31 56  1  0
 31 57  1  0
 32 58  1  0
 32 59  1  0
 33 60  1  0
 33 61  1  0
 34 62  1  0
 35 63  1  0
 36 64  1  0
 37 65  1  0
 37 66  1  0
 38 67  1  0
 38 68  1  0
M  CHG  2  16  -1  25  -1
M  END
>  <UniqueID>  (50) 
47

>  <SMILES>  (50) 
CN1CCN(S(=O)(=O)c2ccc(NC(=O)[N-]c3cccc(Cc4n[n-]c(=O)c5c4CCCC5)c3)cc2)CC1

>  <Energy>  (50) 
92.99951944603123

>  <Genealogy>  (50) 
CN1CCN(S(=O)(=O)c2ccc(NC(=O)[N-]c3cccc(Cc4n[n-]c(=O)c5c4CCCC5)c3)cc2)CC1 (protonated)
CN1CCN(S(=O)(=O)c2ccc(NC(=O)[N-]c3cccc(Cc4n[n-]c(=O)c5c4CCCC5)c3)cc2)CC1 (3D coordinates assigned)
CN1CCN(S(=O)(=O)c2ccc(NC(=O)[N-]c3cccc(Cc4n[n-]c(=O)c5c4CCCC5)c3)cc2)CC1 (nonaromatic ring conformer: 92.99951944603123 kcal/mol)

>  <smiles>  (50) 
CN1CCN(S(=O)(=O)c2ccc(NC(=O)Nc3cccc(Cc4n[nH]c(=O)c5c4CCCC5)c3)cc2)CC1

>  <score_type>  (50) 
oracle

>  <origin>  (50) 
adg

>  <m_score__min__energy>  (50) 
-13.5

>  <m_primary>  (50) 
energy

$$$$
50:0
     RDKit          3D

 58 60  0  0  0  0  0  0  0  0999 V2000
   56.7400   21.4340   42.9490 C   0  0  0  0  0  0  0  0  0  0  0  0
   55.8590   22.4910   43.3200 O   0  0  0  0  0  0  0  0  0  0  0  0
   56.1890   23.5210   44.2130 C   0  0  0  0  0  0  0  0  0  0  0  0
   57.2160   24.4040   43.8610 C   0  0  0  0  0  0  0  0  0  0  0  0
   57.5870   25.4420   44.7210 C   0  0  0  0  0  0  0  0  0  0  0  0
   56.9200   25.6270   45.9370 C   0  0  0  0  0  0  0  0  0  0  0  0
   57.3390   26.6960   46.7980 N   0  0  0  0  0  0  0  0  0  0  0  0
   58.6920   27.0830   47.0720 C   0  0  0  0  0  0  0  0  0  0  0  0
   59.4540   26.3360   47.7410 O   0  0  0  0  0  0  0  0  0  0  0  0
   59.1960   28.4040   46.5850 C   0  0  0  0  0  0  0  0  0  0  0  0
   58.1500   29.4180   46.7340 N   0  0  0  0  0  0  0  0  0  0  0  0
   57.7810   30.1190   45.1870 S   0  0  0  0  0  0  0  0  0  0  0  0
   56.3060   30.0030   44.9180 O   0  0  0  0  0  0  0  0  0  0  0  0
   58.5110   29.3610   44.1160 O   0  0  0  0  0  0  0  0  0  0  0  0
   58.2800   31.8160   45.1310 C   0  0  0  0  0  0  0  0  0  0  0  0
   58.2200   32.6690   44.0380 C   0  0  0  0  0  0  0  0  0  0  0  0
   57.7300   32.3310   42.6650 C   0  0  0  0  0  0  0  0  0  0  0  0
   58.7180   33.8770   44.3680 N   0  0  0  0  0  0  0  0  0  0  0  0
   59.0920   33.8140   45.6600 C   0  0  0  0  0  0  0  0  0  0  0  0
   59.6580   34.9880   46.3980 C   0  0  0  0  0  0  0  0  0  0  0  0
   58.8490   32.5440   46.1670 C   0  0  0  0  0  0  0  0  0  0  0  0
   59.1220   32.0680   47.5380 C   0  0  0  0  0  0  0  0  0  0  0  0
   58.1520   31.8900   48.3220 O   0  0  0  0  0  0  0  0  0  0  0  0
   60.4640   31.8150   47.9960 N   0  0  0  0  0  0  0  0  0  0  0  0
   61.4640   31.2210   47.0910 C   0  0  0  0  0  0  0  0  0  0  0  0
   62.8610   31.8330   47.3100 C   0  0  0  0  0  0  0  0  0  0  0  0
   63.1240   32.2900   48.7580 C   0  0  0  0  0  0  0  0  0  0  0  0
   62.2090   31.5850   49.7590 C   0  0  0  0  0  0  0  0  0  0  0  0
   60.7420   31.8990   49.4390 C   0  0  0  0  0  0  0  0  0  0  0  0
   55.9000   24.7310   46.3050 C   0  0  0  0  0  0  0  0  0  0  0  0
   55.5310   23.6910   45.4460 C   0  0  0  0  0  0  0  0  0  0  0  0
   57.1395   20.9547   43.8549 H   0  0  0  0  0  0  0  0  0  0  0  0
   56.1903   20.6907   42.3529 H   0  0  0  0  0  0  0  0  0  0  0  0
   57.5702   21.8408   42.3529 H   0  0  0  0  0  0  0  0  0  0  0  0
   57.7358   24.2803   42.8995 H   0  0  0  0  0  0  0  0  0  0  0  0
   58.4084   26.1175   44.4399 H   0  0  0  0  0  0  0  0  0  0  0  0
   60.0771   28.6986   47.1739 H   0  0  0  0  0  0  0  0  0  0  0  0
   59.4719   28.3192   45.5236 H   0  0  0  0  0  0  0  0  0  0  0  0
   57.2810   28.9400   47.0660 H   0  0  0  0  0  0  0  0  0  0  0  0
   56.8267   31.7079   42.7411 H   0  0  0  0  0  0  0  0  0  0  0  0
   57.4916   33.2576   42.1223 H   0  0  0  0  0  0  0  0  0  0  0  0
   58.5115   31.7790   42.1223 H   0  0  0  0  0  0  0  0  0  0  0  0
   58.7960   34.7090   43.7410 H   0  0  0  0  0  0  0  0  0  0  0  0
   59.5746   34.8151   47.4811 H   0  0  0  0  0  0  0  0  0  0  0  0
   60.7166   35.1155   46.1274 H   0  0  0  0  0  0  0  0  0  0  0  0
   59.0985   35.8956   46.1274 H   0  0  0  0  0  0  0  0  0  0  0  0
   61.5154   30.1381   47.2772 H   0  0  0  0  0  0  0  0  0  0  0  0
   61.1564   31.4272   46.0552 H   0  0  0  0  0  0  0  0  0  0  0  0
   63.6153   31.0782   47.0429 H   0  0  0  0  0  0  0  0  0  0  0  0
   62.9184   32.7308   46.6771 H   0  0  0  0  0  0  0  0  0  0  0  0
   64.1699   32.0673   49.0157 H   0  0  0  0  0  0  0  0  0  0  0  0
   62.9199   33.3694   48.8147 H   0  0  0  0  0  0  0  0  0  0  0  0
   62.3708   30.4987   49.6982 H   0  0  0  0  0  0  0  0  0  0  0  0
   62.4416   31.9402   50.7737 H   0  0  0  0  0  0  0  0  0  0  0  0
   60.1008   31.1779   49.9671 H   0  0  0  0  0  0  0  0  0  0  0  0
   60.5349   32.9285   49.7663 H   0  0  0  0  0  0  0  0  0  0  0  0
   55.3904   24.8489   47.2727 H   0  0  0  0  0  0  0  0  0  0  0  0
   54.7231   23.0027   45.7350 H   0  0  0  0  0  0  0  0  0  0  0  0
  1  2  1  0
  2  3  1  0
  3  4  2  0
  4  5  1  0
  5  6  2  0
  6  7  1  0
  7  8  1  0
  8  9  2  0
  8 10  1  0
 10 11  1  0
 11 12  1  0
 12 13  2  0
 12 14  2  0
 12 15  1  0
 15 16  2  0
 16 17  1  0
 16 18  1  0
 18 19  1  0
 19 20  1  0
 19 21  2  0
 21 22  1  0
 22 23  2  0
 22 24  1  0
 24 25  1  0
 25 26  1  0
 26 27  1  0
 27 28  1  0
 28 29  1  0
  6 30  1  0
 30 31  2  0
 31  3  1  0
 21 15  1  0
 29 24  1  0
  1 32  1  0
  1 33  1  0
  1 34  1  0
  4 35  1  0
  5 36  1  0
 10 37  1  0
 10 38  1  0
 11 39  1  0
 17 40  1  0
 17 41  1  0
 17 42  1  0
 18 43  1  0
 20 44  1  0
 20 45  1  0
 20 46  1  0
 25 47  1  0
 25 48  1  0
 26 49  1  0
 26 50  1  0
 27 51  1  0
 27 52  1  0
 28 53  1  0
 28 54  1  0
 29 55  1  0
 29 56  1  0
 30 57  1  0
 31 58  1  0
M  CHG  1   7  -1
M  END
>  <UniqueID>  (51) 
48

>  <SMILES>  (51) 
COc1ccc([N-]C(=O)CNS(=O)(=O)c2c(C)[nH]c(C)c2C(=O)N2CCCCC2)cc1

>  <Energy>  (51) 
87.79477760365327

>  <Genealogy>  (51) 
COc1ccc([N-]C(=O)CNS(=O)(=O)c2c(C)[nH]c(C)c2C(=O)N2CCCCC2)cc1 (protonated)
COc1ccc([N-]C(=O)CNS(=O)(=O)c2c(C)[nH]c(C)c2C(=O)N2CCCCC2)cc1 (3D coordinates assigned)
COc1ccc([N-]C(=O)CNS(=O)(=O)c2c(C)[nH]c(C)c2C(=O)N2CCCCC2)cc1 (nonaromatic ring conformer: 87.79477760365327 kcal/mol)

>  <smiles>  (51) 
COc1ccc(NC(=O)CNS(=O)(=O)c2c(C)[nH]c(C)c2C(=O)N2CCCCC2)cc1

>  <score_type>  (51) 
oracle

>  <origin>  (51) 
adg

>  <m_score__min__energy>  (51) 
-10.66

>  <m_primary>  (51) 
energy

$$$$
51:0
     RDKit          3D

 49 51  0  0  0  0  0  0  0  0999 V2000
   59.7360   27.5450   48.3880 C   0  0  0  0  0  0  0  0  0  0  0  0
   58.6880   27.0080   47.4560 C   0  0  0  0  0  0  0  0  0  0  0  0
   58.5420   25.6250   47.2810 C   0  0  0  0  0  0  0  0  0  0  0  0
   57.5540   25.1230   46.4270 C   0  0  0  0  0  0  0  0  0  0  0  0
   56.6950   25.9990   45.7580 C   0  0  0  0  0  0  0  0  0  0  0  0
   56.7970   27.3830   45.9580 C   0  0  0  0  0  0  0  0  0  0  0  0
   55.8950   28.2460   45.2520 N   0  0  0  0  0  0  0  0  0  0  0  0
   56.2210   29.4920   44.6200 C   0  0  0  0  0  0  0  0  0  0  0  0
   55.5130   30.5190   44.8090 O   0  0  0  0  0  0  0  0  0  0  0  0
   57.3590   29.5470   43.6530 C   0  0  0  0  0  0  0  0  0  0  0  0
   58.6640   29.3990   44.3810 C   0  0  0  0  0  0  0  0  0  0  0  0
   59.4790   28.2770   44.1860 C   0  0  0  0  0  0  0  0  0  0  0  0
   60.6490   28.1790   44.8690 N   0  0  0  0  0  0  0  0  0  0  0  0
   61.0410   29.1350   45.7520 C   0  0  0  0  0  0  0  0  0  0  0  0
   60.2120   30.2540   45.9780 C   0  0  0  0  0  0  0  0  0  0  0  0
   60.5050   31.2150   46.8120 N   0  0  0  0  0  0  0  0  0  0  0  0
   61.6550   31.3740   47.6610 C   0  0  0  0  0  0  0  0  0  0  0  0
   62.8270   31.2690   47.2100 O   0  0  0  0  0  0  0  0  0  0  0  0
   61.4550   31.5780   49.1300 C   0  0  0  0  0  0  0  0  0  0  0  0
   60.1870   32.2640   49.3850 N   0  0  0  0  0  0  0  0  0  0  0  0
   60.1760   33.8600   48.6900 S   0  0  0  0  0  0  0  0  0  0  0  0
   59.6180   34.8440   49.6860 O   0  0  0  0  0  0  0  0  0  0  0  0
   61.5860   34.2590   48.3610 O   0  0  0  0  0  0  0  0  0  0  0  0
   59.2210   33.8720   47.2100 C   0  0  0  0  0  0  0  0  0  0  0  0
   58.0330   33.1270   47.1470 C   0  0  0  0  0  0  0  0  0  0  0  0
   57.2680   33.1270   45.9750 C   0  0  0  0  0  0  0  0  0  0  0  0
   57.6880   33.8640   44.8610 C   0  0  0  0  0  0  0  0  0  0  0  0
   58.8710   34.6070   44.9200 C   0  0  0  0  0  0  0  0  0  0  0  0
   59.6380   34.6130   46.0910 C   0  0  0  0  0  0  0  0  0  0  0  0
   59.0520   30.3510   45.2710 N   0  0  0  0  0  0  0  0  0  0  0  0
   57.8080   27.8850   46.8010 C   0  0  0  0  0  0  0  0  0  0  0  0
   59.4191   27.3826   49.4288 H   0  0  0  0  0  0  0  0  0  0  0  0
   60.6879   27.0235   48.2090 H   0  0  0  0  0  0  0  0  0  0  0  0
   59.8687   28.6222   48.2090 H   0  0  0  0  0  0  0  0  0  0  0  0
   59.2067   24.9317   47.8171 H   0  0  0  0  0  0  0  0  0  0  0  0
   57.4532   24.0373   46.2820 H   0  0  0  0  0  0  0  0  0  0  0  0
   55.9344   25.6004   45.0705 H   0  0  0  0  0  0  0  0  0  0  0  0
   57.2554   28.7309   42.9228 H   0  0  0  0  0  0  0  0  0  0  0  0
   57.3442   30.5174   43.1352 H   0  0  0  0  0  0  0  0  0  0  0  0
   59.1750   27.4837   43.4873 H   0  0  0  0  0  0  0  0  0  0  0  0
   61.9974   29.0370   46.2864 H   0  0  0  0  0  0  0  0  0  0  0  0
   61.4448   30.5999   49.6331 H   0  0  0  0  0  0  0  0  0  0  0  0
   62.2779   32.1960   49.5184 H   0  0  0  0  0  0  0  0  0  0  0  0
   57.7032   32.5431   48.0189 H   0  0  0  0  0  0  0  0  0  0  0  0
   56.3347   32.5467   45.9289 H   0  0  0  0  0  0  0  0  0  0  0  0
   57.0873   33.8585   43.9395 H   0  0  0  0  0  0  0  0  0  0  0  0
   59.1994   35.1875   44.0452 H   0  0  0  0  0  0  0  0  0  0  0  0
   60.5682   35.1984   46.1354 H   0  0  0  0  0  0  0  0  0  0  0  0
   57.9088   28.9706   46.9471 H   0  0  0  0  0  0  0  0  0  0  0  0
  1  2  1  0
  2  3  2  0
  3  4  1  0
  4  5  2  0
  5  6  1  0
  6  7  1  0
  7  8  1  0
  8  9  2  0
  8 10  1  0
 10 11  1  0
 11 12  2  0
 12 13  1  0
 13 14  2  0
 14 15  1  0
 15 16  2  3
 16 17  1  0
 17 18  2  0
 17 19  1  0
 19 20  1  0
 20 21  1  0
 21 22  2  0
 21 23  2  0
 21 24  1  0
 24 25  2  0
 25 26  1  0
 26 27  2  0
 27 28  1  0
 28 29  2  0
 15 30  1  0
  6 31  2  0
 31  2  1  0
 30 11  1  0
 29 24  1  0
  1 32  1  0
  1 33  1  0
  1 34  1  0
  3 35  1  0
  4 36  1  0
  5 37  1  0
 10 38  1  0
 10 39  1  0
 12 40  1  0
 14 41  1  0
 19 42  1  0
 19 43  1  0
 25 44  1  0
 26 45  1  0
 27 46  1  0
 28 47  1  0
 29 48  1  0
 31 49  1  0
M  CHG  3   7  -1  20  -1  30  -1
M  END
>  <UniqueID>  (52) 
49

>  <SMILES>  (52) 
Cc1cccc([N-]C(=O)Cc2cncc(=NC(=O)C[N-]S(=O)(=O)c3ccccc3)[n-]2)c1

>  <Energy>  (52) 
59.391399255731514

>  <Genealogy>  (52) 
Cc1cccc([N-]C(=O)Cc2cncc(=NC(=O)C[N-]S(=O)(=O)c3ccccc3)[n-]2)c1 (protonated)
Cc1cccc([N-]C(=O)Cc2cncc(=NC(=O)C[N-]S(=O)(=O)c3ccccc3)[n-]2)c1 (3D coordinates assigned)
Cc1cccc([N-]C(=O)Cc2cncc(=NC(=O)C[N-]S(=O)(=O)c3ccccc3)[n-]2)c1 (optimized conformer: 59.391399255731514 kcal/mol)

>  <smiles>  (52) 
Cc1cccc(NC(=O)Cc2cncc(=NC(=O)CNS(=O)(=O)c3ccccc3)[nH]2)c1

>  <score_type>  (52) 
oracle

>  <origin>  (52) 
adg

>  <m_score__min__energy>  (52) 
-14.19

>  <m_primary>  (52) 
energy

$$$$
52:0
     RDKit          3D

 54 57  0  0  0  0  0  0  0  0999 V2000
   59.7650   27.7260   45.6460 C   0  0  0  0  0  0  0  0  0  0  0  0
   58.4890   28.0450   45.3830 C   0  0  0  0  0  0  0  0  0  0  0  0
   57.3370   27.3600   45.8040 C   0  0  0  0  0  0  0  0  0  0  0  0
   57.2040   26.1380   46.3520 C   0  0  0  0  0  0  0  0  0  0  0  0
   56.2920   25.0810   45.8850 C   0  0  0  0  0  0  0  0  0  0  0  0
   56.6820   23.8780   45.4240 N   0  0  0  0  0  0  0  0  0  0  0  0
   55.5310   23.3200   44.9910 C   0  0  0  0  0  0  0  0  0  0  0  0
   55.4810   22.1660   44.4930 O   0  0  0  0  0  0  0  0  0  0  0  0
   54.4390   24.1030   45.1230 N   0  0  0  0  0  0  0  0  0  0  0  0
   54.9410   25.2180   45.6790 C   0  0  0  0  0  0  0  0  0  0  0  0
   54.1820   26.3400   45.9830 O   0  0  0  0  0  0  0  0  0  0  0  0
   56.2550   28.1260   45.5540 N   0  0  0  0  0  0  0  0  0  0  0  0
   56.7490   29.2180   44.9430 C   0  0  0  0  0  0  0  0  0  0  0  0
   56.0160   30.1690   44.5620 O   0  0  0  0  0  0  0  0  0  0  0  0
   58.0900   29.2010   44.7930 N   0  0  0  0  0  0  0  0  0  0  0  0
   58.8950   30.2870   44.2100 C   0  0  0  0  0  0  0  0  0  0  0  0
   58.6520   31.5900   44.9440 C   0  0  0  0  0  0  0  0  0  0  0  0
   58.9410   31.6580   46.3190 C   0  0  0  0  0  0  0  0  0  0  0  0
   58.6970   32.8250   47.0540 C   0  0  0  0  0  0  0  0  0  0  0  0
   59.0170   32.8400   48.5030 C   0  0  0  0  0  0  0  0  0  0  0  0
   58.0680   32.6540   49.3140 O   0  0  0  0  0  0  0  0  0  0  0  0
   60.3500   33.0860   49.0330 N   0  0  1  0  0  0  0  0  0  0  0  0
   61.1330   31.8300   49.0780 C   0  0  0  0  0  0  0  0  0  0  0  0
   62.5890   32.1050   49.4700 C   0  0  0  0  0  0  0  0  0  0  0  0
   63.2960   33.0280   48.4540 C   0  0  1  0  0  0  0  0  0  0  0  0
   64.1260   32.2600   47.6220 O   0  0  0  0  0  0  0  0  0  0  0  0
   62.2990   33.8340   47.5920 C   0  0  0  0  0  0  0  0  0  0  0  0
   61.0560   34.2430   48.3980 C   0  0  0  0  0  0  0  0  0  0  0  0
   58.1840   33.9500   46.3970 C   0  0  0  0  0  0  0  0  0  0  0  0
   57.8910   33.8990   45.0350 C   0  0  0  0  0  0  0  0  0  0  0  0
   58.1210   32.7310   44.2910 C   0  0  0  0  0  0  0  0  0  0  0  0
   57.7650   32.7160   42.8280 C   0  0  0  0  0  0  0  0  0  0  0  0
   60.5804   28.3511   45.2531 H   0  0  0  0  0  0  0  0  0  0  0  0
   59.9960   26.8393   46.2546 H   0  0  0  0  0  0  0  0  0  0  0  0
   57.8319   25.9089   47.2256 H   0  0  0  0  0  0  0  0  0  0  0  0
   59.9609   30.0252   44.2831 H   0  0  0  0  0  0  0  0  0  0  0  0
   58.6039   30.4157   43.1570 H   0  0  0  0  0  0  0  0  0  0  0  0
   59.3661   30.7792   46.8259 H   0  0  0  0  0  0  0  0  0  0  0  0
   60.2040   33.3630   50.0340 H   0  0  0  0  0  0  0  0  0  0  0  0
   61.1109   31.3564   48.0854 H   0  0  0  0  0  0  0  0  0  0  0  0
   60.6864   31.1651   49.8319 H   0  0  0  0  0  0  0  0  0  0  0  0
   63.1307   31.1488   49.5183 H   0  0  0  0  0  0  0  0  0  0  0  0
   62.5886   32.6112   50.4466 H   0  0  0  0  0  0  0  0  0  0  0  0
   63.8920   33.7533   49.0274 H   0  0  0  0  0  0  0  0  0  0  0  0
   64.9050   32.8300   47.3870 H   0  0  0  0  0  0  0  0  0  0  0  0
   61.9836   33.2155   46.7388 H   0  0  0  0  0  0  0  0  0  0  0  0
   62.8029   34.7495   47.2486 H   0  0  0  0  0  0  0  0  0  0  0  0
   60.3534   34.7508   47.7209 H   0  0  0  0  0  0  0  0  0  0  0  0
   61.3989   34.8993   49.2114 H   0  0  0  0  0  0  0  0  0  0  0  0
   58.0111   34.8797   46.9589 H   0  0  0  0  0  0  0  0  0  0  0  0
   57.4738   34.7863   44.5364 H   0  0  0  0  0  0  0  0  0  0  0  0
   56.6716   32.6699   42.7172 H   0  0  0  0  0  0  0  0  0  0  0  0
   58.1439   33.6309   42.3490 H   0  0  0  0  0  0  0  0  0  0  0  0
   58.2195   31.8362   42.3490 H   0  0  0  0  0  0  0  0  0  0  0  0
  1  2  2  0
  2  3  1  0
  3  4  2  3
  4  5  1  0
  5  6  1  0
  6  7  1  0
  7  8  2  0
  7  9  1  0
  9 10  1  0
 10 11  1  0
  3 12  1  0
 12 13  1  0
 13 14  2  0
 13 15  1  0
 15 16  1  0
 16 17  1  0
 17 18  2  0
 18 19  1  0
 19 20  1  0
 20 21  2  0
 20 22  1  0
 22 23  1  0
 23 24  1  0
 24 25  1  0
 25 26  1  0
 25 27  1  0
 27 28  1  0
 19 29  2  0
 29 30  1  0
 30 31  2  0
 31 32  1  0
 15  2  1  0
 31 17  1  0
 10  5  2  0
 28 22  1  0
  1 33  1  0
  1 34  1  0
  4 35  1  0
 16 36  1  0
 16 37  1  0
 18 38  1  0
 22 39  1  1
 23 40  1  0
 23 41  1  0
 24 42  1  0
 24 43  1  0
 25 44  1  1
 26 45  1  0
 27 46  1  0
 27 47  1  0
 28 48  1  0
 28 49  1  0
 29 50  1  0
 30 51  1  0
 32 52  1  0
 32 53  1  0
 32 54  1  0
M  CHG  5   6  -1   9  -1  11  -1  12  -1  22   1
M  END
>  <UniqueID>  (53) 
50

>  <SMILES>  (53) 
C=c1c(=Cc2[n-]c(=O)[n-]c2[O-])[n-]c(=O)n1Cc1cc(C(=O)[NH+]2CCC(O)CC2)ccc1C

>  <Energy>  (53) 
149.738879563863

>  <Genealogy>  (53) 
C=c1c(=Cc2[n-]c(=O)[n-]c2[O-])[n-]c(=O)n1Cc1cc(C(=O)[NH+]2CCC(O)CC2)ccc1C (protonated)
C=c1c(=Cc2[n-]c(=O)[n-]c2[O-])[n-]c(=O)n1Cc1cc(C(=O)[NH+]2CCC(O)CC2)ccc1C (3D coordinates assigned)
C=c1c(=Cc2[n-]c(=O)[n-]c2[O-])[n-]c(=O)n1Cc1cc(C(=O)[NH+]2CCC(O)CC2)ccc1C (nonaromatic ring conformer: 149.738879563863 kcal/mol)

>  <smiles>  (53) 
C=c1c(=Cc2[nH]c(=O)[nH]c2O)[nH]c(=O)n1Cc1cc(C(=O)N2CCC(O)CC2)ccc1C

>  <score_type>  (53) 
oracle

>  <origin>  (53) 
adg

>  <m_score__min__energy>  (53) 
-17.309999999999999

>  <m_primary>  (53) 
energy

$$$$
53:0
     RDKit          3D

 55 58  0  0  0  0  0  0  0  0999 V2000
   65.1150   33.3760   47.1230 H   0  0  0  0  0  0  0  0  0  0  0  0
   64.1080   33.5750   46.9490 N   0  0  0  0  0  0  0  0  0  0  0  0
   63.1490   32.8290   47.3950 C   0  0  0  0  0  0  0  0  0  0  0  0
   61.9440   32.8710   46.7640 N   0  0  0  0  0  0  0  0  0  0  0  0
   60.8730   32.1560   47.1960 C   0  0  0  0  0  0  0  0  0  0  0  0
   59.9240   32.2012   46.6417 H   0  0  0  0  0  0  0  0  0  0  0  0
   60.9730   31.3620   48.3440 C   0  0  0  0  0  0  0  0  0  0  0  0
   59.7610   30.6130   48.8460 C   0  0  1  0  0  0  0  0  0  0  0  0
   59.8899   30.9608   49.8816 H   0  0  0  0  0  0  0  0  0  0  0  0
   58.5850   30.4830   47.8770 C   0  0  0  0  0  0  0  0  0  0  0  0
   57.5537   30.5400   48.2554 H   0  0  0  0  0  0  0  0  0  0  0  0
   58.2785   31.0023   46.9570 H   0  0  0  0  0  0  0  0  0  0  0  0
   59.4420   29.2580   48.1850 C   0  0  1  0  0  0  0  0  0  0  0  0
   59.2521   28.2409   48.5585 H   0  0  0  0  0  0  0  0  0  0  0  0
   60.3780   28.7340   47.0710 C   0  0  0  0  0  0  0  0  0  0  0  0
   60.5956   29.5574   46.3749 H   0  0  0  0  0  0  0  0  0  0  0  0
   61.2956   28.3605   47.5491 H   0  0  0  0  0  0  0  0  0  0  0  0
   59.7950   27.6550   46.3390 O   0  0  0  0  0  0  0  0  0  0  0  0
   58.4220   27.4400   46.1610 C   0  0  0  0  0  0  0  0  0  0  0  0
   57.7810   26.2590   46.5570 C   0  0  0  0  0  0  0  0  0  0  0  0
   58.3408   25.4706   47.0813 H   0  0  0  0  0  0  0  0  0  0  0  0
   56.4230   26.0950   46.2780 C   0  0  0  0  0  0  0  0  0  0  0  0
   55.9118   25.1667   46.5729 H   0  0  0  0  0  0  0  0  0  0  0  0
   55.7310   27.0750   45.6450 N   0  0  0  0  0  0  0  0  0  0  0  0
   56.3110   28.2440   45.2680 C   0  0  0  0  0  0  0  0  0  0  0  0
   55.5780   29.1340   44.6620 N   0  0  0  0  0  0  0  0  0  0  0  0
   55.8140   29.7250   43.3490 C   0  0  0  0  0  0  0  0  0  0  0  0
   56.2845   28.9749   42.6963 H   0  0  0  0  0  0  0  0  0  0  0  0
   54.8489   30.0482   42.9318 H   0  0  0  0  0  0  0  0  0  0  0  0
   56.7150   30.9210   43.4510 C   0  0  0  0  0  0  0  0  0  0  0  0
   57.1430   31.6970   44.8890 S   0  0  0  0  0  0  0  0  0  0  0  0
   58.1200   32.8210   44.0940 C   0  0  0  0  0  0  0  0  0  0  0  0
   58.9450   33.8650   44.7750 C   0  0  0  0  0  0  0  0  0  0  0  0
   58.8544   33.7504   45.8653 H   0  0  0  0  0  0  0  0  0  0  0  0
   59.9985   33.7496   44.4804 H   0  0  0  0  0  0  0  0  0  0  0  0
   58.5892   34.8633   44.4804 H   0  0  0  0  0  0  0  0  0  0  0  0
   58.1600   32.5970   42.7580 N   0  0  0  0  0  0  0  0  0  0  0  0
   57.3770   31.5430   42.3960 C   0  0  0  0  0  0  0  0  0  0  0  0
   57.2757   31.2096   41.3526 H   0  0  0  0  0  0  0  0  0  0  0  0
   57.6780   28.4440   45.5350 C   0  0  0  0  0  0  0  0  0  0  0  0
   58.1611   29.3906   45.2510 H   0  0  0  0  0  0  0  0  0  0  0  0
   62.2260   31.2310   48.9650 C   0  0  0  0  0  0  0  0  0  0  0  0
   62.3482   30.5406   49.8126 H   0  0  0  0  0  0  0  0  0  0  0  0
   63.3270   31.9810   48.5060 C   0  0  0  0  0  0  0  0  0  0  0  0
   64.5880   31.9160   49.1310 O   0  0  0  0  0  0  0  0  0  0  0  0
   64.9520   32.5730   50.3490 C   0  0  0  0  0  0  0  0  0  0  0  0
   64.8406   31.8847   51.1998 H   0  0  0  0  0  0  0  0  0  0  0  0
   64.0350   33.7790   50.5410 C   0  0  0  0  0  0  0  0  0  0  0  0
   63.8938   33.9648   51.6160 H   0  0  0  0  0  0  0  0  0  0  0  0
   64.4903   34.6641   50.0727 H   0  0  0  0  0  0  0  0  0  0  0  0
   63.0604   33.5768   50.0727 H   0  0  0  0  0  0  0  0  0  0  0  0
   66.4200   33.0210   50.2820 C   0  0  0  0  0  0  0  0  0  0  0  0
   66.8136   33.1411   51.3021 H   0  0  0  0  0  0  0  0  0  0  0  0
   67.0109   32.2623   49.7480 H   0  0  0  0  0  0  0  0  0  0  0  0
   66.4866   33.9804   49.7480 H   0  0  0  0  0  0  0  0  0  0  0  0
  1  2  1  0
  2  3  2  0
  3  4  1  0
  4  5  1  0
  5  6  1  0
  5  7  2  0
  7  8  1  0
  8  9  1  1
  8 10  1  0
 10 11  1  0
 10 12  1  0
 10 13  1  0
 13 14  1  1
 13 15  1  0
 15 16  1  0
 15 17  1  0
 15 18  1  0
 18 19  1  0
 19 20  1  0
 20 21  1  0
 20 22  2  0
 22 23  1  0
 22 24  1  0
 24 25  1  0
 25 26  2  0
 26 27  1  0
 27 28  1  0
 27 29  1  0
 27 30  1  0
 30 31  1  0
 31 32  1  0
 32 33  1  0
 33 34  1  0
 33 35  1  0
 33 36  1  0
 32 37  2  0
 37 38  1  0
 38 39  1  0
 25 40  1  0
 40 41  1  0
  7 42  1  0
 42 43  1  0
 42 44  2  0
 44 45  1  0
 45 46  1  0
 46 47  1  0
 46 48  1  0
 48 49  1  0
 48 50  1  0
 48 51  1  0
 46 52  1  0
 52 53  1  0
 52 54  1  0
 52 55  1  0
 44  3  1  0
 13  8  1  0
 40 19  2  0
 38 30  2  0
M  CHG  2   4  -1  24  -1
M  END
>  <UniqueID>  (54) 
51

>  <SMILES>  (54) 
[H]/N=c1/[n-]cc([C@H]2C[C@H]2COc2cc[n-]/c(=N/Cc3cnc(C)s3)c2)cc1OC(C)C

>  <Energy>  (54) 
351.6385856343854

>  <Genealogy>  (54) 
Cc1ncc(CN=c2cc(OCC3CC3c3c[n-]c(=N)c(OC(C)C)c3)cc[n-]2)s1 (protonated)
Cc1ncc(CN=c2cc(OC[C@@H]3C[C@@H]3c3c[n-]c(=N)c(OC(C)C)c3)cc[n-]2)s1 (chirality)
[H]/N=c1/[n-]cc([C@H]2C[C@H]2COc2cc[n-]/c(=N/Cc3cnc(C)s3)c2)cc1OC(C)C (cis-trans isomerization)
[H]/N=c1/[n-]cc([C@H]2C[C@H]2COc2cc[n-]/c(=N/Cc3cnc(C)s3)c2)cc1OC(C)C (3D coordinates assigned)
[H]/N=c1/[n-]cc([C@H]2C[C@H]2COc2cc[n-]/c(=N/Cc3cnc(C)s3)c2)cc1OC(C)C (nonaromatic ring conformer: 351.6385856343854 kcal/mol)

>  <smiles>  (54) 
Cc1ncc(CN=c2cc(OCC3CC3c3c[nH]c(=N)c(OC(C)C)c3)cc[nH]2)s1

>  <score_type>  (54) 
oracle

>  <origin>  (54) 
adg

>  <m_score__min__energy>  (54) 
-11.949999999999999

>  <m_primary>  (54) 
energy

$$$$
54:0
     RDKit          3D

 58 62  0  0  0  0  0  0  0  0999 V2000
   60.7570   26.6050   46.0010 O   0  0  0  0  0  0  0  0  0  0  0  0
   59.9340   27.2650   46.6870 C   0  0  0  0  0  0  0  0  0  0  0  0
   60.3150   27.7570   47.9770 N   0  0  0  0  0  0  0  0  0  0  0  0
   59.9270   29.0190   48.5360 C   0  0  0  0  0  0  0  0  0  0  0  0
   59.1350   29.0340   49.6900 C   0  0  0  0  0  0  0  0  0  0  0  0
   58.7420   30.2480   50.2610 C   0  0  0  0  0  0  0  0  0  0  0  0
   59.1280   31.4560   49.6740 C   0  0  0  0  0  0  0  0  0  0  0  0
   59.8970   31.4570   48.5030 C   0  0  0  0  0  0  0  0  0  0  0  0
   60.3670   32.9760   47.7400 S   0  0  0  0  0  0  0  0  0  0  0  0
   61.4360   33.6260   48.5720 O   0  0  0  0  0  0  0  0  0  0  0  0
   60.9530   32.6890   46.3850 O   0  0  0  0  0  0  0  0  0  0  0  0
   59.0220   34.0840   47.5600 N   0  0  0  0  0  0  0  0  0  0  0  0
   59.3740   35.2670   46.7530 C   0  0  0  0  0  0  0  0  0  0  0  0
   59.2960   35.0060   45.2300 C   0  0  0  0  0  0  0  0  0  0  0  0
   58.6460   33.7940   44.8970 O   0  0  0  0  0  0  0  0  0  0  0  0
   57.4560   33.6700   45.6400 C   0  0  0  0  0  0  0  0  0  0  0  0
   57.7780   33.4160   47.1200 C   0  0  0  0  0  0  0  0  0  0  0  0
   60.2810   30.2360   47.9280 C   0  0  0  0  0  0  0  0  0  0  0  0
   58.5610   27.4990   46.1880 C   0  0  0  0  0  0  0  0  0  0  0  0
   58.1400   28.6320   45.4970 C   0  0  0  0  0  0  0  0  0  0  0  0
   58.8340   29.7620   45.0500 C   0  0  0  0  0  0  0  0  0  0  0  0
   58.1140   30.7470   44.3500 C   0  0  0  0  0  0  0  0  0  0  0  0
   56.7330   30.5870   44.1040 C   0  0  0  0  0  0  0  0  0  0  0  0
   56.0610   29.4360   44.5500 C   0  0  0  0  0  0  0  0  0  0  0  0
   56.8010   28.4790   45.2410 C   0  0  0  0  0  0  0  0  0  0  0  0
   56.4290   27.2680   45.7730 C   0  0  0  0  0  0  0  0  0  0  0  0
   55.1440   26.7390   45.7400 O   0  0  0  0  0  0  0  0  0  0  0  0
   57.4940   26.6600   46.3470 N   0  0  0  0  0  0  0  0  0  0  0  0
   57.4350   25.3680   47.0430 C   0  0  0  0  0  0  0  0  0  0  0  0
   57.5960   24.2340   46.0640 C   0  0  0  0  0  0  0  0  0  0  0  0
   58.8690   23.7170   45.7760 C   0  0  0  0  0  0  0  0  0  0  0  0
   59.0170   22.6860   44.8440 C   0  0  0  0  0  0  0  0  0  0  0  0
   57.8970   22.1670   44.1890 C   0  0  0  0  0  0  0  0  0  0  0  0
   56.6260   22.6800   44.4620 C   0  0  0  0  0  0  0  0  0  0  0  0
   55.5150   22.1690   43.8050 O   0  0  0  0  0  0  0  0  0  0  0  0
   56.4760   23.7100   45.3950 C   0  0  0  0  0  0  0  0  0  0  0  0
   58.8202   28.0857   50.1500 H   0  0  0  0  0  0  0  0  0  0  0  0
   58.1280   30.2524   51.1737 H   0  0  0  0  0  0  0  0  0  0  0  0
   58.8270   32.4093   50.1329 H   0  0  0  0  0  0  0  0  0  0  0  0
   58.6796   36.0821   47.0048 H   0  0  0  0  0  0  0  0  0  0  0  0
   60.4164   35.5274   46.9888 H   0  0  0  0  0  0  0  0  0  0  0  0
   58.7459   35.8359   44.7624 H   0  0  0  0  0  0  0  0  0  0  0  0
   60.3297   34.9303   44.8616 H   0  0  0  0  0  0  0  0  0  0  0  0
   56.8728   34.5982   45.5493 H   0  0  0  0  0  0  0  0  0  0  0  0
   56.8756   32.8216   45.2485 H   0  0  0  0  0  0  0  0  0  0  0  0
   56.9432   33.7909   47.7304 H   0  0  0  0  0  0  0  0  0  0  0  0
   57.9221   32.3328   47.2458 H   0  0  0  0  0  0  0  0  0  0  0  0
   60.8632   30.2311   46.9947 H   0  0  0  0  0  0  0  0  0  0  0  0
   59.9113   29.8766   45.2405 H   0  0  0  0  0  0  0  0  0  0  0  0
   58.6311   31.6492   43.9914 H   0  0  0  0  0  0  0  0  0  0  0  0
   56.1801   31.3673   43.5604 H   0  0  0  0  0  0  0  0  0  0  0  0
   54.9867   29.2955   44.3598 H   0  0  0  0  0  0  0  0  0  0  0  0
   58.2430   25.3208   47.7879 H   0  0  0  0  0  0  0  0  0  0  0  0
   56.4572   25.2747   47.5382 H   0  0  0  0  0  0  0  0  0  0  0  0
   59.7540   24.1251   46.2861 H   0  0  0  0  0  0  0  0  0  0  0  0
   60.0168   22.2825   44.6257 H   0  0  0  0  0  0  0  0  0  0  0  0
   58.0159   21.3539   43.4578 H   0  0  0  0  0  0  0  0  0  0  0  0
   55.4748   24.1133   45.6072 H   0  0  0  0  0  0  0  0  0  0  0  0
  1  2  2  0
  2  3  1  0
  3  4  1  0
  4  5  2  0
  5  6  1  0
  6  7  2  0
  7  8  1  0
  8  9  1  0
  9 10  2  0
  9 11  2  0
  9 12  1  0
 12 13  1  0
 13 14  1  0
 14 15  1  0
 15 16  1  0
 16 17  1  0
  8 18  2  0
  2 19  1  0
 19 20  2  0
 20 21  1  0
 21 22  2  0
 22 23  1  0
 23 24  2  0
 24 25  1  0
 25 26  2  0
 26 27  1  0
 26 28  1  0
 28 29  1  0
 29 30  1  0
 30 31  2  0
 31 32  1  0
 32 33  2  0
 33 34  1  0
 34 35  1  0
 34 36  2  0
 18  4  1  0
 28 19  1  0
 36 30  1  0
 17 12  1  0
 25 20  1  0
  5 37  1  0
  6 38  1  0
  7 39  1  0
 13 40  1  0
 13 41  1  0
 14 42  1  0
 14 43  1  0
 16 44  1  0
 16 45  1  0
 17 46  1  0
 17 47  1  0
 18 48  1  0
 21 49  1  0
 22 50  1  0
 23 51  1  0
 24 52  1  0
 29 53  1  0
 29 54  1  0
 31 55  1  0
 32 56  1  0
 33 57  1  0
 36 58  1  0
M  CHG  3   3  -1  27  -1  35  -1
M  END
>  <UniqueID>  (55) 
52

>  <SMILES>  (55) 
O=C([N-]c1cccc(S(=O)(=O)N2CCOCC2)c1)c1c2ccccc2c([O-])n1Cc1cccc([O-])c1

>  <Energy>  (55) 
115.97583029432862

>  <Genealogy>  (55) 
O=C([N-]c1cccc(S(=O)(=O)N2CCOCC2)c1)c1c2ccccc2c([O-])n1Cc1cccc([O-])c1 (protonated)
O=C([N-]c1cccc(S(=O)(=O)N2CCOCC2)c1)c1c2ccccc2c([O-])n1Cc1cccc([O-])c1 (3D coordinates assigned)
O=C([N-]c1cccc(S(=O)(=O)N2CCOCC2)c1)c1c2ccccc2c([O-])n1Cc1cccc([O-])c1 (nonaromatic ring conformer: 115.97583029432862 kcal/mol)

>  <smiles>  (55) 
O=C(Nc1cccc(S(=O)(=O)N2CCOCC2)c1)c1c2ccccc2c(O)n1Cc1cccc(O)c1

>  <score_type>  (55) 
oracle

>  <origin>  (55) 
adg

>  <m_score__min__energy>  (55) 
-16.420000000000002

>  <m_primary>  (55) 
energy

$$$$
55:0
     RDKit          3D

 48 51  0  0  0  0  0  0  0  0999 V2000
   60.6370   30.7850   46.3690 C   0  0  0  0  0  0  0  0  0  0  0  0
   59.9760   32.1030   46.6950 C   0  0  0  0  0  0  0  0  0  0  0  0
   60.5650   32.9550   47.6660 C   0  0  0  0  0  0  0  0  0  0  0  0
   61.6540   32.4980   48.4850 N   0  0  0  0  0  0  0  0  0  0  0  0
   63.3110   32.6570   48.0010 S   0  0  0  0  0  0  0  0  0  0  0  0
   64.3660   32.6950   49.4350 C   0  0  0  0  0  0  0  0  0  0  0  0
   63.6950   31.5100   47.1070 O   0  0  0  0  0  0  0  0  0  0  0  0
   63.4810   33.9470   47.2470 O   0  0  0  0  0  0  0  0  0  0  0  0
   60.0560   34.2480   47.8560 C   0  0  0  0  0  0  0  0  0  0  0  0
   58.9820   34.7000   47.1000 C   0  0  0  0  0  0  0  0  0  0  0  0
   58.3640   33.8540   46.1850 C   0  0  0  0  0  0  0  0  0  0  0  0
   58.7990   32.5310   46.0110 C   0  0  0  0  0  0  0  0  0  0  0  0
   57.8950   31.4790   44.8800 S   0  0  0  0  0  0  0  0  0  0  0  0
   58.4610   31.6110   43.4950 O   0  0  0  0  0  0  0  0  0  0  0  0
   56.4660   31.9440   44.8490 O   0  0  0  0  0  0  0  0  0  0  0  0
   57.9650   29.7670   45.2510 N   0  0  0  0  0  0  0  0  0  0  0  0
   58.9920   29.0340   44.4740 C   0  0  0  0  0  0  0  0  0  0  0  0
   59.2480   27.6480   45.1000 C   0  0  0  0  0  0  0  0  0  0  0  0
   57.9420   26.9980   45.4270 C   0  0  0  0  0  0  0  0  0  0  0  0
   56.7470   27.6850   45.5330 C   0  0  0  0  0  0  0  0  0  0  0  0
   55.7330   26.8620   45.8900 N   0  0  0  0  0  0  0  0  0  0  0  0
   56.3110   25.6560   46.0410 C   0  0  0  0  0  0  0  0  0  0  0  0
   55.6870   24.5120   46.4170 N   0  0  0  0  0  0  0  0  0  0  0  0
   56.4220   23.3640   46.5380 C   0  0  0  0  0  0  0  0  0  0  0  0
   57.8130   23.3680   46.2760 C   0  0  0  0  0  0  0  0  0  0  0  0
   58.4490   24.5590   45.8850 C   0  0  0  0  0  0  0  0  0  0  0  0
   57.6560   25.6970   45.7750 C   0  0  0  0  0  0  0  0  0  0  0  0
   56.6290   29.1360   45.1930 C   0  0  0  0  0  0  0  0  0  0  0  0
   60.8979   30.2648   47.3025 H   0  0  0  0  0  0  0  0  0  0  0  0
   59.9445   30.1624   45.7835 H   0  0  0  0  0  0  0  0  0  0  0  0
   61.5502   30.9677   45.7835 H   0  0  0  0  0  0  0  0  0  0  0  0
   61.4570   31.9520   49.3530 H   0  0  0  0  0  0  0  0  0  0  0  0
   63.7486   32.6728   50.3451 H   0  0  0  0  0  0  0  0  0  0  0  0
   65.0329   31.8203   49.4229 H   0  0  0  0  0  0  0  0  0  0  0  0
   64.9682   33.6154   49.4229 H   0  0  0  0  0  0  0  0  0  0  0  0
   60.5105   34.9087   48.6089 H   0  0  0  0  0  0  0  0  0  0  0  0
   58.6188   35.7307   47.2253 H   0  0  0  0  0  0  0  0  0  0  0  0
   57.5197   34.2284   45.5874 H   0  0  0  0  0  0  0  0  0  0  0  0
   58.6413   28.9058   43.4393 H   0  0  0  0  0  0  0  0  0  0  0  0
   59.9287   29.6106   44.4855 H   0  0  0  0  0  0  0  0  0  0  0  0
   59.8011   27.0201   44.3860 H   0  0  0  0  0  0  0  0  0  0  0  0
   59.8388   27.7657   46.0204 H   0  0  0  0  0  0  0  0  0  0  0  0
   54.7270   27.1090   46.0230 H   0  0  0  0  0  0  0  0  0  0  0  0
   55.9273   22.4296   46.8416 H   0  0  0  0  0  0  0  0  0  0  0  0
   58.3954   22.4405   46.3782 H   0  0  0  0  0  0  0  0  0  0  0  0
   59.5283   24.5900   45.6748 H   0  0  0  0  0  0  0  0  0  0  0  0
   56.2172   29.2424   44.1786 H   0  0  0  0  0  0  0  0  0  0  0  0
   55.9599   29.6280   45.9143 H   0  0  0  0  0  0  0  0  0  0  0  0
  1  2  1  0
  2  3  2  0
  3  4  1  0
  4  5  1  0
  5  6  1  0
  5  7  2  0
  5  8  2  0
  3  9  1  0
  9 10  2  0
 10 11  1  0
 11 12  2  0
 12 13  1  0
 13 14  2  0
 13 15  2  0
 13 16  1  0
 16 17  1  0
 17 18  1  0
 18 19  1  0
 19 20  2  0
 20 21  1  0
 21 22  1  0
 22 23  2  0
 23 24  1  0
 24 25  2  0
 25 26  1  0
 26 27  2  0
 20 28  1  0
 12  2  1  0
 28 16  1  0
 27 19  1  0
 27 22  1  0
  1 29  1  0
  1 30  1  0
  1 31  1  0
  4 32  1  0
  6 33  1  0
  6 34  1  0
  6 35  1  0
  9 36  1  0
 10 37  1  0
 11 38  1  0
 17 39  1  0
 17 40  1  0
 18 41  1  0
 18 42  1  0
 21 43  1  0
 24 44  1  0
 25 45  1  0
 26 46  1  0
 28 47  1  0
 28 48  1  0
M  END
>  <UniqueID>  (56) 
53

>  <SMILES>  (56) 
Cc1c(NS(C)(=O)=O)cccc1S(=O)(=O)N1CCc2c([nH]c3ncccc23)C1

>  <Energy>  (56) 
100.18989267170035

>  <Genealogy>  (56) 
Cc1c(NS(C)(=O)=O)cccc1S(=O)(=O)N1CCc2c([nH]c3ncccc23)C1 (3D coordinates assigned)
Cc1c(NS(C)(=O)=O)cccc1S(=O)(=O)N1CCc2c([nH]c3ncccc23)C1 (nonaromatic ring conformer: 100.18989267170035 kcal/mol)

>  <smiles>  (56) 
Cc1c(NS(C)(=O)=O)cccc1S(=O)(=O)N1CCc2c([nH]c3ncccc23)C1

>  <score_type>  (56) 
oracle

>  <origin>  (56) 
adg

>  <m_score__min__energy>  (56) 
-10.15

>  <m_primary>  (56) 
energy

$$$$
56:0
     RDKit          3D

 50 53  0  0  0  0  0  0  0  0999 V2000
   59.4980   29.1450   47.0700 C   0  0  0  0  0  0  0  0  0  0  0  0
   58.8000   29.2460   45.9290 C   0  0  0  0  0  0  0  0  0  0  0  0
   58.3900   28.1910   45.1070 C   0  0  0  0  0  0  0  0  0  0  0  0
   58.5860   26.8740   45.3120 C   0  0  0  0  0  0  0  0  0  0  0  0
   57.6840   26.0200   46.1060 C   0  0  0  0  0  0  0  0  0  0  0  0
   58.0920   24.9050   46.7380 N   0  0  0  0  0  0  0  0  0  0  0  0
   56.9500   24.4020   47.2540 C   0  0  0  0  0  0  0  0  0  0  0  0
   56.9230   23.3470   47.9400 O   0  0  0  0  0  0  0  0  0  0  0  0
   55.8370   25.1120   46.9700 N   0  0  0  0  0  0  0  0  0  0  0  0
   56.3160   26.1260   46.2310 C   0  0  0  0  0  0  0  0  0  0  0  0
   55.5120   27.0980   45.6480 O   0  0  0  0  0  0  0  0  0  0  0  0
   57.6780   28.7660   44.0620 C   0  0  0  0  0  0  0  0  0  0  0  0
   57.6990   30.1300   44.2710 C   0  0  0  0  0  0  0  0  0  0  0  0
   57.0200   31.1360   43.3930 C   0  0  0  0  0  0  0  0  0  0  0  0
   58.3700   30.4220   45.4070 N   0  0  0  0  0  0  0  0  0  0  0  0
   58.5860   31.7390   45.9410 C   0  0  0  0  0  0  0  0  0  0  0  0
   57.5190   32.6440   46.0260 C   0  0  0  0  0  0  0  0  0  0  0  0
   57.7160   33.9130   46.5720 C   0  0  0  0  0  0  0  0  0  0  0  0
   58.9790   34.2890   47.0340 C   0  0  0  0  0  0  0  0  0  0  0  0
   60.0620   33.3990   46.9440 C   0  0  0  0  0  0  0  0  0  0  0  0
   61.3580   33.7880   47.4290 N   0  0  0  0  0  0  0  0  0  0  0  0
   61.5280   34.1810   48.8320 C   0  0  0  0  0  0  0  0  0  0  0  0
   63.0130   34.1520   49.2270 C   0  0  0  0  0  0  0  0  0  0  0  0
   63.7270   33.0190   48.5990 N   0  0  0  0  0  0  0  0  0  0  0  0
   63.2650   31.7210   49.1210 C   0  0  0  0  0  0  0  0  0  0  0  0
   63.6990   33.0610   47.1140 C   0  0  0  0  0  0  0  0  0  0  0  0
   62.5110   33.8520   46.5290 C   0  0  0  0  0  0  0  0  0  0  0  0
   59.8570   32.1180   46.4000 C   0  0  0  0  0  0  0  0  0  0  0  0
   60.8870   31.2350   46.3300 F   0  0  0  0  0  0  0  0  0  0  0  0
   59.7643   30.0511   47.6339 H   0  0  0  0  0  0  0  0  0  0  0  0
   59.8041   28.1560   47.4418 H   0  0  0  0  0  0  0  0  0  0  0  0
   59.4733   26.4074   44.8593 H   0  0  0  0  0  0  0  0  0  0  0  0
   57.1917   28.2367   43.2293 H   0  0  0  0  0  0  0  0  0  0  0  0
   56.5137   31.8861   44.0184 H   0  0  0  0  0  0  0  0  0  0  0  0
   57.7683   31.6328   42.7580 H   0  0  0  0  0  0  0  0  0  0  0  0
   56.2794   30.6279   42.7580 H   0  0  0  0  0  0  0  0  0  0  0  0
   56.5230   32.3529   45.6611 H   0  0  0  0  0  0  0  0  0  0  0  0
   56.8747   34.6185   46.6386 H   0  0  0  0  0  0  0  0  0  0  0  0
   59.1266   35.2877   47.4708 H   0  0  0  0  0  0  0  0  0  0  0  0
   61.1368   35.1995   48.9718 H   0  0  0  0  0  0  0  0  0  0  0  0
   60.9785   33.4711   49.4677 H   0  0  0  0  0  0  0  0  0  0  0  0
   63.4852   35.0922   48.9059 H   0  0  0  0  0  0  0  0  0  0  0  0
   63.0739   34.0313   50.3187 H   0  0  0  0  0  0  0  0  0  0  0  0
   63.2732   31.7441   50.2207 H   0  0  0  0  0  0  0  0  0  0  0  0
   62.2423   31.5261   48.7660 H   0  0  0  0  0  0  0  0  0  0  0  0
   63.9346   30.9237   48.7660 H   0  0  0  0  0  0  0  0  0  0  0  0
   64.6312   33.5284   46.7639 H   0  0  0  0  0  0  0  0  0  0  0  0
   63.5892   32.0222   46.7691 H   0  0  0  0  0  0  0  0  0  0  0  0
   62.8071   34.9028   46.3946 H   0  0  0  0  0  0  0  0  0  0  0  0
   62.2315   33.4095   45.5615 H   0  0  0  0  0  0  0  0  0  0  0  0
  1  2  2  0
  2  3  1  0
  3  4  2  3
  4  5  1  0
  5  6  1  0
  6  7  1  0
  7  8  2  0
  7  9  1  0
  9 10  1  0
 10 11  1  0
  3 12  1  0
 12 13  2  0
 13 14  1  0
 13 15  1  0
 15 16  1  0
 16 17  2  0
 17 18  1  0
 18 19  2  0
 19 20  1  0
 20 21  1  0
 21 22  1  0
 22 23  1  0
 23 24  1  0
 24 25  1  0
 24 26  1  0
 26 27  1  0
 20 28  2  0
 28 29  1  0
 15  2  1  0
 28 16  1  0
 10  5  2  0
 27 21  1  0
  1 30  1  0
  1 31  1  0
  4 32  1  0
 12 33  1  0
 14 34  1  0
 14 35  1  0
 14 36  1  0
 17 37  1  0
 18 38  1  0
 19 39  1  0
 22 40  1  0
 22 41  1  0
 23 42  1  0
 23 43  1  0
 25 44  1  0
 25 45  1  0
 25 46  1  0
 26 47  1  0
 26 48  1  0
 27 49  1  0
 27 50  1  0
M  CHG  3   6  -1   9  -1  11  -1
M  END
>  <UniqueID>  (57) 
54

>  <SMILES>  (57) 
C=c1c(=Cc2[n-]c(=O)[n-]c2[O-])cc(C)n1-c1cccc(N2CCN(C)CC2)c1F

>  <Energy>  (57) 
136.03770127273563

>  <Genealogy>  (57) 
C=c1c(=Cc2[n-]c(=O)[n-]c2[O-])cc(C)n1-c1cccc(N2CCN(C)CC2)c1F (protonated)
C=c1c(=Cc2[n-]c(=O)[n-]c2[O-])cc(C)n1-c1cccc(N2CCN(C)CC2)c1F (3D coordinates assigned)
C=c1c(=Cc2[n-]c(=O)[n-]c2[O-])cc(C)n1-c1cccc(N2CCN(C)CC2)c1F (nonaromatic ring conformer: 136.03770127273563 kcal/mol)

>  <smiles>  (57) 
C=c1c(=Cc2[nH]c(=O)[nH]c2O)cc(C)n1-c1cccc(N2CCN(C)CC2)c1F

>  <score_type>  (57) 
oracle

>  <origin>  (57) 
adg

>  <m_score__min__energy>  (57) 
-15.890000000000001

>  <m_primary>  (57) 
energy

$$$$
57:0
     RDKit          3D

 39 42  0  0  0  0  0  0  0  0999 V2000
   57.4260   25.5680   46.7020 C   0  0  0  0  0  0  0  0  0  0  0  0
   57.4490   25.7580   45.3730 C   0  0  0  0  0  0  0  0  0  0  0  0
   56.9950   24.8930   44.3660 C   0  0  0  0  0  0  0  0  0  0  0  0
   56.2620   23.7670   44.4510 C   0  0  0  0  0  0  0  0  0  0  0  0
   54.9150   23.6570   45.0310 C   0  0  0  0  0  0  0  0  0  0  0  0
   54.1650   22.5440   44.9500 N   0  0  0  0  0  0  0  0  0  0  0  0
   52.9960   22.9130   45.5160 C   0  0  0  0  0  0  0  0  0  0  0  0
   52.0250   22.1230   45.6420 O   0  0  0  0  0  0  0  0  0  0  0  0
   52.9450   24.1990   45.9250 N   0  0  0  0  0  0  0  0  0  0  0  0
   54.1610   24.6640   45.5990 C   0  0  0  0  0  0  0  0  0  0  0  0
   54.5520   25.9860   45.7960 O   0  0  0  0  0  0  0  0  0  0  0  0
   57.4060   25.3620   43.1680 N   0  0  0  0  0  0  0  0  0  0  0  0
   58.0550   26.5050   43.4550 C   0  0  0  0  0  0  0  0  0  0  0  0
   58.5620   27.2410   42.5680 O   0  0  0  0  0  0  0  0  0  0  0  0
   58.0900   26.7900   44.7730 N   0  0  0  0  0  0  0  0  0  0  0  0
   58.7040   27.9430   45.3800 C   0  0  0  0  0  0  0  0  0  0  0  0
   60.0730   28.1900   45.2060 C   0  0  0  0  0  0  0  0  0  0  0  0
   60.6680   29.3160   45.7820 C   0  0  0  0  0  0  0  0  0  0  0  0
   59.9030   30.2210   46.5420 C   0  0  0  0  0  0  0  0  0  0  0  0
   60.5250   31.4220   47.1600 C   0  0  0  0  0  0  0  0  0  0  0  0
   59.9270   32.6710   47.3500 C   0  0  0  0  0  0  0  0  0  0  0  0
   60.7680   33.6110   47.9590 C   0  0  0  0  0  0  0  0  0  0  0  0
   62.0310   33.1130   48.2530 C   0  0  0  0  0  0  0  0  0  0  0  0
   63.1280   33.8540   48.8880 C   0  0  0  0  0  0  0  0  0  0  0  0
   64.3240   33.5270   48.6710 O   0  0  0  0  0  0  0  0  0  0  0  0
   62.8520   34.9210   49.7310 O   0  0  0  0  0  0  0  0  0  0  0  0
   62.1020   31.5110   47.7550 S   0  0  0  0  0  0  0  0  0  0  0  0
   58.5270   29.9740   46.7010 C   0  0  0  0  0  0  0  0  0  0  0  0
   57.9340   28.8460   46.1240 C   0  0  0  0  0  0  0  0  0  0  0  0
   57.8214   26.3428   47.3753 H   0  0  0  0  0  0  0  0  0  0  0  0
   57.0118   24.6375   47.1175 H   0  0  0  0  0  0  0  0  0  0  0  0
   56.7111   22.8462   44.0505 H   0  0  0  0  0  0  0  0  0  0  0  0
   53.8780   26.7140   45.9950 H   0  0  0  0  0  0  0  0  0  0  0  0
   60.6829   27.4931   44.6123 H   0  0  0  0  0  0  0  0  0  0  0  0
   61.7438   29.4966   45.6402 H   0  0  0  0  0  0  0  0  0  0  0  0
   58.8928   32.8947   47.0494 H   0  0  0  0  0  0  0  0  0  0  0  0
   60.4586   34.6426   48.1826 H   0  0  0  0  0  0  0  0  0  0  0  0
   57.9117   30.6746   47.2846 H   0  0  0  0  0  0  0  0  0  0  0  0
   56.8566   28.6671   46.2554 H   0  0  0  0  0  0  0  0  0  0  0  0
  1  2  2  0
  2  3  1  0
  3  4  2  3
  4  5  1  0
  5  6  1  0
  6  7  1  0
  7  8  2  0
  7  9  1  0
  9 10  1  0
 10 11  1  0
  3 12  1  0
 12 13  1  0
 13 14  2  0
 13 15  1  0
 15 16  1  0
 16 17  2  0
 17 18  1  0
 18 19  2  0
 19 20  1  0
 20 21  2  0
 21 22  1  0
 22 23  2  0
 23 24  1  0
 24 25  2  0
 24 26  1  0
 23 27  1  0
 19 28  1  0
 28 29  2  0
 15  2  1  0
 29 16  1  0
 10  5  2  0
 27 20  1  0
  1 30  1  0
  1 31  1  0
  4 32  1  0
 11 33  1  0
 17 34  1  0
 18 35  1  0
 21 36  1  0
 22 37  1  0
 28 38  1  0
 29 39  1  0
M  CHG  4   6  -1   9  -1  12  -1  26  -1
M  END
>  <UniqueID>  (58) 
55

>  <SMILES>  (58) 
C=c1c(=Cc2[n-]c(=O)[n-]c2O)[n-]c(=O)n1-c1ccc(-c2ccc(C(=O)[O-])s2)cc1

>  <Energy>  (58) 
151.57669324087746

>  <Genealogy>  (58) 
C=c1c(=Cc2[n-]c(=O)[n-]c2O)[n-]c(=O)n1-c1ccc(-c2ccc(C(=O)[O-])s2)cc1 (protonated)
C=c1c(=Cc2[n-]c(=O)[n-]c2O)[n-]c(=O)n1-c1ccc(-c2ccc(C(=O)[O-])s2)cc1 (3D coordinates assigned)
C=c1c(=Cc2[n-]c(=O)[n-]c2O)[n-]c(=O)n1-c1ccc(-c2ccc(C(=O)[O-])s2)cc1 (optimized conformer: 151.57669324087746 kcal/mol)

>  <smiles>  (58) 
C=c1c(=Cc2[nH]c(=O)[nH]c2O)[nH]c(=O)n1-c1ccc(-c2ccc(C(=O)O)s2)cc1

>  <score_type>  (58) 
oracle

>  <origin>  (58) 
adg

>  <m_score__min__energy>  (58) 
-13.960000000000001

>  <m_primary>  (58) 
energy

$$$$
58:0
     RDKit          3D

 46 48  0  0  0  0  0  0  0  0999 V2000
   56.6780   31.1650   42.4920 O   0  0  0  0  0  0  0  0  0  0  0  0
   56.7750   30.4870   43.5500 C   0  0  0  0  0  0  0  0  0  0  0  0
   57.1310   29.0290   43.4500 C   0  0  0  0  0  0  0  0  0  0  0  0
   57.9160   28.5950   44.6650 C   0  0  0  0  0  0  0  0  0  0  0  0
   59.2500   29.0180   44.7940 C   0  0  0  0  0  0  0  0  0  0  0  0
   60.0010   28.6780   45.9200 C   0  0  0  0  0  0  0  0  0  0  0  0
   59.4300   27.9110   46.9330 C   0  0  0  0  0  0  0  0  0  0  0  0
   58.1040   27.4900   46.8280 C   0  0  0  0  0  0  0  0  0  0  0  0
   57.3260   27.8350   45.7080 C   0  0  0  0  0  0  0  0  0  0  0  0
   55.9640   27.3740   45.6140 N   0  0  0  0  0  0  0  0  0  0  0  0
   55.5320   26.0930   46.0910 C   0  0  0  0  0  0  0  0  0  0  0  0
   56.2690   25.4170   46.8600 O   0  0  0  0  0  0  0  0  0  0  0  0
   54.2500   25.5900   45.6970 N   0  0  0  0  0  0  0  0  0  0  0  0
   53.9690   24.1770   45.4660 C   0  0  0  0  0  0  0  0  0  0  0  0
   55.1800   23.4880   44.8990 C   0  0  0  0  0  0  0  0  0  0  0  0
   55.5180   23.6570   43.5460 C   0  0  0  0  0  0  0  0  0  0  0  0
   56.6090   22.9730   43.0010 C   0  0  0  0  0  0  0  0  0  0  0  0
   57.3730   22.1200   43.8030 C   0  0  0  0  0  0  0  0  0  0  0  0
   57.0500   21.9550   45.1530 C   0  0  0  0  0  0  0  0  0  0  0  0
   55.9560   22.6330   45.7010 C   0  0  0  0  0  0  0  0  0  0  0  0
   56.6330   31.1520   44.8110 N   0  0  0  0  0  0  0  0  0  0  0  0
   57.4440   32.2330   45.2890 C   0  0  0  0  0  0  0  0  0  0  0  0
   57.4330   33.4450   44.5890 C   0  0  0  0  0  0  0  0  0  0  0  0
   58.2150   34.5200   45.0260 C   0  0  0  0  0  0  0  0  0  0  0  0
   58.9900   34.3970   46.1830 C   0  0  0  0  0  0  0  0  0  0  0  0
   59.7450   35.4400   46.6080 F   0  0  0  0  0  0  0  0  0  0  0  0
   58.9770   33.2020   46.9080 C   0  0  0  0  0  0  0  0  0  0  0  0
   58.2010   32.1230   46.4720 C   0  0  0  0  0  0  0  0  0  0  0  0
   58.1590   30.9930   47.2210 F   0  0  0  0  0  0  0  0  0  0  0  0
   56.2081   28.4342   43.3831 H   0  0  0  0  0  0  0  0  0  0  0  0
   57.7470   28.8725   42.5522 H   0  0  0  0  0  0  0  0  0  0  0  0
   59.7075   29.6241   43.9982 H   0  0  0  0  0  0  0  0  0  0  0  0
   61.0442   29.0158   46.0077 H   0  0  0  0  0  0  0  0  0  0  0  0
   60.0252   27.6370   47.8166 H   0  0  0  0  0  0  0  0  0  0  0  0
   57.6618   26.8812   47.6304 H   0  0  0  0  0  0  0  0  0  0  0  0
   55.2500   27.9810   45.1590 H   0  0  0  0  0  0  0  0  0  0  0  0
   53.6943   23.7014   46.4191 H   0  0  0  0  0  0  0  0  0  0  0  0
   53.1401   24.0905   44.7481 H   0  0  0  0  0  0  0  0  0  0  0  0
   54.9218   24.3303   42.9126 H   0  0  0  0  0  0  0  0  0  0  0  0
   56.8665   23.1062   41.9399 H   0  0  0  0  0  0  0  0  0  0  0  0
   58.2281   21.5788   43.3718 H   0  0  0  0  0  0  0  0  0  0  0  0
   57.6572   21.2908   45.7856 H   0  0  0  0  0  0  0  0  0  0  0  0
   55.7022   22.4967   46.7626 H   0  0  0  0  0  0  0  0  0  0  0  0
   56.8067   33.5530   43.6912 H   0  0  0  0  0  0  0  0  0  0  0  0
   58.2199   35.4625   44.4588 H   0  0  0  0  0  0  0  0  0  0  0  0
   59.5788   33.1099   47.8241 H   0  0  0  0  0  0  0  0  0  0  0  0
  1  2  2  0
  2  3  1  0
  3  4  1  0
  4  5  2  0
  5  6  1  0
  6  7  2  0
  7  8  1  0
  8  9  2  0
  9 10  1  0
 10 11  1  0
 11 12  2  0
 11 13  1  0
 13 14  1  0
 14 15  1  0
 15 16  2  0
 16 17  1  0
 17 18  2  0
 18 19  1  0
 19 20  2  0
  2 21  1  0
 21 22  1  0
 22 23  2  0
 23 24  1  0
 24 25  2  0
 25 26  1  0
 25 27  1  0
 27 28  2  0
 28 29  1  0
  9  4  1  0
 20 15  1  0
 28 22  1  0
  3 30  1  0
  3 31  1  0
  5 32  1  0
  6 33  1  0
  7 34  1  0
  8 35  1  0
 10 36  1  0
 14 37  1  0
 14 38  1  0
 16 39  1  0
 17 40  1  0
 18 41  1  0
 19 42  1  0
 20 43  1  0
 23 44  1  0
 24 45  1  0
 27 46  1  0
M  CHG  2  13  -1  21  -1
M  END
>  <UniqueID>  (59) 
56

>  <SMILES>  (59) 
O=C(Cc1ccccc1NC(=O)[N-]Cc1ccccc1)[N-]c1ccc(F)cc1F

>  <Energy>  (59) 
53.03818018525145

>  <Genealogy>  (59) 
O=C(Cc1ccccc1NC(=O)[N-]Cc1ccccc1)[N-]c1ccc(F)cc1F (protonated)
O=C(Cc1ccccc1NC(=O)[N-]Cc1ccccc1)[N-]c1ccc(F)cc1F (3D coordinates assigned)
O=C(Cc1ccccc1NC(=O)[N-]Cc1ccccc1)[N-]c1ccc(F)cc1F (optimized conformer: 53.03818018525145 kcal/mol)

>  <smiles>  (59) 
O=C(Cc1ccccc1NC(=O)NCc1ccccc1)Nc1ccc(F)cc1F

>  <score_type>  (59) 
oracle

>  <origin>  (59) 
adg

>  <m_score__min__energy>  (59) 
-13.43

>  <m_primary>  (59) 
energy

$$$$
59:0
     RDKit          3D

 63 66  0  0  0  0  0  0  0  0999 V2000
   60.9160   34.1440   49.6800 C   0  0  0  0  0  0  0  0  0  0  0  0
   60.2330   33.5790   48.5190 N   0  0  0  0  0  0  0  0  0  0  0  0
   60.0320   34.2160   47.3470 C   0  0  0  0  0  0  0  0  0  0  0  0
   59.2700   33.4200   46.5140 C   0  0  0  0  0  0  0  0  0  0  0  0
   58.7560   33.7790   45.1840 C   0  0  0  0  0  0  0  0  0  0  0  0
   58.3310   34.9490   44.9640 O   0  0  0  0  0  0  0  0  0  0  0  0
   58.7270   32.7930   44.1480 N   0  0  0  0  0  0  0  0  0  0  0  0
   57.5010   32.1750   43.6540 C   0  0  0  0  0  0  0  0  0  0  0  0
   57.3580   30.7920   44.2300 C   0  0  0  0  0  0  0  0  0  0  0  0
   58.4930   30.0260   44.5350 C   0  0  0  0  0  0  0  0  0  0  0  0
   58.3510   28.7190   45.0160 C   0  0  0  0  0  0  0  0  0  0  0  0
   57.0740   28.1630   45.1920 C   0  0  0  0  0  0  0  0  0  0  0  0
   56.8850   26.4970   45.7300 S   0  0  0  0  0  0  0  0  0  0  0  0
   55.2130   26.1800   46.0260 N   0  0  0  0  0  0  0  0  0  0  0  0
   57.3930   25.5500   44.6770 O   0  0  0  0  0  0  0  0  0  0  0  0
   57.6720   26.2820   46.9920 O   0  0  0  0  0  0  0  0  0  0  0  0
   55.9410   28.9210   44.8740 C   0  0  0  0  0  0  0  0  0  0  0  0
   56.0810   30.2290   44.3980 C   0  0  0  0  0  0  0  0  0  0  0  0
   58.9880   32.2600   47.2080 C   0  0  0  0  0  0  0  0  0  0  0  0
   59.6000   32.3870   48.4460 C   0  0  0  0  0  0  0  0  0  0  0  0
   59.4040   31.4380   49.6100 C   0  0  2  0  0  0  0  0  0  0  0  0
   58.9600   30.0430   49.1340 C   0  0  0  0  0  0  0  0  0  0  0  0
   58.8940   29.0510   50.3130 C   0  0  0  0  0  0  0  0  0  0  0  0
   58.3970   29.7040   51.6210 C   0  0  0  0  0  0  0  0  0  0  0  0
   57.6760   30.9520   51.3450 N   0  0  0  0  0  0  0  0  0  0  0  0
   56.4080   31.2080   51.9860 C   0  0  0  0  0  0  0  0  0  0  0  0
   56.1550   32.3610   52.4340 O   0  0  0  0  0  0  0  0  0  0  0  0
   55.3670   30.1270   52.1180 C   0  0  0  0  0  0  0  0  0  0  0  0
   53.9780   30.7050   52.0500 C   0  0  0  0  0  0  0  0  0  0  0  0
   53.2000   30.8090   53.2140 C   0  0  0  0  0  0  0  0  0  0  0  0
   51.9160   31.3570   53.1560 C   0  0  0  0  0  0  0  0  0  0  0  0
   51.4020   31.8130   51.9380 C   0  0  0  0  0  0  0  0  0  0  0  0
   50.1240   32.3560   51.8810 O   0  0  0  0  0  0  0  0  0  0  0  0
   52.1740   31.7220   50.7780 C   0  0  0  0  0  0  0  0  0  0  0  0
   53.4610   31.1760   50.8330 C   0  0  0  0  0  0  0  0  0  0  0  0
   58.3730   32.0180   50.6090 C   0  0  0  0  0  0  0  0  0  0  0  0
   60.4523   33.7604   50.6008 H   0  0  0  0  0  0  0  0  0  0  0  0
   61.9775   33.8565   49.6568 H   0  0  0  0  0  0  0  0  0  0  0  0
   60.8325   35.2406   49.6568 H   0  0  0  0  0  0  0  0  0  0  0  0
   60.4158   35.2153   47.0937 H   0  0  0  0  0  0  0  0  0  0  0  0
   56.6374   32.7865   43.9543 H   0  0  0  0  0  0  0  0  0  0  0  0
   57.5450   32.1082   42.5569 H   0  0  0  0  0  0  0  0  0  0  0  0
   59.4970   30.4534   44.3959 H   0  0  0  0  0  0  0  0  0  0  0  0
   59.2446   28.1246   45.2573 H   0  0  0  0  0  0  0  0  0  0  0  0
   54.7920   27.0670   46.3830 H   0  0  0  0  0  0  0  0  0  0  0  0
   54.9379   28.4870   44.9987 H   0  0  0  0  0  0  0  0  0  0  0  0
   55.1863   30.8205   44.1537 H   0  0  0  0  0  0  0  0  0  0  0  0
   58.3956   31.4050   46.8500 H   0  0  0  0  0  0  0  0  0  0  0  0
   60.3732   31.3264   50.1182 H   0  0  0  0  0  0  0  0  0  0  0  0
   57.9643   30.1204   48.6730 H   0  0  0  0  0  0  0  0  0  0  0  0
   59.6949   29.6716   48.4046 H   0  0  0  0  0  0  0  0  0  0  0  0
   58.2078   28.2337   50.0460 H   0  0  0  0  0  0  0  0  0  0  0  0
   59.9155   28.6854   50.4942 H   0  0  0  0  0  0  0  0  0  0  0  0
   57.7224   29.0056   52.1379 H   0  0  0  0  0  0  0  0  0  0  0  0
   59.2689   29.9350   52.2506 H   0  0  0  0  0  0  0  0  0  0  0  0
   55.4955   29.4020   51.3008 H   0  0  0  0  0  0  0  0  0  0  0  0
   55.4946   29.6345   53.0933 H   0  0  0  0  0  0  0  0  0  0  0  0
   53.6028   30.4577   54.1754 H   0  0  0  0  0  0  0  0  0  0  0  0
   51.3084   31.4299   54.0700 H   0  0  0  0  0  0  0  0  0  0  0  0
   51.7697   32.0801   49.8197 H   0  0  0  0  0  0  0  0  0  0  0  0
   54.0700   31.1156   49.9190 H   0  0  0  0  0  0  0  0  0  0  0  0
   57.6322   32.6119   50.0535 H   0  0  0  0  0  0  0  0  0  0  0  0
   58.9115   32.6437   51.3360 H   0  0  0  0  0  0  0  0  0  0  0  0
  1  2  1  0
  2  3  1  0
  3  4  2  0
  4  5  1  0
  5  6  2  0
  5  7  1  0
  7  8  1  0
  8  9  1  0
  9 10  2  0
 10 11  1  0
 11 12  2  0
 12 13  1  0
 13 14  1  0
 13 15  2  0
 13 16  2  0
 12 17  1  0
 17 18  2  0
  4 19  1  0
 19 20  2  0
 20 21  1  0
 21 22  1  0
 22 23  1  0
 23 24  1  0
 24 25  1  0
 25 26  1  0
 26 27  2  0
 26 28  1  0
 28 29  1  0
 29 30  2  0
 30 31  1  0
 31 32  2  0
 32 33  1  0
 32 34  1  0
 34 35  2  0
 25 36  1  0
 20  2  1  0
 36 21  1  0
 18  9  1  0
 35 29  1  0
  1 37  1  0
  1 38  1  0
  1 39  1  0
  3 40  1  0
  8 41  1  0
  8 42  1  0
 10 43  1  0
 11 44  1  0
 14 45  1  0
 17 46  1  0
 18 47  1  0
 19 48  1  0
 21 49  1  1
 22 50  1  0
 22 51  1  0
 23 52  1  0
 23 53  1  0
 24 54  1  0
 24 55  1  0
 28 56  1  0
 28 57  1  0
 30 58  1  0
 31 59  1  0
 34 60  1  0
 35 61  1  0
 36 62  1  0
 36 63  1  0
M  CHG  3   7  -1  14  -1  33  -1
M  END
>  <UniqueID>  (60) 
57

>  <SMILES>  (60) 
Cn1cc(C(=O)[N-]Cc2ccc(S([NH-])(=O)=O)cc2)cc1[C@@H]1CCCN(C(=O)Cc2ccc([O-])cc2)C1

>  <Energy>  (60) 
93.15551986043904

>  <Genealogy>  (60) 
Cn1cc(C(=O)[N-]Cc2ccc(S([NH-])(=O)=O)cc2)cc1C1CCCN(C(=O)Cc2ccc([O-])cc2)C1 (protonated)
Cn1cc(C(=O)[N-]Cc2ccc(S([NH-])(=O)=O)cc2)cc1[C@@H]1CCCN(C(=O)Cc2ccc([O-])cc2)C1 (chirality)
Cn1cc(C(=O)[N-]Cc2ccc(S([NH-])(=O)=O)cc2)cc1[C@@H]1CCCN(C(=O)Cc2ccc([O-])cc2)C1 (3D coordinates assigned)
Cn1cc(C(=O)[N-]Cc2ccc(S([NH-])(=O)=O)cc2)cc1[C@@H]1CCCN(C(=O)Cc2ccc([O-])cc2)C1 (nonaromatic ring conformer: 93.15551986043904 kcal/mol)

>  <smiles>  (60) 
Cn1cc(C(=O)NCc2ccc(S(N)(=O)=O)cc2)cc1C1CCCN(C(=O)Cc2ccc(O)cc2)C1

>  <score_type>  (60) 
oracle

>  <origin>  (60) 
adg

>  <m_score__min__energy>  (60) 
-17.969999999999999

>  <m_primary>  (60) 
energy

$$$$
60:0
     RDKit          3D

 56 59  0  0  0  0  0  0  0  0999 V2000
   59.7390   27.4810   47.3940 H   0  0  0  0  0  0  0  0  0  0  0  0
   59.1940   26.7230   47.0010 O   0  0  0  0  0  0  0  0  0  0  0  0
   57.9210   26.9560   46.4900 C   0  0  0  0  0  0  0  0  0  0  0  0
   56.8530   26.1920   46.7740 N   0  0  0  0  0  0  0  0  0  0  0  0
   55.8840   26.7460   46.0150 C   0  0  0  0  0  0  0  0  0  0  0  0
   54.7060   26.3030   45.9910 O   0  0  0  0  0  0  0  0  0  0  0  0
   56.2780   27.8040   45.2740 N   0  0  0  0  0  0  0  0  0  0  0  0
   57.5740   27.9490   45.6010 C   0  0  0  0  0  0  0  0  0  0  0  0
   58.4600   28.9430   44.9680 C   0  0  0  0  0  0  0  0  0  0  0  0
   59.1977   28.5848   44.2348 H   0  0  0  0  0  0  0  0  0  0  0  0
   58.4210   30.2630   45.2330 C   0  0  0  0  0  0  0  0  0  0  0  0
   58.9540   30.8960   46.3470 C   0  0  0  0  0  0  0  0  0  0  0  0
   59.5169   30.4223   47.1648 H   0  0  0  0  0  0  0  0  0  0  0  0
   58.6410   32.2350   46.2300 C   0  0  0  0  0  0  0  0  0  0  0  0
   59.0520   33.2750   47.1880 C   0  0  0  0  0  0  0  0  0  0  0  0
   58.1510   33.9290   47.7780 O   0  0  0  0  0  0  0  0  0  0  0  0
   60.4450   33.5340   47.4750 N   0  0  0  0  0  0  0  0  0  0  0  0
   60.8210   34.5230   48.4940 C   0  0  0  0  0  0  0  0  0  0  0  0
   61.0855   35.4722   48.0050 H   0  0  0  0  0  0  0  0  0  0  0  0
   59.9749   34.6886   49.1771 H   0  0  0  0  0  0  0  0  0  0  0  0
   62.0240   34.0020   49.2840 C   0  0  0  0  0  0  0  0  0  0  0  0
   62.2951   34.7469   50.0467 H   0  0  0  0  0  0  0  0  0  0  0  0
   61.7355   33.0437   49.7406 H   0  0  0  0  0  0  0  0  0  0  0  0
   63.2030   33.7540   48.4210 N   0  0  0  0  0  0  0  0  0  0  0  0
   64.1000   32.7550   49.0330 C   0  0  0  0  0  0  0  0  0  0  0  0
   64.6230   32.2021   48.2388 H   0  0  0  0  0  0  0  0  0  0  0  0
   64.8286   33.2732   49.6738 H   0  0  0  0  0  0  0  0  0  0  0  0
   63.3130   31.7930   49.8690 C   0  0  0  0  0  0  0  0  0  0  0  0
   63.5540   31.6940   51.1030 O   0  0  0  0  0  0  0  0  0  0  0  0
   62.3350   30.9550   49.2440 N   0  0  0  0  0  0  0  0  0  0  0  0
   60.9740   30.7770   49.6640 C   0  0  0  0  0  0  0  0  0  0  0  0
   60.3560   31.6660   50.5640 C   0  0  0  0  0  0  0  0  0  0  0  0
   60.9275   32.5073   50.9830 H   0  0  0  0  0  0  0  0  0  0  0  0
   59.0180   31.4830   50.9270 C   0  0  0  0  0  0  0  0  0  0  0  0
   58.5433   32.1738   51.6394 H   0  0  0  0  0  0  0  0  0  0  0  0
   58.2830   30.4250   50.3870 C   0  0  0  0  0  0  0  0  0  0  0  0
   57.2329   30.2786   50.6799 H   0  0  0  0  0  0  0  0  0  0  0  0
   58.8820   29.5530   49.4750 C   0  0  0  0  0  0  0  0  0  0  0  0
   58.3006   28.7240   49.0450 H   0  0  0  0  0  0  0  0  0  0  0  0
   60.2210   29.7320   49.1070 C   0  0  0  0  0  0  0  0  0  0  0  0
   60.8020   28.8610   48.1920 O   0  0  0  0  0  0  0  0  0  0  0  0
   62.8770   33.4260   47.0080 C   0  0  0  0  0  0  0  0  0  0  0  0
   62.8765   34.3588   46.4250 H   0  0  0  0  0  0  0  0  0  0  0  0
   63.6392   32.7153   46.6560 H   0  0  0  0  0  0  0  0  0  0  0  0
   61.5100   32.7450   46.8380 C   0  0  0  0  0  0  0  0  0  0  0  0
   61.2897   32.6435   45.7651 H   0  0  0  0  0  0  0  0  0  0  0  0
   61.5489   31.7564   47.3188 H   0  0  0  0  0  0  0  0  0  0  0  0
   57.9450   32.4610   45.0930 N   0  0  0  0  0  0  0  0  0  0  0  0
   57.4320   33.7540   44.6280 C   0  0  0  0  0  0  0  0  0  0  0  0
   57.1825   34.3829   45.4953 H   0  0  0  0  0  0  0  0  0  0  0  0
   58.1992   34.2557   44.0200 H   0  0  0  0  0  0  0  0  0  0  0  0
   56.5295   33.5932   44.0200 H   0  0  0  0  0  0  0  0  0  0  0  0
   57.7970   31.2610   44.4780 C   0  0  0  0  0  0  0  0  0  0  0  0
   57.1520   31.0930   43.3130 C   0  0  0  0  0  0  0  0  0  0  0  0
   56.6972   31.9571   42.8065 H   0  0  0  0  0  0  0  0  0  0  0  0
   57.0782   30.0912   42.8647 H   0  0  0  0  0  0  0  0  0  0  0  0
  1  2  1  0
  2  3  1  0
  3  4  1  0
  4  5  1  0
  5  6  2  0
  5  7  1  0
  7  8  1  0
  8  9  1  0
  9 10  1  0
  9 11  2  0
 11 12  1  0
 12 13  1  0
 12 14  2  0
 14 15  1  0
 15 16  2  0
 15 17  1  0
 17 18  1  0
 18 19  1  0
 18 20  1  0
 18 21  1  0
 21 22  1  0
 21 23  1  0
 21 24  1  0
 24 25  1  0
 25 26  1  0
 25 27  1  0
 25 28  1  0
 28 29  2  0
 28 30  1  0
 30 31  1  0
 31 32  2  0
 32 33  1  0
 32 34  1  0
 34 35  1  0
 34 36  2  0
 36 37  1  0
 36 38  1  0
 38 39  1  0
 38 40  2  0
 40 41  1  0
 24 42  1  0
 42 43  1  0
 42 44  1  0
 42 45  1  0
 45 46  1  0
 45 47  1  0
 14 48  1  0
 48 49  1  0
 49 50  1  0
 49 51  1  0
 49 52  1  0
 48 53  1  0
 53 54  2  0
 54 55  1  0
 54 56  1  0
  8  3  2  0
 53 11  1  0
 45 17  1  0
 40 31  1  0
M  CHG  4   4  -1   7  -1  30  -1  41  -1
M  END
>  <UniqueID>  (61) 
58

>  <SMILES>  (61) 
C=c1/c(=C/c2[n-]c(=O)[n-]c2O)cc(C(=O)N2CCN(CC(=O)[N-]c3ccccc3[O-])CC2)n1C

>  <Energy>  (61) 
141.18031274083606

>  <Genealogy>  (61) 
C=c1c(=Cc2[n-]c(=O)[n-]c2O)cc(C(=O)N2CCN(CC(=O)[N-]c3ccccc3[O-])CC2)n1C (protonated)
C=c1/c(=C/c2[n-]c(=O)[n-]c2O)cc(C(=O)N2CCN(CC(=O)[N-]c3ccccc3[O-])CC2)n1C (cis-trans isomerization)
C=c1/c(=C/c2[n-]c(=O)[n-]c2O)cc(C(=O)N2CCN(CC(=O)[N-]c3ccccc3[O-])CC2)n1C (3D coordinates assigned)
C=c1/c(=C/c2[n-]c(=O)[n-]c2O)cc(C(=O)N2CCN(CC(=O)[N-]c3ccccc3[O-])CC2)n1C (nonaromatic ring conformer: 141.18031274083606 kcal/mol)

>  <smiles>  (61) 
C=c1c(=Cc2[nH]c(=O)[nH]c2O)cc(C(=O)N2CCN(CC(=O)Nc3ccccc3O)CC2)n1C

>  <score_type>  (61) 
oracle

>  <origin>  (61) 
adg

>  <m_score__min__energy>  (61) 
-17.449999999999999

>  <m_primary>  (61) 
energy

$$$$
61:0
     RDKit          3D

 62 64  0  0  0  0  0  0  0  0999 V2000
   60.1570   30.9940   46.4830 C   0  0  0  0  0  0  0  0  0  0  0  0
   61.1540   30.7530   47.6170 C   0  0  0  0  0  0  0  0  0  0  0  0
   61.9620   31.9440   47.9590 N   0  0  0  0  0  0  0  0  0  0  0  0
   63.1690   32.1430   47.1170 C   0  0  0  0  0  0  0  0  0  0  0  0
   63.4250   33.5930   46.6810 C   0  0  0  0  0  0  0  0  0  0  0  0
   62.1120   32.1770   49.4130 C   0  0  0  0  0  0  0  0  0  0  0  0
   61.0770   33.1850   49.9240 C   0  0  0  0  0  0  0  0  0  0  0  0
   60.3380   33.7680   48.8080 N   0  0  0  0  0  0  0  0  0  0  0  0
   59.0510   33.5160   48.4980 C   0  0  0  0  0  0  0  0  0  0  0  0
   58.7660   34.2000   47.3400 C   0  0  0  0  0  0  0  0  0  0  0  0
   57.5090   34.2090   46.6520 N   0  0  0  0  0  0  0  0  0  0  0  0
   57.4030   34.1510   45.1970 C   0  0  0  0  0  0  0  0  0  0  0  0
   57.4180   32.7230   44.7340 C   0  0  0  0  0  0  0  0  0  0  0  0
   57.7710   32.3870   43.4220 C   0  0  0  0  0  0  0  0  0  0  0  0
   57.7730   31.0480   43.0390 C   0  0  0  0  0  0  0  0  0  0  0  0
   57.4240   30.0690   43.9760 C   0  0  0  0  0  0  0  0  0  0  0  0
   57.3740   28.6160   43.5980 C   0  0  0  0  0  0  0  0  0  0  0  0
   57.9750   27.7850   44.6620 N   0  0  0  0  0  0  0  0  0  0  0  0
   59.4350   27.9650   44.7000 C   0  0  0  0  0  0  0  0  0  0  0  0
   60.0170   27.2880   45.9570 C   0  0  0  0  0  0  0  0  0  0  0  0
   59.2390   26.1070   46.4040 N   0  0  0  0  0  0  0  0  0  0  0  0
   58.2940   26.4380   47.4850 C   0  0  0  0  0  0  0  0  0  0  0  0
   58.5740   25.4200   45.2810 C   0  0  0  0  0  0  0  0  0  0  0  0
   57.6310   26.3540   44.4880 C   0  0  0  0  0  0  0  0  0  0  0  0
   57.0770   30.4500   45.2330 N   0  0  0  0  0  0  0  0  0  0  0  0
   57.0760   31.7320   45.6000 N   0  0  0  0  0  0  0  0  0  0  0  0
   59.9320   34.8530   46.9840 C   0  0  0  0  0  0  0  0  0  0  0  0
   60.8810   34.5650   47.8990 N   0  0  0  0  0  0  0  0  0  0  0  0
   59.1703   31.2325   46.9068 H   0  0  0  0  0  0  0  0  0  0  0  0
   60.5028   31.8344   45.8632 H   0  0  0  0  0  0  0  0  0  0  0  0
   60.0807   30.0884   45.8632 H   0  0  0  0  0  0  0  0  0  0  0  0
   60.5943   30.4439   48.5121 H   0  0  0  0  0  0  0  0  0  0  0  0
   61.8534   29.9773   47.2719 H   0  0  0  0  0  0  0  0  0  0  0  0
   64.0439   31.7990   47.6882 H   0  0  0  0  0  0  0  0  0  0  0  0
   62.9972   31.5704   46.1936 H   0  0  0  0  0  0  0  0  0  0  0  0
   63.5373   34.2292   47.5713 H   0  0  0  0  0  0  0  0  0  0  0  0
   64.3450   33.6381   46.0797 H   0  0  0  0  0  0  0  0  0  0  0  0
   62.5761   33.9504   46.0797 H   0  0  0  0  0  0  0  0  0  0  0  0
   61.9768   31.2236   49.9447 H   0  0  0  0  0  0  0  0  0  0  0  0
   63.1163   32.5860   49.5978 H   0  0  0  0  0  0  0  0  0  0  0  0
   60.3731   32.6722   50.5960 H   0  0  0  0  0  0  0  0  0  0  0  0
   61.5990   33.9886   50.4641 H   0  0  0  0  0  0  0  0  0  0  0  0
   58.3565   32.8802   49.0667 H   0  0  0  0  0  0  0  0  0  0  0  0
   56.6300   34.2360   47.2160 H   0  0  0  0  0  0  0  0  0  0  0  0
   56.4620   34.6256   44.8818 H   0  0  0  0  0  0  0  0  0  0  0  0
   58.2578   34.6820   44.7528 H   0  0  0  0  0  0  0  0  0  0  0  0
   58.0439   33.1719   42.7013 H   0  0  0  0  0  0  0  0  0  0  0  0
   58.0457   30.7633   42.0121 H   0  0  0  0  0  0  0  0  0  0  0  0
   56.3260   28.3155   43.4521 H   0  0  0  0  0  0  0  0  0  0  0  0
   57.9426   28.4700   42.6677 H   0  0  0  0  0  0  0  0  0  0  0  0
   59.8814   27.5120   43.8025 H   0  0  0  0  0  0  0  0  0  0  0  0
   59.6657   29.0401   44.7292 H   0  0  0  0  0  0  0  0  0  0  0  0
   61.0446   26.9647   45.7347 H   0  0  0  0  0  0  0  0  0  0  0  0
   59.9804   28.0276   46.7704 H   0  0  0  0  0  0  0  0  0  0  0  0
   58.7769   26.2689   48.4587 H   0  0  0  0  0  0  0  0  0  0  0  0
   57.9967   27.4938   47.4016 H   0  0  0  0  0  0  0  0  0  0  0  0
   57.4029   25.7985   47.4016 H   0  0  0  0  0  0  0  0  0  0  0  0
   59.3449   25.0346   44.5975 H   0  0  0  0  0  0  0  0  0  0  0  0
   57.9627   24.6081   45.7018 H   0  0  0  0  0  0  0  0  0  0  0  0
   57.7003   26.1015   43.4196 H   0  0  0  0  0  0  0  0  0  0  0  0
   56.6111   26.2053   44.8722 H   0  0  0  0  0  0  0  0  0  0  0  0
   60.0636   35.4986   46.1031 H   0  0  0  0  0  0  0  0  0  0  0  0
  1  2  1  0
  2  3  1  0
  3  4  1  0
  4  5  1  0
  3  6  1  0
  6  7  1  0
  7  8  1  0
  8  9  1  0
  9 10  2  0
 10 11  1  0
 11 12  1  0
 12 13  1  0
 13 14  2  0
 14 15  1  0
 15 16  2  0
 16 17  1  0
 17 18  1  0
 18 19  1  0
 19 20  1  0
 20 21  1  0
 21 22  1  0
 21 23  1  0
 23 24  1  0
 16 25  1  0
 25 26  2  0
 10 27  1  0
 27 28  2  0
 28  8  1  0
 26 13  1  0
 24 18  1  0
  1 29  1  0
  1 30  1  0
  1 31  1  0
  2 32  1  0
  2 33  1  0
  4 34  1  0
  4 35  1  0
  5 36  1  0
  5 37  1  0
  5 38  1  0
  6 39  1  0
  6 40  1  0
  7 41  1  0
  7 42  1  0
  9 43  1  0
 11 44  1  0
 12 45  1  0
 12 46  1  0
 14 47  1  0
 15 48  1  0
 17 49  1  0
 17 50  1  0
 19 51  1  0
 19 52  1  0
 20 53  1  0
 20 54  1  0
 22 55  1  0
 22 56  1  0
 22 57  1  0
 23 58  1  0
 23 59  1  0
 24 60  1  0
 24 61  1  0
 27 62  1  0
M  END
>  <UniqueID>  (62) 
59

>  <SMILES>  (62) 
CCN(CC)CCn1cc(NCc2ccc(CN3CCN(C)CC3)nn2)cn1

>  <Energy>  (62) 
104.32847927262952

>  <Genealogy>  (62) 
CCN(CC)CCn1cc(NCc2ccc(CN3CCN(C)CC3)nn2)cn1 (3D coordinates assigned)
CCN(CC)CCn1cc(NCc2ccc(CN3CCN(C)CC3)nn2)cn1 (nonaromatic ring conformer: 104.32847927262952 kcal/mol)

>  <smiles>  (62) 
CCN(CC)CCn1cc(NCc2ccc(CN3CCN(C)CC3)nn2)cn1

>  <score_type>  (62) 
oracle

>  <origin>  (62) 
adg

>  <m_score__min__energy>  (62) 
-7.7199999999999998

>  <m_primary>  (62) 
energy

$$$$
62:0
     RDKit          3D

 61 65  0  0  0  0  0  0  0  0999 V2000
   54.7680   27.4580   46.4250 H   0  0  0  0  0  0  0  0  0  0  0  0
   55.2010   26.7400   45.8590 O   0  0  0  0  0  0  0  0  0  0  0  0
   56.1180   25.8500   46.4120 C   0  0  0  0  0  0  0  0  0  0  0  0
   55.7770   24.8090   47.1860 N   0  0  0  0  0  0  0  0  0  0  0  0
   56.9670   24.2140   47.4240 C   0  0  0  0  0  0  0  0  0  0  0  0
   57.0750   23.1670   48.1130 O   0  0  0  0  0  0  0  0  0  0  0  0
   58.0280   24.8160   46.8470 N   0  0  0  0  0  0  0  0  0  0  0  0
   57.4830   25.8790   46.2280 C   0  0  0  0  0  0  0  0  0  0  0  0
   58.2380   26.7710   45.3340 C   0  0  0  0  0  0  0  0  0  0  0  0
   59.0646   26.3255   44.7611 H   0  0  0  0  0  0  0  0  0  0  0  0
   58.0050   28.0860   45.1560 C   0  0  0  0  0  0  0  0  0  0  0  0
   56.8180   28.5730   44.6350 C   0  0  0  0  0  0  0  0  0  0  0  0
   55.9774   27.9768   44.2503 H   0  0  0  0  0  0  0  0  0  0  0  0
   56.8920   29.9480   44.6910 C   0  0  0  0  0  0  0  0  0  0  0  0
   55.7950   30.8720   44.2540 C   0  0  0  0  0  0  0  0  0  0  0  0
   55.2956   31.2927   45.1392 H   0  0  0  0  0  0  0  0  0  0  0  0
   56.2209   31.6875   43.6511 H   0  0  0  0  0  0  0  0  0  0  0  0
   55.0637   30.3137   43.6511 H   0  0  0  0  0  0  0  0  0  0  0  0
   58.0940   30.3360   45.1750 N   0  0  0  0  0  0  0  0  0  0  0  0
   58.5320   31.6970   45.3490 C   0  0  0  0  0  0  0  0  0  0  0  0
   58.3260   32.6400   44.3320 C   0  0  0  0  0  0  0  0  0  0  0  0
   57.8374   32.3358   43.3946 H   0  0  0  0  0  0  0  0  0  0  0  0
   58.7380   33.9640   44.5030 C   0  0  0  0  0  0  0  0  0  0  0  0
   58.5656   34.7003   43.7041 H   0  0  0  0  0  0  0  0  0  0  0  0
   59.3680   34.3540   45.6860 C   0  0  0  0  0  0  0  0  0  0  0  0
   59.6811   35.3999   45.8206 H   0  0  0  0  0  0  0  0  0  0  0  0
   59.6040   33.4160   46.7060 C   0  0  0  0  0  0  0  0  0  0  0  0
   60.2780   33.8190   47.9580 C   0  0  0  0  0  0  0  0  0  0  0  0
   59.6840   34.5720   48.7760 O   0  0  0  0  0  0  0  0  0  0  0  0
   61.5950   33.3430   48.2680 N   0  0  0  0  0  0  0  0  0  0  0  0
   62.7270   33.5090   47.4360 C   0  0  0  0  0  0  0  0  0  0  0  0
   62.6650   33.8200   46.2180 O   0  0  0  0  0  0  0  0  0  0  0  0
   63.9090   33.3450   48.1160 O   0  0  0  0  0  0  0  0  0  0  0  0
   63.6390   33.1120   49.4940 C   0  0  0  0  0  0  0  0  0  0  0  0
   64.0895   32.1622   49.8180 H   0  0  0  0  0  0  0  0  0  0  0  0
   64.0621   33.9031   50.1305 H   0  0  0  0  0  0  0  0  0  0  0  0
   62.0890   33.0460   49.6130 C   0  0  2  0  0  0  0  0  0  0  0  0
   61.7124   33.7519   50.3679 H   0  0  0  0  0  0  0  0  0  0  0  0
   61.6190   31.6460   50.0550 C   0  0  0  0  0  0  0  0  0  0  0  0
   62.4633   30.9443   49.9861 H   0  0  0  0  0  0  0  0  0  0  0  0
   61.2548   31.7085   51.0911 H   0  0  0  0  0  0  0  0  0  0  0  0
   60.5140   31.1620   49.1930 N   0  0  0  0  0  0  0  0  0  0  0  0
   60.7080   29.7560   48.7830 C   0  0  0  0  0  0  0  0  0  0  0  0
   59.9864   29.5128   47.9892 H   0  0  0  0  0  0  0  0  0  0  0  0
   61.7412   29.6420   48.4230 H   0  0  0  0  0  0  0  0  0  0  0  0
   60.4980   28.7830   49.9680 C   0  0  0  0  0  0  0  0  0  0  0  0
   59.9495   27.9019   49.6035 H   0  0  0  0  0  0  0  0  0  0  0  0
   61.4937   28.5201   50.3546 H   0  0  0  0  0  0  0  0  0  0  0  0
   59.7680   29.3560   51.0410 O   0  0  0  0  0  0  0  0  0  0  0  0
   58.6770   30.1030   50.5460 C   0  0  0  0  0  0  0  0  0  0  0  0
   58.0970   29.4798   49.8494 H   0  0  0  0  0  0  0  0  0  0  0  0
   58.0442   30.4140   51.3903 H   0  0  0  0  0  0  0  0  0  0  0  0
   59.1790   31.3590   49.8070 C   0  0  0  0  0  0  0  0  0  0  0  0
   58.4601   31.6124   49.0139 H   0  0  0  0  0  0  0  0  0  0  0  0
   59.2679   32.1683   50.5467 H   0  0  0  0  0  0  0  0  0  0  0  0
   59.1690   32.0910   46.5330 C   0  0  0  0  0  0  0  0  0  0  0  0
   59.3302   31.3558   47.3352 H   0  0  0  0  0  0  0  0  0  0  0  0
   58.8010   29.2060   45.4350 C   0  0  0  0  0  0  0  0  0  0  0  0
   60.1070   29.2090   45.7460 C   0  0  0  0  0  0  0  0  0  0  0  0
   60.6228   30.1600   45.9448 H   0  0  0  0  0  0  0  0  0  0  0  0
   60.6612   28.2605   45.8020 H   0  0  0  0  0  0  0  0  0  0  0  0
  1  2  1  0
  2  3  1  0
  3  4  1  0
  4  5  1  0
  5  6  2  0
  5  7  1  0
  7  8  1  0
  8  9  1  0
  9 10  1  0
  9 11  2  0
 11 12  1  0
 12 13  1  0
 12 14  2  0
 14 15  1  0
 15 16  1  0
 15 17  1  0
 15 18  1  0
 14 19  1  0
 19 20  1  0
 20 21  2  0
 21 22  1  0
 21 23  1  0
 23 24  1  0
 23 25  2  0
 25 26  1  0
 25 27  1  0
 27 28  1  0
 28 29  2  0
 28 30  1  0
 30 31  1  0
 31 32  2  0
 31 33  1  0
 33 34  1  0
 34 35  1  0
 34 36  1  0
 34 37  1  0
 37 38  1  1
 37 39  1  0
 39 40  1  0
 39 41  1  0
 39 42  1  0
 42 43  1  0
 43 44  1  0
 43 45  1  0
 43 46  1  0
 46 47  1  0
 46 48  1  0
 46 49  1  0
 49 50  1  0
 50 51  1  0
 50 52  1  0
 50 53  1  0
 53 54  1  0
 53 55  1  0
 27 56  2  0
 56 57  1  0
 19 58  1  0
 58 59  2  0
 59 60  1  0
 59 61  1  0
  8  3  2  0
 58 11  1  0
 56 20  1  0
 37 30  1  0
 53 42  1  0
M  CHG  2   4  -1   7  -1
M  END
>  <UniqueID>  (63) 
60

>  <SMILES>  (63) 
C=c1/c(=C\c2[n-]c(=O)[n-]c2O)cc(C)n1-c1cccc(C(=O)N2C(=O)OC[C@@H]2CN2CCOCC2)c1

>  <Energy>  (63) 
169.3357372390994

>  <Genealogy>  (63) 
C=c1c(=Cc2[n-]c(=O)[n-]c2O)cc(C)n1-c1cccc(C(=O)N2C(=O)OCC2CN2CCOCC2)c1 (protonated)
C=c1c(=Cc2[n-]c(=O)[n-]c2O)cc(C)n1-c1cccc(C(=O)N2C(=O)OC[C@@H]2CN2CCOCC2)c1 (chirality)
C=c1/c(=C\c2[n-]c(=O)[n-]c2O)cc(C)n1-c1cccc(C(=O)N2C(=O)OC[C@@H]2CN2CCOCC2)c1 (cis-trans isomerization)
C=c1/c(=C\c2[n-]c(=O)[n-]c2O)cc(C)n1-c1cccc(C(=O)N2C(=O)OC[C@@H]2CN2CCOCC2)c1 (3D coordinates assigned)
C=c1/c(=C\c2[n-]c(=O)[n-]c2O)cc(C)n1-c1cccc(C(=O)N2C(=O)OC[C@@H]2CN2CCOCC2)c1 (nonaromatic ring conformer: 169.3357372390994 kcal/mol)

>  <smiles>  (63) 
C=c1c(=Cc2[nH]c(=O)[nH]c2O)cc(C)n1-c1cccc(C(=O)N2C(=O)OCC2CN2CCOCC2)c1

>  <score_type>  (63) 
oracle

>  <origin>  (63) 
adg

>  <m_score__min__energy>  (63) 
-14.619999999999999

>  <m_primary>  (63) 
energy

$$$$
63:0
     RDKit          3D

 51 54  0  0  1  0  0  0  0  0999 V2000
   57.1060   24.0280   45.4470 C   0  0  0  0  0  0  0  0  0  0  0  0
   56.5440   25.3760   45.7140 C   0  0  0  0  0  0  0  0  0  0  0  0
   55.3460   25.4790   46.0650 O   0  0  0  0  0  0  0  0  0  0  0  0
   57.3230   26.5870   45.5870 C   0  0  0  0  0  0  0  0  0  0  0  0
   58.6930   26.4670   45.4310 C   0  0  0  0  0  0  0  0  0  0  0  0
   59.5080   27.5780   45.3020 C   0  0  0  0  0  0  0  0  0  0  0  0
   58.9060   28.8170   45.3340 C   0  0  0  0  0  0  0  0  0  0  0  0
   57.5340   28.9830   45.4890 C   0  0  0  0  0  0  0  0  0  0  0  0
   57.0170   30.3060   45.5060 N   0  0  0  0  0  0  0  0  0  0  0  0
   57.4940   31.2760   44.8030 C   0  0  0  0  0  0  0  0  0  0  0  0
   57.3830   31.2440   43.4290 C   0  0  0  0  0  0  0  0  0  0  0  0
   57.8940   32.2900   42.6950 C   0  0  0  0  0  0  0  0  0  0  0  0
   57.8220   32.3460   41.2070 C   0  0  0  0  0  0  0  0  0  0  0  0
   58.4820   33.3020   43.3580 N   0  0  0  0  0  0  0  0  0  0  0  0
   58.5770   33.3070   44.7080 C   0  0  0  0  0  0  0  0  0  0  0  0
   59.1140   34.1970   45.5730 N   0  0  0  0  0  0  0  0  0  0  0  0
   58.9430   33.7160   46.8380 C   0  0  0  0  0  0  0  0  0  0  0  0
   59.5100   34.5810   48.2950 S   0  0  0  0  0  0  0  0  0  0  0  0
   59.5020   33.5120   49.7570 C   0  0  0  0  0  0  0  0  0  0  0  0
   59.5710   32.1030   49.2690 C   0  0  0  0  0  0  0  0  0  0  0  0
   58.5350   31.3980   49.4980 O   0  0  0  0  0  0  0  0  0  0  0  0
   60.7070   31.5820   48.5970 N   0  0  0  0  0  0  0  0  0  0  0  0
   61.9600   32.2060   48.2470 C   0  0  0  0  0  0  0  0  0  0  0  0
   62.5650   31.4050   47.1370 C   0  0  0  0  0  0  0  0  0  0  0  0
   61.4390   30.4520   46.7560 C   0  0  0  0  0  0  0  0  0  0  0  0
   60.7960   30.2190   48.1120 C   0  0  0  0  0  0  0  0  0  0  0  0
   58.3040   32.5380   46.7400 N   0  0  0  0  0  0  0  0  0  0  0  0
   58.0840   32.2900   45.4650 N   0  0  0  0  0  0  0  0  0  0  0  0
   56.7440   27.8580   45.6150 C   0  0  0  0  0  0  0  0  0  0  0  0
   57.3166   23.5229   46.4012 H   0  0  0  0  0  0  0  0  0  0  0  0
   56.3799   23.4355   44.8710 H   0  0  0  0  0  0  0  0  0  0  0  0
   58.0379   24.1268   44.8710 H   0  0  0  0  0  0  0  0  0  0  0  0
   59.1449   25.4644   45.4090 H   0  0  0  0  0  0  0  0  0  0  0  0
   60.5962   27.4757   45.1785 H   0  0  0  0  0  0  0  0  0  0  0  0
   59.5370   29.7123   45.2327 H   0  0  0  0  0  0  0  0  0  0  0  0
   56.8938   30.3959   42.9275 H   0  0  0  0  0  0  0  0  0  0  0  0
   56.9872   32.9953   40.9045 H   0  0  0  0  0  0  0  0  0  0  0  0
   58.7642   32.7510   40.8093 H   0  0  0  0  0  0  0  0  0  0  0  0
   57.6614   31.3331   40.8093 H   0  0  0  0  0  0  0  0  0  0  0  0
   60.3720   33.7346   50.3923 H   0  0  0  0  0  0  0  0  0  0  0  0
   58.5947   33.6752   50.3571 H   0  0  0  0  0  0  0  0  0  0  0  0
   61.7849   33.2392   47.9127 H   0  0  0  0  0  0  0  0  0  0  0  0
   62.6342   32.2367   49.1156 H   0  0  0  0  0  0  0  0  0  0  0  0
   62.8429   32.0489   46.2896 H   0  0  0  0  0  0  0  0  0  0  0  0
   63.4924   30.8895   47.4273 H   0  0  0  0  0  0  0  0  0  0  0  0
   60.7364   30.9170   46.0488 H   0  0  0  0  0  0  0  0  0  0  0  0
   61.7697   29.5362   46.2442 H   0  0  0  0  0  0  0  0  0  0  0  0
   59.8029   29.7557   48.0168 H   0  0  0  0  0  0  0  0  0  0  0  0
   61.3482   29.5323   48.7704 H   0  0  0  0  0  0  0  0  0  0  0  0
   58.0490   31.9530   47.5690 H   0  0  0  0  0  0  0  0  0  0  0  0
   55.6559   27.9626   45.7378 H   0  0  0  0  0  0  0  0  0  0  0  0
  1  2  1  0
  2  3  2  0
  2  4  1  0
  4  5  2  0
  5  6  1  0
  6  7  2  0
  7  8  1  0
  8  9  1  0
  9 10  2  0
 10 11  1  0
 11 12  2  0
 12 13  1  0
 12 14  1  0
 14 15  2  0
 15 16  1  0
 16 17  2  0
 17 18  1  0
 18 19  1  0
 19 20  1  0
 20 21  2  0
 20 22  1  0
 22 23  1  0
 23 24  1  0
 24 25  1  0
 25 26  1  0
 17 27  1  0
 27 28  1  0
  8 29  2  0
 29  4  1  0
 28 10  1  0
 28 15  1  0
 26 22  1  0
  1 30  1  0
  1 31  1  0
  1 32  1  0
  5 33  1  0
  6 34  1  0
  7 35  1  0
 11 36  1  0
 13 37  1  0
 13 38  1  0
 13 39  1  0
 19 40  1  0
 19 41  1  0
 23 42  1  0
 23 43  1  0
 24 44  1  0
 24 45  1  0
 25 46  1  0
 25 47  1  0
 26 48  1  0
 26 49  1  0
 27 50  1  0
 29 51  1  0
M  END
>  <smiles>  (64) 
CC(=O)c1cccc(N=c2cc(C)nc3nc(SCC(=O)N4CCCC4)[nH]n23)c1

>  <score_type>  (64) 
oracle

>  <origin>  (64) 
adg

>  <m_score__min__energy>  (64) 
-9.6199999999999992

>  <m_primary>  (64) 
energy

$$$$
64:0
     RDKit          3D

 64 67  0  0  0  0  0  0  0  0999 V2000
   52.6530   23.7140   44.6580 C   0  0  0  0  0  0  0  0  0  0  0  0
   53.9490   23.6500   45.3200 N   0  0  0  0  0  0  0  0  0  0  0  0
   54.6030   24.8210   45.8200 C   0  0  0  0  0  0  0  0  0  0  0  0
   54.0890   25.9550   45.6290 O   0  0  0  0  0  0  0  0  0  0  0  0
   55.8820   24.6830   46.4600 N   0  0  0  0  0  0  0  0  0  0  0  0
   56.9670   25.3940   46.3100 C   0  0  0  0  0  0  0  0  0  0  0  0
   57.0730   26.4580   45.3900 C   0  0  0  0  0  0  0  0  0  0  0  0
   58.2610   27.1880   45.3060 C   0  0  0  0  0  0  0  0  0  0  0  0
   58.3500   28.2250   44.3700 O   0  0  0  0  0  0  0  0  0  0  0  0
   58.1050   29.5800   44.6310 C   0  0  0  0  0  0  0  0  0  0  0  0
   58.6680   30.1510   45.7770 C   0  0  0  0  0  0  0  0  0  0  0  0
   58.4920   31.5090   46.0550 C   0  0  0  0  0  0  0  0  0  0  0  0
   57.7360   32.3160   45.1880 C   0  0  0  0  0  0  0  0  0  0  0  0
   57.5840   33.7280   45.3990 N   0  0  0  0  0  0  0  0  0  0  0  0
   58.6350   34.6920   45.5420 C   0  0  0  0  0  0  0  0  0  0  0  0
   59.1860   35.1900   44.5260 O   0  0  0  0  0  0  0  0  0  0  0  0
   59.1450   35.0210   46.8370 N   0  0  0  0  0  0  0  0  0  0  0  0
   59.9180   34.1630   47.6910 C   0  0  0  0  0  0  0  0  0  0  0  0
   59.2910   33.5770   48.7960 C   0  0  0  0  0  0  0  0  0  0  0  0
   60.0000   32.7220   49.6550 C   0  0  0  0  0  0  0  0  0  0  0  0
   59.3480   32.1250   50.7940 N   0  0  0  0  0  0  0  0  0  0  0  0
   59.4640   30.6880   51.0710 C   0  0  0  0  0  0  0  0  0  0  0  0
   58.0690   30.0580   51.2670 C   0  0  0  0  0  0  0  0  0  0  0  0
   57.0350   31.0490   51.6440 N   0  0  0  0  0  0  0  0  0  0  0  0
   55.8970   30.3820   52.2890 C   0  0  0  0  0  0  0  0  0  0  0  0
   57.5820   32.1020   52.5200 C   0  0  0  0  0  0  0  0  0  0  0  0
   58.5700   32.9580   51.7210 C   0  0  0  0  0  0  0  0  0  0  0  0
   61.3460   32.4320   49.3740 C   0  0  0  0  0  0  0  0  0  0  0  0
   61.9780   32.9750   48.2430 C   0  0  0  0  0  0  0  0  0  0  0  0
   63.4380   32.6980   47.9750 C   0  0  0  0  0  0  0  0  0  0  0  0
   64.1270   32.5010   49.1590 F   0  0  0  0  0  0  0  0  0  0  0  0
   63.9880   33.7790   47.3080 F   0  0  0  0  0  0  0  0  0  0  0  0
   63.5880   31.5640   47.1940 F   0  0  0  0  0  0  0  0  0  0  0  0
   61.2580   33.8480   47.4110 C   0  0  0  0  0  0  0  0  0  0  0  0
   57.1910   31.7490   44.0310 C   0  0  0  0  0  0  0  0  0  0  0  0
   57.3690   30.3920   43.7490 C   0  0  0  0  0  0  0  0  0  0  0  0
   56.8820   29.8920   42.5860 F   0  0  0  0  0  0  0  0  0  0  0  0
   59.3430   26.8430   46.1270 C   0  0  0  0  0  0  0  0  0  0  0  0
   59.2010   25.7970   47.0360 C   0  0  0  0  0  0  0  0  0  0  0  0
   58.0310   25.1100   47.1080 N   0  0  0  0  0  0  0  0  0  0  0  0
   51.8560   23.7534   45.4152 H   0  0  0  0  0  0  0  0  0  0  0  0
   52.6064   24.6155   44.0295 H   0  0  0  0  0  0  0  0  0  0  0  0
   52.5178   22.8214   44.0295 H   0  0  0  0  0  0  0  0  0  0  0  0
   54.4140   22.7220   45.4380 H   0  0  0  0  0  0  0  0  0  0  0  0
   56.2224   26.7122   44.7404 H   0  0  0  0  0  0  0  0  0  0  0  0
   59.2547   29.5253   46.4657 H   0  0  0  0  0  0  0  0  0  0  0  0
   58.9467   31.9477   46.9554 H   0  0  0  0  0  0  0  0  0  0  0  0
   58.2299   33.7886   48.9942 H   0  0  0  0  0  0  0  0  0  0  0  0
   59.9671   30.1963   50.2253 H   0  0  0  0  0  0  0  0  0  0  0  0
   60.0477   30.5507   51.9932 H   0  0  0  0  0  0  0  0  0  0  0  0
   57.7663   29.5763   50.3255 H   0  0  0  0  0  0  0  0  0  0  0  0
   58.1475   29.3341   52.0915 H   0  0  0  0  0  0  0  0  0  0  0  0
   56.0059   30.4458   53.3817 H   0  0  0  0  0  0  0  0  0  0  0  0
   54.9621   30.8751   51.9842 H   0  0  0  0  0  0  0  0  0  0  0  0
   55.8705   29.3254   51.9842 H   0  0  0  0  0  0  0  0  0  0  0  0
   56.7623   32.7351   52.8905 H   0  0  0  0  0  0  0  0  0  0  0  0
   58.0990   31.6408   53.3744 H   0  0  0  0  0  0  0  0  0  0  0  0
   58.0120   33.7124   51.1469 H   0  0  0  0  0  0  0  0  0  0  0  0
   59.2619   33.4469   52.4226 H   0  0  0  0  0  0  0  0  0  0  0  0
   61.9116   31.7717   50.0479 H   0  0  0  0  0  0  0  0  0  0  0  0
   61.7485   34.2896   46.5310 H   0  0  0  0  0  0  0  0  0  0  0  0
   56.6161   32.3783   43.3357 H   0  0  0  0  0  0  0  0  0  0  0  0
   60.2935   27.3918   46.0545 H   0  0  0  0  0  0  0  0  0  0  0  0
   60.0378   25.5267   47.6968 H   0  0  0  0  0  0  0  0  0  0  0  0
  1  2  1  0
  2  3  1  0
  3  4  2  0
  3  5  1  0
  5  6  2  3
  6  7  1  0
  7  8  2  0
  8  9  1  0
  9 10  1  0
 10 11  2  0
 11 12  1  0
 12 13  2  0
 13 14  1  0
 14 15  1  0
 15 16  2  0
 15 17  1  0
 17 18  1  0
 18 19  2  0
 19 20  1  0
 20 21  1  0
 21 22  1  0
 22 23  1  0
 23 24  1  0
 24 25  1  0
 24 26  1  0
 26 27  1  0
 20 28  2  0
 28 29  1  0
 29 30  1  0
 30 31  1  0
 30 32  1  0
 30 33  1  0
 29 34  2  0
 13 35  1  0
 35 36  2  0
 36 37  1  0
  8 38  1  0
 38 39  2  0
 39 40  1  0
 40  6  1  0
 36 10  1  0
 34 18  1  0
 27 21  1  0
  1 41  1  0
  1 42  1  0
  1 43  1  0
  2 44  1  0
  7 45  1  0
 11 46  1  0
 12 47  1  0
 19 48  1  0
 22 49  1  0
 22 50  1  0
 23 51  1  0
 23 52  1  0
 25 53  1  0
 25 54  1  0
 25 55  1  0
 26 56  1  0
 26 57  1  0
 27 58  1  0
 27 59  1  0
 28 60  1  0
 34 61  1  0
 35 62  1  0
 38 63  1  0
 39 64  1  0
M  CHG  3  14  -1  17  -1  40  -1
M  END
>  <UniqueID>  (65) 
61

>  <SMILES>  (65) 
CNC(=O)N=c1cc(Oc2ccc([N-]C(=O)[N-]c3cc(N4CCN(C)CC4)cc(C(F)(F)F)c3)cc2F)cc[n-]1

>  <Energy>  (65) 
96.0598659915692

>  <Genealogy>  (65) 
CNC(=O)N=c1cc(Oc2ccc([N-]C(=O)[N-]c3cc(N4CCN(C)CC4)cc(C(F)(F)F)c3)cc2F)cc[n-]1 (protonated)
CNC(=O)N=c1cc(Oc2ccc([N-]C(=O)[N-]c3cc(N4CCN(C)CC4)cc(C(F)(F)F)c3)cc2F)cc[n-]1 (3D coordinates assigned)
CNC(=O)N=c1cc(Oc2ccc([N-]C(=O)[N-]c3cc(N4CCN(C)CC4)cc(C(F)(F)F)c3)cc2F)cc[n-]1 (nonaromatic ring conformer: 96.0598659915692 kcal/mol)

>  <smiles>  (65) 
CNC(=O)N=c1cc(Oc2ccc(NC(=O)Nc3cc(N4CCN(C)CC4)cc(C(F)(F)F)c3)cc2F)cc[nH]1

>  <score_type>  (65) 
oracle

>  <origin>  (65) 
adg

>  <m_score__min__energy>  (65) 
-12.369999999999999

>  <m_primary>  (65) 
energy

$$$$
65:0
     RDKit          3D

 40 42  0  0  0  0  0  0  0  0999 V2000
   56.7405   35.0270   45.7194 H   0  0  0  0  0  0  0  0  0  0  0  0
   57.3260   34.1000   45.6310 C   0  0  0  0  0  0  0  0  0  0  0  0
   56.8240   33.1240   44.9240 N   0  0  0  0  0  0  0  0  0  0  0  0
   57.4960   31.9700   44.3870 C   0  0  0  0  0  0  0  0  0  0  0  0
   58.2230   32.1180   43.3700 O   0  0  0  0  0  0  0  0  0  0  0  0
   57.3710   30.6150   44.9710 C   0  0  0  0  0  0  0  0  0  0  0  0
   56.2210   29.9300   44.7280 N   0  0  0  0  0  0  0  0  0  0  0  0
   56.0500   28.6650   45.1110 N   0  0  0  0  0  0  0  0  0  0  0  0
   55.1480   28.1900   44.8840 H   0  0  0  0  0  0  0  0  0  0  0  0
   57.0290   27.9800   45.7570 C   0  0  0  0  0  0  0  0  0  0  0  0
   56.8400   26.7720   46.0690 O   0  0  0  0  0  0  0  0  0  0  0  0
   58.2330   28.6290   46.0770 C   0  0  0  0  0  0  0  0  0  0  0  0
   59.2660   27.9600   46.7600 C   0  0  0  0  0  0  0  0  0  0  0  0
   59.1465   26.9004   47.0302 H   0  0  0  0  0  0  0  0  0  0  0  0
   60.4400   28.6330   47.0960 C   0  0  0  0  0  0  0  0  0  0  0  0
   61.2473   28.1003   47.6199 H   0  0  0  0  0  0  0  0  0  0  0  0
   60.5930   29.9810   46.7690 C   0  0  0  0  0  0  0  0  0  0  0  0
   61.5147   30.5119   47.0494 H   0  0  0  0  0  0  0  0  0  0  0  0
   59.5800   30.6580   46.0870 C   0  0  0  0  0  0  0  0  0  0  0  0
   59.7025   31.7242   45.8459 H   0  0  0  0  0  0  0  0  0  0  0  0
   58.4010   29.9850   45.7050 C   0  0  0  0  0  0  0  0  0  0  0  0
   58.6300   34.0370   46.3190 C   0  0  0  0  0  0  0  0  0  0  0  0
   58.6800   33.6630   47.6670 C   0  0  0  0  0  0  0  0  0  0  0  0
   57.7467   33.4850   48.2213 H   0  0  0  0  0  0  0  0  0  0  0  0
   59.9110   33.5150   48.3110 C   0  0  0  0  0  0  0  0  0  0  0  0
   59.9383   33.2018   49.3651 H   0  0  0  0  0  0  0  0  0  0  0  0
   61.1180   33.7620   47.6270 C   0  0  0  0  0  0  0  0  0  0  0  0
   62.3970   33.5610   48.2780 N   0  0  0  0  0  0  0  0  0  0  0  0
   63.4470   32.7710   47.6230 C   0  0  0  0  0  0  0  0  0  0  0  0
   64.0789   32.2955   48.3876 H   0  0  0  0  0  0  0  0  0  0  0  0
   62.9844   31.9951   46.9953 H   0  0  0  0  0  0  0  0  0  0  0  0
   64.0643   33.4305   46.9953 H   0  0  0  0  0  0  0  0  0  0  0  0
   62.6520   34.1180   49.6110 C   0  0  0  0  0  0  0  0  0  0  0  0
   62.3235   33.4004   50.3772 H   0  0  0  0  0  0  0  0  0  0  0  0
   63.7285   34.3118   49.7276 H   0  0  0  0  0  0  0  0  0  0  0  0
   62.0952   35.0595   49.7276 H   0  0  0  0  0  0  0  0  0  0  0  0
   61.0510   34.1990   46.2870 C   0  0  0  0  0  0  0  0  0  0  0  0
   61.9787   34.4263   45.7414 H   0  0  0  0  0  0  0  0  0  0  0  0
   59.8180   34.3460   45.6460 C   0  0  0  0  0  0  0  0  0  0  0  0
   59.7807   34.7063   44.6074 H   0  0  0  0  0  0  0  0  0  0  0  0
  1  2  1  0
  2  3  2  0
  3  4  1  0
  4  5  2  0
  4  6  1  0
  6  7  2  0
  7  8  1  0
  8  9  1  0
  8 10  1  0
 10 11  2  0
 10 12  1  0
 12 13  2  0
 13 14  1  0
 13 15  1  0
 15 16  1  0
 15 17  2  0
 17 18  1  0
 17 19  1  0
 19 20  1  0
 19 21  2  0
  2 22  1  0
 22 23  2  0
 23 24  1  0
 23 25  1  0
 25 26  1  0
 25 27  2  0
 27 28  1  0
 28 29  1  0
 29 30  1  0
 29 31  1  0
 29 32  1  0
 28 33  1  0
 33 34  1  0
 33 35  1  0
 33 36  1  0
 27 37  1  0
 37 38  1  0
 37 39  2  0
 39 40  1  0
 21  6  1  0
 39 22  1  0
 21 12  1  0
M  END
>  <UniqueID>  (66) 
62

>  <SMILES>  (66) 
CN(C)c1ccc(/C=N\C(=O)c2n[nH]c(=O)c3ccccc23)cc1

>  <Energy>  (66) 
62.4346889177198

>  <Genealogy>  (66) 
CN(C)c1ccc(/C=N\C(=O)c2n[nH]c(=O)c3ccccc23)cc1 (cis-trans isomerization)
CN(C)c1ccc(/C=N\C(=O)c2n[nH]c(=O)c3ccccc23)cc1 (3D coordinates assigned)
CN(C)c1ccc(/C=N\C(=O)c2n[nH]c(=O)c3ccccc23)cc1 (optimized conformer: 62.4346889177198 kcal/mol)

>  <smiles>  (66) 
CN(C)c1ccc(C=NC(=O)c2n[nH]c(=O)c3ccccc23)cc1

>  <score_type>  (66) 
oracle

>  <origin>  (66) 
adg

>  <m_score__min__energy>  (66) 
-8.6999999999999993

>  <m_primary>  (66) 
energy

$$$$
66:0
     RDKit          3D

 57 60  0  0  0  0  0  0  0  0999 V2000
   54.6820   28.9670   45.3430 H   0  0  0  0  0  0  0  0  0  0  0  0
   55.6710   28.8040   45.1960 O   0  0  0  0  0  0  0  0  0  0  0  0
   56.2720   27.6200   45.6180 C   0  0  0  0  0  0  0  0  0  0  0  0
   55.4970   26.5580   45.9630 N   0  0  0  0  0  0  0  0  0  0  0  0
   56.0530   25.3820   46.3530 C   0  0  0  0  0  0  0  0  0  0  0  0
   55.3150   24.4150   46.6700 O   0  0  0  0  0  0  0  0  0  0  0  0
   57.4040   25.2480   46.3930 N   0  0  0  0  0  0  0  0  0  0  0  0
   58.2230   26.2790   46.0610 C   0  0  0  0  0  0  0  0  0  0  0  0
   59.4710   26.1170   46.1030 O   0  0  0  0  0  0  0  0  0  0  0  0
   57.6740   27.5140   45.6840 C   0  0  0  0  0  0  0  0  0  0  0  0
   58.5440   28.6370   45.2840 C   0  0  0  0  0  0  0  0  0  0  0  0
   59.2029   28.4824   44.4169 H   0  0  0  0  0  0  0  0  0  0  0  0
   58.5960   29.8370   45.8960 C   0  0  0  0  0  0  0  0  0  0  0  0
   58.0210   30.9790   45.3610 C   0  0  0  0  0  0  0  0  0  0  0  0
   57.5391   31.0708   44.3764 H   0  0  0  0  0  0  0  0  0  0  0  0
   58.1690   31.9780   46.3000 C   0  0  0  0  0  0  0  0  0  0  0  0
   57.6330   33.3720   46.1650 C   0  0  0  0  0  0  0  0  0  0  0  0
   57.4684   33.8000   47.1649 H   0  0  0  0  0  0  0  0  0  0  0  0
   58.3570   33.9916   45.6156 H   0  0  0  0  0  0  0  0  0  0  0  0
   56.6804   33.3469   45.6156 H   0  0  0  0  0  0  0  0  0  0  0  0
   58.8310   31.5120   47.3790 N   0  0  0  0  0  0  0  0  0  0  0  0
   59.1040   32.2560   48.5770 C   0  0  0  0  0  0  0  0  0  0  0  0
   59.8030   33.4710   48.5130 C   0  0  0  0  0  0  0  0  0  0  0  0
   60.2670   33.9350   47.2750 O   0  0  0  0  0  0  0  0  0  0  0  0
   61.1850   33.2240   46.4470 C   0  0  0  0  0  0  0  0  0  0  0  0
   61.2760   32.1921   46.8170 H   0  0  0  0  0  0  0  0  0  0  0  0
   60.8028   33.2357   45.4156 H   0  0  0  0  0  0  0  0  0  0  0  0
   62.5680   33.8810   46.4570 C   0  0  0  0  0  0  0  0  0  0  0  0
   63.0273   33.7674   45.4640 H   0  0  0  0  0  0  0  0  0  0  0  0
   62.4483   34.9455   46.7069 H   0  0  0  0  0  0  0  0  0  0  0  0
   63.4470   33.2540   47.4720 N   0  0  0  0  0  0  0  0  0  0  0  0
   63.2930   33.9080   48.7930 C   0  0  0  0  0  0  0  0  0  0  0  0
   63.8140   34.8766   48.7748 H   0  0  0  0  0  0  0  0  0  0  0  0
   62.2187   34.0436   48.9869 H   0  0  0  0  0  0  0  0  0  0  0  0
   63.8790   33.0490   49.9190 C   0  0  0  0  0  0  0  0  0  0  0  0
   64.9418   32.8581   49.7090 H   0  0  0  0  0  0  0  0  0  0  0  0
   63.7635   33.5922   50.8685 H   0  0  0  0  0  0  0  0  0  0  0  0
   63.1400   31.7040   50.0330 C   0  0  0  0  0  0  0  0  0  0  0  0
   63.8596   30.9315   50.3419 H   0  0  0  0  0  0  0  0  0  0  0  0
   62.3353   31.8270   50.7728 H   0  0  0  0  0  0  0  0  0  0  0  0
   62.4920   31.2720   48.7060 C   0  0  0  0  0  0  0  0  0  0  0  0
   62.4386   30.1738   48.6726 H   0  0  0  0  0  0  0  0  0  0  0  0
   61.4841   31.7090   48.6499 H   0  0  0  0  0  0  0  0  0  0  0  0
   63.3080   31.7710   47.5070 C   0  0  0  0  0  0  0  0  0  0  0  0
   64.3128   31.3262   47.5577 H   0  0  0  0  0  0  0  0  0  0  0  0
   62.7702   31.4701   46.5958 H   0  0  0  0  0  0  0  0  0  0  0  0
   60.0110   34.1890   49.6530 N   0  0  0  0  0  0  0  0  0  0  0  0
   59.5630   33.7620   50.8630 C   0  0  0  0  0  0  0  0  0  0  0  0
   59.7489   34.3670   51.7626 H   0  0  0  0  0  0  0  0  0  0  0  0
   58.8670   32.5560   50.9650 C   0  0  0  0  0  0  0  0  0  0  0  0
   58.5054   32.2039   51.9424 H   0  0  0  0  0  0  0  0  0  0  0  0
   58.6350   31.8020   49.8140 C   0  0  0  0  0  0  0  0  0  0  0  0
   58.0842   30.8521   49.8794 H   0  0  0  0  0  0  0  0  0  0  0  0
   59.1320   30.2120   47.1390 C   0  0  0  0  0  0  0  0  0  0  0  0
   59.9010   29.4710   47.9540 C   0  0  0  0  0  0  0  0  0  0  0  0
   60.2561   29.8904   48.9069 H   0  0  0  0  0  0  0  0  0  0  0  0
   60.1756   28.4448   47.6685 H   0  0  0  0  0  0  0  0  0  0  0  0
  1  2  1  0
  2  3  1  0
  3  4  1  0
  4  5  1  0
  5  6  2  0
  5  7  1  0
  7  8  1  0
  8  9  2  0
  8 10  1  0
 10 11  1  0
 11 12  1  0
 11 13  2  0
 13 14  1  0
 14 15  1  0
 14 16  2  0
 16 17  1  0
 17 18  1  0
 17 19  1  0
 17 20  1  0
 16 21  1  0
 21 22  1  0
 22 23  1  0
 23 24  1  0
 24 25  1  0
 25 26  1  0
 25 27  1  0
 25 28  1  0
 28 29  1  0
 28 30  1  0
 28 31  1  0
 31 32  1  0
 32 33  1  0
 32 34  1  0
 32 35  1  0
 35 36  1  0
 35 37  1  0
 35 38  1  0
 38 39  1  0
 38 40  1  0
 38 41  1  0
 41 42  1  0
 41 43  1  0
 41 44  1  0
 44 45  1  0
 44 46  1  0
 23 47  2  0
 47 48  1  0
 48 49  1  0
 48 50  2  0
 50 51  1  0
 50 52  1  0
 52 53  1  0
 21 54  1  0
 54 55  2  0
 55 56  1  0
 55 57  1  0
 10  3  2  0
 54 13  1  0
 52 22  2  0
 44 31  1  0
M  CHG  2   4  -1   7  -1
M  END
>  <UniqueID>  (67) 
63

>  <SMILES>  (67) 
C=c1/c(=C\c2c(O)[n-]c(=O)[n-]c2=O)cc(C)n1-c1cccnc1OCCN1CCCCC1

>  <Energy>  (67) 
112.18555624347071

>  <Genealogy>  (67) 
C=c1c(=Cc2c(O)[n-]c(=O)[n-]c2=O)cc(C)n1-c1cccnc1OCCN1CCCCC1 (protonated)
C=c1/c(=C\c2c(O)[n-]c(=O)[n-]c2=O)cc(C)n1-c1cccnc1OCCN1CCCCC1 (cis-trans isomerization)
C=c1/c(=C\c2c(O)[n-]c(=O)[n-]c2=O)cc(C)n1-c1cccnc1OCCN1CCCCC1 (3D coordinates assigned)
C=c1/c(=C\c2c(O)[n-]c(=O)[n-]c2=O)cc(C)n1-c1cccnc1OCCN1CCCCC1 (nonaromatic ring conformer: 112.18555624347071 kcal/mol)

>  <smiles>  (67) 
C=c1c(=Cc2c(O)[nH]c(=O)[nH]c2=O)cc(C)n1-c1cccnc1OCCN1CCCCC1

>  <score_type>  (67) 
oracle

>  <origin>  (67) 
adg

>  <m_score__min__energy>  (67) 
-13.91

>  <m_primary>  (67) 
energy

$$$$
67:0
     RDKit          3D

 65 68  0  0  0  0  0  0  0  0999 V2000
   60.7870   26.5650   50.5030 C   0  0  0  0  0  0  0  0  0  0  0  0
   60.6880   27.7130   49.5500 C   0  0  0  0  0  0  0  0  0  0  0  0
   59.9830   27.5820   48.3470 C   0  0  0  0  0  0  0  0  0  0  0  0
   59.9810   28.6420   47.4270 C   0  0  0  0  0  0  0  0  0  0  0  0
   59.1630   28.5560   46.2040 C   0  0  0  0  0  0  0  0  0  0  0  0
   59.5490   27.8530   45.2320 O   0  0  0  0  0  0  0  0  0  0  0  0
   57.9710   29.3500   46.1230 N   0  0  0  0  0  0  0  0  0  0  0  0
   57.8780   30.6430   45.9830 C   0  0  0  0  0  0  0  0  0  0  0  0
   58.4350   31.4640   46.9670 C   0  0  0  0  0  0  0  0  0  0  0  0
   58.4340   32.8590   46.8020 C   0  0  0  0  0  0  0  0  0  0  0  0
   59.1200   33.7390   47.7760 C   0  0  0  0  0  0  0  0  0  0  0  0
   59.6790   34.7960   47.3690 O   0  0  0  0  0  0  0  0  0  0  0  0
   59.2090   33.3950   49.2150 C   0  0  0  0  0  0  0  0  0  0  0  0
   59.7370   34.1730   50.2330 C   0  0  0  0  0  0  0  0  0  0  0  0
   59.5650   33.4560   51.3990 C   0  0  0  0  0  0  0  0  0  0  0  0
   59.9820   33.9360   52.7560 C   0  0  0  0  0  0  0  0  0  0  0  0
   58.9460   32.2780   51.1410 N   0  0  0  0  0  0  0  0  0  0  0  0
   58.5140   31.2680   52.1220 C   0  0  0  0  0  0  0  0  0  0  0  0
   59.7240   30.7620   52.9430 C   0  0  0  0  0  0  0  0  0  0  0  0
   60.5600   29.9390   52.1700 O   0  0  0  0  0  0  0  0  0  0  0  0
   57.7820   30.1140   51.4040 C   0  0  0  0  0  0  0  0  0  0  0  0
   58.5900   29.5460   50.4100 O   0  0  0  0  0  0  0  0  0  0  0  0
   58.7110   32.2490   49.8100 C   0  0  0  0  0  0  0  0  0  0  0  0
   57.7840   33.4060   45.6880 C   0  0  0  0  0  0  0  0  0  0  0  0
   57.2020   32.5550   44.7420 C   0  0  0  0  0  0  0  0  0  0  0  0
   57.2760   31.2030   44.8970 N   0  0  0  0  0  0  0  0  0  0  0  0
   60.6890   29.8160   47.7330 C   0  0  0  0  0  0  0  0  0  0  0  0
   61.3490   29.9300   48.9650 C   0  0  0  0  0  0  0  0  0  0  0  0
   62.0060   31.2060   49.3500 C   0  0  0  0  0  0  0  0  0  0  0  0
   61.6990   31.7320   50.4550 O   0  0  0  0  0  0  0  0  0  0  0  0
   63.0070   31.8560   48.5170 N   0  0  0  0  0  0  0  0  0  0  0  0
   63.4600   33.1480   49.0720 C   0  0  0  0  0  0  0  0  0  0  0  0
   63.4780   34.1630   47.9320 C   0  0  0  0  0  0  0  0  0  0  0  0
   62.5240   33.6020   46.8980 C   0  0  0  0  0  0  0  0  0  0  0  0
   62.5330   32.1000   47.1360 C   0  0  0  0  0  0  0  0  0  0  0  0
   61.3390   28.8740   49.8280 N   0  0  0  0  0  0  0  0  0  0  0  0
   60.7545   26.9420   51.5359 H   0  0  0  0  0  0  0  0  0  0  0  0
   59.9448   25.8771   50.3371 H   0  0  0  0  0  0  0  0  0  0  0  0
   61.7345   26.0314   50.3371 H   0  0  0  0  0  0  0  0  0  0  0  0
   59.4346   26.6547   48.1247 H   0  0  0  0  0  0  0  0  0  0  0  0
   58.8745   31.0177   47.8713 H   0  0  0  0  0  0  0  0  0  0  0  0
   60.2011   35.1651   50.1315 H   0  0  0  0  0  0  0  0  0  0  0  0
   59.4681   33.3445   53.5281 H   0  0  0  0  0  0  0  0  0  0  0  0
   61.0700   33.8189   52.8680 H   0  0  0  0  0  0  0  0  0  0  0  0
   59.7140   34.9969   52.8680 H   0  0  0  0  0  0  0  0  0  0  0  0
   57.8064   31.7257   52.8290 H   0  0  0  0  0  0  0  0  0  0  0  0
   60.3028   31.6275   53.2979 H   0  0  0  0  0  0  0  0  0  0  0  0
   59.3449   30.1719   53.7904 H   0  0  0  0  0  0  0  0  0  0  0  0
   60.4630   30.2470   51.2300 H   0  0  0  0  0  0  0  0  0  0  0  0
   57.5213   29.3401   52.1409 H   0  0  0  0  0  0  0  0  0  0  0  0
   56.8750   30.5168   50.9295 H   0  0  0  0  0  0  0  0  0  0  0  0
   59.4520   29.3190   50.8410 H   0  0  0  0  0  0  0  0  0  0  0  0
   58.1989   31.4338   49.2778 H   0  0  0  0  0  0  0  0  0  0  0  0
   57.7315   34.4970   45.5579 H   0  0  0  0  0  0  0  0  0  0  0  0
   56.6827   32.9789   43.8698 H   0  0  0  0  0  0  0  0  0  0  0  0
   60.7256   30.6431   47.0087 H   0  0  0  0  0  0  0  0  0  0  0  0
   63.8400   31.2190   48.4630 H   0  0  0  0  0  0  0  0  0  0  0  0
   62.7674   33.4810   49.8590 H   0  0  0  0  0  0  0  0  0  0  0  0
   64.4625   33.0470   49.5134 H   0  0  0  0  0  0  0  0  0  0  0  0
   63.1333   35.1466   48.2837 H   0  0  0  0  0  0  0  0  0  0  0  0
   64.4892   34.3124   47.5256 H   0  0  0  0  0  0  0  0  0  0  0  0
   61.5130   34.0110   47.0412 H   0  0  0  0  0  0  0  0  0  0  0  0
   62.8239   33.8618   45.8720 H   0  0  0  0  0  0  0  0  0  0  0  0
   61.5168   31.6971   47.0140 H   0  0  0  0  0  0  0  0  0  0  0  0
   63.1960   31.6034   46.4122 H   0  0  0  0  0  0  0  0  0  0  0  0
  1  2  1  0
  2  3  2  0
  3  4  1  0
  4  5  1  0
  5  6  2  0
  5  7  1  0
  7  8  2  3
  8  9  1  0
  9 10  2  0
 10 11  1  0
 11 12  2  0
 11 13  1  0
 13 14  1  0
 14 15  2  0
 15 16  1  0
 15 17  1  0
 17 18  1  0
 18 19  1  0
 19 20  1  0
 18 21  1  0
 21 22  1  0
 17 23  1  0
 10 24  1  0
 24 25  2  0
 25 26  1  0
  4 27  2  0
 27 28  1  0
 28 29  1  0
 29 30  2  0
 29 31  1  0
 31 32  1  0
 32 33  1  0
 33 34  1  0
 34 35  1  0
 28 36  2  0
 36  2  1  0
 26  8  1  0
 35 31  1  0
 23 13  2  0
  1 37  1  0
  1 38  1  0
  1 39  1  0
  3 40  1  0
  9 41  1  0
 14 42  1  0
 16 43  1  0
 16 44  1  0
 16 45  1  0
 18 46  1  0
 19 47  1  0
 19 48  1  0
 20 49  1  0
 21 50  1  0
 21 51  1  0
 22 52  1  0
 23 53  1  0
 24 54  1  0
 25 55  1  0
 27 56  1  0
 31 57  1  0
 32 58  1  0
 32 59  1  0
 33 60  1  0
 33 61  1  0
 34 62  1  0
 34 63  1  0
 35 64  1  0
 35 65  1  0
M  CHG  2  26  -1  31   1
M  END
>  <UniqueID>  (68) 
64

>  <SMILES>  (68) 
Cc1cc(C(=O)N=c2cc(C(=O)c3cc(C)n(C(CO)CO)c3)cc[n-]2)cc(C(=O)[NH+]2CCCC2)n1

>  <Energy>  (68) 
108.80381423880706

>  <Genealogy>  (68) 
Cc1cc(C(=O)N=c2cc(C(=O)c3cc(C)n(C(CO)CO)c3)cc[n-]2)cc(C(=O)[NH+]2CCCC2)n1 (protonated)
Cc1cc(C(=O)N=c2cc(C(=O)c3cc(C)n(C(CO)CO)c3)cc[n-]2)cc(C(=O)[NH+]2CCCC2)n1 (3D coordinates assigned)
Cc1cc(C(=O)N=c2cc(C(=O)c3cc(C)n(C(CO)CO)c3)cc[n-]2)cc(C(=O)[NH+]2CCCC2)n1 (nonaromatic ring conformer: 108.80381423880706 kcal/mol)

>  <smiles>  (68) 
Cc1cc(C(=O)N=c2cc(C(=O)c3cc(C)n(C(CO)CO)c3)cc[nH]2)cc(C(=O)N2CCCC2)n1

>  <score_type>  (68) 
oracle

>  <origin>  (68) 
adg

>  <m_score__min__energy>  (68) 
-9.6199999999999992

>  <m_primary>  (68) 
energy

$$$$
68:0
     RDKit          3D

 52 55  0  0  0  0  0  0  0  0999 V2000
   53.3820   22.9150   46.1880 C   0  0  0  0  0  0  0  0  0  0  0  0
   53.9390   22.8600   44.8790 O   0  0  0  0  0  0  0  0  0  0  0  0
   55.3180   22.7940   44.6390 C   0  0  0  0  0  0  0  0  0  0  0  0
   55.8820   21.6390   44.1850 N   0  0  0  0  0  0  0  0  0  0  0  0
   57.2160   21.5320   43.9420 C   0  0  0  0  0  0  0  0  0  0  0  0
   58.0560   22.6270   44.1510 C   0  0  0  0  0  0  0  0  0  0  0  0
   57.5100   23.8300   44.6110 C   0  0  0  0  0  0  0  0  0  0  0  0
   56.1310   23.9270   44.8630 C   0  0  0  0  0  0  0  0  0  0  0  0
   55.5530   25.2360   45.3430 C   0  0  0  0  0  0  0  0  0  0  0  0
   55.9100   25.4690   46.7390 N   0  0  0  0  0  0  0  0  0  0  0  0
   57.2590   25.5600   47.2110 C   0  0  0  0  0  0  0  0  0  0  0  0
   57.6440   24.8080   48.1480 O   0  0  0  0  0  0  0  0  0  0  0  0
   58.2050   26.5350   46.6150 C   0  0  0  0  0  0  0  0  0  0  0  0
   57.8080   27.8760   46.4470 C   0  0  0  0  0  0  0  0  0  0  0  0
   58.6790   28.8120   45.8750 C   0  0  0  0  0  0  0  0  0  0  0  0
   58.2380   30.1640   45.6570 N   0  0  0  0  0  0  0  0  0  0  0  0
   59.0510   31.2140   46.0110 C   0  0  0  0  0  0  0  0  0  0  0  0
   60.3340   30.9720   46.6110 N   0  0  0  0  0  0  0  0  0  0  0  0
   60.5750   31.0510   48.0310 C   0  0  0  0  0  0  0  0  0  0  0  0
   61.7380   31.6930   48.4880 C   0  0  0  0  0  0  0  0  0  0  0  0
   62.0130   31.7850   49.8560 C   0  0  0  0  0  0  0  0  0  0  0  0
   61.1250   31.2360   50.7860 C   0  0  0  0  0  0  0  0  0  0  0  0
   59.9650   30.5950   50.3470 C   0  0  0  0  0  0  0  0  0  0  0  0
   59.6810   30.5020   48.9790 C   0  0  0  0  0  0  0  0  0  0  0  0
   58.5380   29.8790   48.5960 F   0  0  0  0  0  0  0  0  0  0  0  0
   58.6400   32.5290   45.7670 C   0  0  0  0  0  0  0  0  0  0  0  0
   59.6750   33.8930   46.1820 Cl  0  0  0  0  0  0  0  0  0  0  0  0
   57.3850   32.7360   45.1820 C   0  0  0  0  0  0  0  0  0  0  0  0
   56.9700   33.9040   44.9570 O   0  0  0  0  0  0  0  0  0  0  0  0
   56.6100   31.6730   44.8450 N   0  0  0  0  0  0  0  0  0  0  0  0
   57.0210   30.4000   45.0710 C   0  0  0  0  0  0  0  0  0  0  0  0
   56.2720   29.4410   44.7270 O   0  0  0  0  0  0  0  0  0  0  0  0
   59.9660   28.4220   45.4930 C   0  0  0  0  0  0  0  0  0  0  0  0
   60.3680   27.0950   45.6450 C   0  0  0  0  0  0  0  0  0  0  0  0
   59.4970   26.1510   46.1980 C   0  0  0  0  0  0  0  0  0  0  0  0
   59.9310   24.8730   46.3350 F   0  0  0  0  0  0  0  0  0  0  0  0
   54.1875   22.8355   46.9329 H   0  0  0  0  0  0  0  0  0  0  0  0
   52.8523   23.8698   46.3213 H   0  0  0  0  0  0  0  0  0  0  0  0
   52.6758   22.0822   46.3213 H   0  0  0  0  0  0  0  0  0  0  0  0
   57.6336   20.5809   43.5801 H   0  0  0  0  0  0  0  0  0  0  0  0
   59.1355   22.5449   43.9561 H   0  0  0  0  0  0  0  0  0  0  0  0
   58.1611   24.7012   44.7757 H   0  0  0  0  0  0  0  0  0  0  0  0
   55.9500   26.0554   44.7258 H   0  0  0  0  0  0  0  0  0  0  0  0
   54.4571   25.1947   45.2573 H   0  0  0  0  0  0  0  0  0  0  0  0
   56.8042   28.1912   46.7681 H   0  0  0  0  0  0  0  0  0  0  0  0
   61.0630   30.5330   45.9970 H   0  0  0  0  0  0  0  0  0  0  0  0
   62.4402   32.1282   47.7616 H   0  0  0  0  0  0  0  0  0  0  0  0
   62.9279   32.2893   50.2004 H   0  0  0  0  0  0  0  0  0  0  0  0
   61.3401   31.3090   51.8623 H   0  0  0  0  0  0  0  0  0  0  0  0
   59.2698   30.1603   51.0803 H   0  0  0  0  0  0  0  0  0  0  0  0
   60.6623   29.1623   45.0722 H   0  0  0  0  0  0  0  0  0  0  0  0
   61.3760   26.7893   45.3280 H   0  0  0  0  0  0  0  0  0  0  0  0
  1  2  1  0
  2  3  1  0
  3  4  2  0
  4  5  1  0
  5  6  2  0
  6  7  1  0
  7  8  2  0
  8  9  1  0
  9 10  1  0
 10 11  1  0
 11 12  2  0
 11 13  1  0
 13 14  2  0
 14 15  1  0
 15 16  1  0
 16 17  1  0
 17 18  1  0
 18 19  1  0
 19 20  2  0
 20 21  1  0
 21 22  2  0
 22 23  1  0
 23 24  2  0
 24 25  1  0
 17 26  2  0
 26 27  1  0
 26 28  1  0
 28 29  2  0
 28 30  1  0
 30 31  1  0
 31 32  2  0
 15 33  2  0
 33 34  1  0
 34 35  2  0
 35 36  1  0
  8  3  1  0
 35 13  1  0
 31 16  1  0
 24 19  1  0
  1 37  1  0
  1 38  1  0
  1 39  1  0
  5 40  1  0
  6 41  1  0
  7 42  1  0
  9 43  1  0
  9 44  1  0
 14 45  1  0
 18 46  1  0
 20 47  1  0
 21 48  1  0
 22 49  1  0
 23 50  1  0
 33 51  1  0
 34 52  1  0
M  CHG  2  10  -1  30  -1
M  END
>  <UniqueID>  (69) 
65

>  <SMILES>  (69) 
COc1ncccc1C[N-]C(=O)c1cc(-n2c(Nc3ccccc3F)c(Cl)c(=O)[n-]c2=O)ccc1F

>  <Energy>  (69) 
75.68811265171207

>  <Genealogy>  (69) 
COc1ncccc1C[N-]C(=O)c1cc(-n2c(Nc3ccccc3F)c(Cl)c(=O)[n-]c2=O)ccc1F (protonated)
COc1ncccc1C[N-]C(=O)c1cc(-n2c(Nc3ccccc3F)c(Cl)c(=O)[n-]c2=O)ccc1F (3D coordinates assigned)
COc1ncccc1C[N-]C(=O)c1cc(-n2c(Nc3ccccc3F)c(Cl)c(=O)[n-]c2=O)ccc1F (optimized conformer: 75.68811265171207 kcal/mol)

>  <smiles>  (69) 
COc1ncccc1CNC(=O)c1cc(-n2c(Nc3ccccc3F)c(Cl)c(=O)[nH]c2=O)ccc1F

>  <score_type>  (69) 
oracle

>  <origin>  (69) 
adg

>  <m_score__min__energy>  (69) 
-12.390000000000001

>  <m_primary>  (69) 
energy

$$$$
69:0
     RDKit          3D

 44 46  0  0  0  0  0  0  0  0999 V2000
   56.8930   28.2680   53.1920 C   0  0  0  0  0  0  0  0  0  0  0  0
   56.3240   29.4200   52.7730 C   0  0  0  0  0  0  0  0  0  0  0  0
   54.9110   29.5250   52.7800 C   0  0  0  0  0  0  0  0  0  0  0  0
   54.1940   28.5460   53.1380 O   0  0  0  0  0  0  0  0  0  0  0  0
   54.3080   30.7350   52.3970 C   0  0  0  0  0  0  0  0  0  0  0  0
   52.9680   30.8760   52.3630 C   0  0  0  0  0  0  0  0  0  0  0  0
   52.1850   31.0590   51.1250 C   0  0  0  0  0  0  0  0  0  0  0  0
   52.1290   29.9290   49.8770 S   0  0  0  0  0  0  0  0  0  0  0  0
   51.0220   30.8300   48.9920 C   0  0  0  0  0  0  0  0  0  0  0  0
   50.5640   30.4890   47.8710 O   0  0  0  0  0  0  0  0  0  0  0  0
   50.6590   31.9680   49.6190 N   0  0  0  0  0  0  0  0  0  0  0  0
   51.2950   32.0920   50.8140 C   0  0  0  0  0  0  0  0  0  0  0  0
   51.0280   33.1560   51.6660 O   0  0  0  0  0  0  0  0  0  0  0  0
   55.1040   31.7660   52.0260 N   0  0  0  0  0  0  0  0  0  0  0  0
   56.4540   31.6740   52.0070 C   0  0  0  0  0  0  0  0  0  0  0  0
   57.1180   32.6920   51.6700 O   0  0  0  0  0  0  0  0  0  0  0  0
   57.0840   30.5000   52.3500 N   0  0  0  0  0  0  0  0  0  0  0  0
   58.5640   30.4460   52.2840 C   0  0  0  0  0  0  0  0  0  0  0  0
   59.0410   30.7820   50.9000 C   0  0  0  0  0  0  0  0  0  0  0  0
   59.3180   29.8470   50.1000 O   0  0  0  0  0  0  0  0  0  0  0  0
   59.2230   32.1490   50.5060 N   0  0  0  0  0  0  0  0  0  0  0  0
   59.6460   32.5200   49.1840 C   0  0  0  0  0  0  0  0  0  0  0  0
   58.6690   32.6640   48.1910 C   0  0  0  0  0  0  0  0  0  0  0  0
   59.0240   33.0610   46.9050 C   0  0  0  0  0  0  0  0  0  0  0  0
   60.3570   33.3140   46.5910 C   0  0  0  0  0  0  0  0  0  0  0  0
   61.3620   33.1600   47.5610 C   0  0  0  0  0  0  0  0  0  0  0  0
   62.7930   33.4330   47.1720 C   0  0  0  0  0  0  0  0  0  0  0  0
   61.0150   32.7170   48.8640 C   0  0  0  0  0  0  0  0  0  0  0  0
   62.0900   32.4750   49.9010 C   0  0  0  0  0  0  0  0  0  0  0  0
   57.9881   28.1647   53.1949 H   0  0  0  0  0  0  0  0  0  0  0  0
   56.2610   27.4336   53.5302 H   0  0  0  0  0  0  0  0  0  0  0  0
   52.4233   30.8533   53.3184 H   0  0  0  0  0  0  0  0  0  0  0  0
   58.9849   31.1696   52.9977 H   0  0  0  0  0  0  0  0  0  0  0  0
   58.8947   29.4279   52.5371 H   0  0  0  0  0  0  0  0  0  0  0  0
   59.2450   32.8820   51.2510 H   0  0  0  0  0  0  0  0  0  0  0  0
   57.6142   32.4621   48.4289 H   0  0  0  0  0  0  0  0  0  0  0  0
   58.2484   33.1754   46.1334 H   0  0  0  0  0  0  0  0  0  0  0  0
   60.6256   33.6373   45.5745 H   0  0  0  0  0  0  0  0  0  0  0  0
   63.4038   33.5495   48.0794 H   0  0  0  0  0  0  0  0  0  0  0  0
   63.1779   32.5921   46.5764 H   0  0  0  0  0  0  0  0  0  0  0  0
   62.8413   34.3565   46.5764 H   0  0  0  0  0  0  0  0  0  0  0  0
   61.6571   32.5725   50.9075 H   0  0  0  0  0  0  0  0  0  0  0  0
   62.4999   31.4621   49.7747 H   0  0  0  0  0  0  0  0  0  0  0  0
   62.8945   33.2145   49.7747 H   0  0  0  0  0  0  0  0  0  0  0  0
  1  2  2  0
  2  3  1  0
  3  4  2  0
  3  5  1  0
  5  6  2  3
  6  7  1  0
  7  8  1  0
  8  9  1  0
  9 10  2  0
  9 11  1  0
 11 12  1  0
 12 13  1  0
  5 14  1  0
 14 15  1  0
 15 16  2  0
 15 17  1  0
 17 18  1  0
 18 19  1  0
 19 20  2  0
 19 21  1  0
 21 22  1  0
 22 23  2  0
 23 24  1  0
 24 25  2  0
 25 26  1  0
 26 27  1  0
 26 28  2  0
 28 29  1  0
 17  2  1  0
 28 22  1  0
 12  7  2  0
  1 30  1  0
  1 31  1  0
  6 32  1  0
 18 33  1  0
 18 34  1  0
 21 35  1  0
 23 36  1  0
 24 37  1  0
 25 38  1  0
 27 39  1  0
 27 40  1  0
 27 41  1  0
 29 42  1  0
 29 43  1  0
 29 44  1  0
M  CHG  3  11  -1  13  -1  14  -1
M  END
>  <UniqueID>  (70) 
66

>  <SMILES>  (70) 
C=c1c(=O)c(=Cc2sc(=O)[n-]c2[O-])[n-]c(=O)n1CC(=O)Nc1cccc(C)c1C

>  <Energy>  (70) 
101.43942753550716

>  <Genealogy>  (70) 
C=c1c(=O)c(=Cc2sc(=O)[n-]c2[O-])[n-]c(=O)n1CC(=O)Nc1cccc(C)c1C (protonated)
C=c1c(=O)c(=Cc2sc(=O)[n-]c2[O-])[n-]c(=O)n1CC(=O)Nc1cccc(C)c1C (3D coordinates assigned)
C=c1c(=O)c(=Cc2sc(=O)[n-]c2[O-])[n-]c(=O)n1CC(=O)Nc1cccc(C)c1C (optimized conformer: 101.43942753550716 kcal/mol)

>  <smiles>  (70) 
C=c1c(=O)c(=Cc2sc(=O)[nH]c2O)[nH]c(=O)n1CC(=O)Nc1cccc(C)c1C

>  <score_type>  (70) 
oracle

>  <origin>  (70) 
adg

>  <m_score__min__energy>  (70) 
-16.52

>  <m_primary>  (70) 
energy

$$$$
70:0
     RDKit          3D

 51 54  0  0  0  0  0  0  0  0999 V2000
   59.8060   28.6480   49.9870 O   0  0  0  0  0  0  0  0  0  0  0  0
   60.4570   27.5820   49.8180 C   0  0  0  0  0  0  0  0  0  0  0  0
   60.2020   26.7530   48.6710 N   0  0  0  0  0  0  0  0  0  0  0  0
   59.0170   26.8520   47.8620 C   0  0  0  0  0  0  0  0  0  0  0  0
   58.1200   25.7760   47.8230 C   0  0  0  0  0  0  0  0  0  0  0  0
   56.9510   25.8580   47.0650 C   0  0  0  0  0  0  0  0  0  0  0  0
   56.6560   27.0170   46.3430 C   0  0  0  0  0  0  0  0  0  0  0  0
   55.4650   27.0830   45.6280 O   0  0  0  0  0  0  0  0  0  0  0  0
   57.5460   28.1090   46.3680 C   0  0  0  0  0  0  0  0  0  0  0  0
   57.2690   29.3500   45.6090 C   0  0  0  0  0  0  0  0  0  0  0  0
   56.0900   29.5950   45.2410 O   0  0  0  0  0  0  0  0  0  0  0  0
   58.3090   30.2700   45.2470 N   0  0  0  0  0  0  0  0  0  0  0  0
   58.3240   31.6800   45.5120 C   0  0  0  0  0  0  0  0  0  0  0  0
   57.5580   32.5820   44.7530 C   0  0  0  0  0  0  0  0  0  0  0  0
   57.5930   33.9470   45.0420 C   0  0  0  0  0  0  0  0  0  0  0  0
   58.4070   34.4270   46.0720 C   0  0  0  0  0  0  0  0  0  0  0  0
   59.2110   33.5440   46.8090 C   0  0  0  0  0  0  0  0  0  0  0  0
   60.0720   34.0580   47.8980 C   0  0  0  0  0  0  0  0  0  0  0  0
   59.6170   34.9470   48.6680 O   0  0  0  0  0  0  0  0  0  0  0  0
   61.4160   33.5770   48.0920 N   0  0  0  0  0  0  0  0  0  0  0  0
   62.2600   33.1860   46.9580 C   0  0  0  0  0  0  0  0  0  0  0  0
   63.6970   33.6580   47.2050 C   0  0  0  0  0  0  0  0  0  0  0  0
   64.1620   33.2110   48.4640 O   0  0  0  0  0  0  0  0  0  0  0  0
   63.4070   33.8180   49.4980 C   0  0  0  0  0  0  0  0  0  0  0  0
   61.9440   33.3660   49.4420 C   0  0  0  0  0  0  0  0  0  0  0  0
   59.1570   32.1680   46.5260 C   0  0  0  0  0  0  0  0  0  0  0  0
   58.7100   28.0270   47.1510 C   0  0  0  0  0  0  0  0  0  0  0  0
   61.5060   27.2300   50.7880 C   0  0  0  0  0  0  0  0  0  0  0  0
   62.1690   28.0950   51.6410 C   0  0  0  0  0  0  0  0  0  0  0  0
   63.0580   27.3130   52.3460 C   0  0  0  0  0  0  0  0  0  0  0  0
   62.8860   26.0240   51.8840 C   0  0  0  0  0  0  0  0  0  0  0  0
   61.9570   26.0080   50.9570 O   0  0  0  0  0  0  0  0  0  0  0  0
   60.9620   26.1170   48.3420 H   0  0  0  0  0  0  0  0  0  0  0  0
   58.3386   24.8612   48.3933 H   0  0  0  0  0  0  0  0  0  0  0  0
   56.2575   25.0046   47.0359 H   0  0  0  0  0  0  0  0  0  0  0  0
   56.9298   32.2112   43.9297 H   0  0  0  0  0  0  0  0  0  0  0  0
   56.9782   34.6472   44.4575 H   0  0  0  0  0  0  0  0  0  0  0  0
   58.4174   35.5018   46.3059 H   0  0  0  0  0  0  0  0  0  0  0  0
   62.2467   32.0913   46.8512 H   0  0  0  0  0  0  0  0  0  0  0  0
   61.8749   33.6486   46.0373 H   0  0  0  0  0  0  0  0  0  0  0  0
   64.3495   33.2561   46.4159 H   0  0  0  0  0  0  0  0  0  0  0  0
   63.7145   34.7578   47.1923 H   0  0  0  0  0  0  0  0  0  0  0  0
   63.8349   33.5344   50.4709 H   0  0  0  0  0  0  0  0  0  0  0  0
   63.4437   34.9095   49.3666 H   0  0  0  0  0  0  0  0  0  0  0  0
   61.8808   32.2978   49.6970 H   0  0  0  0  0  0  0  0  0  0  0  0
   61.3528   33.9518   50.1612 H   0  0  0  0  0  0  0  0  0  0  0  0
   59.7753   31.4679   47.1070 H   0  0  0  0  0  0  0  0  0  0  0  0
   59.3887   28.8908   47.2088 H   0  0  0  0  0  0  0  0  0  0  0  0
   62.0178   29.1804   51.7363 H   0  0  0  0  0  0  0  0  0  0  0  0
   63.7628   27.6486   53.1210 H   0  0  0  0  0  0  0  0  0  0  0  0
   63.4427   25.1440   52.2386 H   0  0  0  0  0  0  0  0  0  0  0  0
  1  2  2  0
  2  3  1  0
  3  4  1  0
  4  5  2  0
  5  6  1  0
  6  7  2  0
  7  8  1  0
  7  9  1  0
  9 10  1  0
 10 11  2  0
 10 12  1  0
 12 13  1  0
 13 14  2  0
 14 15  1  0
 15 16  2  0
 16 17  1  0
 17 18  1  0
 18 19  2  0
 18 20  1  0
 20 21  1  0
 21 22  1  0
 22 23  1  0
 23 24  1  0
 24 25  1  0
 17 26  2  0
  9 27  2  0
  2 28  1  0
 28 29  2  0
 29 30  1  0
 30 31  2  0
 31 32  1  0
 27  4  1  0
 32 28  1  0
 26 13  1  0
 25 20  1  0
  3 33  1  0
  5 34  1  0
  6 35  1  0
 14 36  1  0
 15 37  1  0
 16 38  1  0
 21 39  1  0
 21 40  1  0
 22 41  1  0
 22 42  1  0
 24 43  1  0
 24 44  1  0
 25 45  1  0
 25 46  1  0
 26 47  1  0
 27 48  1  0
 29 49  1  0
 30 50  1  0
 31 51  1  0
M  CHG  2   8  -1  12  -1
M  END
>  <UniqueID>  (71) 
67

>  <SMILES>  (71) 
O=C(Nc1ccc([O-])c(C(=O)[N-]c2cccc(C(=O)N3CCOCC3)c2)c1)c1ccco1

>  <Energy>  (71) 
98.64844055123515

>  <Genealogy>  (71) 
O=C(Nc1ccc([O-])c(C(=O)[N-]c2cccc(C(=O)N3CCOCC3)c2)c1)c1ccco1 (protonated)
O=C(Nc1ccc([O-])c(C(=O)[N-]c2cccc(C(=O)N3CCOCC3)c2)c1)c1ccco1 (3D coordinates assigned)
O=C(Nc1ccc([O-])c(C(=O)[N-]c2cccc(C(=O)N3CCOCC3)c2)c1)c1ccco1 (nonaromatic ring conformer: 98.64844055123515 kcal/mol)

>  <smiles>  (71) 
O=C(Nc1ccc(O)c(C(=O)Nc2cccc(C(=O)N3CCOCC3)c2)c1)c1ccco1

>  <score_type>  (71) 
oracle

>  <origin>  (71) 
adg

>  <m_score__min__energy>  (71) 
-12.59

>  <m_primary>  (71) 
energy

$$$$
71:0
     RDKit          3D

 49 51  0  0  0  0  0  0  0  0999 V2000
   65.7740   32.7000   49.7550 C   0  0  0  0  0  0  0  0  0  0  0  0
   64.4090   33.2120   49.4040 C   0  0  0  0  0  0  0  0  0  0  0  0
   63.9390   33.1460   48.0830 C   0  0  0  0  0  0  0  0  0  0  0  0
   62.6540   33.6000   47.7690 C   0  0  0  0  0  0  0  0  0  0  0  0
   61.8160   34.1100   48.7750 C   0  0  0  0  0  0  0  0  0  0  0  0
   60.4340   34.6030   48.4390 C   0  0  0  0  0  0  0  0  0  0  0  0
   59.6060   33.5170   47.8090 C   0  0  0  0  0  0  0  0  0  0  0  0
   58.4870   33.2180   48.3110 O   0  0  0  0  0  0  0  0  0  0  0  0
   60.0590   32.8800   46.6060 N   0  0  0  0  0  0  0  0  0  0  0  0
   59.4190   31.7340   46.0210 C   0  0  0  0  0  0  0  0  0  0  0  0
   58.4490   31.8750   45.0150 C   0  0  0  0  0  0  0  0  0  0  0  0
   57.8140   30.7470   44.4880 C   0  0  0  0  0  0  0  0  0  0  0  0
   58.1370   29.4730   44.9590 C   0  0  0  0  0  0  0  0  0  0  0  0
   59.1110   29.3090   45.9600 C   0  0  0  0  0  0  0  0  0  0  0  0
   59.4640   27.9600   46.4730 C   0  0  0  0  0  0  0  0  0  0  0  0
   59.9460   27.8470   47.6330 O   0  0  0  0  0  0  0  0  0  0  0  0
   59.2360   26.7670   45.7100 N   0  0  0  0  0  0  0  0  0  0  0  0
   58.0450   25.9660   45.7260 C   0  0  0  0  0  0  0  0  0  0  0  0
   58.1590   24.5810   45.5760 C   0  0  0  0  0  0  0  0  0  0  0  0
   57.0190   23.7720   45.5900 C   0  0  0  0  0  0  0  0  0  0  0  0
   55.7460   24.3430   45.7390 C   0  0  0  0  0  0  0  0  0  0  0  0
   54.3120   23.3150   45.7750 S   0  0  0  0  0  0  0  0  0  0  0  0
   54.7620   21.6760   45.4570 N   0  0  0  0  0  0  0  0  0  0  0  0
   53.3280   23.7560   44.7280 O   0  0  0  0  0  0  0  0  0  0  0  0
   53.6670   23.4040   47.1290 O   0  0  0  0  0  0  0  0  0  0  0  0
   55.6250   25.7390   45.8510 C   0  0  0  0  0  0  0  0  0  0  0  0
   54.3750   26.3360   45.9660 O   0  0  0  0  0  0  0  0  0  0  0  0
   56.7690   26.5450   45.8430 C   0  0  0  0  0  0  0  0  0  0  0  0
   59.7270   30.4520   46.5030 C   0  0  0  0  0  0  0  0  0  0  0  0
   62.2840   34.1630   50.0980 C   0  0  0  0  0  0  0  0  0  0  0  0
   63.5700   33.7150   50.4110 C   0  0  0  0  0  0  0  0  0  0  0  0
   65.8805   32.6601   50.8491 H   0  0  0  0  0  0  0  0  0  0  0  0
   65.9060   31.6912   49.3367 H   0  0  0  0  0  0  0  0  0  0  0  0
   66.5369   33.3731   49.3367 H   0  0  0  0  0  0  0  0  0  0  0  0
   64.5837   32.7357   47.2918 H   0  0  0  0  0  0  0  0  0  0  0  0
   62.2975   33.5576   46.7292 H   0  0  0  0  0  0  0  0  0  0  0  0
   59.9397   34.9411   49.3617 H   0  0  0  0  0  0  0  0  0  0  0  0
   60.5253   35.4315   47.7211 H   0  0  0  0  0  0  0  0  0  0  0  0
   60.8220   33.3440   46.0620 H   0  0  0  0  0  0  0  0  0  0  0  0
   58.1884   32.8760   44.6409 H   0  0  0  0  0  0  0  0  0  0  0  0
   57.0566   30.8634   43.6988 H   0  0  0  0  0  0  0  0  0  0  0  0
   57.6261   28.5915   44.5443 H   0  0  0  0  0  0  0  0  0  0  0  0
   59.1516   24.1249   45.4462 H   0  0  0  0  0  0  0  0  0  0  0  0
   57.1205   22.6819   45.4836 H   0  0  0  0  0  0  0  0  0  0  0  0
   53.8810   21.1540   45.2490 H   0  0  0  0  0  0  0  0  0  0  0  0
   56.6695   27.6371   45.9287 H   0  0  0  0  0  0  0  0  0  0  0  0
   60.4595   30.3393   47.3159 H   0  0  0  0  0  0  0  0  0  0  0  0
   61.6345   34.5594   50.8924 H   0  0  0  0  0  0  0  0  0  0  0  0
   63.9265   33.7566   51.4508 H   0  0  0  0  0  0  0  0  0  0  0  0
  1  2  1  0
  2  3  2  0
  3  4  1  0
  4  5  2  0
  5  6  1  0
  6  7  1  0
  7  8  2  0
  7  9  1  0
  9 10  1  0
 10 11  2  0
 11 12  1  0
 12 13  2  0
 13 14  1  0
 14 15  1  0
 15 16  2  0
 15 17  1  0
 17 18  1  0
 18 19  2  0
 19 20  1  0
 20 21  2  0
 21 22  1  0
 22 23  1  0
 22 24  2  0
 22 25  2  0
 21 26  1  0
 26 27  1  0
 26 28  2  0
 14 29  2  0
  5 30  1  0
 30 31  2  0
 31  2  1  0
 29 10  1  0
 28 18  1  0
  1 32  1  0
  1 33  1  0
  1 34  1  0
  3 35  1  0
  4 36  1  0
  6 37  1  0
  6 38  1  0
  9 39  1  0
 11 40  1  0
 12 41  1  0
 13 42  1  0
 19 43  1  0
 20 44  1  0
 23 45  1  0
 28 46  1  0
 29 47  1  0
 30 48  1  0
 31 49  1  0
M  CHG  3  17  -1  23  -1  27  -1
M  END
>  <UniqueID>  (72) 
68

>  <SMILES>  (72) 
Cc1ccc(CC(=O)Nc2cccc(C(=O)[N-]c3ccc(S([NH-])(=O)=O)c([O-])c3)c2)cc1

>  <Energy>  (72) 
60.624908229829465

>  <Genealogy>  (72) 
Cc1ccc(CC(=O)Nc2cccc(C(=O)[N-]c3ccc(S([NH-])(=O)=O)c([O-])c3)c2)cc1 (protonated)
Cc1ccc(CC(=O)Nc2cccc(C(=O)[N-]c3ccc(S([NH-])(=O)=O)c([O-])c3)c2)cc1 (3D coordinates assigned)
Cc1ccc(CC(=O)Nc2cccc(C(=O)[N-]c3ccc(S([NH-])(=O)=O)c([O-])c3)c2)cc1 (optimized conformer: 60.624908229829465 kcal/mol)

>  <smiles>  (72) 
Cc1ccc(CC(=O)Nc2cccc(C(=O)Nc3ccc(S(N)(=O)=O)c(O)c3)c2)cc1

>  <score_type>  (72) 
oracle

>  <origin>  (72) 
adg

>  <m_score__min__energy>  (72) 
-16.43

>  <m_primary>  (72) 
energy

$$$$
72:0
     RDKit          3D

 57 61  0  0  0  0  0  0  0  0999 V2000
   59.2110   30.2400   46.6820 C   0  0  0  0  0  0  0  0  0  0  0  0
   58.8120   28.8010   46.5310 C   0  0  0  0  0  0  0  0  0  0  0  0
   58.9860   27.7940   47.4890 C   0  0  0  0  0  0  0  0  0  0  0  0
   59.6520   27.8880   48.8030 C   0  0  0  0  0  0  0  0  0  0  0  0
   60.4460   26.9750   49.1510 O   0  0  0  0  0  0  0  0  0  0  0  0
   59.4020   28.9680   49.7100 N   0  0  0  0  0  0  0  0  0  0  0  0
   60.3690   29.8810   50.2530 C   0  0  0  0  0  0  0  0  0  0  0  0
   61.6840   29.4850   50.5530 C   0  0  0  0  0  0  0  0  0  0  0  0
   62.5720   30.3880   51.1410 C   0  0  0  0  0  0  0  0  0  0  0  0
   62.1660   31.6890   51.4530 C   0  0  0  0  0  0  0  0  0  0  0  0
   63.0960   32.5450   52.0680 O   0  0  0  0  0  0  0  0  0  0  0  0
   64.4440   32.6610   51.7090 C   0  0  0  0  0  0  0  0  0  0  0  0
   65.4120   32.4990   52.7040 C   0  0  0  0  0  0  0  0  0  0  0  0
   66.7600   32.6600   52.3890 C   0  0  0  0  0  0  0  0  0  0  0  0
   67.1320   32.9550   51.1160 N   0  0  0  0  0  0  0  0  0  0  0  0
   66.2200   33.0900   50.1190 C   0  0  0  0  0  0  0  0  0  0  0  0
   64.8500   32.9260   50.3800 C   0  0  0  0  0  0  0  0  0  0  0  0
   63.8780   32.9880   49.2630 C   0  0  0  0  0  0  0  0  0  0  0  0
   63.8450   31.9820   48.2830 C   0  0  0  0  0  0  0  0  0  0  0  0
   62.9260   32.0540   47.2370 C   0  0  0  0  0  0  0  0  0  0  0  0
   62.0490   33.1360   47.1690 C   0  0  0  0  0  0  0  0  0  0  0  0
   62.0940   34.1100   48.1180 N   0  0  0  0  0  0  0  0  0  0  0  0
   62.9790   34.0610   49.1500 C   0  0  0  0  0  0  0  0  0  0  0  0
   60.8380   32.0780   51.1770 C   0  0  0  0  0  0  0  0  0  0  0  0
   60.3750   33.3040   51.5290 F   0  0  0  0  0  0  0  0  0  0  0  0
   59.9550   31.1760   50.5780 C   0  0  0  0  0  0  0  0  0  0  0  0
   58.3610   26.6760   46.9720 C   0  0  0  0  0  0  0  0  0  0  0  0
   58.2470   25.3800   47.4780 C   0  0  0  0  0  0  0  0  0  0  0  0
   57.5780   24.4220   46.6950 C   0  0  0  0  0  0  0  0  0  0  0  0
   57.4440   23.1200   47.1610 O   0  0  0  0  0  0  0  0  0  0  0  0
   57.0440   24.7760   45.4370 C   0  0  0  0  0  0  0  0  0  0  0  0
   57.1760   26.0890   44.9510 C   0  0  0  0  0  0  0  0  0  0  0  0
   57.8440   27.0240   45.7500 C   0  0  0  0  0  0  0  0  0  0  0  0
   58.0910   28.3250   45.4800 N   0  0  0  0  0  0  0  0  0  0  0  0
   57.6800   29.0680   44.2820 C   0  0  0  0  0  0  0  0  0  0  0  0
   56.4880   29.9330   44.5620 C   0  0  0  0  0  0  0  0  0  0  0  0
   55.2330   29.3250   44.8520 N   0  0  0  0  0  0  0  0  0  0  0  0
   56.5700   31.1890   44.4810 O   0  0  0  0  0  0  0  0  0  0  0  0
   59.2806   30.4910   47.7507 H   0  0  0  0  0  0  0  0  0  0  0  0
   60.1879   30.4018   46.2030 H   0  0  0  0  0  0  0  0  0  0  0  0
   58.4569   30.8818   46.2030 H   0  0  0  0  0  0  0  0  0  0  0  0
   62.0143   28.4611   50.3239 H   0  0  0  0  0  0  0  0  0  0  0  0
   63.6025   30.0723   51.3612 H   0  0  0  0  0  0  0  0  0  0  0  0
   65.1112   32.2455   53.7313 H   0  0  0  0  0  0  0  0  0  0  0  0
   67.5241   32.5480   53.1724 H   0  0  0  0  0  0  0  0  0  0  0  0
   66.5568   33.3295   49.0996 H   0  0  0  0  0  0  0  0  0  0  0  0
   64.5455   31.1359   48.3410 H   0  0  0  0  0  0  0  0  0  0  0  0
   62.8930   31.2642   46.4721 H   0  0  0  0  0  0  0  0  0  0  0  0
   61.3203   33.2021   46.3476 H   0  0  0  0  0  0  0  0  0  0  0  0
   62.9905   34.8659   49.8997 H   0  0  0  0  0  0  0  0  0  0  0  0
   58.9231   31.4882   50.3598 H   0  0  0  0  0  0  0  0  0  0  0  0
   58.6677   25.1159   48.4595 H   0  0  0  0  0  0  0  0  0  0  0  0
   56.5212   24.0198   44.8330 H   0  0  0  0  0  0  0  0  0  0  0  0
   56.7659   26.3731   43.9707 H   0  0  0  0  0  0  0  0  0  0  0  0
   58.5143   29.7035   43.9503 H   0  0  0  0  0  0  0  0  0  0  0  0
   57.4085   28.3440   43.4996 H   0  0  0  0  0  0  0  0  0  0  0  0
   55.1420   28.6210   45.6180 H   0  0  0  0  0  0  0  0  0  0  0  0
  1  2  1  0
  2  3  2  0
  3  4  1  0
  4  5  2  0
  4  6  1  0
  6  7  1  0
  7  8  2  0
  8  9  1  0
  9 10  2  0
 10 11  1  0
 11 12  1  0
 12 13  2  0
 13 14  1  0
 14 15  2  0
 15 16  1  0
 16 17  2  0
 17 18  1  0
 18 19  2  0
 19 20  1  0
 20 21  2  0
 21 22  1  0
 22 23  2  0
 10 24  1  0
 24 25  1  0
 24 26  2  0
  3 27  1  0
 27 28  2  0
 28 29  1  0
 29 30  1  0
 29 31  2  0
 31 32  1  0
 32 33  2  0
 33 34  1  0
 34 35  1  0
 35 36  1  0
 36 37  1  0
 36 38  2  0
 34  2  1  0
 26  7  1  0
 33 27  1  0
 17 12  1  0
 23 18  1  0
  1 39  1  0
  1 40  1  0
  1 41  1  0
  8 42  1  0
  9 43  1  0
 13 44  1  0
 14 45  1  0
 16 46  1  0
 19 47  1  0
 20 48  1  0
 21 49  1  0
 23 50  1  0
 26 51  1  0
 28 52  1  0
 31 53  1  0
 32 54  1  0
 35 55  1  0
 35 56  1  0
 37 57  1  0
M  CHG  3   6  -1  30  -1  37  -1
M  END
>  <UniqueID>  (73) 
69

>  <SMILES>  (73) 
Cc1c(C(=O)[N-]c2ccc(Oc3ccncc3-c3cccnc3)c(F)c2)c2cc([O-])ccc2n1CC([NH-])=O

>  <Energy>  (73) 
116.96398979623025

>  <Genealogy>  (73) 
Cc1c(C(=O)[N-]c2ccc(Oc3ccncc3-c3cccnc3)c(F)c2)c2cc([O-])ccc2n1CC([NH-])=O (protonated)
Cc1c(C(=O)[N-]c2ccc(Oc3ccncc3-c3cccnc3)c(F)c2)c2cc([O-])ccc2n1CC([NH-])=O (3D coordinates assigned)
Cc1c(C(=O)[N-]c2ccc(Oc3ccncc3-c3cccnc3)c(F)c2)c2cc([O-])ccc2n1CC([NH-])=O (optimized conformer: 116.96398979623025 kcal/mol)

>  <smiles>  (73) 
Cc1c(C(=O)Nc2ccc(Oc3ccncc3-c3cccnc3)c(F)c2)c2cc(O)ccc2n1CC(N)=O

>  <score_type>  (73) 
oracle

>  <origin>  (73) 
adg

>  <m_score__min__energy>  (73) 
-15.640000000000001

>  <m_primary>  (73) 
energy

$$$$
73:0
     RDKit          3D

 59 62  0  0  0  0  0  0  0  0999 V2000
   56.9950   33.8090   45.0060 O   0  0  0  0  0  0  0  0  0  0  0  0
   57.8880   32.9800   44.8710 C   0  0  0  0  0  0  0  0  0  0  0  0
   57.7280   31.9340   43.7870 C   0  0  0  0  0  0  0  0  0  0  0  0
   58.6180   30.8280   43.9480 O   0  0  0  0  0  0  0  0  0  0  0  0
   58.2720   29.5790   44.4890 C   0  0  0  0  0  0  0  0  0  0  0  0
   56.9490   29.2420   44.8300 C   0  0  0  0  0  0  0  0  0  0  0  0
   56.6450   27.9560   45.2860 C   0  0  0  0  0  0  0  0  0  0  0  0
   57.6620   27.0000   45.4260 C   0  0  0  0  0  0  0  0  0  0  0  0
   57.2850   25.3460   45.9030 S   0  0  0  0  0  0  0  0  0  0  0  0
   58.2000   24.9480   47.0270 O   0  0  0  0  0  0  0  0  0  0  0  0
   55.8610   25.2590   46.3830 O   0  0  0  0  0  0  0  0  0  0  0  0
   57.5180   24.2720   44.5440 N   0  0  0  0  0  0  0  0  0  0  0  0
   56.3090   24.2570   43.6980 C   0  0  0  0  0  0  0  0  0  0  0  0
   56.2660   22.9910   42.8280 C   0  0  0  0  0  0  0  0  0  0  0  0
   56.2750   21.7720   43.5630 O   0  0  0  0  0  0  0  0  0  0  0  0
   56.7730   21.9050   44.8860 C   0  0  0  0  0  0  0  0  0  0  0  0
   57.9230   22.9220   44.9960 C   0  0  0  0  0  0  0  0  0  0  0  0
   58.9830   27.3460   45.1240 C   0  0  0  0  0  0  0  0  0  0  0  0
   59.2860   28.6300   44.6630 C   0  0  0  0  0  0  0  0  0  0  0  0
   59.0320   32.9960   45.7690 N   0  0  0  0  0  0  0  0  0  0  0  0
   59.8320   34.2110   45.5580 C   0  0  0  0  0  0  0  0  0  0  0  0
   61.1350   34.1560   46.3580 C   0  0  0  0  0  0  0  0  0  0  0  0
   61.0040   33.5400   47.7000 N   0  0  0  0  0  0  0  0  0  0  0  0
   62.1810   33.4950   48.5680 C   0  0  0  0  0  0  0  0  0  0  0  0
   62.1950   34.1500   49.8240 C   0  0  0  0  0  0  0  0  0  0  0  0
   63.3200   34.0970   50.6520 C   0  0  0  0  0  0  0  0  0  0  0  0
   64.4550   33.3940   50.2530 C   0  0  0  0  0  0  0  0  0  0  0  0
   64.4670   32.7350   49.0250 C   0  0  0  0  0  0  0  0  0  0  0  0
   63.3480   32.7820   48.1890 C   0  0  0  0  0  0  0  0  0  0  0  0
   59.7710   32.8370   48.1300 C   0  0  0  0  0  0  0  0  0  0  0  0
   58.5820   32.9730   47.1670 C   0  0  0  0  0  0  0  0  0  0  0  0
   56.6941   31.5592   43.8104 H   0  0  0  0  0  0  0  0  0  0  0  0
   57.9670   32.4138   42.8264 H   0  0  0  0  0  0  0  0  0  0  0  0
   56.1510   29.9934   44.7374 H   0  0  0  0  0  0  0  0  0  0  0  0
   55.6064   27.6932   45.5355 H   0  0  0  0  0  0  0  0  0  0  0  0
   55.4179   24.2819   44.3424 H   0  0  0  0  0  0  0  0  0  0  0  0
   56.3299   25.1370   43.0383 H   0  0  0  0  0  0  0  0  0  0  0  0
   55.3483   23.0208   42.2223 H   0  0  0  0  0  0  0  0  0  0  0  0
   57.1820   22.9972   42.2190 H   0  0  0  0  0  0  0  0  0  0  0  0
   55.9508   22.2336   45.5387 H   0  0  0  0  0  0  0  0  0  0  0  0
   57.1704   20.9248   45.1882 H   0  0  0  0  0  0  0  0  0  0  0  0
   58.2447   22.9813   46.0462 H   0  0  0  0  0  0  0  0  0  0  0  0
   58.7417   22.5789   44.3464 H   0  0  0  0  0  0  0  0  0  0  0  0
   59.7862   26.6050   45.2498 H   0  0  0  0  0  0  0  0  0  0  0  0
   60.3286   28.8967   44.4353 H   0  0  0  0  0  0  0  0  0  0  0  0
   59.6330   32.1540   45.6050 H   0  0  0  0  0  0  0  0  0  0  0  0
   60.0705   34.3032   44.4881 H   0  0  0  0  0  0  0  0  0  0  0  0
   59.2480   35.0785   45.8991 H   0  0  0  0  0  0  0  0  0  0  0  0
   61.8682   33.5726   45.7817 H   0  0  0  0  0  0  0  0  0  0  0  0
   61.4482   35.1980   46.5200 H   0  0  0  0  0  0  0  0  0  0  0  0
   61.3066   34.7091   50.1529 H   0  0  0  0  0  0  0  0  0  0  0  0
   63.3092   34.6129   51.6235 H   0  0  0  0  0  0  0  0  0  0  0  0
   65.3396   33.3592   50.9058 H   0  0  0  0  0  0  0  0  0  0  0  0
   65.3610   32.1755   48.7124 H   0  0  0  0  0  0  0  0  0  0  0  0
   63.3722   32.2581   47.2221 H   0  0  0  0  0  0  0  0  0  0  0  0
   60.0059   31.7675   48.2346 H   0  0  0  0  0  0  0  0  0  0  0  0
   59.4598   33.3078   49.0742 H   0  0  0  0  0  0  0  0  0  0  0  0
   57.9034   32.1195   47.3117 H   0  0  0  0  0  0  0  0  0  0  0  0
   58.0651   33.9197   47.3826 H   0  0  0  0  0  0  0  0  0  0  0  0
  1  2  2  0
  2  3  1  0
  3  4  1  0
  4  5  1  0
  5  6  2  0
  6  7  1  0
  7  8  2  0
  8  9  1  0
  9 10  2  0
  9 11  2  0
  9 12  1  0
 12 13  1  0
 13 14  1  0
 14 15  1  0
 15 16  1  0
 16 17  1  0
  8 18  1  0
 18 19  2  0
  2 20  1  0
 20 21  1  0
 21 22  1  0
 22 23  1  0
 23 24  1  0
 24 25  2  0
 25 26  1  0
 26 27  2  0
 27 28  1  0
 28 29  2  0
 23 30  1  0
 30 31  1  0
 19  5  1  0
 31 20  1  0
 17 12  1  0
 29 24  1  0
  3 32  1  0
  3 33  1  0
  6 34  1  0
  7 35  1  0
 13 36  1  0
 13 37  1  0
 14 38  1  0
 14 39  1  0
 16 40  1  0
 16 41  1  0
 17 42  1  0
 17 43  1  0
 18 44  1  0
 19 45  1  0
 20 46  1  0
 21 47  1  0
 21 48  1  0
 22 49  1  0
 22 50  1  0
 25 51  1  0
 26 52  1  0
 27 53  1  0
 28 54  1  0
 29 55  1  0
 30 56  1  0
 30 57  1  0
 31 58  1  0
 31 59  1  0
M  CHG  1  20   1
M  END
>  <UniqueID>  (74) 
70

>  <SMILES>  (74) 
O=C(COc1ccc(S(=O)(=O)N2CCOCC2)cc1)[NH+]1CCN(c2ccccc2)CC1

>  <Energy>  (74) 
80.45445715115697

>  <Genealogy>  (74) 
O=C(COc1ccc(S(=O)(=O)N2CCOCC2)cc1)[NH+]1CCN(c2ccccc2)CC1 (protonated)
O=C(COc1ccc(S(=O)(=O)N2CCOCC2)cc1)[NH+]1CCN(c2ccccc2)CC1 (3D coordinates assigned)
O=C(COc1ccc(S(=O)(=O)N2CCOCC2)cc1)[NH+]1CCN(c2ccccc2)CC1 (nonaromatic ring conformer: 80.45445715115697 kcal/mol)

>  <smiles>  (74) 
O=C(COc1ccc(S(=O)(=O)N2CCOCC2)cc1)N1CCN(c2ccccc2)CC1

>  <score_type>  (74) 
oracle

>  <origin>  (74) 
adg

>  <m_score__min__energy>  (74) 
-7.7699999999999996

>  <m_primary>  (74) 
energy

$$$$
74:0
     RDKit          3D

 44 46  0  0  0  0  0  0  0  0999 V2000
   59.6514   28.8624   47.7824 H   0  0  0  0  0  0  0  0  0  0  0  0
   58.8220   28.8510   47.0600 C   0  0  0  0  0  0  0  0  0  0  0  0
   58.4810   29.9900   46.4010 N   0  0  0  0  0  0  0  0  0  0  0  0
   57.4490   30.0280   45.5100 C   0  0  0  0  0  0  0  0  0  0  0  0
   57.1380   31.1240   44.8780 N   0  0  0  0  0  0  0  0  0  0  0  0
   57.4390   32.4700   45.2860 C   0  0  0  0  0  0  0  0  0  0  0  0
   56.9940   33.4250   44.5900 O   0  0  0  0  0  0  0  0  0  0  0  0
   58.1680   32.7390   46.4960 N   0  0  0  0  0  0  0  0  0  0  0  0
   58.1840   32.0080   47.2430 H   0  0  0  0  0  0  0  0  0  0  0  0
   58.8430   33.9850   46.7460 C   0  0  0  0  0  0  0  0  0  0  0  0
   58.9120   34.8660   45.8430 O   0  0  0  0  0  0  0  0  0  0  0  0
   59.5450   34.2060   48.0550 C   0  0  0  0  0  0  0  0  0  0  0  0
   59.4057   35.2526   48.3637 H   0  0  0  0  0  0  0  0  0  0  0  0
   59.1150   33.5194   48.7991 H   0  0  0  0  0  0  0  0  0  0  0  0
   61.0210   33.9200   47.9420 C   0  0  0  0  0  0  0  0  0  0  0  0
   61.6290   33.8170   46.6780 C   0  0  0  0  0  0  0  0  0  0  0  0
   61.0294   33.9638   45.7675 H   0  0  0  0  0  0  0  0  0  0  0  0
   62.9960   33.5280   46.5750 C   0  0  0  0  0  0  0  0  0  0  0  0
   63.4698   33.4575   45.5848 H   0  0  0  0  0  0  0  0  0  0  0  0
   63.7590   33.3290   47.7310 C   0  0  0  0  0  0  0  0  0  0  0  0
   64.8327   33.1047   47.6487 H   0  0  0  0  0  0  0  0  0  0  0  0
   63.1580   33.4150   48.9910 C   0  0  0  0  0  0  0  0  0  0  0  0
   63.7582   33.2531   49.8985 H   0  0  0  0  0  0  0  0  0  0  0  0
   61.7930   33.7070   49.0980 C   0  0  0  0  0  0  0  0  0  0  0  0
   61.3224   33.7701   50.0903 H   0  0  0  0  0  0  0  0  0  0  0  0
   56.7290   28.8570   45.2410 C   0  0  0  0  0  0  0  0  0  0  0  0
   55.8912   28.8745   44.5285 H   0  0  0  0  0  0  0  0  0  0  0  0
   57.0820   27.6620   45.8850 C   0  0  0  0  0  0  0  0  0  0  0  0
   56.3070   26.4330   45.6240 C   0  0  0  0  0  0  0  0  0  0  0  0
   55.1600   26.3340   46.1410 O   0  0  0  0  0  0  0  0  0  0  0  0
   56.8070   25.3600   44.7860 N   0  0  1  0  0  0  0  0  0  0  0  0
   57.0250   25.7540   43.8370 H   0  0  0  0  0  0  0  0  0  0  0  0
   58.0380   24.7530   45.3090 C   0  0  0  0  0  0  0  0  0  0  0  0
   57.9498   24.6136   46.3966 H   0  0  0  0  0  0  0  0  0  0  0  0
   58.8976   25.4078   45.1032 H   0  0  0  0  0  0  0  0  0  0  0  0
   58.2760   23.1400   44.5010 S   0  0  0  0  0  0  0  0  0  0  0  0
   56.5480   23.1200   43.9400 C   0  0  0  0  0  0  0  0  0  0  0  0
   56.0718   22.1706   44.2261 H   0  0  0  0  0  0  0  0  0  0  0  0
   56.4963   23.2155   42.8454 H   0  0  0  0  0  0  0  0  0  0  0  0
   55.8330   24.2810   44.6110 C   0  0  0  0  0  0  0  0  0  0  0  0
   55.4428   23.9657   45.5899 H   0  0  0  0  0  0  0  0  0  0  0  0
   54.9869   24.6208   43.9957 H   0  0  0  0  0  0  0  0  0  0  0  0
   58.1220   27.6670   46.8220 C   0  0  0  0  0  0  0  0  0  0  0  0
   58.3849   26.7473   47.3652 H   0  0  0  0  0  0  0  0  0  0  0  0
  1  2  1  0
  2  3  1  0
  3  4  1  0
  4  5  2  0
  5  6  1  0
  6  7  2  0
  6  8  1  0
  8  9  1  0
  8 10  1  0
 10 11  2  0
 10 12  1  0
 12 13  1  0
 12 14  1  0
 12 15  1  0
 15 16  2  0
 16 17  1  0
 16 18  1  0
 18 19  1  0
 18 20  2  0
 20 21  1  0
 20 22  1  0
 22 23  1  0
 22 24  2  0
 24 25  1  0
  4 26  1  0
 26 27  1  0
 26 28  2  0
 28 29  1  0
 29 30  2  0
 29 31  1  0
 31 32  1  6
 31 33  1  0
 33 34  1  0
 33 35  1  0
 33 36  1  0
 36 37  1  0
 37 38  1  0
 37 39  1  0
 37 40  1  0
 40 41  1  0
 40 42  1  0
 28 43  1  0
 43 44  1  0
 43  2  2  0
 24 15  1  0
 40 31  1  0
M  CHG  2   3  -1  31   1
M  END
>  <UniqueID>  (75) 
71

>  <SMILES>  (75) 
O=C(Cc1ccccc1)NC(=O)/N=c1/cc(C(=O)[N@@H+]2CCSC2)cc[n-]1

>  <Energy>  (75) 
58.51545280320552

>  <Genealogy>  (75) 
O=C(Cc1ccccc1)NC(=O)N=c1cc(C(=O)[NH+]2CCSC2)cc[n-]1 (protonated)
O=C(Cc1ccccc1)NC(=O)N=c1cc(C(=O)[N@@H+]2CCSC2)cc[n-]1 (chirality)
O=C(Cc1ccccc1)NC(=O)/N=c1/cc(C(=O)[N@@H+]2CCSC2)cc[n-]1 (cis-trans isomerization)
O=C(Cc1ccccc1)NC(=O)/N=c1/cc(C(=O)[N@@H+]2CCSC2)cc[n-]1 (3D coordinates assigned)
O=C(Cc1ccccc1)NC(=O)/N=c1/cc(C(=O)[N@@H+]2CCSC2)cc[n-]1 (nonaromatic ring conformer: 58.51545280320552 kcal/mol)

>  <smiles>  (75) 
O=C(Cc1ccccc1)NC(=O)N=c1cc(C(=O)N2CCSC2)cc[nH]1

>  <score_type>  (75) 
oracle

>  <origin>  (75) 
adg

>  <m_score__min__energy>  (75) 
-8.6600000000000001

>  <m_primary>  (75) 
energy

$$$$
75:0
     RDKit          3D

 60 63  0  0  0  0  0  0  0  0999 V2000
   56.3150   29.6760   44.6160 C   0  0  0  0  0  0  0  0  0  0  0  0
   56.8600   28.5410   45.4910 C   0  0  1  0  0  0  0  0  0  0  0  0
   55.8850   27.4630   45.6170 N   0  0  0  0  0  0  0  0  0  0  0  0
   56.1960   26.0940   45.8830 C   0  0  0  0  0  0  0  0  0  0  0  0
   55.5190   25.4400   46.7240 O   0  0  0  0  0  0  0  0  0  0  0  0
   57.2250   25.4880   45.1510 O   0  0  0  0  0  0  0  0  0  0  0  0
   57.1810   24.2240   44.5430 C   0  0  0  0  0  0  0  0  0  0  0  0
   56.2280   23.8780   43.5660 C   0  0  0  0  0  0  0  0  0  0  0  0
   56.2330   22.5980   43.0000 C   0  0  0  0  0  0  0  0  0  0  0  0
   57.1770   21.6530   43.4110 C   0  0  0  0  0  0  0  0  0  0  0  0
   58.1100   21.9830   44.3960 C   0  0  0  0  0  0  0  0  0  0  0  0
   58.1040   23.2580   44.9660 C   0  0  0  0  0  0  0  0  0  0  0  0
   58.1520   27.9980   44.9210 C   0  0  0  0  0  0  0  0  0  0  0  0
   58.1790   27.6490   43.7110 O   0  0  0  0  0  0  0  0  0  0  0  0
   59.3250   27.7840   45.7220 N   0  0  0  0  0  0  0  0  0  0  0  0
   59.6140   28.4540   46.9520 C   0  0  0  0  0  0  0  0  0  0  0  0
   59.4010   29.8330   47.0820 C   0  0  0  0  0  0  0  0  0  0  0  0
   59.6090   30.4630   48.3110 C   0  0  0  0  0  0  0  0  0  0  0  0
   60.0660   29.7270   49.4160 C   0  0  0  0  0  0  0  0  0  0  0  0
   60.1520   30.3710   50.7710 C   0  0  0  0  0  0  0  0  0  0  0  0
   58.7760   30.4530   51.3780 C   0  0  0  0  0  0  0  0  0  0  0  0
   58.2760   29.3900   52.1440 C   0  0  0  0  0  0  0  0  0  0  0  0
   56.9680   29.4280   52.6380 C   0  0  0  0  0  0  0  0  0  0  0  0
   56.1380   30.5290   52.3670 C   0  0  0  0  0  0  0  0  0  0  0  0
   54.7770   30.5670   52.8330 N   0  0  0  0  0  0  0  0  0  0  0  0
   53.7370   30.8230   52.0590 N   0  0  0  0  0  0  0  0  0  0  0  0
   52.6550   30.7750   52.8670 C   0  0  0  0  0  0  0  0  0  0  0  0
   51.2470   30.9280   52.3840 C   0  0  0  0  0  0  0  0  0  0  0  0
   51.0420   32.2430   51.6990 C   0  0  0  0  0  0  0  0  0  0  0  0
   51.0210   32.3090   50.2750 N   0  0  0  0  0  0  0  0  0  0  0  0
   50.8670   33.2900   52.3780 O   0  0  0  0  0  0  0  0  0  0  0  0
   52.9700   30.4800   54.1490 N   0  0  0  0  0  0  0  0  0  0  0  0
   54.3090   30.3680   54.0800 C   0  0  0  0  0  0  0  0  0  0  0  0
   55.0330   30.1330   55.0830 O   0  0  0  0  0  0  0  0  0  0  0  0
   56.6370   31.5850   51.5880 C   0  0  0  0  0  0  0  0  0  0  0  0
   57.9460   31.5490   51.0990 C   0  0  0  0  0  0  0  0  0  0  0  0
   60.3370   28.3560   49.2650 C   0  0  0  0  0  0  0  0  0  0  0  0
   60.1280   27.7280   48.0330 C   0  0  0  0  0  0  0  0  0  0  0  0
   55.9285   30.4810   45.2584 H   0  0  0  0  0  0  0  0  0  0  0  0
   57.1224   30.0694   43.9809 H   0  0  0  0  0  0  0  0  0  0  0  0
   55.5031   29.2919   43.9809 H   0  0  0  0  0  0  0  0  0  0  0  0
   57.0571   28.9560   46.4905 H   0  0  0  0  0  0  0  0  0  0  0  0
   55.4773   24.6159   43.2466 H   0  0  0  0  0  0  0  0  0  0  0  0
   55.4925   22.3353   42.2302 H   0  0  0  0  0  0  0  0  0  0  0  0
   57.1850   20.6502   42.9590 H   0  0  0  0  0  0  0  0  0  0  0  0
   58.8503   21.2382   44.7233 H   0  0  0  0  0  0  0  0  0  0  0  0
   58.8302   23.5062   45.7540 H   0  0  0  0  0  0  0  0  0  0  0  0
   59.0690   30.4209   46.2136 H   0  0  0  0  0  0  0  0  0  0  0  0
   59.4139   31.5407   48.4138 H   0  0  0  0  0  0  0  0  0  0  0  0
   60.8042   29.7699   51.4216 H   0  0  0  0  0  0  0  0  0  0  0  0
   60.5679   31.3842   50.6689 H   0  0  0  0  0  0  0  0  0  0  0  0
   58.9162   28.5213   52.3576 H   0  0  0  0  0  0  0  0  0  0  0  0
   56.5869   28.5914   53.2420 H   0  0  0  0  0  0  0  0  0  0  0  0
   51.0220   30.1171   51.6757 H   0  0  0  0  0  0  0  0  0  0  0  0
   50.5766   30.8843   53.2550 H   0  0  0  0  0  0  0  0  0  0  0  0
   50.1180   32.3420   49.7540 H   0  0  0  0  0  0  0  0  0  0  0  0
   55.9930   32.4473   51.3607 H   0  0  0  0  0  0  0  0  0  0  0  0
   58.3270   32.3839   50.4926 H   0  0  0  0  0  0  0  0  0  0  0  0
   60.7149   27.7749   50.1191 H   0  0  0  0  0  0  0  0  0  0  0  0
   60.3680   26.6612   47.9131 H   0  0  0  0  0  0  0  0  0  0  0  0
  1  2  1  0
  2  3  1  0
  3  4  1  0
  4  5  2  0
  4  6  1  0
  6  7  1  0
  7  8  2  0
  8  9  1  0
  9 10  2  0
 10 11  1  0
 11 12  2  0
  2 13  1  0
 13 14  2  0
 13 15  1  0
 15 16  1  0
 16 17  2  0
 17 18  1  0
 18 19  2  0
 19 20  1  0
 20 21  1  0
 21 22  2  0
 22 23  1  0
 23 24  2  0
 24 25  1  0
 25 26  1  0
 26 27  2  0
 27 28  1  0
 28 29  1  0
 29 30  1  0
 29 31  2  0
 27 32  1  0
 32 33  1  0
 33 34  2  0
 24 35  1  0
 35 36  2  0
 19 37  1  0
 37 38  2  0
 12  7  1  0
 38 16  1  0
 36 21  1  0
 33 25  1  0
  1 39  1  0
  1 40  1  0
  1 41  1  0
  2 42  1  1
  8 43  1  0
  9 44  1  0
 10 45  1  0
 11 46  1  0
 12 47  1  0
 17 48  1  0
 18 49  1  0
 20 50  1  0
 20 51  1  0
 22 52  1  0
 23 53  1  0
 28 54  1  0
 28 55  1  0
 30 56  1  0
 35 57  1  0
 36 58  1  0
 37 59  1  0
 38 60  1  0
M  CHG  4   3  -1  15  -1  30  -1  32  -1
M  END
>  <UniqueID>  (76) 
72

>  <SMILES>  (76) 
C[C@@H]([N-]C(=O)Oc1ccccc1)C(=O)[N-]c1ccc(Cc2ccc(-n3nc(CC([NH-])=O)[n-]c3=O)cc2)cc1

>  <Energy>  (76) 
103.5504376303153

>  <Genealogy>  (76) 
CC([N-]C(=O)Oc1ccccc1)C(=O)[N-]c1ccc(Cc2ccc(-n3nc(CC([NH-])=O)[n-]c3=O)cc2)cc1 (protonated)
C[C@@H]([N-]C(=O)Oc1ccccc1)C(=O)[N-]c1ccc(Cc2ccc(-n3nc(CC([NH-])=O)[n-]c3=O)cc2)cc1 (chirality)
C[C@@H]([N-]C(=O)Oc1ccccc1)C(=O)[N-]c1ccc(Cc2ccc(-n3nc(CC([NH-])=O)[n-]c3=O)cc2)cc1 (3D coordinates assigned)
C[C@@H]([N-]C(=O)Oc1ccccc1)C(=O)[N-]c1ccc(Cc2ccc(-n3nc(CC([NH-])=O)[n-]c3=O)cc2)cc1 (optimized conformer: 103.5504376303153 kcal/mol)

>  <smiles>  (76) 
CC(NC(=O)Oc1ccccc1)C(=O)Nc1ccc(Cc2ccc(-n3nc(CC(N)=O)[nH]c3=O)cc2)cc1

>  <score_type>  (76) 
oracle

>  <origin>  (76) 
adg

>  <m_score__min__energy>  (76) 
-16.98

>  <m_primary>  (76) 
energy

$$$$
76:0
     RDKit          3D

 54 57  0  0  0  0  0  0  0  0999 V2000
   59.2530   29.8940   47.1030 H   0  0  0  0  0  0  0  0  0  0  0  0
   60.1060   29.3670   47.2410 O   0  0  0  0  0  0  0  0  0  0  0  0
   60.3700   28.6980   48.4340 C   0  0  0  0  0  0  0  0  0  0  0  0
   60.2970   27.3640   48.5610 N   0  0  0  0  0  0  0  0  0  0  0  0
   60.6790   27.1620   49.8390 C   0  0  0  0  0  0  0  0  0  0  0  0
   60.7500   26.0150   50.3520 O   0  0  0  0  0  0  0  0  0  0  0  0
   60.9910   28.2850   50.5220 N   0  0  0  0  0  0  0  0  0  0  0  0
   60.7660   29.2650   49.6300 C   0  0  0  0  0  0  0  0  0  0  0  0
   61.0550   30.6820   49.8970 C   0  0  0  0  0  0  0  0  0  0  0  0
   61.4193   30.9399   50.9024 H   0  0  0  0  0  0  0  0  0  0  0  0
   60.9120   31.6920   49.0160 C   0  0  0  0  0  0  0  0  0  0  0  0
   61.9760   32.2280   48.3130 C   0  0  0  0  0  0  0  0  0  0  0  0
   63.0402   31.9848   48.4481 H   0  0  0  0  0  0  0  0  0  0  0  0
   61.4460   33.1260   47.4100 C   0  0  0  0  0  0  0  0  0  0  0  0
   62.2480   33.8640   46.3800 C   0  0  0  0  0  0  0  0  0  0  0  0
   62.9683   34.5268   46.8819 H   0  0  0  0  0  0  0  0  0  0  0  0
   62.7902   33.1424   45.7513 H   0  0  0  0  0  0  0  0  0  0  0  0
   61.5738   34.4642   45.7513 H   0  0  0  0  0  0  0  0  0  0  0  0
   60.1040   33.2110   47.5550 N   0  0  0  0  0  0  0  0  0  0  0  0
   59.1980   33.9680   46.6760 C   0  0  0  0  0  0  0  0  0  0  0  0
   58.3873   34.4065   47.2764 H   0  0  0  0  0  0  0  0  0  0  0  0
   59.7606   34.7696   46.1751 H   0  0  0  0  0  0  0  0  0  0  0  0
   58.6130   33.0480   45.6420 C   0  0  0  0  0  0  0  0  0  0  0  0
   58.4770   31.7270   45.9320 N   0  0  0  0  0  0  0  0  0  0  0  0
   58.0060   30.8200   45.0350 C   0  0  0  0  0  0  0  0  0  0  0  0
   57.9410   29.5720   45.3940 N   0  0  0  0  0  0  0  0  0  0  0  0
   56.7690   28.7030   45.3230 C   0  0  0  0  0  0  0  0  0  0  0  0
   55.9633   29.1173   45.9468 H   0  0  0  0  0  0  0  0  0  0  0  0
   56.4177   28.6336   44.2829 H   0  0  0  0  0  0  0  0  0  0  0  0
   57.1470   27.3370   45.8270 C   0  0  0  0  0  0  0  0  0  0  0  0
   58.4990   26.9790   45.9370 C   0  0  0  0  0  0  0  0  0  0  0  0
   59.2816   27.7133   45.6952 H   0  0  0  0  0  0  0  0  0  0  0  0
   58.8550   25.6950   46.3520 C   0  0  0  0  0  0  0  0  0  0  0  0
   59.9171   25.4251   46.4478 H   0  0  0  0  0  0  0  0  0  0  0  0
   57.8690   24.7520   46.6460 C   0  0  0  0  0  0  0  0  0  0  0  0
   58.1570   23.7416   46.9719 H   0  0  0  0  0  0  0  0  0  0  0  0
   56.5070   25.0890   46.5270 C   0  0  0  0  0  0  0  0  0  0  0  0
   55.4830   24.1680   46.8000 O   0  0  0  0  0  0  0  0  0  0  0  0
   54.4990   23.7550   45.8580 C   0  0  0  0  0  0  0  0  0  0  0  0
   53.6127   23.3830   46.3929 H   0  0  0  0  0  0  0  0  0  0  0  0
   54.2144   24.6096   45.2266 H   0  0  0  0  0  0  0  0  0  0  0  0
   54.9095   22.9533   45.2266 H   0  0  0  0  0  0  0  0  0  0  0  0
   56.1530   26.3820   46.1180 C   0  0  0  0  0  0  0  0  0  0  0  0
   54.8060   26.7140   45.9950 O   0  0  0  0  0  0  0  0  0  0  0  0
   57.6280   31.2620   43.7520 C   0  0  0  0  0  0  0  0  0  0  0  0
   57.2406   30.5480   43.0103 H   0  0  0  0  0  0  0  0  0  0  0  0
   57.7500   32.6160   43.4310 C   0  0  0  0  0  0  0  0  0  0  0  0
   57.4529   32.9730   42.4339 H   0  0  0  0  0  0  0  0  0  0  0  0
   58.2480   33.5160   44.3730 C   0  0  0  0  0  0  0  0  0  0  0  0
   58.3530   34.5819   44.1222 H   0  0  0  0  0  0  0  0  0  0  0  0
   59.7620   32.3560   48.5580 C   0  0  0  0  0  0  0  0  0  0  0  0
   58.5220   32.2610   49.0650 C   0  0  0  0  0  0  0  0  0  0  0  0
   57.6985   32.8351   48.6153 H   0  0  0  0  0  0  0  0  0  0  0  0
   58.3299   31.6091   49.9299 H   0  0  0  0  0  0  0  0  0  0  0  0
  1  2  1  0
  2  3  1  0
  3  4  1  0
  4  5  1  0
  5  6  2  0
  5  7  1  0
  7  8  1  0
  8  9  1  0
  9 10  1  0
  9 11  2  3
 11 12  1  0
 12 13  1  0
 12 14  2  0
 14 15  1  0
 15 16  1  0
 15 17  1  0
 15 18  1  0
 14 19  1  0
 19 20  1  0
 20 21  1  0
 20 22  1  0
 20 23  1  0
 23 24  1  0
 24 25  1  0
 25 26  2  0
 26 27  1  0
 27 28  1  0
 27 29  1  0
 27 30  1  0
 30 31  2  0
 31 32  1  0
 31 33  1  0
 33 34  1  0
 33 35  2  0
 35 36  1  0
 35 37  1  0
 37 38  1  0
 38 39  1  0
 39 40  1  0
 39 41  1  0
 39 42  1  0
 37 43  2  0
 43 44  1  0
 25 45  1  0
 45 46  1  0
 45 47  2  0
 47 48  1  0
 47 49  1  0
 49 50  1  0
 19 51  1  0
 51 52  2  0
 52 53  1  0
 52 54  1  0
  8  3  2  0
 51 11  1  0
 49 23  2  0
 43 30  1  0
M  CHG  4   4  -1   7  -1  24  -1  44  -1
M  END
>  <UniqueID>  (77) 
73

>  <SMILES>  (77) 
C=c1c(=Cc2[n-]c(=O)[n-]c2O)cc(C)n1Cc1ccc/c(=N\Cc2cccc(OC)c2[O-])[n-]1

>  <Energy>  (77) 
126.37909233896923

>  <Genealogy>  (77) 
C=c1c(=Cc2[n-]c(=O)[n-]c2O)cc(C)n1Cc1cccc(=NCc2cccc(OC)c2[O-])[n-]1 (protonated)
C=c1c(=Cc2[n-]c(=O)[n-]c2O)cc(C)n1Cc1ccc/c(=N\Cc2cccc(OC)c2[O-])[n-]1 (cis-trans isomerization)
C=c1c(=Cc2[n-]c(=O)[n-]c2O)cc(C)n1Cc1ccc/c(=N\Cc2cccc(OC)c2[O-])[n-]1 (3D coordinates assigned)
C=c1c(=Cc2[n-]c(=O)[n-]c2O)cc(C)n1Cc1ccc/c(=N\Cc2cccc(OC)c2[O-])[n-]1 (optimized conformer: 126.37909233896923 kcal/mol)

>  <smiles>  (77) 
C=c1c(=Cc2[nH]c(=O)[nH]c2O)cc(C)n1Cc1cccc(=NCc2cccc(OC)c2O)[nH]1

>  <score_type>  (77) 
oracle

>  <origin>  (77) 
adg

>  <m_score__min__energy>  (77) 
-16.420000000000002

>  <m_primary>  (77) 
energy

$$$$
77:0
     RDKit          3D

 36 38  0  0  0  0  0  0  0  0999 V2000
   54.9560   30.0600   51.2810 O   0  0  0  0  0  0  0  0  0  0  0  0
   54.5940   31.0160   52.0180 C   0  0  0  0  0  0  0  0  0  0  0  0
   53.1570   31.1470   52.4080 C   0  0  0  0  0  0  0  0  0  0  0  0
   52.2960   31.1330   51.1840 C   0  0  0  0  0  0  0  0  0  0  0  0
   52.4030   30.0070   49.9350 S   0  0  0  0  0  0  0  0  0  0  0  0
   51.2210   30.7830   49.0260 C   0  0  0  0  0  0  0  0  0  0  0  0
   50.8200   30.3880   47.9010 O   0  0  0  0  0  0  0  0  0  0  0  0
   50.7430   31.8920   49.6290 N   0  0  0  0  0  0  0  0  0  0  0  0
   51.3470   32.0900   50.8300 C   0  0  0  0  0  0  0  0  0  0  0  0
   51.0360   33.1810   51.6320 O   0  0  0  0  0  0  0  0  0  0  0  0
   55.5430   31.9790   52.4940 N   0  0  0  0  0  0  0  0  0  0  0  0
   56.8640   32.2000   51.9800 C   0  0  0  0  0  0  0  0  0  0  0  0
   57.2890   31.4530   50.8750 C   0  0  0  0  0  0  0  0  0  0  0  0
   58.5760   31.6200   50.3560 C   0  0  0  0  0  0  0  0  0  0  0  0
   59.4720   32.5200   50.9600 C   0  0  0  0  0  0  0  0  0  0  0  0
   60.7910   32.7300   50.4290 N   0  0  0  0  0  0  0  0  0  0  0  0
   61.0700   33.1310   49.0760 C   0  0  0  0  0  0  0  0  0  0  0  0
   60.1090   33.8090   48.3020 C   0  0  0  0  0  0  0  0  0  0  0  0
   60.3920   34.1640   46.9800 C   0  0  0  0  0  0  0  0  0  0  0  0
   61.6270   33.8330   46.4150 C   0  0  0  0  0  0  0  0  0  0  0  0
   62.5770   33.1400   47.1690 C   0  0  0  0  0  0  0  0  0  0  0  0
   62.2970   32.7830   48.4920 C   0  0  0  0  0  0  0  0  0  0  0  0
   59.0470   33.2680   52.0660 C   0  0  0  0  0  0  0  0  0  0  0  0
   57.7590   33.1000   52.5840 C   0  0  0  0  0  0  0  0  0  0  0  0
   52.8777   30.3067   53.0605 H   0  0  0  0  0  0  0  0  0  0  0  0
   53.0113   32.0967   52.9436 H   0  0  0  0  0  0  0  0  0  0  0  0
   56.6040   30.7281   50.4110 H   0  0  0  0  0  0  0  0  0  0  0  0
   58.8892   31.0453   49.4719 H   0  0  0  0  0  0  0  0  0  0  0  0
   61.6040   32.5800   51.0700 H   0  0  0  0  0  0  0  0  0  0  0  0
   59.1315   34.0604   48.7394 H   0  0  0  0  0  0  0  0  0  0  0  0
   59.6421   34.7044   46.3836 H   0  0  0  0  0  0  0  0  0  0  0  0
   61.8508   34.1183   45.3765 H   0  0  0  0  0  0  0  0  0  0  0  0
   63.5463   32.8748   46.7218 H   0  0  0  0  0  0  0  0  0  0  0  0
   63.0432   32.2262   49.0778 H   0  0  0  0  0  0  0  0  0  0  0  0
   59.7318   33.9929   52.5303 H   0  0  0  0  0  0  0  0  0  0  0  0
   57.4449   33.6746   53.4679 H   0  0  0  0  0  0  0  0  0  0  0  0
  1  2  2  0
  2  3  1  0
  3  4  1  0
  4  5  1  0
  5  6  1  0
  6  7  2  0
  6  8  1  0
  8  9  1  0
  9 10  1  0
  2 11  1  0
 11 12  1  0
 12 13  2  0
 13 14  1  0
 14 15  2  0
 15 16  1  0
 16 17  1  0
 17 18  2  0
 18 19  1  0
 19 20  2  0
 20 21  1  0
 21 22  2  0
 15 23  1  0
 23 24  2  0
  9  4  2  0
 24 12  1  0
 22 17  1  0
  3 25  1  0
  3 26  1  0
 13 27  1  0
 14 28  1  0
 16 29  1  0
 18 30  1  0
 19 31  1  0
 20 32  1  0
 21 33  1  0
 22 34  1  0
 23 35  1  0
 24 36  1  0
M  CHG  3   8  -1  10  -1  11  -1
M  END
>  <UniqueID>  (78) 
74

>  <SMILES>  (78) 
O=C(Cc1sc(=O)[n-]c1[O-])[N-]c1ccc(Nc2ccccc2)cc1

>  <Energy>  (78) 
75.97314899645964

>  <Genealogy>  (78) 
O=C(Cc1sc(=O)[n-]c1[O-])[N-]c1ccc(Nc2ccccc2)cc1 (protonated)
O=C(Cc1sc(=O)[n-]c1[O-])[N-]c1ccc(Nc2ccccc2)cc1 (3D coordinates assigned)
O=C(Cc1sc(=O)[n-]c1[O-])[N-]c1ccc(Nc2ccccc2)cc1 (optimized conformer: 75.97314899645964 kcal/mol)

>  <smiles>  (78) 
O=C(Cc1sc(=O)[nH]c1O)Nc1ccc(Nc2ccccc2)cc1

>  <score_type>  (78) 
oracle

>  <origin>  (78) 
adg

>  <m_score__min__energy>  (78) 
-15.69

>  <m_primary>  (78) 
energy

$$$$
78:0
     RDKit          3D

 59 62  0  0  0  0  0  0  0  0999 V2000
   56.9502   27.4468   46.8038 H   0  0  0  0  0  0  0  0  0  0  0  0
   57.0930   27.9380   45.8300 C   0  0  0  0  0  0  0  0  0  0  0  0
   56.7440   29.2420   45.6710 N   0  0  0  0  0  0  0  0  0  0  0  0
   56.8970   29.8980   44.4880 C   0  0  0  0  0  0  0  0  0  0  0  0
   56.5380   31.1490   44.4230 N   0  0  0  0  0  0  0  0  0  0  0  0
   57.3660   32.2670   44.0720 C   0  0  0  0  0  0  0  0  0  0  0  0
   57.6580   32.4580   42.8620 O   0  0  0  0  0  0  0  0  0  0  0  0
   57.7210   33.3120   45.0900 C   0  0  0  0  0  0  0  0  0  0  0  0
   58.4647   34.0008   44.6627 H   0  0  0  0  0  0  0  0  0  0  0  0
   56.8157   33.8715   45.3682 H   0  0  0  0  0  0  0  0  0  0  0  0
   58.2920   32.6570   46.3080 C   0  0  0  0  0  0  0  0  0  0  0  0
   59.4110   33.0480   47.0190 C   0  0  0  0  0  0  0  0  0  0  0  0
   60.2180   34.2570   46.8230 C   0  0  0  0  0  0  0  0  0  0  0  0
   59.6560   35.3820   46.8840 O   0  0  0  0  0  0  0  0  0  0  0  0
   61.6200   34.1900   46.5380 N   0  0  0  0  0  0  0  0  0  0  0  0
   62.6780   32.9330   47.0980 S   0  0  0  0  0  0  0  0  0  0  0  0
   64.0100   33.0570   46.4120 O   0  0  0  0  0  0  0  0  0  0  0  0
   62.0780   31.5990   46.7590 O   0  0  0  0  0  0  0  0  0  0  0  0
   62.8710   33.0290   48.8480 C   0  0  0  0  0  0  0  0  0  0  0  0
   62.8030   34.2760   49.4850 C   0  0  0  0  0  0  0  0  0  0  0  0
   62.5839   35.1804   48.8985 H   0  0  0  0  0  0  0  0  0  0  0  0
   63.0130   34.3730   50.8640 C   0  0  0  0  0  0  0  0  0  0  0  0
   62.9633   35.3537   51.3598 H   0  0  0  0  0  0  0  0  0  0  0  0
   63.2860   33.2250   51.6130 C   0  0  0  0  0  0  0  0  0  0  0  0
   63.4544   33.3027   52.6972 H   0  0  0  0  0  0  0  0  0  0  0  0
   63.3450   31.9780   50.9840 C   0  0  0  0  0  0  0  0  0  0  0  0
   63.5536   31.0738   51.5748 H   0  0  0  0  0  0  0  0  0  0  0  0
   63.1390   31.8790   49.6040 C   0  0  0  0  0  0  0  0  0  0  0  0
   63.1874   30.8969   49.1109 H   0  0  0  0  0  0  0  0  0  0  0  0
   59.6540   32.1390   47.9330 O   0  0  0  0  0  0  0  0  0  0  0  0
   58.7350   31.2060   47.8050 C   0  0  0  0  0  0  0  0  0  0  0  0
   58.6260   29.9920   48.6820 C   0  0  0  0  0  0  0  0  0  0  0  0
   57.5650   29.8270   48.9210 H   0  0  0  0  0  0  0  0  0  0  0  0
   59.0598   29.1469   48.1273 H   0  0  0  0  0  0  0  0  0  0  0  0
   59.4080   30.1260   49.9970 C   0  0  0  0  0  0  0  0  0  0  0  0
   59.2458   29.2205   50.6002 H   0  0  0  0  0  0  0  0  0  0  0  0
   60.4717   30.2536   49.7475 H   0  0  0  0  0  0  0  0  0  0  0  0
   58.9700   31.3290   50.7970 C   0  0  0  0  0  0  0  0  0  0  0  0
   57.7510   31.3070   51.4950 C   0  0  0  0  0  0  0  0  0  0  0  0
   57.1059   30.4175   51.4439 H   0  0  0  0  0  0  0  0  0  0  0  0
   57.3550   32.4130   52.2550 C   0  0  0  0  0  0  0  0  0  0  0  0
   56.3993   32.3912   52.7993 H   0  0  0  0  0  0  0  0  0  0  0  0
   58.1710   33.5450   52.3240 C   0  0  0  0  0  0  0  0  0  0  0  0
   57.8584   34.4122   52.9241 H   0  0  0  0  0  0  0  0  0  0  0  0
   59.3840   33.5760   51.6310 C   0  0  0  0  0  0  0  0  0  0  0  0
   60.0255   34.4679   51.6853 H   0  0  0  0  0  0  0  0  0  0  0  0
   59.7830   32.4730   50.8680 C   0  0  0  0  0  0  0  0  0  0  0  0
   60.7372   32.5015   50.3214 H   0  0  0  0  0  0  0  0  0  0  0  0
   57.8720   31.4810   46.8070 N   0  0  0  0  0  0  0  0  0  0  0  0
   57.0650   30.9030   46.4830 H   0  0  0  0  0  0  0  0  0  0  0  0
   57.3950   29.1920   43.3740 C   0  0  0  0  0  0  0  0  0  0  0  0
   57.4929   29.6925   42.3994 H   0  0  0  0  0  0  0  0  0  0  0  0
   57.7630   27.8530   43.5170 C   0  0  0  0  0  0  0  0  0  0  0  0
   58.1551   27.2961   42.6532 H   0  0  0  0  0  0  0  0  0  0  0  0
   57.6340   27.2180   44.7570 C   0  0  0  0  0  0  0  0  0  0  0  0
   57.9860   25.7680   44.9130 C   0  0  0  0  0  0  0  0  0  0  0  0
   58.0466   25.5184   45.9826 H   0  0  0  0  0  0  0  0  0  0  0  0
   57.2120   25.1493   44.4354 H   0  0  0  0  0  0  0  0  0  0  0  0
   58.9575   25.5731   44.4354 H   0  0  0  0  0  0  0  0  0  0  0  0
  1  2  1  0
  2  3  1  0
  3  4  1  0
  4  5  2  0
  5  6  1  0
  6  7  2  0
  6  8  1  0
  8  9  1  0
  8 10  1  0
  8 11  1  0
 11 12  2  0
 12 13  1  0
 13 14  2  0
 13 15  1  0
 15 16  1  0
 16 17  2  0
 16 18  2  0
 16 19  1  0
 19 20  2  0
 20 21  1  0
 20 22  1  0
 22 23  1  0
 22 24  2  0
 24 25  1  0
 24 26  1  0
 26 27  1  0
 26 28  2  0
 28 29  1  0
 12 30  1  0
 30 31  1  0
 31 32  1  0
 32 33  1  0
 32 34  1  0
 32 35  1  0
 35 36  1  0
 35 37  1  0
 35 38  1  0
 38 39  2  0
 39 40  1  0
 39 41  1  0
 41 42  1  0
 41 43  2  0
 43 44  1  0
 43 45  1  0
 45 46  1  0
 45 47  2  0
 47 48  1  0
 31 49  2  0
 49 50  1  0
  4 51  1  0
 51 52  1  0
 51 53  2  0
 53 54  1  0
 53 55  1  0
 55 56  1  0
 56 57  1  0
 56 58  1  0
 56 59  1  0
 55  2  2  0
 49 11  1  0
 28 19  1  0
 47 38  1  0
M  CHG  3   3  -1  15  -1  49   1
M  END
>  <UniqueID>  (79) 
75

>  <SMILES>  (79) 
Cc1cc/c(=N\C(=O)Cc2[nH+]c(CCc3ccccc3)oc2C(=O)[N-]S(=O)(=O)c2ccccc2)[n-]c1

>  <Energy>  (79) 
102.66245352643728

>  <Genealogy>  (79) 
Cc1ccc(=NC(=O)Cc2[nH+]c(CCc3ccccc3)oc2C(=O)[N-]S(=O)(=O)c2ccccc2)[n-]c1 (protonated)
Cc1cc/c(=N\C(=O)Cc2[nH+]c(CCc3ccccc3)oc2C(=O)[N-]S(=O)(=O)c2ccccc2)[n-]c1 (cis-trans isomerization)
Cc1cc/c(=N\C(=O)Cc2[nH+]c(CCc3ccccc3)oc2C(=O)[N-]S(=O)(=O)c2ccccc2)[n-]c1 (3D coordinates assigned)
Cc1cc/c(=N\C(=O)Cc2[nH+]c(CCc3ccccc3)oc2C(=O)[N-]S(=O)(=O)c2ccccc2)[n-]c1 (optimized conformer: 102.66245352643728 kcal/mol)

>  <smiles>  (79) 
Cc1ccc(=NC(=O)Cc2nc(CCc3ccccc3)oc2C(=O)NS(=O)(=O)c2ccccc2)[nH]c1

>  <score_type>  (79) 
oracle

>  <origin>  (79) 
adg

>  <m_score__min__energy>  (79) 
-12.75

>  <m_primary>  (79) 
energy

$$$$
79:0
     RDKit          3D

 52 55  0  0  0  0  0  0  0  0999 V2000
   60.1613   28.3412   47.7700 H   0  0  0  0  0  0  0  0  0  0  0  0
   59.5610   27.8680   46.9790 C   0  0  0  0  0  0  0  0  0  0  0  0
   59.5779   26.7751   46.8551 H   0  0  0  0  0  0  0  0  0  0  0  0
   58.8070   28.6250   46.1640 C   0  0  0  0  0  0  0  0  0  0  0  0
   57.9900   28.1740   45.1130 C   0  0  0  0  0  0  0  0  0  0  0  0
   57.6080   26.9330   44.7550 C   0  0  0  0  0  0  0  0  0  0  0  0
   57.6641   26.6800   43.6860 H   0  0  0  0  0  0  0  0  0  0  0  0
   57.1220   25.8850   45.6680 C   0  0  0  0  0  0  0  0  0  0  0  0
   57.8900   24.9170   46.2010 N   0  0  0  0  0  0  0  0  0  0  0  0
   57.0560   24.3000   47.0670 C   0  0  0  0  0  0  0  0  0  0  0  0
   57.4100   23.3120   47.7610 O   0  0  0  0  0  0  0  0  0  0  0  0
   55.8180   24.8330   47.1380 N   0  0  0  0  0  0  0  0  0  0  0  0
   55.8830   25.8440   46.2570 C   0  0  0  0  0  0  0  0  0  0  0  0
   54.8310   26.7150   46.0010 O   0  0  0  0  0  0  0  0  0  0  0  0
   57.5650   29.3070   44.4420 C   0  0  0  0  0  0  0  0  0  0  0  0
   56.9401   29.3356   43.5372 H   0  0  0  0  0  0  0  0  0  0  0  0
   58.0730   30.3930   45.1220 C   0  0  0  0  0  0  0  0  0  0  0  0
   57.8410   31.8200   44.7230 C   0  0  0  0  0  0  0  0  0  0  0  0
   57.7400   32.4412   45.6252 H   0  0  0  0  0  0  0  0  0  0  0  0
   58.6929   32.1768   44.1256 H   0  0  0  0  0  0  0  0  0  0  0  0
   56.9199   31.8886   44.1256 H   0  0  0  0  0  0  0  0  0  0  0  0
   58.8140   29.9840   46.1780 N   0  0  0  0  0  0  0  0  0  0  0  0
   59.5560   30.8420   47.0660 C   0  0  0  0  0  0  0  0  0  0  0  0
   59.0050   31.5750   48.0050 O   0  0  0  0  0  0  0  0  0  0  0  0
   59.9570   32.2340   48.6230 C   0  0  0  0  0  0  0  0  0  0  0  0
   59.7200   33.1740   49.7330 C   0  0  0  0  0  0  0  0  0  0  0  0
   59.3420   34.3480   49.4650 O   0  0  0  0  0  0  0  0  0  0  0  0
   59.8650   32.7320   51.1090 N   0  0  0  0  0  0  0  0  0  0  0  0
   60.7790   33.1110   51.4540 H   0  0  0  0  0  0  0  0  0  0  0  0
   58.8340   33.2780   52.0230 C   0  0  0  0  0  0  0  0  0  0  0  0
   59.1850   33.1492   53.0575 H   0  0  0  0  0  0  0  0  0  0  0  0
   58.6952   34.3352   51.7529 H   0  0  0  0  0  0  0  0  0  0  0  0
   57.4570   32.5970   51.8890 C   0  0  0  0  0  0  0  0  0  0  0  0
   56.8411   32.8631   52.7607 H   0  0  0  0  0  0  0  0  0  0  0  0
   56.9903   32.9463   50.9562 H   0  0  0  0  0  0  0  0  0  0  0  0
   57.5800   31.1350   51.8210 N   0  0  0  0  0  0  0  0  0  0  0  0
   56.5110   30.2790   52.2890 C   0  0  0  0  0  0  0  0  0  0  0  0
   56.6530   29.0250   52.2670 O   0  0  0  0  0  0  0  0  0  0  0  0
   55.2290   30.8370   52.8310 C   0  0  0  0  0  0  0  0  0  0  0  0
   55.2592   30.8238   53.9305 H   0  0  0  0  0  0  0  0  0  0  0  0
   55.1021   31.8718   52.4800 H   0  0  0  0  0  0  0  0  0  0  0  0
   54.3852   30.2247   52.4800 H   0  0  0  0  0  0  0  0  0  0  0  0
   58.6120   30.5810   50.9370 C   0  0  0  0  0  0  0  0  0  0  0  0
   58.7092   29.5015   51.1246 H   0  0  0  0  0  0  0  0  0  0  0  0
   58.3195   30.7569   49.8913 H   0  0  0  0  0  0  0  0  0  0  0  0
   59.9570   31.2620   51.1990 C   0  0  0  0  0  0  0  0  0  0  0  0
   60.3012   30.9898   52.2077 H   0  0  0  0  0  0  0  0  0  0  0  0
   60.6640   30.9203   50.4286 H   0  0  0  0  0  0  0  0  0  0  0  0
   61.1860   31.9200   48.0700 C   0  0  0  0  0  0  0  0  0  0  0  0
   62.1685   32.3102   48.3740 H   0  0  0  0  0  0  0  0  0  0  0  0
   60.9270   31.0180   47.0600 C   0  0  0  0  0  0  0  0  0  0  0  0
   61.6572   30.5395   46.3908 H   0  0  0  0  0  0  0  0  0  0  0  0
  1  2  1  0
  2  3  1  0
  2  4  2  0
  4  5  1  0
  5  6  2  0
  6  7  1  0
  6  8  1  0
  8  9  1  0
  9 10  1  0
 10 11  2  0
 10 12  1  0
 12 13  1  0
 13 14  1  0
  5 15  1  0
 15 16  1  0
 15 17  2  0
 17 18  1  0
 18 19  1  0
 18 20  1  0
 18 21  1  0
 17 22  1  0
 22 23  1  0
 23 24  1  0
 24 25  1  0
 25 26  1  0
 26 27  2  0
 26 28  1  0
 28 29  1  0
 28 30  1  0
 30 31  1  0
 30 32  1  0
 30 33  1  0
 33 34  1  0
 33 35  1  0
 33 36  1  0
 36 37  1  0
 37 38  2  0
 37 39  1  0
 39 40  1  0
 39 41  1  0
 39 42  1  0
 36 43  1  0
 43 44  1  0
 43 45  1  0
 43 46  1  0
 46 47  1  0
 46 48  1  0
 25 49  2  0
 49 50  1  0
 49 51  1  0
 51 52  1  0
 22  4  1  0
 51 23  2  0
 13  8  2  0
 46 28  1  0
M  CHG  4   9  -1  12  -1  14  -1  28   1
M  END
>  <UniqueID>  (80) 
76

>  <SMILES>  (80) 
C=c1/c(=C\c2[n-]c(=O)[n-]c2[O-])cc(C)n1-c1ccc(C(=O)[NH+]2CCN(C(C)=O)CC2)o1

>  <Energy>  (80) 
159.90433651824046

>  <Genealogy>  (80) 
C=c1c(=Cc2[n-]c(=O)[n-]c2[O-])cc(C)n1-c1ccc(C(=O)[NH+]2CCN(C(C)=O)CC2)o1 (protonated)
C=c1/c(=C\c2[n-]c(=O)[n-]c2[O-])cc(C)n1-c1ccc(C(=O)[NH+]2CCN(C(C)=O)CC2)o1 (cis-trans isomerization)
C=c1/c(=C\c2[n-]c(=O)[n-]c2[O-])cc(C)n1-c1ccc(C(=O)[NH+]2CCN(C(C)=O)CC2)o1 (3D coordinates assigned)
C=c1/c(=C\c2[n-]c(=O)[n-]c2[O-])cc(C)n1-c1ccc(C(=O)[NH+]2CCN(C(C)=O)CC2)o1 (nonaromatic ring conformer: 159.90433651824046 kcal/mol)

>  <smiles>  (80) 
C=c1c(=Cc2[nH]c(=O)[nH]c2O)cc(C)n1-c1ccc(C(=O)N2CCN(C(C)=O)CC2)o1

>  <score_type>  (80) 
oracle

>  <origin>  (80) 
adg

>  <m_score__min__energy>  (80) 
-16.010000000000002

>  <m_primary>  (80) 
energy

$$$$
80:0
     RDKit          3D

 49 52  0  0  0  0  0  0  0  0999 V2000
   58.9622   31.3984   44.1353 H   0  0  0  0  0  0  0  0  0  0  0  0
   58.7450   30.3670   44.4500 C   0  0  0  0  0  0  0  0  0  0  0  0
   58.4613   29.6119   43.7021 H   0  0  0  0  0  0  0  0  0  0  0  0
   58.8260   30.0300   45.7460 C   0  0  0  0  0  0  0  0  0  0  0  0
   58.5840   28.7690   46.3160 C   0  0  0  0  0  0  0  0  0  0  0  0
   58.4020   27.5600   45.7480 C   0  0  0  0  0  0  0  0  0  0  0  0
   59.2286   27.1589   45.1431 H   0  0  0  0  0  0  0  0  0  0  0  0
   57.1920   26.7310   45.8680 C   0  0  0  0  0  0  0  0  0  0  0  0
   57.1670   25.4780   46.3610 N   0  0  0  0  0  0  0  0  0  0  0  0
   55.8490   25.1870   46.4030 C   0  0  0  0  0  0  0  0  0  0  0  0
   55.4130   24.0750   46.8000 O   0  0  0  0  0  0  0  0  0  0  0  0
   55.0340   26.1850   46.0000 N   0  0  0  0  0  0  0  0  0  0  0  0
   55.9010   27.1590   45.6790 C   0  0  0  0  0  0  0  0  0  0  0  0
   55.5200   28.4160   45.2260 O   0  0  0  0  0  0  0  0  0  0  0  0
   58.5790   28.9590   47.6890 C   0  0  0  0  0  0  0  0  0  0  0  0
   58.3728   28.1970   48.4551 H   0  0  0  0  0  0  0  0  0  0  0  0
   58.8820   30.2860   47.9110 C   0  0  0  0  0  0  0  0  0  0  0  0
   58.9470   30.9390   49.2580 C   0  0  0  0  0  0  0  0  0  0  0  0
   58.8706   30.1710   50.0418 H   0  0  0  0  0  0  0  0  0  0  0  0
   59.9028   31.4737   49.3605 H   0  0  0  0  0  0  0  0  0  0  0  0
   58.1153   31.6516   49.3605 H   0  0  0  0  0  0  0  0  0  0  0  0
   59.0290   30.9350   46.7360 N   0  0  0  0  0  0  0  0  0  0  0  0
   59.2680   32.3470   46.5910 C   0  0  0  0  0  0  0  0  0  0  0  0
   58.2330   33.1710   46.1210 C   0  0  0  0  0  0  0  0  0  0  0  0
   57.0300   32.6350   45.7930 F   0  0  0  0  0  0  0  0  0  0  0  0
   58.4270   34.5480   46.0030 C   0  0  0  0  0  0  0  0  0  0  0  0
   57.6119   35.1876   45.6334 H   0  0  0  0  0  0  0  0  0  0  0  0
   59.6530   35.1150   46.3530 C   0  0  0  0  0  0  0  0  0  0  0  0
   59.8019   36.2010   46.2616 H   0  0  0  0  0  0  0  0  0  0  0  0
   60.6910   34.3060   46.8190 C   0  0  0  0  0  0  0  0  0  0  0  0
   61.6562   34.7590   47.0897 H   0  0  0  0  0  0  0  0  0  0  0  0
   60.5130   32.9180   46.9450 C   0  0  0  0  0  0  0  0  0  0  0  0
   61.6410   32.0830   47.4210 C   0  0  0  0  0  0  0  0  0  0  0  0
   62.0020   31.0880   46.7350 O   0  0  0  0  0  0  0  0  0  0  0  0
   62.3610   32.4130   48.6240 N   0  0  0  0  0  0  0  0  0  0  0  0
   63.7740   32.0380   48.7380 C   0  0  0  0  0  0  0  0  0  0  0  0
   63.8560   30.9411   48.7509 H   0  0  0  0  0  0  0  0  0  0  0  0
   64.3191   32.4530   47.8774 H   0  0  0  0  0  0  0  0  0  0  0  0
   64.3860   32.6030   50.0260 C   0  0  0  0  0  0  0  0  0  0  0  0
   64.0951   31.9669   50.8750 H   0  0  0  0  0  0  0  0  0  0  0  0
   65.4811   32.6190   49.9239 H   0  0  0  0  0  0  0  0  0  0  0  0
   63.9090   33.9720   50.2610 N   0  0  0  0  0  0  0  0  0  0  0  0
   64.1320   34.5510   49.4160 H   0  0  0  0  0  0  0  0  0  0  0  0
   62.4540   34.0270   50.5060 C   0  0  0  0  0  0  0  0  0  0  0  0
   62.2834   33.9584   51.5905 H   0  0  0  0  0  0  0  0  0  0  0  0
   62.0959   34.9753   50.0789 H   0  0  0  0  0  0  0  0  0  0  0  0
   61.6570   32.9000   49.8180 C   0  0  0  0  0  0  0  0  0  0  0  0
   61.5280   32.0670   50.5248 H   0  0  0  0  0  0  0  0  0  0  0  0
   60.6788   33.2986   49.5109 H   0  0  0  0  0  0  0  0  0  0  0  0
  1  2  1  0
  2  3  1  0
  2  4  2  0
  4  5  1  0
  5  6  2  0
  6  7  1  0
  6  8  1  0
  8  9  1  0
  9 10  1  0
 10 11  2  0
 10 12  1  0
 12 13  1  0
 13 14  1  0
  5 15  1  0
 15 16  1  0
 15 17  2  0
 17 18  1  0
 18 19  1  0
 18 20  1  0
 18 21  1  0
 17 22  1  0
 22 23  1  0
 23 24  2  0
 24 25  1  0
 24 26  1  0
 26 27  1  0
 26 28  2  0
 28 29  1  0
 28 30  1  0
 30 31  1  0
 30 32  2  0
 32 33  1  0
 33 34  2  0
 33 35  1  0
 35 36  1  0
 36 37  1  0
 36 38  1  0
 36 39  1  0
 39 40  1  0
 39 41  1  0
 39 42  1  0
 42 43  1  0
 42 44  1  0
 44 45  1  0
 44 46  1  0
 44 47  1  0
 47 48  1  0
 47 49  1  0
 22  4  1  0
 32 23  1  0
 47 35  1  0
 13  8  2  0
M  CHG  3   9  -1  12  -1  14  -1
M  END
>  <UniqueID>  (81) 
77

>  <SMILES>  (81) 
C=c1/c(=C\c2[n-]c(=O)[n-]c2[O-])cc(C)n1-c1c(F)cccc1C(=O)N1CCNCC1

>  <Energy>  (81) 
136.09474456539553

>  <Genealogy>  (81) 
C=c1c(=Cc2[n-]c(=O)[n-]c2[O-])cc(C)n1-c1c(F)cccc1C(=O)N1CCNCC1 (protonated)
C=c1/c(=C\c2[n-]c(=O)[n-]c2[O-])cc(C)n1-c1c(F)cccc1C(=O)N1CCNCC1 (cis-trans isomerization)
C=c1/c(=C\c2[n-]c(=O)[n-]c2[O-])cc(C)n1-c1c(F)cccc1C(=O)N1CCNCC1 (3D coordinates assigned)
C=c1/c(=C\c2[n-]c(=O)[n-]c2[O-])cc(C)n1-c1c(F)cccc1C(=O)N1CCNCC1 (nonaromatic ring conformer: 136.09474456539553 kcal/mol)

>  <smiles>  (81) 
C=c1c(=Cc2[nH]c(=O)[nH]c2O)cc(C)n1-c1c(F)cccc1C(=O)N1CCNCC1

>  <score_type>  (81) 
oracle

>  <origin>  (81) 
adg

>  <m_score__min__energy>  (81) 
-16.32

>  <m_primary>  (81) 
energy

$$$$
81:0
     RDKit          3D

 59 62  0  0  0  0  0  0  0  0999 V2000
   59.4620   35.1800   47.0860 C   0  0  0  0  0  0  0  0  0  0  0  0
   60.3250   34.3490   46.3190 O   0  0  0  0  0  0  0  0  0  0  0  0
   61.3540   33.5570   46.8550 C   0  0  0  0  0  0  0  0  0  0  0  0
   62.7090   33.8070   46.5570 C   0  0  0  0  0  0  0  0  0  0  0  0
   63.7120   32.9930   47.0870 C   0  0  0  0  0  0  0  0  0  0  0  0
   63.3800   31.9260   47.9210 C   0  0  0  0  0  0  0  0  0  0  0  0
   62.0430   31.6730   48.2330 C   0  0  0  0  0  0  0  0  0  0  0  0
   61.0210   32.4810   47.7090 C   0  0  0  0  0  0  0  0  0  0  0  0
   59.5880   32.1700   48.0610 C   0  0  0  0  0  0  0  0  0  0  0  0
   59.0440   31.1450   47.1580 N   0  0  0  0  0  0  0  0  0  0  0  0
   58.9840   29.8080   47.3940 C   0  0  0  0  0  0  0  0  0  0  0  0
   59.5040   29.1590   48.6070 C   0  0  0  0  0  0  0  0  0  0  0  0
   60.6950   28.7590   48.6180 O   0  0  0  0  0  0  0  0  0  0  0  0
   58.7020   28.9730   49.7790 N   0  0  0  0  0  0  0  0  0  0  0  0
   58.5080   30.0960   51.0930 S   0  0  0  0  0  0  0  0  0  0  0  0
   57.2870   30.9350   50.8460 O   0  0  0  0  0  0  0  0  0  0  0  0
   58.3190   29.3490   52.3850 O   0  0  0  0  0  0  0  0  0  0  0  0
   59.9160   31.1620   51.2260 C   0  0  0  0  0  0  0  0  0  0  0  0
   59.7180   32.5500   51.1290 C   0  0  0  0  0  0  0  0  0  0  0  0
   60.7970   33.4340   51.2270 C   0  0  0  0  0  0  0  0  0  0  0  0
   62.0870   32.9430   51.4160 C   0  0  0  0  0  0  0  0  0  0  0  0
   62.3060   31.5670   51.4920 C   0  0  0  0  0  0  0  0  0  0  0  0
   61.2340   30.6600   51.3770 C   0  0  0  0  0  0  0  0  0  0  0  0
   61.5240   29.1840   51.4520 C   0  0  0  0  0  0  0  0  0  0  0  0
   58.4320   29.1400   46.3020 C   0  0  0  0  0  0  0  0  0  0  0  0
   58.3060   27.6520   46.1040 C   0  0  0  0  0  0  0  0  0  0  0  0
   56.9240   27.2430   45.6960 C   0  0  0  0  0  0  0  0  0  0  0  0
   56.0040   28.0970   45.5820 O   0  0  0  0  0  0  0  0  0  0  0  0
   56.6780   25.9200   45.3440 O   0  0  0  0  0  0  0  0  0  0  0  0
   58.1240   30.1290   45.3860 C   0  0  0  0  0  0  0  0  0  0  0  0
   57.5670   30.0420   44.1110 C   0  0  0  0  0  0  0  0  0  0  0  0
   57.3790   31.2290   43.3770 C   0  0  0  0  0  0  0  0  0  0  0  0
   56.8040   31.1380   42.0660 N   0  0  0  0  0  0  0  0  0  0  0  0
   57.0180   31.9800   41.1370 C   0  0  0  0  0  0  0  0  0  0  0  0
   57.2890   33.0430   39.9570 S   0  0  0  0  0  0  0  0  0  0  0  0
   57.7630   32.4730   43.9480 C   0  0  0  0  0  0  0  0  0  0  0  0
   58.3310   32.5270   45.2320 C   0  0  0  0  0  0  0  0  0  0  0  0
   58.5010   31.3290   45.9330 C   0  0  0  0  0  0  0  0  0  0  0  0
   59.6424   35.0063   48.1571 H   0  0  0  0  0  0  0  0  0  0  0  0
   59.6611   36.2351   46.8470 H   0  0  0  0  0  0  0  0  0  0  0  0
   58.4152   34.9412   46.8470 H   0  0  0  0  0  0  0  0  0  0  0  0
   62.9780   34.6491   45.9024 H   0  0  0  0  0  0  0  0  0  0  0  0
   64.7663   33.1939   46.8461 H   0  0  0  0  0  0  0  0  0  0  0  0
   64.1719   31.2834   48.3333 H   0  0  0  0  0  0  0  0  0  0  0  0
   61.7877   30.8328   48.8955 H   0  0  0  0  0  0  0  0  0  0  0  0
   59.5420   31.8010   49.0962 H   0  0  0  0  0  0  0  0  0  0  0  0
   58.9902   33.0875   47.9571 H   0  0  0  0  0  0  0  0  0  0  0  0
   58.7032   32.9453   50.9743 H   0  0  0  0  0  0  0  0  0  0  0  0
   60.6271   34.5184   51.1548 H   0  0  0  0  0  0  0  0  0  0  0  0
   62.9331   33.6402   51.5053 H   0  0  0  0  0  0  0  0  0  0  0  0
   63.3268   31.1862   51.6434 H   0  0  0  0  0  0  0  0  0  0  0  0
   61.5846   28.8753   52.5061 H   0  0  0  0  0  0  0  0  0  0  0  0
   60.7183   28.6262   50.9524 H   0  0  0  0  0  0  0  0  0  0  0  0
   62.4809   28.9725   50.9524 H   0  0  0  0  0  0  0  0  0  0  0  0
   59.0122   27.3392   45.3208 H   0  0  0  0  0  0  0  0  0  0  0  0
   58.5281   27.1667   47.0658 H   0  0  0  0  0  0  0  0  0  0  0  0
   57.2807   29.0679   43.6877 H   0  0  0  0  0  0  0  0  0  0  0  0
   57.6140   33.4025   43.3790 H   0  0  0  0  0  0  0  0  0  0  0  0
   58.6343   33.4873   45.6746 H   0  0  0  0  0  0  0  0  0  0  0  0
  1  2  1  0
  2  3  1  0
  3  4  2  0
  4  5  1  0
  5  6  2  0
  6  7  1  0
  7  8  2  0
  8  9  1  0
  9 10  1  0
 10 11  1  0
 11 12  1  0
 12 13  2  0
 12 14  1  0
 14 15  1  0
 15 16  2  0
 15 17  2  0
 15 18  1  0
 18 19  2  0
 19 20  1  0
 20 21  2  0
 21 22  1  0
 22 23  2  0
 23 24  1  0
 11 25  2  0
 25 26  1  0
 26 27  1  0
 27 28  2  0
 27 29  1  0
 25 30  1  0
 30 31  2  0
 31 32  1  0
 32 33  1  0
 33 34  2  0
 34 35  2  0
 32 36  2  0
 36 37  1  0
 37 38  2  0
  8  3  1  0
 38 10  1  0
 23 18  1  0
 38 30  1  0
  1 39  1  0
  1 40  1  0
  1 41  1  0
  4 42  1  0
  5 43  1  0
  6 44  1  0
  7 45  1  0
  9 46  1  0
  9 47  1  0
 19 48  1  0
 20 49  1  0
 21 50  1  0
 22 51  1  0
 24 52  1  0
 24 53  1  0
 24 54  1  0
 26 55  1  0
 26 56  1  0
 31 57  1  0
 36 58  1  0
 37 59  1  0
M  CHG  2  14  -1  29  -1
M  END
>  <UniqueID>  (82) 
78

>  <SMILES>  (82) 
COc1ccccc1Cn1c(C(=O)[N-]S(=O)(=O)c2ccccc2C)c(CC(=O)[O-])c2cc(N=C=S)ccc21

>  <Energy>  (82) 
104.0091599715897

>  <Genealogy>  (82) 
COc1ccccc1Cn1c(C(=O)[N-]S(=O)(=O)c2ccccc2C)c(CC(=O)[O-])c2cc(N=C=S)ccc21 (protonated)
COc1ccccc1Cn1c(C(=O)[N-]S(=O)(=O)c2ccccc2C)c(CC(=O)[O-])c2cc(N=C=S)ccc21 (3D coordinates assigned)
COc1ccccc1Cn1c(C(=O)[N-]S(=O)(=O)c2ccccc2C)c(CC(=O)[O-])c2cc(N=C=S)ccc21 (optimized conformer: 104.0091599715897 kcal/mol)

>  <smiles>  (82) 
COc1ccccc1Cn1c(C(=O)NS(=O)(=O)c2ccccc2C)c(CC(=O)O)c2cc(N=C=S)ccc21

>  <score_type>  (82) 
oracle

>  <origin>  (82) 
adg

>  <m_score__min__energy>  (82) 
-13.369999999999999

>  <m_primary>  (82) 
energy

$$$$
82:0
     RDKit          3D

 64 68  0  0  0  0  0  0  0  0999 V2000
   54.2110   25.9380   45.6230 N   0  0  0  0  0  0  0  0  0  0  0  0
   55.2460   24.5570   45.7190 S   0  0  0  0  0  0  0  0  0  0  0  0
   55.0600   23.7050   44.4950 O   0  0  0  0  0  0  0  0  0  0  0  0
   54.8900   23.7440   46.9330 O   0  0  0  0  0  0  0  0  0  0  0  0
   56.9200   25.0900   45.8320 C   0  0  0  0  0  0  0  0  0  0  0  0
   57.9580   24.1530   45.7740 C   0  0  0  0  0  0  0  0  0  0  0  0
   59.2860   24.5700   45.8740 C   0  0  0  0  0  0  0  0  0  0  0  0
   59.5860   25.9250   46.0350 C   0  0  0  0  0  0  0  0  0  0  0  0
   58.5570   26.8800   46.1020 C   0  0  0  0  0  0  0  0  0  0  0  0
   58.8630   28.3200   46.2750 C   0  0  0  0  0  0  0  0  0  0  0  0
   58.0160   29.3100   45.8930 N   0  0  0  0  0  0  0  0  0  0  0  0
   58.5380   30.5370   46.1530 C   0  0  0  0  0  0  0  0  0  0  0  0
   57.8950   31.7420   45.8730 C   0  0  0  0  0  0  0  0  0  0  0  0
   58.5450   32.9460   46.1920 C   0  0  0  0  0  0  0  0  0  0  0  0
   59.8340   32.9380   46.7770 C   0  0  0  0  0  0  0  0  0  0  0  0
   60.5090   34.2310   47.1390 C   0  0  0  0  0  0  0  0  0  0  0  0
   61.7900   33.9590   47.8810 C   0  0  0  0  0  0  0  0  0  0  0  0
   61.8290   34.0360   49.2810 C   0  0  0  0  0  0  0  0  0  0  0  0
   63.0120   33.7590   49.9710 C   0  0  0  0  0  0  0  0  0  0  0  0
   64.1750   33.3830   49.2740 C   0  0  0  0  0  0  0  0  0  0  0  0
   65.4290   33.1050   50.0150 C   0  0  0  0  0  0  0  0  0  0  0  0
   66.0800   32.0570   49.7590 O   0  0  0  0  0  0  0  0  0  0  0  0
   65.9140   34.0190   51.0110 N   0  0  0  0  0  0  0  0  0  0  0  0
   67.0010   33.6680   51.9250 C   0  0  0  0  0  0  0  0  0  0  0  0
   67.2660   34.7970   52.9310 C   0  0  0  0  0  0  0  0  0  0  0  0
   66.4660   36.0050   52.6270 N   0  0  0  0  0  0  0  0  0  0  0  0
   67.3080   37.2230   52.5670 C   0  0  0  0  0  0  0  0  0  0  0  0
   66.4650   38.5050   52.6930 C   0  0  0  0  0  0  0  0  0  0  0  0
   65.1270   38.2510   52.3240 O   0  0  0  0  0  0  0  0  0  0  0  0
   64.5200   37.3930   53.2760 C   0  0  0  0  0  0  0  0  0  0  0  0
   65.3990   36.1740   53.6310 C   0  0  0  0  0  0  0  0  0  0  0  0
   64.1280   33.3020   47.8710 C   0  0  0  0  0  0  0  0  0  0  0  0
   62.9460   33.5820   47.1820 C   0  0  0  0  0  0  0  0  0  0  0  0
   60.4620   31.7080   47.0640 C   0  0  0  0  0  0  0  0  0  0  0  0
   59.7910   30.5340   46.7380 C   0  0  0  0  0  0  0  0  0  0  0  0
   60.2900   28.9470   46.9500 S   0  0  0  0  0  0  0  0  0  0  0  0
   57.2210   26.4490   46.0030 C   0  0  0  0  0  0  0  0  0  0  0  0
   54.7800   26.7180   45.2230 H   0  0  0  0  0  0  0  0  0  0  0  0
   57.7264   23.0849   45.6492 H   0  0  0  0  0  0  0  0  0  0  0  0
   60.0985   23.8301   45.8260 H   0  0  0  0  0  0  0  0  0  0  0  0
   60.6352   26.2468   46.1099 H   0  0  0  0  0  0  0  0  0  0  0  0
   56.8969   31.7499   45.4107 H   0  0  0  0  0  0  0  0  0  0  0  0
   58.0471   33.9048   45.9850 H   0  0  0  0  0  0  0  0  0  0  0  0
   60.7335   34.7932   46.2206 H   0  0  0  0  0  0  0  0  0  0  0  0
   59.8383   34.8176   47.7841 H   0  0  0  0  0  0  0  0  0  0  0  0
   60.9232   34.3160   49.8388 H   0  0  0  0  0  0  0  0  0  0  0  0
   63.0343   33.8355   51.0681 H   0  0  0  0  0  0  0  0  0  0  0  0
   65.6070   35.0170   50.9710 H   0  0  0  0  0  0  0  0  0  0  0  0
   66.7275   32.7549   52.4740 H   0  0  0  0  0  0  0  0  0  0  0  0
   67.9146   33.5060   51.3342 H   0  0  0  0  0  0  0  0  0  0  0  0
   67.0066   34.4430   53.9396 H   0  0  0  0  0  0  0  0  0  0  0  0
   68.3303   35.0676   52.8678 H   0  0  0  0  0  0  0  0  0  0  0  0
   68.0369   37.1933   53.3903 H   0  0  0  0  0  0  0  0  0  0  0  0
   67.8157   37.2411   51.5913 H   0  0  0  0  0  0  0  0  0  0  0  0
   66.4933   38.8567   53.7349 H   0  0  0  0  0  0  0  0  0  0  0  0
   66.8805   39.2729   52.0239 H   0  0  0  0  0  0  0  0  0  0  0  0
   64.3283   37.9672   54.1945 H   0  0  0  0  0  0  0  0  0  0  0  0
   63.5893   37.0112   52.8310 H   0  0  0  0  0  0  0  0  0  0  0  0
   65.8530   36.3295   54.6208 H   0  0  0  0  0  0  0  0  0  0  0  0
   64.7715   35.2706   53.6430 H   0  0  0  0  0  0  0  0  0  0  0  0
   65.0304   33.0155   47.3111 H   0  0  0  0  0  0  0  0  0  0  0  0
   62.9215   33.5064   46.0849 H   0  0  0  0  0  0  0  0  0  0  0  0
   61.4564   31.6780   47.5334 H   0  0  0  0  0  0  0  0  0  0  0  0
   56.4053   27.1848   46.0603 H   0  0  0  0  0  0  0  0  0  0  0  0
  1  2  1  0
  2  3  2  0
  2  4  2  0
  2  5  1  0
  5  6  2  0
  6  7  1  0
  7  8  2  0
  8  9  1  0
  9 10  1  0
 10 11  2  0
 11 12  1  0
 12 13  2  0
 13 14  1  0
 14 15  2  0
 15 16  1  0
 16 17  1  0
 17 18  2  0
 18 19  1  0
 19 20  2  0
 20 21  1  0
 21 22  2  0
 21 23  1  0
 23 24  1  0
 24 25  1  0
 25 26  1  0
 26 27  1  0
 27 28  1  0
 28 29  1  0
 29 30  1  0
 30 31  1  0
 20 32  1  0
 32 33  2  0
 15 34  1  0
 34 35  2  0
 35 36  1  0
  9 37  2  0
 37  5  1  0
 36 10  1  0
 35 12  1  0
 33 17  1  0
 31 26  1  0
  1 38  1  0
  6 39  1  0
  7 40  1  0
  8 41  1  0
 13 42  1  0
 14 43  1  0
 16 44  1  0
 16 45  1  0
 18 46  1  0
 19 47  1  0
 23 48  1  0
 24 49  1  0
 24 50  1  0
 25 51  1  0
 25 52  1  0
 27 53  1  0
 27 54  1  0
 28 55  1  0
 28 56  1  0
 30 57  1  0
 30 58  1  0
 31 59  1  0
 31 60  1  0
 32 61  1  0
 33 62  1  0
 34 63  1  0
 37 64  1  0
M  CHG  1   1  -1
M  END
>  <UniqueID>  (83) 
79

>  <SMILES>  (83) 
[NH-]S(=O)(=O)c1cccc(-c2nc3ccc(Cc4ccc(C(=O)NCCN5CCOCC5)cc4)cc3s2)c1

>  <Energy>  (83) 
112.54154260118759

>  <Genealogy>  (83) 
[NH-]S(=O)(=O)c1cccc(-c2nc3ccc(Cc4ccc(C(=O)NCCN5CCOCC5)cc4)cc3s2)c1 (protonated)
[NH-]S(=O)(=O)c1cccc(-c2nc3ccc(Cc4ccc(C(=O)NCCN5CCOCC5)cc4)cc3s2)c1 (3D coordinates assigned)
[NH-]S(=O)(=O)c1cccc(-c2nc3ccc(Cc4ccc(C(=O)NCCN5CCOCC5)cc4)cc3s2)c1 (nonaromatic ring conformer: 112.54154260118759 kcal/mol)

>  <smiles>  (83) 
NS(=O)(=O)c1cccc(-c2nc3ccc(Cc4ccc(C(=O)NCCN5CCOCC5)cc4)cc3s2)c1

>  <score_type>  (83) 
oracle

>  <origin>  (83) 
adg

>  <m_score__min__energy>  (83) 
-13.32

>  <m_primary>  (83) 
energy

$$$$
83:0
     RDKit          3D

 50 52  0  0  0  0  0  0  0  0999 V2000
   54.6120   23.9000   44.0790 N   0  0  0  0  0  0  0  0  0  0  0  0
   55.8170   23.1960   44.4060 C   0  0  0  0  0  0  0  0  0  0  0  0
   56.3050   22.2310   43.5110 C   0  0  0  0  0  0  0  0  0  0  0  0
   57.4140   21.4520   43.8430 C   0  0  0  0  0  0  0  0  0  0  0  0
   58.0470   21.6280   45.0740 C   0  0  0  0  0  0  0  0  0  0  0  0
   57.5930   22.6050   45.9620 C   0  0  0  0  0  0  0  0  0  0  0  0
   56.5030   23.4200   45.6260 C   0  0  0  0  0  0  0  0  0  0  0  0
   56.1500   24.4800   46.5300 N   0  0  0  0  0  0  0  0  0  0  0  0
   56.0250   25.8710   46.1940 C   0  0  0  0  0  0  0  0  0  0  0  0
   54.8740   26.3450   46.0070 O   0  0  0  0  0  0  0  0  0  0  0  0
   57.2040   26.7550   46.0530 C   0  0  0  0  0  0  0  0  0  0  0  0
   58.1090   26.8850   47.1180 C   0  0  0  0  0  0  0  0  0  0  0  0
   59.1530   27.8110   47.0470 C   0  0  0  0  0  0  0  0  0  0  0  0
   59.3150   28.6100   45.9060 C   0  0  0  0  0  0  0  0  0  0  0  0
   60.3350   29.7150   45.9050 C   0  0  0  0  0  0  0  0  0  0  0  0
   59.6840   30.9840   46.2260 N   0  0  0  0  0  0  0  0  0  0  0  0
   58.6780   31.5600   45.3790 C   0  0  0  0  0  0  0  0  0  0  0  0
   58.5840   31.1990   44.1750 O   0  0  0  0  0  0  0  0  0  0  0  0
   57.7310   32.5500   45.9110 C   0  0  0  0  0  0  0  0  0  0  0  0
   56.6340   32.7530   45.3240 O   0  0  0  0  0  0  0  0  0  0  0  0
   58.0670   33.2950   47.0870 N   0  0  0  0  0  0  0  0  0  0  0  0
   58.8990   34.4940   47.0720 C   0  0  0  0  0  0  0  0  0  0  0  0
   60.3190   34.1390   47.4230 C   0  0  0  0  0  0  0  0  0  0  0  0
   60.7440   34.1320   48.7620 C   0  0  0  0  0  0  0  0  0  0  0  0
   62.0760   33.8490   49.0770 C   0  0  0  0  0  0  0  0  0  0  0  0
   62.9950   33.5790   48.0580 C   0  0  0  0  0  0  0  0  0  0  0  0
   62.5820   33.5930   46.7230 C   0  0  0  0  0  0  0  0  0  0  0  0
   61.2490   33.8720   46.4050 C   0  0  0  0  0  0  0  0  0  0  0  0
   58.4470   28.4400   44.8170 C   0  0  0  0  0  0  0  0  0  0  0  0
   57.4070   27.5110   44.8850 C   0  0  0  0  0  0  0  0  0  0  0  0
   54.0700   23.6820   43.2150 H   0  0  0  0  0  0  0  0  0  0  0  0
   54.2970   24.7090   44.6610 H   0  0  0  0  0  0  0  0  0  0  0  0
   55.8090   22.0877   42.5397 H   0  0  0  0  0  0  0  0  0  0  0  0
   57.7893   20.6991   43.1343 H   0  0  0  0  0  0  0  0  0  0  0  0
   58.9053   20.9958   45.3453 H   0  0  0  0  0  0  0  0  0  0  0  0
   58.0942   22.7362   46.9323 H   0  0  0  0  0  0  0  0  0  0  0  0
   57.9959   26.2550   48.0126 H   0  0  0  0  0  0  0  0  0  0  0  0
   59.8515   27.9138   47.8906 H   0  0  0  0  0  0  0  0  0  0  0  0
   61.1084   29.4999   46.6570 H   0  0  0  0  0  0  0  0  0  0  0  0
   60.7980   29.7836   44.9096 H   0  0  0  0  0  0  0  0  0  0  0  0
   59.8870   31.4200   47.1540 H   0  0  0  0  0  0  0  0  0  0  0  0
   58.8731   34.9429   46.0681 H   0  0  0  0  0  0  0  0  0  0  0  0
   58.5126   35.2112   47.8111 H   0  0  0  0  0  0  0  0  0  0  0  0
   60.0255   34.3501   49.5659 H   0  0  0  0  0  0  0  0  0  0  0  0
   62.4018   33.8386   50.1276 H   0  0  0  0  0  0  0  0  0  0  0  0
   64.0428   33.3556   48.3073 H   0  0  0  0  0  0  0  0  0  0  0  0
   63.3060   33.3844   45.9216 H   0  0  0  0  0  0  0  0  0  0  0  0
   60.9276   33.8824   45.3531 H   0  0  0  0  0  0  0  0  0  0  0  0
   58.5863   29.0409   43.9062 H   0  0  0  0  0  0  0  0  0  0  0  0
   56.7426   27.3697   44.0198 H   0  0  0  0  0  0  0  0  0  0  0  0
  1  2  1  0
  2  3  2  0
  3  4  1  0
  4  5  2  0
  5  6  1  0
  6  7  2  0
  7  8  1  0
  8  9  1  0
  9 10  2  0
  9 11  1  0
 11 12  2  0
 12 13  1  0
 13 14  2  0
 14 15  1  0
 15 16  1  0
 16 17  1  0
 17 18  2  0
 17 19  1  0
 19 20  2  0
 19 21  1  0
 21 22  1  0
 22 23  1  0
 23 24  2  0
 24 25  1  0
 25 26  2  0
 26 27  1  0
 27 28  2  0
 14 29  1  0
 29 30  2  0
  7  2  1  0
 30 11  1  0
 28 23  1  0
  1 31  1  0
  1 32  1  0
  3 33  1  0
  4 34  1  0
  5 35  1  0
  6 36  1  0
 12 37  1  0
 13 38  1  0
 15 39  1  0
 15 40  1  0
 16 41  1  0
 22 42  1  0
 22 43  1  0
 24 44  1  0
 25 45  1  0
 26 46  1  0
 27 47  1  0
 28 48  1  0
 29 49  1  0
 30 50  1  0
M  CHG  2   8  -1  21  -1
M  END
>  <UniqueID>  (84) 
80

>  <SMILES>  (84) 
Nc1ccccc1[N-]C(=O)c1ccc(CNC(=O)C(=O)[N-]Cc2ccccc2)cc1

>  <Energy>  (84) 
53.642136769794966

>  <Genealogy>  (84) 
Nc1ccccc1[N-]C(=O)c1ccc(CNC(=O)C(=O)[N-]Cc2ccccc2)cc1 (protonated)
Nc1ccccc1[N-]C(=O)c1ccc(CNC(=O)C(=O)[N-]Cc2ccccc2)cc1 (3D coordinates assigned)
Nc1ccccc1[N-]C(=O)c1ccc(CNC(=O)C(=O)[N-]Cc2ccccc2)cc1 (optimized conformer: 53.642136769794966 kcal/mol)

>  <smiles>  (84) 
Nc1ccccc1NC(=O)c1ccc(CNC(=O)C(=O)NCc2ccccc2)cc1

>  <score_type>  (84) 
oracle

>  <origin>  (84) 
adg

>  <m_score__min__energy>  (84) 
-11.16

>  <m_primary>  (84) 
energy

$$$$
84:0
     RDKit          3D

 56 60  0  0  0  0  0  0  0  0999 V2000
   57.2089   23.9285   43.0391 H   0  0  0  0  0  0  0  0  0  0  0  0
   57.0770   24.5060   43.9660 C   0  0  0  0  0  0  0  0  0  0  0  0
   57.5257   25.5060   44.0595 H   0  0  0  0  0  0  0  0  0  0  0  0
   56.3720   23.9930   44.9780 C   0  0  0  0  0  0  0  0  0  0  0  0
   55.9286   22.9920   44.8715 H   0  0  0  0  0  0  0  0  0  0  0  0
   56.1710   24.7530   46.2590 C   0  0  0  0  0  0  0  0  0  0  0  0
   55.4719   24.1977   46.9015 H   0  0  0  0  0  0  0  0  0  0  0  0
   57.1448   24.8648   46.7583 H   0  0  0  0  0  0  0  0  0  0  0  0
   55.6250   26.0840   45.9950 N   0  0  0  0  0  0  0  0  0  0  0  0
   56.3220   27.1810   45.9810 C   0  0  0  0  0  0  0  0  0  0  0  0
   55.8890   28.2350   45.2440 N   0  0  0  0  0  0  0  0  0  0  0  0
   56.6000   29.3930   45.2160 C   0  0  0  0  0  0  0  0  0  0  0  0
   56.1940   30.4120   44.5200 N   0  0  0  0  0  0  0  0  0  0  0  0
   57.0540   31.2450   43.6800 C   0  0  0  0  0  0  0  0  0  0  0  0
   57.9012   30.6426   43.3203 H   0  0  0  0  0  0  0  0  0  0  0  0
   56.4650   31.6187   42.8294 H   0  0  0  0  0  0  0  0  0  0  0  0
   57.5790   32.4210   44.4620 C   0  0  0  0  0  0  0  0  0  0  0  0
   58.6090   33.2130   43.9320 C   0  0  0  0  0  0  0  0  0  0  0  0
   59.0179   32.9856   42.9365 H   0  0  0  0  0  0  0  0  0  0  0  0
   59.1180   34.2910   44.6650 C   0  0  0  0  0  0  0  0  0  0  0  0
   59.9239   34.9103   44.2442 H   0  0  0  0  0  0  0  0  0  0  0  0
   58.6030   34.5810   45.9310 C   0  0  0  0  0  0  0  0  0  0  0  0
   59.0042   35.4283   46.5064 H   0  0  0  0  0  0  0  0  0  0  0  0
   57.5790   33.7960   46.4670 C   0  0  0  0  0  0  0  0  0  0  0  0
   57.1750   34.0254   47.4641 H   0  0  0  0  0  0  0  0  0  0  0  0
   57.0670   32.7180   45.7360 C   0  0  0  0  0  0  0  0  0  0  0  0
   56.2611   32.1013   46.1604 H   0  0  0  0  0  0  0  0  0  0  0  0
   57.7510   29.4890   45.9280 N   0  0  0  0  0  0  0  0  0  0  0  0
   58.1950   28.4390   46.6690 C   0  0  0  0  0  0  0  0  0  0  0  0
   59.2950   28.5130   47.3610 N   0  0  0  0  0  0  0  0  0  0  0  0
   59.9900   29.7150   47.8470 C   0  0  1  0  0  0  0  0  0  0  0  0
   58.9080   30.7430   48.2720 C   0  0  0  0  0  0  0  0  0  0  0  0
   58.2858   30.3066   49.0672 H   0  0  0  0  0  0  0  0  0  0  0  0
   58.2865   30.9891   47.3984 H   0  0  0  0  0  0  0  0  0  0  0  0
   59.5710   32.0360   48.7960 C   0  0  2  0  0  0  0  0  0  0  0  0
   58.7933   32.7548   49.0936 H   0  0  0  0  0  0  0  0  0  0  0  0
   60.4420   32.6530   47.6810 C   0  0  0  0  0  0  0  0  0  0  0  0
   60.9182   33.5719   48.0538 H   0  0  0  0  0  0  0  0  0  0  0  0
   59.8105   32.8936   46.8131 H   0  0  0  0  0  0  0  0  0  0  0  0
   61.5310   31.6430   47.2610 C   0  0  1  0  0  0  0  0  0  0  0  0
   62.1546   32.0843   46.4696 H   0  0  0  0  0  0  0  0  0  0  0  0
   62.4150   31.3010   48.4820 C   0  0  0  0  0  0  0  0  0  0  0  0
   62.8958   32.2180   48.8535 H   0  0  0  0  0  0  0  0  0  0  0  0
   63.1853   30.5753   48.1819 H   0  0  0  0  0  0  0  0  0  0  0  0
   61.5430   30.6880   49.6020 C   0  0  1  0  0  0  0  0  0  0  0  0
   62.1743   30.4507   50.4710 H   0  0  0  0  0  0  0  0  0  0  0  0
   60.4540   31.7020   50.0160 C   0  0  0  0  0  0  0  0  0  0  0  0
   60.9310   32.6216   50.3860 H   0  0  0  0  0  0  0  0  0  0  0  0
   59.8309   31.2664   50.8110 H   0  0  0  0  0  0  0  0  0  0  0  0
   60.8740   29.3950   49.0860 C   0  0  0  0  0  0  0  0  0  0  0  0
   60.2462   28.9667   49.8812 H   0  0  0  0  0  0  0  0  0  0  0  0
   61.6532   28.6737   48.7986 H   0  0  0  0  0  0  0  0  0  0  0  0
   60.8630   30.3550   46.7300 C   0  0  0  0  0  0  0  0  0  0  0  0
   60.2277   30.6024   45.8667 H   0  0  0  0  0  0  0  0  0  0  0  0
   61.6422   29.6413   46.4244 H   0  0  0  0  0  0  0  0  0  0  0  0
   57.4760   27.2890   46.6930 N   0  0  0  0  0  0  0  0  0  0  0  0
  1  2  1  0
  2  3  1  0
  2  4  2  0
  4  5  1  0
  4  6  1  0
  6  7  1  0
  6  8  1  0
  6  9  1  0
  9 10  2  0
 10 11  1  0
 11 12  1  0
 12 13  2  3
 13 14  1  0
 14 15  1  0
 14 16  1  0
 14 17  1  0
 17 18  2  0
 18 19  1  0
 18 20  1  0
 20 21  1  0
 20 22  2  0
 22 23  1  0
 22 24  1  0
 24 25  1  0
 24 26  2  0
 26 27  1  0
 12 28  1  0
 28 29  1  0
 29 30  2  3
 30 31  1  0
 31 32  1  0
 32 33  1  0
 32 34  1  0
 32 35  1  0
 35 36  1  1
 35 37  1  0
 37 38  1  0
 37 39  1  0
 37 40  1  0
 40 41  1  6
 40 42  1  0
 42 43  1  0
 42 44  1  0
 42 45  1  0
 45 46  1  1
 45 47  1  0
 47 48  1  0
 47 49  1  0
 45 50  1  0
 50 51  1  0
 50 52  1  0
 40 53  1  0
 53 54  1  0
 53 55  1  0
 29 56  1  0
 56 10  1  0
 26 17  1  0
 31 50  1  1
 53 31  1  0
 47 35  1  0
M  CHG  3  11  -1  28  -1  56  -1
M  END
>  <UniqueID>  (85) 
81

>  <SMILES>  (85) 
C=CC/N=c1/[n-]c(=NCc2ccccc2)[n-]c(=NC23CC4CC(CC(C4)C2)C3)[n-]1

>  <Energy>  (85) 
55.653050485208

>  <Genealogy>  (85) 
C=CCN=c1[n-]c(=NCc2ccccc2)[n-]c(=NC23CC4CC(CC(C4)C2)C3)[n-]1 (protonated)
C=CC/N=c1/[n-]c(=NCc2ccccc2)[n-]c(=NC23CC4CC(CC(C4)C2)C3)[n-]1 (cis-trans isomerization)
C=CC/N=c1/[n-]c(=NCc2ccccc2)[n-]c(=NC23CC4CC(CC(C4)C2)C3)[n-]1 (3D coordinates assigned)
C=CC/N=c1/[n-]c(=NCc2ccccc2)[n-]c(=NC23CC4CC(CC(C4)C2)C3)[n-]1 (nonaromatic ring conformer: 55.653050485208 kcal/mol)

>  <smiles>  (85) 
C=CCN=c1[nH]c(=NCc2ccccc2)[nH]c(=NC23CC4CC(CC(C4)C2)C3)[nH]1

>  <score_type>  (85) 
oracle

>  <origin>  (85) 
adg

>  <m_score__min__energy>  (85) 
-13.710000000000001

>  <m_primary>  (85) 
energy

$$$$
85:0
     RDKit          3D

 44 47  0  0  0  0  0  0  0  0999 V2000
   58.1915   34.2529   43.2984 H   0  0  0  0  0  0  0  0  0  0  0  0
   57.9830   33.2690   43.7440 C   0  0  0  0  0  0  0  0  0  0  0  0
   57.8860   31.8080   42.9140 S   0  0  0  0  0  0  0  0  0  0  0  0
   57.5460   30.9290   44.3040 C   0  0  0  0  0  0  0  0  0  0  0  0
   57.3930   29.6400   44.3210 N   0  0  0  0  0  0  0  0  0  0  0  0
   56.3610   28.9440   45.0340 C   0  0  0  0  0  0  0  0  0  0  0  0
   55.1670   29.3170   44.8980 O   0  0  0  0  0  0  0  0  0  0  0  0
   56.6480   27.8340   45.8940 N   0  0  0  0  0  0  0  0  0  0  0  0
   56.7250   26.4580   45.4890 C   0  0  0  0  0  0  0  0  0  0  0  0
   55.8080   25.4980   45.9530 C   0  0  0  0  0  0  0  0  0  0  0  0
   55.0418   25.7833   46.6890 H   0  0  0  0  0  0  0  0  0  0  0  0
   55.8660   24.1830   45.4830 C   0  0  0  0  0  0  0  0  0  0  0  0
   55.1511   23.4344   45.8552 H   0  0  0  0  0  0  0  0  0  0  0  0
   56.8320   23.8180   44.5400 C   0  0  0  0  0  0  0  0  0  0  0  0
   56.8570   22.0390   43.8440 Br  0  0  0  0  0  0  0  0  0  0  0  0
   57.7510   24.7650   44.0800 C   0  0  0  0  0  0  0  0  0  0  0  0
   58.5197   24.4748   43.3487 H   0  0  0  0  0  0  0  0  0  0  0  0
   57.6940   26.0820   44.5490 C   0  0  0  0  0  0  0  0  0  0  0  0
   58.4138   26.8264   44.1778 H   0  0  0  0  0  0  0  0  0  0  0  0
   57.5120   31.7130   45.4030 N   0  0  0  0  0  0  0  0  0  0  0  0
   57.7530   33.0140   45.0940 C   0  0  0  0  0  0  0  0  0  0  0  0
   57.7640   34.0820   46.1440 C   0  0  0  0  0  0  0  0  0  0  0  0
   57.5707   35.0561   45.6709 H   0  0  0  0  0  0  0  0  0  0  0  0
   56.9836   33.8578   46.8861 H   0  0  0  0  0  0  0  0  0  0  0  0
   59.0870   34.1260   46.8350 C   0  0  0  0  0  0  0  0  0  0  0  0
   59.3050   34.7540   48.0070 N   0  0  0  0  0  0  0  0  0  0  0  0
   60.5870   34.5880   48.2840 N   0  0  0  0  0  0  0  0  0  0  0  0
   61.0990   33.8690   47.2690 C   0  0  0  0  0  0  0  0  0  0  0  0
   62.8160   33.3800   47.1560 S   0  0  0  0  0  0  0  0  0  0  0  0
   62.6260   31.9190   48.2370 C   0  0  0  0  0  0  0  0  0  0  0  0
   63.4665   31.2313   48.0621 H   0  0  0  0  0  0  0  0  0  0  0  0
   62.6145   32.2584   49.2833 H   0  0  0  0  0  0  0  0  0  0  0  0
   61.3320   31.1970   47.9540 C   0  0  0  0  0  0  0  0  0  0  0  0
   61.1970   30.4680   46.7590 C   0  0  0  0  0  0  0  0  0  0  0  0
   62.0248   30.4495   46.0348 H   0  0  0  0  0  0  0  0  0  0  0  0
   60.0200   29.7670   46.4840 C   0  0  0  0  0  0  0  0  0  0  0  0
   59.9239   29.2006   45.5459 H   0  0  0  0  0  0  0  0  0  0  0  0
   58.9660   29.7850   47.3990 C   0  0  0  0  0  0  0  0  0  0  0  0
   58.0395   29.2337   47.1809 H   0  0  0  0  0  0  0  0  0  0  0  0
   59.0870   30.5030   48.5920 C   0  0  0  0  0  0  0  0  0  0  0  0
   58.2543   30.5144   49.3107 H   0  0  0  0  0  0  0  0  0  0  0  0
   60.2630   31.2080   48.8770 C   0  0  0  0  0  0  0  0  0  0  0  0
   60.3590   32.0900   50.3980 Cl  0  0  0  0  0  0  0  0  0  0  0  0
   60.1870   33.5800   46.3740 O   0  0  0  0  0  0  0  0  0  0  0  0
  1  2  1  0
  2  3  1  0
  3  4  1  0
  4  5  2  0
  5  6  1  0
  6  7  2  0
  6  8  1  0
  8  9  1  0
  9 10  2  0
 10 11  1  0
 10 12  1  0
 12 13  1  0
 12 14  2  0
 14 15  1  0
 14 16  1  0
 16 17  1  0
 16 18  2  0
 18 19  1  0
  4 20  1  0
 20 21  1  0
 21 22  1  0
 22 23  1  0
 22 24  1  0
 22 25  1  0
 25 26  2  0
 26 27  1  0
 27 28  2  0
 28 29  1  0
 29 30  1  0
 30 31  1  0
 30 32  1  0
 30 33  1  0
 33 34  2  0
 34 35  1  0
 34 36  1  0
 36 37  1  0
 36 38  2  0
 38 39  1  0
 38 40  1  0
 40 41  1  0
 40 42  2  0
 42 43  1  0
 28 44  1  0
 21  2  2  0
 44 25  1  0
 18  9  1  0
 42 33  1  0
M  CHG  2   8  -1  20  -1
M  END
>  <UniqueID>  (86) 
82

>  <SMILES>  (86) 
O=C(/N=c1\[n-]c(Cc2nnc(SCc3ccccc3Cl)o2)cs1)[N-]c1ccc(Br)cc1

>  <Energy>  (86) 
112.13036421575754

>  <Genealogy>  (86) 
O=C(N=c1[n-]c(Cc2nnc(SCc3ccccc3Cl)o2)cs1)[N-]c1ccc(Br)cc1 (protonated)
O=C(/N=c1\[n-]c(Cc2nnc(SCc3ccccc3Cl)o2)cs1)[N-]c1ccc(Br)cc1 (cis-trans isomerization)
O=C(/N=c1\[n-]c(Cc2nnc(SCc3ccccc3Cl)o2)cs1)[N-]c1ccc(Br)cc1 (3D coordinates assigned)
O=C(/N=c1\[n-]c(Cc2nnc(SCc3ccccc3Cl)o2)cs1)[N-]c1ccc(Br)cc1 (optimized conformer: 112.13036421575754 kcal/mol)

>  <smiles>  (86) 
O=C(N=c1[nH]c(Cc2nnc(SCc3ccccc3Cl)o2)cs1)Nc1ccc(Br)cc1

>  <score_type>  (86) 
oracle

>  <origin>  (86) 
adg

>  <m_score__min__energy>  (86) 
-11.24

>  <m_primary>  (86) 
energy

$$$$
86:0
     RDKit          3D

 42 44  0  0  0  0  0  0  0  0999 V2000
   58.7229   29.0524   47.0759 H   0  0  0  0  0  0  0  0  0  0  0  0
   58.4720   29.7220   46.2400 C   0  0  0  0  0  0  0  0  0  0  0  0
   57.7640   30.8700   46.4070 N   0  0  0  0  0  0  0  0  0  0  0  0
   57.5640   31.5070   45.2330 C   0  0  0  0  0  0  0  0  0  0  0  0
   56.9310   32.6360   45.1020 N   0  0  0  0  0  0  0  0  0  0  0  0
   57.4710   33.9510   44.8830 C   0  0  0  0  0  0  0  0  0  0  0  0
   56.6940   34.9370   45.0040 O   0  0  0  0  0  0  0  0  0  0  0  0
   58.9350   34.2280   44.6560 C   0  0  0  0  0  0  0  0  0  0  0  0
   59.0564   34.7556   43.6985 H   0  0  0  0  0  0  0  0  0  0  0  0
   59.4734   33.2689   44.6404 H   0  0  0  0  0  0  0  0  0  0  0  0
   59.6260   35.2590   45.9970 S   0  0  0  0  0  0  0  0  0  0  0  0
   60.5260   33.9280   46.8090 C   0  0  0  0  0  0  0  0  0  0  0  0
   61.9080   33.8320   46.5920 C   0  0  0  0  0  0  0  0  0  0  0  0
   62.4127   34.5674   45.9482 H   0  0  0  0  0  0  0  0  0  0  0  0
   62.6470   32.8090   47.1880 C   0  0  0  0  0  0  0  0  0  0  0  0
   63.7319   32.7445   47.0180 H   0  0  0  0  0  0  0  0  0  0  0  0
   62.0120   31.8680   47.9990 C   0  0  0  0  0  0  0  0  0  0  0  0
   62.5960   31.0598   48.4635 H   0  0  0  0  0  0  0  0  0  0  0  0
   60.6350   31.9510   48.2220 C   0  0  0  0  0  0  0  0  0  0  0  0
   60.1409   31.2128   48.8708 H   0  0  0  0  0  0  0  0  0  0  0  0
   59.8780   32.9710   47.6230 C   0  0  0  0  0  0  0  0  0  0  0  0
   58.4640   33.0180   47.8550 N   0  0  0  0  0  0  0  0  0  0  0  0
   58.0890   33.1300   48.8230 H   0  0  0  0  0  0  0  0  0  0  0  0
   57.7740   32.9150   47.0800 H   0  0  0  0  0  0  0  0  0  0  0  0
   58.2650   30.6920   43.9420 S   0  0  0  0  0  0  0  0  0  0  0  0
   58.8540   29.4610   44.9290 C   0  0  0  0  0  0  0  0  0  0  0  0
   59.5840   28.2460   44.4540 C   0  0  0  0  0  0  0  0  0  0  0  0
   59.5416   28.2018   43.3557 H   0  0  0  0  0  0  0  0  0  0  0  0
   60.6315   28.3018   44.7851 H   0  0  0  0  0  0  0  0  0  0  0  0
   58.9550   27.0170   45.0230 C   0  0  0  0  0  0  0  0  0  0  0  0
   59.4980   26.1910   46.3840 S   0  0  0  0  0  0  0  0  0  0  0  0
   58.2690   25.0460   46.4070 C   0  0  0  0  0  0  0  0  0  0  0  0
   58.1669   24.2243   47.1311 H   0  0  0  0  0  0  0  0  0  0  0  0
   57.4020   25.3160   45.3520 C   0  0  0  0  0  0  0  0  0  0  0  0
   56.1890   24.4860   45.0550 C   0  0  0  0  0  0  0  0  0  0  0  0
   55.9571   24.5527   43.9818 H   0  0  0  0  0  0  0  0  0  0  0  0
   56.3931   23.4410   45.3311 H   0  0  0  0  0  0  0  0  0  0  0  0
   55.0200   24.9790   45.8440 C   0  0  0  0  0  0  0  0  0  0  0  0
   54.2170   24.1590   46.3650 O   0  0  0  0  0  0  0  0  0  0  0  0
   54.7930   26.3430   45.9740 O   0  0  0  0  0  0  0  0  0  0  0  0
   57.7840   26.4200   44.5760 C   0  0  0  0  0  0  0  0  0  0  0  0
   57.2152   26.7757   43.7043 H   0  0  0  0  0  0  0  0  0  0  0  0
  1  2  1  0
  2  3  1  0
  3  4  1  0
  4  5  2  0
  5  6  1  0
  6  7  2  0
  6  8  1  0
  8  9  1  0
  8 10  1  0
  8 11  1  0
 11 12  1  0
 12 13  2  0
 13 14  1  0
 13 15  1  0
 15 16  1  0
 15 17  2  0
 17 18  1  0
 17 19  1  0
 19 20  1  0
 19 21  2  0
 21 22  1  0
 22 23  1  0
 22 24  1  0
  4 25  1  0
 25 26  1  0
 26 27  1  0
 27 28  1  0
 27 29  1  0
 27 30  1  0
 30 31  1  0
 31 32  1  0
 32 33  1  0
 32 34  2  0
 34 35  1  0
 35 36  1  0
 35 37  1  0
 35 38  1  0
 38 39  2  0
 38 40  1  0
 34 41  1  0
 41 42  1  0
 26  2  2  0
 41 30  2  0
 21 12  1  0
M  CHG  2   3  -1  40  -1
M  END
>  <UniqueID>  (87) 
83

>  <SMILES>  (87) 
Nc1ccccc1SCC(=O)/N=c1\[n-]cc(Cc2cc(CC(=O)[O-])cs2)s1

>  <Energy>  (87) 
91.40753661893757

>  <Genealogy>  (87) 
Nc1ccccc1SCC(=O)N=c1[n-]cc(Cc2cc(CC(=O)[O-])cs2)s1 (protonated)
Nc1ccccc1SCC(=O)/N=c1\[n-]cc(Cc2cc(CC(=O)[O-])cs2)s1 (cis-trans isomerization)
Nc1ccccc1SCC(=O)/N=c1\[n-]cc(Cc2cc(CC(=O)[O-])cs2)s1 (3D coordinates assigned)
Nc1ccccc1SCC(=O)/N=c1\[n-]cc(Cc2cc(CC(=O)[O-])cs2)s1 (optimized conformer: 91.40753661893757 kcal/mol)

>  <smiles>  (87) 
Nc1ccccc1SCC(=O)N=c1[nH]cc(Cc2cc(CC(=O)O)cs2)s1

>  <score_type>  (87) 
oracle

>  <origin>  (87) 
adg

>  <m_score__min__energy>  (87) 
-12.27

>  <m_primary>  (87) 
energy

$$$$
87:0
     RDKit          3D

 70 74  0  0  0  0  0  0  0  0999 V2000
   58.5320   28.6260   45.2650 C   0  0  0  0  0  0  0  0  0  0  0  0
   58.9420   28.7320   46.5370 C   0  0  0  0  0  0  0  0  0  0  0  0
   59.0680   27.6840   47.4530 C   0  0  0  0  0  0  0  0  0  0  0  0
   58.8810   26.3650   47.2520 C   0  0  0  0  0  0  0  0  0  0  0  0
   57.6030   25.8420   46.7490 C   0  0  0  0  0  0  0  0  0  0  0  0
   56.6910   26.5940   46.1130 N   0  0  0  0  0  0  0  0  0  0  0  0
   55.5770   25.8310   46.1530 C   0  0  0  0  0  0  0  0  0  0  0  0
   54.4840   26.2080   45.6510 O   0  0  0  0  0  0  0  0  0  0  0  0
   55.7160   24.6520   46.8040 N   0  0  0  0  0  0  0  0  0  0  0  0
   57.0060   24.6770   47.1730 C   0  0  0  0  0  0  0  0  0  0  0  0
   57.6120   23.6990   47.9540 O   0  0  0  0  0  0  0  0  0  0  0  0
   59.5040   28.2660   48.6420 C   0  0  0  0  0  0  0  0  0  0  0  0
   59.6990   29.6170   48.3930 C   0  0  0  0  0  0  0  0  0  0  0  0
   60.3400   30.5700   49.3350 C   0  0  0  0  0  0  0  0  0  0  0  0
   59.6350   31.1790   50.1800 O   0  0  0  0  0  0  0  0  0  0  0  0
   61.7640   30.8220   49.3060 N   0  0  0  0  0  0  0  0  0  0  0  0
   62.3950   31.3160   48.0720 C   0  0  0  0  0  0  0  0  0  0  0  0
   63.5680   32.2910   48.3010 C   0  0  0  0  0  0  0  0  0  0  0  0
   63.9760   32.5190   49.7850 C   0  0  0  0  0  0  0  0  0  0  0  0
   65.4140   33.0660   49.8460 C   0  0  0  0  0  0  0  0  0  0  0  0
   63.0680   33.5100   50.5120 C   0  0  0  0  0  0  0  0  0  0  0  0
   63.5590   34.2610   51.3970 O   0  0  0  0  0  0  0  0  0  0  0  0
   61.6770   33.6610   50.1860 N   0  0  0  0  0  0  0  0  0  0  0  0
   60.6860   33.8350   51.2300 C   0  0  0  0  0  0  0  0  0  0  0  0
   59.3660   34.1040   50.5170 C   0  0  0  0  0  0  0  0  0  0  0  0
   59.6790   34.2110   49.0210 C   0  0  0  0  0  0  0  0  0  0  0  0
   61.1910   34.0910   48.8790 C   0  0  0  0  0  0  0  0  0  0  0  0
   63.9510   31.1350   50.4840 C   0  0  0  0  0  0  0  0  0  0  0  0
   62.5340   30.5370   50.5200 C   0  0  0  0  0  0  0  0  0  0  0  0
   59.3090   29.9000   47.1210 N   0  0  0  0  0  0  0  0  0  0  0  0
   59.3250   31.1860   46.4860 C   0  0  0  0  0  0  0  0  0  0  0  0
   60.4190   31.6730   46.1020 O   0  0  0  0  0  0  0  0  0  0  0  0
   58.0230   31.8600   46.1400 C   0  0  0  0  0  0  0  0  0  0  0  0
   57.7450   31.8040   44.6590 C   0  0  0  0  0  0  0  0  0  0  0  0
   56.8780   30.8250   44.1410 C   0  0  0  0  0  0  0  0  0  0  0  0
   56.6300   30.7670   42.7650 C   0  0  0  0  0  0  0  0  0  0  0  0
   57.2410   31.6860   41.9040 C   0  0  0  0  0  0  0  0  0  0  0  0
   58.1030   32.6640   42.4120 C   0  0  0  0  0  0  0  0  0  0  0  0
   58.3570   32.7200   43.7850 C   0  0  0  0  0  0  0  0  0  0  0  0
   58.4704   29.5224   44.6305 H   0  0  0  0  0  0  0  0  0  0  0  0
   58.2572   27.6426   44.8558 H   0  0  0  0  0  0  0  0  0  0  0  0
   59.7016   25.6653   47.4688 H   0  0  0  0  0  0  0  0  0  0  0  0
   58.1720   22.9690   47.5290 H   0  0  0  0  0  0  0  0  0  0  0  0
   59.6639   27.7499   49.6002 H   0  0  0  0  0  0  0  0  0  0  0  0
   62.7727   30.4501   47.5085 H   0  0  0  0  0  0  0  0  0  0  0  0
   61.6217   31.8783   47.5280 H   0  0  0  0  0  0  0  0  0  0  0  0
   64.4446   31.8966   47.7663 H   0  0  0  0  0  0  0  0  0  0  0  0
   63.2224   33.2678   47.9316 H   0  0  0  0  0  0  0  0  0  0  0  0
   65.7180   33.1817   50.8968 H   0  0  0  0  0  0  0  0  0  0  0  0
   66.0950   32.3641   49.3424 H   0  0  0  0  0  0  0  0  0  0  0  0
   65.4563   34.0430   49.3424 H   0  0  0  0  0  0  0  0  0  0  0  0
   60.6111   32.9236   51.8414 H   0  0  0  0  0  0  0  0  0  0  0  0
   60.9540   34.6605   51.9058 H   0  0  0  0  0  0  0  0  0  0  0  0
   58.6635   33.2770   50.6978 H   0  0  0  0  0  0  0  0  0  0  0  0
   58.9007   35.0291   50.8880 H   0  0  0  0  0  0  0  0  0  0  0  0
   59.1812   33.3990   48.4708 H   0  0  0  0  0  0  0  0  0  0  0  0
   59.3179   35.1649   48.6090 H   0  0  0  0  0  0  0  0  0  0  0  0
   61.4462   33.3462   48.1108 H   0  0  0  0  0  0  0  0  0  0  0  0
   61.6467   35.0430   48.5693 H   0  0  0  0  0  0  0  0  0  0  0  0
   64.6133   30.4480   49.9368 H   0  0  0  0  0  0  0  0  0  0  0  0
   64.2907   31.2704   51.5214 H   0  0  0  0  0  0  0  0  0  0  0  0
   62.6162   29.4462   50.6356 H   0  0  0  0  0  0  0  0  0  0  0  0
   62.0019   30.9991   51.3646 H   0  0  0  0  0  0  0  0  0  0  0  0
   57.2060   31.3546   46.6759 H   0  0  0  0  0  0  0  0  0  0  0  0
   58.0932   32.9168   46.4370 H   0  0  0  0  0  0  0  0  0  0  0  0
   56.3948   30.1048   44.8177 H   0  0  0  0  0  0  0  0  0  0  0  0
   55.9547   29.9990   42.3599 H   0  0  0  0  0  0  0  0  0  0  0  0
   57.0426   31.6391   40.8231 H   0  0  0  0  0  0  0  0  0  0  0  0
   58.5792   33.3865   41.7328 H   0  0  0  0  0  0  0  0  0  0  0  0
   59.0394   33.4848   44.1843 H   0  0  0  0  0  0  0  0  0  0  0  0
  1  2  2  0
  2  3  1  0
  3  4  2  3
  4  5  1  0
  5  6  1  0
  6  7  1  0
  7  8  2  0
  7  9  1  0
  9 10  1  0
 10 11  1  0
  3 12  1  0
 12 13  2  0
 13 14  1  0
 14 15  2  0
 14 16  1  0
 16 17  1  0
 17 18  1  0
 18 19  1  0
 19 20  1  0
 19 21  1  0
 21 22  2  0
 21 23  1  0
 23 24  1  0
 24 25  1  0
 25 26  1  0
 26 27  1  0
 19 28  1  0
 28 29  1  0
 13 30  1  0
 30 31  1  0
 31 32  2  0
 31 33  1  0
 33 34  1  0
 34 35  2  0
 35 36  1  0
 36 37  2  0
 37 38  1  0
 38 39  2  0
 30  2  1  0
 39 34  1  0
 10  5  2  0
 29 16  1  0
 27 23  1  0
  1 40  1  0
  1 41  1  0
  4 42  1  0
 11 43  1  0
 12 44  1  0
 17 45  1  0
 17 46  1  0
 18 47  1  0
 18 48  1  0
 20 49  1  0
 20 50  1  0
 20 51  1  0
 24 52  1  0
 24 53  1  0
 25 54  1  0
 25 55  1  0
 26 56  1  0
 26 57  1  0
 27 58  1  0
 27 59  1  0
 28 60  1  0
 28 61  1  0
 29 62  1  0
 29 63  1  0
 33 64  1  0
 33 65  1  0
 35 66  1  0
 36 67  1  0
 37 68  1  0
 38 69  1  0
 39 70  1  0
M  CHG  2   6  -1   9  -1
M  END
>  <UniqueID>  (88) 
84

>  <SMILES>  (88) 
C=c1c(=Cc2[n-]c(=O)[n-]c2O)cc(C(=O)N2CCC(C)(C(=O)N3CCCC3)CC2)n1C(=O)Cc1ccccc1

>  <Energy>  (88) 
166.46070825824413

>  <Genealogy>  (88) 
C=c1c(=Cc2[n-]c(=O)[n-]c2O)cc(C(=O)N2CCC(C)(C(=O)N3CCCC3)CC2)n1C(=O)Cc1ccccc1 (protonated)
C=c1c(=Cc2[n-]c(=O)[n-]c2O)cc(C(=O)N2CCC(C)(C(=O)N3CCCC3)CC2)n1C(=O)Cc1ccccc1 (3D coordinates assigned)
C=c1c(=Cc2[n-]c(=O)[n-]c2O)cc(C(=O)N2CCC(C)(C(=O)N3CCCC3)CC2)n1C(=O)Cc1ccccc1 (nonaromatic ring conformer: 166.46070825824413 kcal/mol)

>  <smiles>  (88) 
C=c1c(=Cc2[nH]c(=O)[nH]c2O)cc(C(=O)N2CCC(C)(C(=O)N3CCCC3)CC2)n1C(=O)Cc1ccccc1

>  <score_type>  (88) 
oracle

>  <origin>  (88) 
adg

>  <m_score__min__energy>  (88) 
-14.199999999999999

>  <m_primary>  (88) 
energy

$$$$
88:0
     RDKit          3D

 56 60  0  0  0  0  0  0  0  0999 V2000
   59.8150   29.4350   47.8130 C   0  0  0  0  0  0  0  0  0  0  0  0
   59.2250   29.8550   46.6820 C   0  0  0  0  0  0  0  0  0  0  0  0
   58.5550   29.0670   45.7280 C   0  0  0  0  0  0  0  0  0  0  0  0
   58.4540   27.7290   45.5900 C   0  0  0  0  0  0  0  0  0  0  0  0
   57.2330   26.9360   45.7800 C   0  0  0  0  0  0  0  0  0  0  0  0
   57.2190   25.7140   46.3340 N   0  0  0  0  0  0  0  0  0  0  0  0
   55.9040   25.4290   46.4290 C   0  0  0  0  0  0  0  0  0  0  0  0
   55.4800   24.3430   46.8960 O   0  0  0  0  0  0  0  0  0  0  0  0
   55.0780   26.4100   46.0080 N   0  0  0  0  0  0  0  0  0  0  0  0
   55.9360   27.3610   45.6090 C   0  0  0  0  0  0  0  0  0  0  0  0
   55.5410   28.5970   45.1210 O   0  0  0  0  0  0  0  0  0  0  0  0
   57.9390   29.9550   44.8600 C   0  0  0  0  0  0  0  0  0  0  0  0
   58.2890   31.2260   45.2670 C   0  0  0  0  0  0  0  0  0  0  0  0
   57.8740   32.4890   44.5730 C   0  0  0  0  0  0  0  0  0  0  0  0
   59.0620   31.1680   46.3740 N   0  0  0  0  0  0  0  0  0  0  0  0
   59.5890   32.3020   47.0850 C   0  0  0  0  0  0  0  0  0  0  0  0
   58.7410   33.3450   47.4800 C   0  0  0  0  0  0  0  0  0  0  0  0
   59.2580   34.4580   48.1480 C   0  0  0  0  0  0  0  0  0  0  0  0
   60.6290   34.5420   48.4110 C   0  0  0  0  0  0  0  0  0  0  0  0
   61.4940   33.5140   47.9960 C   0  0  0  0  0  0  0  0  0  0  0  0
   62.9490   33.6310   48.2140 C   0  0  0  0  0  0  0  0  0  0  0  0
   63.6500   34.2090   47.3360 O   0  0  0  0  0  0  0  0  0  0  0  0
   63.5830   33.0620   49.3760 N   0  0  0  0  0  0  0  0  0  0  0  0
   63.6780   31.5990   49.4880 C   0  0  0  0  0  0  0  0  0  0  0  0
   63.9720   31.1730   50.9370 C   0  0  0  0  0  0  0  0  0  0  0  0
   65.1190   31.9140   51.5100 N   0  0  0  0  0  0  0  0  0  0  0  0
   66.4070   31.5010   50.9290 C   0  0  0  0  0  0  0  0  0  0  0  0
   66.9640   32.6720   50.1440 C   0  0  0  0  0  0  0  0  0  0  0  0
   66.3540   33.8840   50.8030 C   0  0  0  0  0  0  0  0  0  0  0  0
   65.0270   33.3900   51.3880 C   0  0  1  0  0  0  0  0  0  0  0  0
   63.8040   33.8860   50.5740 C   0  0  0  0  0  0  0  0  0  0  0  0
   60.9610   32.3840   47.3590 C   0  0  0  0  0  0  0  0  0  0  0  0
   60.3083   30.1594   48.4778 H   0  0  0  0  0  0  0  0  0  0  0  0
   59.8049   28.3666   48.0746 H   0  0  0  0  0  0  0  0  0  0  0  0
   59.3674   27.1836   45.3103 H   0  0  0  0  0  0  0  0  0  0  0  0
   57.2934   29.6955   44.0080 H   0  0  0  0  0  0  0  0  0  0  0  0
   57.6227   33.2537   45.3227 H   0  0  0  0  0  0  0  0  0  0  0  0
   58.7007   32.8502   43.9436 H   0  0  0  0  0  0  0  0  0  0  0  0
   56.9942   32.2895   43.9436 H   0  0  0  0  0  0  0  0  0  0  0  0
   57.6641   33.2874   47.2634 H   0  0  0  0  0  0  0  0  0  0  0  0
   58.5863   35.2685   48.4672 H   0  0  0  0  0  0  0  0  0  0  0  0
   61.0322   35.4154   48.9445 H   0  0  0  0  0  0  0  0  0  0  0  0
   62.7254   31.1515   49.1681 H   0  0  0  0  0  0  0  0  0  0  0  0
   64.5022   31.2521   48.8475 H   0  0  0  0  0  0  0  0  0  0  0  0
   63.0808   31.3666   51.5521 H   0  0  0  0  0  0  0  0  0  0  0  0
   64.2265   30.1029   50.9321 H   0  0  0  0  0  0  0  0  0  0  0  0
   67.1063   31.2230   51.7313 H   0  0  0  0  0  0  0  0  0  0  0  0
   66.2676   30.6312   50.2702 H   0  0  0  0  0  0  0  0  0  0  0  0
   68.0614   32.7013   50.2133 H   0  0  0  0  0  0  0  0  0  0  0  0
   66.7261   32.6113   49.0717 H   0  0  0  0  0  0  0  0  0  0  0  0
   67.0109   34.2628   51.5999 H   0  0  0  0  0  0  0  0  0  0  0  0
   66.2105   34.7123   50.0936 H   0  0  0  0  0  0  0  0  0  0  0  0
   64.8580   33.8171   52.3875 H   0  0  0  0  0  0  0  0  0  0  0  0
   62.9081   33.8386   51.2105 H   0  0  0  0  0  0  0  0  0  0  0  0
   64.0009   34.9188   50.2507 H   0  0  0  0  0  0  0  0  0  0  0  0
   61.6251   31.5554   47.0721 H   0  0  0  0  0  0  0  0  0  0  0  0
  1  2  2  0
  2  3  1  0
  3  4  2  3
  4  5  1  0
  5  6  1  0
  6  7  1  0
  7  8  2  0
  7  9  1  0
  9 10  1  0
 10 11  1  0
  3 12  1  0
 12 13  2  0
 13 14  1  0
 13 15  1  0
 15 16  1  0
 16 17  2  0
 17 18  1  0
 18 19  2  0
 19 20  1  0
 20 21  1  0
 21 22  2  0
 21 23  1  0
 23 24  1  0
 24 25  1  0
 25 26  1  0
 26 27  1  0
 27 28  1  0
 28 29  1  0
 29 30  1  0
 30 31  1  0
 20 32  2  0
 15  2  1  0
 32 16  1  0
 10  5  2  0
 31 23  1  0
 30 26  1  0
  1 33  1  0
  1 34  1  0
  4 35  1  0
 12 36  1  0
 14 37  1  0
 14 38  1  0
 14 39  1  0
 17 40  1  0
 18 41  1  0
 19 42  1  0
 24 43  1  0
 24 44  1  0
 25 45  1  0
 25 46  1  0
 27 47  1  0
 27 48  1  0
 28 49  1  0
 28 50  1  0
 29 51  1  0
 29 52  1  0
 30 53  1  1
 31 54  1  0
 31 55  1  0
 32 56  1  0
M  CHG  3   6  -1   9  -1  11  -1
M  END
>  <UniqueID>  (89) 
85

>  <SMILES>  (89) 
C=c1c(=Cc2[n-]c(=O)[n-]c2[O-])cc(C)n1-c1cccc(C(=O)N2CCN3CCC[C@H]3C2)c1

>  <Energy>  (89) 
148.2685062653683

>  <Genealogy>  (89) 
C=c1c(=Cc2[n-]c(=O)[n-]c2[O-])cc(C)n1-c1cccc(C(=O)N2CCN3CCCC3C2)c1 (protonated)
C=c1c(=Cc2[n-]c(=O)[n-]c2[O-])cc(C)n1-c1cccc(C(=O)N2CCN3CCC[C@H]3C2)c1 (chirality)
C=c1c(=Cc2[n-]c(=O)[n-]c2[O-])cc(C)n1-c1cccc(C(=O)N2CCN3CCC[C@H]3C2)c1 (3D coordinates assigned)
C=c1c(=Cc2[n-]c(=O)[n-]c2[O-])cc(C)n1-c1cccc(C(=O)N2CCN3CCC[C@H]3C2)c1 (nonaromatic ring conformer: 148.2685062653683 kcal/mol)

>  <smiles>  (89) 
C=c1c(=Cc2[nH]c(=O)[nH]c2O)cc(C)n1-c1cccc(C(=O)N2CCN3CCCC3C2)c1

>  <score_type>  (89) 
oracle

>  <origin>  (89) 
adg

>  <m_score__min__energy>  (89) 
-17.440000000000001

>  <m_primary>  (89) 
energy

$$$$
89:0
     RDKit          3D

 35 37  0  0  0  0  0  0  0  0999 V2000
   53.4950   24.4270   45.9850 O   0  0  0  0  0  0  0  0  0  0  0  0
   54.6080   24.8640   45.5860 C   0  0  0  0  0  0  0  0  0  0  0  0
   55.0100   26.2030   45.8940 N   0  0  0  0  0  0  0  0  0  0  0  0
   56.3350   26.5500   46.3960 C   0  0  0  0  0  0  0  0  0  0  0  0
   56.9340   27.6330   45.5560 C   0  0  0  0  0  0  0  0  0  0  0  0
   58.1430   27.5790   44.9020 C   0  0  0  0  0  0  0  0  0  0  0  0
   58.3030   28.7090   44.1910 N   0  0  0  0  0  0  0  0  0  0  0  0
   57.1820   29.4180   44.4490 C   0  0  0  0  0  0  0  0  0  0  0  0
   56.8780   30.7260   43.7950 C   0  0  0  0  0  0  0  0  0  0  0  0
   57.4760   31.8480   44.5970 C   0  0  0  0  0  0  0  0  0  0  0  0
   57.7550   33.0830   43.9870 C   0  0  0  0  0  0  0  0  0  0  0  0
   58.3550   34.1110   44.7210 C   0  0  0  0  0  0  0  0  0  0  0  0
   58.6900   33.9110   46.0640 C   0  0  0  0  0  0  0  0  0  0  0  0
   59.2860   34.9330   46.7920 O   0  0  0  0  0  0  0  0  0  0  0  0
   58.4260   32.6810   46.6740 C   0  0  0  0  0  0  0  0  0  0  0  0
   57.8270   31.6500   45.9420 C   0  0  0  0  0  0  0  0  0  0  0  0
   56.3130   28.7880   45.2680 N   0  0  0  0  0  0  0  0  0  0  0  0
   55.4940   23.9910   44.8060 C   0  0  0  0  0  0  0  0  0  0  0  0
   56.7860   24.3010   44.4190 C   0  0  0  0  0  0  0  0  0  0  0  0
   57.2500   23.2100   43.7210 C   0  0  0  0  0  0  0  0  0  0  0  0
   56.2160   22.3000   43.7220 C   0  0  0  0  0  0  0  0  0  0  0  0
   56.2690   21.0480   43.1200 O   0  0  0  0  0  0  0  0  0  0  0  0
   55.1370   22.7620   44.3810 N   0  0  0  0  0  0  0  0  0  0  0  0
   56.2504   26.9001   47.4354 H   0  0  0  0  0  0  0  0  0  0  0  0
   56.9813   25.6609   46.3527 H   0  0  0  0  0  0  0  0  0  0  0  0
   58.8613   26.7475   44.9524 H   0  0  0  0  0  0  0  0  0  0  0  0
   57.3039   30.7348   42.7808 H   0  0  0  0  0  0  0  0  0  0  0  0
   55.7875   30.8598   43.7405 H   0  0  0  0  0  0  0  0  0  0  0  0
   57.5006   33.2415   42.9286 H   0  0  0  0  0  0  0  0  0  0  0  0
   58.5638   35.0786   44.2412 H   0  0  0  0  0  0  0  0  0  0  0  0
   58.6894   32.5237   47.7303 H   0  0  0  0  0  0  0  0  0  0  0  0
   57.6302   30.6802   46.4223 H   0  0  0  0  0  0  0  0  0  0  0  0
   57.3323   25.2327   44.6276 H   0  0  0  0  0  0  0  0  0  0  0  0
   58.2407   23.0895   43.2584 H   0  0  0  0  0  0  0  0  0  0  0  0
   56.9950   20.3870   43.3670 H   0  0  0  0  0  0  0  0  0  0  0  0
  1  2  2  0
  2  3  1  0
  3  4  1  0
  4  5  1  0
  5  6  2  0
  6  7  1  0
  7  8  1  0
  8  9  1  0
  9 10  1  0
 10 11  2  0
 11 12  1  0
 12 13  2  0
 13 14  1  0
 13 15  1  0
 15 16  2  0
  8 17  2  0
  2 18  1  0
 18 19  2  0
 19 20  1  0
 20 21  2  0
 21 22  1  0
 21 23  1  0
 17  5  1  0
 23 18  1  0
 16 10  1  0
  4 24  1  0
  4 25  1  0
  6 26  1  0
  9 27  1  0
  9 28  1  0
 11 29  1  0
 12 30  1  0
 15 31  1  0
 16 32  1  0
 19 33  1  0
 20 34  1  0
 22 35  1  0
M  CHG  4   3  -1   7  -1  14  -1  23  -1
M  END
>  <UniqueID>  (90) 
86

>  <SMILES>  (90) 
O=C([N-]Cc1c[n-]c(Cc2ccc([O-])cc2)n1)c1ccc(O)[n-]1

>  <Energy>  (90) 
82.83634452748946

>  <Genealogy>  (90) 
O=C([N-]Cc1c[n-]c(Cc2ccc([O-])cc2)n1)c1ccc(O)[n-]1 (protonated)
O=C([N-]Cc1c[n-]c(Cc2ccc([O-])cc2)n1)c1ccc(O)[n-]1 (3D coordinates assigned)
O=C([N-]Cc1c[n-]c(Cc2ccc([O-])cc2)n1)c1ccc(O)[n-]1 (optimized conformer: 82.83634452748946 kcal/mol)

>  <smiles>  (90) 
O=C(NCc1c[nH]c(Cc2ccc(O)cc2)n1)c1ccc(O)[nH]1

>  <score_type>  (90) 
oracle

>  <origin>  (90) 
adg

>  <m_score__min__energy>  (90) 
-14.43

>  <m_primary>  (90) 
energy

$$$$
