0:0
     RDKit          3D

 27 28  0  0  0  0  0  0  0  0999 V2000
   56.4770   30.0560   42.5600 N   0  0  0  0  0  0  0  0  0  0  0  0
   56.5190   29.9900   44.2870 S   0  0  0  0  0  0  0  0  0  0  0  0
   56.6040   31.3830   44.8450 O   0  0  0  0  0  0  0  0  0  0  0  0
   55.2600   29.3430   44.7930 O   0  0  0  0  0  0  0  0  0  0  0  0
   57.9210   29.0590   44.8020 C   0  0  0  0  0  0  0  0  0  0  0  0
   59.1790   29.6690   44.8990 C   0  0  0  0  0  0  0  0  0  0  0  0
   60.2840   28.9330   45.3320 C   0  0  0  0  0  0  0  0  0  0  0  0
   60.1400   27.5850   45.6710 C   0  0  0  0  0  0  0  0  0  0  0  0
   58.8870   26.9610   45.5710 C   0  0  0  0  0  0  0  0  0  0  0  0
   58.7200   25.5260   45.9850 C   0  0  0  0  0  0  0  0  0  0  0  0
   57.3210   25.1300   45.8470 N   0  0  0  0  0  0  0  0  0  0  0  0
   56.7820   24.4060   44.8530 C   0  0  0  0  0  0  0  0  0  0  0  0
   55.4560   24.1920   45.1600 C   0  0  0  0  0  0  0  0  0  0  0  0
   55.1680   24.7660   46.3480 N   0  0  0  0  0  0  0  0  0  0  0  0
   56.3330   25.3240   46.7400 C   0  0  0  0  0  0  0  0  0  0  0  0
   57.7770   27.7090   45.1490 C   0  0  0  0  0  0  0  0  0  0  0  0
   57.3980   29.7020   42.2180 H   0  0  0  0  0  0  0  0  0  0  0  0
   55.7550   29.3690   42.2460 H   0  0  0  0  0  0  0  0  0  0  0  0
   59.2963   30.7300   44.6334 H   0  0  0  0  0  0  0  0  0  0  0  0
   61.2698   29.4154   45.4064 H   0  0  0  0  0  0  0  0  0  0  0  0
   61.0120   27.0109   46.0175 H   0  0  0  0  0  0  0  0  0  0  0  0
   59.3453   24.8863   45.3449 H   0  0  0  0  0  0  0  0  0  0  0  0
   59.0271   25.4133   47.0352 H   0  0  0  0  0  0  0  0  0  0  0  0
   57.3054   24.0478   43.9543 H   0  0  0  0  0  0  0  0  0  0  0  0
   54.7413   23.6383   44.5333 H   0  0  0  0  0  0  0  0  0  0  0  0
   56.4605   25.8753   47.6833 H   0  0  0  0  0  0  0  0  0  0  0  0
   56.7874   27.2324   45.0902 H   0  0  0  0  0  0  0  0  0  0  0  0
  1  2  1  0
  2  3  2  0
  2  4  2  0
  2  5  1  0
  5  6  2  0
  6  7  1  0
  7  8  2  0
  8  9  1  0
  9 10  1  0
 10 11  1  0
 11 12  1  0
 12 13  2  0
 13 14  1  0
 14 15  2  0
  9 16  2  0
 16  5  1  0
 15 11  1  0
  1 17  1  0
  1 18  1  0
  6 19  1  0
  7 20  1  0
  8 21  1  0
 10 22  1  0
 10 23  1  0
 12 24  1  0
 13 25  1  0
 15 26  1  0
 16 27  1  0
M  END
>  <UniqueID>  (1) 
1

>  <SMILES>  (1) 
NS(=O)(=O)c1cccc(Cn2ccnc2)c1

>  <Energy>  (1) 
53.102225108732895

>  <Genealogy>  (1) 
NS(=O)(=O)c1cccc(Cn2ccnc2)c1 (3D coordinates assigned)
NS(=O)(=O)c1cccc(Cn2ccnc2)c1 (optimized conformer: 53.102225108732895 kcal/mol)

>  <smiles>  (1) 
NS(=O)(=O)c1cccc(Cn2ccnc2)c1

>  <score_type>  (1) 
oracle

>  <origin>  (1) 
adg

>  <m_score__min__energy>  (1) 
-6.8600000000000003

>  <m_primary>  (1) 
energy

$$$$
1:0
     RDKit          3D

 54 57  0  0  0  0  0  0  0  0999 V2000
   57.0390   28.2520   44.7880 C   0  0  0  0  0  0  0  0  0  0  0  0
   57.8050   27.3640   45.4430 C   0  0  0  0  0  0  0  0  0  0  0  0
   57.8500   25.9760   45.2390 C   0  0  0  0  0  0  0  0  0  0  0  0
   57.0320   25.1550   44.5510 C   0  0  0  0  0  0  0  0  0  0  0  0
   55.7420   24.6320   45.0310 C   0  0  0  0  0  0  0  0  0  0  0  0
   55.2780   23.3920   44.7870 N   0  0  0  0  0  0  0  0  0  0  0  0
   54.0260   23.4240   45.2940 C   0  0  0  0  0  0  0  0  0  0  0  0
   53.2610   22.4250   45.2720 O   0  0  0  0  0  0  0  0  0  0  0  0
   53.6550   24.6120   45.8180 N   0  0  0  0  0  0  0  0  0  0  0  0
   54.7480   25.3680   45.6290 C   0  0  0  0  0  0  0  0  0  0  0  0
   54.8360   26.7060   45.9920 O   0  0  0  0  0  0  0  0  0  0  0  0
   58.9610   25.5180   45.9300 C   0  0  0  0  0  0  0  0  0  0  0  0
   59.4990   26.6070   46.5860 C   0  0  0  0  0  0  0  0  0  0  0  0
   60.7070   26.5510   47.4710 C   0  0  0  0  0  0  0  0  0  0  0  0
   58.8000   27.7260   46.2920 N   0  0  0  0  0  0  0  0  0  0  0  0
   59.0980   29.0510   46.7670 C   0  0  0  0  0  0  0  0  0  0  0  0
   59.5710   30.0330   45.8850 C   0  0  0  0  0  0  0  0  0  0  0  0
   59.8690   31.3160   46.3520 C   0  0  0  0  0  0  0  0  0  0  0  0
   59.6910   31.6310   47.7070 C   0  0  0  0  0  0  0  0  0  0  0  0
   60.0920   33.2360   48.3150 S   0  0  0  0  0  0  0  0  0  0  0  0
   59.8580   34.2640   47.2410 O   0  0  0  0  0  0  0  0  0  0  0  0
   59.1970   33.5500   49.4810 O   0  0  0  0  0  0  0  0  0  0  0  0
   61.7620   33.2690   48.8230 N   0  0  0  0  0  0  0  0  0  0  0  0
   62.6430   33.2900   47.6450 C   0  0  0  0  0  0  0  0  0  0  0  0
   64.1130   33.4700   48.0760 C   0  0  0  0  0  0  0  0  0  0  0  0
   64.4620   32.7370   49.3180 N   0  0  0  0  0  0  0  0  0  0  0  0
   64.6670   33.6340   50.4680 C   0  0  0  0  0  0  0  0  0  0  0  0
   63.5230   31.6430   49.6320 C   0  0  0  0  0  0  0  0  0  0  0  0
   62.0550   32.1210   49.7140 C   0  0  0  0  0  0  0  0  0  0  0  0
   59.2230   30.6510   48.5900 C   0  0  0  0  0  0  0  0  0  0  0  0
   58.9250   29.3680   48.1230 C   0  0  0  0  0  0  0  0  0  0  0  0
   57.0958   29.3207   45.0425 H   0  0  0  0  0  0  0  0  0  0  0  0
   56.3549   27.9105   43.9971 H   0  0  0  0  0  0  0  0  0  0  0  0
   57.3557   24.8496   43.5451 H   0  0  0  0  0  0  0  0  0  0  0  0
   59.3407   24.4858   45.9515 H   0  0  0  0  0  0  0  0  0  0  0  0
   60.3908   26.5657   48.5245 H   0  0  0  0  0  0  0  0  0  0  0  0
   61.2669   25.6259   47.2691 H   0  0  0  0  0  0  0  0  0  0  0  0
   61.3501   27.4203   47.2691 H   0  0  0  0  0  0  0  0  0  0  0  0
   59.7082   29.7924   44.8204 H   0  0  0  0  0  0  0  0  0  0  0  0
   60.2439   32.0803   45.6554 H   0  0  0  0  0  0  0  0  0  0  0  0
   61.8930   34.1630   49.3530 H   0  0  0  0  0  0  0  0  0  0  0  0
   62.5393   32.3414   47.0979 H   0  0  0  0  0  0  0  0  0  0  0  0
   62.3549   34.1324   46.9990 H   0  0  0  0  0  0  0  0  0  0  0  0
   64.7604   33.1067   47.2642 H   0  0  0  0  0  0  0  0  0  0  0  0
   64.2602   34.5406   48.2812 H   0  0  0  0  0  0  0  0  0  0  0  0
   64.5376   33.0679   51.4022 H   0  0  0  0  0  0  0  0  0  0  0  0
   65.6838   34.0519   50.4303 H   0  0  0  0  0  0  0  0  0  0  0  0
   63.9327   34.4521   50.4303 H   0  0  0  0  0  0  0  0  0  0  0  0
   63.6001   30.8768   48.8465 H   0  0  0  0  0  0  0  0  0  0  0  0
   63.7975   31.2430   50.6192 H   0  0  0  0  0  0  0  0  0  0  0  0
   61.3990   31.2841   49.4325 H   0  0  0  0  0  0  0  0  0  0  0  0
   61.8786   32.4564   50.7466 H   0  0  0  0  0  0  0  0  0  0  0  0
   59.0893   30.8915   49.6550 H   0  0  0  0  0  0  0  0  0  0  0  0
   58.5533   28.6035   48.8212 H   0  0  0  0  0  0  0  0  0  0  0  0
  1  2  2  0
  2  3  1  0
  3  4  2  3
  4  5  1  0
  5  6  1  0
  6  7  1  0
  7  8  2  0
  7  9  1  0
  9 10  1  0
 10 11  1  0
  3 12  1  0
 12 13  2  0
 13 14  1  0
 13 15  1  0
 15 16  1  0
 16 17  2  0
 17 18  1  0
 18 19  2  0
 19 20  1  0
 20 21  2  0
 20 22  2  0
 20 23  1  0
 23 24  1  0
 24 25  1  0
 25 26  1  0
 26 27  1  0
 26 28  1  0
 28 29  1  0
 19 30  1  0
 30 31  2  0
 15  2  1  0
 31 16  1  0
 10  5  2  0
 29 23  1  0
  1 32  1  0
  1 33  1  0
  4 34  1  0
 12 35  1  0
 14 36  1  0
 14 37  1  0
 14 38  1  0
 17 39  1  0
 18 40  1  0
 23 41  1  0
 24 42  1  0
 24 43  1  0
 25 44  1  0
 25 45  1  0
 27 46  1  0
 27 47  1  0
 27 48  1  0
 28 49  1  0
 28 50  1  0
 29 51  1  0
 29 52  1  0
 30 53  1  0
 31 54  1  0
M  CHG  4   6  -1   9  -1  11  -1  23   1
M  END
>  <UniqueID>  (2) 
2

>  <SMILES>  (2) 
C=c1c(=Cc2[n-]c(=O)[n-]c2[O-])cc(C)n1-c1ccc(S(=O)(=O)[NH+]2CCN(C)CC2)cc1

>  <Energy>  (2) 
141.01012295141123

>  <Genealogy>  (2) 
C=c1c(=Cc2[n-]c(=O)[n-]c2[O-])cc(C)n1-c1ccc(S(=O)(=O)[NH+]2CCN(C)CC2)cc1 (protonated)
C=c1c(=Cc2[n-]c(=O)[n-]c2[O-])cc(C)n1-c1ccc(S(=O)(=O)[NH+]2CCN(C)CC2)cc1 (3D coordinates assigned)
C=c1c(=Cc2[n-]c(=O)[n-]c2[O-])cc(C)n1-c1ccc(S(=O)(=O)[NH+]2CCN(C)CC2)cc1 (nonaromatic ring conformer: 141.01012295141123 kcal/mol)

>  <smiles>  (2) 
C=c1c(=Cc2[nH]c(=O)[nH]c2O)cc(C)n1-c1ccc(S(=O)(=O)N2CCN(C)CC2)cc1

>  <score_type>  (2) 
oracle

>  <origin>  (2) 
adg

>  <m_score__min__energy>  (2) 
-14.94

>  <m_primary>  (2) 
energy

$$$$
2:0
     RDKit          3D

 49 52  0  0  0  0  0  0  0  0999 V2000
   57.6760   33.8930   46.3420 C   0  0  0  0  0  0  0  0  0  0  0  0
   57.9580   32.5980   46.2130 C   0  0  0  0  0  0  0  0  0  0  0  0
   57.3890   31.8200   45.2640 N   0  0  0  0  0  0  0  0  0  0  0  0
   57.9220   30.5950   45.4580 C   0  0  0  0  0  0  0  0  0  0  0  0
   57.5480   29.5370   44.7160 C   0  0  0  0  0  0  0  0  0  0  0  0
   57.1890   28.1950   45.2250 C   0  0  0  0  0  0  0  0  0  0  0  0
   55.9370   27.7750   45.5160 N   0  0  0  0  0  0  0  0  0  0  0  0
   56.1190   26.5200   45.9940 C   0  0  0  0  0  0  0  0  0  0  0  0
   55.1650   25.7840   46.3620 O   0  0  0  0  0  0  0  0  0  0  0  0
   57.4150   26.1410   46.0450 N   0  0  0  0  0  0  0  0  0  0  0  0
   57.9600   24.8510   46.4700 C   0  0  0  0  0  0  0  0  0  0  0  0
   57.7660   23.8240   45.3890 C   0  0  0  0  0  0  0  0  0  0  0  0
   58.6910   22.7770   45.2200 C   0  0  0  0  0  0  0  0  0  0  0  0
   58.4880   21.8080   44.2290 C   0  0  0  0  0  0  0  0  0  0  0  0
   57.3600   21.8740   43.4040 C   0  0  0  0  0  0  0  0  0  0  0  0
   56.4320   22.9090   43.5690 C   0  0  0  0  0  0  0  0  0  0  0  0
   55.3370   22.9700   42.7670 F   0  0  0  0  0  0  0  0  0  0  0  0
   56.6350   23.8830   44.5550 C   0  0  0  0  0  0  0  0  0  0  0  0
   58.0920   27.1970   45.5630 C   0  0  0  0  0  0  0  0  0  0  0  0
   59.4810   27.2460   45.4460 O   0  0  0  0  0  0  0  0  0  0  0  0
   58.8080   30.6660   46.5270 C   0  0  0  0  0  0  0  0  0  0  0  0
   59.5090   29.7340   47.0000 O   0  0  0  0  0  0  0  0  0  0  0  0
   58.8220   31.9210   47.0030 N   0  0  0  0  0  0  0  0  0  0  0  0
   59.6380   32.4430   48.0590 C   0  0  0  0  0  0  0  0  0  0  0  0
   59.2010   32.4140   49.2410 O   0  0  0  0  0  0  0  0  0  0  0  0
   60.9800   32.8920   47.7970 N   0  0  0  0  0  0  0  0  0  0  0  0
   61.3370   33.3230   46.4400 C   0  0  0  0  0  0  0  0  0  0  0  0
   62.7710   33.8230   46.3810 C   0  0  0  0  0  0  0  0  0  0  0  0
   63.5990   32.8960   47.0350 O   0  0  0  0  0  0  0  0  0  0  0  0
   63.4300   33.0300   48.4330 C   0  0  0  0  0  0  0  0  0  0  0  0
   61.9690   32.8080   48.8870 C   0  0  0  0  0  0  0  0  0  0  0  0
   58.1638   34.4864   47.1294 H   0  0  0  0  0  0  0  0  0  0  0  0
   56.9552   34.3694   45.6612 H   0  0  0  0  0  0  0  0  0  0  0  0
   57.5050   29.6837   43.6267 H   0  0  0  0  0  0  0  0  0  0  0  0
   59.0345   24.9612   46.6779 H   0  0  0  0  0  0  0  0  0  0  0  0
   57.4339   24.5205   47.3777 H   0  0  0  0  0  0  0  0  0  0  0  0
   59.5773   22.7193   45.8689 H   0  0  0  0  0  0  0  0  0  0  0  0
   59.2165   20.9941   44.0993 H   0  0  0  0  0  0  0  0  0  0  0  0
   57.2024   21.1127   42.6258 H   0  0  0  0  0  0  0  0  0  0  0  0
   55.9064   24.6979   44.6776 H   0  0  0  0  0  0  0  0  0  0  0  0
   60.0200   28.0130   45.8280 H   0  0  0  0  0  0  0  0  0  0  0  0
   61.2253   32.4718   45.7522 H   0  0  0  0  0  0  0  0  0  0  0  0
   60.6688   34.1470   46.1494 H   0  0  0  0  0  0  0  0  0  0  0  0
   63.0849   33.9236   45.3316 H   0  0  0  0  0  0  0  0  0  0  0  0
   62.8460   34.8042   46.8725 H   0  0  0  0  0  0  0  0  0  0  0  0
   64.0700   32.2904   48.9363 H   0  0  0  0  0  0  0  0  0  0  0  0
   63.7058   34.0605   48.7013 H   0  0  0  0  0  0  0  0  0  0  0  0
   61.8969   31.8093   49.3425 H   0  0  0  0  0  0  0  0  0  0  0  0
   61.7306   33.6161   49.5942 H   0  0  0  0  0  0  0  0  0  0  0  0
  1  2  2  0
  2  3  1  0
  3  4  1  0
  4  5  2  3
  5  6  1  0
  6  7  1  0
  7  8  1  0
  8  9  2  0
  8 10  1  0
 10 11  1  0
 11 12  1  0
 12 13  2  0
 13 14  1  0
 14 15  2  0
 15 16  1  0
 16 17  1  0
 16 18  2  0
 10 19  1  0
 19 20  1  0
  4 21  1  0
 21 22  2  0
 21 23  1  0
 23 24  1  0
 24 25  2  0
 24 26  1  0
 26 27  1  0
 27 28  1  0
 28 29  1  0
 29 30  1  0
 30 31  1  0
 23  2  1  0
 31 26  1  0
 19  6  2  0
 18 12  1  0
  1 32  1  0
  1 33  1  0
  5 34  1  0
 11 35  1  0
 11 36  1  0
 13 37  1  0
 14 38  1  0
 15 39  1  0
 18 40  1  0
 20 41  1  0
 27 42  1  0
 27 43  1  0
 28 44  1  0
 28 45  1  0
 30 46  1  0
 30 47  1  0
 31 48  1  0
 31 49  1  0
M  CHG  2   3  -1   7  -1
M  END
>  <UniqueID>  (3) 
3

>  <SMILES>  (3) 
C=c1[n-]c(=Cc2[n-]c(=O)n(Cc3cccc(F)c3)c2O)c(=O)n1C(=O)N1CCOCC1

>  <Energy>  (3) 
134.12674431823982

>  <Genealogy>  (3) 
C=c1[n-]c(=Cc2[n-]c(=O)n(Cc3cccc(F)c3)c2O)c(=O)n1C(=O)N1CCOCC1 (protonated)
C=c1[n-]c(=Cc2[n-]c(=O)n(Cc3cccc(F)c3)c2O)c(=O)n1C(=O)N1CCOCC1 (3D coordinates assigned)
C=c1[n-]c(=Cc2[n-]c(=O)n(Cc3cccc(F)c3)c2O)c(=O)n1C(=O)N1CCOCC1 (nonaromatic ring conformer: 134.12674431823982 kcal/mol)

>  <smiles>  (3) 
C=c1[nH]c(=Cc2[nH]c(=O)n(Cc3cccc(F)c3)c2O)c(=O)n1C(=O)N1CCOCC1

>  <score_type>  (3) 
oracle

>  <origin>  (3) 
adg

>  <m_score__min__energy>  (3) 
-11.949999999999999

>  <m_primary>  (3) 
energy

$$$$
3:0
     RDKit          3D

 46 49  0  0  0  0  0  0  0  0999 V2000
   55.1430   27.9700   44.8740 H   0  0  0  0  0  0  0  0  0  0  0  0
   55.2030   28.9270   44.5500 O   0  0  0  0  0  0  0  0  0  0  0  0
   56.2480   29.7610   44.9410 C   0  0  0  0  0  0  0  0  0  0  0  0
   56.3190   31.0620   44.5730 N   0  0  0  0  0  0  0  0  0  0  0  0
   57.4560   31.5060   45.1420 C   0  0  0  0  0  0  0  0  0  0  0  0
   57.9860   32.7900   45.0360 C   0  0  0  0  0  0  0  0  0  0  0  0
   57.4598   33.5747   44.4726 H   0  0  0  0  0  0  0  0  0  0  0  0
   59.2130   33.0540   45.6700 C   0  0  0  0  0  0  0  0  0  0  0  0
   59.6467   34.0637   45.6206 H   0  0  0  0  0  0  0  0  0  0  0  0
   59.8940   32.0310   46.3710 C   0  0  0  0  0  0  0  0  0  0  0  0
   61.4250   32.3830   47.1700 S   0  0  0  0  0  0  0  0  0  0  0  0
   62.3500   31.2040   47.0360 O   0  0  0  0  0  0  0  0  0  0  0  0
   62.0610   33.5690   46.5000 O   0  0  0  0  0  0  0  0  0  0  0  0
   61.1500   32.7400   48.8580 N   0  0  0  0  0  0  0  0  0  0  0  0
   60.2420   33.8980   48.9900 C   0  0  0  0  0  0  0  0  0  0  0  0
   60.8180   34.8251   48.8535 H   0  0  0  0  0  0  0  0  0  0  0  0
   59.4563   33.8185   48.2242 H   0  0  0  0  0  0  0  0  0  0  0  0
   59.5800   33.9170   50.3720 C   0  0  0  0  0  0  0  0  0  0  0  0
   60.3623   33.9132   51.1453 H   0  0  0  0  0  0  0  0  0  0  0  0
   58.9626   34.8239   50.4514 H   0  0  0  0  0  0  0  0  0  0  0  0
   58.7070   32.7350   50.5610 N   0  0  0  0  0  0  0  0  0  0  0  0
   58.5200   32.4580   51.9930 C   0  0  0  0  0  0  0  0  0  0  0  0
   59.0385   33.2260   52.5858 H   0  0  0  0  0  0  0  0  0  0  0  0
   57.4464   32.4729   52.2322 H   0  0  0  0  0  0  0  0  0  0  0  0
   58.9352   31.4679   52.2322 H   0  0  0  0  0  0  0  0  0  0  0  0
   59.1710   31.5290   49.8310 C   0  0  0  0  0  0  0  0  0  0  0  0
   58.9107   30.6377   50.4207 H   0  0  0  0  0  0  0  0  0  0  0  0
   58.6767   31.5220   48.8483 H   0  0  0  0  0  0  0  0  0  0  0  0
   60.6920   31.5350   49.5900 C   0  0  0  0  0  0  0  0  0  0  0  0
   61.2028   31.4992   50.5636 H   0  0  0  0  0  0  0  0  0  0  0  0
   60.9341   30.6582   48.9714 H   0  0  0  0  0  0  0  0  0  0  0  0
   59.3350   30.7410   46.4560 C   0  0  0  0  0  0  0  0  0  0  0  0
   59.8590   29.9313   46.9849 H   0  0  0  0  0  0  0  0  0  0  0  0
   58.0970   30.5190   45.8500 C   0  0  0  0  0  0  0  0  0  0  0  0
   57.3190   29.3850   45.7470 C   0  0  0  0  0  0  0  0  0  0  0  0
   57.5710   28.0410   46.3020 C   0  0  0  0  0  0  0  0  0  0  0  0
   58.3523   27.9295   47.0682 H   0  0  0  0  0  0  0  0  0  0  0  0
   56.8960   26.9520   45.9190 C   0  0  0  0  0  0  0  0  0  0  0  0
   55.5700   26.8050   46.1460 N   0  0  0  0  0  0  0  0  0  0  0  0
   55.3050   25.5920   45.6330 C   0  0  0  0  0  0  0  0  0  0  0  0
   54.1610   25.0660   45.6380 O   0  0  0  0  0  0  0  0  0  0  0  0
   56.4510   25.0320   45.1250 C   0  0  0  0  0  0  0  0  0  0  0  0
   56.5730   23.8410   44.5430 C   0  0  0  0  0  0  0  0  0  0  0  0
   55.6923   23.1920   44.4284 H   0  0  0  0  0  0  0  0  0  0  0  0
   57.5546   23.5058   44.1767 H   0  0  0  0  0  0  0  0  0  0  0  0
   57.4710   25.8870   45.3060 N   0  0  0  0  0  0  0  0  0  0  0  0
  1  2  1  0
  2  3  1  0
  3  4  1  0
  4  5  1  0
  5  6  2  0
  6  7  1  0
  6  8  1  0
  8  9  1  0
  8 10  2  0
 10 11  1  0
 11 12  2  0
 11 13  2  0
 11 14  1  0
 14 15  1  0
 15 16  1  0
 15 17  1  0
 15 18  1  0
 18 19  1  0
 18 20  1  0
 18 21  1  0
 21 22  1  0
 22 23  1  0
 22 24  1  0
 22 25  1  0
 21 26  1  0
 26 27  1  0
 26 28  1  0
 26 29  1  0
 29 30  1  0
 29 31  1  0
 10 32  1  0
 32 33  1  0
 32 34  2  0
 34 35  1  0
 35 36  1  0
 36 37  1  0
 36 38  2  0
 38 39  1  0
 39 40  1  0
 40 41  2  0
 40 42  1  0
 42 43  2  0
 43 44  1  0
 43 45  1  0
 42 46  1  0
 35  3  2  0
 46 38  1  0
 34  5  1  0
 29 14  1  0
M  CHG  3   4  -1  39  -1  46  -1
M  END
>  <UniqueID>  (4) 
4

>  <SMILES>  (4) 
C=c1[n-]/c(=C\c2c(O)[n-]c3ccc(S(=O)(=O)N4CCN(C)CC4)cc23)[n-]c1=O

>  <Energy>  (4) 
123.88539242784991

>  <Genealogy>  (4) 
C=c1[n-]c(=Cc2c(O)[n-]c3ccc(S(=O)(=O)N4CCN(C)CC4)cc23)[n-]c1=O (protonated)
C=c1[n-]/c(=C\c2c(O)[n-]c3ccc(S(=O)(=O)N4CCN(C)CC4)cc23)[n-]c1=O (cis-trans isomerization)
C=c1[n-]/c(=C\c2c(O)[n-]c3ccc(S(=O)(=O)N4CCN(C)CC4)cc23)[n-]c1=O (3D coordinates assigned)
C=c1[n-]/c(=C\c2c(O)[n-]c3ccc(S(=O)(=O)N4CCN(C)CC4)cc23)[n-]c1=O (nonaromatic ring conformer: 123.88539242784991 kcal/mol)

>  <smiles>  (4) 
C=c1[nH]c(=Cc2c(O)[nH]c3ccc(S(=O)(=O)N4CCN(C)CC4)cc23)[nH]c1=O

>  <score_type>  (4) 
oracle

>  <origin>  (4) 
adg

>  <m_score__min__energy>  (4) 
-14.619999999999999

>  <m_primary>  (4) 
energy

$$$$
4:0
     RDKit          3D

 78 82  0  0  1  0  0  0  0  0999 V2000
   56.9420   24.3490   43.4360 C   0  0  0  0  0  0  0  0  0  0  0  0
   56.9380   24.2410   44.9270 C   0  0  0  0  0  0  0  0  0  0  0  0
   56.5560   25.4950   45.6020 C   0  0  0  0  0  0  0  0  0  0  0  0
   55.3980   25.7370   46.0370 O   0  0  0  0  0  0  0  0  0  0  0  0
   57.5310   26.5020   45.7840 N   0  0  0  0  0  0  0  0  0  0  0  0
   57.3990   27.7590   46.3920 C   0  0  0  0  0  0  0  0  0  0  0  0
   58.5200   28.6940   46.4740 C   0  0  0  0  0  0  0  0  0  0  0  0
   59.2090   28.6780   47.7010 C   0  0  0  0  0  0  0  0  0  0  0  0
   60.2460   29.5270   47.9830 C   0  0  0  0  0  0  0  0  0  0  0  0
   60.6630   30.4490   47.0510 C   0  0  0  0  0  0  0  0  0  0  0  0
   61.7500   31.3460   47.4170 C   0  0  0  0  0  0  0  0  0  0  0  0
   61.6500   32.4480   48.2710 C   0  0  0  0  0  0  0  0  0  0  0  0
   62.9300   32.9510   48.3160 C   0  0  0  0  0  0  0  0  0  0  0  0
   63.4060   33.9640   48.9550 N   0  0  0  0  0  0  0  0  0  0  0  0
   63.7640   33.8540   50.3530 C   0  0  0  0  0  0  0  0  0  0  0  0
   63.4630   34.7010   51.2070 O   0  0  0  0  0  0  0  0  0  0  0  0
   64.5280   32.6250   50.6680 C   0  0  0  0  0  0  0  0  0  0  0  0
   65.8450   32.5300   50.2820 C   0  0  0  0  0  0  0  0  0  0  0  0
   66.5590   31.3750   50.5940 C   0  0  0  0  0  0  0  0  0  0  0  0
   65.9790   30.3270   51.2780 C   0  0  0  0  0  0  0  0  0  0  0  0
   66.6380   29.1330   51.6300 N   0  0  0  0  0  0  0  0  0  0  0  0
   68.0430   29.1520   52.0540 C   0  0  0  0  0  0  0  0  0  0  0  0
   68.5820   27.7320   52.0680 C   0  0  0  0  0  0  0  0  0  0  0  0
   68.1680   26.9750   50.9340 N   0  0  0  0  0  0  0  0  0  0  0  0
   69.0110   27.2000   49.7700 C   0  0  0  0  0  0  0  0  0  0  0  0
   66.7870   27.0090   50.5970 C   0  0  0  0  0  0  0  0  0  0  0  0
   66.0240   27.8160   51.6130 C   0  0  0  0  0  0  0  0  0  0  0  0
   64.6580   30.4770   51.6410 C   0  0  0  0  0  0  0  0  0  0  0  0
   63.9210   31.6000   51.3510 C   0  0  0  0  0  0  0  0  0  0  0  0
   63.7460   32.1860   47.5270 N   0  0  0  0  0  0  0  0  0  0  0  0
   63.0180   31.2190   46.9900 N   0  0  0  0  0  0  0  0  0  0  0  0
   60.0080   30.4800   45.8480 C   0  0  0  0  0  0  0  0  0  0  0  0
   58.9390   29.6040   45.5570 C   0  0  0  0  0  0  0  0  0  0  0  0
   58.4090   29.7650   44.2530 N   0  0  0  0  0  0  0  0  0  0  0  0
   57.1800   31.0070   44.0870 S   0  0  0  0  0  0  0  0  0  0  0  0
   55.8850   30.5810   44.7130 O   0  0  0  0  0  0  0  0  0  0  0  0
   57.0280   31.2920   42.6380 O   0  0  0  0  0  0  0  0  0  0  0  0
   57.8290   32.4320   44.8740 C   0  0  0  0  0  0  0  0  0  0  0  0
   57.6000   32.5550   46.2270 C   0  0  0  0  0  0  0  0  0  0  0  0
   58.0610   33.6270   46.9470 C   0  0  0  0  0  0  0  0  0  0  0  0
   58.7720   34.5890   46.2500 C   0  0  0  0  0  0  0  0  0  0  0  0
   59.0170   34.4880   44.8870 C   0  0  0  0  0  0  0  0  0  0  0  0
   58.5400   33.4020   44.2020 C   0  0  0  0  0  0  0  0  0  0  0  0
   56.9813   25.4092   43.1453 H   0  0  0  0  0  0  0  0  0  0  0  0
   57.8214   23.8254   43.0328 H   0  0  0  0  0  0  0  0  0  0  0  0
   56.0263   23.8919   43.0328 H   0  0  0  0  0  0  0  0  0  0  0  0
   56.2242   23.4564   45.2182 H   0  0  0  0  0  0  0  0  0  0  0  0
   57.9657   24.0033   45.2390 H   0  0  0  0  0  0  0  0  0  0  0  0
   58.5040   26.2490   45.3910 H   0  0  0  0  0  0  0  0  0  0  0  0
   56.5983   28.2827   45.8492 H   0  0  0  0  0  0  0  0  0  0  0  0
   57.2379   27.4932   47.4472 H   0  0  0  0  0  0  0  0  0  0  0  0
   58.9011   27.9515   48.4674 H   0  0  0  0  0  0  0  0  0  0  0  0
   60.7482   29.4714   48.9601 H   0  0  0  0  0  0  0  0  0  0  0  0
   60.7553   32.8257   48.7875 H   0  0  0  0  0  0  0  0  0  0  0  0
   66.3272   33.3537   49.7352 H   0  0  0  0  0  0  0  0  0  0  0  0
   67.6124   31.2969   50.2869 H   0  0  0  0  0  0  0  0  0  0  0  0
   68.6307   29.7613   51.3515 H   0  0  0  0  0  0  0  0  0  0  0  0
   68.1179   29.5847   53.0626 H   0  0  0  0  0  0  0  0  0  0  0  0
   69.6812   27.7730   52.0814 H   0  0  0  0  0  0  0  0  0  0  0  0
   68.1823   27.2339   52.9636 H   0  0  0  0  0  0  0  0  0  0  0  0
   70.0253   27.4707   50.0986 H   0  0  0  0  0  0  0  0  0  0  0  0
   69.0542   26.2819   49.1656 H   0  0  0  0  0  0  0  0  0  0  0  0
   68.5910   28.0175   49.1656 H   0  0  0  0  0  0  0  0  0  0  0  0
   66.6664   27.4670   49.6042 H   0  0  0  0  0  0  0  0  0  0  0  0
   66.3946   25.9814   50.5865 H   0  0  0  0  0  0  0  0  0  0  0  0
   64.9659   27.8925   51.3223 H   0  0  0  0  0  0  0  0  0  0  0  0
   66.0588   27.3451   52.6065 H   0  0  0  0  0  0  0  0  0  0  0  0
   64.1698   29.6580   52.1895 H   0  0  0  0  0  0  0  0  0  0  0  0
   62.8678   31.6762   51.6593 H   0  0  0  0  0  0  0  0  0  0  0  0
   64.7750   32.3300   47.3650 H   0  0  0  0  0  0  0  0  0  0  0  0
   63.4450   30.5130   46.3450 H   0  0  0  0  0  0  0  0  0  0  0  0
   60.3239   31.2084   45.0866 H   0  0  0  0  0  0  0  0  0  0  0  0
   58.6650   29.2790   43.4040 H   0  0  0  0  0  0  0  0  0  0  0  0
   57.0302   31.7696   46.7452 H   0  0  0  0  0  0  0  0  0  0  0  0
   57.8747   33.7183   48.0273 H   0  0  0  0  0  0  0  0  0  0  0  0
   59.1562   35.4638   46.7950 H   0  0  0  0  0  0  0  0  0  0  0  0
   59.5869   35.2701   44.3640 H   0  0  0  0  0  0  0  0  0  0  0  0
   58.7235   33.3049   43.1218 H   0  0  0  0  0  0  0  0  0  0  0  0
  1  2  1  0
  2  3  1  0
  3  4  2  0
  3  5  1  0
  5  6  1  0
  6  7  1  0
  7  8  2  0
  8  9  1  0
  9 10  2  0
 10 11  1  0
 11 12  2  0
 12 13  1  0
 13 14  2  0
 14 15  1  0
 15 16  2  0
 15 17  1  0
 17 18  2  0
 18 19  1  0
 19 20  2  0
 20 21  1  0
 21 22  1  0
 22 23  1  0
 23 24  1  0
 24 25  1  0
 24 26  1  0
 26 27  1  0
 20 28  1  0
 28 29  2  0
 13 30  1  0
 30 31  1  0
 10 32  1  0
 32 33  2  0
 33 34  1  0
 34 35  1  0
 35 36  2  0
 35 37  2  0
 35 38  1  0
 38 39  2  0
 39 40  1  0
 40 41  2  0
 41 42  1  0
 42 43  2  0
 33  7  1  0
 43 38  1  0
 31 11  1  0
 29 17  1  0
 27 21  1  0
  1 44  1  0
  1 45  1  0
  1 46  1  0
  2 47  1  0
  2 48  1  0
  5 49  1  0
  6 50  1  0
  6 51  1  0
  8 52  1  0
  9 53  1  0
 12 54  1  0
 18 55  1  0
 19 56  1  0
 22 57  1  0
 22 58  1  0
 23 59  1  0
 23 60  1  0
 25 61  1  0
 25 62  1  0
 25 63  1  0
 26 64  1  0
 26 65  1  0
 27 66  1  0
 27 67  1  0
 28 68  1  0
 29 69  1  0
 30 70  1  0
 31 71  1  0
 32 72  1  0
 34 73  1  0
 39 74  1  0
 40 75  1  0
 41 76  1  0
 42 77  1  0
 43 78  1  0
M  END
>  <smiles>  (5) 
CCC(=O)NCc1ccc(-c2cc(=NC(=O)c3ccc(N4CCN(C)CC4)cc3)[nH][nH]2)cc1NS(=O)(=O)c1ccccc1

>  <score_type>  (5) 
oracle

>  <origin>  (5) 
adg

>  <m_score__min__energy>  (5) 
-12.460000000000001

>  <m_primary>  (5) 
energy

$$$$
5:0
     RDKit          3D

 57 60  0  0  0  0  0  0  0  0999 V2000
   53.3940   24.4620   45.4800 C   0  0  0  0  0  0  0  0  0  0  0  0
   54.3640   25.4220   45.9920 N   0  0  0  0  0  0  0  0  0  0  0  0
   55.6500   25.2820   45.8790 C   0  0  0  0  0  0  0  0  0  0  0  0
   56.2550   24.0900   46.2910 C   0  0  0  0  0  0  0  0  0  0  0  0
   57.6400   23.9540   46.1860 C   0  0  0  0  0  0  0  0  0  0  0  0
   58.4050   24.9980   45.6660 C   0  0  0  0  0  0  0  0  0  0  0  0
   57.7700   26.1690   45.2400 C   0  0  0  0  0  0  0  0  0  0  0  0
   58.5650   27.3070   44.6680 C   0  0  0  0  0  0  0  0  0  0  0  0
   58.7850   28.3440   45.6860 N   0  0  0  0  0  0  0  0  0  0  0  0
   58.2250   29.5880   45.7350 C   0  0  0  0  0  0  0  0  0  0  0  0
   57.2600   30.1450   44.7640 C   0  0  0  0  0  0  0  0  0  0  0  0
   56.7540   29.4230   43.8650 O   0  0  0  0  0  0  0  0  0  0  0  0
   56.8620   31.5150   44.8780 N   0  0  0  0  0  0  0  0  0  0  0  0
   57.4410   32.5850   44.0740 C   0  0  0  0  0  0  0  0  0  0  0  0
   57.4480   33.9080   44.8520 C   0  0  0  0  0  0  0  0  0  0  0  0
   58.4120   33.8530   46.0090 C   0  0  0  0  0  0  0  0  0  0  0  0
   57.9720   33.4520   47.2830 C   0  0  0  0  0  0  0  0  0  0  0  0
   58.8880   33.2900   48.3260 C   0  0  0  0  0  0  0  0  0  0  0  0
   60.2510   33.5400   48.1210 C   0  0  0  0  0  0  0  0  0  0  0  0
   61.1570   33.3420   49.2160 N   0  0  0  0  0  0  0  0  0  0  0  0
   62.4630   32.2000   49.2380 S   0  0  0  0  0  0  0  0  0  0  0  0
   62.5080   31.4200   50.7790 N   0  0  0  0  0  0  0  0  0  0  0  0
   62.2580   31.1660   48.1640 O   0  0  0  0  0  0  0  0  0  0  0  0
   63.7630   32.9180   49.0160 O   0  0  0  0  0  0  0  0  0  0  0  0
   60.6900   33.9630   46.8520 C   0  0  0  0  0  0  0  0  0  0  0  0
   59.7770   34.1070   45.8020 C   0  0  0  0  0  0  0  0  0  0  0  0
   58.5860   30.2410   46.9090 C   0  0  0  0  0  0  0  0  0  0  0  0
   59.3810   29.3530   47.6000 C   0  0  0  0  0  0  0  0  0  0  0  0
   59.9840   29.4580   48.8570 C   0  0  0  0  0  0  0  0  0  0  0  0
   59.8790   30.6110   49.6350 O   0  0  0  0  0  0  0  0  0  0  0  0
   60.7090   28.3520   49.3340 C   0  0  0  0  0  0  0  0  0  0  0  0
   60.8080   27.1760   48.5640 C   0  0  0  0  0  0  0  0  0  0  0  0
   60.1850   27.0930   47.3070 C   0  0  0  0  0  0  0  0  0  0  0  0
   59.4790   28.2110   46.8410 C   0  0  0  0  0  0  0  0  0  0  0  0
   56.4180   26.2860   45.3700 N   0  0  0  0  0  0  0  0  0  0  0  0
   52.8911   23.9643   46.3222 H   0  0  0  0  0  0  0  0  0  0  0  0
   52.6477   24.9870   44.8657 H   0  0  0  0  0  0  0  0  0  0  0  0
   53.9112   23.7103   44.8657 H   0  0  0  0  0  0  0  0  0  0  0  0
   55.6451   23.2679   46.6938 H   0  0  0  0  0  0  0  0  0  0  0  0
   58.1280   23.0241   46.5131 H   0  0  0  0  0  0  0  0  0  0  0  0
   59.4982   24.9011   45.5916 H   0  0  0  0  0  0  0  0  0  0  0  0
   59.5377   26.9298   44.3193 H   0  0  0  0  0  0  0  0  0  0  0  0
   58.0054   27.7455   43.8286 H   0  0  0  0  0  0  0  0  0  0  0  0
   58.4743   32.3175   43.8079 H   0  0  0  0  0  0  0  0  0  0  0  0
   56.8329   32.7128   43.1663 H   0  0  0  0  0  0  0  0  0  0  0  0
   57.7464   34.7215   44.1744 H   0  0  0  0  0  0  0  0  0  0  0  0
   56.4372   34.0853   45.2481 H   0  0  0  0  0  0  0  0  0  0  0  0
   56.9024   33.2651   47.4594 H   0  0  0  0  0  0  0  0  0  0  0  0
   58.5359   32.9636   49.3157 H   0  0  0  0  0  0  0  0  0  0  0  0
   61.5810   30.9620   50.9150 H   0  0  0  0  0  0  0  0  0  0  0  0
   61.7552   34.1811   46.6855 H   0  0  0  0  0  0  0  0  0  0  0  0
   60.1306   34.4209   44.8088 H   0  0  0  0  0  0  0  0  0  0  0  0
   58.2968   31.2555   47.2208 H   0  0  0  0  0  0  0  0  0  0  0  0
   60.6300   31.2870   49.6960 H   0  0  0  0  0  0  0  0  0  0  0  0
   61.2027   28.4050   50.3156 H   0  0  0  0  0  0  0  0  0  0  0  0
   61.3768   26.3170   48.9495 H   0  0  0  0  0  0  0  0  0  0  0  0
   60.2496   26.1749   46.7046 H   0  0  0  0  0  0  0  0  0  0  0  0
  1  2  1  0
  2  3  2  3
  3  4  1  0
  4  5  2  0
  5  6  1  0
  6  7  2  0
  7  8  1  0
  8  9  1  0
  9 10  1  0
 10 11  1  0
 11 12  2  0
 11 13  1  0
 13 14  1  0
 14 15  1  0
 15 16  1  0
 16 17  2  0
 17 18  1  0
 18 19  2  0
 19 20  1  0
 20 21  1  0
 21 22  1  0
 21 23  2  0
 21 24  2  0
 19 25  1  0
 25 26  2  0
 10 27  2  0
 27 28  1  0
 28 29  2  0
 29 30  1  0
 29 31  1  0
 31 32  2  0
 32 33  1  0
 33 34  2  0
  7 35  1  0
 35  3  1  0
 34  9  1  0
 26 16  1  0
 34 28  1  0
  1 36  1  0
  1 37  1  0
  1 38  1  0
  4 39  1  0
  5 40  1  0
  6 41  1  0
  8 42  1  0
  8 43  1  0
 14 44  1  0
 14 45  1  0
 15 46  1  0
 15 47  1  0
 17 48  1  0
 18 49  1  0
 22 50  1  0
 25 51  1  0
 26 52  1  0
 27 53  1  0
 30 54  1  0
 31 55  1  0
 32 56  1  0
 33 57  1  0
M  CHG  4  13  -1  20  -1  22  -1  35  -1
M  END
>  <UniqueID>  (6) 
5

>  <SMILES>  (6) 
CN=c1cccc(Cn2c(C(=O)[N-]CCc3ccc([N-]S([NH-])(=O)=O)cc3)cc3c(O)cccc32)[n-]1

>  <Energy>  (6) 
88.62051096248636

>  <Genealogy>  (6) 
CN=c1cccc(Cn2c(C(=O)[N-]CCc3ccc([N-]S([NH-])(=O)=O)cc3)cc3c(O)cccc32)[n-]1 (protonated)
CN=c1cccc(Cn2c(C(=O)[N-]CCc3ccc([N-]S([NH-])(=O)=O)cc3)cc3c(O)cccc32)[n-]1 (3D coordinates assigned)
CN=c1cccc(Cn2c(C(=O)[N-]CCc3ccc([N-]S([NH-])(=O)=O)cc3)cc3c(O)cccc32)[n-]1 (optimized conformer: 88.62051096248636 kcal/mol)

>  <smiles>  (6) 
CN=c1cccc(Cn2c(C(=O)NCCc3ccc(NS(N)(=O)=O)cc3)cc3c(O)cccc32)[nH]1

>  <score_type>  (6) 
oracle

>  <origin>  (6) 
adg

>  <m_score__min__energy>  (6) 
-15.26

>  <m_primary>  (6) 
energy

$$$$
6:0
     RDKit          3D

 67 69  0  0  0  0  0  0  0  0999 V2000
   62.3930   31.0480   50.2220 C   0  0  0  0  0  0  0  0  0  0  0  0
   62.6540   31.2810   48.7370 C   0  0  0  0  0  0  0  0  0  0  0  0
   63.5290   32.4600   48.5570 N   0  0  0  0  0  0  0  0  0  0  0  0
   63.7710   32.7870   47.1290 C   0  0  0  0  0  0  0  0  0  0  0  0
   62.7860   33.8340   46.5700 C   0  0  0  0  0  0  0  0  0  0  0  0
   61.5300   33.8030   47.3360 N   0  0  0  0  0  0  0  0  0  0  0  0
   60.4100   34.5110   46.6760 C   0  0  0  0  0  0  0  0  0  0  0  0
   59.3370   33.5940   46.1190 C   0  0  0  0  0  0  0  0  0  0  0  0
   58.3570   34.0940   45.2450 C   0  0  0  0  0  0  0  0  0  0  0  0
   57.3620   33.2490   44.7420 C   0  0  0  0  0  0  0  0  0  0  0  0
   57.3230   31.8980   45.1110 C   0  0  0  0  0  0  0  0  0  0  0  0
   56.3220   31.0480   44.5290 N   0  0  0  0  0  0  0  0  0  0  0  0
   56.5300   29.8580   43.7560 C   0  0  0  0  0  0  0  0  0  0  0  0
   56.0280   29.7940   42.6050 O   0  0  0  0  0  0  0  0  0  0  0  0
   57.3420   28.6990   44.2820 C   0  0  0  0  0  0  0  0  0  0  0  0
   57.0780   28.4110   45.7650 C   0  0  0  0  0  0  0  0  0  0  0  0
   57.3080   27.0010   46.0750 N   0  0  0  0  0  0  0  0  0  0  0  0
   56.2480   26.0480   46.2100 C   0  0  0  0  0  0  0  0  0  0  0  0
   55.0490   26.3910   46.0100 O   0  0  0  0  0  0  0  0  0  0  0  0
   56.5600   24.6870   46.5240 N   0  0  0  0  0  0  0  0  0  0  0  0
   55.5860   23.6480   46.6940 C   0  0  0  0  0  0  0  0  0  0  0  0
   54.4570   23.6460   45.8630 C   0  0  0  0  0  0  0  0  0  0  0  0
   53.4800   22.6420   45.9860 C   0  0  0  0  0  0  0  0  0  0  0  0
   52.3260   22.6180   45.1930 O   0  0  0  0  0  0  0  0  0  0  0  0
   51.5790   23.7720   44.8220 C   0  0  0  0  0  0  0  0  0  0  0  0
   53.6610   21.6280   46.9330 C   0  0  0  0  0  0  0  0  0  0  0  0
   54.7980   21.6040   47.7460 C   0  0  0  0  0  0  0  0  0  0  0  0
   55.7780   22.6070   47.6280 C   0  0  0  0  0  0  0  0  0  0  0  0
   56.9560   22.5820   48.3910 O   0  0  0  0  0  0  0  0  0  0  0  0
   57.0310   22.1750   49.7550 C   0  0  0  0  0  0  0  0  0  0  0  0
   58.3160   31.3940   45.9670 C   0  0  0  0  0  0  0  0  0  0  0  0
   59.2990   32.2400   46.4850 C   0  0  0  0  0  0  0  0  0  0  0  0
   61.7350   34.2070   48.7420 C   0  0  0  0  0  0  0  0  0  0  0  0
   63.0530   33.6360   49.3130 C   0  0  0  0  0  0  0  0  0  0  0  0
   63.0833   31.6643   50.8167 H   0  0  0  0  0  0  0  0  0  0  0  0
   61.3556   31.3259   50.4600 H   0  0  0  0  0  0  0  0  0  0  0  0
   62.5519   29.9859   50.4600 H   0  0  0  0  0  0  0  0  0  0  0  0
   63.1449   30.3942   48.3097 H   0  0  0  0  0  0  0  0  0  0  0  0
   61.6968   31.4598   48.2254 H   0  0  0  0  0  0  0  0  0  0  0  0
   64.7934   33.1803   47.0288 H   0  0  0  0  0  0  0  0  0  0  0  0
   63.6260   31.8614   46.5526 H   0  0  0  0  0  0  0  0  0  0  0  0
   63.2355   34.8350   46.6478 H   0  0  0  0  0  0  0  0  0  0  0  0
   62.5720   33.6019   45.5163 H   0  0  0  0  0  0  0  0  0  0  0  0
   59.9430   35.1807   47.4131 H   0  0  0  0  0  0  0  0  0  0  0  0
   60.8388   35.0526   45.8199 H   0  0  0  0  0  0  0  0  0  0  0  0
   58.3722   35.1549   44.9549 H   0  0  0  0  0  0  0  0  0  0  0  0
   56.6045   33.6483   44.0515 H   0  0  0  0  0  0  0  0  0  0  0  0
   57.0899   27.8006   43.6995 H   0  0  0  0  0  0  0  0  0  0  0  0
   58.4041   28.9669   44.1813 H   0  0  0  0  0  0  0  0  0  0  0  0
   57.7524   29.0282   46.3767 H   0  0  0  0  0  0  0  0  0  0  0  0
   56.0277   28.6512   45.9866 H   0  0  0  0  0  0  0  0  0  0  0  0
   58.2900   26.6830   46.2240 H   0  0  0  0  0  0  0  0  0  0  0  0
   54.3342   24.4366   45.1081 H   0  0  0  0  0  0  0  0  0  0  0  0
   51.2398   24.2960   45.7277 H   0  0  0  0  0  0  0  0  0  0  0  0
   52.2140   24.4438   44.2258 H   0  0  0  0  0  0  0  0  0  0  0  0
   50.7061   23.4677   44.2258 H   0  0  0  0  0  0  0  0  0  0  0  0
   52.9000   20.8408   47.0390 H   0  0  0  0  0  0  0  0  0  0  0  0
   54.9273   20.7967   48.4819 H   0  0  0  0  0  0  0  0  0  0  0  0
   56.8704   23.0463   50.4070 H   0  0  0  0  0  0  0  0  0  0  0  0
   56.2569   21.4196   49.9553 H   0  0  0  0  0  0  0  0  0  0  0  0
   58.0235   21.7451   49.9553 H   0  0  0  0  0  0  0  0  0  0  0  0
   58.3194   30.3262   46.2310 H   0  0  0  0  0  0  0  0  0  0  0  0
   60.0487   31.8421   47.1848 H   0  0  0  0  0  0  0  0  0  0  0  0
   61.7688   35.3051   48.7963 H   0  0  0  0  0  0  0  0  0  0  0  0
   60.9011   33.8090   49.3389 H   0  0  0  0  0  0  0  0  0  0  0  0
   63.8247   34.4188   49.2719 H   0  0  0  0  0  0  0  0  0  0  0  0
   62.8603   33.3153   50.3474 H   0  0  0  0  0  0  0  0  0  0  0  0
  1  2  1  0
  2  3  1  0
  3  4  1  0
  4  5  1  0
  5  6  1  0
  6  7  1  0
  7  8  1  0
  8  9  2  0
  9 10  1  0
 10 11  2  0
 11 12  1  0
 12 13  1  0
 13 14  2  0
 13 15  1  0
 15 16  1  0
 16 17  1  0
 17 18  1  0
 18 19  2  0
 18 20  1  0
 20 21  1  0
 21 22  2  0
 22 23  1  0
 23 24  1  0
 24 25  1  0
 23 26  2  0
 26 27  1  0
 27 28  2  0
 28 29  1  0
 29 30  1  0
 11 31  1  0
 31 32  2  0
  6 33  1  0
 33 34  1  0
 34  3  1  0
 32  8  1  0
 28 21  1  0
  1 35  1  0
  1 36  1  0
  1 37  1  0
  2 38  1  0
  2 39  1  0
  4 40  1  0
  4 41  1  0
  5 42  1  0
  5 43  1  0
  7 44  1  0
  7 45  1  0
  9 46  1  0
 10 47  1  0
 15 48  1  0
 15 49  1  0
 16 50  1  0
 16 51  1  0
 17 52  1  0
 22 53  1  0
 25 54  1  0
 25 55  1  0
 25 56  1  0
 26 57  1  0
 27 58  1  0
 30 59  1  0
 30 60  1  0
 30 61  1  0
 31 62  1  0
 32 63  1  0
 33 64  1  0
 33 65  1  0
 34 66  1  0
 34 67  1  0
M  CHG  2  12  -1  20  -1
M  END
>  <UniqueID>  (7) 
6

>  <SMILES>  (7) 
CCN1CCN(Cc2ccc([N-]C(=O)CCNC(=O)[N-]c3cc(OC)ccc3OC)cc2)CC1

>  <Energy>  (7) 
84.42019600906647

>  <Genealogy>  (7) 
CCN1CCN(Cc2ccc([N-]C(=O)CCNC(=O)[N-]c3cc(OC)ccc3OC)cc2)CC1 (protonated)
CCN1CCN(Cc2ccc([N-]C(=O)CCNC(=O)[N-]c3cc(OC)ccc3OC)cc2)CC1 (3D coordinates assigned)
CCN1CCN(Cc2ccc([N-]C(=O)CCNC(=O)[N-]c3cc(OC)ccc3OC)cc2)CC1 (nonaromatic ring conformer: 84.42019600906647 kcal/mol)

>  <smiles>  (7) 
CCN1CCN(Cc2ccc(NC(=O)CCNC(=O)Nc3cc(OC)ccc3OC)cc2)CC1

>  <score_type>  (7) 
oracle

>  <origin>  (7) 
adg

>  <m_score__min__energy>  (7) 
-13.32

>  <m_primary>  (7) 
energy

$$$$
7:0
     RDKit          3D

 65 68  0  0  0  0  0  0  0  0999 V2000
   57.6860   33.1500   47.4030 C   0  0  0  0  0  0  0  0  0  0  0  0
   58.8200   33.5060   46.5290 N   0  0  0  0  0  0  0  0  0  0  0  0
   59.5040   34.7070   47.0340 C   0  0  0  0  0  0  0  0  0  0  0  0
   58.3750   33.7440   45.1700 C   0  0  0  0  0  0  0  0  0  0  0  0
   58.3870   34.9100   44.6810 O   0  0  0  0  0  0  0  0  0  0  0  0
   57.9410   32.6300   44.3140 C   0  0  0  0  0  0  0  0  0  0  0  0
   58.1120   32.7230   42.9280 C   0  0  0  0  0  0  0  0  0  0  0  0
   57.6230   31.7190   42.0940 C   0  0  0  0  0  0  0  0  0  0  0  0
   56.9350   30.6320   42.6400 C   0  0  0  0  0  0  0  0  0  0  0  0
   56.7310   30.5400   44.0280 C   0  0  0  0  0  0  0  0  0  0  0  0
   55.9360   29.4200   44.5670 C   0  0  0  0  0  0  0  0  0  0  0  0
   54.7590   29.2630   44.1600 O   0  0  0  0  0  0  0  0  0  0  0  0
   56.4230   28.5760   45.6200 N   0  0  0  0  0  0  0  0  0  0  0  0
   57.7180   27.9040   45.6230 C   0  0  0  0  0  0  0  0  0  0  0  0
   58.7740   28.8130   46.1940 C   0  0  0  0  0  0  0  0  0  0  0  0
   60.0030   28.9820   45.5380 C   0  0  0  0  0  0  0  0  0  0  0  0
   60.9230   29.9300   45.9950 C   0  0  0  0  0  0  0  0  0  0  0  0
   60.6260   30.7190   47.1160 C   0  0  0  0  0  0  0  0  0  0  0  0
   61.5390   31.7990   47.5260 C   0  0  0  0  0  0  0  0  0  0  0  0
   61.6430   32.8160   46.7860 O   0  0  0  0  0  0  0  0  0  0  0  0
   62.3270   31.6980   48.7360 N   0  0  0  0  0  0  0  0  0  0  0  0
   63.3150   32.7380   49.0640 C   0  0  0  0  0  0  0  0  0  0  0  0
   64.3610   32.2070   50.0580 C   0  0  0  0  0  0  0  0  0  0  0  0
   63.7300   31.6900   51.2900 N   0  0  0  0  0  0  0  0  0  0  0  0
   64.7480   31.0580   52.1800 C   0  0  0  0  0  0  0  0  0  0  0  0
   66.2110   31.2410   51.7620 C   0  0  0  0  0  0  0  0  0  0  0  0
   66.3440   29.7290   51.6250 C   0  0  0  0  0  0  0  0  0  0  0  0
   64.8830   29.5470   52.0150 C   0  0  0  0  0  0  0  0  0  0  0  0
   62.4660   30.9290   51.0650 C   0  0  0  0  0  0  0  0  0  0  0  0
   62.2500   30.5160   49.6020 C   0  0  0  0  0  0  0  0  0  0  0  0
   59.4120   30.5410   47.7890 C   0  0  0  0  0  0  0  0  0  0  0  0
   58.4900   29.5940   47.3290 C   0  0  0  0  0  0  0  0  0  0  0  0
   57.2540   31.5390   44.8670 C   0  0  0  0  0  0  0  0  0  0  0  0
   57.9903   33.2455   48.4557 H   0  0  0  0  0  0  0  0  0  0  0  0
   56.8421   33.8264   47.2025 H   0  0  0  0  0  0  0  0  0  0  0  0
   57.3801   32.1126   47.2025 H   0  0  0  0  0  0  0  0  0  0  0  0
   59.5000   32.7080   46.5410 H   0  0  0  0  0  0  0  0  0  0  0  0
   59.4983   34.6970   48.1339 H   0  0  0  0  0  0  0  0  0  0  0  0
   60.5430   34.7164   46.6728 H   0  0  0  0  0  0  0  0  0  0  0  0
   58.9821   35.6054   46.6728 H   0  0  0  0  0  0  0  0  0  0  0  0
   58.6333   33.5900   42.4961 H   0  0  0  0  0  0  0  0  0  0  0  0
   57.7785   31.7822   41.0069 H   0  0  0  0  0  0  0  0  0  0  0  0
   56.5500   29.8420   41.9784 H   0  0  0  0  0  0  0  0  0  0  0  0
   57.6531   26.9927   46.2356 H   0  0  0  0  0  0  0  0  0  0  0  0
   57.9895   27.6431   44.5895 H   0  0  0  0  0  0  0  0  0  0  0  0
   60.2436   28.3652   44.6595 H   0  0  0  0  0  0  0  0  0  0  0  0
   61.8832   30.0577   45.4737 H   0  0  0  0  0  0  0  0  0  0  0  0
   63.8233   33.0556   48.1416 H   0  0  0  0  0  0  0  0  0  0  0  0
   62.7908   33.5877   49.5258 H   0  0  0  0  0  0  0  0  0  0  0  0
   64.9275   31.3945   49.5795 H   0  0  0  0  0  0  0  0  0  0  0  0
   65.0245   33.0394   50.3354 H   0  0  0  0  0  0  0  0  0  0  0  0
   64.3977   31.4920   53.1281 H   0  0  0  0  0  0  0  0  0  0  0  0
   66.3458   31.7932   50.8203 H   0  0  0  0  0  0  0  0  0  0  0  0
   66.9086   31.8118   52.3925 H   0  0  0  0  0  0  0  0  0  0  0  0
   66.5789   29.3922   50.6045 H   0  0  0  0  0  0  0  0  0  0  0  0
   67.1317   29.1934   52.1751 H   0  0  0  0  0  0  0  0  0  0  0  0
   64.2537   29.1229   51.2186 H   0  0  0  0  0  0  0  0  0  0  0  0
   64.6027   28.8674   52.8333 H   0  0  0  0  0  0  0  0  0  0  0  0
   62.4929   30.0194   51.6829 H   0  0  0  0  0  0  0  0  0  0  0  0
   61.6348   31.5956   51.3384 H   0  0  0  0  0  0  0  0  0  0  0  0
   63.0274   29.7958   49.3071 H   0  0  0  0  0  0  0  0  0  0  0  0
   61.2576   30.0530   49.4977 H   0  0  0  0  0  0  0  0  0  0  0  0
   59.1826   31.1452   48.6791 H   0  0  0  0  0  0  0  0  0  0  0  0
   57.5357   29.4593   47.8592 H   0  0  0  0  0  0  0  0  0  0  0  0
   57.1247   31.4654   45.9569 H   0  0  0  0  0  0  0  0  0  0  0  0
  1  2  1  0
  2  3  1  0
  2  4  1  0
  4  5  2  0
  4  6  1  0
  6  7  2  0
  7  8  1  0
  8  9  2  0
  9 10  1  0
 10 11  1  0
 11 12  2  0
 11 13  1  0
 13 14  1  0
 14 15  1  0
 15 16  2  0
 16 17  1  0
 17 18  2  0
 18 19  1  0
 19 20  2  0
 19 21  1  0
 21 22  1  0
 22 23  1  0
 23 24  1  0
 24 25  1  0
 25 26  1  0
 26 27  1  0
 27 28  1  0
 24 29  1  0
 29 30  1  0
 18 31  1  0
 31 32  2  0
 10 33  2  0
 33  6  1  0
 32 15  1  0
 30 21  1  0
 28 25  1  0
  1 34  1  0
  1 35  1  0
  1 36  1  0
  2 37  1  0
  3 38  1  0
  3 39  1  0
  3 40  1  0
  7 41  1  0
  8 42  1  0
  9 43  1  0
 14 44  1  0
 14 45  1  0
 16 46  1  0
 17 47  1  0
 22 48  1  0
 22 49  1  0
 23 50  1  0
 23 51  1  0
 25 52  1  0
 26 53  1  0
 26 54  1  0
 27 55  1  0
 27 56  1  0
 28 57  1  0
 28 58  1  0
 29 59  1  0
 29 60  1  0
 30 61  1  0
 30 62  1  0
 31 63  1  0
 32 64  1  0
 33 65  1  0
M  CHG  2   2   1  13  -1
M  END
>  <UniqueID>  (8) 
7

>  <SMILES>  (8) 
C[NH+](C)C(=O)c1cccc(C(=O)[N-]Cc2ccc(C(=O)N3CCN(C4CCC4)CC3)cc2)c1

>  <Energy>  (8) 
160.64703374578394

>  <Genealogy>  (8) 
C[NH+](C)C(=O)c1cccc(C(=O)[N-]Cc2ccc(C(=O)N3CCN(C4CCC4)CC3)cc2)c1 (protonated)
C[NH+](C)C(=O)c1cccc(C(=O)[N-]Cc2ccc(C(=O)N3CCN(C4CCC4)CC3)cc2)c1 (3D coordinates assigned)
C[NH+](C)C(=O)c1cccc(C(=O)[N-]Cc2ccc(C(=O)N3CCN(C4CCC4)CC3)cc2)c1 (nonaromatic ring conformer: 160.64703374578394 kcal/mol)

>  <smiles>  (8) 
CN(C)C(=O)c1cccc(C(=O)NCc2ccc(C(=O)N3CCN(C4CCC4)CC3)cc2)c1

>  <score_type>  (8) 
oracle

>  <origin>  (8) 
adg

>  <m_score__min__energy>  (8) 
-9.7100000000000009

>  <m_primary>  (8) 
energy

$$$$
8:0
     RDKit          3D

 60 63  0  0  0  0  0  0  0  0999 V2000
   58.7700   28.9420   50.0620 O   0  0  0  0  0  0  0  0  0  0  0  0
   59.9440   29.0510   49.6110 C   0  0  0  0  0  0  0  0  0  0  0  0
   60.7880   27.8150   49.4540 C   0  0  0  0  0  0  0  0  0  0  0  0
   60.7510   27.0990   47.7660 S   0  0  0  0  0  0  0  0  0  0  0  0
   59.7730   28.4030   47.0260 C   0  0  0  0  0  0  0  0  0  0  0  0
   58.4160   28.1880   46.7740 C   0  0  0  0  0  0  0  0  0  0  0  0
   57.6710   29.1880   46.1470 C   0  0  0  0  0  0  0  0  0  0  0  0
   58.2900   30.3830   45.7680 C   0  0  0  0  0  0  0  0  0  0  0  0
   57.3810   31.5930   44.8690 S   0  0  0  0  0  0  0  0  0  0  0  0
   56.0470   31.0300   44.4600 O   0  0  0  0  0  0  0  0  0  0  0  0
   58.1590   31.9480   43.6320 O   0  0  0  0  0  0  0  0  0  0  0  0
   57.1460   33.0330   45.8410 N   0  0  0  0  0  0  0  0  0  0  0  0
   57.4490   34.2710   45.0930 C   0  0  0  0  0  0  0  0  0  0  0  0
   58.9600   34.5010   44.9000 C   0  0  0  0  0  0  0  0  0  0  0  0
   59.7910   34.1450   46.1460 C   0  0  0  0  0  0  0  0  0  0  0  0
   58.9170   33.9910   47.3910 C   0  0  0  0  0  0  0  0  0  0  0  0
   57.8260   32.9260   47.1580 C   0  0  0  0  0  0  0  0  0  0  0  0
   59.6400   30.5790   46.0860 C   0  0  0  0  0  0  0  0  0  0  0  0
   60.3440   29.5950   46.7100 N   0  0  0  0  0  0  0  0  0  0  0  0
   60.4660   30.3450   49.2780 N   0  0  0  0  0  0  0  0  0  0  0  0
   60.0420   31.5510   49.9420 C   0  0  0  0  0  0  0  0  0  0  0  0
   58.8220   31.5780   50.6430 C   0  0  0  0  0  0  0  0  0  0  0  0
   58.4350   32.7210   51.3490 C   0  0  0  0  0  0  0  0  0  0  0  0
   59.2610   33.8460   51.3680 C   0  0  0  0  0  0  0  0  0  0  0  0
   60.4720   33.8360   50.6730 C   0  0  0  0  0  0  0  0  0  0  0  0
   60.8700   32.6960   49.9580 C   0  0  0  0  0  0  0  0  0  0  0  0
   62.0700   32.7540   49.1760 N   0  0  0  0  0  0  0  0  0  0  0  0
   63.2660   33.3440   49.7880 C   0  0  0  0  0  0  0  0  0  0  0  0
   64.5290   32.9820   49.0000 C   0  0  0  0  0  0  0  0  0  0  0  0
   64.3250   33.1540   47.6130 O   0  0  0  0  0  0  0  0  0  0  0  0
   63.3880   32.1980   47.1580 C   0  0  0  0  0  0  0  0  0  0  0  0
   61.9980   32.4740   47.7370 C   0  0  0  0  0  0  0  0  0  0  0  0
   61.8291   28.0733   49.6979 H   0  0  0  0  0  0  0  0  0  0  0  0
   60.3712   27.0557   50.1320 H   0  0  0  0  0  0  0  0  0  0  0  0
   57.9396   27.2407   47.0666 H   0  0  0  0  0  0  0  0  0  0  0  0
   56.5992   29.0363   45.9515 H   0  0  0  0  0  0  0  0  0  0  0  0
   56.9744   34.2076   44.1027 H   0  0  0  0  0  0  0  0  0  0  0  0
   57.0593   35.1152   45.6808 H   0  0  0  0  0  0  0  0  0  0  0  0
   59.3041   33.8788   44.0607 H   0  0  0  0  0  0  0  0  0  0  0  0
   59.1054   35.5738   44.7054 H   0  0  0  0  0  0  0  0  0  0  0  0
   60.3183   33.1972   45.9626 H   0  0  0  0  0  0  0  0  0  0  0  0
   60.5005   34.9657   46.3277 H   0  0  0  0  0  0  0  0  0  0  0  0
   59.5466   33.6844   48.2393 H   0  0  0  0  0  0  0  0  0  0  0  0
   58.4325   34.9548   47.6064 H   0  0  0  0  0  0  0  0  0  0  0  0
   58.2929   31.9323   47.2261 H   0  0  0  0  0  0  0  0  0  0  0  0
   57.0560   33.0868   47.9269 H   0  0  0  0  0  0  0  0  0  0  0  0
   60.1320   31.5293   45.8312 H   0  0  0  0  0  0  0  0  0  0  0  0
   61.2010   30.4050   48.5370 H   0  0  0  0  0  0  0  0  0  0  0  0
   58.1682   30.6934   50.6354 H   0  0  0  0  0  0  0  0  0  0  0  0
   57.4776   32.7337   51.8906 H   0  0  0  0  0  0  0  0  0  0  0  0
   58.9577   34.7411   51.9309 H   0  0  0  0  0  0  0  0  0  0  0  0
   61.1175   34.7266   50.6860 H   0  0  0  0  0  0  0  0  0  0  0  0
   63.1564   34.4384   49.8068 H   0  0  0  0  0  0  0  0  0  0  0  0
   63.3668   32.9461   50.8085 H   0  0  0  0  0  0  0  0  0  0  0  0
   65.3550   33.6313   49.3257 H   0  0  0  0  0  0  0  0  0  0  0  0
   64.7716   31.9262   49.1910 H   0  0  0  0  0  0  0  0  0  0  0  0
   63.3353   32.2401   46.0601 H   0  0  0  0  0  0  0  0  0  0  0  0
   63.7145   31.2014   47.4900 H   0  0  0  0  0  0  0  0  0  0  0  0
   61.5612   33.3432   47.2235 H   0  0  0  0  0  0  0  0  0  0  0  0
   61.3735   31.5811   47.5861 H   0  0  0  0  0  0  0  0  0  0  0  0
  1  2  2  0
  2  3  1  0
  3  4  1  0
  4  5  1  0
  5  6  2  0
  6  7  1  0
  7  8  2  0
  8  9  1  0
  9 10  2  0
  9 11  2  0
  9 12  1  0
 12 13  1  0
 13 14  1  0
 14 15  1  0
 15 16  1  0
 16 17  1  0
  8 18  1  0
 18 19  2  0
  2 20  1  0
 20 21  1  0
 21 22  2  0
 22 23  1  0
 23 24  2  0
 24 25  1  0
 25 26  2  0
 26 27  1  0
 27 28  1  0
 28 29  1  0
 29 30  1  0
 30 31  1  0
 31 32  1  0
 19  5  1  0
 26 21  1  0
 32 27  1  0
 17 12  1  0
  3 33  1  0
  3 34  1  0
  6 35  1  0
  7 36  1  0
 13 37  1  0
 13 38  1  0
 14 39  1  0
 14 40  1  0
 15 41  1  0
 15 42  1  0
 16 43  1  0
 16 44  1  0
 17 45  1  0
 17 46  1  0
 18 47  1  0
 20 48  1  0
 22 49  1  0
 23 50  1  0
 24 51  1  0
 25 52  1  0
 28 53  1  0
 28 54  1  0
 29 55  1  0
 29 56  1  0
 31 57  1  0
 31 58  1  0
 32 59  1  0
 32 60  1  0
M  END
>  <UniqueID>  (9) 
8

>  <SMILES>  (9) 
O=C(CSc1ccc(S(=O)(=O)N2CCCCC2)cn1)Nc1ccccc1N1CCOCC1

>  <Energy>  (9) 
76.43514723304513

>  <Genealogy>  (9) 
O=C(CSc1ccc(S(=O)(=O)N2CCCCC2)cn1)Nc1ccccc1N1CCOCC1 (3D coordinates assigned)
O=C(CSc1ccc(S(=O)(=O)N2CCCCC2)cn1)Nc1ccccc1N1CCOCC1 (nonaromatic ring conformer: 76.43514723304513 kcal/mol)

>  <smiles>  (9) 
O=C(CSc1ccc(S(=O)(=O)N2CCCCC2)cn1)Nc1ccccc1N1CCOCC1

>  <score_type>  (9) 
oracle

>  <origin>  (9) 
adg

>  <m_score__min__energy>  (9) 
-9.2799999999999994

>  <m_primary>  (9) 
energy

$$$$
9:0
     RDKit          3D

 58 60  0  0  0  0  0  0  0  0999 V2000
   56.9740   22.0220   43.3780 C   0  0  0  0  0  0  0  0  0  0  0  0
   55.6410   22.4920   43.2420 O   0  0  0  0  0  0  0  0  0  0  0  0
   55.4150   23.6140   44.0720 C   0  0  0  0  0  0  0  0  0  0  0  0
   55.3770   23.1970   45.5440 C   0  0  0  0  0  0  0  0  0  0  0  0
   55.3100   24.3800   46.3990 N   0  0  0  0  0  0  0  0  0  0  0  0
   55.8190   25.6540   45.9900 C   0  0  0  0  0  0  0  0  0  0  0  0
   55.0750   26.6680   46.0040 O   0  0  0  0  0  0  0  0  0  0  0  0
   57.2280   25.8080   45.6300 C   0  0  0  0  0  0  0  0  0  0  0  0
   58.2660   25.5270   46.5000 C   0  0  0  0  0  0  0  0  0  0  0  0
   59.3440   26.2880   46.0670 C   0  0  0  0  0  0  0  0  0  0  0  0
   60.3440   26.8610   46.9810 C   0  0  0  0  0  0  0  0  0  0  0  0
   61.4880   26.3440   47.0860 O   0  0  0  0  0  0  0  0  0  0  0  0
   59.9620   28.0560   47.7720 C   0  0  0  0  0  0  0  0  0  0  0  0
   58.9090   27.9880   48.4760 O   0  0  0  0  0  0  0  0  0  0  0  0
   60.6940   29.3140   47.6640 N   0  0  0  0  0  0  0  0  0  0  0  0
   60.5860   29.8930   46.3120 C   0  0  0  0  0  0  0  0  0  0  0  0
   59.1500   30.3230   45.9950 C   0  0  0  0  0  0  0  0  0  0  0  0
   58.6430   31.2970   46.9890 N   0  0  0  0  0  0  0  0  0  0  0  0
   58.6790   32.7280   46.6000 C   0  0  0  0  0  0  0  0  0  0  0  0
   59.9950   33.3690   47.0730 C   0  0  0  0  0  0  0  0  0  0  0  0
   59.9730   34.9010   46.8680 C   0  0  0  0  0  0  0  0  0  0  0  0
   59.2760   35.3320   45.5590 C   0  0  0  0  0  0  0  0  0  0  0  0
   59.1990   34.1960   44.5340 C   0  0  0  0  0  0  0  0  0  0  0  0
   58.4350   32.9750   45.0820 C   0  0  0  0  0  0  0  0  0  0  0  0
   58.8990   30.9580   48.4100 C   0  0  0  0  0  0  0  0  0  0  0  0
   60.2830   30.3080   48.6810 C   0  0  0  0  0  0  0  0  0  0  0  0
   58.9300   26.9450   44.9240 C   0  0  0  0  0  0  0  0  0  0  0  0
   57.6440   26.6520   44.6630 N   0  0  0  0  0  0  0  0  0  0  0  0
   57.2245   21.9337   44.4454 H   0  0  0  0  0  0  0  0  0  0  0  0
   57.0664   21.0371   42.8970 H   0  0  0  0  0  0  0  0  0  0  0  0
   57.6637   22.7312   42.8970 H   0  0  0  0  0  0  0  0  0  0  0  0
   56.2257   24.3425   43.9236 H   0  0  0  0  0  0  0  0  0  0  0  0
   54.4465   24.0625   43.8056 H   0  0  0  0  0  0  0  0  0  0  0  0
   54.4915   22.5690   45.7216 H   0  0  0  0  0  0  0  0  0  0  0  0
   56.2902   22.6318   45.7820 H   0  0  0  0  0  0  0  0  0  0  0  0
   58.2424   24.8408   47.3594 H   0  0  0  0  0  0  0  0  0  0  0  0
   61.7100   29.1100   47.8420 H   0  0  0  0  0  0  0  0  0  0  0  0
   61.2444   30.7718   46.2465 H   0  0  0  0  0  0  0  0  0  0  0  0
   60.8832   29.1239   45.5839 H   0  0  0  0  0  0  0  0  0  0  0  0
   59.1275   30.7859   44.9974 H   0  0  0  0  0  0  0  0  0  0  0  0
   58.5075   29.4307   46.0273 H   0  0  0  0  0  0  0  0  0  0  0  0
   57.8338   33.2159   47.1076 H   0  0  0  0  0  0  0  0  0  0  0  0
   60.1366   33.1516   48.1420 H   0  0  0  0  0  0  0  0  0  0  0  0
   60.8210   32.9490   46.4803 H   0  0  0  0  0  0  0  0  0  0  0  0
   59.4402   35.3589   47.7144 H   0  0  0  0  0  0  0  0  0  0  0  0
   61.0187   35.2366   46.8062 H   0  0  0  0  0  0  0  0  0  0  0  0
   58.2542   35.6633   45.7959 H   0  0  0  0  0  0  0  0  0  0  0  0
   59.8713   36.1433   45.1147 H   0  0  0  0  0  0  0  0  0  0  0  0
   58.6831   34.5635   43.6347 H   0  0  0  0  0  0  0  0  0  0  0  0
   60.2260   33.8779   44.3014 H   0  0  0  0  0  0  0  0  0  0  0  0
   57.3586   33.1361   44.9228 H   0  0  0  0  0  0  0  0  0  0  0  0
   58.8050   32.0899   44.5437 H   0  0  0  0  0  0  0  0  0  0  0  0
   58.8333   31.8836   49.0006 H   0  0  0  0  0  0  0  0  0  0  0  0
   58.1431   30.2106   48.6929 H   0  0  0  0  0  0  0  0  0  0  0  0
   61.0396   31.1059   48.7096 H   0  0  0  0  0  0  0  0  0  0  0  0
   60.1982   29.7682   49.6357 H   0  0  0  0  0  0  0  0  0  0  0  0
   59.5606   27.6106   44.3163 H   0  0  0  0  0  0  0  0  0  0  0  0
   57.0490   27.1370   43.9630 H   0  0  0  0  0  0  0  0  0  0  0  0
  1  2  1  0
  2  3  1  0
  3  4  1  0
  4  5  1  0
  5  6  1  0
  6  7  2  0
  6  8  1  0
  8  9  2  0
  9 10  1  0
 10 11  1  0
 11 12  2  0
 11 13  1  0
 13 14  2  0
 13 15  1  0
 15 16  1  0
 16 17  1  0
 17 18  1  0
 18 19  1  0
 19 20  1  0
 20 21  1  0
 21 22  1  0
 22 23  1  0
 23 24  1  0
 18 25  1  0
 25 26  1  0
 10 27  2  0
 27 28  1  0
 28  8  1  0
 26 15  1  0
 24 19  1  0
  1 29  1  0
  1 30  1  0
  1 31  1  0
  3 32  1  0
  3 33  1  0
  4 34  1  0
  4 35  1  0
  9 36  1  0
 15 37  1  0
 16 38  1  0
 16 39  1  0
 17 40  1  0
 17 41  1  0
 19 42  1  0
 20 43  1  0
 20 44  1  0
 21 45  1  0
 21 46  1  0
 22 47  1  0
 22 48  1  0
 23 49  1  0
 23 50  1  0
 24 51  1  0
 24 52  1  0
 25 53  1  0
 25 54  1  0
 26 55  1  0
 26 56  1  0
 27 57  1  0
 28 58  1  0
M  CHG  2   5  -1  15   1
M  END
>  <UniqueID>  (10) 
9

>  <SMILES>  (10) 
COCC[N-]C(=O)c1cc(C(=O)C(=O)[NH+]2CCN(C3CCCCC3)CC2)c[nH]1

>  <Energy>  (10) 
124.74502644947154

>  <Genealogy>  (10) 
COCC[N-]C(=O)c1cc(C(=O)C(=O)[NH+]2CCN(C3CCCCC3)CC2)c[nH]1 (protonated)
COCC[N-]C(=O)c1cc(C(=O)C(=O)[NH+]2CCN(C3CCCCC3)CC2)c[nH]1 (3D coordinates assigned)
COCC[N-]C(=O)c1cc(C(=O)C(=O)[NH+]2CCN(C3CCCCC3)CC2)c[nH]1 (nonaromatic ring conformer: 124.74502644947154 kcal/mol)

>  <smiles>  (10) 
COCCNC(=O)c1cc(C(=O)C(=O)N2CCN(C3CCCCC3)CC2)c[nH]1

>  <score_type>  (10) 
oracle

>  <origin>  (10) 
adg

>  <m_score__min__energy>  (10) 
-9.6899999999999995

>  <m_primary>  (10) 
energy

$$$$
10:0
     RDKit          3D

 62 65  0  0  0  0  0  0  0  0999 V2000
   59.5966   27.1379   48.0209 H   0  0  0  0  0  0  0  0  0  0  0  0
   58.7390   27.2120   47.3360 C   0  0  0  0  0  0  0  0  0  0  0  0
   57.7650   26.2670   47.3680 N   0  0  0  0  0  0  0  0  0  0  0  0
   56.6860   26.3220   46.5390 C   0  0  0  0  0  0  0  0  0  0  0  0
   55.7630   25.4050   46.5820 N   0  0  0  0  0  0  0  0  0  0  0  0
   55.4070   24.5180   45.4750 C   0  0  0  0  0  0  0  0  0  0  0  0
   54.6572   25.0147   44.8416 H   0  0  0  0  0  0  0  0  0  0  0  0
   55.0001   23.5835   45.8887 H   0  0  0  0  0  0  0  0  0  0  0  0
   56.6340   24.1860   44.6310 C   0  0  0  0  0  0  0  0  0  0  0  0
   57.4826   23.9564   45.2922 H   0  0  0  0  0  0  0  0  0  0  0  0
   56.4174   23.3142   43.9962 H   0  0  0  0  0  0  0  0  0  0  0  0
   56.8866   25.0481   43.9962 H   0  0  0  0  0  0  0  0  0  0  0  0
   56.5690   27.3730   45.6220 C   0  0  0  0  0  0  0  0  0  0  0  0
   55.7010   27.4196   44.9479 H   0  0  0  0  0  0  0  0  0  0  0  0
   57.5610   28.3710   45.5610 C   0  0  0  0  0  0  0  0  0  0  0  0
   57.4580   29.4630   44.6170 N   0  0  0  0  0  0  0  0  0  0  0  0
   56.2700   29.7430   43.8260 C   0  0  0  0  0  0  0  0  0  0  0  0
   55.9621   28.8469   43.2672 H   0  0  0  0  0  0  0  0  0  0  0  0
   55.4212   30.0369   44.4610 H   0  0  0  0  0  0  0  0  0  0  0  0
   56.6630   30.8570   42.8660 C   0  0  0  0  0  0  0  0  0  0  0  0
   56.8681   30.4464   41.8663 H   0  0  0  0  0  0  0  0  0  0  0  0
   55.8571   31.5972   42.7534 H   0  0  0  0  0  0  0  0  0  0  0  0
   57.9280   31.4870   43.4530 C   0  0  1  0  0  0  0  0  0  0  0  0
   58.6181   31.8172   42.6626 H   0  0  0  0  0  0  0  0  0  0  0  0
   57.5990   32.6320   44.2440 O   0  0  0  0  0  0  0  0  0  0  0  0
   58.2180   32.9890   45.4540 C   0  0  0  0  0  0  0  0  0  0  0  0
   57.7470   32.5520   46.7070 C   0  0  0  0  0  0  0  0  0  0  0  0
   56.8625   31.9004   46.7630 H   0  0  0  0  0  0  0  0  0  0  0  0
   58.3990   32.9430   47.8800 C   0  0  0  0  0  0  0  0  0  0  0  0
   58.0287   32.5905   48.8540 H   0  0  0  0  0  0  0  0  0  0  0  0
   59.5240   33.7830   47.8240 C   0  0  0  0  0  0  0  0  0  0  0  0
   60.2400   34.2010   49.0900 C   0  0  1  0  0  0  0  0  0  0  0  0
   59.9029   35.2108   49.3669 H   0  0  0  0  0  0  0  0  0  0  0  0
   59.9130   33.2890   50.1900 N   0  0  0  0  0  0  0  0  0  0  0  0
   59.5100   33.6780   51.0710 H   0  0  0  0  0  0  0  0  0  0  0  0
   60.2440   31.8920   50.1420 C   0  0  0  0  0  0  0  0  0  0  0  0
   60.9390   31.4400   49.1930 O   0  0  0  0  0  0  0  0  0  0  0  0
   59.8480   31.0050   51.1950 N   0  0  0  0  0  0  0  0  0  0  0  0
   58.5170   30.8470   51.7040 C   0  0  0  0  0  0  0  0  0  0  0  0
   57.5570   31.8680   51.5880 C   0  0  0  0  0  0  0  0  0  0  0  0
   57.8267   32.8232   51.1139 H   0  0  0  0  0  0  0  0  0  0  0  0
   56.2600   31.6720   52.0740 C   0  0  0  0  0  0  0  0  0  0  0  0
   55.5158   32.4782   51.9948 H   0  0  0  0  0  0  0  0  0  0  0  0
   55.9090   30.4530   52.6600 C   0  0  0  0  0  0  0  0  0  0  0  0
   54.8906   30.3025   53.0475 H   0  0  0  0  0  0  0  0  0  0  0  0
   56.8510   29.4250   52.7540 C   0  0  0  0  0  0  0  0  0  0  0  0
   56.5060   28.2390   53.3140 F   0  0  0  0  0  0  0  0  0  0  0  0
   58.1480   29.6190   52.2680 C   0  0  0  0  0  0  0  0  0  0  0  0
   58.8826   28.8025   52.3290 H   0  0  0  0  0  0  0  0  0  0  0  0
   61.7530   34.2390   48.8550 C   0  0  0  0  0  0  0  0  0  0  0  0
   62.2743   34.2521   49.8236 H   0  0  0  0  0  0  0  0  0  0  0  0
   62.0582   33.3482   48.2863 H   0  0  0  0  0  0  0  0  0  0  0  0
   62.0131   35.1440   48.2863 H   0  0  0  0  0  0  0  0  0  0  0  0
   59.9980   34.2070   46.5720 C   0  0  0  0  0  0  0  0  0  0  0  0
   60.8873   34.8517   46.5139 H   0  0  0  0  0  0  0  0  0  0  0  0
   59.3470   33.8150   45.4000 C   0  0  0  0  0  0  0  0  0  0  0  0
   59.7249   34.1585   44.4257 H   0  0  0  0  0  0  0  0  0  0  0  0
   58.5310   30.4100   44.3510 C   0  0  0  0  0  0  0  0  0  0  0  0
   59.3654   29.9084   43.8389 H   0  0  0  0  0  0  0  0  0  0  0  0
   58.9304   30.8386   45.2820 H   0  0  0  0  0  0  0  0  0  0  0  0
   58.6570   28.2770   46.4380 C   0  0  0  0  0  0  0  0  0  0  0  0
   59.4477   29.0414   46.4159 H   0  0  0  0  0  0  0  0  0  0  0  0
  1  2  1  0
  2  3  1  0
  3  4  1  0
  4  5  2  0
  5  6  1  0
  6  7  1  0
  6  8  1  0
  6  9  1  0
  9 10  1  0
  9 11  1  0
  9 12  1  0
  4 13  1  0
 13 14  1  0
 13 15  2  0
 15 16  1  0
 16 17  1  0
 17 18  1  0
 17 19  1  0
 17 20  1  0
 20 21  1  0
 20 22  1  0
 20 23  1  0
 23 24  1  6
 23 25  1  0
 25 26  1  0
 26 27  2  0
 27 28  1  0
 27 29  1  0
 29 30  1  0
 29 31  2  0
 31 32  1  0
 32 33  1  1
 32 34  1  0
 34 35  1  0
 34 36  1  0
 36 37  2  0
 36 38  1  0
 38 39  1  0
 39 40  2  0
 40 41  1  0
 40 42  1  0
 42 43  1  0
 42 44  2  0
 44 45  1  0
 44 46  1  0
 46 47  1  0
 46 48  2  0
 48 49  1  0
 32 50  1  0
 50 51  1  0
 50 52  1  0
 50 53  1  0
 31 54  1  0
 54 55  1  0
 54 56  2  0
 56 57  1  0
 23 58  1  0
 58 59  1  0
 58 60  1  0
 15 61  1  0
 61 62  1  0
 61  2  2  0
 58 16  1  0
 56 26  1  0
 48 39  1  0
M  CHG  2   3  -1  38  -1
M  END
>  <UniqueID>  (11) 
10

>  <SMILES>  (11) 
CC/N=c1/cc(N2CC[C@@H](Oc3ccc([C@H](C)NC(=O)[N-]c4cccc(F)c4)cc3)C2)cc[n-]1

>  <Energy>  (11) 
65.73654551118443

>  <Genealogy>  (11) 
CCN=c1cc(N2CCC(Oc3ccc(C(C)NC(=O)[N-]c4cccc(F)c4)cc3)C2)cc[n-]1 (protonated)
CCN=c1cc(N2CC[C@@H](Oc3ccc([C@H](C)NC(=O)[N-]c4cccc(F)c4)cc3)C2)cc[n-]1 (chirality)
CC/N=c1/cc(N2CC[C@@H](Oc3ccc([C@H](C)NC(=O)[N-]c4cccc(F)c4)cc3)C2)cc[n-]1 (cis-trans isomerization)
CC/N=c1/cc(N2CC[C@@H](Oc3ccc([C@H](C)NC(=O)[N-]c4cccc(F)c4)cc3)C2)cc[n-]1 (3D coordinates assigned)
CC/N=c1/cc(N2CC[C@@H](Oc3ccc([C@H](C)NC(=O)[N-]c4cccc(F)c4)cc3)C2)cc[n-]1 (nonaromatic ring conformer: 65.73654551118443 kcal/mol)

>  <smiles>  (11) 
CCN=c1cc(N2CCC(Oc3ccc(C(C)NC(=O)Nc4cccc(F)c4)cc3)C2)cc[nH]1

>  <score_type>  (11) 
oracle

>  <origin>  (11) 
adg

>  <m_score__min__energy>  (11) 
-11.529999999999999

>  <m_primary>  (11) 
energy

$$$$
11:0
     RDKit          3D

 66 69  0  0  0  0  0  0  0  0999 V2000
   58.7410   25.9400   46.8110 C   0  0  0  0  0  0  0  0  0  0  0  0
   58.2260   27.2840   46.3710 C   0  0  0  0  0  0  0  0  0  0  0  0
   57.0740   27.3360   45.5650 C   0  0  0  0  0  0  0  0  0  0  0  0
   56.5730   28.5580   45.1100 C   0  0  0  0  0  0  0  0  0  0  0  0
   57.2030   29.7530   45.4620 C   0  0  0  0  0  0  0  0  0  0  0  0
   56.7120   30.9910   44.9250 N   0  0  0  0  0  0  0  0  0  0  0  0
   57.5290   31.9840   44.2960 C   0  0  0  0  0  0  0  0  0  0  0  0
   57.7050   31.9470   43.0470 O   0  0  0  0  0  0  0  0  0  0  0  0
   58.1550   33.0570   45.1000 C   0  0  0  0  0  0  0  0  0  0  0  0
   58.6140   34.2380   44.4900 C   0  0  0  0  0  0  0  0  0  0  0  0
   59.2780   35.2090   45.2430 C   0  0  0  0  0  0  0  0  0  0  0  0
   59.4990   35.0120   46.6080 C   0  0  0  0  0  0  0  0  0  0  0  0
   59.0450   33.8430   47.2310 C   0  0  0  0  0  0  0  0  0  0  0  0
   59.3780   33.5590   48.9420 S   0  0  0  0  0  0  0  0  0  0  0  0
   58.2870   32.7020   49.5220 O   0  0  0  0  0  0  0  0  0  0  0  0
   59.3780   34.8740   49.6750 O   0  0  0  0  0  0  0  0  0  0  0  0
   60.9230   32.7750   49.1760 N   0  0  0  0  0  0  0  0  0  0  0  0
   61.6800   33.4350   50.2490 C   0  0  0  0  0  0  0  0  0  0  0  0
   62.9940   32.6470   50.5100 C   0  0  1  0  0  0  0  0  0  0  0  0
   62.8850   31.8200   51.7920 C   0  0  0  0  0  0  0  0  0  0  0  0
   63.3140   31.7690   49.4410 O   0  0  0  0  0  0  0  0  0  0  0  0
   63.1890   32.4370   48.1990 C   0  0  1  0  0  0  0  0  0  0  0  0
   63.7690   31.5570   47.0930 C   0  0  0  0  0  0  0  0  0  0  0  0
   61.7000   32.7750   47.9240 C   0  0  0  0  0  0  0  0  0  0  0  0
   58.3590   32.8780   46.4800 C   0  0  0  0  0  0  0  0  0  0  0  0
   58.3530   29.7120   46.2640 C   0  0  0  0  0  0  0  0  0  0  0  0
   58.8580   28.4960   46.7480 C   0  0  0  0  0  0  0  0  0  0  0  0
   60.3040   28.5650   47.7740 S   0  0  0  0  0  0  0  0  0  0  0  0
   61.1140   27.3020   47.6750 O   0  0  0  0  0  0  0  0  0  0  0  0
   61.1490   29.7270   47.3290 O   0  0  0  0  0  0  0  0  0  0  0  0
   59.8040   28.8010   49.4320 N   0  0  0  0  0  0  0  0  0  0  0  0
   60.9850   28.9930   50.2950 C   0  0  0  0  0  0  0  0  0  0  0  0
   60.5640   29.4170   51.7170 C   0  0  0  0  0  0  0  0  0  0  0  0
   59.1680   29.2870   51.8940 O   0  0  0  0  0  0  0  0  0  0  0  0
   58.4890   30.1710   51.0180 C   0  0  0  0  0  0  0  0  0  0  0  0
   58.8960   29.9540   49.5430 C   0  0  0  0  0  0  0  0  0  0  0  0
   58.7580   25.8957   47.9100 H   0  0  0  0  0  0  0  0  0  0  0  0
   58.0820   25.1496   46.4223 H   0  0  0  0  0  0  0  0  0  0  0  0
   59.7594   25.7924   46.4223 H   0  0  0  0  0  0  0  0  0  0  0  0
   56.5613   26.4025   45.2896 H   0  0  0  0  0  0  0  0  0  0  0  0
   55.6777   28.5788   44.4712 H   0  0  0  0  0  0  0  0  0  0  0  0
   58.4492   34.3979   43.4142 H   0  0  0  0  0  0  0  0  0  0  0  0
   59.6283   36.1326   44.7591 H   0  0  0  0  0  0  0  0  0  0  0  0
   60.0304   35.7761   47.1943 H   0  0  0  0  0  0  0  0  0  0  0  0
   61.9227   34.4647   49.9477 H   0  0  0  0  0  0  0  0  0  0  0  0
   61.0748   33.4569   51.1673 H   0  0  0  0  0  0  0  0  0  0  0  0
   63.7912   33.3989   50.6053 H   0  0  0  0  0  0  0  0  0  0  0  0
   62.9725   32.4836   52.6649 H   0  0  0  0  0  0  0  0  0  0  0  0
   61.9116   31.3082   51.8165 H   0  0  0  0  0  0  0  0  0  0  0  0
   63.6925   31.0735   51.8165 H   0  0  0  0  0  0  0  0  0  0  0  0
   63.7496   33.3830   48.2263 H   0  0  0  0  0  0  0  0  0  0  0  0
   64.3214   30.7189   47.5430 H   0  0  0  0  0  0  0  0  0  0  0  0
   62.9517   31.1650   46.4698 H   0  0  0  0  0  0  0  0  0  0  0  0
   64.4515   32.1535   46.4698 H   0  0  0  0  0  0  0  0  0  0  0  0
   61.6360   33.7703   47.4600 H   0  0  0  0  0  0  0  0  0  0  0  0
   61.2837   32.0109   47.2510 H   0  0  0  0  0  0  0  0  0  0  0  0
   57.9769   31.9728   46.9746 H   0  0  0  0  0  0  0  0  0  0  0  0
   58.8681   30.6502   46.5180 H   0  0  0  0  0  0  0  0  0  0  0  0
   61.5467   28.0490   50.3521 H   0  0  0  0  0  0  0  0  0  0  0  0
   61.6113   29.7870   49.8623 H   0  0  0  0  0  0  0  0  0  0  0  0
   61.0800   28.7792   52.4497 H   0  0  0  0  0  0  0  0  0  0  0  0
   60.8380   30.4723   51.8625 H   0  0  0  0  0  0  0  0  0  0  0  0
   57.4060   30.0045   51.1153 H   0  0  0  0  0  0  0  0  0  0  0  0
   58.7612   31.1997   51.2968 H   0  0  0  0  0  0  0  0  0  0  0  0
   57.9947   29.7663   48.9410 H   0  0  0  0  0  0  0  0  0  0  0  0
   59.4112   30.8540   49.1761 H   0  0  0  0  0  0  0  0  0  0  0  0
  1  2  1  0
  2  3  2  0
  3  4  1  0
  4  5  2  0
  5  6  1  0
  6  7  1  0
  7  8  2  0
  7  9  1  0
  9 10  2  0
 10 11  1  0
 11 12  2  0
 12 13  1  0
 13 14  1  0
 14 15  2  0
 14 16  2  0
 14 17  1  0
 17 18  1  0
 18 19  1  0
 19 20  1  0
 19 21  1  0
 21 22  1  0
 22 23  1  0
 22 24  1  0
 13 25  2  0
  5 26  1  0
 26 27  2  0
 27 28  1  0
 28 29  2  0
 28 30  2  0
 28 31  1  0
 31 32  1  0
 32 33  1  0
 33 34  1  0
 34 35  1  0
 35 36  1  0
 27  2  1  0
 36 31  1  0
 25  9  1  0
 24 17  1  0
  1 37  1  0
  1 38  1  0
  1 39  1  0
  3 40  1  0
  4 41  1  0
 10 42  1  0
 11 43  1  0
 12 44  1  0
 18 45  1  0
 18 46  1  0
 19 47  1  1
 20 48  1  0
 20 49  1  0
 20 50  1  0
 22 51  1  1
 23 52  1  0
 23 53  1  0
 23 54  1  0
 24 55  1  0
 24 56  1  0
 25 57  1  0
 26 58  1  0
 32 59  1  0
 32 60  1  0
 33 61  1  0
 33 62  1  0
 35 63  1  0
 35 64  1  0
 36 65  1  0
 36 66  1  0
M  CHG  1   6  -1
M  END
>  <UniqueID>  (12) 
11

>  <SMILES>  (12) 
Cc1ccc([N-]C(=O)c2cccc(S(=O)(=O)N3C[C@@H](C)O[C@@H](C)C3)c2)cc1S(=O)(=O)N1CCOCC1

>  <Energy>  (12) 
85.99500159343359

>  <Genealogy>  (12) 
Cc1ccc([N-]C(=O)c2cccc(S(=O)(=O)N3CC(C)OC(C)C3)c2)cc1S(=O)(=O)N1CCOCC1 (protonated)
Cc1ccc([N-]C(=O)c2cccc(S(=O)(=O)N3C[C@@H](C)O[C@@H](C)C3)c2)cc1S(=O)(=O)N1CCOCC1 (chirality)
Cc1ccc([N-]C(=O)c2cccc(S(=O)(=O)N3C[C@@H](C)O[C@@H](C)C3)c2)cc1S(=O)(=O)N1CCOCC1 (3D coordinates assigned)
Cc1ccc([N-]C(=O)c2cccc(S(=O)(=O)N3C[C@@H](C)O[C@@H](C)C3)c2)cc1S(=O)(=O)N1CCOCC1 (nonaromatic ring conformer: 85.99500159343359 kcal/mol)

>  <smiles>  (12) 
Cc1ccc(NC(=O)c2cccc(S(=O)(=O)N3CC(C)OC(C)C3)c2)cc1S(=O)(=O)N1CCOCC1

>  <score_type>  (12) 
oracle

>  <origin>  (12) 
adg

>  <m_score__min__energy>  (12) 
-12.970000000000001

>  <m_primary>  (12) 
energy

$$$$
12:0
     RDKit          3D

 55 58  0  0  0  0  0  0  0  0999 V2000
   60.8230   28.7620   47.2090 O   0  0  0  0  0  0  0  0  0  0  0  0
   60.2270   29.7180   46.6420 C   0  0  0  0  0  0  0  0  0  0  0  0
   60.8660   31.0000   46.5400 N   0  0  0  0  0  0  0  0  0  0  0  0
   61.9770   31.4000   47.4130 C   0  0  0  0  0  0  0  0  0  0  0  0
   62.3920   32.8670   47.1280 C   0  0  0  0  0  0  0  0  0  0  0  0
   62.2530   33.8050   48.3430 C   0  0  0  0  0  0  0  0  0  0  0  0
   60.9910   33.6150   49.0920 N   0  0  0  0  0  0  0  0  0  0  0  0
   59.9160   34.5910   48.8060 C   0  0  0  0  0  0  0  0  0  0  0  0
   59.2690   34.4050   47.4490 C   0  0  0  0  0  0  0  0  0  0  0  0
   59.8580   34.9520   46.2950 C   0  0  0  0  0  0  0  0  0  0  0  0
   59.2610   34.7710   45.0430 C   0  0  0  0  0  0  0  0  0  0  0  0
   58.0810   34.0330   44.9290 C   0  0  0  0  0  0  0  0  0  0  0  0
   57.5050   33.4600   46.0640 C   0  0  0  0  0  0  0  0  0  0  0  0
   58.1010   33.6330   47.3180 C   0  0  0  0  0  0  0  0  0  0  0  0
   60.5320   32.2220   49.3000 C   0  0  0  0  0  0  0  0  0  0  0  0
   61.5790   31.1860   48.8800 C   0  0  0  0  0  0  0  0  0  0  0  0
   58.8820   29.5040   46.0680 C   0  0  0  0  0  0  0  0  0  0  0  0
   58.2000   30.5530   45.4340 C   0  0  0  0  0  0  0  0  0  0  0  0
   56.9560   30.3530   44.9260 N   0  0  0  0  0  0  0  0  0  0  0  0
   56.3300   29.1490   45.0020 C   0  0  0  0  0  0  0  0  0  0  0  0
   55.1840   29.0190   44.4950 O   0  0  0  0  0  0  0  0  0  0  0  0
   56.9720   28.0610   45.6230 C   0  0  0  0  0  0  0  0  0  0  0  0
   56.3370   26.7270   45.7180 C   0  0  0  0  0  0  0  0  0  0  0  0
   55.1250   26.6600   46.0610 O   0  0  0  0  0  0  0  0  0  0  0  0
   57.0700   25.4800   45.3900 C   0  0  0  0  0  0  0  0  0  0  0  0
   58.1990   25.0870   46.1350 C   0  0  0  0  0  0  0  0  0  0  0  0
   58.8960   23.9230   45.8010 C   0  0  0  0  0  0  0  0  0  0  0  0
   58.4820   23.1430   44.7190 C   0  0  0  0  0  0  0  0  0  0  0  0
   59.1610   22.0150   44.3960 F   0  0  0  0  0  0  0  0  0  0  0  0
   57.3710   23.5290   43.9650 C   0  0  0  0  0  0  0  0  0  0  0  0
   56.6700   24.6940   44.2950 C   0  0  0  0  0  0  0  0  0  0  0  0
   58.2620   28.2480   46.1370 C   0  0  0  0  0  0  0  0  0  0  0  0
   60.4600   31.7040   45.8830 H   0  0  0  0  0  0  0  0  0  0  0  0
   62.8561   30.7726   47.2045 H   0  0  0  0  0  0  0  0  0  0  0  0
   63.4436   32.8725   46.8052 H   0  0  0  0  0  0  0  0  0  0  0  0
   61.7092   33.2462   46.3534 H   0  0  0  0  0  0  0  0  0  0  0  0
   63.0950   33.6180   49.0257 H   0  0  0  0  0  0  0  0  0  0  0  0
   62.2498   34.8356   47.9584 H   0  0  0  0  0  0  0  0  0  0  0  0
   59.1392   34.4880   49.5780 H   0  0  0  0  0  0  0  0  0  0  0  0
   60.3794   35.5886   48.8068 H   0  0  0  0  0  0  0  0  0  0  0  0
   60.7932   35.5253   46.3774 H   0  0  0  0  0  0  0  0  0  0  0  0
   59.7220   35.2109   44.1464 H   0  0  0  0  0  0  0  0  0  0  0  0
   57.6058   33.9033   43.9455 H   0  0  0  0  0  0  0  0  0  0  0  0
   56.5804   32.8711   45.9724 H   0  0  0  0  0  0  0  0  0  0  0  0
   57.6536   33.1627   48.2060 H   0  0  0  0  0  0  0  0  0  0  0  0
   60.3063   32.0815   50.3674 H   0  0  0  0  0  0  0  0  0  0  0  0
   59.6418   32.0682   48.6724 H   0  0  0  0  0  0  0  0  0  0  0  0
   62.4696   31.2904   49.5171 H   0  0  0  0  0  0  0  0  0  0  0  0
   61.1527   30.1783   48.9931 H   0  0  0  0  0  0  0  0  0  0  0  0
   58.6744   31.5417   45.3478 H   0  0  0  0  0  0  0  0  0  0  0  0
   58.5339   25.7001   46.9847 H   0  0  0  0  0  0  0  0  0  0  0  0
   59.7731   23.6202   46.3918 H   0  0  0  0  0  0  0  0  0  0  0  0
   57.0470   22.9162   43.1109 H   0  0  0  0  0  0  0  0  0  0  0  0
   55.8001   24.9970   43.6938 H   0  0  0  0  0  0  0  0  0  0  0  0
   58.7930   27.4024   46.5986 H   0  0  0  0  0  0  0  0  0  0  0  0
  1  2  2  0
  2  3  1  0
  3  4  1  0
  4  5  1  0
  5  6  1  0
  6  7  1  0
  7  8  1  0
  8  9  1  0
  9 10  2  0
 10 11  1  0
 11 12  2  0
 12 13  1  0
 13 14  2  0
  7 15  1  0
 15 16  1  0
  2 17  1  0
 17 18  2  0
 18 19  1  0
 19 20  1  0
 20 21  2  0
 20 22  1  0
 22 23  1  0
 23 24  2  0
 23 25  1  0
 25 26  2  0
 26 27  1  0
 27 28  2  0
 28 29  1  0
 28 30  1  0
 30 31  2  0
 22 32  2  0
 16  4  1  0
 32 17  1  0
 14  9  1  0
 31 25  1  0
  3 33  1  0
  4 34  1  0
  5 35  1  0
  5 36  1  0
  6 37  1  0
  6 38  1  0
  8 39  1  0
  8 40  1  0
 10 41  1  0
 11 42  1  0
 12 43  1  0
 13 44  1  0
 14 45  1  0
 15 46  1  0
 15 47  1  0
 16 48  1  0
 16 49  1  0
 18 50  1  0
 26 51  1  0
 27 52  1  0
 30 53  1  0
 31 54  1  0
 32 55  1  0
M  CHG  1  19  -1
M  END
>  <UniqueID>  (13) 
12

>  <SMILES>  (13) 
O=C(NC1CCN(Cc2ccccc2)CC1)c1c[n-]c(=O)c(C(=O)c2ccc(F)cc2)c1

>  <Energy>  (13) 
78.41699066388266

>  <Genealogy>  (13) 
O=C(NC1CCN(Cc2ccccc2)CC1)c1c[n-]c(=O)c(C(=O)c2ccc(F)cc2)c1 (protonated)
O=C(NC1CCN(Cc2ccccc2)CC1)c1c[n-]c(=O)c(C(=O)c2ccc(F)cc2)c1 (3D coordinates assigned)
O=C(NC1CCN(Cc2ccccc2)CC1)c1c[n-]c(=O)c(C(=O)c2ccc(F)cc2)c1 (nonaromatic ring conformer: 78.41699066388266 kcal/mol)

>  <smiles>  (13) 
O=C(NC1CCN(Cc2ccccc2)CC1)c1c[nH]c(=O)c(C(=O)c2ccc(F)cc2)c1

>  <score_type>  (13) 
oracle

>  <origin>  (13) 
adg

>  <m_score__min__energy>  (13) 
-11.99

>  <m_primary>  (13) 
energy

$$$$
13:0
     RDKit          3D

 30 32  0  0  0  0  0  0  0  0999 V2000
   60.2330   32.2790   47.3040 O   0  0  0  0  0  0  0  0  0  0  0  0
   58.9430   32.8570   46.7950 S   0  0  0  0  0  0  0  0  0  0  0  0
   57.9700   33.1630   47.8980 O   0  0  0  0  0  0  0  0  0  0  0  0
   59.1920   34.2170   45.7180 C   0  0  0  0  0  0  0  0  0  0  0  0
   58.7670   33.9630   44.4790 C   0  0  0  0  0  0  0  0  0  0  0  0
   58.2050   32.6150   44.3440 C   0  0  0  0  0  0  0  0  0  0  0  0
   57.6830   32.0420   43.1850 C   0  0  0  0  0  0  0  0  0  0  0  0
   57.1870   30.7290   43.2440 C   0  0  0  0  0  0  0  0  0  0  0  0
   57.2110   30.0020   44.4610 C   0  0  0  0  0  0  0  0  0  0  0  0
   56.7130   28.6530   44.5400 N   0  0  0  0  0  0  0  0  0  0  0  0
   57.3130   27.6270   45.3440 C   0  0  0  0  0  0  0  0  0  0  0  0
   58.7080   27.6030   45.4820 C   0  0  0  0  0  0  0  0  0  0  0  0
   59.3270   26.6040   46.2360 C   0  0  0  0  0  0  0  0  0  0  0  0
   58.5560   25.6270   46.8690 C   0  0  0  0  0  0  0  0  0  0  0  0
   57.1620   25.6570   46.7640 C   0  0  0  0  0  0  0  0  0  0  0  0
   56.4030   24.6900   47.4130 O   0  0  0  0  0  0  0  0  0  0  0  0
   56.5300   26.6610   46.0160 C   0  0  0  0  0  0  0  0  0  0  0  0
   55.1350   26.6920   45.9770 O   0  0  0  0  0  0  0  0  0  0  0  0
   57.7540   30.6020   45.6120 C   0  0  0  0  0  0  0  0  0  0  0  0
   58.2400   31.9060   45.5270 C   0  0  0  0  0  0  0  0  0  0  0  0
   59.6461   35.1698   46.0277 H   0  0  0  0  0  0  0  0  0  0  0  0
   58.8310   34.6843   43.6510 H   0  0  0  0  0  0  0  0  0  0  0  0
   57.6600   32.6076   42.2418 H   0  0  0  0  0  0  0  0  0  0  0  0
   56.7762   30.2605   42.3375 H   0  0  0  0  0  0  0  0  0  0  0  0
   55.7890   28.4400   44.0990 H   0  0  0  0  0  0  0  0  0  0  0  0
   59.3188   28.3762   44.9931 H   0  0  0  0  0  0  0  0  0  0  0  0
   60.4227   26.5867   46.3314 H   0  0  0  0  0  0  0  0  0  0  0  0
   59.0460   24.8326   47.4511 H   0  0  0  0  0  0  0  0  0  0  0  0
   54.5590   25.9670   46.3840 H   0  0  0  0  0  0  0  0  0  0  0  0
   57.7944   30.0513   46.5633 H   0  0  0  0  0  0  0  0  0  0  0  0
  1  2  2  0
  2  3  2  0
  2  4  1  0
  4  5  2  0
  5  6  1  0
  6  7  2  0
  7  8  1  0
  8  9  2  0
  9 10  1  0
 10 11  1  0
 11 12  2  0
 12 13  1  0
 13 14  2  0
 14 15  1  0
 15 16  1  0
 15 17  2  0
 17 18  1  0
  9 19  1  0
 19 20  2  0
 20  2  1  0
 20  6  1  0
 17 11  1  0
  4 21  1  0
  5 22  1  0
  7 23  1  0
  8 24  1  0
 10 25  1  0
 12 26  1  0
 13 27  1  0
 14 28  1  0
 18 29  1  0
 19 30  1  0
M  CHG  1  16  -1
M  END
>  <UniqueID>  (14) 
13

>  <SMILES>  (14) 
O=S1(=O)C=Cc2ccc(Nc3cccc([O-])c3O)cc21

>  <Energy>  (14) 
60.401886112048125

>  <Genealogy>  (14) 
O=S1(=O)C=Cc2ccc(Nc3cccc([O-])c3O)cc21 (protonated)
O=S1(=O)C=Cc2ccc(Nc3cccc([O-])c3O)cc21 (3D coordinates assigned)
O=S1(=O)C=Cc2ccc(Nc3cccc([O-])c3O)cc21 (nonaromatic ring conformer: 60.401886112048125 kcal/mol)

>  <smiles>  (14) 
O=S1(=O)C=Cc2ccc(Nc3cccc(O)c3O)cc21

>  <score_type>  (14) 
oracle

>  <origin>  (14) 
adg

>  <m_score__min__energy>  (14) 
-12.6

>  <m_primary>  (14) 
energy

$$$$
14:0
     RDKit          3D

 29 30  0  0  0  0  0  0  0  0999 V2000
   58.1570   26.9730   42.9920 C   0  0  0  0  0  0  0  0  0  0  0  0
   58.0240   28.0410   43.7730 C   0  0  0  0  0  0  0  0  0  0  0  0
   56.9250   28.8300   43.7960 N   0  0  0  0  0  0  0  0  0  0  0  0
   57.0450   29.8530   44.6830 C   0  0  0  0  0  0  0  0  0  0  0  0
   56.1200   30.6930   44.8530 O   0  0  0  0  0  0  0  0  0  0  0  0
   58.2560   29.8960   45.3790 C   0  0  0  0  0  0  0  0  0  0  0  0
   58.5880   30.7940   46.3200 C   0  0  0  0  0  0  0  0  0  0  0  0
   58.8810   32.2150   46.0250 C   0  0  0  0  0  0  0  0  0  0  0  0
   57.8930   32.9940   45.3940 C   0  0  0  0  0  0  0  0  0  0  0  0
   58.0920   34.3580   45.1770 C   0  0  0  0  0  0  0  0  0  0  0  0
   59.2700   34.9660   45.6010 C   0  0  0  0  0  0  0  0  0  0  0  0
   60.2560   34.2160   46.2420 C   0  0  0  0  0  0  0  0  0  0  0  0
   60.0840   32.8350   46.4600 C   0  0  0  0  0  0  0  0  0  0  0  0
   61.1860   32.0840   47.1150 C   0  0  0  0  0  0  0  0  0  0  0  0
   61.3160   30.8420   46.9330 O   0  0  0  0  0  0  0  0  0  0  0  0
   62.1090   32.7680   47.9140 O   0  0  0  0  0  0  0  0  0  0  0  0
   63.4280   33.0710   47.4780 C   0  0  0  0  0  0  0  0  0  0  0  0
   59.1900   28.5860   44.8570 S   0  0  0  0  0  0  0  0  0  0  0  0
   59.0813   26.3776   43.0272 H   0  0  0  0  0  0  0  0  0  0  0  0
   57.3428   26.6850   42.3108 H   0  0  0  0  0  0  0  0  0  0  0  0
   56.0780   28.6740   43.2050 H   0  0  0  0  0  0  0  0  0  0  0  0
   58.6454   30.4563   47.3653 H   0  0  0  0  0  0  0  0  0  0  0  0
   56.9540   32.5225   45.0685 H   0  0  0  0  0  0  0  0  0  0  0  0
   57.3176   34.9529   44.6707 H   0  0  0  0  0  0  0  0  0  0  0  0
   59.4240   36.0417   45.4300 H   0  0  0  0  0  0  0  0  0  0  0  0
   61.1790   34.7089   46.5814 H   0  0  0  0  0  0  0  0  0  0  0  0
   64.0781   33.2203   48.3527 H   0  0  0  0  0  0  0  0  0  0  0  0
   63.8143   32.2382   46.8720 H   0  0  0  0  0  0  0  0  0  0  0  0
   63.4121   33.9889   46.8720 H   0  0  0  0  0  0  0  0  0  0  0  0
  1  2  2  0
  2  3  1  0
  3  4  1  0
  4  5  2  0
  4  6  1  0
  6  7  2  3
  7  8  1  0
  8  9  2  0
  9 10  1  0
 10 11  2  0
 11 12  1  0
 12 13  2  0
 13 14  1  0
 14 15  2  0
 14 16  1  0
 16 17  1  0
  6 18  1  0
 18  2  1  0
 13  8  1  0
  1 19  1  0
  1 20  1  0
  3 21  1  0
  7 22  1  0
  9 23  1  0
 10 24  1  0
 11 25  1  0
 12 26  1  0
 17 27  1  0
 17 28  1  0
 17 29  1  0
M  END
>  <UniqueID>  (15) 
14

>  <SMILES>  (15) 
C=c1[nH]c(=O)c(=Cc2ccccc2C(=O)OC)s1

>  <Energy>  (15) 
67.76396815106756

>  <Genealogy>  (15) 
C=c1[nH]c(=O)c(=Cc2ccccc2C(=O)OC)s1 (3D coordinates assigned)
C=c1[nH]c(=O)c(=Cc2ccccc2C(=O)OC)s1 (optimized conformer: 67.76396815106756 kcal/mol)

>  <smiles>  (15) 
C=c1[nH]c(=O)c(=Cc2ccccc2C(=O)OC)s1

>  <score_type>  (15) 
oracle

>  <origin>  (15) 
adg

>  <m_score__min__energy>  (15) 
-6.7599999999999998

>  <m_primary>  (15) 
energy

$$$$
15:0
     RDKit          3D

 69 73  0  0  0  0  0  0  0  0999 V2000
   57.3286   25.1557   47.4380 H   0  0  0  0  0  0  0  0  0  0  0  0
   56.5480   25.6180   46.8160 C   0  0  0  0  0  0  0  0  0  0  0  0
   55.6317   25.0582   46.5772 H   0  0  0  0  0  0  0  0  0  0  0  0
   56.7130   26.8610   46.3500 C   0  0  0  0  0  0  0  0  0  0  0  0
   57.8490   27.6830   46.4520 C   0  0  0  0  0  0  0  0  0  0  0  0
   59.0040   27.4850   47.1210 C   0  0  0  0  0  0  0  0  0  0  0  0
   59.6908   26.7205   46.7287 H   0  0  0  0  0  0  0  0  0  0  0  0
   59.4200   28.2110   48.3360 C   0  0  0  0  0  0  0  0  0  0  0  0
   58.8210   29.4310   48.6740 C   0  0  0  0  0  0  0  0  0  0  0  0
   57.9959   29.8199   48.0592 H   0  0  0  0  0  0  0  0  0  0  0  0
   59.2490   30.1440   49.7580 N   0  0  0  0  0  0  0  0  0  0  0  0
   58.5530   31.3890   50.1150 C   0  0  0  0  0  0  0  0  0  0  0  0
   59.2537   32.2331   50.0349 H   0  0  0  0  0  0  0  0  0  0  0  0
   57.7070   31.5378   49.4279 H   0  0  0  0  0  0  0  0  0  0  0  0
   58.0330   31.3060   51.5250 C   0  0  0  0  0  0  0  0  0  0  0  0
   58.4800   32.2160   52.4990 C   0  0  0  0  0  0  0  0  0  0  0  0
   59.2336   32.9730   52.2363 H   0  0  0  0  0  0  0  0  0  0  0  0
   57.9710   32.1630   53.8000 C   0  0  0  0  0  0  0  0  0  0  0  0
   58.3285   32.8741   54.5593 H   0  0  0  0  0  0  0  0  0  0  0  0
   57.0080   31.2070   54.1370 C   0  0  0  0  0  0  0  0  0  0  0  0
   56.6095   31.1652   55.1614 H   0  0  0  0  0  0  0  0  0  0  0  0
   56.5520   30.3050   53.1730 C   0  0  0  0  0  0  0  0  0  0  0  0
   55.7936   29.5540   53.4390 H   0  0  0  0  0  0  0  0  0  0  0  0
   57.0580   30.3550   51.8700 C   0  0  0  0  0  0  0  0  0  0  0  0
   56.6911   29.6469   51.1123 H   0  0  0  0  0  0  0  0  0  0  0  0
   60.2830   29.6640   50.5200 C   0  0  0  0  0  0  0  0  0  0  0  0
   60.6810   30.2940   51.5360 O   0  0  0  0  0  0  0  0  0  0  0  0
   60.8950   28.5000   50.1840 N   0  0  0  0  0  0  0  0  0  0  0  0
   60.4980   27.7730   49.1110 C   0  0  0  0  0  0  0  0  0  0  0  0
   61.1000   26.7020   48.8290 O   0  0  0  0  0  0  0  0  0  0  0  0
   57.5680   28.8100   45.6750 C   0  0  0  0  0  0  0  0  0  0  0  0
   58.3670   30.0520   45.5680 C   0  0  0  0  0  0  0  0  0  0  0  0
   59.6170   29.9730   45.4520 O   0  0  0  0  0  0  0  0  0  0  0  0
   57.7540   31.3510   45.6090 N   0  0  0  0  0  0  0  0  0  0  0  0
   58.3960   32.5540   46.0570 C   0  0  0  0  0  0  0  0  0  0  0  0
   58.3270   33.7010   45.2590 C   0  0  0  0  0  0  0  0  0  0  0  0
   57.7376   33.6876   44.3303 H   0  0  0  0  0  0  0  0  0  0  0  0
   59.0040   34.8640   45.6370 C   0  0  0  0  0  0  0  0  0  0  0  0
   58.9571   35.7587   44.9987 H   0  0  0  0  0  0  0  0  0  0  0  0
   59.7400   34.8920   46.8240 C   0  0  0  0  0  0  0  0  0  0  0  0
   60.2885   35.8024   47.1075 H   0  0  0  0  0  0  0  0  0  0  0  0
   59.7820   33.7640   47.6550 C   0  0  0  0  0  0  0  0  0  0  0  0
   60.7150   33.8100   49.1490 S   0  0  0  0  0  0  0  0  0  0  0  0
   61.7200   34.9280   49.0710 O   0  0  0  0  0  0  0  0  0  0  0  0
   59.7700   34.1050   50.2790 O   0  0  0  0  0  0  0  0  0  0  0  0
   61.5240   32.2610   49.3720 N   0  0  0  0  0  0  0  0  0  0  0  0
   60.8180   31.6190   49.8020 H   0  0  0  0  0  0  0  0  0  0  0  0
   61.9380   31.6490   48.0930 C   0  0  0  0  0  0  0  0  0  0  0  0
   62.1212   30.5763   48.2536 H   0  0  0  0  0  0  0  0  0  0  0  0
   61.1322   31.8054   47.3607 H   0  0  0  0  0  0  0  0  0  0  0  0
   63.2180   32.2960   47.5430 C   0  0  0  0  0  0  0  0  0  0  0  0
   63.5181   31.7777   46.6203 H   0  0  0  0  0  0  0  0  0  0  0  0
   63.0187   33.3574   47.3338 H   0  0  0  0  0  0  0  0  0  0  0  0
   64.2630   32.2050   48.4880 O   0  0  0  0  0  0  0  0  0  0  0  0
   63.9170   32.9400   49.6440 C   0  0  0  0  0  0  0  0  0  0  0  0
   64.7541   32.9050   50.3568 H   0  0  0  0  0  0  0  0  0  0  0  0
   63.7057   33.9786   49.3495 H   0  0  0  0  0  0  0  0  0  0  0  0
   62.6610   32.3540   50.3130 C   0  0  0  0  0  0  0  0  0  0  0  0
   62.8954   31.3466   50.6874 H   0  0  0  0  0  0  0  0  0  0  0  0
   62.3686   33.0256   51.1336 H   0  0  0  0  0  0  0  0  0  0  0  0
   59.1020   32.5990   47.2720 C   0  0  0  0  0  0  0  0  0  0  0  0
   59.1211   31.7149   47.9262 H   0  0  0  0  0  0  0  0  0  0  0  0
   56.2920   28.6330   45.1650 C   0  0  0  0  0  0  0  0  0  0  0  0
   55.5320   29.6180   44.3340 C   0  0  0  0  0  0  0  0  0  0  0  0
   54.9939   30.3155   44.9927 H   0  0  0  0  0  0  0  0  0  0  0  0
   56.2328   30.1800   43.6991 H   0  0  0  0  0  0  0  0  0  0  0  0
   54.8106   29.0827   43.6991 H   0  0  0  0  0  0  0  0  0  0  0  0
   55.7800   27.4620   45.5850 N   0  0  0  0  0  0  0  0  0  0  0  0
   54.8380   27.0800   45.3380 H   0  0  0  0  0  0  0  0  0  0  0  0
  1  2  1  0
  2  3  1  0
  2  4  2  0
  4  5  1  0
  5  6  2  0
  6  7  1  0
  6  8  1  0
  8  9  2  0
  9 10  1  0
  9 11  1  0
 11 12  1  0
 12 13  1  0
 12 14  1  0
 12 15  1  0
 15 16  2  0
 16 17  1  0
 16 18  1  0
 18 19  1  0
 18 20  2  0
 20 21  1  0
 20 22  1  0
 22 23  1  0
 22 24  2  0
 24 25  1  0
 11 26  1  0
 26 27  2  0
 26 28  1  0
 28 29  1  0
 29 30  2  0
  5 31  1  0
 31 32  1  0
 32 33  2  0
 32 34  1  0
 34 35  1  0
 35 36  2  0
 36 37  1  0
 36 38  1  0
 38 39  1  0
 38 40  2  0
 40 41  1  0
 40 42  1  0
 42 43  1  0
 43 44  2  0
 43 45  2  0
 43 46  1  0
 46 47  1  0
 46 48  1  0
 48 49  1  0
 48 50  1  0
 48 51  1  0
 51 52  1  0
 51 53  1  0
 51 54  1  0
 54 55  1  0
 55 56  1  0
 55 57  1  0
 55 58  1  0
 58 59  1  0
 58 60  1  0
 42 61  2  0
 61 62  1  0
 31 63  2  0
 63 64  1  0
 64 65  1  0
 64 66  1  0
 64 67  1  0
 63 68  1  0
 68 69  1  0
 68  4  1  0
 29  8  1  0
 61 35  1  0
 24 15  1  0
 58 46  1  0
M  CHG  3  28  -1  34  -1  46   1
M  END
>  <UniqueID>  (16) 
15

>  <SMILES>  (16) 
C=c1[nH]c(C)c(C(=O)[N-]c2cccc(S(=O)(=O)[NH+]3CCOCC3)c2)/c1=C/c1cn(Cc2ccccc2)c(=O)[n-]c1=O

>  <Energy>  (16) 
123.18409379901948

>  <Genealogy>  (16) 
C=c1[nH]c(C)c(C(=O)[N-]c2cccc(S(=O)(=O)[NH+]3CCOCC3)c2)c1=Cc1cn(Cc2ccccc2)c(=O)[n-]c1=O (protonated)
C=c1[nH]c(C)c(C(=O)[N-]c2cccc(S(=O)(=O)[NH+]3CCOCC3)c2)/c1=C/c1cn(Cc2ccccc2)c(=O)[n-]c1=O (cis-trans isomerization)
C=c1[nH]c(C)c(C(=O)[N-]c2cccc(S(=O)(=O)[NH+]3CCOCC3)c2)/c1=C/c1cn(Cc2ccccc2)c(=O)[n-]c1=O (3D coordinates assigned)
C=c1[nH]c(C)c(C(=O)[N-]c2cccc(S(=O)(=O)[NH+]3CCOCC3)c2)/c1=C/c1cn(Cc2ccccc2)c(=O)[n-]c1=O (nonaromatic ring conformer: 123.18409379901948 kcal/mol)

>  <smiles>  (16) 
C=c1[nH]c(C)c(C(=O)Nc2cccc(S(=O)(=O)N3CCOCC3)c2)c1=Cc1cn(Cc2ccccc2)c(=O)[nH]c1=O

>  <score_type>  (16) 
oracle

>  <origin>  (16) 
adg

>  <m_score__min__energy>  (16) 
-12.44

>  <m_primary>  (16) 
energy

$$$$
16:0
     RDKit          3D

 60 64  0  0  1  0  0  0  0  0999 V2000
   55.4380   24.8990   46.0940 O   0  0  0  0  0  0  0  0  0  0  0  0
   56.9420   24.8990   46.2840 S   0  0  0  0  0  0  0  0  0  0  0  0
   57.2710   24.3100   47.6170 O   0  0  0  0  0  0  0  0  0  0  0  0
   57.5080   26.5530   46.2710 C   0  0  0  0  0  0  0  0  0  0  0  0
   58.6830   26.9470   46.8820 C   0  0  0  0  0  0  0  0  0  0  0  0
   59.0600   28.2760   46.8270 C   0  0  0  0  0  0  0  0  0  0  0  0
   58.3060   29.2430   46.1800 C   0  0  0  0  0  0  0  0  0  0  0  0
   57.1380   28.8340   45.5760 C   0  0  0  0  0  0  0  0  0  0  0  0
   56.2680   29.7190   44.8790 N   0  0  0  0  0  0  0  0  0  0  0  0
   56.8200   30.7910   44.3790 C   0  0  0  0  0  0  0  0  0  0  0  0
   57.2480   30.7580   43.0660 C   0  0  0  0  0  0  0  0  0  0  0  0
   57.8260   31.8980   42.5650 C   0  0  0  0  0  0  0  0  0  0  0  0
   57.9640   32.9840   43.3200 N   0  0  0  0  0  0  0  0  0  0  0  0
   57.5560   33.0340   44.5900 C   0  0  0  0  0  0  0  0  0  0  0  0
   57.6530   34.0320   45.3720 N   0  0  0  0  0  0  0  0  0  0  0  0
   58.2040   33.9120   46.6940 C   0  0  0  0  0  0  0  0  0  0  0  0
   59.4530   34.7520   46.8960 C   0  0  0  0  0  0  0  0  0  0  0  0
   60.3020   34.2810   47.9910 C   0  0  0  0  0  0  0  0  0  0  0  0
   59.9350   34.2280   49.3380 C   0  0  0  0  0  0  0  0  0  0  0  0
   60.9560   33.7420   50.0660 N   0  0  0  0  0  0  0  0  0  0  0  0
   61.9990   33.4650   49.2630 C   0  0  0  0  0  0  0  0  0  0  0  0
   63.2770   32.9590   49.4510 C   0  0  0  0  0  0  0  0  0  0  0  0
   64.1360   32.7910   48.3680 C   0  0  0  0  0  0  0  0  0  0  0  0
   63.7220   33.1270   47.0860 C   0  0  0  0  0  0  0  0  0  0  0  0
   62.4450   33.6340   46.8890 C   0  0  0  0  0  0  0  0  0  0  0  0
   61.5980   33.7970   47.9800 C   0  0  0  0  0  0  0  0  0  0  0  0
   56.9810   31.9100   45.1030 N   0  0  0  0  0  0  0  0  0  0  0  0
   56.7270   27.4960   45.6130 C   0  0  0  0  0  0  0  0  0  0  0  0
   57.5970   24.0000   44.9640 N   0  0  0  0  0  0  0  0  0  0  0  0
   57.4610   22.5830   45.1830 C   0  0  0  0  0  0  0  0  0  0  0  0
   57.1080   21.9070   43.8850 C   0  0  0  0  0  0  0  0  0  0  0  0
   55.8080   22.2850   43.5200 O   0  0  0  0  0  0  0  0  0  0  0  0
   55.7350   23.6460   43.3720 C   0  0  0  0  0  0  0  0  0  0  0  0
   57.0180   24.3630   43.7150 C   0  0  0  0  0  0  0  0  0  0  0  0
   59.3112   26.2117   47.4061 H   0  0  0  0  0  0  0  0  0  0  0  0
   59.9972   28.5788   47.3169 H   0  0  0  0  0  0  0  0  0  0  0  0
   58.6278   30.2945   46.1503 H   0  0  0  0  0  0  0  0  0  0  0  0
   57.1306   29.8559   42.4477 H   0  0  0  0  0  0  0  0  0  0  0  0
   58.1802   31.9134   41.5237 H   0  0  0  0  0  0  0  0  0  0  0  0
   58.4040   33.8290   42.9090 H   0  0  0  0  0  0  0  0  0  0  0  0
   57.4438   34.2341   47.4209 H   0  0  0  0  0  0  0  0  0  0  0  0
   58.4894   32.8593   46.8367 H   0  0  0  0  0  0  0  0  0  0  0  0
   60.0405   34.7316   45.9663 H   0  0  0  0  0  0  0  0  0  0  0  0
   59.1213   35.7677   47.1574 H   0  0  0  0  0  0  0  0  0  0  0  0
   58.9594   34.5368   49.7416 H   0  0  0  0  0  0  0  0  0  0  0  0
   60.9810   33.5850   51.1120 H   0  0  0  0  0  0  0  0  0  0  0  0
   63.6141   32.6886   50.4626 H   0  0  0  0  0  0  0  0  0  0  0  0
   65.1476   32.3901   48.5289 H   0  0  0  0  0  0  0  0  0  0  0  0
   64.4018   32.9922   46.2318 H   0  0  0  0  0  0  0  0  0  0  0  0
   62.1057   33.9047   45.8783 H   0  0  0  0  0  0  0  0  0  0  0  0
   56.6460   31.9130   46.1060 H   0  0  0  0  0  0  0  0  0  0  0  0
   55.7899   27.1924   45.1234 H   0  0  0  0  0  0  0  0  0  0  0  0
   58.4110   22.1775   45.5613 H   0  0  0  0  0  0  0  0  0  0  0  0
   56.6653   22.4003   45.9202 H   0  0  0  0  0  0  0  0  0  0  0  0
   57.8167   22.2156   43.1023 H   0  0  0  0  0  0  0  0  0  0  0  0
   57.1609   20.8148   44.0048 H   0  0  0  0  0  0  0  0  0  0  0  0
   55.4821   23.8684   42.3248 H   0  0  0  0  0  0  0  0  0  0  0  0
   54.9683   24.0052   44.0742 H   0  0  0  0  0  0  0  0  0  0  0  0
   57.7511   24.1470   42.9239 H   0  0  0  0  0  0  0  0  0  0  0  0
   56.7612   25.4296   43.7947 H   0  0  0  0  0  0  0  0  0  0  0  0
  1  2  2  0
  2  3  2  0
  2  4  1  0
  4  5  2  0
  5  6  1  0
  6  7  2  0
  7  8  1  0
  8  9  1  0
  9 10  2  0
 10 11  1  0
 11 12  2  0
 12 13  1  0
 13 14  1  0
 14 15  2  0
 15 16  1  0
 16 17  1  0
 17 18  1  0
 18 19  2  0
 19 20  1  0
 20 21  1  0
 21 22  2  0
 22 23  1  0
 23 24  2  0
 24 25  1  0
 25 26  2  0
 14 27  1  0
  8 28  2  0
  2 29  1  0
 29 30  1  0
 30 31  1  0
 31 32  1  0
 32 33  1  0
 33 34  1  0
 28  4  1  0
 34 29  1  0
 27 10  1  0
 26 18  1  0
 26 21  1  0
  5 35  1  0
  6 36  1  0
  7 37  1  0
 11 38  1  0
 12 39  1  0
 13 40  1  0
 16 41  1  0
 16 42  1  0
 17 43  1  0
 17 44  1  0
 19 45  1  0
 20 46  1  0
 22 47  1  0
 23 48  1  0
 24 49  1  0
 25 50  1  0
 27 51  1  0
 28 52  1  0
 30 53  1  0
 30 54  1  0
 31 55  1  0
 31 56  1  0
 33 57  1  0
 33 58  1  0
 34 59  1  0
 34 60  1  0
M  END
>  <smiles>  (17) 
O=S(=O)(c1cccc(N=c2cc[nH]c(=NCCc3c[nH]c4ccccc34)[nH]2)c1)N1CCOCC1

>  <score_type>  (17) 
oracle

>  <origin>  (17) 
adg

>  <m_score__min__energy>  (17) 
-11.27

>  <m_primary>  (17) 
energy

$$$$
17:0
     RDKit          3D

 32 34  0  0  0  0  0  0  0  0999 V2000
   61.2077   31.1564   46.7059 H   0  0  0  0  0  0  0  0  0  0  0  0
   60.9710   30.1060   46.4810 C   0  0  0  0  0  0  0  0  0  0  0  0
   61.7216   29.3224   46.6612 H   0  0  0  0  0  0  0  0  0  0  0  0
   59.7720   29.7820   45.9890 C   0  0  0  0  0  0  0  0  0  0  0  0
   58.7590   30.6600   45.7720 N   0  0  0  0  0  0  0  0  0  0  0  0
   58.7540   32.0890   45.9370 C   0  0  0  0  0  0  0  0  0  0  0  0
   59.0370   32.6550   47.1900 C   0  0  0  0  0  0  0  0  0  0  0  0
   59.2504   32.0026   48.0496 H   0  0  0  0  0  0  0  0  0  0  0  0
   59.0490   34.0440   47.3510 C   0  0  0  0  0  0  0  0  0  0  0  0
   59.2678   34.4814   48.3363 H   0  0  0  0  0  0  0  0  0  0  0  0
   58.7830   34.8770   46.2600 C   0  0  0  0  0  0  0  0  0  0  0  0
   58.7942   35.9696   46.3868 H   0  0  0  0  0  0  0  0  0  0  0  0
   58.5030   34.3220   45.0090 C   0  0  0  0  0  0  0  0  0  0  0  0
   58.2914   34.9787   44.1523 H   0  0  0  0  0  0  0  0  0  0  0  0
   58.4910   32.9320   44.8430 C   0  0  0  0  0  0  0  0  0  0  0  0
   58.2000   32.4090   43.6250 F   0  0  0  0  0  0  0  0  0  0  0  0
   57.7380   29.8980   45.3290 C   0  0  0  0  0  0  0  0  0  0  0  0
   56.6060   30.3450   45.0010 O   0  0  0  0  0  0  0  0  0  0  0  0
   58.1380   28.5780   45.2720 C   0  0  0  0  0  0  0  0  0  0  0  0
   57.3780   27.5360   44.8990 C   0  0  0  0  0  0  0  0  0  0  0  0
   56.8499   27.5941   43.9358 H   0  0  0  0  0  0  0  0  0  0  0  0
   57.2140   26.3140   45.7160 C   0  0  0  0  0  0  0  0  0  0  0  0
   55.9650   25.9400   46.2420 C   0  0  0  0  0  0  0  0  0  0  0  0
   54.8330   26.7120   46.0080 O   0  0  0  0  0  0  0  0  0  0  0  0
   55.8600   24.8230   47.0080 N   0  0  0  0  0  0  0  0  0  0  0  0
   56.9470   24.0630   47.2940 C   0  0  0  0  0  0  0  0  0  0  0  0
   56.8240   23.0310   48.0020 O   0  0  0  0  0  0  0  0  0  0  0  0
   58.1690   24.4200   46.8220 N   0  0  0  0  0  0  0  0  0  0  0  0
   58.3280   25.5270   46.0510 C   0  0  0  0  0  0  0  0  0  0  0  0
   59.4780   25.8290   45.6340 O   0  0  0  0  0  0  0  0  0  0  0  0
   59.4200   28.5090   45.6920 N   0  0  0  0  0  0  0  0  0  0  0  0
   60.0120   27.6560   45.8090 H   0  0  0  0  0  0  0  0  0  0  0  0
  1  2  1  0
  2  3  1  0
  2  4  2  0
  4  5  1  0
  5  6  1  0
  6  7  2  0
  7  8  1  0
  7  9  1  0
  9 10  1  0
  9 11  2  0
 11 12  1  0
 11 13  1  0
 13 14  1  0
 13 15  2  0
 15 16  1  0
  5 17  1  0
 17 18  2  0
 17 19  1  0
 19 20  2  0
 20 21  1  0
 20 22  1  0
 22 23  2  0
 23 24  1  0
 23 25  1  0
 25 26  1  0
 26 27  2  0
 26 28  1  0
 28 29  1  0
 29 30  2  0
 19 31  1  0
 31 32  1  0
 31  4  1  0
 15  6  1  0
 29 22  1  0
M  CHG  3  24  -1  25  -1  28  -1
M  END
>  <UniqueID>  (18) 
16

>  <SMILES>  (18) 
C=c1[nH]/c(=C\c2c([O-])[n-]c(=O)[n-]c2=O)c(=O)n1-c1ccccc1F

>  <Energy>  (18) 
85.50039099588645

>  <Genealogy>  (18) 
C=c1[nH]c(=Cc2c([O-])[n-]c(=O)[n-]c2=O)c(=O)n1-c1ccccc1F (protonated)
C=c1[nH]/c(=C\c2c([O-])[n-]c(=O)[n-]c2=O)c(=O)n1-c1ccccc1F (cis-trans isomerization)
C=c1[nH]/c(=C\c2c([O-])[n-]c(=O)[n-]c2=O)c(=O)n1-c1ccccc1F (3D coordinates assigned)
C=c1[nH]/c(=C\c2c([O-])[n-]c(=O)[n-]c2=O)c(=O)n1-c1ccccc1F (optimized conformer: 85.50039099588645 kcal/mol)

>  <smiles>  (18) 
C=c1[nH]c(=Cc2c(O)[nH]c(=O)[nH]c2=O)c(=O)n1-c1ccccc1F

>  <score_type>  (18) 
oracle

>  <origin>  (18) 
adg

>  <m_score__min__energy>  (18) 
-15.35

>  <m_primary>  (18) 
energy

$$$$
18:0
     RDKit          3D

 27 29  0  0  0  0  0  0  0  0999 V2000
   60.4100   34.2180   47.9260 O   0  0  0  0  0  0  0  0  0  0  0  0
   59.5340   33.8760   47.0880 C   0  0  0  0  0  0  0  0  0  0  0  0
   58.6630   34.8020   46.4340 N   0  0  0  0  0  0  0  0  0  0  0  0
   57.8650   33.9590   45.6000 C   0  0  0  0  0  0  0  0  0  0  0  0
   56.9560   34.3880   44.8430 O   0  0  0  0  0  0  0  0  0  0  0  0
   58.2470   32.5610   45.7460 C   0  0  0  0  0  0  0  0  0  0  0  0
   57.7470   31.4080   45.1420 C   0  0  0  0  0  0  0  0  0  0  0  0
   58.3310   30.1710   45.4790 C   0  0  0  0  0  0  0  0  0  0  0  0
   57.8130   28.9780   44.8730 N   0  0  0  0  0  0  0  0  0  0  0  0
   56.7050   28.2000   45.3470 C   0  0  0  0  0  0  0  0  0  0  0  0
   55.5370   28.6120   45.1150 O   0  0  0  0  0  0  0  0  0  0  0  0
   56.8970   26.8980   46.0340 C   0  0  0  0  0  0  0  0  0  0  0  0
   58.1710   26.5140   46.4820 C   0  0  0  0  0  0  0  0  0  0  0  0
   58.3520   25.2870   47.1210 C   0  0  0  0  0  0  0  0  0  0  0  0
   57.2560   24.4420   47.3010 C   0  0  0  0  0  0  0  0  0  0  0  0
   57.4010   23.3300   47.8720 O   0  0  0  0  0  0  0  0  0  0  0  0
   56.0290   24.8180   46.8550 N   0  0  0  0  0  0  0  0  0  0  0  0
   55.8210   26.0090   46.2310 C   0  0  0  0  0  0  0  0  0  0  0  0
   54.5370   26.3380   45.8120 O   0  0  0  0  0  0  0  0  0  0  0  0
   59.3740   30.1230   46.4410 C   0  0  0  0  0  0  0  0  0  0  0  0
   59.8560   31.3040   47.0330 C   0  0  0  0  0  0  0  0  0  0  0  0
   59.2700   32.5100   46.6580 C   0  0  0  0  0  0  0  0  0  0  0  0
   56.9180   31.4628   44.4210 H   0  0  0  0  0  0  0  0  0  0  0  0
   59.0302   27.1835   46.3285 H   0  0  0  0  0  0  0  0  0  0  0  0
   59.3483   24.9887   47.4792 H   0  0  0  0  0  0  0  0  0  0  0  0
   59.8089   29.1536   46.7258 H   0  0  0  0  0  0  0  0  0  0  0  0
   60.6717   31.2758   47.7704 H   0  0  0  0  0  0  0  0  0  0  0  0
  1  2  2  0
  2  3  1  0
  3  4  1  0
  4  5  2  0
  4  6  1  0
  6  7  2  0
  7  8  1  0
  8  9  1  0
  9 10  1  0
 10 11  2  0
 10 12  1  0
 12 13  1  0
 13 14  2  0
 14 15  1  0
 15 16  2  0
 15 17  1  0
 17 18  1  0
 18 19  1  0
  8 20  2  0
 20 21  1  0
 21 22  2  0
 22  2  1  0
 22  6  1  0
 18 12  2  0
  7 23  1  0
 13 24  1  0
 14 25  1  0
 20 26  1  0
 21 27  1  0
M  CHG  4   3  -1   9  -1  17  -1  19  -1
M  END
>  <UniqueID>  (19) 
17

>  <SMILES>  (19) 
O=C1[N-]C(=O)c2cc([N-]C(=O)c3ccc(=O)[n-]c3[O-])ccc21

>  <Energy>  (19) 
69.31154984078063

>  <Genealogy>  (19) 
O=C1[N-]C(=O)c2cc([N-]C(=O)c3ccc(=O)[n-]c3[O-])ccc21 (protonated)
O=C1[N-]C(=O)c2cc([N-]C(=O)c3ccc(=O)[n-]c3[O-])ccc21 (3D coordinates assigned)
O=C1[N-]C(=O)c2cc([N-]C(=O)c3ccc(=O)[n-]c3[O-])ccc21 (nonaromatic ring conformer: 69.31154984078063 kcal/mol)

>  <smiles>  (19) 
O=C1NC(=O)c2cc(NC(=O)c3ccc(=O)[nH]c3O)ccc21

>  <score_type>  (19) 
oracle

>  <origin>  (19) 
adg

>  <m_score__min__energy>  (19) 
-15.800000000000001

>  <m_primary>  (19) 
energy

$$$$
19:0
     RDKit          3D

 58 61  0  0  0  0  0  0  0  0999 V2000
   56.9980   34.6750   44.9080 C   0  0  0  0  0  0  0  0  0  0  0  0
   57.5700   33.4780   45.0630 C   0  0  0  0  0  0  0  0  0  0  0  0
   57.1710   32.3980   44.3480 N   0  0  0  0  0  0  0  0  0  0  0  0
   57.9520   31.3880   44.7790 C   0  0  0  0  0  0  0  0  0  0  0  0
   57.8650   30.1460   44.2810 C   0  0  0  0  0  0  0  0  0  0  0  0
   57.2370   29.0060   44.9740 C   0  0  0  0  0  0  0  0  0  0  0  0
   55.8960   28.6360   44.9890 C   0  0  0  0  0  0  0  0  0  0  0  0
   54.8680   29.3560   44.3920 O   0  0  0  0  0  0  0  0  0  0  0  0
   55.6950   27.4530   45.6200 N   0  0  0  0  0  0  0  0  0  0  0  0
   56.9330   27.0660   45.9840 C   0  0  0  0  0  0  0  0  0  0  0  0
   57.2740   25.8990   46.6640 C   0  0  0  0  0  0  0  0  0  0  0  0
   58.6330   25.6680   46.9470 C   0  0  0  0  0  0  0  0  0  0  0  0
   59.6240   26.5970   46.5390 C   0  0  0  0  0  0  0  0  0  0  0  0
   61.0390   26.3790   46.9000 C   0  0  0  0  0  0  0  0  0  0  0  0
   61.8500   26.0320   46.0020 O   0  0  0  0  0  0  0  0  0  0  0  0
   61.5040   26.4840   48.2530 N   0  0  0  0  0  0  0  0  0  0  0  0
   60.6830   26.8750   49.3960 C   0  0  0  0  0  0  0  0  0  0  0  0
   60.4490   28.3580   49.3750 C   0  0  0  0  0  0  0  0  0  0  0  0
   59.2200   28.8740   48.9330 C   0  0  0  0  0  0  0  0  0  0  0  0
   59.0040   30.2550   48.9620 C   0  0  0  0  0  0  0  0  0  0  0  0
   60.0090   31.1050   49.4360 C   0  0  0  0  0  0  0  0  0  0  0  0
   61.2180   30.5550   49.8770 C   0  0  0  0  0  0  0  0  0  0  0  0
   61.4090   29.2070   49.8410 N   0  0  0  0  0  0  0  0  0  0  0  0
   59.2430   27.7770   45.8630 C   0  0  0  0  0  0  0  0  0  0  0  0
   57.8900   27.9700   45.5950 C   0  0  0  0  0  0  0  0  0  0  0  0
   58.8240   31.8840   45.7320 C   0  0  0  0  0  0  0  0  0  0  0  0
   59.7430   31.2450   46.3130 O   0  0  0  0  0  0  0  0  0  0  0  0
   58.5850   33.1960   45.9230 N   0  0  0  0  0  0  0  0  0  0  0  0
   59.2950   34.0770   46.8660 C   0  0  0  0  0  0  0  0  0  0  0  0
   60.8060   34.0680   46.5880 C   0  0  0  0  0  0  0  0  0  0  0  0
   61.6030   33.3160   47.6810 C   0  0  0  0  0  0  0  0  0  0  0  0
   63.0200   33.0600   47.3350 N   0  0  0  0  0  0  0  0  0  0  0  0
   63.9530   33.6480   48.3100 C   0  0  0  0  0  0  0  0  0  0  0  0
   63.3090   31.6340   47.1100 C   0  0  0  0  0  0  0  0  0  0  0  0
   57.3453   35.5318   45.5040 H   0  0  0  0  0  0  0  0  0  0  0  0
   56.1796   34.8039   44.1844 H   0  0  0  0  0  0  0  0  0  0  0  0
   58.2928   29.9646   43.2840 H   0  0  0  0  0  0  0  0  0  0  0  0
   56.5022   25.1779   46.9713 H   0  0  0  0  0  0  0  0  0  0  0  0
   58.9295   24.7583   47.4898 H   0  0  0  0  0  0  0  0  0  0  0  0
   59.7162   26.3527   49.3461 H   0  0  0  0  0  0  0  0  0  0  0  0
   61.2049   26.6043   50.3257 H   0  0  0  0  0  0  0  0  0  0  0  0
   58.4338   28.1973   48.5670 H   0  0  0  0  0  0  0  0  0  0  0  0
   58.0475   30.6716   48.6135 H   0  0  0  0  0  0  0  0  0  0  0  0
   59.8508   32.1933   49.4618 H   0  0  0  0  0  0  0  0  0  0  0  0
   62.0154   31.2126   50.2534 H   0  0  0  0  0  0  0  0  0  0  0  0
   59.9927   28.5216   45.5572 H   0  0  0  0  0  0  0  0  0  0  0  0
   58.9143   35.1033   46.7573 H   0  0  0  0  0  0  0  0  0  0  0  0
   59.1223   33.7112   47.8889 H   0  0  0  0  0  0  0  0  0  0  0  0
   60.9841   33.5767   45.6200 H   0  0  0  0  0  0  0  0  0  0  0  0
   61.1515   35.1123   46.5799 H   0  0  0  0  0  0  0  0  0  0  0  0
   61.5765   33.9173   48.6017 H   0  0  0  0  0  0  0  0  0  0  0  0
   61.1249   32.3323   47.7986 H   0  0  0  0  0  0  0  0  0  0  0  0
   63.6043   33.4282   49.3298 H   0  0  0  0  0  0  0  0  0  0  0  0
   64.9548   33.2178   48.1644 H   0  0  0  0  0  0  0  0  0  0  0  0
   63.9971   34.7374   48.1644 H   0  0  0  0  0  0  0  0  0  0  0  0
   63.4125   31.1235   48.0789 H   0  0  0  0  0  0  0  0  0  0  0  0
   62.4850   31.1781   46.5415 H   0  0  0  0  0  0  0  0  0  0  0  0
   64.2455   31.5349   46.5415 H   0  0  0  0  0  0  0  0  0  0  0  0
  1  2  2  0
  2  3  1  0
  3  4  1  0
  4  5  2  3
  5  6  1  0
  6  7  2  0
  7  8  1  0
  7  9  1  0
  9 10  1  0
 10 11  2  0
 11 12  1  0
 12 13  2  0
 13 14  1  0
 14 15  2  0
 14 16  1  0
 16 17  1  0
 17 18  1  0
 18 19  2  0
 19 20  1  0
 20 21  2  0
 21 22  1  0
 22 23  2  0
 13 24  1  0
 24 25  2  0
  4 26  1  0
 26 27  2  0
 26 28  1  0
 28 29  1  0
 29 30  1  0
 30 31  1  0
 31 32  1  0
 32 33  1  0
 32 34  1  0
 28  2  1  0
 25  6  1  0
 25 10  1  0
 23 18  1  0
  1 35  1  0
  1 36  1  0
  5 37  1  0
 11 38  1  0
 12 39  1  0
 17 40  1  0
 17 41  1  0
 19 42  1  0
 20 43  1  0
 21 44  1  0
 22 45  1  0
 24 46  1  0
 29 47  1  0
 29 48  1  0
 30 49  1  0
 30 50  1  0
 31 51  1  0
 31 52  1  0
 33 53  1  0
 33 54  1  0
 33 55  1  0
 34 56  1  0
 34 57  1  0
 34 58  1  0
M  CHG  4   3  -1   8  -1   9  -1  16  -1
M  END
>  <UniqueID>  (20) 
18

>  <SMILES>  (20) 
C=c1[n-]c(=Cc2c([O-])[n-]c3ccc(C(=O)[N-]Cc4ccccn4)cc23)c(=O)n1CCCN(C)C

>  <Energy>  (20) 
140.10352196211

>  <Genealogy>  (20) 
C=c1[n-]c(=Cc2c([O-])[n-]c3ccc(C(=O)[N-]Cc4ccccn4)cc23)c(=O)n1CCCN(C)C (protonated)
C=c1[n-]c(=Cc2c([O-])[n-]c3ccc(C(=O)[N-]Cc4ccccn4)cc23)c(=O)n1CCCN(C)C (3D coordinates assigned)
C=c1[n-]c(=Cc2c([O-])[n-]c3ccc(C(=O)[N-]Cc4ccccn4)cc23)c(=O)n1CCCN(C)C (optimized conformer: 140.10352196211 kcal/mol)

>  <smiles>  (20) 
C=c1[nH]c(=Cc2c(O)[nH]c3ccc(C(=O)NCc4ccccn4)cc23)c(=O)n1CCCN(C)C

>  <score_type>  (20) 
oracle

>  <origin>  (20) 
adg

>  <m_score__min__energy>  (20) 
-16.02

>  <m_primary>  (20) 
energy

$$$$
20:0
     RDKit          3D

 49 52  0  0  0  0  0  0  0  0999 V2000
   58.8710   29.6810   47.2380 C   0  0  0  0  0  0  0  0  0  0  0  0
   58.6030   30.6400   46.3380 C   0  0  0  0  0  0  0  0  0  0  0  0
   58.2080   30.4460   45.0100 C   0  0  0  0  0  0  0  0  0  0  0  0
   58.0120   29.2730   44.3770 C   0  0  0  0  0  0  0  0  0  0  0  0
   57.4220   28.0830   45.0310 C   0  0  0  0  0  0  0  0  0  0  0  0
   56.0400   27.9770   45.2610 C   0  0  0  0  0  0  0  0  0  0  0  0
   55.1740   28.9970   44.8820 O   0  0  0  0  0  0  0  0  0  0  0  0
   55.5330   26.8590   45.8430 N   0  0  0  0  0  0  0  0  0  0  0  0
   56.3380   25.8250   46.1930 C   0  0  0  0  0  0  0  0  0  0  0  0
   55.8470   24.8000   46.7340 O   0  0  0  0  0  0  0  0  0  0  0  0
   57.6730   25.8900   45.9540 N   0  0  0  0  0  0  0  0  0  0  0  0
   58.2300   26.9880   45.3770 C   0  0  0  0  0  0  0  0  0  0  0  0
   59.4720   27.0130   45.1680 O   0  0  0  0  0  0  0  0  0  0  0  0
   58.0050   31.7110   44.4730 C   0  0  0  0  0  0  0  0  0  0  0  0
   58.2980   32.6170   45.4730 C   0  0  0  0  0  0  0  0  0  0  0  0
   58.1960   34.1040   45.3300 C   0  0  0  0  0  0  0  0  0  0  0  0
   58.6550   31.9700   46.6060 N   0  0  0  0  0  0  0  0  0  0  0  0
   59.0310   32.5940   47.8460 C   0  0  0  0  0  0  0  0  0  0  0  0
   59.9390   33.6620   47.8510 C   0  0  0  0  0  0  0  0  0  0  0  0
   60.2970   34.2730   49.0540 C   0  0  0  0  0  0  0  0  0  0  0  0
   59.7610   33.8170   50.2600 C   0  0  0  0  0  0  0  0  0  0  0  0
   58.8720   32.7300   50.2770 C   0  0  0  0  0  0  0  0  0  0  0  0
   58.3180   32.2910   51.5290 N   0  0  0  0  0  0  0  0  0  0  0  0
   57.6120   31.0530   51.7040 C   0  0  0  0  0  0  0  0  0  0  0  0
   57.7550   30.1220   50.8640 O   0  0  0  0  0  0  0  0  0  0  0  0
   56.8100   30.8170   52.9630 C   0  0  1  0  0  0  0  0  0  0  0  0
   55.2850   30.8150   52.7060 C   0  0  0  0  0  0  0  0  0  0  0  0
   54.7590   29.8290   53.5760 O   0  0  0  0  0  0  0  0  0  0  0  0
   55.7650   29.0500   54.1000 C   0  0  0  0  0  0  0  0  0  0  0  0
   55.5460   28.0750   54.8650 O   0  0  0  0  0  0  0  0  0  0  0  0
   57.1070   29.4690   53.6520 C   0  0  0  0  0  0  0  0  0  0  0  0
   58.4980   32.1330   49.0600 C   0  0  0  0  0  0  0  0  0  0  0  0
   59.1747   29.9545   48.2592 H   0  0  0  0  0  0  0  0  0  0  0  0
   58.7869   28.6215   46.9543 H   0  0  0  0  0  0  0  0  0  0  0  0
   58.3055   29.1954   43.3197 H   0  0  0  0  0  0  0  0  0  0  0  0
   57.6750   31.9453   43.4502 H   0  0  0  0  0  0  0  0  0  0  0  0
   58.1642   34.5669   46.3273 H   0  0  0  0  0  0  0  0  0  0  0  0
   59.0704   34.4802   44.7788 H   0  0  0  0  0  0  0  0  0  0  0  0
   57.2784   34.3573   44.7788 H   0  0  0  0  0  0  0  0  0  0  0  0
   60.3705   34.0195   46.9045 H   0  0  0  0  0  0  0  0  0  0  0  0
   61.0034   35.1162   49.0519 H   0  0  0  0  0  0  0  0  0  0  0  0
   60.0368   34.3123   51.2027 H   0  0  0  0  0  0  0  0  0  0  0  0
   58.4980   32.8740   52.3780 H   0  0  0  0  0  0  0  0  0  0  0  0
   57.1163   31.6546   53.6069 H   0  0  0  0  0  0  0  0  0  0  0  0
   54.8545   31.8007   52.9362 H   0  0  0  0  0  0  0  0  0  0  0  0
   55.0475   30.6010   51.6535 H   0  0  0  0  0  0  0  0  0  0  0  0
   57.7905   29.5980   54.5042 H   0  0  0  0  0  0  0  0  0  0  0  0
   57.6044   28.7374   52.9983 H   0  0  0  0  0  0  0  0  0  0  0  0
   57.7820   31.2980   49.0593 H   0  0  0  0  0  0  0  0  0  0  0  0
  1  2  2  0
  2  3  1  0
  3  4  2  3
  4  5  1  0
  5  6  2  0
  6  7  1  0
  6  8  1  0
  8  9  1  0
  9 10  2  0
  9 11  1  0
 11 12  1  0
 12 13  2  0
  3 14  1  0
 14 15  2  0
 15 16  1  0
 15 17  1  0
 17 18  1  0
 18 19  2  0
 19 20  1  0
 20 21  2  0
 21 22  1  0
 22 23  1  0
 23 24  1  0
 24 25  2  0
 24 26  1  0
 26 27  1  0
 27 28  1  0
 28 29  1  0
 29 30  2  0
 29 31  1  0
 22 32  2  0
 17  2  1  0
 32 18  1  0
 12  5  1  0
 31 26  1  0
  1 33  1  0
  1 34  1  0
  4 35  1  0
 14 36  1  0
 16 37  1  0
 16 38  1  0
 16 39  1  0
 19 40  1  0
 20 41  1  0
 21 42  1  0
 23 43  1  0
 26 44  1  1
 27 45  1  0
 27 46  1  0
 31 47  1  0
 31 48  1  0
 32 49  1  0
M  CHG  3   7  -1   8  -1  11  -1
M  END
>  <UniqueID>  (21) 
19

>  <SMILES>  (21) 
C=c1c(=Cc2c([O-])[n-]c(=O)[n-]c2=O)cc(C)n1-c1cccc(NC(=O)[C@H]2COC(=O)C2)c1

>  <Energy>  (21) 
110.16503973632811

>  <Genealogy>  (21) 
C=c1c(=Cc2c([O-])[n-]c(=O)[n-]c2=O)cc(C)n1-c1cccc(NC(=O)C2COC(=O)C2)c1 (protonated)
C=c1c(=Cc2c([O-])[n-]c(=O)[n-]c2=O)cc(C)n1-c1cccc(NC(=O)[C@H]2COC(=O)C2)c1 (chirality)
C=c1c(=Cc2c([O-])[n-]c(=O)[n-]c2=O)cc(C)n1-c1cccc(NC(=O)[C@H]2COC(=O)C2)c1 (3D coordinates assigned)
C=c1c(=Cc2c([O-])[n-]c(=O)[n-]c2=O)cc(C)n1-c1cccc(NC(=O)[C@H]2COC(=O)C2)c1 (nonaromatic ring conformer: 110.16503973632811 kcal/mol)

>  <smiles>  (21) 
C=c1c(=Cc2c(O)[nH]c(=O)[nH]c2=O)cc(C)n1-c1cccc(NC(=O)C2COC(=O)C2)c1

>  <score_type>  (21) 
oracle

>  <origin>  (21) 
adg

>  <m_score__min__energy>  (21) 
-16.73

>  <m_primary>  (21) 
energy

$$$$
21:0
     RDKit          3D

 54 56  0  0  0  0  0  0  0  0999 V2000
   57.5020   20.7280   43.2910 N   0  0  0  0  0  0  0  0  0  0  0  0
   57.0370   22.0840   43.3470 C   0  0  0  0  0  0  0  0  0  0  0  0
   56.6400   22.6700   42.2550 N   0  0  0  0  0  0  0  0  0  0  0  0
   57.0360   22.8160   44.6400 C   0  0  0  0  0  0  0  0  0  0  0  0
   57.3700   22.1450   45.8300 C   0  0  0  0  0  0  0  0  0  0  0  0
   57.3860   22.8300   47.0460 C   0  0  0  0  0  0  0  0  0  0  0  0
   57.0630   24.1890   47.0940 C   0  0  0  0  0  0  0  0  0  0  0  0
   56.7040   24.8760   45.9200 C   0  0  0  0  0  0  0  0  0  0  0  0
   56.3580   26.3160   45.9680 C   0  0  0  0  0  0  0  0  0  0  0  0
   55.1470   26.6670   45.9960 O   0  0  0  0  0  0  0  0  0  0  0  0
   57.3790   27.3240   46.0040 N   0  0  0  0  0  0  0  0  0  0  0  0
   58.3180   27.3610   47.1350 C   0  0  0  0  0  0  0  0  0  0  0  0
   59.3920   28.4430   46.9440 C   0  0  0  0  0  0  0  0  0  0  0  0
   58.7870   29.7270   46.5530 N   0  0  0  0  0  0  0  0  0  0  0  0
   59.4830   30.9540   46.8690 C   0  0  0  0  0  0  0  0  0  0  0  0
   60.7050   30.9150   47.1860 O   0  0  0  0  0  0  0  0  0  0  0  0
   58.8010   32.2980   46.8110 C   0  0  0  0  0  0  0  0  0  0  0  0
   59.4670   33.2460   45.8020 C   0  0  0  0  0  0  0  0  0  0  0  0
   60.3050   34.3040   46.4900 C   0  0  0  0  0  0  0  0  0  0  0  0
   59.9660   35.5120   46.3250 O   0  0  0  0  0  0  0  0  0  0  0  0
   61.5040   33.9900   47.3300 C   0  0  0  0  0  0  0  0  0  0  0  0
   62.6770   33.5110   46.7100 C   0  0  0  0  0  0  0  0  0  0  0  0
   63.8020   33.1740   47.4730 C   0  0  0  0  0  0  0  0  0  0  0  0
   63.7800   33.3170   48.8630 C   0  0  0  0  0  0  0  0  0  0  0  0
   62.6360   33.8070   49.4910 C   0  0  0  0  0  0  0  0  0  0  0  0
   61.5070   34.1460   48.7340 C   0  0  0  0  0  0  0  0  0  0  0  0
   57.6280   29.7440   45.6390 C   0  0  0  0  0  0  0  0  0  0  0  0
   57.4000   28.3780   44.9830 C   0  0  0  0  0  0  0  0  0  0  0  0
   56.7010   24.1830   44.6960 C   0  0  0  0  0  0  0  0  0  0  0  0
   57.5210   20.2080   42.3840 H   0  0  0  0  0  0  0  0  0  0  0  0
   57.7750   20.2140   44.1570 H   0  0  0  0  0  0  0  0  0  0  0  0
   56.3130   23.6620   42.2740 H   0  0  0  0  0  0  0  0  0  0  0  0
   56.6090   22.1690   41.3390 H   0  0  0  0  0  0  0  0  0  0  0  0
   57.6201   21.0742   45.8023 H   0  0  0  0  0  0  0  0  0  0  0  0
   57.6540   22.2979   47.9707 H   0  0  0  0  0  0  0  0  0  0  0  0
   57.0896   24.7241   48.0547 H   0  0  0  0  0  0  0  0  0  0  0  0
   57.7575   27.5734   48.0574 H   0  0  0  0  0  0  0  0  0  0  0  0
   58.8208   26.3846   47.1965 H   0  0  0  0  0  0  0  0  0  0  0  0
   59.9394   28.5766   47.8887 H   0  0  0  0  0  0  0  0  0  0  0  0
   60.0746   28.1204   46.1440 H   0  0  0  0  0  0  0  0  0  0  0  0
   57.7513   32.1498   46.5176 H   0  0  0  0  0  0  0  0  0  0  0  0
   58.8783   32.7581   47.8071 H   0  0  0  0  0  0  0  0  0  0  0  0
   60.1143   32.6578   45.1349 H   0  0  0  0  0  0  0  0  0  0  0  0
   58.6726   33.7547   45.2361 H   0  0  0  0  0  0  0  0  0  0  0  0
   62.7084   33.4010   45.6160 H   0  0  0  0  0  0  0  0  0  0  0  0
   64.7071   32.7950   46.9759 H   0  0  0  0  0  0  0  0  0  0  0  0
   64.6627   33.0437   49.4597 H   0  0  0  0  0  0  0  0  0  0  0  0
   62.6197   33.9278   50.5842 H   0  0  0  0  0  0  0  0  0  0  0  0
   60.6120   34.5384   49.2390 H   0  0  0  0  0  0  0  0  0  0  0  0
   56.7287   30.0195   46.2095 H   0  0  0  0  0  0  0  0  0  0  0  0
   57.8311   30.4757   44.8431 H   0  0  0  0  0  0  0  0  0  0  0  0
   56.4380   28.3868   44.4497 H   0  0  0  0  0  0  0  0  0  0  0  0
   58.2187   28.1775   44.2762 H   0  0  0  0  0  0  0  0  0  0  0  0
   56.4338   24.7151   43.7711 H   0  0  0  0  0  0  0  0  0  0  0  0
  1  2  1  0
  2  3  2  0
  2  4  1  0
  4  5  2  0
  5  6  1  0
  6  7  2  0
  7  8  1  0
  8  9  1  0
  9 10  2  0
  9 11  1  0
 11 12  1  0
 12 13  1  0
 13 14  1  0
 14 15  1  0
 15 16  2  0
 15 17  1  0
 17 18  1  0
 18 19  1  0
 19 20  2  0
 19 21  1  0
 21 22  2  0
 22 23  1  0
 23 24  2  0
 24 25  1  0
 25 26  2  0
 14 27  1  0
 27 28  1  0
  8 29  2  0
 29  4  1  0
 28 11  1  0
 26 21  1  0
  1 30  1  0
  1 31  1  0
  3 32  1  0
  3 33  1  0
  5 34  1  0
  6 35  1  0
  7 36  1  0
 12 37  1  0
 12 38  1  0
 13 39  1  0
 13 40  1  0
 17 41  1  0
 17 42  1  0
 18 43  1  0
 18 44  1  0
 22 45  1  0
 23 46  1  0
 24 47  1  0
 25 48  1  0
 26 49  1  0
 27 50  1  0
 27 51  1  0
 28 52  1  0
 28 53  1  0
 29 54  1  0
M  CHG  1   3   1
M  END
>  <UniqueID>  (22) 
20

>  <SMILES>  (22) 
NC(=[NH2+])c1cccc(C(=O)N2CCN(C(=O)CCC(=O)c3ccccc3)CC2)c1

>  <Energy>  (22) 
64.66190557278058

>  <Genealogy>  (22) 
NC(=[NH2+])c1cccc(C(=O)N2CCN(C(=O)CCC(=O)c3ccccc3)CC2)c1 (protonated)
NC(=[NH2+])c1cccc(C(=O)N2CCN(C(=O)CCC(=O)c3ccccc3)CC2)c1 (3D coordinates assigned)
NC(=[NH2+])c1cccc(C(=O)N2CCN(C(=O)CCC(=O)c3ccccc3)CC2)c1 (nonaromatic ring conformer: 64.66190557278058 kcal/mol)

>  <smiles>  (22) 
N=C(N)c1cccc(C(=O)N2CCN(C(=O)CCC(=O)c3ccccc3)CC2)c1

>  <score_type>  (22) 
oracle

>  <origin>  (22) 
adg

>  <m_score__min__energy>  (22) 
-8.5899999999999999

>  <m_primary>  (22) 
energy

$$$$
22:0
     RDKit          3D

 59 62  0  0  0  0  0  0  0  0999 V2000
   57.3488   30.8983   41.6111 H   0  0  0  0  0  0  0  0  0  0  0  0
   57.5090   31.8010   42.2190 C   0  0  0  0  0  0  0  0  0  0  0  0
   57.4416   32.7959   41.7546 H   0  0  0  0  0  0  0  0  0  0  0  0
   57.7880   31.6880   43.5330 C   0  0  0  0  0  0  0  0  0  0  0  0
   57.9810   32.8750   44.2500 C   0  0  0  0  0  0  0  0  0  0  0  0
   57.6899   33.8335   43.7955 H   0  0  0  0  0  0  0  0  0  0  0  0
   58.5360   32.8650   45.5310 C   0  0  0  0  0  0  0  0  0  0  0  0
   58.7370   34.1530   46.2530 C   0  0  0  0  0  0  0  0  0  0  0  0
   57.7710   34.9540   46.3910 O   0  0  0  0  0  0  0  0  0  0  0  0
   59.9890   34.4790   46.7900 O   0  0  0  0  0  0  0  0  0  0  0  0
   60.1760   34.9770   48.1140 C   0  0  0  0  0  0  0  0  0  0  0  0
   60.4549   36.0398   48.0617 H   0  0  0  0  0  0  0  0  0  0  0  0
   59.2356   34.8501   48.6703 H   0  0  0  0  0  0  0  0  0  0  0  0
   61.2870   34.2010   48.8490 C   0  0  2  0  0  0  0  0  0  0  0  0
   61.8349   34.9070   49.4904 H   0  0  0  0  0  0  0  0  0  0  0  0
   62.3260   33.6100   47.8610 C   0  0  0  0  0  0  0  0  0  0  0  0
   62.2767   34.1673   46.9139 H   0  0  0  0  0  0  0  0  0  0  0  0
   63.3243   33.6986   48.3143 H   0  0  0  0  0  0  0  0  0  0  0  0
   62.0520   32.1260   47.5820 C   0  0  0  0  0  0  0  0  0  0  0  0
   61.0397   32.0233   47.1640 H   0  0  0  0  0  0  0  0  0  0  0  0
   62.8112   31.7656   46.8723 H   0  0  0  0  0  0  0  0  0  0  0  0
   62.1480   31.3050   48.8180 N   0  0  2  0  0  0  0  0  0  0  0  0
   63.1590   31.0600   48.9560 H   0  0  0  0  0  0  0  0  0  0  0  0
   61.4260   30.0340   48.6330 C   0  0  0  0  0  0  0  0  0  0  0  0
   61.1820   29.6045   49.6158 H   0  0  0  0  0  0  0  0  0  0  0  0
   60.4975   30.2179   48.0725 H   0  0  0  0  0  0  0  0  0  0  0  0
   62.0594   29.3307   48.0725 H   0  0  0  0  0  0  0  0  0  0  0  0
   61.6870   32.0050   50.0510 C   0  0  0  0  0  0  0  0  0  0  0  0
   61.2221   31.2679   50.7222 H   0  0  0  0  0  0  0  0  0  0  0  0
   62.5652   32.4775   50.5152 H   0  0  0  0  0  0  0  0  0  0  0  0
   60.6660   33.1110   49.7520 C   0  0  0  0  0  0  0  0  0  0  0  0
   59.7970   32.6711   49.2408 H   0  0  0  0  0  0  0  0  0  0  0  0
   60.3580   33.5729   50.7016 H   0  0  0  0  0  0  0  0  0  0  0  0
   58.9320   31.6320   46.0760 C   0  0  0  0  0  0  0  0  0  0  0  0
   59.5170   31.6050   47.1960 O   0  0  0  0  0  0  0  0  0  0  0  0
   58.6860   30.4550   45.4090 N   0  0  0  0  0  0  0  0  0  0  0  0
   59.1110   29.2330   46.0510 C   0  0  0  0  0  0  0  0  0  0  0  0
   60.2650   28.5700   45.6100 C   0  0  0  0  0  0  0  0  0  0  0  0
   60.8492   28.9825   44.7742 H   0  0  0  0  0  0  0  0  0  0  0  0
   60.6750   27.3860   46.2300 C   0  0  0  0  0  0  0  0  0  0  0  0
   61.5797   26.8670   45.8804 H   0  0  0  0  0  0  0  0  0  0  0  0
   59.9350   26.8610   47.2950 C   0  0  0  0  0  0  0  0  0  0  0  0
   60.3350   25.7120   47.8960 F   0  0  0  0  0  0  0  0  0  0  0  0
   58.7850   27.5190   47.7390 C   0  0  0  0  0  0  0  0  0  0  0  0
   58.2046   27.1054   48.5769 H   0  0  0  0  0  0  0  0  0  0  0  0
   58.3710   28.7020   47.1200 C   0  0  0  0  0  0  0  0  0  0  0  0
   57.4647   29.2175   47.4705 H   0  0  0  0  0  0  0  0  0  0  0  0
   58.0170   30.4390   44.1940 C   0  0  0  0  0  0  0  0  0  0  0  0
   57.5620   29.2480   43.6940 C   0  0  0  0  0  0  0  0  0  0  0  0
   57.5573   29.1368   42.5996 H   0  0  0  0  0  0  0  0  0  0  0  0
   57.0750   28.0940   44.4880 C   0  0  0  0  0  0  0  0  0  0  0  0
   55.8950   28.1640   45.2500 C   0  0  0  0  0  0  0  0  0  0  0  0
   55.1340   29.3280   45.2800 O   0  0  0  0  0  0  0  0  0  0  0  0
   55.4960   27.0930   45.9820 N   0  0  0  0  0  0  0  0  0  0  0  0
   56.2280   25.9510   46.0110 C   0  0  0  0  0  0  0  0  0  0  0  0
   55.8350   24.9690   46.6910 O   0  0  0  0  0  0  0  0  0  0  0  0
   57.3890   25.8690   45.3120 N   0  0  0  0  0  0  0  0  0  0  0  0
   57.8320   26.9110   44.5630 C   0  0  0  0  0  0  0  0  0  0  0  0
   58.9180   26.8030   43.9320 O   0  0  0  0  0  0  0  0  0  0  0  0
  1  2  1  0
  2  3  1  0
  2  4  2  0
  4  5  1  0
  5  6  1  0
  5  7  2  0
  7  8  1  0
  8  9  2  0
  8 10  1  0
 10 11  1  0
 11 12  1  0
 11 13  1  0
 11 14  1  0
 14 15  1  6
 14 16  1  0
 16 17  1  0
 16 18  1  0
 16 19  1  0
 19 20  1  0
 19 21  1  0
 19 22  1  0
 22 23  1  6
 22 24  1  0
 24 25  1  0
 24 26  1  0
 24 27  1  0
 22 28  1  0
 28 29  1  0
 28 30  1  0
 28 31  1  0
 31 32  1  0
 31 33  1  0
  7 34  1  0
 34 35  2  0
 34 36  1  0
 36 37  1  0
 37 38  2  0
 38 39  1  0
 38 40  1  0
 40 41  1  0
 40 42  2  0
 42 43  1  0
 42 44  1  0
 44 45  1  0
 44 46  2  0
 46 47  1  0
 36 48  1  0
 48 49  2  0
 49 50  1  0
 49 51  1  0
 51 52  2  0
 52 53  1  0
 52 54  1  0
 54 55  1  0
 55 56  2  0
 55 57  1  0
 57 58  1  0
 58 59  2  0
 48  4  1  0
 58 51  1  0
 31 14  1  0
 46 37  1  0
M  CHG  4  22   1  53  -1  54  -1  57  -1
M  END
>  <UniqueID>  (23) 
21

>  <SMILES>  (23) 
C=c1cc(C(=O)OCC2CC[NH+](C)CC2)c(=O)n(-c2ccc(F)cc2)/c1=C/c1c([O-])[n-]c(=O)[n-]c1=O

>  <Energy>  (23) 
109.93935546027629

>  <Genealogy>  (23) 
C=c1cc(C(=O)OCC2CC[NH+](C)CC2)c(=O)n(-c2ccc(F)cc2)c1=Cc1c([O-])[n-]c(=O)[n-]c1=O (protonated)
C=c1cc(C(=O)OCC2CC[NH+](C)CC2)c(=O)n(-c2ccc(F)cc2)/c1=C/c1c([O-])[n-]c(=O)[n-]c1=O (cis-trans isomerization)
C=c1cc(C(=O)OCC2CC[NH+](C)CC2)c(=O)n(-c2ccc(F)cc2)/c1=C/c1c([O-])[n-]c(=O)[n-]c1=O (3D coordinates assigned)
C=c1cc(C(=O)OCC2CC[NH+](C)CC2)c(=O)n(-c2ccc(F)cc2)/c1=C/c1c([O-])[n-]c(=O)[n-]c1=O (nonaromatic ring conformer: 109.93935546027629 kcal/mol)

>  <smiles>  (23) 
C=c1cc(C(=O)OCC2CCN(C)CC2)c(=O)n(-c2ccc(F)cc2)c1=Cc1c(O)[nH]c(=O)[nH]c1=O

>  <score_type>  (23) 
oracle

>  <origin>  (23) 
adg

>  <m_score__min__energy>  (23) 
-15.01

>  <m_primary>  (23) 
energy

$$$$
23:0
     RDKit          3D

 55 59  0  0  0  0  0  0  0  0999 V2000
   59.3369   27.0859   48.9756 H   0  0  0  0  0  0  0  0  0  0  0  0
   59.4180   28.1230   48.6180 C   0  0  0  0  0  0  0  0  0  0  0  0
   59.6960   29.0810   49.5280 C   0  0  0  0  0  0  0  0  0  0  0  0
   60.9950   29.1790   50.2540 C   0  0  0  0  0  0  0  0  0  0  0  0
   61.8680   28.2730   50.1640 O   0  0  0  0  0  0  0  0  0  0  0  0
   61.2970   30.4010   51.0850 C   0  0  1  0  0  0  0  0  0  0  0  0
   62.0190   30.0910   52.2000 O   0  0  0  0  0  0  0  0  0  0  0  0
   63.0540   30.8890   51.6640 N   0  0  0  0  0  0  0  0  0  0  0  0
   62.3730   31.1820   50.5580 C   0  0  0  0  0  0  0  0  0  0  0  0
   62.6580   31.9730   49.3490 C   0  0  0  0  0  0  0  0  0  0  0  0
   63.8460   32.7180   49.2730 C   0  0  0  0  0  0  0  0  0  0  0  0
   64.5524   32.7108   50.1162 H   0  0  0  0  0  0  0  0  0  0  0  0
   64.1340   33.4690   48.1290 C   0  0  0  0  0  0  0  0  0  0  0  0
   65.0653   34.0519   48.0748 H   0  0  0  0  0  0  0  0  0  0  0  0
   63.2400   33.4800   47.0540 C   0  0  0  0  0  0  0  0  0  0  0  0
   63.4662   34.0739   46.1561 H   0  0  0  0  0  0  0  0  0  0  0  0
   62.0590   32.7360   47.1210 C   0  0  0  0  0  0  0  0  0  0  0  0
   61.3569   32.7432   46.2743 H   0  0  0  0  0  0  0  0  0  0  0  0
   61.7680   31.9820   48.2630 C   0  0  0  0  0  0  0  0  0  0  0  0
   60.8392   31.3945   48.3103 H   0  0  0  0  0  0  0  0  0  0  0  0
   60.0480   31.2200   51.4540 C   0  0  0  0  0  0  0  0  0  0  0  0
   59.4951   30.7005   52.2505 H   0  0  0  0  0  0  0  0  0  0  0  0
   60.3614   32.2153   51.8020 H   0  0  0  0  0  0  0  0  0  0  0  0
   59.1750   31.3750   50.2770 N   0  0  0  0  0  0  0  0  0  0  0  0
   58.0920   32.3240   50.5760 C   0  0  0  0  0  0  0  0  0  0  0  0
   57.9806   32.4216   51.6660 H   0  0  0  0  0  0  0  0  0  0  0  0
   58.3346   33.3056   50.1428 H   0  0  0  0  0  0  0  0  0  0  0  0
   57.1508   31.9546   50.1428 H   0  0  0  0  0  0  0  0  0  0  0  0
   58.6070   30.0700   49.8840 C   0  0  0  0  0  0  0  0  0  0  0  0
   58.0183   29.6685   50.7220 H   0  0  0  0  0  0  0  0  0  0  0  0
   57.9716   30.2203   48.9987 H   0  0  0  0  0  0  0  0  0  0  0  0
   59.2160   28.3690   47.1820 C   0  0  0  0  0  0  0  0  0  0  0  0
   60.1830   27.9510   46.2620 C   0  0  0  0  0  0  0  0  0  0  0  0
   61.0863   27.4299   46.6121 H   0  0  0  0  0  0  0  0  0  0  0  0
   60.0020   28.1950   44.9000 C   0  0  0  0  0  0  0  0  0  0  0  0
   60.7627   27.8627   44.1782 H   0  0  0  0  0  0  0  0  0  0  0  0
   58.8580   28.8600   44.4490 C   0  0  0  0  0  0  0  0  0  0  0  0
   58.7211   29.0438   43.3731 H   0  0  0  0  0  0  0  0  0  0  0  0
   57.8800   29.2960   45.3630 C   0  0  0  0  0  0  0  0  0  0  0  0
   56.6590   29.9870   44.8880 C   0  0  0  0  0  0  0  0  0  0  0  0
   55.5740   29.3500   44.7960 O   0  0  0  0  0  0  0  0  0  0  0  0
   56.6940   31.3990   44.6210 N   0  0  0  0  0  0  0  0  0  0  0  0
   57.4420   32.3110   45.1800 C   0  0  0  0  0  0  0  0  0  0  0  0
   57.8400   33.4090   44.4060 C   0  0  0  0  0  0  0  0  0  0  0  0
   57.5257   33.4860   43.3547 H   0  0  0  0  0  0  0  0  0  0  0  0
   58.6360   34.4040   44.9730 C   0  0  0  0  0  0  0  0  0  0  0  0
   58.9591   35.2637   44.3675 H   0  0  0  0  0  0  0  0  0  0  0  0
   59.0210   34.3060   46.3090 C   0  0  0  0  0  0  0  0  0  0  0  0
   59.6562   35.0810   46.7627 H   0  0  0  0  0  0  0  0  0  0  0  0
   58.5920   33.2140   47.0650 C   0  0  0  0  0  0  0  0  0  0  0  0
   58.8845   33.1320   48.1222 H   0  0  0  0  0  0  0  0  0  0  0  0
   57.8130   32.2490   46.5010 N   0  0  0  0  0  0  0  0  0  0  0  0
   57.4810   31.4870   47.1290 H   0  0  0  0  0  0  0  0  0  0  0  0
   58.0740   29.0510   46.7360 C   0  0  0  0  0  0  0  0  0  0  0  0
   57.3251   29.3967   47.4638 H   0  0  0  0  0  0  0  0  0  0  0  0
  1  2  1  0
  2  3  2  3
  3  4  1  0
  4  5  2  0
  4  6  1  0
  6  7  1  1
  7  8  1  0
  8  9  2  0
  9 10  1  0
 10 11  2  0
 11 12  1  0
 11 13  1  0
 13 14  1  0
 13 15  2  0
 15 16  1  0
 15 17  1  0
 17 18  1  0
 17 19  2  0
 19 20  1  0
  6 21  1  0
 21 22  1  0
 21 23  1  0
 21 24  1  0
 24 25  1  0
 25 26  1  0
 25 27  1  0
 25 28  1  0
 24 29  1  0
 29 30  1  0
 29 31  1  0
  2 32  1  0
 32 33  2  0
 33 34  1  0
 33 35  1  0
 35 36  1  0
 35 37  2  0
 37 38  1  0
 37 39  1  0
 39 40  1  0
 40 41  2  0
 40 42  1  0
 42 43  2  0
 43 44  1  0
 44 45  1  0
 44 46  2  0
 46 47  1  0
 46 48  1  0
 48 49  1  0
 48 50  2  0
 50 51  1  0
 50 52  1  0
 52 53  1  0
 39 54  2  0
 54 55  1  0
 29  3  1  0
 54 32  1  0
  9  6  1  0
 19 10  1  0
 52 43  1  0
M  END
>  <UniqueID>  (24) 
22

>  <SMILES>  (24) 
CN1CC(=Cc2cccc(C(=O)/N=c3/cccc[nH]3)c2)C(=O)[C@@]2(C1)ON=C2c1ccccc1

>  <Energy>  (24) 
102.83973725264794

>  <Genealogy>  (24) 
CN1CC(=Cc2cccc(C(=O)N=c3cccc[nH]3)c2)C(=O)[C@@]2(C1)ON=C2c1ccccc1 (chirality)
CN1CC(=Cc2cccc(C(=O)/N=c3/cccc[nH]3)c2)C(=O)[C@@]2(C1)ON=C2c1ccccc1 (cis-trans isomerization)
CN1CC(=Cc2cccc(C(=O)/N=c3/cccc[nH]3)c2)C(=O)[C@@]2(C1)ON=C2c1ccccc1 (3D coordinates assigned)
CN1CC(=Cc2cccc(C(=O)/N=c3/cccc[nH]3)c2)C(=O)[C@@]2(C1)ON=C2c1ccccc1 (nonaromatic ring conformer: 102.83973725264794 kcal/mol)

>  <smiles>  (24) 
CN1CC(=Cc2cccc(C(=O)N=c3cccc[nH]3)c2)C(=O)C2(C1)ON=C2c1ccccc1

>  <score_type>  (24) 
oracle

>  <origin>  (24) 
adg

>  <m_score__min__energy>  (24) 
-10.85

>  <m_primary>  (24) 
energy

$$$$
24:0
     RDKit          3D

 34 36  0  0  0  0  0  0  0  0999 V2000
   54.9180   26.3960   45.9870 N   0  0  0  0  0  0  0  0  0  0  0  0
   56.3960   25.5340   46.2330 S   0  0  0  0  0  0  0  0  0  0  0  0
   56.6410   24.6210   45.0640 O   0  0  0  0  0  0  0  0  0  0  0  0
   56.2920   24.7020   47.4800 O   0  0  0  0  0  0  0  0  0  0  0  0
   57.7240   26.6800   46.3920 C   0  0  0  0  0  0  0  0  0  0  0  0
   58.9610   26.2610   46.8960 C   0  0  0  0  0  0  0  0  0  0  0  0
   60.0120   27.1710   47.0170 C   0  0  0  0  0  0  0  0  0  0  0  0
   59.8370   28.5020   46.6290 C   0  0  0  0  0  0  0  0  0  0  0  0
   58.6060   28.9400   46.1070 C   0  0  0  0  0  0  0  0  0  0  0  0
   58.4430   30.3590   45.6960 C   0  0  0  0  0  0  0  0  0  0  0  0
   57.6610   30.7870   44.6180 C   0  0  0  0  0  0  0  0  0  0  0  0
   57.7810   32.4610   44.5190 S   0  0  0  0  0  0  0  0  0  0  0  0
   58.8230   32.5800   45.8310 C   0  0  0  0  0  0  0  0  0  0  0  0
   59.3540   33.8420   46.3750 C   0  0  0  0  0  0  0  0  0  0  0  0
   58.8740   34.9340   45.9670 O   0  0  0  0  0  0  0  0  0  0  0  0
   60.4060   33.8630   47.4150 C   0  0  0  0  0  0  0  0  0  0  0  0
   60.0370   33.9520   48.7680 C   0  0  0  0  0  0  0  0  0  0  0  0
   61.0140   33.9700   49.7690 C   0  0  0  0  0  0  0  0  0  0  0  0
   62.3670   33.9130   49.4280 C   0  0  0  0  0  0  0  0  0  0  0  0
   62.7470   33.8450   48.0860 C   0  0  0  0  0  0  0  0  0  0  0  0
   61.7750   33.8260   47.0780 C   0  0  0  0  0  0  0  0  0  0  0  0
   62.1760   33.8210   45.7820 F   0  0  0  0  0  0  0  0  0  0  0  0
   59.0780   31.3650   46.3610 N   0  0  0  0  0  0  0  0  0  0  0  0
   57.5500   28.0130   45.9950 C   0  0  0  0  0  0  0  0  0  0  0  0
   55.1430   27.4130   46.0570 H   0  0  0  0  0  0  0  0  0  0  0  0
   59.1047   25.2128   47.1971 H   0  0  0  0  0  0  0  0  0  0  0  0
   60.9809   26.8397   47.4189 H   0  0  0  0  0  0  0  0  0  0  0  0
   60.6692   29.2138   46.7326 H   0  0  0  0  0  0  0  0  0  0  0  0
   57.0706   30.1411   43.9515 H   0  0  0  0  0  0  0  0  0  0  0  0
   58.9731   34.0079   49.0417 H   0  0  0  0  0  0  0  0  0  0  0  0
   60.7161   34.0291   50.8262 H   0  0  0  0  0  0  0  0  0  0  0  0
   63.1337   33.9217   50.2168 H   0  0  0  0  0  0  0  0  0  0  0  0
   63.8136   33.8062   47.8197 H   0  0  0  0  0  0  0  0  0  0  0  0
   56.5797   28.3389   45.5920 H   0  0  0  0  0  0  0  0  0  0  0  0
  1  2  1  0
  2  3  2  0
  2  4  2  0
  2  5  1  0
  5  6  2  0
  6  7  1  0
  7  8  2  0
  8  9  1  0
  9 10  1  0
 10 11  2  0
 11 12  1  0
 12 13  1  0
 13 14  1  0
 14 15  2  0
 14 16  1  0
 16 17  2  0
 17 18  1  0
 18 19  2  0
 19 20  1  0
 20 21  2  0
 21 22  1  0
 13 23  2  0
  9 24  2  0
 24  5  1  0
 23 10  1  0
 21 16  1  0
  1 25  1  0
  6 26  1  0
  7 27  1  0
  8 28  1  0
 11 29  1  0
 17 30  1  0
 18 31  1  0
 19 32  1  0
 20 33  1  0
 24 34  1  0
M  CHG  1   1  -1
M  END
>  <UniqueID>  (25) 
23

>  <SMILES>  (25) 
[NH-]S(=O)(=O)c1cccc(-c2csc(C(=O)c3ccccc3F)n2)c1

>  <Energy>  (25) 
72.79899747693247

>  <Genealogy>  (25) 
[NH-]S(=O)(=O)c1cccc(-c2csc(C(=O)c3ccccc3F)n2)c1 (protonated)
[NH-]S(=O)(=O)c1cccc(-c2csc(C(=O)c3ccccc3F)n2)c1 (3D coordinates assigned)
[NH-]S(=O)(=O)c1cccc(-c2csc(C(=O)c3ccccc3F)n2)c1 (optimized conformer: 72.79899747693247 kcal/mol)

>  <smiles>  (25) 
NS(=O)(=O)c1cccc(-c2csc(C(=O)c3ccccc3F)n2)c1

>  <score_type>  (25) 
oracle

>  <origin>  (25) 
adg

>  <m_score__min__energy>  (25) 
-11.57

>  <m_primary>  (25) 
energy

$$$$
25:0
     RDKit          3D

 47 50  0  0  0  0  0  0  0  0999 V2000
   61.2000   30.9480   48.5390 C   0  0  0  0  0  0  0  0  0  0  0  0
   60.3670   31.6660   47.7700 C   0  0  0  0  0  0  0  0  0  0  0  0
   59.7970   32.8320   48.1640 N   0  0  0  0  0  0  0  0  0  0  0  0
   60.0100   33.5800   49.4090 C   0  0  0  0  0  0  0  0  0  0  0  0
   59.0810   33.0860   50.4730 C   0  0  0  0  0  0  0  0  0  0  0  0
   58.2690   31.9630   50.3920 C   0  0  0  0  0  0  0  0  0  0  0  0
   57.5300   31.7330   51.5600 C   0  0  0  0  0  0  0  0  0  0  0  0
   57.7610   32.6690   52.5590 C   0  0  0  0  0  0  0  0  0  0  0  0
   58.8850   33.7830   51.9910 S   0  0  0  0  0  0  0  0  0  0  0  0
   59.0550   33.2320   47.1150 C   0  0  0  0  0  0  0  0  0  0  0  0
   58.4390   34.3300   47.0800 O   0  0  0  0  0  0  0  0  0  0  0  0
   59.1410   32.2970   46.0910 C   0  0  0  0  0  0  0  0  0  0  0  0
   58.5340   32.3380   44.8830 C   0  0  0  0  0  0  0  0  0  0  0  0
   57.4550   31.4380   44.4350 C   0  0  0  0  0  0  0  0  0  0  0  0
   56.7420   30.6220   45.2330 N   0  0  0  0  0  0  0  0  0  0  0  0
   55.9820   29.9180   44.3660 C   0  0  0  0  0  0  0  0  0  0  0  0
   55.1590   29.0440   44.7410 O   0  0  0  0  0  0  0  0  0  0  0  0
   56.1840   30.2170   43.0650 N   0  0  0  0  0  0  0  0  0  0  0  0
   57.1280   31.1720   43.1270 C   0  0  0  0  0  0  0  0  0  0  0  0
   57.6860   31.7850   42.0100 O   0  0  0  0  0  0  0  0  0  0  0  0
   59.9960   31.3180   46.5030 N   0  0  0  0  0  0  0  0  0  0  0  0
   60.3780   30.0860   45.7870 C   0  0  0  0  0  0  0  0  0  0  0  0
   59.7050   28.8850   46.4040 C   0  0  0  0  0  0  0  0  0  0  0  0
   60.1040   28.4150   47.6640 C   0  0  0  0  0  0  0  0  0  0  0  0
   59.4730   27.3100   48.2360 C   0  0  0  0  0  0  0  0  0  0  0  0
   58.4390   26.6610   47.5570 C   0  0  0  0  0  0  0  0  0  0  0  0
   58.0270   27.1110   46.2900 C   0  0  0  0  0  0  0  0  0  0  0  0
   56.9300   26.4230   45.5680 C   0  0  0  0  0  0  0  0  0  0  0  0
   55.5830   26.5270   46.0260 N   0  0  0  0  0  0  0  0  0  0  0  0
   57.1780   25.7360   44.5400 O   0  0  0  0  0  0  0  0  0  0  0  0
   58.6710   28.2240   45.7200 C   0  0  0  0  0  0  0  0  0  0  0  0
   61.6285   30.0093   48.1581 H   0  0  0  0  0  0  0  0  0  0  0  0
   61.4543   31.2982   49.5503 H   0  0  0  0  0  0  0  0  0  0  0  0
   61.0495   33.4433   49.7419 H   0  0  0  0  0  0  0  0  0  0  0  0
   59.8119   34.6464   49.2258 H   0  0  0  0  0  0  0  0  0  0  0  0
   58.2116   31.3194   49.5018 H   0  0  0  0  0  0  0  0  0  0  0  0
   56.8325   30.8902   51.6746 H   0  0  0  0  0  0  0  0  0  0  0  0
   57.2892   32.6799   53.5526 H   0  0  0  0  0  0  0  0  0  0  0  0
   58.8740   33.1079   44.1747 H   0  0  0  0  0  0  0  0  0  0  0  0
   58.5310   31.4190   41.5880 H   0  0  0  0  0  0  0  0  0  0  0  0
   60.0728   30.1703   44.7336 H   0  0  0  0  0  0  0  0  0  0  0  0
   61.4682   29.9576   45.8573 H   0  0  0  0  0  0  0  0  0  0  0  0
   60.9185   28.9202   48.2038 H   0  0  0  0  0  0  0  0  0  0  0  0
   59.7908   26.9485   49.2251 H   0  0  0  0  0  0  0  0  0  0  0  0
   57.9440   25.7926   48.0162 H   0  0  0  0  0  0  0  0  0  0  0  0
   55.1420   27.4580   46.1880 H   0  0  0  0  0  0  0  0  0  0  0  0
   58.3614   28.5812   44.7268 H   0  0  0  0  0  0  0  0  0  0  0  0
  1  2  2  0
  2  3  1  0
  3  4  1  0
  4  5  1  0
  5  6  2  0
  6  7  1  0
  7  8  2  0
  8  9  1  0
  3 10  1  0
 10 11  2  0
 10 12  1  0
 12 13  2  3
 13 14  1  0
 14 15  1  0
 15 16  1  0
 16 17  2  0
 16 18  1  0
 18 19  1  0
 19 20  1  0
 12 21  1  0
 21 22  1  0
 22 23  1  0
 23 24  2  0
 24 25  1  0
 25 26  2  0
 26 27  1  0
 27 28  1  0
 28 29  1  0
 28 30  2  0
 27 31  2  0
 21  2  1  0
 31 23  1  0
  9  5  1  0
 19 14  2  0
  1 32  1  0
  1 33  1  0
  4 34  1  0
  4 35  1  0
  6 36  1  0
  7 37  1  0
  8 38  1  0
 13 39  1  0
 20 40  1  0
 22 41  1  0
 22 42  1  0
 24 43  1  0
 25 44  1  0
 26 45  1  0
 29 46  1  0
 31 47  1  0
M  CHG  3  15  -1  18  -1  29  -1
M  END
>  <UniqueID>  (26) 
24

>  <SMILES>  (26) 
C=c1n(Cc2cccs2)c(=O)c(=Cc2[n-]c(=O)[n-]c2O)n1Cc1cccc(C([NH-])=O)c1

>  <Energy>  (26) 
147.80052533277455

>  <Genealogy>  (26) 
C=c1n(Cc2cccs2)c(=O)c(=Cc2[n-]c(=O)[n-]c2O)n1Cc1cccc(C([NH-])=O)c1 (protonated)
C=c1n(Cc2cccs2)c(=O)c(=Cc2[n-]c(=O)[n-]c2O)n1Cc1cccc(C([NH-])=O)c1 (3D coordinates assigned)
C=c1n(Cc2cccs2)c(=O)c(=Cc2[n-]c(=O)[n-]c2O)n1Cc1cccc(C([NH-])=O)c1 (optimized conformer: 147.80052533277455 kcal/mol)

>  <smiles>  (26) 
C=c1n(Cc2cccs2)c(=O)c(=Cc2[nH]c(=O)[nH]c2O)n1Cc1cccc(C(N)=O)c1

>  <score_type>  (26) 
oracle

>  <origin>  (26) 
adg

>  <m_score__min__energy>  (26) 
-14.52

>  <m_primary>  (26) 
energy

$$$$
26:0
     RDKit          3D

 74 77  0  0  0  0  0  0  0  0999 V2000
   63.2040   34.2270   48.6700 C   0  0  0  0  0  0  0  0  0  0  0  0
   64.5920   33.1010   49.0250 S   0  0  0  0  0  0  0  0  0  0  0  0
   63.9420   32.6240   50.6230 C   0  0  0  0  0  0  0  0  0  0  0  0
   63.6610   33.4880   51.6720 C   0  0  0  0  0  0  0  0  0  0  0  0
   63.1220   32.8350   52.7870 C   0  0  0  0  0  0  0  0  0  0  0  0
   62.9930   31.4600   52.6090 C   0  0  0  0  0  0  0  0  0  0  0  0
   62.3400   30.5140   53.5660 C   0  0  0  0  0  0  0  0  0  0  0  0
   60.9380   30.2150   53.1080 C   0  0  0  0  0  0  0  0  0  0  0  0
   60.5720   28.9100   52.7450 C   0  0  0  0  0  0  0  0  0  0  0  0
   59.2900   28.6490   52.2520 C   0  0  0  0  0  0  0  0  0  0  0  0
   58.3600   29.6840   52.1170 C   0  0  0  0  0  0  0  0  0  0  0  0
   57.0850   29.3990   51.6350 O   0  0  0  0  0  0  0  0  0  0  0  0
   58.7110   30.9960   52.4850 C   0  0  0  0  0  0  0  0  0  0  0  0
   57.7470   32.1030   52.3600 C   0  0  0  0  0  0  0  0  0  0  0  0
   56.5630   31.9390   52.7640 O   0  0  0  0  0  0  0  0  0  0  0  0
   58.1230   33.3620   51.7850 N   0  0  0  0  0  0  0  0  0  0  0  0
   59.4520   33.9600   51.9040 C   0  0  0  0  0  0  0  0  0  0  0  0
   60.3740   33.4760   50.7780 C   0  0  0  0  0  0  0  0  0  0  0  0
   59.6790   33.5420   49.4430 C   0  0  0  0  0  0  0  0  0  0  0  0
   59.9940   34.5660   48.5370 C   0  0  0  0  0  0  0  0  0  0  0  0
   59.4030   34.5980   47.2710 C   0  0  0  0  0  0  0  0  0  0  0  0
   58.4970   33.5920   46.8830 C   0  0  0  0  0  0  0  0  0  0  0  0
   57.8790   33.6160   45.5370 C   0  0  0  0  0  0  0  0  0  0  0  0
   58.1610   34.5420   44.7250 O   0  0  0  0  0  0  0  0  0  0  0  0
   56.9580   32.5850   45.1580 N   0  0  0  0  0  0  0  0  0  0  0  0
   57.3420   31.2440   44.7250 C   0  0  0  0  0  0  0  0  0  0  0  0
   56.5660   30.7870   43.4790 C   0  0  0  0  0  0  0  0  0  0  0  0
   55.5020   29.7160   43.7630 C   0  0  0  0  0  0  0  0  0  0  0  0
   55.6690   29.1170   45.0830 N   0  0  0  0  0  0  0  0  0  0  0  0
   56.2680   27.8400   45.3160 C   0  0  0  0  0  0  0  0  0  0  0  0
   55.6430   26.9630   45.9680 O   0  0  0  0  0  0  0  0  0  0  0  0
   57.6290   27.5960   44.7920 C   0  0  0  0  0  0  0  0  0  0  0  0
   58.6880   28.4110   44.9250 C   0  0  0  0  0  0  0  0  0  0  0  0
   59.2740   28.8610   46.2020 C   0  0  0  0  0  0  0  0  0  0  0  0
   58.7200   28.4080   47.4080 C   0  0  0  0  0  0  0  0  0  0  0  0
   59.2420   28.8420   48.6310 C   0  0  0  0  0  0  0  0  0  0  0  0
   60.3080   29.7480   48.6600 C   0  0  0  0  0  0  0  0  0  0  0  0
   60.8060   30.1590   49.8550 F   0  0  0  0  0  0  0  0  0  0  0  0
   60.8410   30.2370   47.4580 C   0  0  0  0  0  0  0  0  0  0  0  0
   62.1610   31.4000   47.4770 Cl  0  0  0  0  0  0  0  0  0  0  0  0
   60.3160   29.8040   46.2320 C   0  0  0  0  0  0  0  0  0  0  0  0
   58.1880   32.5630   47.7940 C   0  0  0  0  0  0  0  0  0  0  0  0
   58.7710   32.5430   49.0650 C   0  0  0  0  0  0  0  0  0  0  0  0
   60.0040   31.2560   52.9670 C   0  0  0  0  0  0  0  0  0  0  0  0
   63.5220   31.0560   51.0610 S   0  0  0  0  0  0  0  0  0  0  0  0
   62.7678   34.5809   49.6158 H   0  0  0  0  0  0  0  0  0  0  0  0
   63.5690   35.0874   48.0900 H   0  0  0  0  0  0  0  0  0  0  0  0
   62.4373   33.6924   48.0900 H   0  0  0  0  0  0  0  0  0  0  0  0
   63.8427   34.5721   51.6317 H   0  0  0  0  0  0  0  0  0  0  0  0
   62.8298   33.3558   53.7108 H   0  0  0  0  0  0  0  0  0  0  0  0
   62.9181   29.5791   53.6075 H   0  0  0  0  0  0  0  0  0  0  0  0
   62.3063   30.9727   54.5652 H   0  0  0  0  0  0  0  0  0  0  0  0
   61.2967   28.0890   52.8487 H   0  0  0  0  0  0  0  0  0  0  0  0
   59.0115   27.6233   51.9687 H   0  0  0  0  0  0  0  0  0  0  0  0
   59.3604   35.0548   51.8486 H   0  0  0  0  0  0  0  0  0  0  0  0
   59.8874   33.6586   52.8681 H   0  0  0  0  0  0  0  0  0  0  0  0
   61.2703   34.1131   50.7485 H   0  0  0  0  0  0  0  0  0  0  0  0
   60.6501   32.4300   50.9773 H   0  0  0  0  0  0  0  0  0  0  0  0
   60.7110   35.3489   48.8251 H   0  0  0  0  0  0  0  0  0  0  0  0
   59.6467   35.4132   46.5739 H   0  0  0  0  0  0  0  0  0  0  0  0
   58.4171   31.2420   44.4923 H   0  0  0  0  0  0  0  0  0  0  0  0
   57.1058   30.5467   45.5423 H   0  0  0  0  0  0  0  0  0  0  0  0
   56.0659   31.6640   43.0421 H   0  0  0  0  0  0  0  0  0  0  0  0
   57.2995   30.3334   42.7961 H   0  0  0  0  0  0  0  0  0  0  0  0
   54.5065   30.1806   43.7071 H   0  0  0  0  0  0  0  0  0  0  0  0
   55.6119   28.9199   43.0119 H   0  0  0  0  0  0  0  0  0  0  0  0
   57.7893   26.6576   44.2408 H   0  0  0  0  0  0  0  0  0  0  0  0
   59.1600   28.7751   44.0005 H   0  0  0  0  0  0  0  0  0  0  0  0
   57.8713   27.7084   47.3922 H   0  0  0  0  0  0  0  0  0  0  0  0
   58.8131   28.4698   49.5731 H   0  0  0  0  0  0  0  0  0  0  0  0
   60.7209   30.2036   45.2905 H   0  0  0  0  0  0  0  0  0  0  0  0
   57.4833   31.7698   47.5037 H   0  0  0  0  0  0  0  0  0  0  0  0
   58.5159   31.7395   49.7716 H   0  0  0  0  0  0  0  0  0  0  0  0
   60.2886   32.2837   53.2367 H   0  0  0  0  0  0  0  0  0  0  0  0
  1  2  1  0
  2  3  1  0
  3  4  2  0
  4  5  1  0
  5  6  2  0
  6  7  1  0
  7  8  1  0
  8  9  2  0
  9 10  1  0
 10 11  2  0
 11 12  1  0
 11 13  1  0
 13 14  1  0
 14 15  2  0
 14 16  1  0
 16 17  1  0
 17 18  1  0
 18 19  1  0
 19 20  2  0
 20 21  1  0
 21 22  2  0
 22 23  1  0
 23 24  2  0
 23 25  1  0
 25 26  1  0
 26 27  1  0
 27 28  1  0
 28 29  1  0
 29 30  1  0
 30 31  2  0
 30 32  1  0
 32 33  2  3
 33 34  1  0
 34 35  2  0
 35 36  1  0
 36 37  2  0
 37 38  1  0
 37 39  1  0
 39 40  1  0
 39 41  2  0
 22 42  1  0
 42 43  2  0
 13 44  2  0
  6 45  1  0
 45  3  1  0
 44  8  1  0
 43 19  1  0
 41 34  1  0
  1 46  1  0
  1 47  1  0
  1 48  1  0
  4 49  1  0
  5 50  1  0
  7 51  1  0
  7 52  1  0
  9 53  1  0
 10 54  1  0
 17 55  1  0
 17 56  1  0
 18 57  1  0
 18 58  1  0
 20 59  1  0
 21 60  1  0
 26 61  1  0
 26 62  1  0
 27 63  1  0
 27 64  1  0
 28 65  1  0
 28 66  1  0
 32 67  1  0
 33 68  1  0
 35 69  1  0
 36 70  1  0
 41 71  1  0
 42 72  1  0
 43 73  1  0
 44 74  1  0
M  CHG  4  12  -1  16  -1  25  -1  29  -1
M  END
>  <UniqueID>  (27) 
25

>  <SMILES>  (27) 
CSc1ccc(Cc2ccc([O-])c(C(=O)[N-]CCc3ccc(C(=O)[N-]CCC[N-]C(=O)C=Cc4ccc(F)c(Cl)c4)cc3)c2)s1

>  <Energy>  (27) 
103.24339100600415

>  <Genealogy>  (27) 
CSc1ccc(Cc2ccc([O-])c(C(=O)[N-]CCc3ccc(C(=O)[N-]CCC[N-]C(=O)C=Cc4ccc(F)c(Cl)c4)cc3)c2)s1 (protonated)
CSc1ccc(Cc2ccc([O-])c(C(=O)[N-]CCc3ccc(C(=O)[N-]CCC[N-]C(=O)C=Cc4ccc(F)c(Cl)c4)cc3)c2)s1 (3D coordinates assigned)
CSc1ccc(Cc2ccc([O-])c(C(=O)[N-]CCc3ccc(C(=O)[N-]CCC[N-]C(=O)C=Cc4ccc(F)c(Cl)c4)cc3)c2)s1 (optimized conformer: 103.24339100600415 kcal/mol)

>  <smiles>  (27) 
CSc1ccc(Cc2ccc(O)c(C(=O)NCCc3ccc(C(=O)NCCCNC(=O)C=Cc4ccc(F)c(Cl)c4)cc3)c2)s1

>  <score_type>  (27) 
oracle

>  <origin>  (27) 
adg

>  <m_score__min__energy>  (27) 
-15.23

>  <m_primary>  (27) 
energy

$$$$
27:0
     RDKit          3D

 57 59  0  0  0  0  0  0  0  0999 V2000
   61.6270   33.8590   50.1080 C   0  0  0  0  0  0  0  0  0  0  0  0
   62.9210   34.0670   49.3280 C   0  0  0  0  0  0  0  0  0  0  0  0
   63.4380   32.8050   48.9170 O   0  0  0  0  0  0  0  0  0  0  0  0
   63.0780   32.2010   47.7070 C   0  0  0  0  0  0  0  0  0  0  0  0
   63.9150   31.5090   47.0670 O   0  0  0  0  0  0  0  0  0  0  0  0
   61.7130   32.3850   47.1930 C   0  0  0  0  0  0  0  0  0  0  0  0
   61.2590   33.5600   46.7140 N   0  0  0  0  0  0  0  0  0  0  0  0
   59.9860   33.2840   46.3510 C   0  0  0  0  0  0  0  0  0  0  0  0
   59.0340   34.3210   45.7780 C   0  0  0  0  0  0  0  0  0  0  0  0
   59.5140   35.6020   46.1090 O   0  0  0  0  0  0  0  0  0  0  0  0
   57.5970   34.1470   46.3380 C   0  0  0  0  0  0  0  0  0  0  0  0
   56.7490   33.0850   45.6030 C   0  0  0  0  0  0  0  0  0  0  0  0
   57.5450   32.2230   44.7140 N   0  0  0  0  0  0  0  0  0  0  0  0
   57.1340   30.8510   44.5260 C   0  0  0  0  0  0  0  0  0  0  0  0
   55.9430   30.5180   44.7820 O   0  0  0  0  0  0  0  0  0  0  0  0
   58.0830   29.8170   43.9730 C   0  0  0  0  0  0  0  0  0  0  0  0
   58.2280   28.6360   44.9090 C   0  0  0  0  0  0  0  0  0  0  0  0
   57.0720   28.0840   45.4900 C   0  0  0  0  0  0  0  0  0  0  0  0
   57.1660   27.0120   46.3790 C   0  0  0  0  0  0  0  0  0  0  0  0
   58.4130   26.4810   46.7040 C   0  0  0  0  0  0  0  0  0  0  0  0
   59.5730   27.0230   46.1460 C   0  0  0  0  0  0  0  0  0  0  0  0
   59.4980   28.1080   45.2550 C   0  0  0  0  0  0  0  0  0  0  0  0
   60.7700   28.6660   44.6690 C   0  0  0  0  0  0  0  0  0  0  0  0
   58.5260   32.8200   43.7900 C   0  0  0  0  0  0  0  0  0  0  0  0
   58.9700   34.2190   44.2430 C   0  0  0  0  0  0  0  0  0  0  0  0
   59.6520   32.0360   46.5970 O   0  0  0  0  0  0  0  0  0  0  0  0
   60.7000   31.4470   47.1190 C   0  0  0  0  0  0  0  0  0  0  0  0
   60.7450   30.0140   47.5660 C   0  0  0  0  0  0  0  0  0  0  0  0
   59.6010   29.6770   48.5210 C   0  0  0  0  0  0  0  0  0  0  0  0
   61.8396   33.8932   51.1867 H   0  0  0  0  0  0  0  0  0  0  0  0
   60.9115   34.6537   49.8499 H   0  0  0  0  0  0  0  0  0  0  0  0
   61.1966   32.8801   49.8499 H   0  0  0  0  0  0  0  0  0  0  0  0
   62.7189   34.6863   48.4416 H   0  0  0  0  0  0  0  0  0  0  0  0
   63.6576   34.5727   49.9696 H   0  0  0  0  0  0  0  0  0  0  0  0
   60.2850   35.4880   46.7260 H   0  0  0  0  0  0  0  0  0  0  0  0
   57.6732   33.8545   47.3957 H   0  0  0  0  0  0  0  0  0  0  0  0
   57.0859   35.1105   46.1949 H   0  0  0  0  0  0  0  0  0  0  0  0
   56.2543   32.4513   46.3538 H   0  0  0  0  0  0  0  0  0  0  0  0
   56.0237   33.6226   44.9746 H   0  0  0  0  0  0  0  0  0  0  0  0
   57.6987   29.4608   43.0058 H   0  0  0  0  0  0  0  0  0  0  0  0
   59.0712   30.2855   43.8548 H   0  0  0  0  0  0  0  0  0  0  0  0
   56.0849   28.5009   45.2415 H   0  0  0  0  0  0  0  0  0  0  0  0
   56.2547   26.5857   46.8237 H   0  0  0  0  0  0  0  0  0  0  0  0
   58.4837   25.6333   47.4014 H   0  0  0  0  0  0  0  0  0  0  0  0
   60.5535   26.5974   46.4058 H   0  0  0  0  0  0  0  0  0  0  0  0
   61.4485   28.9637   45.4820 H   0  0  0  0  0  0  0  0  0  0  0  0
   61.2556   27.8983   44.0487 H   0  0  0  0  0  0  0  0  0  0  0  0
   60.5340   29.5432   44.0487 H   0  0  0  0  0  0  0  0  0  0  0  0
   59.4094   32.1665   43.7399 H   0  0  0  0  0  0  0  0  0  0  0  0
   58.0465   32.9194   42.8050 H   0  0  0  0  0  0  0  0  0  0  0  0
   59.9672   34.4291   43.8289 H   0  0  0  0  0  0  0  0  0  0  0  0
   58.2329   34.9499   43.8789 H   0  0  0  0  0  0  0  0  0  0  0  0
   60.6730   29.3636   46.6818 H   0  0  0  0  0  0  0  0  0  0  0  0
   61.6928   29.8542   48.1009 H   0  0  0  0  0  0  0  0  0  0  0  0
   59.9483   29.7793   49.5597 H   0  0  0  0  0  0  0  0  0  0  0  0
   58.7617   30.3661   48.3454 H   0  0  0  0  0  0  0  0  0  0  0  0
   59.2693   28.6430   48.3454 H   0  0  0  0  0  0  0  0  0  0  0  0
  1  2  1  0
  2  3  1  0
  3  4  1  0
  4  5  2  0
  4  6  1  0
  6  7  1  0
  7  8  2  0
  8  9  1  0
  9 10  1  0
  9 11  1  0
 11 12  1  0
 12 13  1  0
 13 14  1  0
 14 15  2  0
 14 16  1  0
 16 17  1  0
 17 18  2  0
 18 19  1  0
 19 20  2  0
 20 21  1  0
 21 22  2  0
 22 23  1  0
 13 24  1  0
 24 25  1  0
  8 26  1  0
 26 27  1  0
 27 28  1  0
 28 29  1  0
 27  6  2  0
 25  9  1  0
 22 17  1  0
  1 30  1  0
  1 31  1  0
  1 32  1  0
  2 33  1  0
  2 34  1  0
 10 35  1  0
 11 36  1  0
 11 37  1  0
 12 38  1  0
 12 39  1  0
 16 40  1  0
 16 41  1  0
 18 42  1  0
 19 43  1  0
 20 44  1  0
 21 45  1  0
 23 46  1  0
 23 47  1  0
 23 48  1  0
 24 49  1  0
 24 50  1  0
 25 51  1  0
 25 52  1  0
 28 53  1  0
 28 54  1  0
 29 55  1  0
 29 56  1  0
 29 57  1  0
M  END
>  <UniqueID>  (28) 
26

>  <SMILES>  (28) 
CCOC(=O)c1nc(C2(O)CCN(C(=O)Cc3ccccc3C)CC2)oc1CC

>  <Energy>  (28) 
83.24030300525979

>  <Genealogy>  (28) 
CCOC(=O)c1nc(C2(O)CCN(C(=O)Cc3ccccc3C)CC2)oc1CC (3D coordinates assigned)
CCOC(=O)c1nc(C2(O)CCN(C(=O)Cc3ccccc3C)CC2)oc1CC (nonaromatic ring conformer: 83.24030300525979 kcal/mol)

>  <smiles>  (28) 
CCOC(=O)c1nc(C2(O)CCN(C(=O)Cc3ccccc3C)CC2)oc1CC

>  <score_type>  (28) 
oracle

>  <origin>  (28) 
adg

>  <m_score__min__energy>  (28) 
-7.71

>  <m_primary>  (28) 
energy

$$$$
28:0
     RDKit          3D

 51 53  0  0  0  0  0  0  0  0999 V2000
   58.0314   26.1340   46.4109 H   0  0  0  0  0  0  0  0  0  0  0  0
   57.3720   26.1650   45.5310 C   0  0  0  0  0  0  0  0  0  0  0  0
   56.0970   26.8960   45.6250 C   0  0  0  0  0  0  0  0  0  0  0  0
   55.0760   26.2860   46.0380 O   0  0  0  0  0  0  0  0  0  0  0  0
   56.0150   28.2830   45.2530 N   0  0  0  0  0  0  0  0  0  0  0  0
   57.0280   29.0250   44.4980 C   0  0  2  0  0  0  0  0  0  0  0  0
   57.5256   28.3254   43.8103 H   0  0  0  0  0  0  0  0  0  0  0  0
   58.1040   29.5780   45.4050 C   0  0  0  0  0  0  0  0  0  0  0  0
   58.9020   30.4540   44.9810 O   0  0  0  0  0  0  0  0  0  0  0  0
   58.1980   29.1370   46.7680 N   0  0  0  0  0  0  0  0  0  0  0  0
   57.4440   28.5350   47.1650 H   0  0  0  0  0  0  0  0  0  0  0  0
   59.3280   29.4870   47.6250 C   0  0  0  0  0  0  0  0  0  0  0  0
   59.9401   30.2510   47.1234 H   0  0  0  0  0  0  0  0  0  0  0  0
   59.9277   28.5838   47.8108 H   0  0  0  0  0  0  0  0  0  0  0  0
   58.8410   30.0280   48.9410 C   0  0  0  0  0  0  0  0  0  0  0  0
   58.4120   29.2390   49.9460 N   0  0  0  0  0  0  0  0  0  0  0  0
   57.9440   30.1150   50.8550 C   0  0  0  0  0  0  0  0  0  0  0  0
   57.4600   29.7520   51.9600 O   0  0  0  0  0  0  0  0  0  0  0  0
   58.0250   31.4090   50.4860 N   0  0  0  0  0  0  0  0  0  0  0  0
   58.5950   31.3530   49.2670 C   0  0  0  0  0  0  0  0  0  0  0  0
   58.8710   32.5520   48.4500 C   0  0  0  0  0  0  0  0  0  0  0  0
   58.1400   32.7800   47.2710 C   0  0  0  0  0  0  0  0  0  0  0  0
   57.3532   32.0725   46.9702 H   0  0  0  0  0  0  0  0  0  0  0  0
   58.4070   33.9010   46.4780 C   0  0  0  0  0  0  0  0  0  0  0  0
   57.3960   34.2050   44.8850 Br  0  0  0  0  0  0  0  0  0  0  0  0
   59.4160   34.7930   46.8450 C   0  0  0  0  0  0  0  0  0  0  0  0
   59.6198   35.6781   46.2245 H   0  0  0  0  0  0  0  0  0  0  0  0
   60.1670   34.5620   48.0000 C   0  0  0  0  0  0  0  0  0  0  0  0
   60.9695   35.2612   48.2776 H   0  0  0  0  0  0  0  0  0  0  0  0
   59.9050   33.4400   48.8130 C   0  0  0  0  0  0  0  0  0  0  0  0
   60.6380   33.1870   49.9840 O   0  0  0  0  0  0  0  0  0  0  0  0
   60.1660   33.4360   51.3030 C   0  0  0  0  0  0  0  0  0  0  0  0
   60.8947   33.0516   52.0319 H   0  0  0  0  0  0  0  0  0  0  0  0
   60.0383   34.5188   51.4484 H   0  0  0  0  0  0  0  0  0  0  0  0
   59.2001   32.9301   51.4484 H   0  0  0  0  0  0  0  0  0  0  0  0
   56.3680   30.1250   43.6560 C   0  0  0  0  0  0  0  0  0  0  0  0
   55.9175   30.8758   44.3218 H   0  0  0  0  0  0  0  0  0  0  0  0
   57.1268   30.6060   43.0213 H   0  0  0  0  0  0  0  0  0  0  0  0
   55.5865   29.6818   43.0213 H   0  0  0  0  0  0  0  0  0  0  0  0
   57.7580   25.5360   44.4120 C   0  0  0  0  0  0  0  0  0  0  0  0
   58.3527   26.1004   43.6787 H   0  0  0  0  0  0  0  0  0  0  0  0
   57.4290   24.1220   44.1060 C   0  0  0  0  0  0  0  0  0  0  0  0
   56.2560   23.8380   43.3870 C   0  0  0  0  0  0  0  0  0  0  0  0
   55.6121   24.6616   43.0448 H   0  0  0  0  0  0  0  0  0  0  0  0
   55.9110   22.5510   43.1110 N   0  0  0  0  0  0  0  0  0  0  0  0
   56.6720   21.5020   43.5180 C   0  0  0  0  0  0  0  0  0  0  0  0
   56.3663   20.4735   43.2758 H   0  0  0  0  0  0  0  0  0  0  0  0
   57.8410   21.7300   44.2430 C   0  0  0  0  0  0  0  0  0  0  0  0
   58.4604   20.8844   44.5767 H   0  0  0  0  0  0  0  0  0  0  0  0
   58.2190   23.0410   44.5420 C   0  0  0  0  0  0  0  0  0  0  0  0
   59.1361   23.2294   45.1195 H   0  0  0  0  0  0  0  0  0  0  0  0
  1  2  1  0
  2  3  1  0
  3  4  2  0
  3  5  1  0
  5  6  1  0
  6  7  1  6
  6  8  1  0
  8  9  2  0
  8 10  1  0
 10 11  1  0
 10 12  1  0
 12 13  1  0
 12 14  1  0
 12 15  1  0
 15 16  1  0
 16 17  1  0
 17 18  2  0
 17 19  1  0
 19 20  1  0
 20 21  1  0
 21 22  2  0
 22 23  1  0
 22 24  1  0
 24 25  1  0
 24 26  2  0
 26 27  1  0
 26 28  1  0
 28 29  1  0
 28 30  2  0
 30 31  1  0
 31 32  1  0
 32 33  1  0
 32 34  1  0
 32 35  1  0
  6 36  1  0
 36 37  1  0
 36 38  1  0
 36 39  1  0
  2 40  2  0
 40 41  1  0
 40 42  1  0
 42 43  2  0
 43 44  1  0
 43 45  1  0
 45 46  2  0
 46 47  1  0
 46 48  1  0
 48 49  1  0
 48 50  2  0
 50 51  1  0
 20 15  2  0
 30 21  1  0
 50 42  1  0
M  CHG  3   5  -1  16  -1  19  -1
M  END
>  <UniqueID>  (29) 
27

>  <SMILES>  (29) 
COc1ccc(Br)cc1-c1[n-]c(=O)[n-]c1CNC(=O)[C@H](C)[N-]C(=O)/C=C/c1cccnc1

>  <Energy>  (29) 
84.07876922005863

>  <Genealogy>  (29) 
COc1ccc(Br)cc1-c1[n-]c(=O)[n-]c1CNC(=O)C(C)[N-]C(=O)C=Cc1cccnc1 (protonated)
COc1ccc(Br)cc1-c1[n-]c(=O)[n-]c1CNC(=O)[C@H](C)[N-]C(=O)C=Cc1cccnc1 (chirality)
COc1ccc(Br)cc1-c1[n-]c(=O)[n-]c1CNC(=O)[C@H](C)[N-]C(=O)/C=C/c1cccnc1 (cis-trans isomerization)
COc1ccc(Br)cc1-c1[n-]c(=O)[n-]c1CNC(=O)[C@H](C)[N-]C(=O)/C=C/c1cccnc1 (3D coordinates assigned)
COc1ccc(Br)cc1-c1[n-]c(=O)[n-]c1CNC(=O)[C@H](C)[N-]C(=O)/C=C/c1cccnc1 (optimized conformer: 84.07876922005863 kcal/mol)

>  <smiles>  (29) 
COc1ccc(Br)cc1-c1[nH]c(=O)[nH]c1CNC(=O)C(C)NC(=O)C=Cc1cccnc1

>  <score_type>  (29) 
oracle

>  <origin>  (29) 
adg

>  <m_score__min__energy>  (29) 
-13.17

>  <m_primary>  (29) 
energy

$$$$
29:0
     RDKit          3D

 56 58  0  0  0  0  0  0  0  0999 V2000
   56.8430   29.4260   43.5870 C   0  0  0  0  0  0  0  0  0  0  0  0
   57.4120   29.3870   44.8020 C   0  0  0  0  0  0  0  0  0  0  0  0
   57.9260   28.2570   45.4570 C   0  0  0  0  0  0  0  0  0  0  0  0
   57.8220   26.9430   45.1760 C   0  0  0  0  0  0  0  0  0  0  0  0
   57.2260   25.9220   46.0530 C   0  0  0  0  0  0  0  0  0  0  0  0
   57.8760   24.8400   46.5210 N   0  0  0  0  0  0  0  0  0  0  0  0
   56.9030   24.1370   47.1430 C   0  0  0  0  0  0  0  0  0  0  0  0
   57.1250   23.0480   47.7310 O   0  0  0  0  0  0  0  0  0  0  0  0
   55.6730   24.6900   47.0750 N   0  0  0  0  0  0  0  0  0  0  0  0
   55.8950   25.8110   46.3690 C   0  0  0  0  0  0  0  0  0  0  0  0
   54.8970   26.7110   46.0160 O   0  0  0  0  0  0  0  0  0  0  0  0
   58.5990   28.7290   46.5700 C   0  0  0  0  0  0  0  0  0  0  0  0
   58.4220   30.0970   46.5990 C   0  0  0  0  0  0  0  0  0  0  0  0
   58.8950   30.9680   47.6950 C   0  0  0  0  0  0  0  0  0  0  0  0
   58.6910   30.6110   48.8870 O   0  0  0  0  0  0  0  0  0  0  0  0
   59.6260   32.1840   47.4330 N   0  0  0  0  0  0  0  0  0  0  0  0
   58.9520   33.4940   47.4590 C   0  0  0  0  0  0  0  0  0  0  0  0
   59.8380   34.6110   48.0700 C   0  0  0  0  0  0  0  0  0  0  0  0
   61.2860   34.2850   48.1310 N   0  0  0  0  0  0  0  0  0  0  0  0
   61.6540   33.6760   49.4340 C   0  0  0  0  0  0  0  0  0  0  0  0
   63.0560   34.1220   49.9190 C   0  0  0  0  0  0  0  0  0  0  0  0
   64.1510   33.1490   49.6980 N   0  0  0  0  0  0  0  0  0  0  0  0
   63.7260   31.7450   49.8020 C   0  0  0  0  0  0  0  0  0  0  0  0
   65.3510   33.4160   50.5050 C   0  0  0  0  0  0  0  0  0  0  0  0
   61.6760   33.4770   46.9490 C   0  0  1  0  0  0  0  0  0  0  0  0
   63.1970   33.4030   46.7510 C   0  0  0  0  0  0  0  0  0  0  0  0
   61.0280   32.0850   47.0040 C   0  0  0  0  0  0  0  0  0  0  0  0
   57.7000   30.5000   45.5260 N   0  0  0  0  0  0  0  0  0  0  0  0
   57.3850   31.8860   45.1540 C   0  0  0  0  0  0  0  0  0  0  0  0
   56.4771   30.3808   43.1814 H   0  0  0  0  0  0  0  0  0  0  0  0
   56.7426   28.5032   42.9968 H   0  0  0  0  0  0  0  0  0  0  0  0
   58.2169   26.6040   44.2069 H   0  0  0  0  0  0  0  0  0  0  0  0
   59.1675   28.1275   47.2945 H   0  0  0  0  0  0  0  0  0  0  0  0
   58.6911   33.7761   46.4283 H   0  0  0  0  0  0  0  0  0  0  0  0
   58.0581   33.3952   48.0924 H   0  0  0  0  0  0  0  0  0  0  0  0
   59.7156   35.5185   47.4605 H   0  0  0  0  0  0  0  0  0  0  0  0
   59.5030   34.7423   49.1095 H   0  0  0  0  0  0  0  0  0  0  0  0
   60.9087   33.9737   50.1862 H   0  0  0  0  0  0  0  0  0  0  0  0
   61.6770   32.5845   49.2996 H   0  0  0  0  0  0  0  0  0  0  0  0
   63.3171   35.0506   49.3903 H   0  0  0  0  0  0  0  0  0  0  0  0
   62.9734   34.2383   51.0097 H   0  0  0  0  0  0  0  0  0  0  0  0
   63.6413   31.4651   50.8624 H   0  0  0  0  0  0  0  0  0  0  0  0
   62.7498   31.6201   49.3107 H   0  0  0  0  0  0  0  0  0  0  0  0
   64.4690   31.0996   49.3107 H   0  0  0  0  0  0  0  0  0  0  0  0
   65.0947   33.3590   51.5732 H   0  0  0  0  0  0  0  0  0  0  0  0
   66.1230   32.6677   50.2727 H   0  0  0  0  0  0  0  0  0  0  0  0
   65.7329   34.4211   50.2727 H   0  0  0  0  0  0  0  0  0  0  0  0
   61.2890   33.9953   46.0592 H   0  0  0  0  0  0  0  0  0  0  0  0
   63.6937   33.3788   47.7322 H   0  0  0  0  0  0  0  0  0  0  0  0
   63.4497   32.4915   46.1895 H   0  0  0  0  0  0  0  0  0  0  0  0
   63.5370   34.2857   46.1895 H   0  0  0  0  0  0  0  0  0  0  0  0
   61.0688   31.6274   46.0045 H   0  0  0  0  0  0  0  0  0  0  0  0
   61.5778   31.4662   47.7284 H   0  0  0  0  0  0  0  0  0  0  0  0
   57.2482   32.4880   46.0645 H   0  0  0  0  0  0  0  0  0  0  0  0
   58.2113   32.3029   44.5595 H   0  0  0  0  0  0  0  0  0  0  0  0
   56.4597   31.9048   44.5595 H   0  0  0  0  0  0  0  0  0  0  0  0
  1  2  2  0
  2  3  1  0
  3  4  2  3
  4  5  1  0
  5  6  1  0
  6  7  1  0
  7  8  2  0
  7  9  1  0
  9 10  1  0
 10 11  1  0
  3 12  1  0
 12 13  2  0
 13 14  1  0
 14 15  2  0
 14 16  1  0
 16 17  1  0
 17 18  1  0
 18 19  1  0
 19 20  1  0
 20 21  1  0
 21 22  1  0
 22 23  1  0
 22 24  1  0
 19 25  1  0
 25 26  1  0
 25 27  1  0
 13 28  1  0
 28 29  1  0
 28  2  1  0
 10  5  2  0
 27 16  1  0
  1 30  1  0
  1 31  1  0
  4 32  1  0
 12 33  1  0
 17 34  1  0
 17 35  1  0
 18 36  1  0
 18 37  1  0
 20 38  1  0
 20 39  1  0
 21 40  1  0
 21 41  1  0
 23 42  1  0
 23 43  1  0
 23 44  1  0
 24 45  1  0
 24 46  1  0
 24 47  1  0
 25 48  1  6
 26 49  1  0
 26 50  1  0
 26 51  1  0
 27 52  1  0
 27 53  1  0
 29 54  1  0
 29 55  1  0
 29 56  1  0
M  CHG  3   6  -1   9  -1  11  -1
M  END
>  <UniqueID>  (30) 
28

>  <SMILES>  (30) 
C=c1c(=Cc2[n-]c(=O)[n-]c2[O-])cc(C(=O)N2CCN(CCN(C)C)[C@@H](C)C2)n1C

>  <Energy>  (30) 
143.52541253413676

>  <Genealogy>  (30) 
C=c1c(=Cc2[n-]c(=O)[n-]c2[O-])cc(C(=O)N2CCN(CCN(C)C)C(C)C2)n1C (protonated)
C=c1c(=Cc2[n-]c(=O)[n-]c2[O-])cc(C(=O)N2CCN(CCN(C)C)[C@@H](C)C2)n1C (chirality)
C=c1c(=Cc2[n-]c(=O)[n-]c2[O-])cc(C(=O)N2CCN(CCN(C)C)[C@@H](C)C2)n1C (3D coordinates assigned)
C=c1c(=Cc2[n-]c(=O)[n-]c2[O-])cc(C(=O)N2CCN(CCN(C)C)[C@@H](C)C2)n1C (nonaromatic ring conformer: 143.52541253413676 kcal/mol)

>  <smiles>  (30) 
C=c1c(=Cc2[nH]c(=O)[nH]c2O)cc(C(=O)N2CCN(CCN(C)C)C(C)C2)n1C

>  <score_type>  (30) 
oracle

>  <origin>  (30) 
adg

>  <m_score__min__energy>  (30) 
-17.010000000000002

>  <m_primary>  (30) 
energy

$$$$
30:0
     RDKit          3D

 60 63  0  0  0  0  0  0  0  0999 V2000
   56.5790   28.8880   53.3420 C   0  0  0  0  0  0  0  0  0  0  0  0
   56.5770   29.4130   52.0210 O   0  0  0  0  0  0  0  0  0  0  0  0
   57.3210   30.5380   51.6500 C   0  0  0  0  0  0  0  0  0  0  0  0
   56.7800   31.6760   51.6130 O   0  0  0  0  0  0  0  0  0  0  0  0
   58.7670   30.3920   51.2490 C   0  0  1  0  0  0  0  0  0  0  0  0
   59.7040   31.3860   51.9660 C   0  0  0  0  0  0  0  0  0  0  0  0
   60.1550   32.4930   51.0460 C   0  0  0  0  0  0  0  0  0  0  0  0
   59.2710   33.0200   50.0890 C   0  0  0  0  0  0  0  0  0  0  0  0
   59.6800   34.0570   49.2460 C   0  0  0  0  0  0  0  0  0  0  0  0
   60.9710   34.5810   49.3550 C   0  0  0  0  0  0  0  0  0  0  0  0
   61.8550   34.0690   50.3080 C   0  0  0  0  0  0  0  0  0  0  0  0
   61.4500   33.0330   51.1550 C   0  0  0  0  0  0  0  0  0  0  0  0
   59.2550   29.0040   51.3590 N   0  0  0  0  0  0  0  0  0  0  0  0
   60.6630   28.6080   50.4010 S   0  0  0  0  0  0  0  0  0  0  0  0
   61.8400   29.4200   50.8640 O   0  0  0  0  0  0  0  0  0  0  0  0
   60.9900   27.1570   50.6140 O   0  0  0  0  0  0  0  0  0  0  0  0
   60.3860   28.8530   48.6800 C   0  0  0  0  0  0  0  0  0  0  0  0
   60.3970   27.7530   47.8120 C   0  0  0  0  0  0  0  0  0  0  0  0
   60.1200   27.9260   46.4540 C   0  0  0  0  0  0  0  0  0  0  0  0
   59.8240   29.1980   45.9560 C   0  0  0  0  0  0  0  0  0  0  0  0
   59.8080   30.3070   46.8160 C   0  0  0  0  0  0  0  0  0  0  0  0
   59.4840   31.6530   46.3030 C   0  0  0  0  0  0  0  0  0  0  0  0
   60.2500   32.7530   46.3620 C   0  0  0  0  0  0  0  0  0  0  0  0
   61.6540   32.8450   46.8210 C   0  0  0  0  0  0  0  0  0  0  0  0
   62.6150   33.7460   46.3880 C   0  0  0  0  0  0  0  0  0  0  0  0
   63.7420   33.5110   47.1480 C   0  0  0  0  0  0  0  0  0  0  0  0
   63.5080   32.5040   48.0100 N   0  0  0  0  0  0  0  0  0  0  0  0
   64.4220   32.0260   49.0410 C   0  0  0  0  0  0  0  0  0  0  0  0
   62.2330   32.1050   47.8360 C   0  0  0  0  0  0  0  0  0  0  0  0
   59.4650   33.8590   45.7990 C   0  0  0  0  0  0  0  0  0  0  0  0
   59.8450   35.0580   45.7220 O   0  0  0  0  0  0  0  0  0  0  0  0
   58.2010   33.4040   45.3370 N   0  0  0  0  0  0  0  0  0  0  0  0
   57.0160   34.2300   45.1420 C   0  0  0  0  0  0  0  0  0  0  0  0
   58.2070   32.0280   45.6940 C   0  0  0  0  0  0  0  0  0  0  0  0
   57.2200   31.2600   45.5420 O   0  0  0  0  0  0  0  0  0  0  0  0
   60.1150   30.1320   48.1730 C   0  0  0  0  0  0  0  0  0  0  0  0
   56.5758   29.7163   54.0658 H   0  0  0  0  0  0  0  0  0  0  0  0
   55.6832   28.2673   53.4912 H   0  0  0  0  0  0  0  0  0  0  0  0
   57.4795   28.2741   53.4912 H   0  0  0  0  0  0  0  0  0  0  0  0
   58.7948   30.6566   50.1817 H   0  0  0  0  0  0  0  0  0  0  0  0
   59.1687   31.8279   52.8193 H   0  0  0  0  0  0  0  0  0  0  0  0
   60.5952   30.8352   52.3011 H   0  0  0  0  0  0  0  0  0  0  0  0
   58.2522   32.6143   50.0030 H   0  0  0  0  0  0  0  0  0  0  0  0
   58.9847   34.4613   48.4956 H   0  0  0  0  0  0  0  0  0  0  0  0
   61.2912   35.3968   48.6902 H   0  0  0  0  0  0  0  0  0  0  0  0
   62.8712   34.4816   50.3921 H   0  0  0  0  0  0  0  0  0  0  0  0
   62.1463   32.6384   51.9096 H   0  0  0  0  0  0  0  0  0  0  0  0
   60.6246   26.7497   48.2015 H   0  0  0  0  0  0  0  0  0  0  0  0
   60.1348   27.0602   45.7756 H   0  0  0  0  0  0  0  0  0  0  0  0
   59.6029   29.3303   44.8866 H   0  0  0  0  0  0  0  0  0  0  0  0
   62.5011   34.4996   45.5948 H   0  0  0  0  0  0  0  0  0  0  0  0
   64.6894   34.0634   47.0625 H   0  0  0  0  0  0  0  0  0  0  0  0
   64.0021   32.2456   50.0337 H   0  0  0  0  0  0  0  0  0  0  0  0
   64.5604   30.9401   48.9335 H   0  0  0  0  0  0  0  0  0  0  0  0
   65.3929   32.5318   48.9335 H   0  0  0  0  0  0  0  0  0  0  0  0
   61.7306   31.3137   48.4117 H   0  0  0  0  0  0  0  0  0  0  0  0
   56.6041   34.5171   46.1207 H   0  0  0  0  0  0  0  0  0  0  0  0
   57.2884   35.1349   44.5791 H   0  0  0  0  0  0  0  0  0  0  0  0
   56.2612   33.6613   44.5791 H   0  0  0  0  0  0  0  0  0  0  0  0
   60.1434   31.0033   48.8438 H   0  0  0  0  0  0  0  0  0  0  0  0
  1  2  1  0
  2  3  1  0
  3  4  2  0
  3  5  1  0
  5  6  1  0
  6  7  1  0
  7  8  2  0
  8  9  1  0
  9 10  2  0
 10 11  1  0
 11 12  2  0
  5 13  1  0
 13 14  1  0
 14 15  2  0
 14 16  2  0
 14 17  1  0
 17 18  2  0
 18 19  1  0
 19 20  2  0
 20 21  1  0
 21 22  1  0
 22 23  2  0
 23 24  1  0
 24 25  1  0
 25 26  2  0
 26 27  1  0
 27 28  1  0
 27 29  1  0
 23 30  1  0
 30 31  2  0
 30 32  1  0
 32 33  1  0
 32 34  1  0
 34 35  2  0
 21 36  2  0
 12  7  1  0
 36 17  1  0
 34 22  1  0
 29 24  2  0
  1 37  1  0
  1 38  1  0
  1 39  1  0
  5 40  1  6
  6 41  1  0
  6 42  1  0
  8 43  1  0
  9 44  1  0
 10 45  1  0
 11 46  1  0
 12 47  1  0
 18 48  1  0
 19 49  1  0
 20 50  1  0
 25 51  1  0
 26 52  1  0
 28 53  1  0
 28 54  1  0
 28 55  1  0
 29 56  1  0
 33 57  1  0
 33 58  1  0
 33 59  1  0
 36 60  1  0
M  CHG  1  13  -1
M  END
>  <UniqueID>  (31) 
29

>  <SMILES>  (31) 
COC(=O)[C@@H](Cc1ccccc1)[N-]S(=O)(=O)c1cccc(C2=C(c3ccn(C)c3)C(=O)N(C)C2=O)c1

>  <Energy>  (31) 
117.91280865258769

>  <Genealogy>  (31) 
COC(=O)C(Cc1ccccc1)[N-]S(=O)(=O)c1cccc(C2=C(c3ccn(C)c3)C(=O)N(C)C2=O)c1 (protonated)
COC(=O)[C@@H](Cc1ccccc1)[N-]S(=O)(=O)c1cccc(C2=C(c3ccn(C)c3)C(=O)N(C)C2=O)c1 (chirality)
COC(=O)[C@@H](Cc1ccccc1)[N-]S(=O)(=O)c1cccc(C2=C(c3ccn(C)c3)C(=O)N(C)C2=O)c1 (3D coordinates assigned)
COC(=O)[C@@H](Cc1ccccc1)[N-]S(=O)(=O)c1cccc(C2=C(c3ccn(C)c3)C(=O)N(C)C2=O)c1 (nonaromatic ring conformer: 117.91280865258769 kcal/mol)

>  <smiles>  (31) 
COC(=O)C(Cc1ccccc1)NS(=O)(=O)c1cccc(C2=C(c3ccn(C)c3)C(=O)N(C)C2=O)c1

>  <score_type>  (31) 
oracle

>  <origin>  (31) 
adg

>  <m_score__min__energy>  (31) 
-12.67

>  <m_primary>  (31) 
energy

$$$$
31:0
     RDKit          3D

 34 36  0  0  0  0  0  0  0  0999 V2000
   57.9272   34.5433   46.7954 H   0  0  0  0  0  0  0  0  0  0  0  0
   57.5510   33.8690   46.0120 C   0  0  0  0  0  0  0  0  0  0  0  0
   56.8319   34.2392   45.2665 H   0  0  0  0  0  0  0  0  0  0  0  0
   57.9670   32.6020   45.9660 C   0  0  0  0  0  0  0  0  0  0  0  0
   57.5320   31.7360   45.0210 N   0  0  0  0  0  0  0  0  0  0  0  0
   58.1600   30.5760   45.3140 C   0  0  0  0  0  0  0  0  0  0  0  0
   58.0000   29.4280   44.6410 C   0  0  0  0  0  0  0  0  0  0  0  0
   58.3174   29.3907   43.5885 H   0  0  0  0  0  0  0  0  0  0  0  0
   57.4170   28.2070   45.2440 C   0  0  0  0  0  0  0  0  0  0  0  0
   56.0260   28.0150   45.3440 C   0  0  0  0  0  0  0  0  0  0  0  0
   55.1360   28.9650   44.8570 O   0  0  0  0  0  0  0  0  0  0  0  0
   55.5380   26.8740   45.8940 N   0  0  0  0  0  0  0  0  0  0  0  0
   56.3690   25.8970   46.3380 C   0  0  0  0  0  0  0  0  0  0  0  0
   55.8920   24.8500   46.8470 O   0  0  0  0  0  0  0  0  0  0  0  0
   57.7120   26.0460   46.2260 N   0  0  0  0  0  0  0  0  0  0  0  0
   58.2530   27.1670   45.6860 C   0  0  0  0  0  0  0  0  0  0  0  0
   59.5050   27.2680   45.5960 O   0  0  0  0  0  0  0  0  0  0  0  0
   58.9480   30.7640   46.4270 C   0  0  0  0  0  0  0  0  0  0  0  0
   59.6610   29.8880   46.9890 O   0  0  0  0  0  0  0  0  0  0  0  0
   58.8390   32.0390   46.8430 N   0  0  0  0  0  0  0  0  0  0  0  0
   59.5390   32.6590   47.9750 C   0  0  0  0  0  0  0  0  0  0  0  0
   59.1110   33.6550   48.1613 H   0  0  0  0  0  0  0  0  0  0  0  0
   59.4157   32.0164   48.8592 H   0  0  0  0  0  0  0  0  0  0  0  0
   61.0120   32.8010   47.6840 C   0  0  0  0  0  0  0  0  0  0  0  0
   61.9490   32.0100   48.3720 C   0  0  0  0  0  0  0  0  0  0  0  0
   61.6044   31.2811   49.1203 H   0  0  0  0  0  0  0  0  0  0  0  0
   63.3160   32.1440   48.1110 C   0  0  0  0  0  0  0  0  0  0  0  0
   64.0430   31.5248   48.6570 H   0  0  0  0  0  0  0  0  0  0  0  0
   63.7590   33.0630   47.1580 C   0  0  0  0  0  0  0  0  0  0  0  0
   64.8351   33.1700   46.9564 H   0  0  0  0  0  0  0  0  0  0  0  0
   62.8380   33.8460   46.4610 C   0  0  0  0  0  0  0  0  0  0  0  0
   63.1900   34.5671   45.7086 H   0  0  0  0  0  0  0  0  0  0  0  0
   61.4680   33.7170   46.7160 C   0  0  0  0  0  0  0  0  0  0  0  0
   60.5920   34.4790   46.0160 F   0  0  0  0  0  0  0  0  0  0  0  0
  1  2  1  0
  2  3  1  0
  2  4  2  0
  4  5  1  0
  5  6  1  0
  6  7  2  0
  7  8  1  0
  7  9  1  0
  9 10  2  0
 10 11  1  0
 10 12  1  0
 12 13  1  0
 13 14  2  0
 13 15  1  0
 15 16  1  0
 16 17  2  0
  6 18  1  0
 18 19  2  0
 18 20  1  0
 20 21  1  0
 21 22  1  0
 21 23  1  0
 21 24  1  0
 24 25  2  0
 25 26  1  0
 25 27  1  0
 27 28  1  0
 27 29  2  0
 29 30  1  0
 29 31  1  0
 31 32  1  0
 31 33  2  0
 33 34  1  0
 20  4  1  0
 33 24  1  0
 16  9  1  0
M  CHG  4   5  -1  11  -1  12  -1  15  -1
M  END
>  <UniqueID>  (32) 
30

>  <SMILES>  (32) 
C=c1[n-]/c(=C\c2c([O-])[n-]c(=O)[n-]c2=O)c(=O)n1Cc1ccccc1F

>  <Energy>  (32) 
78.11096432104351

>  <Genealogy>  (32) 
C=c1[n-]c(=Cc2c([O-])[n-]c(=O)[n-]c2=O)c(=O)n1Cc1ccccc1F (protonated)
C=c1[n-]/c(=C\c2c([O-])[n-]c(=O)[n-]c2=O)c(=O)n1Cc1ccccc1F (cis-trans isomerization)
C=c1[n-]/c(=C\c2c([O-])[n-]c(=O)[n-]c2=O)c(=O)n1Cc1ccccc1F (3D coordinates assigned)
C=c1[n-]/c(=C\c2c([O-])[n-]c(=O)[n-]c2=O)c(=O)n1Cc1ccccc1F (optimized conformer: 78.11096432104351 kcal/mol)

>  <smiles>  (32) 
C=c1[nH]c(=Cc2c(O)[nH]c(=O)[nH]c2=O)c(=O)n1Cc1ccccc1F

>  <score_type>  (32) 
oracle

>  <origin>  (32) 
adg

>  <m_score__min__energy>  (32) 
-16.219999999999999

>  <m_primary>  (32) 
energy

$$$$
32:0
     RDKit          3D

 64 67  0  0  0  0  0  0  0  0999 V2000
   54.7740   26.3080   45.9790 N   0  0  0  0  0  0  0  0  0  0  0  0
   56.0590   25.1730   46.1850 S   0  0  0  0  0  0  0  0  0  0  0  0
   55.8970   24.4650   47.5020 O   0  0  0  0  0  0  0  0  0  0  0  0
   56.0110   24.1560   45.0770 O   0  0  0  0  0  0  0  0  0  0  0  0
   57.6010   26.0270   46.1630 C   0  0  0  0  0  0  0  0  0  0  0  0
   58.6770   25.5840   46.9460 C   0  0  0  0  0  0  0  0  0  0  0  0
   59.9010   26.2620   46.9060 C   0  0  0  0  0  0  0  0  0  0  0  0
   60.0600   27.3770   46.0760 C   0  0  0  0  0  0  0  0  0  0  0  0
   58.9920   27.8230   45.2800 C   0  0  0  0  0  0  0  0  0  0  0  0
   59.1570   29.0120   44.3680 C   0  0  0  0  0  0  0  0  0  0  0  0
   57.8540   29.4990   43.9260 N   0  0  0  0  0  0  0  0  0  0  0  0
   56.8460   29.9850   44.8180 C   0  0  0  0  0  0  0  0  0  0  0  0
   55.7410   29.3880   44.9110 O   0  0  0  0  0  0  0  0  0  0  0  0
   57.0620   31.1770   45.5780 N   0  0  0  0  0  0  0  0  0  0  0  0
   58.3380   31.7030   45.9710 C   0  0  0  0  0  0  0  0  0  0  0  0
   59.2020   30.8950   46.7210 C   0  0  0  0  0  0  0  0  0  0  0  0
   60.4540   31.3740   47.1180 C   0  0  0  0  0  0  0  0  0  0  0  0
   60.8720   32.6560   46.7350 C   0  0  0  0  0  0  0  0  0  0  0  0
   62.4550   33.2630   47.2280 S   0  0  0  0  0  0  0  0  0  0  0  0
   63.4850   32.1970   46.9770 O   0  0  0  0  0  0  0  0  0  0  0  0
   62.8100   34.4500   46.3790 O   0  0  0  0  0  0  0  0  0  0  0  0
   62.5020   33.7290   48.9150 N   0  0  0  0  0  0  0  0  0  0  0  0
   63.3980   32.8840   49.7300 C   0  0  0  0  0  0  0  0  0  0  0  0
   62.7440   31.5870   50.2520 C   0  0  0  0  0  0  0  0  0  0  0  0
   61.2310   31.7260   50.5400 C   0  0  0  0  0  0  0  0  0  0  0  0
   60.7450   30.8000   51.6850 C   0  0  0  0  0  0  0  0  0  0  0  0
   60.8750   29.3210   51.3930 C   0  0  0  0  0  0  0  0  0  0  0  0
   60.6080   28.8250   50.1040 C   0  0  0  0  0  0  0  0  0  0  0  0
   60.7270   27.4580   49.8340 C   0  0  0  0  0  0  0  0  0  0  0  0
   61.1290   26.5770   50.8410 C   0  0  0  0  0  0  0  0  0  0  0  0
   61.4160   27.0630   52.1180 C   0  0  0  0  0  0  0  0  0  0  0  0
   61.2930   28.4290   52.3940 C   0  0  0  0  0  0  0  0  0  0  0  0
   60.8460   33.1950   50.7510 C   0  0  0  0  0  0  0  0  0  0  0  0
   61.1600   34.0040   49.4850 C   0  0  0  0  0  0  0  0  0  0  0  0
   60.0160   33.4620   45.9730 C   0  0  0  0  0  0  0  0  0  0  0  0
   58.7630   32.9860   45.5810 C   0  0  0  0  0  0  0  0  0  0  0  0
   57.7600   27.1470   45.3360 C   0  0  0  0  0  0  0  0  0  0  0  0
   55.1430   27.0860   45.3850 H   0  0  0  0  0  0  0  0  0  0  0  0
   58.5588   24.7021   47.5928 H   0  0  0  0  0  0  0  0  0  0  0  0
   60.7398   25.9173   47.5286 H   0  0  0  0  0  0  0  0  0  0  0  0
   61.0241   27.9059   46.0467 H   0  0  0  0  0  0  0  0  0  0  0  0
   59.6792   29.8145   44.9096 H   0  0  0  0  0  0  0  0  0  0  0  0
   59.7417   28.7077   43.4873 H   0  0  0  0  0  0  0  0  0  0  0  0
   58.8933   29.8766   46.9995 H   0  0  0  0  0  0  0  0  0  0  0  0
   61.1129   30.7431   47.7326 H   0  0  0  0  0  0  0  0  0  0  0  0
   64.2667   32.6084   49.1141 H   0  0  0  0  0  0  0  0  0  0  0  0
   63.6732   33.4771   50.6146 H   0  0  0  0  0  0  0  0  0  0  0  0
   62.8828   30.7997   49.4965 H   0  0  0  0  0  0  0  0  0  0  0  0
   63.2319   31.3428   51.2071 H   0  0  0  0  0  0  0  0  0  0  0  0
   60.6947   31.3747   49.6462 H   0  0  0  0  0  0  0  0  0  0  0  0
   61.3366   31.0261   52.5844 H   0  0  0  0  0  0  0  0  0  0  0  0
   59.6713   31.0003   51.8153 H   0  0  0  0  0  0  0  0  0  0  0  0
   60.3040   29.5161   49.3041 H   0  0  0  0  0  0  0  0  0  0  0  0
   60.5037   27.0758   48.8270 H   0  0  0  0  0  0  0  0  0  0  0  0
   61.2193   25.5016   50.6280 H   0  0  0  0  0  0  0  0  0  0  0  0
   61.7396   26.3703   52.9089 H   0  0  0  0  0  0  0  0  0  0  0  0
   61.5250   28.8065   53.4008 H   0  0  0  0  0  0  0  0  0  0  0  0
   59.7700   33.2624   50.9694 H   0  0  0  0  0  0  0  0  0  0  0  0
   61.4227   33.6032   51.5941 H   0  0  0  0  0  0  0  0  0  0  0  0
   60.4039   33.7631   48.7233 H   0  0  0  0  0  0  0  0  0  0  0  0
   61.1458   35.0658   49.7721 H   0  0  0  0  0  0  0  0  0  0  0  0
   60.3324   34.4746   45.6821 H   0  0  0  0  0  0  0  0  0  0  0  0
   58.1057   33.6169   44.9647 H   0  0  0  0  0  0  0  0  0  0  0  0
   56.9152   27.5000   44.7263 H   0  0  0  0  0  0  0  0  0  0  0  0
  1  2  1  0
  2  3  2  0
  2  4  2  0
  2  5  1  0
  5  6  2  0
  6  7  1  0
  7  8  2  0
  8  9  1  0
  9 10  1  0
 10 11  1  0
 11 12  1  0
 12 13  2  0
 12 14  1  0
 14 15  1  0
 15 16  2  0
 16 17  1  0
 17 18  2  0
 18 19  1  0
 19 20  2  0
 19 21  2  0
 19 22  1  0
 22 23  1  0
 23 24  1  0
 24 25  1  0
 25 26  1  0
 26 27  1  0
 27 28  2  0
 28 29  1  0
 29 30  2  0
 30 31  1  0
 31 32  2  0
 25 33  1  0
 33 34  1  0
 18 35  1  0
 35 36  2  0
  9 37  2  0
 37  5  1  0
 36 15  1  0
 34 22  1  0
 32 27  1  0
  1 38  1  0
  6 39  1  0
  7 40  1  0
  8 41  1  0
 10 42  1  0
 10 43  1  0
 16 44  1  0
 17 45  1  0
 23 46  1  0
 23 47  1  0
 24 48  1  0
 24 49  1  0
 25 50  1  0
 26 51  1  0
 26 52  1  0
 28 53  1  0
 29 54  1  0
 30 55  1  0
 31 56  1  0
 32 57  1  0
 33 58  1  0
 33 59  1  0
 34 60  1  0
 34 61  1  0
 35 62  1  0
 36 63  1  0
 37 64  1  0
M  CHG  3   1  -1  11  -1  14  -1
M  END
>  <UniqueID>  (33) 
31

>  <SMILES>  (33) 
[NH-]S(=O)(=O)c1cccc(C[N-]C(=O)[N-]c2ccc(S(=O)(=O)N3CCC(Cc4ccccc4)CC3)cc2)c1

>  <Energy>  (33) 
75.43512540985928

>  <Genealogy>  (33) 
[NH-]S(=O)(=O)c1cccc(C[N-]C(=O)[N-]c2ccc(S(=O)(=O)N3CCC(Cc4ccccc4)CC3)cc2)c1 (protonated)
[NH-]S(=O)(=O)c1cccc(C[N-]C(=O)[N-]c2ccc(S(=O)(=O)N3CCC(Cc4ccccc4)CC3)cc2)c1 (3D coordinates assigned)
[NH-]S(=O)(=O)c1cccc(C[N-]C(=O)[N-]c2ccc(S(=O)(=O)N3CCC(Cc4ccccc4)CC3)cc2)c1 (nonaromatic ring conformer: 75.43512540985928 kcal/mol)

>  <smiles>  (33) 
NS(=O)(=O)c1cccc(CNC(=O)Nc2ccc(S(=O)(=O)N3CCC(Cc4ccccc4)CC3)cc2)c1

>  <score_type>  (33) 
oracle

>  <origin>  (33) 
adg

>  <m_score__min__energy>  (33) 
-15.51

>  <m_primary>  (33) 
energy

$$$$
33:0
     RDKit          3D

 50 53  0  0  0  0  0  0  0  0999 V2000
   57.8326   27.4009   42.9075 H   0  0  0  0  0  0  0  0  0  0  0  0
   57.7760   28.0400   43.8010 C   0  0  0  0  0  0  0  0  0  0  0  0
   57.3160   29.3110   43.6970 N   0  0  0  0  0  0  0  0  0  0  0  0
   57.2340   30.1230   44.7870 C   0  0  0  0  0  0  0  0  0  0  0  0
   56.7950   31.3430   44.6880 N   0  0  0  0  0  0  0  0  0  0  0  0
   57.5450   32.4690   44.2050 C   0  0  0  0  0  0  0  0  0  0  0  0
   57.5430   32.7140   42.9700 O   0  0  0  0  0  0  0  0  0  0  0  0
   58.3530   33.3170   45.1040 C   0  0  0  0  0  0  0  0  0  0  0  0
   58.6660   34.9510   44.8660 S   0  0  0  0  0  0  0  0  0  0  0  0
   59.6310   35.1650   46.2270 C   0  0  0  0  0  0  0  0  0  0  0  0
   60.1101   36.1057   46.5362 H   0  0  0  0  0  0  0  0  0  0  0  0
   59.7190   33.9460   46.8950 C   0  0  0  0  0  0  0  0  0  0  0  0
   60.4810   33.7780   48.1440 C   0  0  0  0  0  0  0  0  0  0  0  0
   59.8730   33.7790   49.2470 O   0  0  0  0  0  0  0  0  0  0  0  0
   61.8930   33.5510   48.1230 N   0  0  0  0  0  0  0  0  0  0  0  0
   62.9400   33.1830   47.1490 C   0  0  0  0  0  0  0  0  0  0  0  0
   62.6941   32.2710   46.5853 H   0  0  0  0  0  0  0  0  0  0  0  0
   63.1455   33.8987   46.3394 H   0  0  0  0  0  0  0  0  0  0  0  0
   64.0210   32.9650   48.1550 C   0  0  0  0  0  0  0  0  0  0  0  0
   64.3940   31.9333   48.2348 H   0  0  0  0  0  0  0  0  0  0  0  0
   65.0077   33.4492   48.1108 H   0  0  0  0  0  0  0  0  0  0  0  0
   62.9520   33.3400   49.1260 C   0  0  0  0  0  0  0  0  0  0  0  0
   62.7143   32.5285   49.8295 H   0  0  0  0  0  0  0  0  0  0  0  0
   63.1674   34.1750   49.8089 H   0  0  0  0  0  0  0  0  0  0  0  0
   59.0300   32.9080   46.2490 C   0  0  0  0  0  0  0  0  0  0  0  0
   59.1130   31.6110   46.6350 F   0  0  0  0  0  0  0  0  0  0  0  0
   57.6360   29.6580   45.9990 N   0  0  0  0  0  0  0  0  0  0  0  0
   58.0980   28.3880   46.1660 C   0  0  0  0  0  0  0  0  0  0  0  0
   58.5150   27.9630   47.4900 N   0  0  1  0  0  0  0  0  0  0  0  0
   57.8110   28.2900   48.1900 H   0  0  0  0  0  0  0  0  0  0  0  0
   58.5840   26.5420   47.5840 C   0  0  0  0  0  0  0  0  0  0  0  0
   57.5800   25.7950   47.4340 O   0  0  0  0  0  0  0  0  0  0  0  0
   59.8300   26.0480   47.8900 O   0  0  0  0  0  0  0  0  0  0  0  0
   60.7520   27.1100   47.9980 C   0  0  0  0  0  0  0  0  0  0  0  0
   61.5152   27.0414   47.2088 H   0  0  0  0  0  0  0  0  0  0  0  0
   61.2895   27.0950   48.9576 H   0  0  0  0  0  0  0  0  0  0  0  0
   59.9020   28.3980   47.8250 C   0  0  2  0  0  0  0  0  0  0  0  0
   60.3013   29.0192   47.0098 H   0  0  0  0  0  0  0  0  0  0  0  0
   59.9730   29.3300   49.0760 C   0  0  0  0  0  0  0  0  0  0  0  0
   59.8358   28.6622   49.9392 H   0  0  0  0  0  0  0  0  0  0  0  0
   58.8390   30.3710   49.1600 C   0  0  0  0  0  0  0  0  0  0  0  0
   58.6109   30.5804   50.2155 H   0  0  0  0  0  0  0  0  0  0  0  0
   59.1558   31.2993   48.6622 H   0  0  0  0  0  0  0  0  0  0  0  0
   57.9411   29.9761   48.6622 H   0  0  0  0  0  0  0  0  0  0  0  0
   61.3400   30.0240   49.1700 C   0  0  0  0  0  0  0  0  0  0  0  0
   61.6097   30.1609   50.2276 H   0  0  0  0  0  0  0  0  0  0  0  0
   62.1012   29.4032   48.6749 H   0  0  0  0  0  0  0  0  0  0  0  0
   61.2881   31.0049   48.6749 H   0  0  0  0  0  0  0  0  0  0  0  0
   58.1770   27.5430   45.0390 C   0  0  0  0  0  0  0  0  0  0  0  0
   58.6370   26.2700   45.1300 F   0  0  0  0  0  0  0  0  0  0  0  0
  1  2  1  0
  2  3  1  0
  3  4  1  0
  4  5  2  0
  5  6  1  0
  6  7  2  0
  6  8  1  0
  8  9  1  0
  9 10  1  0
 10 11  1  0
 10 12  2  0
 12 13  1  0
 13 14  2  0
 13 15  1  0
 15 16  1  0
 16 17  1  0
 16 18  1  0
 16 19  1  0
 19 20  1  0
 19 21  1  0
 19 22  1  0
 22 23  1  0
 22 24  1  0
 12 25  1  0
 25 26  1  0
  4 27  1  0
 27 28  2  0
 28 29  1  0
 29 30  1  1
 29 31  1  0
 31 32  2  0
 31 33  1  0
 33 34  1  0
 34 35  1  0
 34 36  1  0
 34 37  1  0
 37 38  1  6
 37 39  1  0
 39 40  1  0
 39 41  1  0
 41 42  1  0
 41 43  1  0
 41 44  1  0
 39 45  1  0
 45 46  1  0
 45 47  1  0
 45 48  1  0
 28 49  1  0
 49 50  1  0
 49  2  2  0
 25  8  2  0
 37 29  1  0
 22 15  1  0
M  CHG  2   3  -1  29   1
M  END
>  <UniqueID>  (34) 
32

>  <SMILES>  (34) 
CC(C)[C@H]1COC(=O)[N@@H+]1c1n/c(=N/C(=O)c2scc(C(=O)N3CCC3)c2F)[n-]cc1F

>  <Energy>  (34) 
144.7877204027964

>  <Genealogy>  (34) 
CC(C)C1COC(=O)[NH+]1c1nc(=NC(=O)c2scc(C(=O)N3CCC3)c2F)[n-]cc1F (protonated)
CC(C)[C@H]1COC(=O)[N@@H+]1c1nc(=NC(=O)c2scc(C(=O)N3CCC3)c2F)[n-]cc1F (chirality)
CC(C)[C@H]1COC(=O)[N@@H+]1c1n/c(=N/C(=O)c2scc(C(=O)N3CCC3)c2F)[n-]cc1F (cis-trans isomerization)
CC(C)[C@H]1COC(=O)[N@@H+]1c1n/c(=N/C(=O)c2scc(C(=O)N3CCC3)c2F)[n-]cc1F (3D coordinates assigned)
CC(C)[C@H]1COC(=O)[N@@H+]1c1n/c(=N/C(=O)c2scc(C(=O)N3CCC3)c2F)[n-]cc1F (nonaromatic ring conformer: 144.7877204027964 kcal/mol)

>  <smiles>  (34) 
CC(C)C1COC(=O)N1c1nc(=NC(=O)c2scc(C(=O)N3CCC3)c2F)[nH]cc1F

>  <score_type>  (34) 
oracle

>  <origin>  (34) 
adg

>  <m_score__min__energy>  (34) 
-8.6099999999999994

>  <m_primary>  (34) 
energy

$$$$
34:0
     RDKit          3D

 58 62  0  0  0  0  0  0  0  0999 V2000
   57.0523   30.1540   55.4397 H   0  0  0  0  0  0  0  0  0  0  0  0
   55.9800   29.9090   55.4520 C   0  0  0  0  0  0  0  0  0  0  0  0
   55.5225   29.4876   56.3592 H   0  0  0  0  0  0  0  0  0  0  0  0
   55.2340   30.1230   54.3660 C   0  0  0  0  0  0  0  0  0  0  0  0
   53.9100   29.8370   54.3340 N   0  0  0  0  0  0  0  0  0  0  0  0
   53.5080   30.2340   53.1060 C   0  0  0  0  0  0  0  0  0  0  0  0
   52.2560   30.1550   52.6380 C   0  0  0  0  0  0  0  0  0  0  0  0
   51.4774   29.8005   53.3295 H   0  0  0  0  0  0  0  0  0  0  0  0
   51.8390   30.5070   51.2650 C   0  0  0  0  0  0  0  0  0  0  0  0
   51.9950   29.6580   50.2260 N   0  0  0  0  0  0  0  0  0  0  0  0
   51.4390   30.3090   49.1830 C   0  0  0  0  0  0  0  0  0  0  0  0
   51.4060   29.8300   48.0190 O   0  0  0  0  0  0  0  0  0  0  0  0
   50.9160   31.5060   49.5110 N   0  0  0  0  0  0  0  0  0  0  0  0
   50.2940   32.4760   48.6210 C   0  0  0  0  0  0  0  0  0  0  0  0
   49.7952   33.2539   49.2176 H   0  0  0  0  0  0  0  0  0  0  0  0
   51.0645   32.9383   47.9865 H   0  0  0  0  0  0  0  0  0  0  0  0
   49.5524   31.9686   47.9865 H   0  0  0  0  0  0  0  0  0  0  0  0
   51.1640   31.6340   50.8240 C   0  0  0  0  0  0  0  0  0  0  0  0
   50.7410   32.7120   51.5950 O   0  0  0  0  0  0  0  0  0  0  0  0
   54.5900   30.7590   52.4300 C   0  0  0  0  0  0  0  0  0  0  0  0
   54.5850   31.2090   51.2540 O   0  0  0  0  0  0  0  0  0  0  0  0
   55.6830   30.6840   53.2110 N   0  0  0  0  0  0  0  0  0  0  0  0
   57.0180   31.0900   52.8560 C   0  0  0  0  0  0  0  0  0  0  0  0
   57.6490   32.1240   53.5650 C   0  0  0  0  0  0  0  0  0  0  0  0
   57.1366   32.5982   54.4150 H   0  0  0  0  0  0  0  0  0  0  0  0
   58.9270   32.5530   53.1940 C   0  0  0  0  0  0  0  0  0  0  0  0
   59.4240   33.3525   53.7630 H   0  0  0  0  0  0  0  0  0  0  0  0
   59.5740   31.9690   52.1030 C   0  0  0  0  0  0  0  0  0  0  0  0
   60.5830   32.3044   51.8210 H   0  0  0  0  0  0  0  0  0  0  0  0
   58.9420   30.9550   51.3640 C   0  0  0  0  0  0  0  0  0  0  0  0
   59.6240   30.3780   50.1850 C   0  0  0  0  0  0  0  0  0  0  0  0
   60.6140   29.6170   50.3770 O   0  0  0  0  0  0  0  0  0  0  0  0
   59.2230   30.6970   48.8330 N   0  0  0  0  0  0  0  0  0  0  0  0
   58.5430   31.9710   48.5500 C   0  0  0  0  0  0  0  0  0  0  0  0
   57.4681   31.8533   48.7517 H   0  0  0  0  0  0  0  0  0  0  0  0
   58.9841   32.7447   49.1956 H   0  0  0  0  0  0  0  0  0  0  0  0
   58.7290   32.4030   47.0960 C   0  0  0  0  0  0  0  0  0  0  0  0
   58.0699   33.2575   46.8828 H   0  0  0  0  0  0  0  0  0  0  0  0
   59.7783   32.6921   46.9369 H   0  0  0  0  0  0  0  0  0  0  0  0
   58.3940   31.2960   46.1970 N   0  0  0  0  0  0  0  0  0  0  0  0
   57.6250   31.5460   45.0080 C   0  0  0  0  0  0  0  0  0  0  0  0
   56.6330   32.3210   45.0550 O   0  0  0  0  0  0  0  0  0  0  0  0
   57.9590   30.8630   43.7150 C   0  0  0  0  0  0  0  0  0  0  0  0
   58.9311   30.4569   44.0313 H   0  0  0  0  0  0  0  0  0  0  0  0
   57.4400   31.5740   42.4680 C   0  0  0  0  0  0  0  0  0  0  0  0
   56.9480   32.5536   42.5588 H   0  0  0  0  0  0  0  0  0  0  0  0
   57.8827   31.8842   41.5100 H   0  0  0  0  0  0  0  0  0  0  0  0
   56.7400   30.3250   42.9700 C   0  0  0  0  0  0  0  0  0  0  0  0
   55.7411   30.4000   43.4244 H   0  0  0  0  0  0  0  0  0  0  0  0
   56.4661   29.3566   42.5260 H   0  0  0  0  0  0  0  0  0  0  0  0
   58.8460   29.9370   46.5010 C   0  0  0  0  0  0  0  0  0  0  0  0
   57.9666   29.3056   46.6962 H   0  0  0  0  0  0  0  0  0  0  0  0
   59.4172   29.5677   45.6365 H   0  0  0  0  0  0  0  0  0  0  0  0
   59.7650   29.8980   47.7270 C   0  0  0  0  0  0  0  0  0  0  0  0
   59.8731   28.8550   48.0593 H   0  0  0  0  0  0  0  0  0  0  0  0
   60.7391   30.3215   47.4410 H   0  0  0  0  0  0  0  0  0  0  0  0
   57.6730   30.5020   51.7610 C   0  0  0  0  0  0  0  0  0  0  0  0
   57.1890   29.6815   51.2110 H   0  0  0  0  0  0  0  0  0  0  0  0
  1  2  1  0
  2  3  1  0
  2  4  2  0
  4  5  1  0
  5  6  1  0
  6  7  2  0
  7  8  1  0
  7  9  1  0
  9 10  1  0
 10 11  1  0
 11 12  2  0
 11 13  1  0
 13 14  1  0
 14 15  1  0
 14 16  1  0
 14 17  1  0
 13 18  1  0
 18 19  1  0
  6 20  1  0
 20 21  2  0
 20 22  1  0
 22 23  1  0
 23 24  2  0
 24 25  1  0
 24 26  1  0
 26 27  1  0
 26 28  2  0
 28 29  1  0
 28 30  1  0
 30 31  1  0
 31 32  2  0
 31 33  1  0
 33 34  1  0
 34 35  1  0
 34 36  1  0
 34 37  1  0
 37 38  1  0
 37 39  1  0
 37 40  1  0
 40 41  1  0
 41 42  2  0
 41 43  1  0
 43 44  1  0
 43 45  1  0
 45 46  1  0
 45 47  1  0
 45 48  1  0
 48 49  1  0
 48 50  1  0
 40 51  1  0
 51 52  1  0
 51 53  1  0
 51 54  1  0
 54 55  1  0
 54 56  1  0
 30 57  2  0
 57 58  1  0
 22  4  1  0
 57 23  1  0
 18  9  2  0
 54 33  1  0
 48 43  1  0
M  CHG  3   5  -1  10  -1  19  -1
M  END
>  <UniqueID>  (35) 
33

>  <SMILES>  (35) 
C=c1[n-]/c(=C\c2[n-]c(=O)n(C)c2[O-])c(=O)n1-c1cccc(C(=O)N2CCN(C(=O)C3CC3)CC2)c1

>  <Energy>  (35) 
407.95091203930866

>  <Genealogy>  (35) 
C=c1[n-]c(=Cc2[n-]c(=O)n(C)c2[O-])c(=O)n1-c1cccc(C(=O)N2CCN(C(=O)C3CC3)CC2)c1 (protonated)
C=c1[n-]/c(=C\c2[n-]c(=O)n(C)c2[O-])c(=O)n1-c1cccc(C(=O)N2CCN(C(=O)C3CC3)CC2)c1 (cis-trans isomerization)
C=c1[n-]/c(=C\c2[n-]c(=O)n(C)c2[O-])c(=O)n1-c1cccc(C(=O)N2CCN(C(=O)C3CC3)CC2)c1 (3D coordinates assigned)
C=c1[n-]/c(=C\c2[n-]c(=O)n(C)c2[O-])c(=O)n1-c1cccc(C(=O)N2CCN(C(=O)C3CC3)CC2)c1 (nonaromatic ring conformer: 407.95091203930866 kcal/mol)

>  <smiles>  (35) 
C=c1[nH]c(=Cc2[nH]c(=O)n(C)c2O)c(=O)n1-c1cccc(C(=O)N2CCN(C(=O)C3CC3)CC2)c1

>  <score_type>  (35) 
oracle

>  <origin>  (35) 
adg

>  <m_score__min__energy>  (35) 
-17.16

>  <m_primary>  (35) 
energy

$$$$
35:0
     RDKit          3D

 68 72  0  0  0  0  0  0  0  0999 V2000
   57.4150   32.7170   43.2500 O   0  0  0  0  0  0  0  0  0  0  0  0
   57.4020   32.7860   44.5090 C   0  0  0  0  0  0  0  0  0  0  0  0
   57.4730   34.1130   45.1960 C   0  0  0  0  0  0  0  0  0  0  0  0
   58.6890   34.1460   46.0830 C   0  0  0  0  0  0  0  0  0  0  0  0
   58.5640   33.9930   47.4720 C   0  0  0  0  0  0  0  0  0  0  0  0
   59.7030   33.9280   48.2810 C   0  0  0  0  0  0  0  0  0  0  0  0
   60.9890   33.9990   47.7140 C   0  0  0  0  0  0  0  0  0  0  0  0
   62.1640   33.8690   48.5450 N   0  0  0  0  0  0  0  0  0  0  0  0
   62.0700   34.0510   49.9990 C   0  0  0  0  0  0  0  0  0  0  0  0
   63.2580   33.3770   50.6930 C   0  0  0  0  0  0  0  0  0  0  0  0
   63.5460   32.1530   50.0460 O   0  0  0  0  0  0  0  0  0  0  0  0
   64.1250   32.3780   48.7690 C   0  0  0  0  0  0  0  0  0  0  0  0
   63.4820   33.5440   47.9800 C   0  0  0  0  0  0  0  0  0  0  0  0
   61.1080   34.1400   46.3200 C   0  0  0  0  0  0  0  0  0  0  0  0
   59.9710   34.2250   45.5150 C   0  0  0  0  0  0  0  0  0  0  0  0
   57.2480   31.5990   45.2910 N   0  0  0  0  0  0  0  0  0  0  0  0
   58.1410   30.4780   45.2520 C   0  0  0  0  0  0  0  0  0  0  0  0
   59.4480   30.5620   45.7620 C   0  0  0  0  0  0  0  0  0  0  0  0
   60.3230   29.4860   45.6220 C   0  0  0  0  0  0  0  0  0  0  0  0
   59.9120   28.3200   44.9730 C   0  0  0  0  0  0  0  0  0  0  0  0
   58.6010   28.2060   44.4580 C   0  0  0  0  0  0  0  0  0  0  0  0
   58.1210   26.9710   43.7690 C   0  0  0  0  0  0  0  0  0  0  0  0
   58.5100   26.7520   42.5860 O   0  0  0  0  0  0  0  0  0  0  0  0
   57.3000   25.9790   44.4430 N   0  0  0  0  0  0  0  0  0  0  0  0
   57.6870   24.6030   44.0590 C   0  0  0  0  0  0  0  0  0  0  0  0
   56.6580   23.6020   44.6000 C   0  0  0  0  0  0  0  0  0  0  0  0
   56.2430   23.9660   45.9590 N   0  0  0  0  0  0  0  0  0  0  0  0
   55.2340   23.1860   46.6160 C   0  0  0  0  0  0  0  0  0  0  0  0
   53.9320   23.1310   46.0940 C   0  0  0  0  0  0  0  0  0  0  0  0
   52.9500   22.3610   46.7250 C   0  0  0  0  0  0  0  0  0  0  0  0
   53.2640   21.6350   47.8760 C   0  0  0  0  0  0  0  0  0  0  0  0
   54.5610   21.6780   48.3970 C   0  0  0  0  0  0  0  0  0  0  0  0
   55.5450   22.4530   47.7750 C   0  0  0  0  0  0  0  0  0  0  0  0
   56.8070   22.4620   48.2780 F   0  0  0  0  0  0  0  0  0  0  0  0
   57.0450   24.9180   46.7360 C   0  0  0  0  0  0  0  0  0  0  0  0
   57.3820   26.1810   45.9140 C   0  0  0  0  0  0  0  0  0  0  0  0
   57.7300   29.3060   44.6030 C   0  0  0  0  0  0  0  0  0  0  0  0
   57.5438   34.9132   44.4445 H   0  0  0  0  0  0  0  0  0  0  0  0
   56.5682   34.2641   45.8030 H   0  0  0  0  0  0  0  0  0  0  0  0
   57.5650   33.9238   47.9271 H   0  0  0  0  0  0  0  0  0  0  0  0
   59.5926   33.8204   49.3701 H   0  0  0  0  0  0  0  0  0  0  0  0
   62.0749   35.1260   50.2320 H   0  0  0  0  0  0  0  0  0  0  0  0
   61.1366   33.5937   50.3590 H   0  0  0  0  0  0  0  0  0  0  0  0
   64.1369   34.0363   50.6394 H   0  0  0  0  0  0  0  0  0  0  0  0
   63.0083   33.1860   51.7471 H   0  0  0  0  0  0  0  0  0  0  0  0
   65.1927   32.6028   48.9086 H   0  0  0  0  0  0  0  0  0  0  0  0
   63.9565   31.4650   48.1791 H   0  0  0  0  0  0  0  0  0  0  0  0
   64.1330   34.4285   48.0425 H   0  0  0  0  0  0  0  0  0  0  0  0
   63.3594   33.2436   46.9289 H   0  0  0  0  0  0  0  0  0  0  0  0
   62.1062   34.1837   45.8598 H   0  0  0  0  0  0  0  0  0  0  0  0
   60.0798   34.3548   44.4281 H   0  0  0  0  0  0  0  0  0  0  0  0
   59.7808   31.4779   46.2722 H   0  0  0  0  0  0  0  0  0  0  0  0
   61.3440   29.5559   46.0254 H   0  0  0  0  0  0  0  0  0  0  0  0
   60.6157   27.4819   44.8615 H   0  0  0  0  0  0  0  0  0  0  0  0
   56.3080   26.0990   44.1340 H   0  0  0  0  0  0  0  0  0  0  0  0
   57.7275   24.5279   42.9623 H   0  0  0  0  0  0  0  0  0  0  0  0
   58.6751   24.3724   44.4837 H   0  0  0  0  0  0  0  0  0  0  0  0
   55.7765   23.5996   43.9420 H   0  0  0  0  0  0  0  0  0  0  0  0
   57.1178   22.6031   44.6270 H   0  0  0  0  0  0  0  0  0  0  0  0
   53.6830   23.6965   45.1840 H   0  0  0  0  0  0  0  0  0  0  0  0
   51.9299   22.3271   46.3147 H   0  0  0  0  0  0  0  0  0  0  0  0
   52.4914   21.0296   48.3725 H   0  0  0  0  0  0  0  0  0  0  0  0
   54.8082   21.1000   49.2996 H   0  0  0  0  0  0  0  0  0  0  0  0
   56.4785   25.2151   47.6309 H   0  0  0  0  0  0  0  0  0  0  0  0
   57.9889   24.4263   47.0139 H   0  0  0  0  0  0  0  0  0  0  0  0
   56.6758   26.9763   46.1948 H   0  0  0  0  0  0  0  0  0  0  0  0
   58.4251   26.4440   46.1437 H   0  0  0  0  0  0  0  0  0  0  0  0
   56.7088   29.2426   44.1990 H   0  0  0  0  0  0  0  0  0  0  0  0
  1  2  2  0
  2  3  1  0
  3  4  1  0
  4  5  2  0
  5  6  1  0
  6  7  2  0
  7  8  1  0
  8  9  1  0
  9 10  1  0
 10 11  1  0
 11 12  1  0
 12 13  1  0
  7 14  1  0
 14 15  2  0
  2 16  1  0
 16 17  1  0
 17 18  2  0
 18 19  1  0
 19 20  2  0
 20 21  1  0
 21 22  1  0
 22 23  2  0
 22 24  1  0
 24 25  1  0
 25 26  1  0
 26 27  1  0
 27 28  1  0
 28 29  2  0
 29 30  1  0
 30 31  2  0
 31 32  1  0
 32 33  2  0
 33 34  1  0
 27 35  1  0
 35 36  1  0
 21 37  2  0
 15  4  1  0
 37 17  1  0
 13  8  1  0
 36 24  1  0
 33 28  1  0
  3 38  1  0
  3 39  1  0
  5 40  1  0
  6 41  1  0
  9 42  1  0
  9 43  1  0
 10 44  1  0
 10 45  1  0
 12 46  1  0
 12 47  1  0
 13 48  1  0
 13 49  1  0
 14 50  1  0
 15 51  1  0
 18 52  1  0
 19 53  1  0
 20 54  1  0
 24 55  1  0
 25 56  1  0
 25 57  1  0
 26 58  1  0
 26 59  1  0
 29 60  1  0
 30 61  1  0
 31 62  1  0
 32 63  1  0
 35 64  1  0
 35 65  1  0
 36 66  1  0
 36 67  1  0
 37 68  1  0
M  CHG  2  16  -1  24   1
M  END
>  <UniqueID>  (36) 
34

>  <SMILES>  (36) 
O=C(Cc1ccc(N2CCOCC2)cc1)[N-]c1cccc(C(=O)[NH+]2CCN(c3ccccc3F)CC2)c1

>  <Energy>  (36) 
103.64224566061239

>  <Genealogy>  (36) 
O=C(Cc1ccc(N2CCOCC2)cc1)[N-]c1cccc(C(=O)[NH+]2CCN(c3ccccc3F)CC2)c1 (protonated)
O=C(Cc1ccc(N2CCOCC2)cc1)[N-]c1cccc(C(=O)[NH+]2CCN(c3ccccc3F)CC2)c1 (3D coordinates assigned)
O=C(Cc1ccc(N2CCOCC2)cc1)[N-]c1cccc(C(=O)[NH+]2CCN(c3ccccc3F)CC2)c1 (nonaromatic ring conformer: 103.64224566061239 kcal/mol)

>  <smiles>  (36) 
O=C(Cc1ccc(N2CCOCC2)cc1)Nc1cccc(C(=O)N2CCN(c3ccccc3F)CC2)c1

>  <score_type>  (36) 
oracle

>  <origin>  (36) 
adg

>  <m_score__min__energy>  (36) 
-9.9800000000000004

>  <m_primary>  (36) 
energy

$$$$
36:0
     RDKit          3D

 52 55  0  0  0  0  0  0  0  0999 V2000
   59.2840   31.2560   45.6420 H   0  0  0  0  0  0  0  0  0  0  0  0
   58.9550   30.2770   45.4910 N   0  0  0  0  0  0  0  0  0  0  0  0
   57.7660   29.9940   45.0560 C   0  0  0  0  0  0  0  0  0  0  0  0
   56.9800   30.7700   44.2110 C   0  0  0  0  0  0  0  0  0  0  0  0
   57.3170   32.0350   43.5230 C   0  0  0  0  0  0  0  0  0  0  0  0
   57.3760   32.0590   42.2660 O   0  0  0  0  0  0  0  0  0  0  0  0
   57.4850   33.2670   44.2420 N   0  0  0  0  0  0  0  0  0  0  0  0
   58.1750   33.4300   45.3340 C   0  0  0  0  0  0  0  0  0  0  0  0
   57.8890   32.7210   46.4620 N   0  0  0  0  0  0  0  0  0  0  0  0
   58.6010   32.8710   47.6100 C   0  0  0  0  0  0  0  0  0  0  0  0
   58.3367   32.2809   48.4999 H   0  0  0  0  0  0  0  0  0  0  0  0
   59.6720   33.7760   47.6640 C   0  0  0  0  0  0  0  0  0  0  0  0
   60.4620   33.9440   48.9030 C   0  0  0  0  0  0  0  0  0  0  0  0
   59.8590   34.0730   50.0040 O   0  0  0  0  0  0  0  0  0  0  0  0
   61.9000   33.9530   48.8780 N   0  0  0  0  0  0  0  0  0  0  0  0
   62.6450   34.8610   49.7620 C   0  0  0  0  0  0  0  0  0  0  0  0
   63.2447   35.5526   49.1520 H   0  0  0  0  0  0  0  0  0  0  0  0
   61.9331   35.4290   50.3789 H   0  0  0  0  0  0  0  0  0  0  0  0
   63.5740   34.0560   50.6780 C   0  0  0  0  0  0  0  0  0  0  0  0
   64.3225   34.7344   51.1133 H   0  0  0  0  0  0  0  0  0  0  0  0
   62.9634   33.5897   51.4652 H   0  0  0  0  0  0  0  0  0  0  0  0
   64.2680   32.9890   49.9390 N   0  0  0  0  0  0  0  0  0  0  0  0
   65.0360   32.0070   50.6600 C   0  0  0  0  0  0  0  0  0  0  0  0
   66.4380   32.1000   50.7180 C   0  0  0  0  0  0  0  0  0  0  0  0
   66.9517   32.9340   50.2174 H   0  0  0  0  0  0  0  0  0  0  0  0
   67.1830   31.1390   51.4080 C   0  0  0  0  0  0  0  0  0  0  0  0
   68.2792   31.2199   51.4509 H   0  0  0  0  0  0  0  0  0  0  0  0
   66.5360   30.0760   52.0430 C   0  0  0  0  0  0  0  0  0  0  0  0
   67.1228   29.3214   52.5873 H   0  0  0  0  0  0  0  0  0  0  0  0
   65.1440   29.9710   51.9870 C   0  0  0  0  0  0  0  0  0  0  0  0
   64.6360   29.1331   52.4869 H   0  0  0  0  0  0  0  0  0  0  0  0
   64.3950   30.9300   51.2960 C   0  0  0  0  0  0  0  0  0  0  0  0
   63.2996   30.8405   51.2504 H   0  0  0  0  0  0  0  0  0  0  0  0
   64.1090   32.8910   48.4810 C   0  0  0  0  0  0  0  0  0  0  0  0
   64.6140   33.7418   48.0002 H   0  0  0  0  0  0  0  0  0  0  0  0
   64.5550   31.9493   48.1285 H   0  0  0  0  0  0  0  0  0  0  0  0
   62.6200   32.9130   48.1210 C   0  0  0  0  0  0  0  0  0  0  0  0
   62.5147   33.1157   47.0450 H   0  0  0  0  0  0  0  0  0  0  0  0
   62.1868   31.9350   48.3776 H   0  0  0  0  0  0  0  0  0  0  0  0
   60.0040   34.4880   46.5020 C   0  0  0  0  0  0  0  0  0  0  0  0
   60.8576   35.1818   46.5092 H   0  0  0  0  0  0  0  0  0  0  0  0
   59.2550   34.3190   45.3370 C   0  0  0  0  0  0  0  0  0  0  0  0
   59.5121   34.8811   44.4270 H   0  0  0  0  0  0  0  0  0  0  0  0
   55.7960   30.0530   44.0970 C   0  0  0  0  0  0  0  0  0  0  0  0
   54.9237   30.3517   43.4971 H   0  0  0  0  0  0  0  0  0  0  0  0
   55.8880   28.9320   44.8400 N   0  0  0  0  0  0  0  0  0  0  0  0
   55.1430   28.2090   44.9550 H   0  0  0  0  0  0  0  0  0  0  0  0
   57.0820   28.8890   45.4100 N   0  0  0  0  0  0  0  0  0  0  0  0
   57.5130   27.8530   46.3440 C   0  0  0  0  0  0  0  0  0  0  0  0
   57.3664   28.2054   47.3757 H   0  0  0  0  0  0  0  0  0  0  0  0
   56.9194   26.9415   46.1800 H   0  0  0  0  0  0  0  0  0  0  0  0
   58.5779   27.6315   46.1800 H   0  0  0  0  0  0  0  0  0  0  0  0
  1  2  1  0
  2  3  2  3
  3  4  1  0
  4  5  1  0
  5  6  2  0
  5  7  1  0
  7  8  2  0
  8  9  1  0
  9 10  1  0
 10 11  1  0
 10 12  2  0
 12 13  1  0
 13 14  2  0
 13 15  1  0
 15 16  1  0
 16 17  1  0
 16 18  1  0
 16 19  1  0
 19 20  1  0
 19 21  1  0
 19 22  1  0
 22 23  1  0
 23 24  2  0
 24 25  1  0
 24 26  1  0
 26 27  1  0
 26 28  2  0
 28 29  1  0
 28 30  1  0
 30 31  1  0
 30 32  2  0
 32 33  1  0
 22 34  1  0
 34 35  1  0
 34 36  1  0
 34 37  1  0
 37 38  1  0
 37 39  1  0
 12 40  1  0
 40 41  1  0
 40 42  2  0
 42 43  1  0
  4 44  2  0
 44 45  1  0
 44 46  1  0
 46 47  1  0
 46 48  1  0
 48 49  1  0
 49 50  1  0
 49 51  1  0
 49 52  1  0
 48  3  1  0
 42  8  1  0
 37 15  1  0
 32 23  1  0
M  CHG  1   9  -1
M  END
>  <UniqueID>  (37) 
35

>  <SMILES>  (37) 
Cn1[nH]cc(C(=O)/N=c2/ccc(C(=O)N3CCN(c4ccccc4)CC3)c[n-]2)c1=N

>  <Energy>  (37) 
106.252575823144

>  <Genealogy>  (37) 
Cn1[nH]cc(C(=O)N=c2ccc(C(=O)N3CCN(c4ccccc4)CC3)c[n-]2)c1=N (protonated)
Cn1[nH]cc(C(=O)/N=c2/ccc(C(=O)N3CCN(c4ccccc4)CC3)c[n-]2)c1=N (cis-trans isomerization)
Cn1[nH]cc(C(=O)/N=c2/ccc(C(=O)N3CCN(c4ccccc4)CC3)c[n-]2)c1=N (3D coordinates assigned)
Cn1[nH]cc(C(=O)/N=c2/ccc(C(=O)N3CCN(c4ccccc4)CC3)c[n-]2)c1=N (nonaromatic ring conformer: 106.252575823144 kcal/mol)

>  <smiles>  (37) 
Cn1[nH]cc(C(=O)N=c2ccc(C(=O)N3CCN(c4ccccc4)CC3)c[nH]2)c1=N

>  <score_type>  (37) 
oracle

>  <origin>  (37) 
adg

>  <m_score__min__energy>  (37) 
-9.4600000000000009

>  <m_primary>  (37) 
energy

$$$$
37:0
     RDKit          3D

 58 61  0  0  0  0  0  0  0  0999 V2000
   54.7701   28.3039   54.7826 H   0  0  0  0  0  0  0  0  0  0  0  0
   54.2360   29.0620   54.1910 C   0  0  0  0  0  0  0  0  0  0  0  0
   53.1685   29.2524   54.3761 H   0  0  0  0  0  0  0  0  0  0  0  0
   54.8870   29.7550   53.2430 C   0  0  0  0  0  0  0  0  0  0  0  0
   54.3420   30.7430   52.4180 C   0  0  0  0  0  0  0  0  0  0  0  0
   53.0810   31.2170   52.4340 C   0  0  0  0  0  0  0  0  0  0  0  0
   52.6843   31.5955   53.3876 H   0  0  0  0  0  0  0  0  0  0  0  0
   52.1990   31.2600   51.2520 C   0  0  0  0  0  0  0  0  0  0  0  0
   52.2580   30.3590   50.2560 N   0  0  0  0  0  0  0  0  0  0  0  0
   51.3610   30.8220   49.3600 C   0  0  0  0  0  0  0  0  0  0  0  0
   51.1140   30.2280   48.2780 O   0  0  0  0  0  0  0  0  0  0  0  0
   50.7530   31.9770   49.7100 N   0  0  0  0  0  0  0  0  0  0  0  0
   51.3020   32.2470   50.9050 C   0  0  0  0  0  0  0  0  0  0  0  0
   51.0240   33.3960   51.6350 O   0  0  0  0  0  0  0  0  0  0  0  0
   55.3790   31.1940   51.6150 C   0  0  0  0  0  0  0  0  0  0  0  0
   55.3209   31.9821   50.8498 H   0  0  0  0  0  0  0  0  0  0  0  0
   56.4990   30.4630   51.9610 C   0  0  0  0  0  0  0  0  0  0  0  0
   57.8670   30.6900   51.3730 C   0  0  0  0  0  0  0  0  0  0  0  0
   58.6189   30.2542   52.0474 H   0  0  0  0  0  0  0  0  0  0  0  0
   57.8917   30.2122   50.3825 H   0  0  0  0  0  0  0  0  0  0  0  0
   58.1730   32.1560   51.1870 C   0  0  0  0  0  0  0  0  0  0  0  0
   57.7740   32.9840   52.0530 O   0  0  0  0  0  0  0  0  0  0  0  0
   58.8870   32.6350   50.0260 N   0  0  0  0  0  0  0  0  0  0  0  0
   58.9230   31.8840   48.7640 C   0  0  0  0  0  0  0  0  0  0  0  0
   58.5535   30.8631   48.9409 H   0  0  0  0  0  0  0  0  0  0  0  0
   58.2871   32.3986   48.0286 H   0  0  0  0  0  0  0  0  0  0  0  0
   60.3590   31.8130   48.2120 C   0  0  0  0  0  0  0  0  0  0  0  0
   60.8359   30.9005   48.5991 H   0  0  0  0  0  0  0  0  0  0  0  0
   60.2836   31.8116   47.1146 H   0  0  0  0  0  0  0  0  0  0  0  0
   61.1980   32.9780   48.5900 N   0  0  0  0  0  0  0  0  0  0  0  0
   62.3700   32.7140   49.4690 C   0  0  0  0  0  0  0  0  0  0  0  0
   62.1157   33.1367   50.4522 H   0  0  0  0  0  0  0  0  0  0  0  0
   63.6290   33.4200   48.9020 C   0  0  0  0  0  0  0  0  0  0  0  0
   63.5727   33.4027   47.8036 H   0  0  0  0  0  0  0  0  0  0  0  0
   63.6339   34.4439   49.3039 H   0  0  0  0  0  0  0  0  0  0  0  0
   64.9530   32.7580   49.3330 C   0  0  0  0  0  0  0  0  0  0  0  0
   65.2111   31.9719   48.6081 H   0  0  0  0  0  0  0  0  0  0  0  0
   65.7306   33.5354   49.3650 H   0  0  0  0  0  0  0  0  0  0  0  0
   64.8460   32.1320   50.7270 C   0  0  0  0  0  0  0  0  0  0  0  0
   65.8185   31.6936   50.9955 H   0  0  0  0  0  0  0  0  0  0  0  0
   64.5587   32.9234   51.4349 H   0  0  0  0  0  0  0  0  0  0  0  0
   63.7700   31.0290   50.7810 C   0  0  0  0  0  0  0  0  0  0  0  0
   64.2563   30.0592   50.5994 H   0  0  0  0  0  0  0  0  0  0  0  0
   63.3024   31.0818   51.7753 H   0  0  0  0  0  0  0  0  0  0  0  0
   62.6450   31.2140   49.7400 C   0  0  0  0  0  0  0  0  0  0  0  0
   62.9441   30.7289   48.7992 H   0  0  0  0  0  0  0  0  0  0  0  0
   61.7259   30.7588   50.1376 H   0  0  0  0  0  0  0  0  0  0  0  0
   60.4360   34.2070   48.8930 C   0  0  0  0  0  0  0  0  0  0  0  0
   61.1422   34.9995   49.1815 H   0  0  0  0  0  0  0  0  0  0  0  0
   59.8697   34.4840   47.9916 H   0  0  0  0  0  0  0  0  0  0  0  0
   59.4320   34.0000   50.0350 C   0  0  0  0  0  0  0  0  0  0  0  0
   59.9395   34.1769   50.9948 H   0  0  0  0  0  0  0  0  0  0  0  0
   58.6003   34.7068   49.8985 H   0  0  0  0  0  0  0  0  0  0  0  0
   56.2010   29.5860   52.9510 N   0  0  0  0  0  0  0  0  0  0  0  0
   57.1280   28.6650   53.6180 C   0  0  0  0  0  0  0  0  0  0  0  0
   57.0252   28.7671   54.7084 H   0  0  0  0  0  0  0  0  0  0  0  0
   56.8939   27.6315   53.3228 H   0  0  0  0  0  0  0  0  0  0  0  0
   58.1599   28.9058   53.3228 H   0  0  0  0  0  0  0  0  0  0  0  0
  1  2  1  0
  2  3  1  0
  2  4  2  0
  4  5  1  0
  5  6  2  0
  6  7  1  0
  6  8  1  0
  8  9  1  0
  9 10  1  0
 10 11  2  0
 10 12  1  0
 12 13  1  0
 13 14  1  0
  5 15  1  0
 15 16  1  0
 15 17  2  0
 17 18  1  0
 18 19  1  0
 18 20  1  0
 18 21  1  0
 21 22  2  0
 21 23  1  0
 23 24  1  0
 24 25  1  0
 24 26  1  0
 24 27  1  0
 27 28  1  0
 27 29  1  0
 27 30  1  0
 30 31  1  0
 31 32  1  0
 31 33  1  0
 33 34  1  0
 33 35  1  0
 33 36  1  0
 36 37  1  0
 36 38  1  0
 36 39  1  0
 39 40  1  0
 39 41  1  0
 39 42  1  0
 42 43  1  0
 42 44  1  0
 42 45  1  0
 45 46  1  0
 45 47  1  0
 30 48  1  0
 48 49  1  0
 48 50  1  0
 48 51  1  0
 51 52  1  0
 51 53  1  0
 17 54  1  0
 54 55  1  0
 55 56  1  0
 55 57  1  0
 55 58  1  0
 54  4  1  0
 13  8  2  0
 51 23  1  0
 45 31  1  0
M  CHG  3   9  -1  12  -1  14  -1
M  END
>  <UniqueID>  (38) 
36

>  <SMILES>  (38) 
C=c1/c(=C/c2[n-]c(=O)[n-]c2[O-])cc(CC(=O)N2CCN(C3CCCCC3)CC2)n1C

>  <Energy>  (38) 
141.12554237291823

>  <Genealogy>  (38) 
C=c1c(=Cc2[n-]c(=O)[n-]c2[O-])cc(CC(=O)N2CCN(C3CCCCC3)CC2)n1C (protonated)
C=c1/c(=C/c2[n-]c(=O)[n-]c2[O-])cc(CC(=O)N2CCN(C3CCCCC3)CC2)n1C (cis-trans isomerization)
C=c1/c(=C/c2[n-]c(=O)[n-]c2[O-])cc(CC(=O)N2CCN(C3CCCCC3)CC2)n1C (3D coordinates assigned)
C=c1/c(=C/c2[n-]c(=O)[n-]c2[O-])cc(CC(=O)N2CCN(C3CCCCC3)CC2)n1C (nonaromatic ring conformer: 141.12554237291823 kcal/mol)

>  <smiles>  (38) 
C=c1c(=Cc2[nH]c(=O)[nH]c2O)cc(CC(=O)N2CCN(C3CCCCC3)CC2)n1C

>  <score_type>  (38) 
oracle

>  <origin>  (38) 
adg

>  <m_score__min__energy>  (38) 
-19.530000000000001

>  <m_primary>  (38) 
energy

$$$$
38:0
     RDKit          3D

 48 51  0  0  0  0  0  0  0  0999 V2000
   57.4500   29.9560   43.5300 C   0  0  0  0  0  0  0  0  0  0  0  0
   58.0800   30.1880   44.6930 C   0  0  0  0  0  0  0  0  0  0  0  0
   58.4370   29.2370   45.6630 C   0  0  0  0  0  0  0  0  0  0  0  0
   58.4450   27.8900   45.6240 C   0  0  0  0  0  0  0  0  0  0  0  0
   57.2710   27.0190   45.7960 C   0  0  0  0  0  0  0  0  0  0  0  0
   57.3020   25.7870   46.3380 N   0  0  0  0  0  0  0  0  0  0  0  0
   55.9970   25.4490   46.4200 C   0  0  0  0  0  0  0  0  0  0  0  0
   55.6120   24.3390   46.8700 O   0  0  0  0  0  0  0  0  0  0  0  0
   55.1380   26.3980   45.9910 N   0  0  0  0  0  0  0  0  0  0  0  0
   55.9610   27.3900   45.6150 C   0  0  0  0  0  0  0  0  0  0  0  0
   55.5240   28.6120   45.1220 O   0  0  0  0  0  0  0  0  0  0  0  0
   58.8480   29.9540   46.7730 C   0  0  0  0  0  0  0  0  0  0  0  0
   58.8130   31.2880   46.4250 C   0  0  0  0  0  0  0  0  0  0  0  0
   59.2600   32.3770   47.3160 C   0  0  0  0  0  0  0  0  0  0  0  0
   58.3990   33.1790   47.7700 O   0  0  0  0  0  0  0  0  0  0  0  0
   60.6390   32.5090   47.7150 N   0  0  0  0  0  0  0  0  0  0  0  0
   61.5160   31.3350   47.8440 C   0  0  0  0  0  0  0  0  0  0  0  0
   62.1760   31.3290   49.2260 C   0  0  0  0  0  0  0  0  0  0  0  0
   62.7540   32.6510   49.4990 N   0  0  0  0  0  0  0  0  0  0  0  0
   64.1810   32.8380   49.4960 C   0  0  0  0  0  0  0  0  0  0  0  0
   64.6850   33.7480   48.7830 O   0  0  0  0  0  0  0  0  0  0  0  0
   65.0660   31.9940   50.3240 C   0  0  0  0  0  0  0  0  0  0  0  0
   64.6000   31.0120   51.2160 C   0  0  0  0  0  0  0  0  0  0  0  0
   65.6110   30.3570   51.9020 C   0  0  0  0  0  0  0  0  0  0  0  0
   67.0810   31.0070   51.4120 S   0  0  0  0  0  0  0  0  0  0  0  0
   66.4530   32.1220   50.3240 C   0  0  0  0  0  0  0  0  0  0  0  0
   61.8570   33.8060   49.4010 C   0  0  0  0  0  0  0  0  0  0  0  0
   61.2090   33.8290   48.0160 C   0  0  0  0  0  0  0  0  0  0  0  0
   58.3360   31.4350   45.1660 N   0  0  0  0  0  0  0  0  0  0  0  0
   58.0050   32.7010   44.4990 C   0  0  0  0  0  0  0  0  0  0  0  0
   57.2247   30.7911   42.8504 H   0  0  0  0  0  0  0  0  0  0  0  0
   57.1592   28.9309   43.2569 H   0  0  0  0  0  0  0  0  0  0  0  0
   59.4133   27.3986   45.4483 H   0  0  0  0  0  0  0  0  0  0  0  0
   59.1458   29.5390   47.7472 H   0  0  0  0  0  0  0  0  0  0  0  0
   60.9200   30.4188   47.7201 H   0  0  0  0  0  0  0  0  0  0  0  0
   62.2960   31.3778   47.0695 H   0  0  0  0  0  0  0  0  0  0  0  0
   61.4218   31.0936   49.9913 H   0  0  0  0  0  0  0  0  0  0  0  0
   62.9715   30.5696   49.2488 H   0  0  0  0  0  0  0  0  0  0  0  0
   63.5329   30.7848   51.3564 H   0  0  0  0  0  0  0  0  0  0  0  0
   65.4746   29.5518   52.6389 H   0  0  0  0  0  0  0  0  0  0  0  0
   67.0359   32.8303   49.7169 H   0  0  0  0  0  0  0  0  0  0  0  0
   61.0751   33.7299   50.1709 H   0  0  0  0  0  0  0  0  0  0  0  0
   62.4314   34.7316   49.5536 H   0  0  0  0  0  0  0  0  0  0  0  0
   60.4102   34.5850   47.9984 H   0  0  0  0  0  0  0  0  0  0  0  0
   61.9697   34.0783   47.2616 H   0  0  0  0  0  0  0  0  0  0  0  0
   57.8032   33.4727   45.2565 H   0  0  0  0  0  0  0  0  0  0  0  0
   58.8509   33.0164   43.8705 H   0  0  0  0  0  0  0  0  0  0  0  0
   57.1130   32.5620   43.8705 H   0  0  0  0  0  0  0  0  0  0  0  0
  1  2  2  0
  2  3  1  0
  3  4  2  3
  4  5  1  0
  5  6  1  0
  6  7  1  0
  7  8  2  0
  7  9  1  0
  9 10  1  0
 10 11  1  0
  3 12  1  0
 12 13  2  0
 13 14  1  0
 14 15  2  0
 14 16  1  0
 16 17  1  0
 17 18  1  0
 18 19  1  0
 19 20  1  0
 20 21  2  0
 20 22  1  0
 22 23  1  0
 23 24  2  0
 24 25  1  0
 25 26  1  0
 19 27  1  0
 27 28  1  0
 13 29  1  0
 29 30  1  0
 29  2  1  0
 10  5  2  0
 28 16  1  0
 26 22  2  0
  1 31  1  0
  1 32  1  0
  4 33  1  0
 12 34  1  0
 17 35  1  0
 17 36  1  0
 18 37  1  0
 18 38  1  0
 23 39  1  0
 24 40  1  0
 26 41  1  0
 27 42  1  0
 27 43  1  0
 28 44  1  0
 28 45  1  0
 30 46  1  0
 30 47  1  0
 30 48  1  0
M  CHG  3   6  -1   9  -1  11  -1
M  END
>  <UniqueID>  (39) 
37

>  <SMILES>  (39) 
C=c1c(=Cc2[n-]c(=O)[n-]c2[O-])cc(C(=O)N2CCN(C(=O)c3ccsc3)CC2)n1C

>  <Energy>  (39) 
155.0522683285801

>  <Genealogy>  (39) 
C=c1c(=Cc2[n-]c(=O)[n-]c2[O-])cc(C(=O)N2CCN(C(=O)c3ccsc3)CC2)n1C (protonated)
C=c1c(=Cc2[n-]c(=O)[n-]c2[O-])cc(C(=O)N2CCN(C(=O)c3ccsc3)CC2)n1C (3D coordinates assigned)
C=c1c(=Cc2[n-]c(=O)[n-]c2[O-])cc(C(=O)N2CCN(C(=O)c3ccsc3)CC2)n1C (nonaromatic ring conformer: 155.0522683285801 kcal/mol)

>  <smiles>  (39) 
C=c1c(=Cc2[nH]c(=O)[nH]c2O)cc(C(=O)N2CCN(C(=O)c3ccsc3)CC2)n1C

>  <score_type>  (39) 
oracle

>  <origin>  (39) 
adg

>  <m_score__min__energy>  (39) 
-17.579999999999998

>  <m_primary>  (39) 
energy

$$$$
39:0
     RDKit          3D

 43 45  0  0  0  0  0  0  0  0999 V2000
   56.6420   29.4590   42.9760 C   0  0  0  0  0  0  0  0  0  0  0  0
   56.0570   29.9290   44.3090 C   0  0  0  0  0  0  0  0  0  0  0  0
   55.6090   28.8190   45.0910 O   0  0  0  0  0  0  0  0  0  0  0  0
   56.4390   27.8420   45.6710 C   0  0  0  0  0  0  0  0  0  0  0  0
   57.7980   28.0800   45.9660 C   0  0  0  0  0  0  0  0  0  0  0  0
   58.5880   27.0870   46.5790 C   0  0  0  0  0  0  0  0  0  0  0  0
   60.0340   27.4080   46.9490 C   0  0  2  0  0  0  0  0  0  0  0  0
   60.2500   27.2140   48.3830 N   0  0  0  0  0  0  0  0  0  0  0  0
   60.0890   28.3060   49.2940 C   0  0  0  0  0  0  0  0  0  0  0  0
   60.1410   28.1120   50.5430 O   0  0  0  0  0  0  0  0  0  0  0  0
   59.8640   29.6200   48.7790 N   0  0  0  0  0  0  0  0  0  0  0  0
   59.9740   29.8990   47.5020 C   0  0  0  0  0  0  0  0  0  0  0  0
   59.8310   31.3080   47.0870 C   0  0  0  0  0  0  0  0  0  0  0  0
   60.9650   32.1150   46.9120 C   0  0  0  0  0  0  0  0  0  0  0  0
   60.8260   33.4440   46.4960 C   0  0  0  0  0  0  0  0  0  0  0  0
   59.5490   33.9880   46.2490 C   0  0  0  0  0  0  0  0  0  0  0  0
   59.4010   35.3460   45.7960 N   0  0  0  0  0  0  0  0  0  0  0  0
   59.6430   36.3030   46.5630 O   0  0  0  0  0  0  0  0  0  0  0  0
   58.9370   35.6120   44.5270 O   0  0  0  0  0  0  0  0  0  0  0  0
   58.4120   33.1800   46.4470 C   0  0  0  0  0  0  0  0  0  0  0  0
   58.5520   31.8530   46.8690 C   0  0  0  0  0  0  0  0  0  0  0  0
   60.4810   28.8370   46.5240 C   0  0  2  0  0  0  0  0  0  0  0  0
   60.1170   29.1050   45.0810 C   0  0  0  0  0  0  0  0  0  0  0  0
   59.3570   30.0660   44.7660 O   0  0  0  0  0  0  0  0  0  0  0  0
   60.5250   28.2130   44.1020 O   0  0  0  0  0  0  0  0  0  0  0  0
   57.9930   25.8540   46.9090 C   0  0  0  0  0  0  0  0  0  0  0  0
   56.6510   25.6040   46.5990 C   0  0  0  0  0  0  0  0  0  0  0  0
   55.8810   23.9080   47.0540 Br  0  0  0  0  0  0  0  0  0  0  0  0
   55.8820   26.5900   45.9670 C   0  0  0  0  0  0  0  0  0  0  0  0
   54.5460   26.3350   45.6490 O   0  0  0  0  0  0  0  0  0  0  0  0
   57.4867   28.7803   43.1652 H   0  0  0  0  0  0  0  0  0  0  0  0
   55.8674   28.9292   42.4021 H   0  0  0  0  0  0  0  0  0  0  0  0
   56.9925   30.3295   42.4021 H   0  0  0  0  0  0  0  0  0  0  0  0
   56.8306   30.4748   44.8690 H   0  0  0  0  0  0  0  0  0  0  0  0
   55.1969   30.5831   44.1034 H   0  0  0  0  0  0  0  0  0  0  0  0
   58.2464   29.0525   45.7145 H   0  0  0  0  0  0  0  0  0  0  0  0
   60.6604   26.7046   46.3808 H   0  0  0  0  0  0  0  0  0  0  0  0
   61.9666   31.7019   47.1023 H   0  0  0  0  0  0  0  0  0  0  0  0
   61.7207   34.0695   46.3606 H   0  0  0  0  0  0  0  0  0  0  0  0
   57.4087   33.5944   46.2689 H   0  0  0  0  0  0  0  0  0  0  0  0
   57.6580   31.2330   47.0311 H   0  0  0  0  0  0  0  0  0  0  0  0
   61.5781   28.8968   46.5777 H   0  0  0  0  0  0  0  0  0  0  0  0
   58.5885   25.0799   47.4152 H   0  0  0  0  0  0  0  0  0  0  0  0
  1  2  1  0
  2  3  1  0
  3  4  1  0
  4  5  2  0
  5  6  1  0
  6  7  1  0
  7  8  1  0
  8  9  1  0
  9 10  2  0
  9 11  1  0
 11 12  2  0
 12 13  1  0
 13 14  2  0
 14 15  1  0
 15 16  2  0
 16 17  1  0
 17 18  2  0
 17 19  1  0
 16 20  1  0
 20 21  2  0
 12 22  1  0
 22 23  1  0
 23 24  2  0
 23 25  1  0
  6 26  2  0
 26 27  1  0
 27 28  1  0
 27 29  2  0
 29 30  1  0
 29  4  1  0
 22  7  1  0
 21 13  1  0
  1 31  1  0
  1 32  1  0
  1 33  1  0
  2 34  1  0
  2 35  1  0
  5 36  1  0
  7 37  1  6
 14 38  1  0
 15 39  1  0
 20 40  1  0
 21 41  1  0
 22 42  1  6
 26 43  1  0
M  CHG  5   8  -1  17   1  19  -1  25  -1  30  -1
M  END
>  <UniqueID>  (40) 
38

>  <SMILES>  (40) 
CCOc1cc([C@@H]2[N-]C(=O)N=C(c3ccc([N+](=O)[O-])cc3)[C@@H]2C(=O)[O-])cc(Br)c1[O-]

>  <Energy>  (40) 
54.86706060581014

>  <Genealogy>  (40) 
CCOc1cc(C2[N-]C(=O)N=C(c3ccc([N+](=O)[O-])cc3)C2C(=O)[O-])cc(Br)c1[O-] (protonated)
CCOc1cc([C@@H]2[N-]C(=O)N=C(c3ccc([N+](=O)[O-])cc3)[C@@H]2C(=O)[O-])cc(Br)c1[O-] (chirality)
CCOc1cc([C@@H]2[N-]C(=O)N=C(c3ccc([N+](=O)[O-])cc3)[C@@H]2C(=O)[O-])cc(Br)c1[O-] (3D coordinates assigned)
CCOc1cc([C@@H]2[N-]C(=O)N=C(c3ccc([N+](=O)[O-])cc3)[C@@H]2C(=O)[O-])cc(Br)c1[O-] (nonaromatic ring conformer: 54.86706060581014 kcal/mol)

>  <smiles>  (40) 
CCOc1cc(C2NC(=O)N=C(c3ccc([N+](=O)[O-])cc3)C2C(=O)O)cc(Br)c1O

>  <score_type>  (40) 
oracle

>  <origin>  (40) 
adg

>  <m_score__min__energy>  (40) 
-14.15

>  <m_primary>  (40) 
energy

$$$$
40:0
     RDKit          3D

 22 23  0  0  0  0  0  0  0  0999 V2000
   56.7520   26.1670   45.9820 C   0  0  0  0  0  0  0  0  0  0  0  0
   56.9200   27.4160   45.5640 C   0  0  0  0  0  0  0  0  0  0  0  0
   55.8970   28.2390   45.2500 N   0  0  0  0  0  0  0  0  0  0  0  0
   56.3370   29.4620   44.8490 C   0  0  0  0  0  0  0  0  0  0  0  0
   55.5220   30.3430   44.4720 O   0  0  0  0  0  0  0  0  0  0  0  0
   57.7330   29.6290   44.8520 C   0  0  0  0  0  0  0  0  0  0  0  0
   58.4820   30.6910   44.5090 C   0  0  0  0  0  0  0  0  0  0  0  0
   58.3290   32.0720   45.0090 C   0  0  0  0  0  0  0  0  0  0  0  0
   57.4220   32.9870   44.5100 C   0  0  0  0  0  0  0  0  0  0  0  0
   57.6330   34.1540   45.2130 C   0  0  0  0  0  0  0  0  0  0  0  0
   58.6620   33.8760   46.0900 C   0  0  0  0  0  0  0  0  0  0  0  0
   59.2680   34.8410   47.0520 C   0  0  0  0  0  0  0  0  0  0  0  0
   59.0630   32.6360   45.9410 O   0  0  0  0  0  0  0  0  0  0  0  0
   58.4060   28.1680   45.3540 S   0  0  0  0  0  0  0  0  0  0  0  0
   57.6269   25.5452   46.2227 H   0  0  0  0  0  0  0  0  0  0  0  0
   55.7379   25.7541   46.0876 H   0  0  0  0  0  0  0  0  0  0  0  0
   59.2895   30.5137   43.7834 H   0  0  0  0  0  0  0  0  0  0  0  0
   56.6820   32.8186   43.7137 H   0  0  0  0  0  0  0  0  0  0  0  0
   57.0946   35.1064   45.0990 H   0  0  0  0  0  0  0  0  0  0  0  0
   59.0612   34.5117   48.0810 H   0  0  0  0  0  0  0  0  0  0  0  0
   60.3555   34.8839   46.8923 H   0  0  0  0  0  0  0  0  0  0  0  0
   58.8343   35.8392   46.8923 H   0  0  0  0  0  0  0  0  0  0  0  0
  1  2  2  0
  2  3  1  0
  3  4  1  0
  4  5  2  0
  4  6  1  0
  6  7  2  3
  7  8  1  0
  8  9  2  0
  9 10  1  0
 10 11  2  0
 11 12  1  0
 11 13  1  0
  6 14  1  0
 14  2  1  0
 13  8  1  0
  1 15  1  0
  1 16  1  0
  7 17  1  0
  9 18  1  0
 10 19  1  0
 12 20  1  0
 12 21  1  0
 12 22  1  0
M  CHG  1   3  -1
M  END
>  <UniqueID>  (41) 
39

>  <SMILES>  (41) 
C=c1[n-]c(=O)c(=Cc2ccc(C)o2)s1

>  <Energy>  (41) 
81.80552070800269

>  <Genealogy>  (41) 
C=c1[n-]c(=O)c(=Cc2ccc(C)o2)s1 (protonated)
C=c1[n-]c(=O)c(=Cc2ccc(C)o2)s1 (3D coordinates assigned)
C=c1[n-]c(=O)c(=Cc2ccc(C)o2)s1 (optimized conformer: 81.80552070800269 kcal/mol)

>  <smiles>  (41) 
C=c1[nH]c(=O)c(=Cc2ccc(C)o2)s1

>  <score_type>  (41) 
oracle

>  <origin>  (41) 
adg

>  <m_score__min__energy>  (41) 
-7.9699999999999998

>  <m_primary>  (41) 
energy

$$$$
41:0
     RDKit          3D

 71 75  0  0  0  0  0  0  0  0999 V2000
   56.9120   30.8450   42.8180 O   0  0  0  0  0  0  0  0  0  0  0  0
   57.0070   30.4890   44.0230 C   0  0  0  0  0  0  0  0  0  0  0  0
   56.7680   31.4630   45.0470 N   0  0  0  0  0  0  0  0  0  0  0  0
   57.5680   32.6230   45.3140 C   0  0  0  0  0  0  0  0  0  0  0  0
   57.9610   33.4350   44.2430 C   0  0  0  0  0  0  0  0  0  0  0  0
   58.7580   34.5600   44.4660 C   0  0  0  0  0  0  0  0  0  0  0  0
   59.1720   34.8810   45.7610 C   0  0  0  0  0  0  0  0  0  0  0  0
   58.8040   34.0680   46.8420 C   0  0  0  0  0  0  0  0  0  0  0  0
   59.2800   34.3820   48.2370 C   0  0  0  0  0  0  0  0  0  0  0  0
   60.5390   33.6620   48.5310 N   0  0  0  0  0  0  0  0  0  0  0  0
   61.2370   34.2880   49.6650 C   0  0  0  0  0  0  0  0  0  0  0  0
   62.3830   33.3810   50.1330 C   0  0  0  0  0  0  0  0  0  0  0  0
   63.0330   32.6470   49.0230 N   0  0  0  0  0  0  0  0  0  0  0  0
   62.9180   31.1720   49.0730 C   0  0  0  0  0  0  0  0  0  0  0  0
   61.5340   30.6540   48.7510 C   0  0  0  0  0  0  0  0  0  0  0  0
   61.1760   30.3460   47.4270 C   0  0  0  0  0  0  0  0  0  0  0  0
   59.8780   29.9240   47.1280 C   0  0  0  0  0  0  0  0  0  0  0  0
   58.9260   29.8090   48.1440 C   0  0  0  0  0  0  0  0  0  0  0  0
   59.2750   30.1000   49.4690 C   0  0  0  0  0  0  0  0  0  0  0  0
   58.3430   29.9590   50.4940 O   0  0  0  0  0  0  0  0  0  0  0  0
   60.5700   30.5360   49.7670 C   0  0  0  0  0  0  0  0  0  0  0  0
   62.8830   33.2560   47.6880 C   0  0  0  0  0  0  0  0  0  0  0  0
   61.4250   33.6360   47.3450 C   0  0  0  0  0  0  0  0  0  0  0  0
   58.0190   32.9280   46.6100 C   0  0  0  0  0  0  0  0  0  0  0  0
   57.3140   29.0770   44.3420 C   0  0  0  0  0  0  0  0  0  0  0  0
   57.1220   28.5780   45.6410 C   0  0  0  0  0  0  0  0  0  0  0  0
   57.4300   27.2470   45.9410 C   0  0  0  0  0  0  0  0  0  0  0  0
   57.9440   26.3940   44.9510 C   0  0  0  0  0  0  0  0  0  0  0  0
   58.2720   24.9840   45.2670 C   0  0  0  0  0  0  0  0  0  0  0  0
   59.3110   24.7220   45.9320 O   0  0  0  0  0  0  0  0  0  0  0  0
   57.4460   23.9020   44.8010 N   0  0  0  0  0  0  0  0  0  0  0  0
   56.0140   23.8870   45.1430 C   0  0  0  0  0  0  0  0  0  0  0  0
   55.1940   22.9510   44.2240 C   0  0  0  0  0  0  0  0  0  0  0  0
   55.9600   22.3750   43.1850 O   0  0  0  0  0  0  0  0  0  0  0  0
   57.0720   21.7050   43.7420 C   0  0  0  0  0  0  0  0  0  0  0  0
   58.1010   22.7320   44.2030 C   0  0  0  0  0  0  0  0  0  0  0  0
   58.1020   26.8840   43.6440 C   0  0  0  0  0  0  0  0  0  0  0  0
   57.7880   28.2140   43.3420 C   0  0  0  0  0  0  0  0  0  0  0  0
   57.6403   33.1855   43.2208 H   0  0  0  0  0  0  0  0  0  0  0  0
   59.0604   35.1947   43.6200 H   0  0  0  0  0  0  0  0  0  0  0  0
   59.7891   35.7752   45.9331 H   0  0  0  0  0  0  0  0  0  0  0  0
   59.4535   35.4647   48.3249 H   0  0  0  0  0  0  0  0  0  0  0  0
   58.5112   34.0608   48.9552 H   0  0  0  0  0  0  0  0  0  0  0  0
   61.6451   35.2601   49.3513 H   0  0  0  0  0  0  0  0  0  0  0  0
   60.5276   34.4343   50.4929 H   0  0  0  0  0  0  0  0  0  0  0  0
   63.1404   34.0032   50.6323 H   0  0  0  0  0  0  0  0  0  0  0  0
   61.9517   32.6320   50.8135 H   0  0  0  0  0  0  0  0  0  0  0  0
   63.6253   30.7446   48.3470 H   0  0  0  0  0  0  0  0  0  0  0  0
   63.1397   30.8693   50.1070 H   0  0  0  0  0  0  0  0  0  0  0  0
   61.9209   30.4376   46.6228 H   0  0  0  0  0  0  0  0  0  0  0  0
   59.6051   29.6818   46.0903 H   0  0  0  0  0  0  0  0  0  0  0  0
   57.9013   29.4896   47.9032 H   0  0  0  0  0  0  0  0  0  0  0  0
   57.3850   29.6890   50.3060 H   0  0  0  0  0  0  0  0  0  0  0  0
   60.8360   30.7884   50.8041 H   0  0  0  0  0  0  0  0  0  0  0  0
   63.4986   34.1668   47.6495 H   0  0  0  0  0  0  0  0  0  0  0  0
   63.2037   32.5047   46.9514 H   0  0  0  0  0  0  0  0  0  0  0  0
   61.4224   34.6346   46.8837 H   0  0  0  0  0  0  0  0  0  0  0  0
   61.0368   32.8665   46.6614 H   0  0  0  0  0  0  0  0  0  0  0  0
   57.7545   32.2678   47.4491 H   0  0  0  0  0  0  0  0  0  0  0  0
   56.7269   29.2381   46.4272 H   0  0  0  0  0  0  0  0  0  0  0  0
   57.2684   26.8656   46.9600 H   0  0  0  0  0  0  0  0  0  0  0  0
   55.9034   23.5456   46.1828 H   0  0  0  0  0  0  0  0  0  0  0  0
   55.6281   24.9083   45.0088 H   0  0  0  0  0  0  0  0  0  0  0  0
   54.7728   22.1409   44.8374 H   0  0  0  0  0  0  0  0  0  0  0  0
   54.4117   23.5628   43.7510 H   0  0  0  0  0  0  0  0  0  0  0  0
   56.7446   21.1017   44.6015 H   0  0  0  0  0  0  0  0  0  0  0  0
   57.5225   21.0467   42.9846 H   0  0  0  0  0  0  0  0  0  0  0  0
   58.7617   22.2686   44.9505 H   0  0  0  0  0  0  0  0  0  0  0  0
   58.6806   23.0638   43.3289 H   0  0  0  0  0  0  0  0  0  0  0  0
   58.4752   26.2177   42.8523 H   0  0  0  0  0  0  0  0  0  0  0  0
   57.9135   28.5853   42.3142 H   0  0  0  0  0  0  0  0  0  0  0  0
  1  2  2  0
  2  3  1  0
  3  4  1  0
  4  5  2  0
  5  6  1  0
  6  7  2  0
  7  8  1  0
  8  9  1  0
  9 10  1  0
 10 11  1  0
 11 12  1  0
 12 13  1  0
 13 14  1  0
 14 15  1  0
 15 16  2  0
 16 17  1  0
 17 18  2  0
 18 19  1  0
 19 20  1  0
 19 21  2  0
 13 22  1  0
 22 23  1  0
  8 24  2  0
  2 25  1  0
 25 26  2  0
 26 27  1  0
 27 28  2  0
 28 29  1  0
 29 30  2  0
 29 31  1  0
 31 32  1  0
 32 33  1  0
 33 34  1  0
 34 35  1  0
 35 36  1  0
 28 37  1  0
 37 38  2  0
 24  4  1  0
 38 25  1  0
 23 10  1  0
 36 31  1  0
 21 15  1  0
  5 39  1  0
  6 40  1  0
  7 41  1  0
  9 42  1  0
  9 43  1  0
 11 44  1  0
 11 45  1  0
 12 46  1  0
 12 47  1  0
 14 48  1  0
 14 49  1  0
 16 50  1  0
 17 51  1  0
 18 52  1  0
 20 53  1  0
 21 54  1  0
 22 55  1  0
 22 56  1  0
 23 57  1  0
 23 58  1  0
 24 59  1  0
 26 60  1  0
 27 61  1  0
 32 62  1  0
 32 63  1  0
 33 64  1  0
 33 65  1  0
 35 66  1  0
 35 67  1  0
 36 68  1  0
 36 69  1  0
 37 70  1  0
 38 71  1  0
M  CHG  1   3  -1
M  END
>  <UniqueID>  (42) 
40

>  <SMILES>  (42) 
O=C([N-]c1cccc(CN2CCN(Cc3cccc(O)c3)CC2)c1)c1ccc(C(=O)N2CCOCC2)cc1

>  <Energy>  (42) 
101.85214985871126

>  <Genealogy>  (42) 
O=C([N-]c1cccc(CN2CCN(Cc3cccc(O)c3)CC2)c1)c1ccc(C(=O)N2CCOCC2)cc1 (protonated)
O=C([N-]c1cccc(CN2CCN(Cc3cccc(O)c3)CC2)c1)c1ccc(C(=O)N2CCOCC2)cc1 (3D coordinates assigned)
O=C([N-]c1cccc(CN2CCN(Cc3cccc(O)c3)CC2)c1)c1ccc(C(=O)N2CCOCC2)cc1 (nonaromatic ring conformer: 101.85214985871126 kcal/mol)

>  <smiles>  (42) 
O=C(Nc1cccc(CN2CCN(Cc3cccc(O)c3)CC2)c1)c1ccc(C(=O)N2CCOCC2)cc1

>  <score_type>  (42) 
oracle

>  <origin>  (42) 
adg

>  <m_score__min__energy>  (42) 
-11.42

>  <m_primary>  (42) 
energy

$$$$
42:0
     RDKit          3D

 61 65  0  0  0  0  0  0  0  0999 V2000
   56.8024   33.7093   43.6954 H   0  0  0  0  0  0  0  0  0  0  0  0
   57.5190   33.0530   44.2110 C   0  0  0  0  0  0  0  0  0  0  0  0
   57.6980   31.8210   43.7150 C   0  0  0  0  0  0  0  0  0  0  0  0
   58.3785   31.7125   42.8576 H   0  0  0  0  0  0  0  0  0  0  0  0
   57.0510   30.5970   44.2320 C   0  0  0  0  0  0  0  0  0  0  0  0
   55.7360   30.4750   44.5380 N   0  0  0  0  0  0  0  0  0  0  0  0
   55.5240   29.2800   45.0810 N   0  0  0  0  0  0  0  0  0  0  0  0
   56.7080   28.6460   45.1280 C   0  0  0  0  0  0  0  0  0  0  0  0
   56.9790   27.3800   45.6380 C   0  0  0  0  0  0  0  0  0  0  0  0
   56.1813   26.7651   46.0802 H   0  0  0  0  0  0  0  0  0  0  0  0
   58.3130   26.9060   45.5710 C   0  0  0  0  0  0  0  0  0  0  0  0
   58.6720   25.6050   46.0720 N   0  0  0  0  0  0  0  0  0  0  0  0
   59.2910   25.5660   46.9150 H   0  0  0  0  0  0  0  0  0  0  0  0
   58.2610   24.3550   45.4880 C   0  0  0  0  0  0  0  0  0  0  0  0
   59.2180   23.3580   45.2460 C   0  0  0  0  0  0  0  0  0  0  0  0
   60.2733   23.5403   45.4970 H   0  0  0  0  0  0  0  0  0  0  0  0
   58.8380   22.1350   44.6880 C   0  0  0  0  0  0  0  0  0  0  0  0
   59.5942   21.3575   44.5046 H   0  0  0  0  0  0  0  0  0  0  0  0
   57.5000   21.8960   44.3620 C   0  0  0  0  0  0  0  0  0  0  0  0
   57.2032   20.9224   43.9449 H   0  0  0  0  0  0  0  0  0  0  0  0
   56.5370   22.8900   44.5640 C   0  0  0  0  0  0  0  0  0  0  0  0
   55.1600   22.5880   44.3010 N   0  0  0  0  0  0  0  0  0  0  0  0
   54.1090   22.6940   45.2670 C   0  0  0  0  0  0  0  0  0  0  0  0
   53.0740   23.3600   44.9850 O   0  0  0  0  0  0  0  0  0  0  0  0
   54.2230   21.9570   46.5850 C   0  0  0  0  0  0  0  0  0  0  0  0
   53.3448   22.2308   47.1881 H   0  0  0  0  0  0  0  0  0  0  0  0
   54.1940   20.4190   46.3720 C   0  0  0  0  0  0  0  0  0  0  0  0
   53.6946   20.1981   45.4171 H   0  0  0  0  0  0  0  0  0  0  0  0
   53.6476   19.9609   47.2096 H   0  0  0  0  0  0  0  0  0  0  0  0
   55.6110   19.8390   46.3410 C   0  0  0  0  0  0  0  0  0  0  0  0
   56.1863   20.3428   45.5503 H   0  0  0  0  0  0  0  0  0  0  0  0
   55.5379   18.7592   46.1443 H   0  0  0  0  0  0  0  0  0  0  0  0
   56.3040   20.0300   47.6370 N   0  0  0  0  0  0  0  0  0  0  0  0
   57.7600   19.9160   47.4600 C   0  0  0  0  0  0  0  0  0  0  0  0
   58.2473   19.8778   48.4454 H   0  0  0  0  0  0  0  0  0  0  0  0
   57.9906   18.9971   46.9011 H   0  0  0  0  0  0  0  0  0  0  0  0
   58.1308   20.7879   46.9011 H   0  0  0  0  0  0  0  0  0  0  0  0
   55.9400   21.2860   48.3470 C   0  0  0  0  0  0  0  0  0  0  0  0
   56.8192   21.6445   48.9024 H   0  0  0  0  0  0  0  0  0  0  0  0
   55.1010   21.0575   49.0207 H   0  0  0  0  0  0  0  0  0  0  0  0
   55.4790   22.3930   47.3870 C   0  0  0  0  0  0  0  0  0  0  0  0
   56.2933   22.6187   46.6828 H   0  0  0  0  0  0  0  0  0  0  0  0
   55.2205   23.2822   47.9808 H   0  0  0  0  0  0  0  0  0  0  0  0
   56.9260   24.1270   45.1100 C   0  0  0  0  0  0  0  0  0  0  0  0
   56.1787   24.9232   45.2424 H   0  0  0  0  0  0  0  0  0  0  0  0
   59.3280   27.7480   45.0490 C   0  0  0  0  0  0  0  0  0  0  0  0
   60.3693   27.3940   45.0275 H   0  0  0  0  0  0  0  0  0  0  0  0
   59.0200   29.0310   44.5580 C   0  0  0  0  0  0  0  0  0  0  0  0
   59.8017   29.6870   44.1474 H   0  0  0  0  0  0  0  0  0  0  0  0
   57.6910   29.4390   44.6110 C   0  0  0  0  0  0  0  0  0  0  0  0
   58.2100   33.5960   45.3960 C   0  0  0  0  0  0  0  0  0  0  0  0
   59.1140   34.6670   45.2780 C   0  0  0  0  0  0  0  0  0  0  0  0
   59.2694   35.1483   44.3012 H   0  0  0  0  0  0  0  0  0  0  0  0
   59.8160   35.1220   46.3990 C   0  0  0  0  0  0  0  0  0  0  0  0
   60.5236   35.9585   46.3014 H   0  0  0  0  0  0  0  0  0  0  0  0
   59.6200   34.5160   47.6420 C   0  0  0  0  0  0  0  0  0  0  0  0
   60.1594   34.8867   48.5261 H   0  0  0  0  0  0  0  0  0  0  0  0
   58.7380   33.4380   47.7620 C   0  0  0  0  0  0  0  0  0  0  0  0
   58.5885   32.9570   48.7399 H   0  0  0  0  0  0  0  0  0  0  0  0
   58.0450   32.9700   46.6400 C   0  0  0  0  0  0  0  0  0  0  0  0
   57.3683   32.1079   46.7341 H   0  0  0  0  0  0  0  0  0  0  0  0
  1  2  1  0
  2  3  2  0
  3  4  1  0
  3  5  1  0
  5  6  1  0
  6  7  1  0
  7  8  2  0
  8  9  1  0
  9 10  1  0
  9 11  2  0
 11 12  1  0
 12 13  1  0
 12 14  1  0
 14 15  2  0
 15 16  1  0
 15 17  1  0
 17 18  1  0
 17 19  2  0
 19 20  1  0
 19 21  1  0
 21 22  1  0
 22 23  1  0
 23 24  2  0
 23 25  1  0
 25 26  1  0
 25 27  1  0
 27 28  1  0
 27 29  1  0
 27 30  1  0
 30 31  1  0
 30 32  1  0
 30 33  1  0
 33 34  1  0
 34 35  1  0
 34 36  1  0
 34 37  1  0
 33 38  1  0
 38 39  1  0
 38 40  1  0
 38 41  1  0
 41 42  1  0
 41 43  1  0
 21 44  2  0
 44 45  1  0
 11 46  1  0
 46 47  1  0
 46 48  2  0
 48 49  1  0
 48 50  1  0
  2 51  1  0
 51 52  2  0
 52 53  1  0
 52 54  1  0
 54 55  1  0
 54 56  2  0
 56 57  1  0
 56 58  1  0
 58 59  1  0
 58 60  2  0
 60 61  1  0
 50  5  2  0
 60 51  1  0
 50  8  1  0
 44 14  1  0
 41 25  1  0
M  CHG  2   6  -1  22  -1
M  END
>  <UniqueID>  (43) 
41

>  <SMILES>  (43) 
CN1CCC(C(=O)[N-]c2cccc(Nc3ccc4c(/C=C\c5ccccc5)[n-]nc4c3)c2)CC1

>  <Energy>  (43) 
127.9197226189624

>  <Genealogy>  (43) 
CN1CCC(C(=O)[N-]c2cccc(Nc3ccc4c(C=Cc5ccccc5)[n-]nc4c3)c2)CC1 (protonated)
CN1CCC(C(=O)[N-]c2cccc(Nc3ccc4c(/C=C\c5ccccc5)[n-]nc4c3)c2)CC1 (cis-trans isomerization)
CN1CCC(C(=O)[N-]c2cccc(Nc3ccc4c(/C=C\c5ccccc5)[n-]nc4c3)c2)CC1 (3D coordinates assigned)
CN1CCC(C(=O)[N-]c2cccc(Nc3ccc4c(/C=C\c5ccccc5)[n-]nc4c3)c2)CC1 (nonaromatic ring conformer: 127.9197226189624 kcal/mol)

>  <smiles>  (43) 
CN1CCC(C(=O)Nc2cccc(Nc3ccc4c(C=Cc5ccccc5)[nH]nc4c3)c2)CC1

>  <score_type>  (43) 
oracle

>  <origin>  (43) 
adg

>  <m_score__min__energy>  (43) 
-13.800000000000001

>  <m_primary>  (43) 
energy

$$$$
43:0
     RDKit          3D

 21 21  0  0  0  0  0  0  0  0999 V2000
   56.2880   29.9690   42.9960 C   0  0  0  0  0  0  0  0  0  0  0  0
   55.2090   29.7940   44.0580 C   0  0  0  0  0  0  0  0  0  0  0  0
   55.5610   28.7090   44.9690 N   0  0  0  0  0  0  0  0  0  0  0  0
   56.8830   28.3970   45.4280 C   0  0  0  0  0  0  0  0  0  0  0  0
   57.4500   29.1910   46.2240 O   0  0  0  0  0  0  0  0  0  0  0  0
   57.5860   27.1230   45.0490 C   0  0  0  0  0  0  0  0  0  0  0  0
   57.0870   25.9820   45.8820 C   0  0  0  0  0  0  0  0  0  0  0  0
   57.8850   25.0900   46.4980 N   0  0  0  0  0  0  0  0  0  0  0  0
   57.0110   24.2480   47.0900 C   0  0  0  0  0  0  0  0  0  0  0  0
   57.3810   23.2610   47.7790 O   0  0  0  0  0  0  0  0  0  0  0  0
   55.7090   24.5420   46.8830 N   0  0  0  0  0  0  0  0  0  0  0  0
   55.7750   25.6400   46.1130 C   0  0  0  0  0  0  0  0  0  0  0  0
   54.6620   26.3170   45.6270 O   0  0  0  0  0  0  0  0  0  0  0  0
   57.2609   30.1268   43.4843 H   0  0  0  0  0  0  0  0  0  0  0  0
   56.3347   29.0667   42.3686 H   0  0  0  0  0  0  0  0  0  0  0  0
   56.0471   30.8398   42.3686 H   0  0  0  0  0  0  0  0  0  0  0  0
   55.1083   30.7285   44.6295 H   0  0  0  0  0  0  0  0  0  0  0  0
   54.2580   29.5488   43.5626 H   0  0  0  0  0  0  0  0  0  0  0  0
   57.3962   26.9066   43.9873 H   0  0  0  0  0  0  0  0  0  0  0  0
   58.6651   27.2461   45.2232 H   0  0  0  0  0  0  0  0  0  0  0  0
   54.7680   27.0890   44.9810 H   0  0  0  0  0  0  0  0  0  0  0  0
  1  2  1  0
  2  3  1  0
  3  4  1  0
  4  5  2  0
  4  6  1  0
  6  7  1  0
  7  8  1  0
  8  9  1  0
  9 10  2  0
  9 11  1  0
 11 12  1  0
 12 13  1  0
 12  7  2  0
  1 14  1  0
  1 15  1  0
  1 16  1  0
  2 17  1  0
  2 18  1  0
  6 19  1  0
  6 20  1  0
 13 21  1  0
M  CHG  3   3  -1   8  -1  11  -1
M  END
>  <UniqueID>  (44) 
42

>  <SMILES>  (44) 
CC[N-]C(=O)Cc1[n-]c(=O)[n-]c1O

>  <Energy>  (44) 
41.92029460623067

>  <Genealogy>  (44) 
CC[N-]C(=O)Cc1[n-]c(=O)[n-]c1O (protonated)
CC[N-]C(=O)Cc1[n-]c(=O)[n-]c1O (3D coordinates assigned)
CC[N-]C(=O)Cc1[n-]c(=O)[n-]c1O (optimized conformer: 41.92029460623067 kcal/mol)

>  <smiles>  (44) 
CCNC(=O)Cc1[nH]c(=O)[nH]c1O

>  <score_type>  (44) 
oracle

>  <origin>  (44) 
adg

>  <m_score__min__energy>  (44) 
-11.51

>  <m_primary>  (44) 
energy

$$$$
44:0
     RDKit          3D

 41 42  0  0  0  0  0  0  0  0999 V2000
   61.1696   30.1305   47.2706 H   0  0  0  0  0  0  0  0  0  0  0  0
   60.1870   29.7410   47.5750 C   0  0  0  0  0  0  0  0  0  0  0  0
   60.0630   28.3040   47.8940 C   0  0  0  0  0  0  0  0  0  0  0  0
   59.4270   27.9770   48.9300 O   0  0  0  0  0  0  0  0  0  0  0  0
   60.6390   27.2290   47.0590 C   0  0  0  0  0  0  0  0  0  0  0  0
   61.6792   26.9190   47.2376 H   0  0  0  0  0  0  0  0  0  0  0  0
   59.9400   26.6180   46.0920 C   0  0  0  0  0  0  0  0  0  0  0  0
   60.4979   26.1757   45.2535 H   0  0  0  0  0  0  0  0  0  0  0  0
   58.4610   26.5010   46.0820 C   0  0  0  0  0  0  0  0  0  0  0  0
   57.7870   25.3170   46.4460 C   0  0  0  0  0  0  0  0  0  0  0  0
   58.3630   24.4337   46.7591 H   0  0  0  0  0  0  0  0  0  0  0  0
   56.3900   25.2600   46.4110 C   0  0  0  0  0  0  0  0  0  0  0  0
   55.8717   24.3348   46.7031 H   0  0  0  0  0  0  0  0  0  0  0  0
   55.6500   26.3750   46.0060 C   0  0  0  0  0  0  0  0  0  0  0  0
   54.2620   26.3090   45.9760 O   0  0  0  0  0  0  0  0  0  0  0  0
   56.3090   27.5500   45.6290 C   0  0  0  0  0  0  0  0  0  0  0  0
   55.5780   28.6600   45.2210 O   0  0  0  0  0  0  0  0  0  0  0  0
   57.7060   27.6100   45.6630 C   0  0  0  0  0  0  0  0  0  0  0  0
   58.2189   28.5343   45.3588 H   0  0  0  0  0  0  0  0  0  0  0  0
   59.1530   30.5890   47.6410 C   0  0  0  0  0  0  0  0  0  0  0  0
   58.2616   30.3013   48.2177 H   0  0  0  0  0  0  0  0  0  0  0  0
   59.1760   31.9040   46.9590 C   0  0  0  0  0  0  0  0  0  0  0  0
   59.8350   33.0210   47.5370 C   0  0  0  0  0  0  0  0  0  0  0  0
   60.5230   32.9380   48.8770 C   0  0  0  0  0  0  0  0  0  0  0  0
   59.7757   33.0282   49.6791 H   0  0  0  0  0  0  0  0  0  0  0  0
   61.0399   31.9710   48.9645 H   0  0  0  0  0  0  0  0  0  0  0  0
   61.2551   33.7543   48.9645 H   0  0  0  0  0  0  0  0  0  0  0  0
   59.8660   34.2400   46.8430 C   0  0  0  0  0  0  0  0  0  0  0  0
   60.4164   35.0924   47.2679 H   0  0  0  0  0  0  0  0  0  0  0  0
   59.2070   34.3860   45.6190 C   0  0  0  0  0  0  0  0  0  0  0  0
   59.2740   35.6890   44.8770 C   0  0  0  0  0  0  0  0  0  0  0  0
   59.3167   36.5193   45.5972 H   0  0  0  0  0  0  0  0  0  0  0  0
   60.1742   35.7052   44.2450 H   0  0  0  0  0  0  0  0  0  0  0  0
   58.3802   35.7974   44.2450 H   0  0  0  0  0  0  0  0  0  0  0  0
   58.5370   33.2920   45.0600 C   0  0  0  0  0  0  0  0  0  0  0  0
   58.0294   33.4031   44.0905 H   0  0  0  0  0  0  0  0  0  0  0  0
   58.5050   32.0560   45.7210 C   0  0  0  0  0  0  0  0  0  0  0  0
   57.7890   30.8970   45.0740 C   0  0  0  0  0  0  0  0  0  0  0  0
   57.3811   30.2367   45.8535 H   0  0  0  0  0  0  0  0  0  0  0  0
   56.9677   31.2765   44.4483 H   0  0  0  0  0  0  0  0  0  0  0  0
   58.4959   30.3324   44.4483 H   0  0  0  0  0  0  0  0  0  0  0  0
  1  2  1  0
  2  3  1  0
  3  4  2  0
  3  5  1  0
  5  6  1  0
  5  7  2  0
  7  8  1  0
  7  9  1  0
  9 10  2  0
 10 11  1  0
 10 12  1  0
 12 13  1  0
 12 14  2  0
 14 15  1  0
 14 16  1  0
 16 17  1  0
 16 18  2  0
 18 19  1  0
  2 20  2  3
 20 21  1  0
 20 22  1  0
 22 23  2  0
 23 24  1  0
 24 25  1  0
 24 26  1  0
 24 27  1  0
 23 28  1  0
 28 29  1  0
 28 30  2  0
 30 31  1  0
 31 32  1  0
 31 33  1  0
 31 34  1  0
 30 35  1  0
 35 36  1  0
 35 37  2  0
 37 38  1  0
 38 39  1  0
 38 40  1  0
 38 41  1  0
 18  9  1  0
 37 22  1  0
M  CHG  2  15  -1  17  -1
M  END
>  <UniqueID>  (45) 
43

>  <SMILES>  (45) 
Cc1cc(C)c(C=CC(=O)/C=C/c2ccc([O-])c([O-])c2)c(C)c1

>  <Energy>  (45) 
52.94810472098953

>  <Genealogy>  (45) 
Cc1cc(C)c(C=CC(=O)C=Cc2ccc([O-])c([O-])c2)c(C)c1 (protonated)
Cc1cc(C)c(C=CC(=O)/C=C/c2ccc([O-])c([O-])c2)c(C)c1 (cis-trans isomerization)
Cc1cc(C)c(C=CC(=O)/C=C/c2ccc([O-])c([O-])c2)c(C)c1 (3D coordinates assigned)
Cc1cc(C)c(C=CC(=O)/C=C/c2ccc([O-])c([O-])c2)c(C)c1 (optimized conformer: 52.94810472098953 kcal/mol)

>  <smiles>  (45) 
Cc1cc(C)c(C=CC(=O)C=Cc2ccc(O)c(O)c2)c(C)c1

>  <score_type>  (45) 
oracle

>  <origin>  (45) 
adg

>  <m_score__min__energy>  (45) 
-15.949999999999999

>  <m_primary>  (45) 
energy

$$$$
45:0
     RDKit          3D

 58 61  0  0  0  0  0  0  0  0999 V2000
   58.9110   34.6800   45.0210 C   0  0  0  0  0  0  0  0  0  0  0  0
   58.5770   33.2270   45.0850 C   0  0  0  0  0  0  0  0  0  0  0  0
   58.6940   32.4190   46.2090 C   0  0  0  0  0  0  0  0  0  0  0  0
   58.2320   31.1150   46.0000 C   0  0  0  0  0  0  0  0  0  0  0  0
   57.7380   30.9140   44.7190 C   0  0  0  0  0  0  0  0  0  0  0  0
   57.0810   29.4110   44.1030 S   0  0  0  0  0  0  0  0  0  0  0  0
   58.2110   28.5360   43.6330 O   0  0  0  0  0  0  0  0  0  0  0  0
   56.1670   29.7120   42.9470 O   0  0  0  0  0  0  0  0  0  0  0  0
   56.1930   28.6260   45.3670 N   0  0  0  0  0  0  0  0  0  0  0  0
   56.2570   27.2250   45.6510 C   0  0  0  0  0  0  0  0  0  0  0  0
   55.2030   26.6340   46.0120 O   0  0  0  0  0  0  0  0  0  0  0  0
   57.5490   26.4570   45.5070 C   0  0  0  0  0  0  0  0  0  0  0  0
   58.6070   26.9160   46.4790 C   0  0  0  0  0  0  0  0  0  0  0  0
   59.8600   26.2840   46.5070 C   0  0  0  0  0  0  0  0  0  0  0  0
   60.8500   26.7250   47.3870 C   0  0  0  0  0  0  0  0  0  0  0  0
   60.6000   27.7960   48.2460 C   0  0  0  0  0  0  0  0  0  0  0  0
   59.3490   28.4350   48.2370 C   0  0  0  0  0  0  0  0  0  0  0  0
   59.0750   29.5730   49.1430 C   0  0  0  0  0  0  0  0  0  0  0  0
   58.1450   29.4680   49.9880 O   0  0  0  0  0  0  0  0  0  0  0  0
   59.8510   30.7860   49.0890 N   0  0  0  0  0  0  0  0  0  0  0  0
   59.2830   32.0350   49.6090 C   0  0  0  0  0  0  0  0  0  0  0  0
   60.0650   33.2340   49.0570 C   0  0  0  0  0  0  0  0  0  0  0  0
   61.5190   33.1820   49.3860 N   0  0  0  0  0  0  0  0  0  0  0  0
   62.3000   33.9300   48.3640 C   0  0  0  0  0  0  0  0  0  0  0  0
   63.7230   33.3960   48.1540 C   0  0  0  0  0  0  0  0  0  0  0  0
   63.3840   33.0480   46.7110 C   0  0  0  0  0  0  0  0  0  0  0  0
   61.9620   33.5470   46.9180 C   0  0  0  0  0  0  0  0  0  0  0  0
   62.0470   31.7930   49.5320 C   0  0  0  0  0  0  0  0  0  0  0  0
   61.2670   30.7630   48.7040 C   0  0  0  0  0  0  0  0  0  0  0  0
   58.3640   28.0040   47.3320 C   0  0  0  0  0  0  0  0  0  0  0  0
   57.8700   32.3410   43.8400 S   0  0  0  0  0  0  0  0  0  0  0  0
   59.0030   35.0804   46.0414 H   0  0  0  0  0  0  0  0  0  0  0  0
   59.8634   34.8141   44.4872 H   0  0  0  0  0  0  0  0  0  0  0  0
   58.1128   35.2166   44.4872 H   0  0  0  0  0  0  0  0  0  0  0  0
   59.1079   32.7689   47.1662 H   0  0  0  0  0  0  0  0  0  0  0  0
   58.2577   30.3308   46.7709 H   0  0  0  0  0  0  0  0  0  0  0  0
   57.3466   25.3904   45.6841 H   0  0  0  0  0  0  0  0  0  0  0  0
   57.9306   26.6338   44.4906 H   0  0  0  0  0  0  0  0  0  0  0  0
   60.0626   25.4384   45.8333 H   0  0  0  0  0  0  0  0  0  0  0  0
   61.8305   26.2266   47.4033 H   0  0  0  0  0  0  0  0  0  0  0  0
   61.3862   28.1415   48.9334 H   0  0  0  0  0  0  0  0  0  0  0  0
   58.2300   32.1130   49.3005 H   0  0  0  0  0  0  0  0  0  0  0  0
   59.3497   32.0336   50.7070 H   0  0  0  0  0  0  0  0  0  0  0  0
   59.9535   33.2517   47.9628 H   0  0  0  0  0  0  0  0  0  0  0  0
   59.6534   34.1399   49.5260 H   0  0  0  0  0  0  0  0  0  0  0  0
   61.6440   33.6590   50.3120 H   0  0  0  0  0  0  0  0  0  0  0  0
   62.1306   34.9536   48.7294 H   0  0  0  0  0  0  0  0  0  0  0  0
   64.5083   34.1591   48.2587 H   0  0  0  0  0  0  0  0  0  0  0  0
   64.1338   32.6300   48.8282 H   0  0  0  0  0  0  0  0  0  0  0  0
   63.9558   33.6204   45.9658 H   0  0  0  0  0  0  0  0  0  0  0  0
   63.5653   32.0329   46.3280 H   0  0  0  0  0  0  0  0  0  0  0  0
   61.6894   34.4008   46.2803 H   0  0  0  0  0  0  0  0  0  0  0  0
   61.1067   32.8892   46.7040 H   0  0  0  0  0  0  0  0  0  0  0  0
   63.0974   31.7816   49.2057 H   0  0  0  0  0  0  0  0  0  0  0  0
   61.9416   31.5113   50.5901 H   0  0  0  0  0  0  0  0  0  0  0  0
   61.3591   31.0079   47.6356 H   0  0  0  0  0  0  0  0  0  0  0  0
   61.6782   29.7600   48.8908 H   0  0  0  0  0  0  0  0  0  0  0  0
   57.3951   28.5233   47.2918 H   0  0  0  0  0  0  0  0  0  0  0  0
  1  2  1  0
  2  3  2  0
  3  4  1  0
  4  5  2  0
  5  6  1  0
  6  7  2  0
  6  8  2  0
  6  9  1  0
  9 10  1  0
 10 11  2  0
 10 12  1  0
 12 13  1  0
 13 14  2  0
 14 15  1  0
 15 16  2  0
 16 17  1  0
 17 18  1  0
 18 19  2  0
 18 20  1  0
 20 21  1  0
 21 22  1  0
 22 23  1  0
 23 24  1  0
 24 25  1  0
 25 26  1  0
 26 27  1  0
 23 28  1  0
 28 29  1  0
 17 30  2  0
  5 31  1  0
 31  2  1  0
 30 13  1  0
 29 20  1  0
 27 24  1  0
  1 32  1  0
  1 33  1  0
  1 34  1  0
  3 35  1  0
  4 36  1  0
 12 37  1  0
 12 38  1  0
 14 39  1  0
 15 40  1  0
 16 41  1  0
 21 42  1  0
 21 43  1  0
 22 44  1  0
 22 45  1  0
 23 46  1  0
 24 47  1  0
 25 48  1  0
 25 49  1  0
 26 50  1  0
 26 51  1  0
 27 52  1  0
 27 53  1  0
 28 54  1  0
 28 55  1  0
 29 56  1  0
 29 57  1  0
 30 58  1  0
M  CHG  2   9  -1  23   1
M  END
>  <UniqueID>  (46) 
44

>  <SMILES>  (46) 
Cc1ccc(S(=O)(=O)[N-]C(=O)Cc2cccc(C(=O)N3CC[NH+](C4CCC4)CC3)c2)s1

>  <Energy>  (46) 
161.01341505381436

>  <Genealogy>  (46) 
Cc1ccc(S(=O)(=O)[N-]C(=O)Cc2cccc(C(=O)N3CC[NH+](C4CCC4)CC3)c2)s1 (protonated)
Cc1ccc(S(=O)(=O)[N-]C(=O)Cc2cccc(C(=O)N3CC[NH+](C4CCC4)CC3)c2)s1 (3D coordinates assigned)
Cc1ccc(S(=O)(=O)[N-]C(=O)Cc2cccc(C(=O)N3CC[NH+](C4CCC4)CC3)c2)s1 (nonaromatic ring conformer: 161.01341505381436 kcal/mol)

>  <smiles>  (46) 
Cc1ccc(S(=O)(=O)NC(=O)Cc2cccc(C(=O)N3CCN(C4CCC4)CC3)c2)s1

>  <score_type>  (46) 
oracle

>  <origin>  (46) 
adg

>  <m_score__min__energy>  (46) 
-10.69

>  <m_primary>  (46) 
energy

$$$$
46:0
     RDKit          3D

 44 46  0  0  0  0  0  0  0  0999 V2000
   54.4838   29.9730   55.7707 H   0  0  0  0  0  0  0  0  0  0  0  0
   53.8750   30.1110   54.8650 C   0  0  0  0  0  0  0  0  0  0  0  0
   52.7772   30.0884   54.9315 H   0  0  0  0  0  0  0  0  0  0  0  0
   54.4720   30.3070   53.6780 C   0  0  0  0  0  0  0  0  0  0  0  0
   53.8260   30.4960   52.4500 C   0  0  0  0  0  0  0  0  0  0  0  0
   52.4950   30.5060   52.2240 C   0  0  0  0  0  0  0  0  0  0  0  0
   51.8410   30.2108   53.0578 H   0  0  0  0  0  0  0  0  0  0  0  0
   51.8410   30.8800   50.9510 C   0  0  0  0  0  0  0  0  0  0  0  0
   51.7420   30.1040   49.8560 N   0  0  0  0  0  0  0  0  0  0  0  0
   51.0250   30.8570   48.9960 C   0  0  0  0  0  0  0  0  0  0  0  0
   50.7260   30.4660   47.8380 O   0  0  0  0  0  0  0  0  0  0  0  0
   50.6480   32.0610   49.4780 N   0  0  0  0  0  0  0  0  0  0  0  0
   51.1670   32.0560   50.7150 C   0  0  0  0  0  0  0  0  0  0  0  0
   51.0270   33.1060   51.6150 O   0  0  0  0  0  0  0  0  0  0  0  0
   54.8330   30.7130   51.5180 C   0  0  0  0  0  0  0  0  0  0  0  0
   54.6991   30.9024   50.4427 H   0  0  0  0  0  0  0  0  0  0  0  0
   56.0350   30.6460   52.1970 C   0  0  0  0  0  0  0  0  0  0  0  0
   57.3570   30.9170   51.5800 C   0  0  0  0  0  0  0  0  0  0  0  0
   58.2020   29.9820   51.5010 O   0  0  0  0  0  0  0  0  0  0  0  0
   57.7130   32.2490   51.1370 N   0  0  1  0  0  0  0  0  0  0  0  0
   56.9910   32.5900   50.4590 H   0  0  0  0  0  0  0  0  0  0  0  0
   57.7290   33.1570   52.2970 C   0  0  0  0  0  0  0  0  0  0  0  0
   57.7186   32.5665   53.2250 H   0  0  0  0  0  0  0  0  0  0  0  0
   58.6382   33.7754   52.2661 H   0  0  0  0  0  0  0  0  0  0  0  0
   56.8422   33.8071   52.2661 H   0  0  0  0  0  0  0  0  0  0  0  0
   59.0210   32.2210   50.4430 C   0  0  0  0  0  0  0  0  0  0  0  0
   59.7721   32.7107   51.0802 H   0  0  0  0  0  0  0  0  0  0  0  0
   59.2845   31.1697   50.2552 H   0  0  0  0  0  0  0  0  0  0  0  0
   58.9690   32.9350   49.1130 C   0  0  0  0  0  0  0  0  0  0  0  0
   59.7640   34.0720   48.8900 C   0  0  0  0  0  0  0  0  0  0  0  0
   60.4133   34.4524   49.6923 H   0  0  0  0  0  0  0  0  0  0  0  0
   59.7330   34.7220   47.6520 C   0  0  0  0  0  0  0  0  0  0  0  0
   60.3552   35.6134   47.4842 H   0  0  0  0  0  0  0  0  0  0  0  0
   58.9130   34.2410   46.6280 C   0  0  0  0  0  0  0  0  0  0  0  0
   58.8888   34.7547   45.6556 H   0  0  0  0  0  0  0  0  0  0  0  0
   58.1240   33.1080   46.8390 C   0  0  0  0  0  0  0  0  0  0  0  0
   57.4801   32.7293   46.0315 H   0  0  0  0  0  0  0  0  0  0  0  0
   58.1510   32.4540   48.0750 C   0  0  0  0  0  0  0  0  0  0  0  0
   57.5302   31.5602   48.2358 H   0  0  0  0  0  0  0  0  0  0  0  0
   55.8190   30.3720   53.5070 N   0  0  0  0  0  0  0  0  0  0  0  0
   56.8480   30.1980   54.5400 C   0  0  0  0  0  0  0  0  0  0  0  0
   56.3856   30.2762   55.5350 H   0  0  0  0  0  0  0  0  0  0  0  0
   57.3149   29.2082   54.4294 H   0  0  0  0  0  0  0  0  0  0  0  0
   57.6144   30.9793   54.4294 H   0  0  0  0  0  0  0  0  0  0  0  0
  1  2  1  0
  2  3  1  0
  2  4  2  0
  4  5  1  0
  5  6  2  0
  6  7  1  0
  6  8  1  0
  8  9  1  0
  9 10  1  0
 10 11  2  0
 10 12  1  0
 12 13  1  0
 13 14  1  0
  5 15  1  0
 15 16  1  0
 15 17  2  0
 17 18  1  0
 18 19  2  0
 18 20  1  0
 20 21  1  6
 20 22  1  0
 22 23  1  0
 22 24  1  0
 22 25  1  0
 20 26  1  0
 26 27  1  0
 26 28  1  0
 26 29  1  0
 29 30  2  0
 30 31  1  0
 30 32  1  0
 32 33  1  0
 32 34  2  0
 34 35  1  0
 34 36  1  0
 36 37  1  0
 36 38  2  0
 38 39  1  0
 17 40  1  0
 40 41  1  0
 41 42  1  0
 41 43  1  0
 41 44  1  0
 40  4  1  0
 13  8  2  0
 38 29  1  0
M  CHG  4   9  -1  12  -1  14  -1  20   1
M  END
>  <UniqueID>  (47) 
45

>  <SMILES>  (47) 
C=c1/c(=C/c2[n-]c(=O)[n-]c2[O-])cc(C(=O)[N@@H+](C)Cc2ccccc2)n1C

>  <Energy>  (47) 
114.00940223416055

>  <Genealogy>  (47) 
C=c1c(=Cc2[n-]c(=O)[n-]c2[O-])cc(C(=O)[NH+](C)Cc2ccccc2)n1C (protonated)
C=c1c(=Cc2[n-]c(=O)[n-]c2[O-])cc(C(=O)[N@@H+](C)Cc2ccccc2)n1C (chirality)
C=c1/c(=C/c2[n-]c(=O)[n-]c2[O-])cc(C(=O)[N@@H+](C)Cc2ccccc2)n1C (cis-trans isomerization)
C=c1/c(=C/c2[n-]c(=O)[n-]c2[O-])cc(C(=O)[N@@H+](C)Cc2ccccc2)n1C (3D coordinates assigned)
C=c1/c(=C/c2[n-]c(=O)[n-]c2[O-])cc(C(=O)[N@@H+](C)Cc2ccccc2)n1C (optimized conformer: 114.00940223416055 kcal/mol)

>  <smiles>  (47) 
C=c1c(=Cc2[nH]c(=O)[nH]c2O)cc(C(=O)N(C)Cc2ccccc2)n1C

>  <score_type>  (47) 
oracle

>  <origin>  (47) 
adg

>  <m_score__min__energy>  (47) 
-16.48

>  <m_primary>  (47) 
energy

$$$$
47:0
     RDKit          3D

 40 42  0  0  0  0  0  0  0  0999 V2000
   60.6910   26.7310   47.7790 C   0  0  0  0  0  0  0  0  0  0  0  0
   59.9700   27.8500   47.8800 C   0  0  0  0  0  0  0  0  0  0  0  0
   60.4860   29.1610   48.8020 S   0  0  0  0  0  0  0  0  0  0  0  0
   59.2990   30.2340   48.2940 C   0  0  0  0  0  0  0  0  0  0  0  0
   59.1120   31.6420   48.7790 C   0  0  0  0  0  0  0  0  0  0  0  0
   59.8920   32.6320   47.9550 C   0  0  0  0  0  0  0  0  0  0  0  0
   59.3680   33.5870   47.1700 C   0  0  0  0  0  0  0  0  0  0  0  0
   58.6910   33.3800   45.8730 C   0  0  0  0  0  0  0  0  0  0  0  0
   57.9740   34.3080   45.4110 O   0  0  0  0  0  0  0  0  0  0  0  0
   58.9280   32.2050   45.0900 N   0  0  0  0  0  0  0  0  0  0  0  0
   57.9570   31.4780   44.3290 C   0  0  0  0  0  0  0  0  0  0  0  0
   57.8550   31.6130   42.9340 C   0  0  0  0  0  0  0  0  0  0  0  0
   56.8630   30.9210   42.2320 C   0  0  0  0  0  0  0  0  0  0  0  0
   55.9620   30.1000   42.9170 C   0  0  0  0  0  0  0  0  0  0  0  0
   56.0500   29.9700   44.3080 C   0  0  0  0  0  0  0  0  0  0  0  0
   55.1600   29.1560   45.0050 O   0  0  0  0  0  0  0  0  0  0  0  0
   57.0420   30.6630   45.0090 C   0  0  0  0  0  0  0  0  0  0  0  0
   58.4490   29.5690   47.4190 C   0  0  0  0  0  0  0  0  0  0  0  0
   58.7950   28.2250   47.1840 C   0  0  0  0  0  0  0  0  0  0  0  0
   58.0230   27.4640   46.3770 C   0  0  0  0  0  0  0  0  0  0  0  0
   57.3200   26.2320   46.7620 C   0  0  0  0  0  0  0  0  0  0  0  0
   57.9350   25.1600   47.2900 N   0  0  0  0  0  0  0  0  0  0  0  0
   56.9530   24.2340   47.3450 C   0  0  0  0  0  0  0  0  0  0  0  0
   57.1380   23.0770   47.8030 O   0  0  0  0  0  0  0  0  0  0  0  0
   55.7610   24.6390   46.8550 N   0  0  0  0  0  0  0  0  0  0  0  0
   56.0140   25.9010   46.4760 C   0  0  0  0  0  0  0  0  0  0  0  0
   55.0810   26.7220   45.8560 O   0  0  0  0  0  0  0  0  0  0  0  0
   60.3238   25.8934   47.1678 H   0  0  0  0  0  0  0  0  0  0  0  0
   61.6523   26.6466   48.3070 H   0  0  0  0  0  0  0  0  0  0  0  0
   58.0436   31.8976   48.7233 H   0  0  0  0  0  0  0  0  0  0  0  0
   59.4813   31.6963   49.8137 H   0  0  0  0  0  0  0  0  0  0  0  0
   60.9891   32.5670   48.0002 H   0  0  0  0  0  0  0  0  0  0  0  0
   59.4507   34.6241   47.5271 H   0  0  0  0  0  0  0  0  0  0  0  0
   58.5570   32.2645   42.3929 H   0  0  0  0  0  0  0  0  0  0  0  0
   56.7914   31.0228   41.1391 H   0  0  0  0  0  0  0  0  0  0  0  0
   55.1834   29.5558   42.3624 H   0  0  0  0  0  0  0  0  0  0  0  0
   55.1460   28.1510   44.8720 H   0  0  0  0  0  0  0  0  0  0  0  0
   57.1046   30.5676   46.1031 H   0  0  0  0  0  0  0  0  0  0  0  0
   57.5793   30.0519   46.9496 H   0  0  0  0  0  0  0  0  0  0  0  0
   57.9103   27.7977   45.3349 H   0  0  0  0  0  0  0  0  0  0  0  0
  1  2  2  0
  2  3  1  0
  3  4  1  0
  4  5  1  0
  5  6  1  0
  6  7  2  3
  7  8  1  0
  8  9  2  0
  8 10  1  0
 10 11  1  0
 11 12  2  0
 12 13  1  0
 13 14  2  0
 14 15  1  0
 15 16  1  0
 15 17  2  0
  4 18  2  0
 18 19  1  0
 19 20  2  3
 20 21  1  0
 21 22  1  0
 22 23  1  0
 23 24  2  0
 23 25  1  0
 25 26  1  0
 26 27  1  0
 19  2  1  0
 26 21  2  0
 17 11  1  0
  1 28  1  0
  1 29  1  0
  5 30  1  0
  5 31  1  0
  6 32  1  0
  7 33  1  0
 12 34  1  0
 13 35  1  0
 14 36  1  0
 16 37  1  0
 17 38  1  0
 18 39  1  0
 20 40  1  0
M  CHG  4  10  -1  22  -1  25  -1  27  -1
M  END
>  <UniqueID>  (48) 
46

>  <SMILES>  (48) 
C=c1sc(CC=CC(=O)[N-]c2cccc(O)c2)cc1=Cc1[n-]c(=O)[n-]c1[O-]

>  <Energy>  (48) 
114.04430363503464

>  <Genealogy>  (48) 
C=c1sc(CC=CC(=O)[N-]c2cccc(O)c2)cc1=Cc1[n-]c(=O)[n-]c1[O-] (protonated)
C=c1sc(CC=CC(=O)[N-]c2cccc(O)c2)cc1=Cc1[n-]c(=O)[n-]c1[O-] (3D coordinates assigned)
C=c1sc(CC=CC(=O)[N-]c2cccc(O)c2)cc1=Cc1[n-]c(=O)[n-]c1[O-] (optimized conformer: 114.04430363503464 kcal/mol)

>  <smiles>  (48) 
C=c1sc(CC=CC(=O)Nc2cccc(O)c2)cc1=Cc1[nH]c(=O)[nH]c1O

>  <score_type>  (48) 
oracle

>  <origin>  (48) 
adg

>  <m_score__min__energy>  (48) 
-18.32

>  <m_primary>  (48) 
energy

$$$$
48:0
     RDKit          3D

 46 49  0  0  0  0  0  0  0  0999 V2000
   54.8280   26.1480   46.7460 H   0  0  0  0  0  0  0  0  0  0  0  0
   55.2210   26.6990   45.9960 O   0  0  0  0  0  0  0  0  0  0  0  0
   56.5840   26.9830   45.9290 C   0  0  0  0  0  0  0  0  0  0  0  0
   57.1450   28.1700   45.4970 C   0  0  0  0  0  0  0  0  0  0  0  0
   56.4400   29.3660   45.0030 C   0  0  0  0  0  0  0  0  0  0  0  0
   55.3498   29.3047   44.8702 H   0  0  0  0  0  0  0  0  0  0  0  0
   57.0490   30.5300   44.7040 C   0  0  0  0  0  0  0  0  0  0  0  0
   57.7360   31.3560   45.5840 C   0  0  0  0  0  0  0  0  0  0  0  0
   57.8677   31.1996   46.6648 H   0  0  0  0  0  0  0  0  0  0  0  0
   58.2230   32.4150   44.8360 C   0  0  0  0  0  0  0  0  0  0  0  0
   59.0200   33.5570   45.3320 C   0  0  0  0  0  0  0  0  0  0  0  0
   59.4720   34.3900   44.5050 O   0  0  0  0  0  0  0  0  0  0  0  0
   59.2800   33.7600   46.7250 N   0  0  0  0  0  0  0  0  0  0  0  0
   58.9870   33.1400   48.0320 C   0  0  0  0  0  0  0  0  0  0  0  0
   57.9087   33.0801   48.2410 H   0  0  0  0  0  0  0  0  0  0  0  0
   59.3022   32.0955   48.1722 H   0  0  0  0  0  0  0  0  0  0  0  0
   59.6770   34.1740   48.8580 C   0  0  0  0  0  0  0  0  0  0  0  0
   59.0268   34.7649   49.5198 H   0  0  0  0  0  0  0  0  0  0  0  0
   60.4447   33.9469   49.6124 H   0  0  0  0  0  0  0  0  0  0  0  0
   59.9690   34.7850   47.5280 C   0  0  0  0  0  0  0  0  0  0  0  0
   59.5228   35.7839   47.4133 H   0  0  0  0  0  0  0  0  0  0  0  0
   61.0250   34.9797   47.2891 H   0  0  0  0  0  0  0  0  0  0  0  0
   57.8770   32.2650   43.5420 N   0  0  0  0  0  0  0  0  0  0  0  0
   58.1150   32.9150   42.7590 H   0  0  0  0  0  0  0  0  0  0  0  0
   57.1670   31.1230   43.4470 C   0  0  0  0  0  0  0  0  0  0  0  0
   56.6650   30.6790   42.2900 C   0  0  0  0  0  0  0  0  0  0  0  0
   56.0919   29.7405   42.2632 H   0  0  0  0  0  0  0  0  0  0  0  0
   56.8251   31.2522   41.3649 H   0  0  0  0  0  0  0  0  0  0  0  0
   58.4870   28.0460   45.4780 N   0  0  0  0  0  0  0  0  0  0  0  0
   58.7030   26.7940   45.9370 C   0  0  0  0  0  0  0  0  0  0  0  0
   59.8570   26.3060   46.0670 O   0  0  0  0  0  0  0  0  0  0  0  0
   57.5710   26.1190   46.2320 N   0  0  0  0  0  0  0  0  0  0  0  0
   57.4510   24.7260   46.6690 C   0  0  0  0  0  0  0  0  0  0  0  0
   58.3764   24.4265   47.1827 H   0  0  0  0  0  0  0  0  0  0  0  0
   56.5936   24.6396   47.3527 H   0  0  0  0  0  0  0  0  0  0  0  0
   57.2250   23.8210   45.4860 C   0  0  0  0  0  0  0  0  0  0  0  0
   57.3700   22.4290   45.6120 C   0  0  0  0  0  0  0  0  0  0  0  0
   57.6622   21.9937   46.5790 H   0  0  0  0  0  0  0  0  0  0  0  0
   57.1440   21.5950   44.5120 C   0  0  0  0  0  0  0  0  0  0  0  0
   57.2577   20.5059   44.6162 H   0  0  0  0  0  0  0  0  0  0  0  0
   56.7740   22.1430   43.2810 C   0  0  0  0  0  0  0  0  0  0  0  0
   56.5946   21.4853   42.4177 H   0  0  0  0  0  0  0  0  0  0  0  0
   56.6320   23.5260   43.1470 C   0  0  0  0  0  0  0  0  0  0  0  0
   56.3427   23.9569   42.1771 H   0  0  0  0  0  0  0  0  0  0  0  0
   56.8570   24.3640   44.2440 C   0  0  0  0  0  0  0  0  0  0  0  0
   56.7453   25.4527   44.1336 H   0  0  0  0  0  0  0  0  0  0  0  0
  1  2  1  0
  2  3  1  0
  3  4  2  0
  4  5  1  0
  5  6  1  0
  5  7  2  0
  7  8  1  0
  8  9  1  0
  8 10  2  0
 10 11  1  0
 11 12  2  0
 11 13  1  0
 13 14  1  0
 14 15  1  0
 14 16  1  0
 14 17  1  0
 17 18  1  0
 17 19  1  0
 17 20  1  0
 20 21  1  0
 20 22  1  0
 10 23  1  0
 23 24  1  0
 23 25  1  0
 25 26  2  0
 26 27  1  0
 26 28  1  0
  4 29  1  0
 29 30  1  0
 30 31  2  0
 30 32  1  0
 32 33  1  0
 33 34  1  0
 33 35  1  0
 33 36  1  0
 36 37  2  0
 37 38  1  0
 37 39  1  0
 39 40  1  0
 39 41  2  0
 41 42  1  0
 41 43  1  0
 43 44  1  0
 43 45  2  0
 45 46  1  0
 32  3  1  0
 45 36  1  0
 25  7  1  0
 20 13  1  0
M  CHG  1  29  -1
M  END
>  <UniqueID>  (49) 
47

>  <SMILES>  (49) 
C=c1[nH]c(C(=O)N2CCC2)c/c1=C\c1[n-]c(=O)n(Cc2ccccc2)c1O

>  <Energy>  (49) 
156.05521247999056

>  <Genealogy>  (49) 
C=c1[nH]c(C(=O)N2CCC2)cc1=Cc1[n-]c(=O)n(Cc2ccccc2)c1O (protonated)
C=c1[nH]c(C(=O)N2CCC2)c/c1=C\c1[n-]c(=O)n(Cc2ccccc2)c1O (cis-trans isomerization)
C=c1[nH]c(C(=O)N2CCC2)c/c1=C\c1[n-]c(=O)n(Cc2ccccc2)c1O (3D coordinates assigned)
C=c1[nH]c(C(=O)N2CCC2)c/c1=C\c1[n-]c(=O)n(Cc2ccccc2)c1O (nonaromatic ring conformer: 156.05521247999056 kcal/mol)

>  <smiles>  (49) 
C=c1[nH]c(C(=O)N2CCC2)cc1=Cc1[nH]c(=O)n(Cc2ccccc2)c1O

>  <score_type>  (49) 
oracle

>  <origin>  (49) 
adg

>  <m_score__min__energy>  (49) 
-11.18

>  <m_primary>  (49) 
energy

$$$$
49:0
     RDKit          3D

 45 47  0  0  0  0  0  0  0  0999 V2000
   57.0721   25.0341   45.0163 H   0  0  0  0  0  0  0  0  0  0  0  0
   57.2900   26.1050   45.1420 C   0  0  0  0  0  0  0  0  0  0  0  0
   56.2160   27.0040   45.6240 C   0  0  0  0  0  0  0  0  0  0  0  0
   55.1450   26.5190   46.0790 O   0  0  0  0  0  0  0  0  0  0  0  0
   56.3570   28.4280   45.5850 N   0  0  0  0  0  0  0  0  0  0  0  0
   55.5660   29.3200   44.7430 C   0  0  0  0  0  0  0  0  0  0  0  0
   55.0726   28.7368   43.9515 H   0  0  0  0  0  0  0  0  0  0  0  0
   54.8026   29.8234   45.3543 H   0  0  0  0  0  0  0  0  0  0  0  0
   56.4700   30.3460   44.1210 C   0  0  0  0  0  0  0  0  0  0  0  0
   57.3670   31.0900   44.9100 C   0  0  0  0  0  0  0  0  0  0  0  0
   57.3950   30.9000   46.2980 O   0  0  0  0  0  0  0  0  0  0  0  0
   58.5430   31.1530   47.1050 C   0  0  0  0  0  0  0  0  0  0  0  0
   58.2798   31.0171   48.1644 H   0  0  0  0  0  0  0  0  0  0  0  0
   59.3416   30.4508   46.8239 H   0  0  0  0  0  0  0  0  0  0  0  0
   59.0280   32.5600   46.8900 C   0  0  0  0  0  0  0  0  0  0  0  0
   58.1220   33.6330   46.8360 C   0  0  0  0  0  0  0  0  0  0  0  0
   57.0458   33.4495   46.9703 H   0  0  0  0  0  0  0  0  0  0  0  0
   58.5850   34.9330   46.6120 C   0  0  0  0  0  0  0  0  0  0  0  0
   57.8726   35.7701   46.5719 H   0  0  0  0  0  0  0  0  0  0  0  0
   59.9510   35.1710   46.4390 C   0  0  0  0  0  0  0  0  0  0  0  0
   60.3124   36.1952   46.2648 H   0  0  0  0  0  0  0  0  0  0  0  0
   60.8580   34.1100   46.4870 C   0  0  0  0  0  0  0  0  0  0  0  0
   61.9328   34.2988   46.3487 H   0  0  0  0  0  0  0  0  0  0  0  0
   60.4000   32.8070   46.7110 C   0  0  0  0  0  0  0  0  0  0  0  0
   61.1163   31.9730   46.7471 H   0  0  0  0  0  0  0  0  0  0  0  0
   58.2070   31.9850   44.3180 N   0  0  0  0  0  0  0  0  0  0  0  0
   58.2160   32.1850   42.9750 C   0  0  0  0  0  0  0  0  0  0  0  0
   58.9050   32.9198   42.5330 H   0  0  0  0  0  0  0  0  0  0  0  0
   57.3520   31.4590   42.1560 C   0  0  0  0  0  0  0  0  0  0  0  0
   57.3573   31.6151   41.0671 H   0  0  0  0  0  0  0  0  0  0  0  0
   56.4810   30.5330   42.7300 C   0  0  0  0  0  0  0  0  0  0  0  0
   55.8019   29.9486   42.0918 H   0  0  0  0  0  0  0  0  0  0  0  0
   58.5200   26.5560   44.8540 C   0  0  0  0  0  0  0  0  0  0  0  0
   58.9815   26.2366   43.9080 H   0  0  0  0  0  0  0  0  0  0  0  0
   59.2930   27.4610   45.7390 C   0  0  0  0  0  0  0  0  0  0  0  0
   60.0430   28.4970   45.1550 C   0  0  0  0  0  0  0  0  0  0  0  0
   60.0506   28.6144   44.0613 H   0  0  0  0  0  0  0  0  0  0  0  0
   60.7790   29.3790   45.9510 C   0  0  0  0  0  0  0  0  0  0  0  0
   61.3679   30.1809   45.4819 H   0  0  0  0  0  0  0  0  0  0  0  0
   60.7680   29.2440   47.3400 C   0  0  0  0  0  0  0  0  0  0  0  0
   61.3530   29.9352   47.9645 H   0  0  0  0  0  0  0  0  0  0  0  0
   60.0140   28.2310   47.9370 C   0  0  0  0  0  0  0  0  0  0  0  0
   60.0005   28.1297   49.0322 H   0  0  0  0  0  0  0  0  0  0  0  0
   59.2760   27.3450   47.1450 C   0  0  0  0  0  0  0  0  0  0  0  0
   58.6790   26.5533   47.6212 H   0  0  0  0  0  0  0  0  0  0  0  0
  1  2  1  0
  2  3  1  0
  3  4  2  0
  3  5  1  0
  5  6  1  0
  6  7  1  0
  6  8  1  0
  6  9  1  0
  9 10  1  0
 10 11  1  0
 11 12  1  0
 12 13  1  0
 12 14  1  0
 12 15  1  0
 15 16  2  0
 16 17  1  0
 16 18  1  0
 18 19  1  0
 18 20  2  0
 20 21  1  0
 20 22  1  0
 22 23  1  0
 22 24  2  0
 24 25  1  0
 10 26  2  0
 26 27  1  0
 27 28  1  0
 27 29  2  0
 29 30  1  0
 29 31  1  0
 31 32  1  0
  2 33  2  0
 33 34  1  0
 33 35  1  0
 35 36  2  0
 36 37  1  0
 36 38  1  0
 38 39  1  0
 38 40  2  0
 40 41  1  0
 40 42  1  0
 42 43  1  0
 42 44  2  0
 44 45  1  0
 31  9  2  0
 44 35  1  0
 24 15  1  0
M  CHG  1   5  -1
M  END
>  <UniqueID>  (50) 
48

>  <SMILES>  (50) 
O=C(/C=C/c1ccccc1)[N-]Cc1cccnc1OCc1ccccc1

>  <Energy>  (50) 
45.89369611006014

>  <Genealogy>  (50) 
O=C(C=Cc1ccccc1)[N-]Cc1cccnc1OCc1ccccc1 (protonated)
O=C(/C=C/c1ccccc1)[N-]Cc1cccnc1OCc1ccccc1 (cis-trans isomerization)
O=C(/C=C/c1ccccc1)[N-]Cc1cccnc1OCc1ccccc1 (3D coordinates assigned)
O=C(/C=C/c1ccccc1)[N-]Cc1cccnc1OCc1ccccc1 (optimized conformer: 45.89369611006014 kcal/mol)

>  <smiles>  (50) 
O=C(C=Cc1ccccc1)NCc1cccnc1OCc1ccccc1

>  <score_type>  (50) 
oracle

>  <origin>  (50) 
adg

>  <m_score__min__energy>  (50) 
-10.380000000000001

>  <m_primary>  (50) 
energy

$$$$
50:0
     RDKit          3D

 31 33  0  0  0  0  0  0  0  0999 V2000
   64.5990   32.6100   47.5780 H   0  0  0  0  0  0  0  0  0  0  0  0
   63.7200   33.0990   47.4800 O   0  0  0  0  0  0  0  0  0  0  0  0
   62.8410   33.3350   48.5430 C   0  0  0  0  0  0  0  0  0  0  0  0
   63.2730   33.0670   49.8640 C   0  0  0  0  0  0  0  0  0  0  0  0
   64.6500   32.6170   50.1740 C   0  0  0  0  0  0  0  0  0  0  0  0
   64.8425   32.1033   51.1274 H   0  0  0  0  0  0  0  0  0  0  0  0
   65.6060   32.8060   49.3770 O   0  0  0  0  0  0  0  0  0  0  0  0
   62.3690   33.2050   50.9270 C   0  0  0  0  0  0  0  0  0  0  0  0
   62.7008   32.9953   51.9546 H   0  0  0  0  0  0  0  0  0  0  0  0
   61.0550   33.6050   50.6950 C   0  0  0  0  0  0  0  0  0  0  0  0
   60.3503   33.6882   51.5356 H   0  0  0  0  0  0  0  0  0  0  0  0
   60.6310   33.9000   49.4010 C   0  0  0  0  0  0  0  0  0  0  0  0
   59.5914   34.2144   49.2269 H   0  0  0  0  0  0  0  0  0  0  0  0
   61.5170   33.8000   48.3180 C   0  0  0  0  0  0  0  0  0  0  0  0
   61.0190   34.2130   46.9900 C   0  0  0  0  0  0  0  0  0  0  0  0
   60.8047   35.2743   46.7959 H   0  0  0  0  0  0  0  0  0  0  0  0
   60.8310   33.3370   46.0480 N   0  0  0  0  0  0  0  0  0  0  0  0
   59.5730   32.7560   45.6660 C   0  0  0  0  0  0  0  0  0  0  0  0
   58.5440   33.5060   45.0280 C   0  0  0  0  0  0  0  0  0  0  0  0
   58.7060   34.5704   44.8026 H   0  0  0  0  0  0  0  0  0  0  0  0
   57.3220   32.8990   44.6830 C   0  0  0  0  0  0  0  0  0  0  0  0
   56.5273   33.4714   44.1821 H   0  0  0  0  0  0  0  0  0  0  0  0
   57.1480   31.5530   44.9940 C   0  0  0  0  0  0  0  0  0  0  0  0
   56.0550   30.8060   44.7490 N   0  0  0  0  0  0  0  0  0  0  0  0
   56.3820   29.5880   45.2410 C   0  0  0  0  0  0  0  0  0  0  0  0
   55.5220   28.4980   45.1950 O   0  0  0  0  0  0  0  0  0  0  0  0
   57.6550   29.5540   45.7920 C   0  0  0  0  0  0  0  0  0  0  0  0
   58.1669   28.7002   46.2599 H   0  0  0  0  0  0  0  0  0  0  0  0
   58.1290   30.8310   45.6190 C   0  0  0  0  0  0  0  0  0  0  0  0
   59.3500   31.3980   45.9750 C   0  0  0  0  0  0  0  0  0  0  0  0
   60.1213   30.8017   46.4845 H   0  0  0  0  0  0  0  0  0  0  0  0
  1  2  1  0
  2  3  1  0
  3  4  2  0
  4  5  1  0
  5  6  1  0
  5  7  2  0
  4  8  1  0
  8  9  1  0
  8 10  2  0
 10 11  1  0
 10 12  1  0
 12 13  1  0
 12 14  2  0
 14 15  1  0
 15 16  1  0
 15 17  2  0
 17 18  1  0
 18 19  2  0
 19 20  1  0
 19 21  1  0
 21 22  1  0
 21 23  2  0
 23 24  1  0
 24 25  1  0
 25 26  1  0
 25 27  2  0
 27 28  1  0
 27 29  1  0
 29 30  2  0
 30 31  1  0
 14  3  1  0
 30 18  1  0
 29 23  1  0
M  CHG  2  24  -1  26  -1
M  END
>  <UniqueID>  (51) 
49

>  <SMILES>  (51) 
O=Cc1cccc(/C=N/c2ccc3[n-]c([O-])cc3c2)c1O

>  <Energy>  (51) 
75.63408735967637

>  <Genealogy>  (51) 
O=Cc1cccc(C=Nc2ccc3[n-]c([O-])cc3c2)c1O (protonated)
O=Cc1cccc(/C=N/c2ccc3[n-]c([O-])cc3c2)c1O (cis-trans isomerization)
O=Cc1cccc(/C=N/c2ccc3[n-]c([O-])cc3c2)c1O (3D coordinates assigned)
O=Cc1cccc(/C=N/c2ccc3[n-]c([O-])cc3c2)c1O (optimized conformer: 75.63408735967637 kcal/mol)

>  <smiles>  (51) 
O=Cc1cccc(C=Nc2ccc3[nH]c(O)cc3c2)c1O

>  <score_type>  (51) 
oracle

>  <origin>  (51) 
adg

>  <m_score__min__energy>  (51) 
-12.869999999999999

>  <m_primary>  (51) 
energy

$$$$
51:0
     RDKit          3D

 57 60  0  0  0  0  0  0  0  0999 V2000
   56.5860   30.0860   46.3900 H   0  0  0  0  0  0  0  0  0  0  0  0
   57.4270   30.6490   46.3390 O   0  0  0  0  0  0  0  0  0  0  0  0
   57.7060   31.4510   45.2340 C   0  0  0  0  0  0  0  0  0  0  0  0
   58.4090   32.6520   45.4190 C   0  0  0  0  0  0  0  0  0  0  0  0
   58.7173   32.9524   46.4313 H   0  0  0  0  0  0  0  0  0  0  0  0
   58.7230   33.4750   44.3220 C   0  0  0  0  0  0  0  0  0  0  0  0
   59.4210   34.6820   44.4610 O   0  0  0  0  0  0  0  0  0  0  0  0
   59.6540   35.3360   45.7040 C   0  0  0  0  0  0  0  0  0  0  0  0
   59.4101   34.6515   46.5298 H   0  0  0  0  0  0  0  0  0  0  0  0
   60.7120   35.6295   45.7713 H   0  0  0  0  0  0  0  0  0  0  0  0
   59.0199   36.2323   45.7713 H   0  0  0  0  0  0  0  0  0  0  0  0
   58.3300   33.0800   43.0400 C   0  0  0  0  0  0  0  0  0  0  0  0
   58.5718   33.7158   42.1756 H   0  0  0  0  0  0  0  0  0  0  0  0
   57.6330   31.8850   42.8470 C   0  0  0  0  0  0  0  0  0  0  0  0
   57.3409   31.5845   41.8300 H   0  0  0  0  0  0  0  0  0  0  0  0
   57.3000   31.0610   43.9380 C   0  0  0  0  0  0  0  0  0  0  0  0
   56.5440   29.8040   43.6990 C   0  0  0  0  0  0  0  0  0  0  0  0
   56.2590   29.4640   42.5160 O   0  0  0  0  0  0  0  0  0  0  0  0
   56.0310   29.0470   44.8070 N   0  0  0  0  0  0  0  0  0  0  0  0
   56.5710   28.0250   45.4100 C   0  0  0  0  0  0  0  0  0  0  0  0
   55.7750   26.9630   45.7120 N   0  0  0  0  0  0  0  0  0  0  0  0
   56.2450   25.8600   46.3520 C   0  0  0  0  0  0  0  0  0  0  0  0
   55.5681   25.0202   46.5675 H   0  0  0  0  0  0  0  0  0  0  0  0
   57.5840   25.7910   46.7360 C   0  0  0  0  0  0  0  0  0  0  0  0
   57.9697   24.8993   47.2518 H   0  0  0  0  0  0  0  0  0  0  0  0
   58.4290   26.8670   46.4580 C   0  0  0  0  0  0  0  0  0  0  0  0
   60.1440   26.8210   46.9820 S   0  0  0  0  0  0  0  0  0  0  0  0
   60.0690   28.4560   47.7160 C   0  0  0  0  0  0  0  0  0  0  0  0
   59.6610   28.6080   49.0440 C   0  0  0  0  0  0  0  0  0  0  0  0
   59.3766   27.7255   49.6359 H   0  0  0  0  0  0  0  0  0  0  0  0
   59.6140   29.8810   49.6210 C   0  0  0  0  0  0  0  0  0  0  0  0
   59.2747   29.9972   50.6609 H   0  0  0  0  0  0  0  0  0  0  0  0
   59.9960   31.0090   48.8840 C   0  0  0  0  0  0  0  0  0  0  0  0
   59.9210   32.2980   49.5090 N   0  0  0  0  0  0  0  0  0  0  0  0
   59.9570   33.5700   48.8530 C   0  0  0  0  0  0  0  0  0  0  0  0
   58.9880   33.9550   48.1470 O   0  0  0  0  0  0  0  0  0  0  0  0
   61.1180   34.3940   49.0060 N   0  0  0  0  0  0  0  0  0  0  0  0
   62.4410   33.9530   49.3510 C   0  0  0  0  0  0  0  0  0  0  0  0
   62.9520   34.2790   50.6130 C   0  0  0  0  0  0  0  0  0  0  0  0
   62.3486   34.8852   51.3047 H   0  0  0  0  0  0  0  0  0  0  0  0
   64.2210   33.8420   51.0030 C   0  0  0  0  0  0  0  0  0  0  0  0
   64.6109   34.1102   51.9960 H   0  0  0  0  0  0  0  0  0  0  0  0
   65.0020   33.0610   50.1320 C   0  0  0  0  0  0  0  0  0  0  0  0
   66.3690   32.5600   50.5280 C   0  0  0  0  0  0  0  0  0  0  0  0
   66.4000   31.1800   50.4300 F   0  0  0  0  0  0  0  0  0  0  0  0
   67.3220   33.0940   49.6800 F   0  0  0  0  0  0  0  0  0  0  0  0
   66.6890   32.9180   51.8270 F   0  0  0  0  0  0  0  0  0  0  0  0
   64.4760   32.7100   48.8770 C   0  0  0  0  0  0  0  0  0  0  0  0
   65.0707   32.0877   48.1921 H   0  0  0  0  0  0  0  0  0  0  0  0
   63.2040   33.1440   48.4900 C   0  0  0  0  0  0  0  0  0  0  0  0
   62.7993   32.8519   47.5097 H   0  0  0  0  0  0  0  0  0  0  0  0
   60.3870   30.8520   47.5420 C   0  0  0  0  0  0  0  0  0  0  0  0
   60.6623   31.7337   46.9446 H   0  0  0  0  0  0  0  0  0  0  0  0
   60.4270   29.5800   46.9650 C   0  0  0  0  0  0  0  0  0  0  0  0
   60.7409   29.4625   45.9173 H   0  0  0  0  0  0  0  0  0  0  0  0
   57.9290   27.9940   45.7980 C   0  0  0  0  0  0  0  0  0  0  0  0
   58.5872   28.8487   45.5829 H   0  0  0  0  0  0  0  0  0  0  0  0
  1  2  1  0
  2  3  1  0
  3  4  2  0
  4  5  1  0
  4  6  1  0
  6  7  1  0
  7  8  1  0
  8  9  1  0
  8 10  1  0
  8 11  1  0
  6 12  2  0
 12 13  1  0
 12 14  1  0
 14 15  1  0
 14 16  2  0
 16 17  1  0
 17 18  2  0
 17 19  1  0
 19 20  2  0
 20 21  1  0
 21 22  1  0
 22 23  1  0
 22 24  2  0
 24 25  1  0
 24 26  1  0
 26 27  1  0
 27 28  1  0
 28 29  2  0
 29 30  1  0
 29 31  1  0
 31 32  1  0
 31 33  2  0
 33 34  1  0
 34 35  1  0
 35 36  2  0
 35 37  1  0
 37 38  1  0
 38 39  2  0
 39 40  1  0
 39 41  1  0
 41 42  1  0
 41 43  2  0
 43 44  1  0
 44 45  1  0
 44 46  1  0
 44 47  1  0
 43 48  1  0
 48 49  1  0
 48 50  2  0
 50 51  1  0
 33 52  1  0
 52 53  1  0
 52 54  2  0
 54 55  1  0
 26 56  2  0
 56 57  1  0
 16  3  1  0
 56 20  1  0
 54 28  1  0
 50 38  1  0
M  CHG  3  21  -1  34  -1  37  -1
M  END
>  <UniqueID>  (52) 
50

>  <SMILES>  (52) 
COc1ccc(C(=O)/N=c2\cc(Sc3ccc([N-]C(=O)[N-]c4ccc(C(F)(F)F)cc4)cc3)cc[n-]2)c(O)c1

>  <Energy>  (52) 
75.22968037024643

>  <Genealogy>  (52) 
COc1ccc(C(=O)N=c2cc(Sc3ccc([N-]C(=O)[N-]c4ccc(C(F)(F)F)cc4)cc3)cc[n-]2)c(O)c1 (protonated)
COc1ccc(C(=O)/N=c2\cc(Sc3ccc([N-]C(=O)[N-]c4ccc(C(F)(F)F)cc4)cc3)cc[n-]2)c(O)c1 (cis-trans isomerization)
COc1ccc(C(=O)/N=c2\cc(Sc3ccc([N-]C(=O)[N-]c4ccc(C(F)(F)F)cc4)cc3)cc[n-]2)c(O)c1 (3D coordinates assigned)
COc1ccc(C(=O)/N=c2\cc(Sc3ccc([N-]C(=O)[N-]c4ccc(C(F)(F)F)cc4)cc3)cc[n-]2)c(O)c1 (optimized conformer: 75.22968037024643 kcal/mol)

>  <smiles>  (52) 
COc1ccc(C(=O)N=c2cc(Sc3ccc(NC(=O)Nc4ccc(C(F)(F)F)cc4)cc3)cc[nH]2)c(O)c1

>  <score_type>  (52) 
oracle

>  <origin>  (52) 
adg

>  <m_score__min__energy>  (52) 
-12.5

>  <m_primary>  (52) 
energy

$$$$
52:0
     RDKit          3D

 18 19  0  0  0  0  0  0  0  0999 V2000
   60.4610   28.7440   46.2810 O   0  0  0  0  0  0  0  0  0  0  0  0
   59.2330   28.7750   46.0010 C   0  0  0  0  0  0  0  0  0  0  0  0
   58.6850   29.9330   45.5660 N   0  0  0  0  0  0  0  0  0  0  0  0
   57.3750   30.0170   45.2260 C   0  0  0  0  0  0  0  0  0  0  0  0
   56.9200   31.1120   44.8030 O   0  0  0  0  0  0  0  0  0  0  0  0
   56.5640   28.9220   45.3120 N   0  0  0  0  0  0  0  0  0  0  0  0
   55.2900   29.0480   44.7900 O   0  0  0  0  0  0  0  0  0  0  0  0
   57.0460   27.7370   45.8270 C   0  0  0  0  0  0  0  0  0  0  0  0
   56.2110   26.6210   46.1080 C   0  0  0  0  0  0  0  0  0  0  0  0
   54.8270   26.6900   46.0010 O   0  0  0  0  0  0  0  0  0  0  0  0
   56.7660   25.4220   46.5640 C   0  0  0  0  0  0  0  0  0  0  0  0
   58.1340   25.3170   46.8010 C   0  0  0  0  0  0  0  0  0  0  0  0
   58.9610   26.4210   46.6110 C   0  0  0  0  0  0  0  0  0  0  0  0
   58.4280   27.6360   46.1440 C   0  0  0  0  0  0  0  0  0  0  0  0
   54.7400   28.2520   44.4960 H   0  0  0  0  0  0  0  0  0  0  0  0
   56.1152   24.5523   46.7374 H   0  0  0  0  0  0  0  0  0  0  0  0
   58.5617   24.3614   47.1385 H   0  0  0  0  0  0  0  0  0  0  0  0
   60.0367   26.3426   46.8272 H   0  0  0  0  0  0  0  0  0  0  0  0
  1  2  2  0
  2  3  1  0
  3  4  1  0
  4  5  2  0
  4  6  1  0
  6  7  1  0
  6  8  1  0
  8  9  2  0
  9 10  1  0
  9 11  1  0
 11 12  2  0
 12 13  1  0
 13 14  2  0
 14  2  1  0
 14  8  1  0
  7 15  1  0
 11 16  1  0
 12 17  1  0
 13 18  1  0
M  CHG  2   3  -1  10  -1
M  END
>  <UniqueID>  (53) 
51

>  <SMILES>  (53) 
O=c1[n-]c(=O)n(O)c2c([O-])cccc12

>  <Energy>  (53) 
34.054538906707315

>  <Genealogy>  (53) 
O=c1[n-]c(=O)n(O)c2c([O-])cccc12 (protonated)
O=c1[n-]c(=O)n(O)c2c([O-])cccc12 (3D coordinates assigned)
O=c1[n-]c(=O)n(O)c2c([O-])cccc12 (optimized conformer: 34.054538906707315 kcal/mol)

>  <smiles>  (53) 
O=c1[nH]c(=O)n(O)c2c(O)cccc12

>  <score_type>  (53) 
oracle

>  <origin>  (53) 
adg

>  <m_score__min__energy>  (53) 
-12.59

>  <m_primary>  (53) 
energy

$$$$
53:0
     RDKit          3D

 66 69  0  0  1  0  0  0  0  0999 V2000
   58.8050   25.0340   45.6360 C   0  0  0  0  0  0  0  0  0  0  0  0
   58.2010   26.3500   46.0230 C   0  0  0  0  0  0  0  0  0  0  0  0
   57.0440   26.0280   46.9500 C   0  0  0  0  0  0  0  0  0  0  0  0
   59.2110   27.0610   46.8460 C   0  0  0  0  0  0  0  0  0  0  0  0
   60.3720   26.6030   47.0580 O   0  0  0  0  0  0  0  0  0  0  0  0
   58.8230   28.3120   47.4060 N   0  0  0  0  0  0  0  0  0  0  0  0
   59.6770   29.1050   48.2140 C   0  0  0  0  0  0  0  0  0  0  0  0
   60.5580   29.9460   47.5240 C   0  0  0  0  0  0  0  0  0  0  0  0
   61.4380   30.7650   48.1860 C   0  0  0  0  0  0  0  0  0  0  0  0
   61.4350   30.7400   49.5640 C   0  0  0  0  0  0  0  0  0  0  0  0
   62.3830   31.6220   50.2400 C   0  0  0  0  0  0  0  0  0  0  0  0
   62.9920   31.2300   51.2760 O   0  0  0  0  0  0  0  0  0  0  0  0
   62.6550   32.9310   49.7730 N   0  0  0  0  0  0  0  0  0  0  0  0
   63.0500   33.1440   48.5510 C   0  0  0  0  0  0  0  0  0  0  0  0
   62.5140   34.0230   47.6780 N   0  0  0  0  0  0  0  0  0  0  0  0
   63.2150   33.9200   46.5550 N   0  0  0  0  0  0  0  0  0  0  0  0
   64.1500   33.0030   46.7450 N   0  0  0  0  0  0  0  0  0  0  0  0
   64.0760   32.5020   47.9680 N   0  0  0  0  0  0  0  0  0  0  0  0
   60.5690   29.9110   50.2480 C   0  0  0  0  0  0  0  0  0  0  0  0
   59.6700   29.0750   49.5940 C   0  0  0  0  0  0  0  0  0  0  0  0
   57.6990   27.1690   44.8750 C   0  0  1  0  0  0  0  0  0  0  0  0
   56.7210   28.2280   45.2490 C   0  0  0  0  0  0  0  0  0  0  0  0
   56.7370   29.2650   44.1150 C   0  0  0  0  0  0  0  0  0  0  0  0
   57.9390   30.1330   44.3960 C   0  0  2  0  0  0  0  0  0  0  0  0
   58.1550   31.2090   43.5110 N   0  0  0  0  0  0  0  0  0  0  0  0
   57.4690   32.4220   43.7570 C   0  0  0  0  0  0  0  0  0  0  0  0
   58.1890   33.1010   44.8830 C   0  0  0  0  0  0  0  0  0  0  0  0
   58.9930   34.2190   44.6290 C   0  0  0  0  0  0  0  0  0  0  0  0
   59.6340   34.8040   45.7140 C   0  0  0  0  0  0  0  0  0  0  0  0
   59.4970   34.3190   47.0020 C   0  0  0  0  0  0  0  0  0  0  0  0
   58.7030   33.2170   47.2440 C   0  0  0  0  0  0  0  0  0  0  0  0
   58.5280   32.6720   48.5750 C   0  0  0  0  0  0  0  0  0  0  0  0
   58.3880   32.2290   49.6260 N   0  0  0  0  0  0  0  0  0  0  0  0
   58.0470   32.6080   46.1760 C   0  0  0  0  0  0  0  0  0  0  0  0
   59.1240   29.2020   44.5000 C   0  0  0  0  0  0  0  0  0  0  0  0
   58.7910   27.7950   44.0690 C   0  0  0  0  0  0  0  0  0  0  0  0
   59.0645   24.4687   46.5433 H   0  0  0  0  0  0  0  0  0  0  0  0
   58.0806   24.4591   45.0404 H   0  0  0  0  0  0  0  0  0  0  0  0
   59.7132   25.2084   45.0404 H   0  0  0  0  0  0  0  0  0  0  0  0
   57.3749   26.1201   47.9950 H   0  0  0  0  0  0  0  0  0  0  0  0
   56.2183   26.7305   46.7636 H   0  0  0  0  0  0  0  0  0  0  0  0
   56.6999   25.0000   46.7636 H   0  0  0  0  0  0  0  0  0  0  0  0
   57.8540   28.7130   47.2400 H   0  0  0  0  0  0  0  0  0  0  0  0
   60.5446   29.9505   46.4241 H   0  0  0  0  0  0  0  0  0  0  0  0
   62.1255   31.4220   47.6331 H   0  0  0  0  0  0  0  0  0  0  0  0
   64.8300   32.7420   45.9970 H   0  0  0  0  0  0  0  0  0  0  0  0
   64.6840   31.7670   48.3930 H   0  0  0  0  0  0  0  0  0  0  0  0
   60.5905   29.9114   51.3478 H   0  0  0  0  0  0  0  0  0  0  0  0
   58.9845   28.4196   50.1513 H   0  0  0  0  0  0  0  0  0  0  0  0
   57.1744   26.4219   44.2612 H   0  0  0  0  0  0  0  0  0  0  0  0
   57.0171   28.6993   46.1978 H   0  0  0  0  0  0  0  0  0  0  0  0
   55.7142   27.8063   45.3851 H   0  0  0  0  0  0  0  0  0  0  0  0
   55.8153   29.8653   44.1271 H   0  0  0  0  0  0  0  0  0  0  0  0
   56.7919   28.7919   43.1234 H   0  0  0  0  0  0  0  0  0  0  0  0
   57.7607   30.6740   45.3370 H   0  0  0  0  0  0  0  0  0  0  0  0
   59.0650   31.2620   43.0330 H   0  0  0  0  0  0  0  0  0  0  0  0
   57.4858   33.0564   42.8585 H   0  0  0  0  0  0  0  0  0  0  0  0
   56.4157   32.2367   44.0144 H   0  0  0  0  0  0  0  0  0  0  0  0
   59.1123   34.6182   43.6110 H   0  0  0  0  0  0  0  0  0  0  0  0
   60.2725   35.6832   45.5427 H   0  0  0  0  0  0  0  0  0  0  0  0
   60.0213   34.8121   47.8338 H   0  0  0  0  0  0  0  0  0  0  0  0
   57.4108   31.7291   46.3571 H   0  0  0  0  0  0  0  0  0  0  0  0
   59.4647   29.1796   45.5457 H   0  0  0  0  0  0  0  0  0  0  0  0
   59.9079   29.5814   43.8281 H   0  0  0  0  0  0  0  0  0  0  0  0
   59.6955   27.1769   44.1681 H   0  0  0  0  0  0  0  0  0  0  0  0
   58.4361   27.8498   43.0293 H   0  0  0  0  0  0  0  0  0  0  0  0
  1  2  1  0
  2  3  1  0
  2  4  1  0
  4  5  2  0
  4  6  1  0
  6  7  1  0
  7  8  2  0
  8  9  1  0
  9 10  2  0
 10 11  1  0
 11 12  2  0
 11 13  1  0
 13 14  2  3
 14 15  1  0
 15 16  2  0
 16 17  1  0
 17 18  1  0
 10 19  1  0
 19 20  2  0
  2 21  1  0
 21 22  1  0
 22 23  1  0
 23 24  1  0
 24 25  1  0
 25 26  1  0
 26 27  1  0
 27 28  2  0
 28 29  1  0
 29 30  2  0
 30 31  1  0
 31 32  1  0
 32 33  3  0
 31 34  2  0
 24 35  1  0
 35 36  1  0
 20  7  1  0
 36 21  1  0
 18 14  1  0
 34 27  1  0
  1 37  1  0
  1 38  1  0
  1 39  1  0
  3 40  1  0
  3 41  1  0
  3 42  1  0
  6 43  1  0
  8 44  1  0
  9 45  1  0
 17 46  1  0
 18 47  1  0
 19 48  1  0
 20 49  1  0
 21 50  1  6
 22 51  1  0
 22 52  1  0
 23 53  1  0
 23 54  1  0
 24 55  1  1
 25 56  1  0
 26 57  1  0
 26 58  1  0
 28 59  1  0
 29 60  1  0
 30 61  1  0
 34 62  1  0
 35 63  1  0
 35 64  1  0
 36 65  1  0
 36 66  1  0
M  END
>  <smiles>  (54) 
CC(C)(C(=O)Nc1ccc(C(=O)N=c2nn[nH][nH]2)cc1)C1CCC(NCc2cccc(C#N)c2)CC1

>  <score_type>  (54) 
oracle

>  <origin>  (54) 
adg

>  <m_score__min__energy>  (54) 
-12.4

>  <m_primary>  (54) 
energy

$$$$
54:0
     RDKit          3D

 50 52  0  0  0  0  0  0  0  0999 V2000
   55.5657   27.4107   45.5982 H   0  0  0  0  0  0  0  0  0  0  0  0
   56.3400   28.1160   45.2620 C   0  0  0  0  0  0  0  0  0  0  0  0
   56.0370   29.4320   45.1060 N   0  0  0  0  0  0  0  0  0  0  0  0
   56.9580   30.3470   44.6970 C   0  0  0  0  0  0  0  0  0  0  0  0
   56.6390   31.5970   44.5260 N   0  0  0  0  0  0  0  0  0  0  0  0
   57.5230   32.6600   44.1290 C   0  0  0  0  0  0  0  0  0  0  0  0
   58.1050   32.6370   43.0070 O   0  0  0  0  0  0  0  0  0  0  0  0
   57.7650   33.8210   45.0580 C   0  0  0  0  0  0  0  0  0  0  0  0
   57.0864   34.6432   44.7869 H   0  0  0  0  0  0  0  0  0  0  0  0
   57.4150   33.4630   46.5250 C   0  0  0  0  0  0  0  0  0  0  0  0
   56.8993   34.3194   46.9839 H   0  0  0  0  0  0  0  0  0  0  0  0
   56.7753   32.5683   46.5078 H   0  0  0  0  0  0  0  0  0  0  0  0
   58.6580   33.1320   47.3600 C   0  0  0  0  0  0  0  0  0  0  0  0
   58.3443   32.9020   48.3889 H   0  0  0  0  0  0  0  0  0  0  0  0
   59.1604   32.2701   46.8966 H   0  0  0  0  0  0  0  0  0  0  0  0
   59.6570   34.3060   47.3940 C   0  0  0  0  0  0  0  0  0  0  0  0
   59.3995   34.9577   48.2419 H   0  0  0  0  0  0  0  0  0  0  0  0
   60.6629   33.8718   47.4916 H   0  0  0  0  0  0  0  0  0  0  0  0
   59.6530   35.1560   46.1060 C   0  0  0  0  0  0  0  0  0  0  0  0
   58.9613   36.0008   46.2395 H   0  0  0  0  0  0  0  0  0  0  0  0
   60.6794   35.5088   45.9268 H   0  0  0  0  0  0  0  0  0  0  0  0
   59.2110   34.3420   44.8870 C   0  0  0  0  0  0  0  0  0  0  0  0
   59.2591   34.9803   43.9925 H   0  0  0  0  0  0  0  0  0  0  0  0
   59.8831   33.4775   44.7826 H   0  0  0  0  0  0  0  0  0  0  0  0
   58.2600   29.9280   44.4180 C   0  0  0  0  0  0  0  0  0  0  0  0
   59.0137   30.6541   44.0794 H   0  0  0  0  0  0  0  0  0  0  0  0
   58.6010   28.5820   44.5710 C   0  0  0  0  0  0  0  0  0  0  0  0
   59.6274   28.2487   44.3581 H   0  0  0  0  0  0  0  0  0  0  0  0
   57.6390   27.6550   44.9950 C   0  0  0  0  0  0  0  0  0  0  0  0
   57.9730   26.2170   45.1550 C   0  0  0  0  0  0  0  0  0  0  0  0
   59.1890   25.8300   45.7400 C   0  0  0  0  0  0  0  0  0  0  0  0
   59.9127   26.5912   46.0671 H   0  0  0  0  0  0  0  0  0  0  0  0
   59.4740   24.4750   45.9040 C   0  0  0  0  0  0  0  0  0  0  0  0
   60.4207   24.1637   46.3698 H   0  0  0  0  0  0  0  0  0  0  0  0
   58.5600   23.5180   45.4780 C   0  0  0  0  0  0  0  0  0  0  0  0
   58.7814   22.4475   45.6010 H   0  0  0  0  0  0  0  0  0  0  0  0
   57.3550   23.9260   44.8910 C   0  0  0  0  0  0  0  0  0  0  0  0
   56.3770   22.8990   44.3860 C   0  0  0  0  0  0  0  0  0  0  0  0
   56.1481   22.1894   45.1948 H   0  0  0  0  0  0  0  0  0  0  0  0
   56.8267   22.3709   43.5322 H   0  0  0  0  0  0  0  0  0  0  0  0
   55.1430   23.5380   43.9460 N   0  0  0  0  0  0  0  0  0  0  0  0
   54.1610   24.0520   44.8460 C   0  0  0  0  0  0  0  0  0  0  0  0
   54.4410   25.0580   45.5490 O   0  0  0  0  0  0  0  0  0  0  0  0
   52.9100   23.4370   44.9540 O   0  0  0  0  0  0  0  0  0  0  0  0
   51.7000   24.0870   44.5850 C   0  0  0  0  0  0  0  0  0  0  0  0
   51.1510   24.3819   45.4914 H   0  0  0  0  0  0  0  0  0  0  0  0
   51.9316   24.9821   43.9891 H   0  0  0  0  0  0  0  0  0  0  0  0
   51.0815   23.3997   43.9891 H   0  0  0  0  0  0  0  0  0  0  0  0
   57.0870   25.2560   44.7470 N   0  0  0  0  0  0  0  0  0  0  0  0
   56.1950   25.5470   44.2860 H   0  0  0  0  0  0  0  0  0  0  0  0
  1  2  1  0
  2  3  1  0
  3  4  1  0
  4  5  2  0
  5  6  1  0
  6  7  2  0
  6  8  1  0
  8  9  1  0
  8 10  1  0
 10 11  1  0
 10 12  1  0
 10 13  1  0
 13 14  1  0
 13 15  1  0
 13 16  1  0
 16 17  1  0
 16 18  1  0
 16 19  1  0
 19 20  1  0
 19 21  1  0
 19 22  1  0
 22 23  1  0
 22 24  1  0
  4 25  1  0
 25 26  1  0
 25 27  2  0
 27 28  1  0
 27 29  1  0
 29 30  1  0
 30 31  2  0
 31 32  1  0
 31 33  1  0
 33 34  1  0
 33 35  2  0
 35 36  1  0
 35 37  1  0
 37 38  1  0
 38 39  1  0
 38 40  1  0
 38 41  1  0
 41 42  1  0
 42 43  2  0
 42 44  1  0
 44 45  1  0
 45 46  1  0
 45 47  1  0
 45 48  1  0
 37 49  2  0
 49 50  1  0
 29  2  2  0
 49 30  1  0
 22  8  1  0
M  CHG  3   3  -1  41  -1  49   1
M  END
>  <UniqueID>  (55) 
52

>  <SMILES>  (55) 
COC(=O)[N-]Cc1cccc(-c2cc/c(=N/C(=O)C3CCCCC3)[n-]c2)[nH+]1

>  <Energy>  (55) 
55.255957983648265

>  <Genealogy>  (55) 
COC(=O)[N-]Cc1cccc(-c2ccc(=NC(=O)C3CCCCC3)[n-]c2)[nH+]1 (protonated)
COC(=O)[N-]Cc1cccc(-c2cc/c(=N/C(=O)C3CCCCC3)[n-]c2)[nH+]1 (cis-trans isomerization)
COC(=O)[N-]Cc1cccc(-c2cc/c(=N/C(=O)C3CCCCC3)[n-]c2)[nH+]1 (3D coordinates assigned)
COC(=O)[N-]Cc1cccc(-c2cc/c(=N/C(=O)C3CCCCC3)[n-]c2)[nH+]1 (nonaromatic ring conformer: 55.255957983648265 kcal/mol)

>  <smiles>  (55) 
COC(=O)NCc1cccc(-c2ccc(=NC(=O)C3CCCCC3)[nH]c2)n1

>  <score_type>  (55) 
oracle

>  <origin>  (55) 
adg

>  <m_score__min__energy>  (55) 
-10.52

>  <m_primary>  (55) 
energy

$$$$
55:0
     RDKit          3D

 38 40  0  0  0  0  0  0  0  0999 V2000
   58.3300   29.1810   48.7810 O   0  0  0  0  0  0  0  0  0  0  0  0
   59.3650   28.5880   48.3750 C   0  0  0  0  0  0  0  0  0  0  0  0
   59.3670   27.1010   48.2410 C   0  0  0  0  0  0  0  0  0  0  0  0
   59.4170   26.5920   46.4890 S   0  0  0  0  0  0  0  0  0  0  0  0
   57.6360   26.4200   46.3200 C   0  0  0  0  0  0  0  0  0  0  0  0
   56.8840   25.3610   46.7740 C   0  0  0  0  0  0  0  0  0  0  0  0
   55.5820   25.6180   46.5520 N   0  0  0  0  0  0  0  0  0  0  0  0
   55.4790   26.7990   45.9590 N   0  0  0  0  0  0  0  0  0  0  0  0
   56.7150   27.3130   45.7960 C   0  0  0  0  0  0  0  0  0  0  0  0
   56.9670   28.5940   45.0990 C   0  0  0  0  0  0  0  0  0  0  0  0
   58.2760   29.0490   44.8540 C   0  0  0  0  0  0  0  0  0  0  0  0
   58.4930   30.2110   44.1060 C   0  0  0  0  0  0  0  0  0  0  0  0
   57.4100   30.9200   43.5810 C   0  0  0  0  0  0  0  0  0  0  0  0
   57.6890   32.3520   42.6050 Cl  0  0  0  0  0  0  0  0  0  0  0  0
   56.1060   30.4780   43.8220 C   0  0  0  0  0  0  0  0  0  0  0  0
   55.8850   29.3230   44.5750 C   0  0  0  0  0  0  0  0  0  0  0  0
   60.5490   29.3260   48.0580 N   0  0  0  0  0  0  0  0  0  0  0  0
   60.7340   30.0590   46.8110 C   0  0  0  0  0  0  0  0  0  0  0  0
   60.1210   31.4310   46.8950 C   0  0  0  0  0  0  0  0  0  0  0  0
   58.7270   31.5780   47.0010 C   0  0  0  0  0  0  0  0  0  0  0  0
   58.1610   32.8480   47.1360 C   0  0  0  0  0  0  0  0  0  0  0  0
   58.9780   33.9800   47.1660 C   0  0  0  0  0  0  0  0  0  0  0  0
   60.3640   33.8450   47.0360 C   0  0  0  0  0  0  0  0  0  0  0  0
   60.9360   32.5770   46.8960 C   0  0  0  0  0  0  0  0  0  0  0  0
   62.2830   32.4660   46.7780 F   0  0  0  0  0  0  0  0  0  0  0  0
   60.2501   26.6961   48.7569 H   0  0  0  0  0  0  0  0  0  0  0  0
   58.4411   26.7112   48.6891 H   0  0  0  0  0  0  0  0  0  0  0  0
   57.2834   24.4499   47.2434 H   0  0  0  0  0  0  0  0  0  0  0  0
   59.1336   28.4876   45.2531 H   0  0  0  0  0  0  0  0  0  0  0  0
   59.5189   30.5672   43.9308 H   0  0  0  0  0  0  0  0  0  0  0  0
   55.2521   31.0412   43.4176 H   0  0  0  0  0  0  0  0  0  0  0  0
   54.8560   28.9807   44.7597 H   0  0  0  0  0  0  0  0  0  0  0  0
   61.8106   30.1580   46.6084 H   0  0  0  0  0  0  0  0  0  0  0  0
   60.2386   29.5031   46.0013 H   0  0  0  0  0  0  0  0  0  0  0  0
   58.0792   30.6893   46.9775 H   0  0  0  0  0  0  0  0  0  0  0  0
   57.0695   32.9565   47.2188 H   0  0  0  0  0  0  0  0  0  0  0  0
   58.5317   34.9775   47.2918 H   0  0  0  0  0  0  0  0  0  0  0  0
   61.0055   34.7385   47.0439 H   0  0  0  0  0  0  0  0  0  0  0  0
  1  2  2  0
  2  3  1  0
  3  4  1  0
  4  5  1  0
  5  6  1  0
  6  7  2  0
  7  8  1  0
  8  9  1  0
  9 10  1  0
 10 11  2  0
 11 12  1  0
 12 13  2  0
 13 14  1  0
 13 15  1  0
 15 16  2  0
  2 17  1  0
 17 18  1  0
 18 19  1  0
 19 20  2  0
 20 21  1  0
 21 22  2  0
 22 23  1  0
 23 24  2  0
 24 25  1  0
  9  5  2  0
 16 10  1  0
 24 19  1  0
  3 26  1  0
  3 27  1  0
  6 28  1  0
 11 29  1  0
 12 30  1  0
 15 31  1  0
 16 32  1  0
 18 33  1  0
 18 34  1  0
 20 35  1  0
 21 36  1  0
 22 37  1  0
 23 38  1  0
M  CHG  2   8  -1  17  -1
M  END
>  <UniqueID>  (56) 
53

>  <SMILES>  (56) 
O=C(CSc1cn[n-]c1-c1ccc(Cl)cc1)[N-]Cc1ccccc1F

>  <Energy>  (56) 
64.61142243206916

>  <Genealogy>  (56) 
O=C(CSc1cn[n-]c1-c1ccc(Cl)cc1)[N-]Cc1ccccc1F (protonated)
O=C(CSc1cn[n-]c1-c1ccc(Cl)cc1)[N-]Cc1ccccc1F (3D coordinates assigned)
O=C(CSc1cn[n-]c1-c1ccc(Cl)cc1)[N-]Cc1ccccc1F (optimized conformer: 64.61142243206916 kcal/mol)

>  <smiles>  (56) 
O=C(CSc1cn[nH]c1-c1ccc(Cl)cc1)NCc1ccccc1F

>  <score_type>  (56) 
oracle

>  <origin>  (56) 
adg

>  <m_score__min__energy>  (56) 
-11.52

>  <m_primary>  (56) 
energy

$$$$
56:0
     RDKit          3D

 42 45  0  0  0  0  0  0  0  0999 V2000
   65.2190   35.6440   52.3230 F   0  0  0  0  0  0  0  0  0  0  0  0
   66.3020   34.9150   51.9540 C   0  0  0  0  0  0  0  0  0  0  0  0
   67.5480   35.2100   52.5170 C   0  0  0  0  0  0  0  0  0  0  0  0
   68.6710   34.4520   52.1760 C   0  0  0  0  0  0  0  0  0  0  0  0
   68.5510   33.3940   51.2710 C   0  0  0  0  0  0  0  0  0  0  0  0
   67.3090   33.0940   50.7050 C   0  0  0  0  0  0  0  0  0  0  0  0
   66.1750   33.8520   51.0390 C   0  0  0  0  0  0  0  0  0  0  0  0
   64.9030   33.5370   50.4440 N   0  0  0  0  0  0  0  0  0  0  0  0
   63.6480   33.8640   51.1220 C   0  0  0  0  0  0  0  0  0  0  0  0
   62.6700   34.4890   50.1260 C   0  0  0  0  0  0  0  0  0  0  0  0
   62.5990   33.6910   48.8940 N   0  0  0  0  0  0  0  0  0  0  0  0
   61.3480   33.6230   48.1830 C   0  0  0  0  0  0  0  0  0  0  0  0
   60.9240   32.5710   47.4580 N   0  0  0  0  0  0  0  0  0  0  0  0
   59.7280   32.9930   46.9950 C   0  0  0  0  0  0  0  0  0  0  0  0
   58.8250   32.2090   46.1170 C   0  0  0  0  0  0  0  0  0  0  0  0
   57.8670   32.8410   45.3000 C   0  0  0  0  0  0  0  0  0  0  0  0
   57.0270   32.0830   44.4780 C   0  0  0  0  0  0  0  0  0  0  0  0
   57.1320   30.6890   44.4600 C   0  0  0  0  0  0  0  0  0  0  0  0
   56.0760   29.7430   43.4280 Cl  0  0  0  0  0  0  0  0  0  0  0  0
   58.0790   30.0520   45.2640 C   0  0  0  0  0  0  0  0  0  0  0  0
   58.9230   30.8060   46.0860 C   0  0  0  0  0  0  0  0  0  0  0  0
   59.4510   34.2440   47.4230 N   0  0  0  0  0  0  0  0  0  0  0  0
   60.4710   34.5970   48.1490 O   0  0  0  0  0  0  0  0  0  0  0  0
   63.8570   33.3090   48.2360 C   0  0  0  0  0  0  0  0  0  0  0  0
   64.8320   32.6990   49.2440 C   0  0  0  0  0  0  0  0  0  0  0  0
   67.6440   36.0416   53.2306 H   0  0  0  0  0  0  0  0  0  0  0  0
   69.6494   34.6880   52.6198 H   0  0  0  0  0  0  0  0  0  0  0  0
   69.4352   32.7966   51.0038 H   0  0  0  0  0  0  0  0  0  0  0  0
   67.2191   32.2595   49.9940 H   0  0  0  0  0  0  0  0  0  0  0  0
   63.2081   32.9461   51.5391 H   0  0  0  0  0  0  0  0  0  0  0  0
   63.8485   34.5798   51.9328 H   0  0  0  0  0  0  0  0  0  0  0  0
   61.6706   34.5363   50.5832 H   0  0  0  0  0  0  0  0  0  0  0  0
   63.0229   35.4994   49.8719 H   0  0  0  0  0  0  0  0  0  0  0  0
   61.4170   31.6710   47.2710 H   0  0  0  0  0  0  0  0  0  0  0  0
   57.7791   33.9375   45.3087 H   0  0  0  0  0  0  0  0  0  0  0  0
   56.2815   32.5850   43.8438 H   0  0  0  0  0  0  0  0  0  0  0  0
   58.1616   28.9552   45.2510 H   0  0  0  0  0  0  0  0  0  0  0  0
   59.6698   30.2975   46.7136 H   0  0  0  0  0  0  0  0  0  0  0  0
   63.6430   32.5710   47.4489 H   0  0  0  0  0  0  0  0  0  0  0  0
   64.3157   34.2093   47.8012 H   0  0  0  0  0  0  0  0  0  0  0  0
   64.4857   31.6928   49.5225 H   0  0  0  0  0  0  0  0  0  0  0  0
   65.8309   32.6371   48.7876 H   0  0  0  0  0  0  0  0  0  0  0  0
  1  2  1  0
  2  3  2  0
  3  4  1  0
  4  5  2  0
  5  6  1  0
  6  7  2  0
  7  8  1  0
  8  9  1  0
  9 10  1  0
 10 11  1  0
 11 12  1  0
 12 13  2  0
 13 14  1  0
 14 15  1  0
 15 16  2  0
 16 17  1  0
 17 18  2  0
 18 19  1  0
 18 20  1  0
 20 21  2  0
 14 22  2  0
 22 23  1  0
 11 24  1  0
 24 25  1  0
  7  2  1  0
 25  8  1  0
 23 12  1  0
 21 15  1  0
  3 26  1  0
  4 27  1  0
  5 28  1  0
  6 29  1  0
  9 30  1  0
  9 31  1  0
 10 32  1  0
 10 33  1  0
 13 34  1  0
 16 35  1  0
 17 36  1  0
 20 37  1  0
 21 38  1  0
 24 39  1  0
 24 40  1  0
 25 41  1  0
 25 42  1  0
M  CHG  1  13   1
M  END
>  <UniqueID>  (57) 
54

>  <SMILES>  (57) 
Fc1ccccc1N1CCN(c2[nH+]c(-c3ccc(Cl)cc3)no2)CC1

>  <Energy>  (57) 
87.06560569279385

>  <Genealogy>  (57) 
Fc1ccccc1N1CCN(c2[nH+]c(-c3ccc(Cl)cc3)no2)CC1 (protonated)
Fc1ccccc1N1CCN(c2[nH+]c(-c3ccc(Cl)cc3)no2)CC1 (3D coordinates assigned)
Fc1ccccc1N1CCN(c2[nH+]c(-c3ccc(Cl)cc3)no2)CC1 (nonaromatic ring conformer: 87.06560569279385 kcal/mol)

>  <smiles>  (57) 
Fc1ccccc1N1CCN(c2nc(-c3ccc(Cl)cc3)no2)CC1

>  <score_type>  (57) 
oracle

>  <origin>  (57) 
adg

>  <m_score__min__energy>  (57) 
-5.8600000000000003

>  <m_primary>  (57) 
energy

$$$$
57:0
     RDKit          3D

 48 50  0  0  0  0  0  0  0  0999 V2000
   54.0150   25.0270   45.6120 C   0  0  0  0  0  0  0  0  0  0  0  0
   54.7740   26.2120   45.9870 N   0  0  0  0  0  0  0  0  0  0  0  0
   56.1620   26.2110   46.3470 C   0  0  0  0  0  0  0  0  0  0  0  0
   56.5200   25.5840   47.3780 O   0  0  0  0  0  0  0  0  0  0  0  0
   57.1760   26.9480   45.5670 C   0  0  0  0  0  0  0  0  0  0  0  0
   57.6540   26.4380   44.3510 C   0  0  0  0  0  0  0  0  0  0  0  0
   58.6270   27.1320   43.6310 C   0  0  0  0  0  0  0  0  0  0  0  0
   59.1420   28.3330   44.1230 C   0  0  0  0  0  0  0  0  0  0  0  0
   58.6930   28.8510   45.3520 C   0  0  0  0  0  0  0  0  0  0  0  0
   59.2460   30.1540   45.8980 C   0  0  0  0  0  0  0  0  0  0  0  0
   59.8310   29.9720   47.3240 C   0  0  0  0  0  0  0  0  0  0  0  0
   59.6550   31.2120   48.2190 C   0  0  0  0  0  0  0  0  0  0  0  0
   59.7090   32.4490   47.4280 N   0  0  0  0  0  0  0  0  0  0  0  0
   60.4370   33.5930   47.9110 C   0  0  0  0  0  0  0  0  0  0  0  0
   59.8990   34.7330   47.8670 O   0  0  0  0  0  0  0  0  0  0  0  0
   61.8140   33.4640   48.4400 C   0  0  0  0  0  0  0  0  0  0  0  0
   62.1260   33.9170   49.7290 C   0  0  0  0  0  0  0  0  0  0  0  0
   63.4260   33.7880   50.2210 C   0  0  0  0  0  0  0  0  0  0  0  0
   64.4200   33.2270   49.4080 C   0  0  0  0  0  0  0  0  0  0  0  0
   65.8100   33.0420   49.9400 C   0  0  0  0  0  0  0  0  0  0  0  0
   64.1010   32.7950   48.1540 N   0  0  0  0  0  0  0  0  0  0  0  0
   62.8390   32.9090   47.6570 C   0  0  0  0  0  0  0  0  0  0  0  0
   58.8200   32.6110   46.2680 C   0  0  0  0  0  0  0  0  0  0  0  0
   58.1920   31.2760   45.8440 C   0  0  0  0  0  0  0  0  0  0  0  0
   57.7120   28.1430   46.0720 C   0  0  0  0  0  0  0  0  0  0  0  0
   53.6799   24.5038   46.5197 H   0  0  0  0  0  0  0  0  0  0  0  0
   53.1396   25.3255   45.0165 H   0  0  0  0  0  0  0  0  0  0  0  0
   54.6522   24.3567   45.0165 H   0  0  0  0  0  0  0  0  0  0  0  0
   57.2601   25.4869   43.9633 H   0  0  0  0  0  0  0  0  0  0  0  0
   58.9895   26.7317   42.6727 H   0  0  0  0  0  0  0  0  0  0  0  0
   59.9038   28.8779   43.5461 H   0  0  0  0  0  0  0  0  0  0  0  0
   60.0790   30.4611   45.2485 H   0  0  0  0  0  0  0  0  0  0  0  0
   59.3242   29.1213   47.8030 H   0  0  0  0  0  0  0  0  0  0  0  0
   60.9121   29.8023   47.2126 H   0  0  0  0  0  0  0  0  0  0  0  0
   58.6810   31.1529   48.7268 H   0  0  0  0  0  0  0  0  0  0  0  0
   60.4740   31.2314   48.9530 H   0  0  0  0  0  0  0  0  0  0  0  0
   61.3452   34.3750   50.3541 H   0  0  0  0  0  0  0  0  0  0  0  0
   63.6685   34.1244   51.2399 H   0  0  0  0  0  0  0  0  0  0  0  0
   65.7852   33.0453   51.0397 H   0  0  0  0  0  0  0  0  0  0  0  0
   66.2137   32.0822   49.5852 H   0  0  0  0  0  0  0  0  0  0  0  0
   66.4506   33.8628   49.5852 H   0  0  0  0  0  0  0  0  0  0  0  0
   64.8380   32.3640   47.5490 H   0  0  0  0  0  0  0  0  0  0  0  0
   62.6207   32.5642   46.6355 H   0  0  0  0  0  0  0  0  0  0  0  0
   58.0169   33.3157   46.5298 H   0  0  0  0  0  0  0  0  0  0  0  0
   59.4188   32.9910   45.4271 H   0  0  0  0  0  0  0  0  0  0  0  0
   57.3643   31.0306   46.5256 H   0  0  0  0  0  0  0  0  0  0  0  0
   57.8151   31.3664   44.8146 H   0  0  0  0  0  0  0  0  0  0  0  0
   57.3620   28.5303   47.0402 H   0  0  0  0  0  0  0  0  0  0  0  0
  1  2  1  0
  2  3  1  0
  3  4  2  0
  3  5  1  0
  5  6  2  0
  6  7  1  0
  7  8  2  0
  8  9  1  0
  9 10  1  0
 10 11  1  0
 11 12  1  0
 12 13  1  0
 13 14  1  0
 14 15  2  0
 14 16  1  0
 16 17  2  0
 17 18  1  0
 18 19  2  0
 19 20  1  0
 19 21  1  0
 21 22  2  0
 13 23  1  0
 23 24  1  0
  9 25  2  0
 25  5  1  0
 24 10  1  0
 22 16  1  0
  1 26  1  0
  1 27  1  0
  1 28  1  0
  6 29  1  0
  7 30  1  0
  8 31  1  0
 10 32  1  0
 11 33  1  0
 11 34  1  0
 12 35  1  0
 12 36  1  0
 17 37  1  0
 18 38  1  0
 20 39  1  0
 20 40  1  0
 20 41  1  0
 21 42  1  0
 22 43  1  0
 23 44  1  0
 23 45  1  0
 24 46  1  0
 24 47  1  0
 25 48  1  0
M  CHG  2   2  -1  21   1
M  END
>  <UniqueID>  (58) 
55

>  <SMILES>  (58) 
C[N-]C(=O)c1cccc(C2CCN(C(=O)c3ccc(C)[nH+]c3)CC2)c1

>  <Energy>  (58) 
59.40636846910449

>  <Genealogy>  (58) 
C[N-]C(=O)c1cccc(C2CCN(C(=O)c3ccc(C)[nH+]c3)CC2)c1 (protonated)
C[N-]C(=O)c1cccc(C2CCN(C(=O)c3ccc(C)[nH+]c3)CC2)c1 (3D coordinates assigned)
C[N-]C(=O)c1cccc(C2CCN(C(=O)c3ccc(C)[nH+]c3)CC2)c1 (nonaromatic ring conformer: 59.40636846910449 kcal/mol)

>  <smiles>  (58) 
CNC(=O)c1cccc(C2CCN(C(=O)c3ccc(C)nc3)CC2)c1

>  <score_type>  (58) 
oracle

>  <origin>  (58) 
adg

>  <m_score__min__energy>  (58) 
-9.8399999999999999

>  <m_primary>  (58) 
energy

$$$$
58:0
     RDKit          3D

 56 59  0  0  0  0  0  0  0  0999 V2000
   59.5040   35.0330   45.7980 C   0  0  0  0  0  0  0  0  0  0  0  0
   59.7230   33.7210   45.9850 C   0  0  0  0  0  0  0  0  0  0  0  0
   58.9310   32.6560   45.5230 C   0  0  0  0  0  0  0  0  0  0  0  0
   57.8990   32.6300   44.6580 C   0  0  0  0  0  0  0  0  0  0  0  0
   57.0860   31.4510   44.3230 C   0  0  0  0  0  0  0  0  0  0  0  0
   56.6440   30.5690   45.2370 N   0  0  0  0  0  0  0  0  0  0  0  0
   56.0760   29.5990   44.4890 C   0  0  0  0  0  0  0  0  0  0  0  0
   55.5280   28.5860   44.9950 O   0  0  0  0  0  0  0  0  0  0  0  0
   56.1560   29.7930   43.1540 N   0  0  0  0  0  0  0  0  0  0  0  0
   56.8120   30.9600   43.0650 C   0  0  0  0  0  0  0  0  0  0  0  0
   57.1750   31.5510   41.8620 O   0  0  0  0  0  0  0  0  0  0  0  0
   59.4150   31.5190   46.1450 C   0  0  0  0  0  0  0  0  0  0  0  0
   60.5080   31.9010   46.8940 C   0  0  0  0  0  0  0  0  0  0  0  0
   61.3150   30.9560   47.7480 C   0  0  0  0  0  0  0  0  0  0  0  0
   60.4610   29.8940   48.4010 C   0  0  0  0  0  0  0  0  0  0  0  0
   60.2040   29.9840   49.6350 O   0  0  0  0  0  0  0  0  0  0  0  0
   59.9610   28.7600   47.6520 N   0  0  0  0  0  0  0  0  0  0  0  0
   60.3850   28.5150   46.2630 C   0  0  0  0  0  0  0  0  0  0  0  0
   60.4840   27.0120   45.9790 C   0  0  0  0  0  0  0  0  0  0  0  0
   59.2870   26.3230   46.4700 N   0  0  0  0  0  0  0  0  0  0  0  0
   58.6780   25.2630   45.7090 C   0  0  0  0  0  0  0  0  0  0  0  0
   57.5650   25.5160   44.8910 C   0  0  0  0  0  0  0  0  0  0  0  0
   56.9700   24.4810   44.1630 C   0  0  0  0  0  0  0  0  0  0  0  0
   57.4820   23.1720   44.2330 C   0  0  0  0  0  0  0  0  0  0  0  0
   56.8610   22.0590   43.4720 C   0  0  0  0  0  0  0  0  0  0  0  0
   57.3320   20.7150   43.5910 N   0  0  0  0  0  0  0  0  0  0  0  0
   55.8830   22.2960   42.7120 O   0  0  0  0  0  0  0  0  0  0  0  0
   58.5900   22.9220   45.0630 C   0  0  0  0  0  0  0  0  0  0  0  0
   59.1820   23.9570   45.7900 C   0  0  0  0  0  0  0  0  0  0  0  0
   58.9100   26.5440   47.8690 C   0  0  0  0  0  0  0  0  0  0  0  0
   58.7710   28.0420   48.1340 C   0  0  0  0  0  0  0  0  0  0  0  0
   60.7030   33.2390   46.7940 N   0  0  0  0  0  0  0  0  0  0  0  0
   61.7030   34.0360   47.5140 C   0  0  0  0  0  0  0  0  0  0  0  0
   60.2043   35.7723   46.2140 H   0  0  0  0  0  0  0  0  0  0  0  0
   58.6244   35.3681   45.2289 H   0  0  0  0  0  0  0  0  0  0  0  0
   57.6411   33.5749   44.1574 H   0  0  0  0  0  0  0  0  0  0  0  0
   59.0052   30.5019   46.0584 H   0  0  0  0  0  0  0  0  0  0  0  0
   62.0676   30.4635   47.1148 H   0  0  0  0  0  0  0  0  0  0  0  0
   61.7843   31.5467   48.5486 H   0  0  0  0  0  0  0  0  0  0  0  0
   59.6507   28.9635   45.5777 H   0  0  0  0  0  0  0  0  0  0  0  0
   61.3764   28.9673   46.1129 H   0  0  0  0  0  0  0  0  0  0  0  0
   60.5756   26.8526   44.8945 H   0  0  0  0  0  0  0  0  0  0  0  0
   61.3674   26.6072   46.4945 H   0  0  0  0  0  0  0  0  0  0  0  0
   57.1583   26.5357   44.8224 H   0  0  0  0  0  0  0  0  0  0  0  0
   56.0949   24.6916   43.5306 H   0  0  0  0  0  0  0  0  0  0  0  0
   56.9040   19.9600   43.0110 H   0  0  0  0  0  0  0  0  0  0  0  0
   58.0350   20.4380   44.3120 H   0  0  0  0  0  0  0  0  0  0  0  0
   58.9938   21.9017   45.1401 H   0  0  0  0  0  0  0  0  0  0  0  0
   60.0505   23.7461   46.4312 H   0  0  0  0  0  0  0  0  0  0  0  0
   57.9504   26.0461   48.0722 H   0  0  0  0  0  0  0  0  0  0  0  0
   59.6881   26.1284   48.5261 H   0  0  0  0  0  0  0  0  0  0  0  0
   57.8814   28.4219   47.6102 H   0  0  0  0  0  0  0  0  0  0  0  0
   58.6699   28.2051   49.2171 H   0  0  0  0  0  0  0  0  0  0  0  0
   61.5549   33.9180   48.5976 H   0  0  0  0  0  0  0  0  0  0  0  0
   62.7116   33.6913   47.2421 H   0  0  0  0  0  0  0  0  0  0  0  0
   61.5920   35.0961   47.2421 H   0  0  0  0  0  0  0  0  0  0  0  0
  1  2  2  0
  2  3  1  0
  3  4  2  3
  4  5  1  0
  5  6  1  0
  6  7  1  0
  7  8  2  0
  7  9  1  0
  9 10  1  0
 10 11  1  0
  3 12  1  0
 12 13  2  0
 13 14  1  0
 14 15  1  0
 15 16  2  0
 15 17  1  0
 17 18  1  0
 18 19  1  0
 19 20  1  0
 20 21  1  0
 21 22  2  0
 22 23  1  0
 23 24  2  0
 24 25  1  0
 25 26  1  0
 25 27  2  0
 24 28  1  0
 28 29  2  0
 20 30  1  0
 30 31  1  0
 13 32  1  0
 32 33  1  0
 32  2  1  0
 10  5  2  0
 31 17  1  0
 29 21  1  0
  1 34  1  0
  1 35  1  0
  4 36  1  0
 12 37  1  0
 14 38  1  0
 14 39  1  0
 18 40  1  0
 18 41  1  0
 19 42  1  0
 19 43  1  0
 22 44  1  0
 23 45  1  0
 26 46  1  0
 26 47  1  0
 28 48  1  0
 29 49  1  0
 30 50  1  0
 30 51  1  0
 31 52  1  0
 31 53  1  0
 33 54  1  0
 33 55  1  0
 33 56  1  0
M  CHG  3   6  -1   9  -1  11  -1
M  END
>  <UniqueID>  (59) 
56

>  <SMILES>  (59) 
C=c1c(=Cc2[n-]c(=O)[n-]c2[O-])cc(CC(=O)N2CCN(c3ccc(C(N)=O)cc3)CC2)n1C

>  <Energy>  (59) 
135.51882569848698

>  <Genealogy>  (59) 
C=c1c(=Cc2[n-]c(=O)[n-]c2[O-])cc(CC(=O)N2CCN(c3ccc(C(N)=O)cc3)CC2)n1C (protonated)
C=c1c(=Cc2[n-]c(=O)[n-]c2[O-])cc(CC(=O)N2CCN(c3ccc(C(N)=O)cc3)CC2)n1C (3D coordinates assigned)
C=c1c(=Cc2[n-]c(=O)[n-]c2[O-])cc(CC(=O)N2CCN(c3ccc(C(N)=O)cc3)CC2)n1C (nonaromatic ring conformer: 135.51882569848698 kcal/mol)

>  <smiles>  (59) 
C=c1c(=Cc2[nH]c(=O)[nH]c2O)cc(CC(=O)N2CCN(c3ccc(C(N)=O)cc3)CC2)n1C

>  <score_type>  (59) 
oracle

>  <origin>  (59) 
adg

>  <m_score__min__energy>  (59) 
-17.170000000000002

>  <m_primary>  (59) 
energy

$$$$
59:0
     RDKit          3D

 57 60  0  0  0  0  0  0  0  0999 V2000
   57.3330   24.6600   48.2200 C   0  0  0  0  0  0  0  0  0  0  0  0
   56.4610   23.2200   47.6350 S   0  0  0  0  0  0  0  0  0  0  0  0
   55.0420   23.3180   48.1210 O   0  0  0  0  0  0  0  0  0  0  0  0
   57.0710   21.9730   48.2060 O   0  0  0  0  0  0  0  0  0  0  0  0
   56.4840   23.1460   45.8610 C   0  0  0  0  0  0  0  0  0  0  0  0
   57.2600   22.1510   45.2400 C   0  0  0  0  0  0  0  0  0  0  0  0
   57.2770   22.0250   43.8430 C   0  0  0  0  0  0  0  0  0  0  0  0
   56.5150   22.8800   43.0520 C   0  0  0  0  0  0  0  0  0  0  0  0
   55.7290   23.8640   43.6560 C   0  0  0  0  0  0  0  0  0  0  0  0
   55.7070   24.0160   45.0540 C   0  0  0  0  0  0  0  0  0  0  0  0
   54.8630   25.0890   45.6240 C   0  0  0  0  0  0  0  0  0  0  0  0
   53.6390   24.8720   45.8230 O   0  0  0  0  0  0  0  0  0  0  0  0
   55.4130   26.3440   46.0500 N   0  0  0  0  0  0  0  0  0  0  0  0
   56.6060   26.9950   45.5850 C   0  0  0  0  0  0  0  0  0  0  0  0
   57.8280   26.3190   45.4510 C   0  0  0  0  0  0  0  0  0  0  0  0
   58.9630   26.9940   45.0020 C   0  0  0  0  0  0  0  0  0  0  0  0
   58.8810   28.3360   44.6380 C   0  0  0  0  0  0  0  0  0  0  0  0
   57.6480   29.0150   44.6910 C   0  0  0  0  0  0  0  0  0  0  0  0
   57.5100   30.4370   44.2560 C   0  0  0  0  0  0  0  0  0  0  0  0
   57.3440   30.6840   43.0210 O   0  0  0  0  0  0  0  0  0  0  0  0
   57.5310   31.5360   45.2050 N   0  0  0  0  0  0  0  0  0  0  0  0
   57.5530   32.8080   44.4480 C   0  0  0  0  0  0  0  0  0  0  0  0
   57.8020   34.0080   45.3700 C   0  0  0  0  0  0  0  0  0  0  0  0
   59.0150   33.8040   46.1600 N   0  0  0  0  0  0  0  0  0  0  0  0
   59.6610   34.9320   46.7610 C   0  0  0  0  0  0  0  0  0  0  0  0
   60.0290   35.9050   46.0410 O   0  0  0  0  0  0  0  0  0  0  0  0
   59.9150   34.9500   48.2410 C   0  0  0  0  0  0  0  0  0  0  0  0
   61.0330   33.9990   48.6690 C   0  0  0  0  0  0  0  0  0  0  0  0
   59.5810   33.6500   48.9690 C   0  0  0  0  0  0  0  0  0  0  0  0
   59.6880   32.5020   46.1490 C   0  0  0  0  0  0  0  0  0  0  0  0
   58.6480   31.3730   46.1890 C   0  0  0  0  0  0  0  0  0  0  0  0
   56.5210   28.3310   45.1840 C   0  0  0  0  0  0  0  0  0  0  0  0
   57.3361   24.6651   49.3200 H   0  0  0  0  0  0  0  0  0  0  0  0
   58.3688   24.6366   47.8505 H   0  0  0  0  0  0  0  0  0  0  0  0
   56.8323   25.5671   47.8505 H   0  0  0  0  0  0  0  0  0  0  0  0
   57.8596   21.4647   45.8559 H   0  0  0  0  0  0  0  0  0  0  0  0
   57.8951   21.2473   43.3707 H   0  0  0  0  0  0  0  0  0  0  0  0
   56.5317   22.7812   41.9566 H   0  0  0  0  0  0  0  0  0  0  0  0
   55.1181   24.5300   43.0289 H   0  0  0  0  0  0  0  0  0  0  0  0
   57.8914   25.2498   45.7016 H   0  0  0  0  0  0  0  0  0  0  0  0
   59.9253   26.4652   44.9352 H   0  0  0  0  0  0  0  0  0  0  0  0
   59.7847   28.8688   44.3071 H   0  0  0  0  0  0  0  0  0  0  0  0
   56.6490   31.5220   45.7670 H   0  0  0  0  0  0  0  0  0  0  0  0
   58.3549   32.7626   43.6964 H   0  0  0  0  0  0  0  0  0  0  0  0
   56.5723   32.9401   43.9677 H   0  0  0  0  0  0  0  0  0  0  0  0
   57.9161   34.9159   44.7596 H   0  0  0  0  0  0  0  0  0  0  0  0
   56.9465   34.1152   46.0531 H   0  0  0  0  0  0  0  0  0  0  0  0
   59.6700   36.0099   48.4043 H   0  0  0  0  0  0  0  0  0  0  0  0
   61.5903   33.4290   47.9110 H   0  0  0  0  0  0  0  0  0  0  0  0
   61.9494   34.0965   49.2696 H   0  0  0  0  0  0  0  0  0  0  0  0
   59.0904   32.8275   48.4278 H   0  0  0  0  0  0  0  0  0  0  0  0
   59.0158   33.3909   49.8765 H   0  0  0  0  0  0  0  0  0  0  0  0
   60.2897   32.4107   45.2327 H   0  0  0  0  0  0  0  0  0  0  0  0
   60.3392   32.4246   47.0322 H   0  0  0  0  0  0  0  0  0  0  0  0
   59.1605   30.4234   45.9757 H   0  0  0  0  0  0  0  0  0  0  0  0
   58.1942   31.3949   47.1908 H   0  0  0  0  0  0  0  0  0  0  0  0
   55.5574   28.8567   45.2548 H   0  0  0  0  0  0  0  0  0  0  0  0
  1  2  1  0
  2  3  2  0
  2  4  2  0
  2  5  1  0
  5  6  2  0
  6  7  1  0
  7  8  2  0
  8  9  1  0
  9 10  2  0
 10 11  1  0
 11 12  2  0
 11 13  1  0
 13 14  1  0
 14 15  2  0
 15 16  1  0
 16 17  2  0
 17 18  1  0
 18 19  1  0
 19 20  2  0
 19 21  1  0
 21 22  1  0
 22 23  1  0
 23 24  1  0
 24 25  1  0
 25 26  2  0
 25 27  1  0
 27 28  1  0
 28 29  1  0
 24 30  1  0
 30 31  1  0
 18 32  2  0
 10  5  1  0
 32 14  1  0
 31 21  1  0
 29 27  1  0
  1 33  1  0
  1 34  1  0
  1 35  1  0
  6 36  1  0
  7 37  1  0
  8 38  1  0
  9 39  1  0
 15 40  1  0
 16 41  1  0
 17 42  1  0
 21 43  1  0
 22 44  1  0
 22 45  1  0
 23 46  1  0
 23 47  1  0
 27 48  1  0
 28 49  1  0
 28 50  1  0
 29 51  1  0
 29 52  1  0
 30 53  1  0
 30 54  1  0
 31 55  1  0
 31 56  1  0
 32 57  1  0
M  CHG  2  13  -1  21   1
M  END
>  <UniqueID>  (60) 
57

>  <SMILES>  (60) 
CS(=O)(=O)c1ccccc1C(=O)[N-]c1cccc(C(=O)[NH+]2CCN(C(=O)C3CC3)CC2)c1

>  <Energy>  (60) 
347.17789442079487

>  <Genealogy>  (60) 
CS(=O)(=O)c1ccccc1C(=O)[N-]c1cccc(C(=O)[NH+]2CCN(C(=O)C3CC3)CC2)c1 (protonated)
CS(=O)(=O)c1ccccc1C(=O)[N-]c1cccc(C(=O)[NH+]2CCN(C(=O)C3CC3)CC2)c1 (3D coordinates assigned)
CS(=O)(=O)c1ccccc1C(=O)[N-]c1cccc(C(=O)[NH+]2CCN(C(=O)C3CC3)CC2)c1 (nonaromatic ring conformer: 347.17789442079487 kcal/mol)

>  <smiles>  (60) 
CS(=O)(=O)c1ccccc1C(=O)Nc1cccc(C(=O)N2CCN(C(=O)C3CC3)CC2)c1

>  <score_type>  (60) 
oracle

>  <origin>  (60) 
adg

>  <m_score__min__energy>  (60) 
-10.76

>  <m_primary>  (60) 
energy

$$$$
60:0
     RDKit          3D

 45 47  0  0  0  0  0  0  0  0999 V2000
   56.8480   19.9550   43.7830 H   0  0  0  0  0  0  0  0  0  0  0  0
   56.2700   20.7510   43.6510 O   0  0  0  0  0  0  0  0  0  0  0  0
   57.1040   21.7910   43.2050 C   0  0  2  0  0  0  0  0  0  0  0  0
   57.6216   21.4868   42.2833 H   0  0  0  0  0  0  0  0  0  0  0  0
   58.1950   22.0990   44.2630 C   0  0  0  0  0  0  0  0  0  0  0  0
   59.1351   22.3213   43.7370 H   0  0  0  0  0  0  0  0  0  0  0  0
   58.2734   21.2125   44.9094 H   0  0  0  0  0  0  0  0  0  0  0  0
   57.8560   23.2930   45.1780 C   0  0  0  0  0  0  0  0  0  0  0  0
   58.1846   24.2227   44.6905 H   0  0  0  0  0  0  0  0  0  0  0  0
   58.3743   23.1529   46.1381 H   0  0  0  0  0  0  0  0  0  0  0  0
   56.3440   23.3770   45.4500 C   0  0  1  0  0  0  0  0  0  0  0  0
   56.0418   22.4109   45.8806 H   0  0  0  0  0  0  0  0  0  0  0  0
   56.0370   24.4210   46.4310 N   0  0  0  0  0  0  0  0  0  0  0  0
   55.9070   25.8250   46.1620 C   0  0  0  0  0  0  0  0  0  0  0  0
   54.7680   26.3440   46.0150 O   0  0  0  0  0  0  0  0  0  0  0  0
   57.1220   26.6560   46.0620 C   0  0  0  0  0  0  0  0  0  0  0  0
   58.2400   26.2840   46.7440 N   0  0  0  0  0  0  0  0  0  0  0  0
   59.3850   27.0140   46.7010 C   0  0  0  0  0  0  0  0  0  0  0  0
   60.2681   26.6829   47.2672 H   0  0  0  0  0  0  0  0  0  0  0  0
   59.4440   28.1820   45.9410 C   0  0  0  0  0  0  0  0  0  0  0  0
   60.3680   28.7784   45.9169 H   0  0  0  0  0  0  0  0  0  0  0  0
   58.3240   28.5930   45.2090 C   0  0  0  0  0  0  0  0  0  0  0  0
   58.4090   29.6950   44.5140 N   0  0  0  0  0  0  0  0  0  0  0  0
   58.2410   31.0420   44.9870 C   0  0  0  0  0  0  0  0  0  0  0  0
   58.3810   31.3400   46.3540 C   0  0  0  0  0  0  0  0  0  0  0  0
   58.6638   30.5458   47.0606 H   0  0  0  0  0  0  0  0  0  0  0  0
   58.1630   32.6390   46.8200 C   0  0  0  0  0  0  0  0  0  0  0  0
   58.2934   32.8689   47.8878 H   0  0  0  0  0  0  0  0  0  0  0  0
   57.7800   33.6450   45.9320 C   0  0  0  0  0  0  0  0  0  0  0  0
   57.6140   34.6682   46.3001 H   0  0  0  0  0  0  0  0  0  0  0  0
   57.6070   33.3550   44.5760 C   0  0  0  0  0  0  0  0  0  0  0  0
   57.2980   34.1500   43.8814 H   0  0  0  0  0  0  0  0  0  0  0  0
   57.8260   32.0520   44.0950 C   0  0  0  0  0  0  0  0  0  0  0  0
   57.6240   31.7460   42.6370 C   0  0  0  0  0  0  0  0  0  0  0  0
   57.0206   30.8320   42.5343 H   0  0  0  0  0  0  0  0  0  0  0  0
   57.1022   32.5859   42.1549 H   0  0  0  0  0  0  0  0  0  0  0  0
   58.6013   31.5963   42.1549 H   0  0  0  0  0  0  0  0  0  0  0  0
   57.1420   27.8280   45.2860 C   0  0  0  0  0  0  0  0  0  0  0  0
   56.2406   28.1465   44.7419 H   0  0  0  0  0  0  0  0  0  0  0  0
   55.5230   23.5630   44.1490 C   0  0  0  0  0  0  0  0  0  0  0  0
   55.3279   24.6364   44.0084 H   0  0  0  0  0  0  0  0  0  0  0  0
   54.5927   22.9871   44.2627 H   0  0  0  0  0  0  0  0  0  0  0  0
   56.2460   23.0270   42.8960 C   0  0  0  0  0  0  0  0  0  0  0  0
   56.8966   23.8189   42.4966 H   0  0  0  0  0  0  0  0  0  0  0  0
   55.4795   22.7315   42.1645 H   0  0  0  0  0  0  0  0  0  0  0  0
  1  2  1  0
  2  3  1  0
  3  4  1  6
  3  5  1  0
  5  6  1  0
  5  7  1  0
  5  8  1  0
  8  9  1  0
  8 10  1  0
  8 11  1  0
 11 12  1  1
 11 13  1  0
 13 14  1  0
 14 15  2  0
 14 16  1  0
 16 17  1  0
 17 18  1  0
 18 19  1  0
 18 20  2  0
 20 21  1  0
 20 22  1  0
 22 23  2  0
 23 24  1  0
 24 25  2  0
 25 26  1  0
 25 27  1  0
 27 28  1  0
 27 29  2  0
 29 30  1  0
 29 31  1  0
 31 32  1  0
 31 33  2  0
 33 34  1  0
 34 35  1  0
 34 36  1  0
 34 37  1  0
 22 38  1  0
 38 39  1  0
 11 40  1  0
 40 41  1  0
 40 42  1  0
 40 43  1  0
 43 44  1  0
 43 45  1  0
 43  3  1  0
 38 16  2  0
 33 24  1  0
M  CHG  2  13  -1  17  -1
M  END
>  <UniqueID>  (61) 
58

>  <SMILES>  (61) 
Cc1ccccc1/N=c1/cc[n-]c(C(=O)[N-]C2CCC(O)CC2)c1

>  <Energy>  (61) 
58.9264463573025

>  <Genealogy>  (61) 
Cc1ccccc1N=c1cc[n-]c(C(=O)[N-]C2CCC(O)CC2)c1 (protonated)
Cc1ccccc1/N=c1/cc[n-]c(C(=O)[N-]C2CCC(O)CC2)c1 (cis-trans isomerization)
Cc1ccccc1/N=c1/cc[n-]c(C(=O)[N-]C2CCC(O)CC2)c1 (3D coordinates assigned)
Cc1ccccc1/N=c1/cc[n-]c(C(=O)[N-]C2CCC(O)CC2)c1 (nonaromatic ring conformer: 58.9264463573025 kcal/mol)

>  <smiles>  (61) 
Cc1ccccc1N=c1cc[nH]c(C(=O)NC2CCC(O)CC2)c1

>  <score_type>  (61) 
oracle

>  <origin>  (61) 
adg

>  <m_score__min__energy>  (61) 
-12.710000000000001

>  <m_primary>  (61) 
energy

$$$$
61:0
     RDKit          3D

 68 72  0  0  0  0  0  0  0  0999 V2000
   55.9160   29.6520   53.3640 H   0  0  0  0  0  0  0  0  0  0  0  0
   56.0250   29.8380   52.3760 O   0  0  0  0  0  0  0  0  0  0  0  0
   57.2520   30.2390   51.8510 C   0  0  0  0  0  0  0  0  0  0  0  0
   58.3650   29.3890   51.9070 C   0  0  0  0  0  0  0  0  0  0  0  0
   58.2757   28.3984   52.3769 H   0  0  0  0  0  0  0  0  0  0  0  0
   59.5890   29.7970   51.3670 C   0  0  0  0  0  0  0  0  0  0  0  0
   60.4583   29.1244   51.4108 H   0  0  0  0  0  0  0  0  0  0  0  0
   59.7130   31.0620   50.7690 C   0  0  0  0  0  0  0  0  0  0  0  0
   61.0080   31.4730   50.1210 C   0  0  0  0  0  0  0  0  0  0  0  0
   61.8424   31.2155   50.7899 H   0  0  0  0  0  0  0  0  0  0  0  0
   60.9798   32.5575   49.9393 H   0  0  0  0  0  0  0  0  0  0  0  0
   61.2020   30.7610   48.7840 C   0  0  0  0  0  0  0  0  0  0  0  0
   61.1177   29.6744   48.9331 H   0  0  0  0  0  0  0  0  0  0  0  0
   62.1975   31.0035   48.3839 H   0  0  0  0  0  0  0  0  0  0  0  0
   60.2050   31.1910   47.8600 O   0  0  0  0  0  0  0  0  0  0  0  0
   59.0070   30.5030   47.6640 C   0  0  0  0  0  0  0  0  0  0  0  0
   58.6370   29.6200   48.4850 O   0  0  0  0  0  0  0  0  0  0  0  0
   58.2080   30.7760   46.4130 C   0  0  1  0  0  0  0  0  0  0  0  0
   57.1690   30.4983   46.6441 H   0  0  0  0  0  0  0  0  0  0  0  0
   58.2050   32.2600   46.0300 C   0  0  0  0  0  0  0  0  0  0  0  0
   58.1930   33.3200   47.0520 C   0  0  0  0  0  0  0  0  0  0  0  0
   57.4301   33.2871   47.8437 H   0  0  0  0  0  0  0  0  0  0  0  0
   59.0800   34.3220   47.0490 C   0  0  0  0  0  0  0  0  0  0  0  0
   58.7205   35.3349   46.8149 H   0  0  0  0  0  0  0  0  0  0  0  0
   60.5200   34.1400   47.3440 C   0  0  0  0  0  0  0  0  0  0  0  0
   61.4420   33.7000   46.3710 C   0  0  0  0  0  0  0  0  0  0  0  0
   61.0981   33.4886   45.3478 H   0  0  0  0  0  0  0  0  0  0  0  0
   62.7910   33.5310   46.7000 C   0  0  0  0  0  0  0  0  0  0  0  0
   63.5046   33.1941   45.9337 H   0  0  0  0  0  0  0  0  0  0  0  0
   63.2340   33.7890   47.9990 C   0  0  0  0  0  0  0  0  0  0  0  0
   64.2953   33.6556   48.2555 H   0  0  0  0  0  0  0  0  0  0  0  0
   62.3270   34.2170   48.9730 C   0  0  0  0  0  0  0  0  0  0  0  0
   62.6762   34.4235   49.9954 H   0  0  0  0  0  0  0  0  0  0  0  0
   60.9770   34.3830   48.6500 C   0  0  0  0  0  0  0  0  0  0  0  0
   60.2666   34.7066   49.4250 H   0  0  0  0  0  0  0  0  0  0  0  0
   57.9140   32.6170   44.8110 N   0  0  0  0  0  0  0  0  0  0  0  0
   57.7460   31.6710   43.7550 C   0  0  0  0  0  0  0  0  0  0  0  0
   57.3420   32.0510   42.6250 O   0  0  0  0  0  0  0  0  0  0  0  0
   58.0110   30.2930   43.9960 N   0  0  0  0  0  0  0  0  0  0  0  0
   58.6910   29.9010   45.2240 C   0  0  2  0  0  0  0  0  0  0  0  0
   59.7737   30.0618   45.1149 H   0  0  0  0  0  0  0  0  0  0  0  0
   58.4480   28.4410   45.4820 C   0  0  0  0  0  0  0  0  0  0  0  0
   57.2160   27.9060   45.6200 N   0  0  0  0  0  0  0  0  0  0  0  0
   57.2620   26.5610   45.8140 C   0  0  0  0  0  0  0  0  0  0  0  0
   56.0380   25.7720   46.0150 C   0  0  0  0  0  0  0  0  0  0  0  0
   54.9120   26.3320   45.9570 O   0  0  0  0  0  0  0  0  0  0  0  0
   56.1410   24.3550   46.2050 N   0  0  0  0  0  0  0  0  0  0  0  0
   56.6910   23.3970   45.2850 C   0  0  0  0  0  0  0  0  0  0  0  0
   57.9640   22.8330   45.4890 C   0  0  0  0  0  0  0  0  0  0  0  0
   58.5585   23.1283   46.3661 H   0  0  0  0  0  0  0  0  0  0  0  0
   58.4770   21.9010   44.5850 C   0  0  0  0  0  0  0  0  0  0  0  0
   59.4701   21.4599   44.7557 H   0  0  0  0  0  0  0  0  0  0  0  0
   57.7330   21.5280   43.4660 C   0  0  0  0  0  0  0  0  0  0  0  0
   58.1336   20.7817   42.7642 H   0  0  0  0  0  0  0  0  0  0  0  0
   56.4810   22.1000   43.2350 C   0  0  0  0  0  0  0  0  0  0  0  0
   55.9023   21.8097   42.3457 H   0  0  0  0  0  0  0  0  0  0  0  0
   55.9560   23.0450   44.1330 C   0  0  0  0  0  0  0  0  0  0  0  0
   54.6060   23.6550   43.8750 C   0  0  0  0  0  0  0  0  0  0  0  0
   54.1147   23.8770   44.8338 H   0  0  0  0  0  0  0  0  0  0  0  0
   54.7277   24.5856   43.3012 H   0  0  0  0  0  0  0  0  0  0  0  0
   53.9881   22.9486   43.3012 H   0  0  0  0  0  0  0  0  0  0  0  0
   58.5410   26.0100   45.8230 C   0  0  0  0  0  0  0  0  0  0  0  0
   58.7882   24.9483   45.9701 H   0  0  0  0  0  0  0  0  0  0  0  0
   59.6400   27.2570   45.5690 S   0  0  0  0  0  0  0  0  0  0  0  0
   58.5920   31.9100   50.7120 C   0  0  0  0  0  0  0  0  0  0  0  0
   58.6766   32.8995   50.2389 H   0  0  0  0  0  0  0  0  0  0  0  0
   57.3700   31.4990   51.2550 C   0  0  0  0  0  0  0  0  0  0  0  0
   56.4987   32.1691   51.2131 H   0  0  0  0  0  0  0  0  0  0  0  0
  1  2  1  0
  2  3  1  0
  3  4  2  0
  4  5  1  0
  4  6  1  0
  6  7  1  0
  6  8  2  0
  8  9  1  0
  9 10  1  0
  9 11  1  0
  9 12  1  0
 12 13  1  0
 12 14  1  0
 12 15  1  0
 15 16  1  0
 16 17  2  0
 16 18  1  0
 18 19  1  1
 18 20  1  0
 20 21  1  0
 21 22  1  0
 21 23  2  0
 23 24  1  0
 23 25  1  0
 25 26  2  0
 26 27  1  0
 26 28  1  0
 28 29  1  0
 28 30  2  0
 30 31  1  0
 30 32  1  0
 32 33  1  0
 32 34  2  0
 34 35  1  0
 20 36  2  0
 36 37  1  0
 37 38  2  0
 37 39  1  0
 39 40  1  0
 40 41  1  6
 40 42  1  0
 42 43  2  0
 43 44  1  0
 44 45  1  0
 45 46  2  0
 45 47  1  0
 47 48  1  0
 48 49  2  0
 49 50  1  0
 49 51  1  0
 51 52  1  0
 51 53  2  0
 53 54  1  0
 53 55  1  0
 55 56  1  0
 55 57  2  0
 57 58  1  0
 58 59  1  0
 58 60  1  0
 58 61  1  0
 44 62  2  0
 62 63  1  0
 62 64  1  0
  8 65  1  0
 65 66  1  0
 65 67  2  0
 67 68  1  0
 67  3  1  0
 40 18  1  0
 64 42  1  0
 34 25  1  0
 57 48  1  0
M  CHG  2  39  -1  47  -1
M  END
>  <UniqueID>  (62) 
59

>  <SMILES>  (62) 
Cc1ccccc1[N-]C(=O)c1csc([C@H]2[N-]C(=O)N=C(/C=C/c3ccccc3)[C@@H]2C(=O)OCCc2ccc(O)cc2)n1

>  <Energy>  (62) 
108.11829358407223

>  <Genealogy>  (62) 
Cc1ccccc1[N-]C(=O)c1csc(C2[N-]C(=O)N=C(C=Cc3ccccc3)C2C(=O)OCCc2ccc(O)cc2)n1 (protonated)
Cc1ccccc1[N-]C(=O)c1csc([C@H]2[N-]C(=O)N=C(C=Cc3ccccc3)[C@@H]2C(=O)OCCc2ccc(O)cc2)n1 (chirality)
Cc1ccccc1[N-]C(=O)c1csc([C@H]2[N-]C(=O)N=C(/C=C/c3ccccc3)[C@@H]2C(=O)OCCc2ccc(O)cc2)n1 (cis-trans isomerization)
Cc1ccccc1[N-]C(=O)c1csc([C@H]2[N-]C(=O)N=C(/C=C/c3ccccc3)[C@@H]2C(=O)OCCc2ccc(O)cc2)n1 (3D coordinates assigned)
Cc1ccccc1[N-]C(=O)c1csc([C@H]2[N-]C(=O)N=C(/C=C/c3ccccc3)[C@@H]2C(=O)OCCc2ccc(O)cc2)n1 (nonaromatic ring conformer: 108.11829358407223 kcal/mol)

>  <smiles>  (62) 
Cc1ccccc1NC(=O)c1csc(C2NC(=O)N=C(C=Cc3ccccc3)C2C(=O)OCCc2ccc(O)cc2)n1

>  <score_type>  (62) 
oracle

>  <origin>  (62) 
adg

>  <m_score__min__energy>  (62) 
-13.19

>  <m_primary>  (62) 
energy

$$$$
62:0
     RDKit          3D

 55 57  0  0  0  0  0  0  0  0999 V2000
   57.3900   25.2130   43.4250 C   0  0  0  0  0  0  0  0  0  0  0  0
   57.8760   25.2670   44.8690 C   0  0  0  0  0  0  0  0  0  0  0  0
   58.1460   26.6710   45.2510 N   0  0  0  0  0  0  0  0  0  0  0  0
   59.3080   26.8450   46.1550 C   0  0  0  0  0  0  0  0  0  0  0  0
   58.9820   26.8890   47.6700 C   0  0  0  0  0  0  0  0  0  0  0  0
   59.9420   27.7480   48.5070 C   0  0  0  0  0  0  0  0  0  0  0  0
   59.5390   29.1180   48.5360 O   0  0  0  0  0  0  0  0  0  0  0  0
   60.4030   30.2260   48.5790 C   0  0  0  0  0  0  0  0  0  0  0  0
   60.4840   31.0850   49.6940 C   0  0  0  0  0  0  0  0  0  0  0  0
   61.3700   32.1660   49.6890 C   0  0  0  0  0  0  0  0  0  0  0  0
   62.1790   32.4050   48.5770 C   0  0  0  0  0  0  0  0  0  0  0  0
   62.1020   31.5650   47.4640 C   0  0  0  0  0  0  0  0  0  0  0  0
   61.2160   30.4780   47.4610 C   0  0  0  0  0  0  0  0  0  0  0  0
   61.1410   29.6400   46.3510 O   0  0  0  0  0  0  0  0  0  0  0  0
   56.9460   27.4290   45.6610 C   0  0  0  0  0  0  0  0  0  0  0  0
   57.0810   28.8770   45.2870 C   0  0  0  0  0  0  0  0  0  0  0  0
   58.2490   29.5270   45.5370 N   0  0  0  0  0  0  0  0  0  0  0  0
   58.4020   30.8490   45.2650 C   0  0  0  0  0  0  0  0  0  0  0  0
   59.5000   31.4120   45.5170 O   0  0  0  0  0  0  0  0  0  0  0  0
   57.3270   31.5670   44.7120 C   0  0  0  0  0  0  0  0  0  0  0  0
   57.4110   33.0450   44.4500 C   0  0  0  0  0  0  0  0  0  0  0  0
   58.2130   33.7170   45.5310 C   0  0  0  0  0  0  0  0  0  0  0  0
   59.2310   34.6270   45.2030 C   0  0  0  0  0  0  0  0  0  0  0  0
   60.0000   35.2170   46.2100 C   0  0  0  0  0  0  0  0  0  0  0  0
   59.7640   34.8970   47.5500 C   0  0  0  0  0  0  0  0  0  0  0  0
   58.7600   33.9850   47.8850 C   0  0  0  0  0  0  0  0  0  0  0  0
   57.9880   33.3930   46.8810 C   0  0  0  0  0  0  0  0  0  0  0  0
   56.1560   30.9170   44.4750 N   0  0  0  0  0  0  0  0  0  0  0  0
   56.0050   29.5950   44.7450 C   0  0  0  0  0  0  0  0  0  0  0  0
   54.7880   28.9740   44.4900 O   0  0  0  0  0  0  0  0  0  0  0  0
   56.2968   25.0915   43.4104 H   0  0  0  0  0  0  0  0  0  0  0  0
   57.6621   26.1469   42.9114 H   0  0  0  0  0  0  0  0  0  0  0  0
   57.8604   24.3616   42.9114 H   0  0  0  0  0  0  0  0  0  0  0  0
   57.1029   24.8499   45.5311 H   0  0  0  0  0  0  0  0  0  0  0  0
   58.8004   24.6786   44.9650 H   0  0  0  0  0  0  0  0  0  0  0  0
   59.9987   26.0065   45.9824 H   0  0  0  0  0  0  0  0  0  0  0  0
   59.7319   27.8304   45.9113 H   0  0  0  0  0  0  0  0  0  0  0  0
   57.9662   27.2935   47.7906 H   0  0  0  0  0  0  0  0  0  0  0  0
   59.0833   25.8582   48.0403 H   0  0  0  0  0  0  0  0  0  0  0  0
   59.9612   27.3605   49.5363 H   0  0  0  0  0  0  0  0  0  0  0  0
   60.9393   27.6944   48.0460 H   0  0  0  0  0  0  0  0  0  0  0  0
   59.8468   30.9036   50.5721 H   0  0  0  0  0  0  0  0  0  0  0  0
   61.4299   32.8302   50.5638 H   0  0  0  0  0  0  0  0  0  0  0  0
   62.8772   33.2550   48.5773 H   0  0  0  0  0  0  0  0  0  0  0  0
   62.7381   31.7565   46.5872 H   0  0  0  0  0  0  0  0  0  0  0  0
   60.2530   29.4010   45.9250 H   0  0  0  0  0  0  0  0  0  0  0  0
   56.0630   27.0069   45.1589 H   0  0  0  0  0  0  0  0  0  0  0  0
   56.8356   27.3540   46.7529 H   0  0  0  0  0  0  0  0  0  0  0  0
   57.8965   33.2151   43.4777 H   0  0  0  0  0  0  0  0  0  0  0  0
   56.3953   33.4672   44.4401 H   0  0  0  0  0  0  0  0  0  0  0  0
   59.4240   34.8765   44.1492 H   0  0  0  0  0  0  0  0  0  0  0  0
   60.7919   35.9340   45.9477 H   0  0  0  0  0  0  0  0  0  0  0  0
   60.3691   35.3635   48.3413 H   0  0  0  0  0  0  0  0  0  0  0  0
   58.5768   33.7325   48.9398 H   0  0  0  0  0  0  0  0  0  0  0  0
   57.2019   32.6713   47.1478 H   0  0  0  0  0  0  0  0  0  0  0  0
  1  2  1  0
  2  3  1  0
  3  4  1  0
  4  5  1  0
  5  6  1  0
  6  7  1  0
  7  8  1  0
  8  9  2  0
  9 10  1  0
 10 11  2  0
 11 12  1  0
 12 13  2  0
 13 14  1  0
  3 15  1  0
 15 16  1  0
 16 17  1  0
 17 18  1  0
 18 19  2  0
 18 20  1  0
 20 21  1  0
 21 22  1  0
 22 23  2  0
 23 24  1  0
 24 25  2  0
 25 26  1  0
 26 27  2  0
 20 28  2  0
 28 29  1  0
 29 30  1  0
 13  8  1  0
 29 16  2  0
 27 22  1  0
  1 31  1  0
  1 32  1  0
  1 33  1  0
  2 34  1  0
  2 35  1  0
  4 36  1  0
  4 37  1  0
  5 38  1  0
  5 39  1  0
  6 40  1  0
  6 41  1  0
  9 42  1  0
 10 43  1  0
 11 44  1  0
 12 45  1  0
 14 46  1  0
 15 47  1  0
 15 48  1  0
 21 49  1  0
 21 50  1  0
 23 51  1  0
 24 52  1  0
 25 53  1  0
 26 54  1  0
 27 55  1  0
M  CHG  2  17  -1  30  -1
M  END
>  <UniqueID>  (63) 
60

>  <SMILES>  (63) 
CCN(CCCOc1ccccc1O)Cc1[n-]c(=O)c(Cc2ccccc2)nc1[O-]

>  <Energy>  (63) 
59.657680138175834

>  <Genealogy>  (63) 
CCN(CCCOc1ccccc1O)Cc1[n-]c(=O)c(Cc2ccccc2)nc1[O-] (protonated)
CCN(CCCOc1ccccc1O)Cc1[n-]c(=O)c(Cc2ccccc2)nc1[O-] (3D coordinates assigned)
CCN(CCCOc1ccccc1O)Cc1[n-]c(=O)c(Cc2ccccc2)nc1[O-] (optimized conformer: 59.657680138175834 kcal/mol)

>  <smiles>  (63) 
CCN(CCCOc1ccccc1O)Cc1[nH]c(=O)c(Cc2ccccc2)nc1O

>  <score_type>  (63) 
oracle

>  <origin>  (63) 
adg

>  <m_score__min__energy>  (63) 
-12.85

>  <m_primary>  (63) 
energy

$$$$
63:0
     RDKit          3D

 46 48  0  0  0  0  0  0  0  0999 V2000
   55.4740   26.3940   45.6400 N   0  0  0  0  0  0  0  0  0  0  0  0
   55.0930   25.0200   45.5310 C   0  0  0  0  0  0  0  0  0  0  0  0
   53.9120   24.6900   45.8130 O   0  0  0  0  0  0  0  0  0  0  0  0
   56.0700   23.9890   45.1010 C   0  0  0  0  0  0  0  0  0  0  0  0
   55.6110   22.8280   44.4500 C   0  0  0  0  0  0  0  0  0  0  0  0
   56.5100   21.8490   44.0220 C   0  0  0  0  0  0  0  0  0  0  0  0
   57.8770   22.0110   44.2410 C   0  0  0  0  0  0  0  0  0  0  0  0
   58.3500   23.1570   44.8810 C   0  0  0  0  0  0  0  0  0  0  0  0
   57.4610   24.1630   45.2960 C   0  0  0  0  0  0  0  0  0  0  0  0
   57.9510   25.3100   46.0090 N   0  0  0  0  0  0  0  0  0  0  0  0
   58.6150   26.4430   45.4350 C   0  0  0  0  0  0  0  0  0  0  0  0
   58.4830   26.6680   44.2030 O   0  0  0  0  0  0  0  0  0  0  0  0
   59.5070   27.3320   46.2520 C   0  0  0  0  0  0  0  0  0  0  0  0
   58.5360   28.4320   47.3390 S   0  0  0  0  0  0  0  0  0  0  0  0
   57.7700   29.3580   45.9960 C   0  0  0  0  0  0  0  0  0  0  0  0
   56.6410   28.8540   45.4280 N   0  0  0  0  0  0  0  0  0  0  0  0
   56.0000   29.4860   44.4100 C   0  0  0  0  0  0  0  0  0  0  0  0
   56.5090   30.6780   43.9010 C   0  0  0  0  0  0  0  0  0  0  0  0
   57.6740   31.2140   44.4490 C   0  0  0  0  0  0  0  0  0  0  0  0
   58.3120   30.5740   45.5220 C   0  0  0  0  0  0  0  0  0  0  0  0
   59.5840   31.1190   46.0500 C   0  0  0  0  0  0  0  0  0  0  0  0
   60.6030   30.3760   46.0570 O   0  0  0  0  0  0  0  0  0  0  0  0
   59.6920   32.4710   46.5370 N   0  0  0  0  0  0  0  0  0  0  0  0
   60.9580   33.0390   46.9700 C   0  0  0  0  0  0  0  0  0  0  0  0
   60.6050   34.3060   47.7390 C   0  0  0  0  0  0  0  0  0  0  0  0
   59.1620   34.6310   47.3700 C   0  0  0  0  0  0  0  0  0  0  0  0
   58.5620   33.3360   46.8410 C   0  0  0  0  0  0  0  0  0  0  0  0
   56.4060   26.7280   45.3110 H   0  0  0  0  0  0  0  0  0  0  0  0
   54.7880   27.0990   45.9910 H   0  0  0  0  0  0  0  0  0  0  0  0
   54.5334   22.6908   44.2768 H   0  0  0  0  0  0  0  0  0  0  0  0
   56.1388   20.9484   43.5111 H   0  0  0  0  0  0  0  0  0  0  0  0
   58.5829   21.2353   43.9092 H   0  0  0  0  0  0  0  0  0  0  0  0
   59.4286   23.2741   45.0624 H   0  0  0  0  0  0  0  0  0  0  0  0
   60.1652   26.7059   46.8723 H   0  0  0  0  0  0  0  0  0  0  0  0
   60.0966   27.9567   45.5648 H   0  0  0  0  0  0  0  0  0  0  0  0
   55.0795   29.0562   43.9882 H   0  0  0  0  0  0  0  0  0  0  0  0
   55.9969   31.1921   43.0743 H   0  0  0  0  0  0  0  0  0  0  0  0
   58.0948   32.1434   44.0378 H   0  0  0  0  0  0  0  0  0  0  0  0
   61.4918   32.3318   47.6219 H   0  0  0  0  0  0  0  0  0  0  0  0
   61.6173   33.2548   46.1163 H   0  0  0  0  0  0  0  0  0  0  0  0
   60.6934   34.1334   48.8218 H   0  0  0  0  0  0  0  0  0  0  0  0
   61.2829   35.1343   47.4852 H   0  0  0  0  0  0  0  0  0  0  0  0
   58.6088   34.9743   48.2567 H   0  0  0  0  0  0  0  0  0  0  0  0
   59.1091   35.4349   46.6210 H   0  0  0  0  0  0  0  0  0  0  0  0
   57.9188   32.8723   47.6034 H   0  0  0  0  0  0  0  0  0  0  0  0
   57.9366   33.5123   45.9534 H   0  0  0  0  0  0  0  0  0  0  0  0
  1  2  1  0
  2  3  2  0
  2  4  1  0
  4  5  2  0
  5  6  1  0
  6  7  2  0
  7  8  1  0
  8  9  2  0
  9 10  1  0
 10 11  1  0
 11 12  2  0
 11 13  1  0
 13 14  1  0
 14 15  1  0
 15 16  2  0
 16 17  1  0
 17 18  2  0
 18 19  1  0
 19 20  2  0
 20 21  1  0
 21 22  2  0
 21 23  1  0
 23 24  1  0
 24 25  1  0
 25 26  1  0
 26 27  1  0
  9  4  1  0
 20 15  1  0
 27 23  1  0
  1 28  1  0
  1 29  1  0
  5 30  1  0
  6 31  1  0
  7 32  1  0
  8 33  1  0
 13 34  1  0
 13 35  1  0
 17 36  1  0
 18 37  1  0
 19 38  1  0
 24 39  1  0
 24 40  1  0
 25 41  1  0
 25 42  1  0
 26 43  1  0
 26 44  1  0
 27 45  1  0
 27 46  1  0
M  CHG  1  10  -1
M  END
>  <UniqueID>  (64) 
61

>  <SMILES>  (64) 
NC(=O)c1ccccc1[N-]C(=O)CSc1ncccc1C(=O)N1CCCC1

>  <Energy>  (64) 
54.8790438080894

>  <Genealogy>  (64) 
NC(=O)c1ccccc1[N-]C(=O)CSc1ncccc1C(=O)N1CCCC1 (protonated)
NC(=O)c1ccccc1[N-]C(=O)CSc1ncccc1C(=O)N1CCCC1 (3D coordinates assigned)
NC(=O)c1ccccc1[N-]C(=O)CSc1ncccc1C(=O)N1CCCC1 (nonaromatic ring conformer: 54.8790438080894 kcal/mol)

>  <smiles>  (64) 
NC(=O)c1ccccc1NC(=O)CSc1ncccc1C(=O)N1CCCC1

>  <score_type>  (64) 
oracle

>  <origin>  (64) 
adg

>  <m_score__min__energy>  (64) 
-10.720000000000001

>  <m_primary>  (64) 
energy

$$$$
64:0
     RDKit          3D

 64 68  0  0  0  0  0  0  0  0999 V2000
   58.4228   24.8276   46.1583 H   0  0  0  0  0  0  0  0  0  0  0  0
   58.9660   25.6710   45.7070 C   0  0  0  0  0  0  0  0  0  0  0  0
   60.0355   25.5724   45.4694 H   0  0  0  0  0  0  0  0  0  0  0  0
   58.3280   26.8130   45.4480 C   0  0  0  0  0  0  0  0  0  0  0  0
   58.9460   27.8850   44.8930 N   0  0  0  0  0  0  0  0  0  0  0  0
   57.9710   28.8100   44.7700 C   0  0  0  0  0  0  0  0  0  0  0  0
   58.1720   30.0030   44.1900 C   0  0  0  0  0  0  0  0  0  0  0  0
   58.3302   30.0392   43.1020 H   0  0  0  0  0  0  0  0  0  0  0  0
   58.1900   31.2630   44.9450 C   0  0  0  0  0  0  0  0  0  0  0  0
   57.2600   32.2310   44.8230 N   0  0  0  0  0  0  0  0  0  0  0  0
   57.6310   33.1430   45.7490 C   0  0  0  0  0  0  0  0  0  0  0  0
   57.0020   34.2200   45.9360 O   0  0  0  0  0  0  0  0  0  0  0  0
   58.7320   32.7910   46.4500 N   0  0  0  0  0  0  0  0  0  0  0  0
   59.4450   33.5710   47.4640 C   0  0  0  0  0  0  0  0  0  0  0  0
   59.2133   34.6370   47.3225 H   0  0  0  0  0  0  0  0  0  0  0  0
   59.1180   33.2261   48.4560 H   0  0  0  0  0  0  0  0  0  0  0  0
   60.9480   33.3760   47.3650 C   0  0  0  0  0  0  0  0  0  0  0  0
   61.6780   34.1770   46.4630 C   0  0  0  0  0  0  0  0  0  0  0  0
   61.1449   34.8813   45.8075 H   0  0  0  0  0  0  0  0  0  0  0  0
   63.0670   34.0870   46.3920 C   0  0  0  0  0  0  0  0  0  0  0  0
   63.6251   34.7433   45.7080 H   0  0  0  0  0  0  0  0  0  0  0  0
   63.7510   33.1670   47.1860 C   0  0  0  0  0  0  0  0  0  0  0  0
   64.8478   33.1030   47.1315 H   0  0  0  0  0  0  0  0  0  0  0  0
   63.0450   32.3260   48.0510 C   0  0  0  0  0  0  0  0  0  0  0  0
   63.5900   31.5906   48.6610 H   0  0  0  0  0  0  0  0  0  0  0  0
   61.6440   32.4110   48.1490 C   0  0  0  0  0  0  0  0  0  0  0  0
   60.9300   31.4920   49.0740 C   0  0  0  0  0  0  0  0  0  0  0  0
   60.6510   31.9180   50.2290 O   0  0  0  0  0  0  0  0  0  0  0  0
   60.4780   30.1750   48.6450 N   0  0  0  0  0  0  0  0  0  0  0  0
   60.7440   30.0620   47.6380 H   0  0  0  0  0  0  0  0  0  0  0  0
   59.0030   30.0480   48.7510 C   0  0  0  0  0  0  0  0  0  0  0  0
   58.6887   30.3789   49.7519 H   0  0  0  0  0  0  0  0  0  0  0  0
   58.5502   30.6719   47.9663 H   0  0  0  0  0  0  0  0  0  0  0  0
   58.5330   28.5940   48.5360 C   0  0  0  0  0  0  0  0  0  0  0  0
   58.1707   28.1895   49.4926 H   0  0  0  0  0  0  0  0  0  0  0  0
   57.7293   28.5966   47.7849 H   0  0  0  0  0  0  0  0  0  0  0  0
   59.5860   27.7780   48.0600 O   0  0  0  0  0  0  0  0  0  0  0  0
   60.6010   27.7070   49.0440 C   0  0  0  0  0  0  0  0  0  0  0  0
   60.1918   27.2180   49.9404 H   0  0  0  0  0  0  0  0  0  0  0  0
   61.4400   27.1336   48.6229 H   0  0  0  0  0  0  0  0  0  0  0  0
   61.1320   29.1060   49.4380 C   0  0  0  0  0  0  0  0  0  0  0  0
   60.9304   29.2779   50.5056 H   0  0  0  0  0  0  0  0  0  0  0  0
   62.2128   29.1362   49.2355 H   0  0  0  0  0  0  0  0  0  0  0  0
   59.0910   31.6090   45.9260 C   0  0  0  0  0  0  0  0  0  0  0  0
   60.2020   30.8720   46.3200 O   0  0  0  0  0  0  0  0  0  0  0  0
   56.7860   28.2760   45.2560 C   0  0  0  0  0  0  0  0  0  0  0  0
   55.6510   28.8240   45.2480 O   0  0  0  0  0  0  0  0  0  0  0  0
   57.0120   27.0280   45.6930 N   0  0  0  0  0  0  0  0  0  0  0  0
   56.0260   26.0610   46.0770 C   0  0  0  0  0  0  0  0  0  0  0  0
   54.8100   26.2730   45.8150 O   0  0  0  0  0  0  0  0  0  0  0  0
   56.4260   24.7970   46.6240 N   0  0  0  0  0  0  0  0  0  0  0  0
   56.3350   23.5960   45.7880 C   0  0  0  0  0  0  0  0  0  0  0  0
   55.4634   23.6814   45.1225 H   0  0  0  0  0  0  0  0  0  0  0  0
   57.2544   23.5027   45.1914 H   0  0  0  0  0  0  0  0  0  0  0  0
   56.1800   22.3480   46.6700 C   0  0  0  0  0  0  0  0  0  0  0  0
   55.1748   22.3457   47.1167 H   0  0  0  0  0  0  0  0  0  0  0  0
   56.3251   21.4556   46.0434 H   0  0  0  0  0  0  0  0  0  0  0  0
   57.1470   22.3350   47.7050 O   0  0  0  0  0  0  0  0  0  0  0  0
   56.9390   23.4250   48.5850 C   0  0  0  0  0  0  0  0  0  0  0  0
   55.8990   23.4081   48.9429 H   0  0  0  0  0  0  0  0  0  0  0  0
   57.6332   23.3350   49.4335 H   0  0  0  0  0  0  0  0  0  0  0  0
   57.2030   24.7490   47.8680 C   0  0  0  0  0  0  0  0  0  0  0  0
   56.9044   25.5840   48.5189 H   0  0  0  0  0  0  0  0  0  0  0  0
   58.2746   24.8308   47.6335 H   0  0  0  0  0  0  0  0  0  0  0  0
  1  2  1  0
  2  3  1  0
  2  4  2  0
  4  5  1  0
  5  6  1  0
  6  7  2  0
  7  8  1  0
  7  9  1  0
  9 10  1  0
 10 11  1  0
 11 12  2  0
 11 13  1  0
 13 14  1  0
 14 15  1  0
 14 16  1  0
 14 17  1  0
 17 18  2  0
 18 19  1  0
 18 20  1  0
 20 21  1  0
 20 22  2  0
 22 23  1  0
 22 24  1  0
 24 25  1  0
 24 26  2  0
 26 27  1  0
 27 28  2  0
 27 29  1  0
 29 30  1  0
 29 31  1  0
 31 32  1  0
 31 33  1  0
 31 34  1  0
 34 35  1  0
 34 36  1  0
 34 37  1  0
 37 38  1  0
 38 39  1  0
 38 40  1  0
 38 41  1  0
 41 42  1  0
 41 43  1  0
 13 44  1  0
 44 45  1  0
  6 46  1  0
 46 47  2  0
 46 48  1  0
 48 49  1  0
 49 50  2  0
 49 51  1  0
 51 52  1  0
 52 53  1  0
 52 54  1  0
 52 55  1  0
 55 56  1  0
 55 57  1  0
 55 58  1  0
 58 59  1  0
 59 60  1  0
 59 61  1  0
 59 62  1  0
 62 63  1  0
 62 64  1  0
 48  4  1  0
 62 51  1  0
 44  9  2  0
 26 17  1  0
 41 29  1  0
M  CHG  4   5  -1  10  -1  29   1  45  -1
M  END
>  <UniqueID>  (65) 
62

>  <SMILES>  (65) 
C=c1[n-]/c(=C/c2[n-]c(=O)n(Cc3ccccc3C(=O)[NH+]3CCOCC3)c2[O-])c(=O)n1C(=O)N1CCOCC1

>  <Energy>  (65) 
174.93387581292131

>  <Genealogy>  (65) 
C=c1[n-]c(=Cc2[n-]c(=O)n(Cc3ccccc3C(=O)[NH+]3CCOCC3)c2[O-])c(=O)n1C(=O)N1CCOCC1 (protonated)
C=c1[n-]/c(=C/c2[n-]c(=O)n(Cc3ccccc3C(=O)[NH+]3CCOCC3)c2[O-])c(=O)n1C(=O)N1CCOCC1 (cis-trans isomerization)
C=c1[n-]/c(=C/c2[n-]c(=O)n(Cc3ccccc3C(=O)[NH+]3CCOCC3)c2[O-])c(=O)n1C(=O)N1CCOCC1 (3D coordinates assigned)
C=c1[n-]/c(=C/c2[n-]c(=O)n(Cc3ccccc3C(=O)[NH+]3CCOCC3)c2[O-])c(=O)n1C(=O)N1CCOCC1 (nonaromatic ring conformer: 174.93387581292131 kcal/mol)

>  <smiles>  (65) 
C=c1[nH]c(=Cc2[nH]c(=O)n(Cc3ccccc3C(=O)N3CCOCC3)c2O)c(=O)n1C(=O)N1CCOCC1

>  <score_type>  (65) 
oracle

>  <origin>  (65) 
adg

>  <m_score__min__energy>  (65) 
-14.49

>  <m_primary>  (65) 
energy

$$$$
65:0
     RDKit          3D

 51 54  0  0  0  0  0  0  0  0999 V2000
   64.5180   33.2120   49.5340 C   0  0  0  0  0  0  0  0  0  0  0  0
   63.4590   32.1450   49.4490 C   0  0  0  0  0  0  0  0  0  0  0  0
   63.2720   31.2720   50.5460 C   0  0  0  0  0  0  0  0  0  0  0  0
   62.2900   30.2930   50.4500 C   0  0  0  0  0  0  0  0  0  0  0  0
   61.9680   29.3950   51.3520 O   0  0  0  0  0  0  0  0  0  0  0  0
   60.9870   28.6620   50.8580 C   0  0  0  0  0  0  0  0  0  0  0  0
   60.6570   29.1050   49.5810 C   0  0  0  0  0  0  0  0  0  0  0  0
   59.5800   28.5650   48.6850 C   0  0  0  0  0  0  0  0  0  0  0  0
   60.0550   27.3580   47.9160 C   0  0  0  0  0  0  0  0  0  0  0  0
   61.0150   26.6780   48.3660 O   0  0  0  0  0  0  0  0  0  0  0  0
   59.3510   26.8730   46.7650 N   0  0  0  0  0  0  0  0  0  0  0  0
   58.1950   27.4810   46.1770 C   0  0  0  0  0  0  0  0  0  0  0  0
   58.2960   28.7710   45.6490 C   0  0  0  0  0  0  0  0  0  0  0  0
   57.1730   29.4000   45.0930 C   0  0  0  0  0  0  0  0  0  0  0  0
   57.2970   30.7590   44.5240 C   0  0  0  0  0  0  0  0  0  0  0  0
   57.1220   30.9170   43.2850 O   0  0  0  0  0  0  0  0  0  0  0  0
   57.6410   31.8920   45.3440 N   0  0  0  0  0  0  0  0  0  0  0  0
   57.0470   33.2060   45.0810 C   0  0  0  0  0  0  0  0  0  0  0  0
   58.0840   34.3030   45.3430 C   0  0  0  0  0  0  0  0  0  0  0  0
   58.6610   34.1570   46.6270 O   0  0  0  0  0  0  0  0  0  0  0  0
   59.3980   32.9500   46.6850 C   0  0  0  0  0  0  0  0  0  0  0  0
   58.4690   31.7400   46.5450 C   0  0  0  0  0  0  0  0  0  0  0  0
   55.9540   28.7000   45.0640 C   0  0  0  0  0  0  0  0  0  0  0  0
   54.8310   29.2490   44.4570 O   0  0  0  0  0  0  0  0  0  0  0  0
   55.8680   27.4610   45.6180 N   0  0  0  0  0  0  0  0  0  0  0  0
   56.9410   26.8470   46.1840 C   0  0  0  0  0  0  0  0  0  0  0  0
   56.7940   25.7230   46.7280 O   0  0  0  0  0  0  0  0  0  0  0  0
   61.5120   30.1590   49.3350 C   0  0  0  0  0  0  0  0  0  0  0  0
   61.6590   30.9930   48.2300 C   0  0  0  0  0  0  0  0  0  0  0  0
   62.6440   32.0040   48.2820 C   0  0  0  0  0  0  0  0  0  0  0  0
   62.8220   32.9150   47.0960 C   0  0  0  0  0  0  0  0  0  0  0  0
   64.7346   33.4303   50.5901 H   0  0  0  0  0  0  0  0  0  0  0  0
   65.4340   32.8599   49.0370 H   0  0  0  0  0  0  0  0  0  0  0  0
   64.1590   34.1253   49.0370 H   0  0  0  0  0  0  0  0  0  0  0  0
   63.8882   31.3655   51.4524 H   0  0  0  0  0  0  0  0  0  0  0  0
   60.5018   27.8239   51.3797 H   0  0  0  0  0  0  0  0  0  0  0  0
   58.7137   28.2791   49.2996 H   0  0  0  0  0  0  0  0  0  0  0  0
   59.3063   29.3486   47.9631 H   0  0  0  0  0  0  0  0  0  0  0  0
   59.2624   29.2961   45.6697 H   0  0  0  0  0  0  0  0  0  0  0  0
   56.7190   33.2558   44.0322 H   0  0  0  0  0  0  0  0  0  0  0  0
   56.1831   33.3550   45.7455 H   0  0  0  0  0  0  0  0  0  0  0  0
   58.8764   34.2384   44.5827 H   0  0  0  0  0  0  0  0  0  0  0  0
   57.5817   35.2803   45.2928 H   0  0  0  0  0  0  0  0  0  0  0  0
   60.1337   32.9367   45.8674 H   0  0  0  0  0  0  0  0  0  0  0  0
   59.9074   32.8935   47.6583 H   0  0  0  0  0  0  0  0  0  0  0  0
   59.0716   30.8236   46.4607 H   0  0  0  0  0  0  0  0  0  0  0  0
   57.8197   31.6735   47.4304 H   0  0  0  0  0  0  0  0  0  0  0  0
   61.0248   30.8679   47.3400 H   0  0  0  0  0  0  0  0  0  0  0  0
   63.0219   33.9383   47.4464 H   0  0  0  0  0  0  0  0  0  0  0  0
   63.6685   32.5638   46.4877 H   0  0  0  0  0  0  0  0  0  0  0  0
   61.9056   32.9083   46.4877 H   0  0  0  0  0  0  0  0  0  0  0  0
  1  2  1  0
  2  3  2  0
  3  4  1  0
  4  5  1  0
  5  6  1  0
  6  7  2  0
  7  8  1  0
  8  9  1  0
  9 10  2  0
  9 11  1  0
 11 12  1  0
 12 13  2  0
 13 14  1  0
 14 15  1  0
 15 16  2  0
 15 17  1  0
 17 18  1  0
 18 19  1  0
 19 20  1  0
 20 21  1  0
 21 22  1  0
 14 23  2  0
 23 24  1  0
 23 25  1  0
 25 26  1  0
 26 27  2  0
  7 28  1  0
 28 29  1  0
 29 30  2  0
 30 31  1  0
 30  2  1  0
 28  4  2  0
 26 12  1  0
 22 17  1  0
  1 32  1  0
  1 33  1  0
  1 34  1  0
  3 35  1  0
  6 36  1  0
  8 37  1  0
  8 38  1  0
 13 39  1  0
 18 40  1  0
 18 41  1  0
 19 42  1  0
 19 43  1  0
 21 44  1  0
 21 45  1  0
 22 46  1  0
 22 47  1  0
 29 48  1  0
 31 49  1  0
 31 50  1  0
 31 51  1  0
M  CHG  3  11  -1  24  -1  25  -1
M  END
>  <UniqueID>  (66) 
63

>  <SMILES>  (66) 
Cc1cc2occ(CC(=O)[N-]c3cc(C(=O)N4CCOCC4)c([O-])[n-]c3=O)c2cc1C

>  <Energy>  (66) 
103.22167041016853

>  <Genealogy>  (66) 
Cc1cc2occ(CC(=O)[N-]c3cc(C(=O)N4CCOCC4)c([O-])[n-]c3=O)c2cc1C (protonated)
Cc1cc2occ(CC(=O)[N-]c3cc(C(=O)N4CCOCC4)c([O-])[n-]c3=O)c2cc1C (3D coordinates assigned)
Cc1cc2occ(CC(=O)[N-]c3cc(C(=O)N4CCOCC4)c([O-])[n-]c3=O)c2cc1C (nonaromatic ring conformer: 103.22167041016853 kcal/mol)

>  <smiles>  (66) 
Cc1cc2occ(CC(=O)Nc3cc(C(=O)N4CCOCC4)c(O)[nH]c3=O)c2cc1C

>  <score_type>  (66) 
oracle

>  <origin>  (66) 
adg

>  <m_score__min__energy>  (66) 
-15.609999999999999

>  <m_primary>  (66) 
energy

$$$$
66:0
     RDKit          3D

 52 55  0  0  0  0  0  0  0  0999 V2000
   64.5930   33.0080   49.2530 C   0  0  0  0  0  0  0  0  0  0  0  0
   63.1990   33.3870   49.6530 C   0  0  0  0  0  0  0  0  0  0  0  0
   62.9550   33.6080   50.8750 O   0  0  0  0  0  0  0  0  0  0  0  0
   62.1400   33.4930   48.6800 N   0  0  0  0  0  0  0  0  0  0  0  0
   62.2510   32.8400   47.3590 C   0  0  0  0  0  0  0  0  0  0  0  0
   60.8750   32.3750   46.8590 C   0  0  0  0  0  0  0  0  0  0  0  0
   59.8530   33.4210   47.0270 N   0  0  0  0  0  0  0  0  0  0  0  0
   58.4860   33.1390   46.6660 C   0  0  0  0  0  0  0  0  0  0  0  0
   57.5710   33.3280   47.5160 O   0  0  0  0  0  0  0  0  0  0  0  0
   58.1410   32.6150   45.3230 C   0  0  0  0  0  0  0  0  0  0  0  0
   58.4690   33.3450   44.1650 C   0  0  0  0  0  0  0  0  0  0  0  0
   58.1740   32.8320   42.9000 C   0  0  0  0  0  0  0  0  0  0  0  0
   57.5330   31.5960   42.7760 C   0  0  0  0  0  0  0  0  0  0  0  0
   57.1560   30.8790   43.9210 C   0  0  0  0  0  0  0  0  0  0  0  0
   56.2600   29.3690   43.7830 S   0  0  0  0  0  0  0  0  0  0  0  0
   54.8040   29.6320   43.5100 O   0  0  0  0  0  0  0  0  0  0  0  0
   56.8310   28.5840   42.6340 O   0  0  0  0  0  0  0  0  0  0  0  0
   56.4380   28.4500   45.2450 N   0  0  0  0  0  0  0  0  0  0  0  0
   57.6880   27.9360   45.7290 C   0  0  0  0  0  0  0  0  0  0  0  0
   58.2060   26.7060   45.2320 C   0  0  0  0  0  0  0  0  0  0  0  0
   57.4480   25.9180   44.2330 C   0  0  0  0  0  0  0  0  0  0  0  0
   57.7580   25.9410   43.0050 O   0  0  0  0  0  0  0  0  0  0  0  0
   59.4790   26.2510   45.6790 C   0  0  0  0  0  0  0  0  0  0  0  0
   60.2220   26.9840   46.6230 C   0  0  0  0  0  0  0  0  0  0  0  0
   59.6650   28.1560   47.1150 C   0  0  0  0  0  0  0  0  0  0  0  0
   60.1320   29.0370   48.0610 C   0  0  0  0  0  0  0  0  0  0  0  0
   59.1280   29.9930   48.1670 C   0  0  0  0  0  0  0  0  0  0  0  0
   58.1340   29.7110   47.3460 O   0  0  0  0  0  0  0  0  0  0  0  0
   58.4440   28.6140   46.6980 C   0  0  0  0  0  0  0  0  0  0  0  0
   57.4600   31.3910   45.1900 C   0  0  0  0  0  0  0  0  0  0  0  0
   60.1830   34.6730   47.7170 C   0  0  0  0  0  0  0  0  0  0  0  0
   61.0000   34.3730   48.9730 C   0  0  0  0  0  0  0  0  0  0  0  0
   65.2010   32.8427   50.1546 H   0  0  0  0  0  0  0  0  0  0  0  0
   64.5648   32.0849   48.6554 H   0  0  0  0  0  0  0  0  0  0  0  0
   65.0361   33.8183   48.6554 H   0  0  0  0  0  0  0  0  0  0  0  0
   62.6730   33.5556   46.6380 H   0  0  0  0  0  0  0  0  0  0  0  0
   62.9048   31.9607   47.4559 H   0  0  0  0  0  0  0  0  0  0  0  0
   60.9512   32.1191   45.7919 H   0  0  0  0  0  0  0  0  0  0  0  0
   60.5717   31.5004   47.4533 H   0  0  0  0  0  0  0  0  0  0  0  0
   58.9604   34.3249   44.2569 H   0  0  0  0  0  0  0  0  0  0  0  0
   58.4466   33.4017   41.9994 H   0  0  0  0  0  0  0  0  0  0  0  0
   57.3237   31.1845   41.7776 H   0  0  0  0  0  0  0  0  0  0  0  0
   56.5996   25.3009   44.5637 H   0  0  0  0  0  0  0  0  0  0  0  0
   59.8884   25.3112   45.2800 H   0  0  0  0  0  0  0  0  0  0  0  0
   61.2110   26.6396   46.9596 H   0  0  0  0  0  0  0  0  0  0  0  0
   61.0843   28.9952   48.6099 H   0  0  0  0  0  0  0  0  0  0  0  0
   59.1580   30.8622   48.8405 H   0  0  0  0  0  0  0  0  0  0  0  0
   57.1637   30.8312   46.0893 H   0  0  0  0  0  0  0  0  0  0  0  0
   60.7697   35.3165   47.0449 H   0  0  0  0  0  0  0  0  0  0  0  0
   59.2528   35.1857   48.0031 H   0  0  0  0  0  0  0  0  0  0  0  0
   61.3771   35.3194   49.3879 H   0  0  0  0  0  0  0  0  0  0  0  0
   60.3463   33.8604   49.6941 H   0  0  0  0  0  0  0  0  0  0  0  0
  1  2  1  0
  2  3  2  0
  2  4  1  0
  4  5  1  0
  5  6  1  0
  6  7  1  0
  7  8  1  0
  8  9  2  0
  8 10  1  0
 10 11  2  0
 11 12  1  0
 12 13  2  0
 13 14  1  0
 14 15  1  0
 15 16  2  0
 15 17  2  0
 15 18  1  0
 18 19  1  0
 19 20  2  0
 20 21  1  0
 21 22  2  0
 20 23  1  0
 23 24  2  0
 24 25  1  0
 25 26  1  0
 26 27  2  0
 27 28  1  0
 28 29  1  0
 14 30  2  0
  7 31  1  0
 31 32  1  0
 32  4  1  0
 30 10  1  0
 29 19  1  0
 29 25  2  0
  1 33  1  0
  1 34  1  0
  1 35  1  0
  5 36  1  0
  5 37  1  0
  6 38  1  0
  6 39  1  0
 11 40  1  0
 12 41  1  0
 13 42  1  0
 21 43  1  0
 23 44  1  0
 24 45  1  0
 26 46  1  0
 27 47  1  0
 30 48  1  0
 31 49  1  0
 31 50  1  0
 32 51  1  0
 32 52  1  0
M  CHG  1  18  -1
M  END
>  <UniqueID>  (67) 
64

>  <SMILES>  (67) 
CC(=O)N1CCN(C(=O)c2cccc(S(=O)(=O)[N-]c3c(C=O)ccc4ccoc34)c2)CC1

>  <Energy>  (67) 
100.58041882005499

>  <Genealogy>  (67) 
CC(=O)N1CCN(C(=O)c2cccc(S(=O)(=O)[N-]c3c(C=O)ccc4ccoc34)c2)CC1 (protonated)
CC(=O)N1CCN(C(=O)c2cccc(S(=O)(=O)[N-]c3c(C=O)ccc4ccoc34)c2)CC1 (3D coordinates assigned)
CC(=O)N1CCN(C(=O)c2cccc(S(=O)(=O)[N-]c3c(C=O)ccc4ccoc34)c2)CC1 (nonaromatic ring conformer: 100.58041882005499 kcal/mol)

>  <smiles>  (67) 
CC(=O)N1CCN(C(=O)c2cccc(S(=O)(=O)Nc3c(C=O)ccc4ccoc34)c2)CC1

>  <score_type>  (67) 
oracle

>  <origin>  (67) 
adg

>  <m_score__min__energy>  (67) 
-11.75

>  <m_primary>  (67) 
energy

$$$$
67:0
     RDKit          3D

 52 54  0  0  0  0  0  0  0  0999 V2000
   57.7670   32.1020   42.5670 O   0  0  0  0  0  0  0  0  0  0  0  0
   57.3980   31.2700   43.4410 C   0  0  0  0  0  0  0  0  0  0  0  0
   56.7580   29.9860   43.0080 C   0  0  0  0  0  0  0  0  0  0  0  0
   55.4960   29.7160   43.8280 C   0  0  0  0  0  0  0  0  0  0  0  0
   55.8480   29.4320   45.2210 N   0  0  0  0  0  0  0  0  0  0  0  0
   57.0300   28.1590   45.3260 S   0  0  0  0  0  0  0  0  0  0  0  0
   56.4590   27.0200   46.1220 O   0  0  0  0  0  0  0  0  0  0  0  0
   57.3700   27.6580   43.9510 O   0  0  0  0  0  0  0  0  0  0  0  0
   58.4810   28.7510   46.1340 C   0  0  0  0  0  0  0  0  0  0  0  0
   59.5840   29.1930   45.3890 C   0  0  0  0  0  0  0  0  0  0  0  0
   60.7220   29.6780   46.0410 C   0  0  0  0  0  0  0  0  0  0  0  0
   60.7630   29.7260   47.4370 C   0  0  0  0  0  0  0  0  0  0  0  0
   59.6640   29.2910   48.1840 C   0  0  0  0  0  0  0  0  0  0  0  0
   59.7120   29.3590   49.9360 Cl  0  0  0  0  0  0  0  0  0  0  0  0
   58.5230   28.8060   47.5330 C   0  0  0  0  0  0  0  0  0  0  0  0
   57.4980   31.5830   44.8390 N   0  0  0  0  0  0  0  0  0  0  0  0
   58.2410   32.6960   45.3650 C   0  0  0  0  0  0  0  0  0  0  0  0
   58.2220   33.9200   44.6800 C   0  0  0  0  0  0  0  0  0  0  0  0
   58.9160   35.0230   45.1840 C   0  0  0  0  0  0  0  0  0  0  0  0
   59.6230   34.9180   46.3830 C   0  0  0  0  0  0  0  0  0  0  0  0
   59.6390   33.7090   47.0880 C   0  0  0  0  0  0  0  0  0  0  0  0
   60.5040   33.6030   48.6190 S   0  0  0  0  0  0  0  0  0  0  0  0
   59.7840   34.4060   49.6670 O   0  0  0  0  0  0  0  0  0  0  0  0
   60.5280   32.1630   49.0530 O   0  0  0  0  0  0  0  0  0  0  0  0
   62.1360   34.1960   48.3960 N   0  0  0  0  0  0  0  0  0  0  0  0
   63.0030   33.8730   49.5510 C   0  0  0  0  0  0  0  0  0  0  0  0
   63.8850   32.6340   49.3050 C   0  0  0  0  0  0  0  0  0  0  0  0
   63.2180   31.7160   48.4690 O   0  0  0  0  0  0  0  0  0  0  0  0
   63.1050   32.2410   47.1570 C   0  0  0  0  0  0  0  0  0  0  0  0
   62.7120   33.7380   47.1200 C   0  0  0  0  0  0  0  0  0  0  0  0
   58.9400   32.6020   46.5830 C   0  0  0  0  0  0  0  0  0  0  0  0
   56.4904   30.0555   41.9433 H   0  0  0  0  0  0  0  0  0  0  0  0
   57.4692   29.1619   43.1662 H   0  0  0  0  0  0  0  0  0  0  0  0
   54.8430   30.6005   43.7915 H   0  0  0  0  0  0  0  0  0  0  0  0
   54.9734   28.8451   43.4055 H   0  0  0  0  0  0  0  0  0  0  0  0
   59.5538   29.1581   44.2900 H   0  0  0  0  0  0  0  0  0  0  0  0
   61.5863   30.0223   45.4541 H   0  0  0  0  0  0  0  0  0  0  0  0
   61.6598   30.1060   47.9482 H   0  0  0  0  0  0  0  0  0  0  0  0
   57.6576   28.4674   48.1217 H   0  0  0  0  0  0  0  0  0  0  0  0
   56.9210   31.0210   45.5040 H   0  0  0  0  0  0  0  0  0  0  0  0
   57.6574   34.0120   43.7405 H   0  0  0  0  0  0  0  0  0  0  0  0
   58.9052   35.9760   44.6348 H   0  0  0  0  0  0  0  0  0  0  0  0
   60.1694   35.7884   46.7751 H   0  0  0  0  0  0  0  0  0  0  0  0
   63.6558   34.7351   49.7528 H   0  0  0  0  0  0  0  0  0  0  0  0
   62.3477   33.6496   50.4058 H   0  0  0  0  0  0  0  0  0  0  0  0
   64.8237   32.9466   48.8243 H   0  0  0  0  0  0  0  0  0  0  0  0
   64.0981   32.1497   50.2694 H   0  0  0  0  0  0  0  0  0  0  0  0
   64.0745   32.1234   46.6507 H   0  0  0  0  0  0  0  0  0  0  0  0
   62.3004   31.6838   46.6549 H   0  0  0  0  0  0  0  0  0  0  0  0
   63.6105   34.3344   46.9030 H   0  0  0  0  0  0  0  0  0  0  0  0
   61.9470   33.8661   46.3400 H   0  0  0  0  0  0  0  0  0  0  0  0
   58.9383   31.6549   47.1425 H   0  0  0  0  0  0  0  0  0  0  0  0
  1  2  2  0
  2  3  1  0
  3  4  1  0
  4  5  1  0
  5  6  1  0
  6  7  2  0
  6  8  2  0
  6  9  1  0
  9 10  2  0
 10 11  1  0
 11 12  2  0
 12 13  1  0
 13 14  1  0
 13 15  2  0
  2 16  1  0
 16 17  1  0
 17 18  2  0
 18 19  1  0
 19 20  2  0
 20 21  1  0
 21 22  1  0
 22 23  2  0
 22 24  2  0
 22 25  1  0
 25 26  1  0
 26 27  1  0
 27 28  1  0
 28 29  1  0
 29 30  1  0
 21 31  2  0
 15  9  1  0
 31 17  1  0
 30 25  1  0
  3 32  1  0
  3 33  1  0
  4 34  1  0
  4 35  1  0
 10 36  1  0
 11 37  1  0
 12 38  1  0
 15 39  1  0
 16 40  1  0
 18 41  1  0
 19 42  1  0
 20 43  1  0
 26 44  1  0
 26 45  1  0
 27 46  1  0
 27 47  1  0
 29 48  1  0
 29 49  1  0
 30 50  1  0
 30 51  1  0
 31 52  1  0
M  CHG  1   5  -1
M  END
>  <UniqueID>  (68) 
65

>  <SMILES>  (68) 
O=C(CC[N-]S(=O)(=O)c1cccc(Cl)c1)Nc1cccc(S(=O)(=O)N2CCOCC2)c1

>  <Energy>  (68) 
63.250398004068465

>  <Genealogy>  (68) 
O=C(CC[N-]S(=O)(=O)c1cccc(Cl)c1)Nc1cccc(S(=O)(=O)N2CCOCC2)c1 (protonated)
O=C(CC[N-]S(=O)(=O)c1cccc(Cl)c1)Nc1cccc(S(=O)(=O)N2CCOCC2)c1 (3D coordinates assigned)
O=C(CC[N-]S(=O)(=O)c1cccc(Cl)c1)Nc1cccc(S(=O)(=O)N2CCOCC2)c1 (nonaromatic ring conformer: 63.250398004068465 kcal/mol)

>  <smiles>  (68) 
O=C(CCNS(=O)(=O)c1cccc(Cl)c1)Nc1cccc(S(=O)(=O)N2CCOCC2)c1

>  <score_type>  (68) 
oracle

>  <origin>  (68) 
adg

>  <m_score__min__energy>  (68) 
-11.890000000000001

>  <m_primary>  (68) 
energy

$$$$
68:0
     RDKit          3D

 75 76  0  0  0  0  0  0  0  0999 V2000
   62.3040   31.9170   50.2690 H   0  0  0  0  0  0  0  0  0  0  0  0
   61.5980   31.1920   50.2450 O   0  0  0  0  0  0  0  0  0  0  0  0
   60.9930   30.7720   49.0600 C   0  0  0  0  0  0  0  0  0  0  0  0
   60.4290   29.4920   49.0100 C   0  0  0  0  0  0  0  0  0  0  0  0
   60.4402   28.8574   49.9084 H   0  0  0  0  0  0  0  0  0  0  0  0
   59.8470   29.0070   47.8220 C   0  0  0  0  0  0  0  0  0  0  0  0
   59.2600   27.6470   47.7180 C   0  0  0  0  0  0  0  0  0  0  0  0
   59.8953   26.7870   47.9766 H   0  0  0  0  0  0  0  0  0  0  0  0
   58.0000   27.4070   47.3270 C   0  0  0  0  0  0  0  0  0  0  0  0
   57.1929   27.4936   48.0694 H   0  0  0  0  0  0  0  0  0  0  0  0
   57.6490   27.0310   45.9410 C   0  0  0  0  0  0  0  0  0  0  0  0
   57.9540   27.8300   45.0140 O   0  0  0  0  0  0  0  0  0  0  0  0
   56.9820   25.7520   45.5950 C   0  0  0  0  0  0  0  0  0  0  0  0
   57.7440   24.6550   45.1510 C   0  0  0  0  0  0  0  0  0  0  0  0
   58.8383   24.7426   45.0808 H   0  0  0  0  0  0  0  0  0  0  0  0
   57.1200   23.4560   44.7990 C   0  0  0  0  0  0  0  0  0  0  0  0
   57.7239   22.6011   44.4608 H   0  0  0  0  0  0  0  0  0  0  0  0
   55.7290   23.3410   44.8760 C   0  0  0  0  0  0  0  0  0  0  0  0
   55.2393   22.3959   44.5984 H   0  0  0  0  0  0  0  0  0  0  0  0
   54.9610   24.4250   45.3050 C   0  0  0  0  0  0  0  0  0  0  0  0
   53.8665   24.3318   45.3635 H   0  0  0  0  0  0  0  0  0  0  0  0
   55.5780   25.6300   45.6610 C   0  0  0  0  0  0  0  0  0  0  0  0
   54.7920   26.6940   46.0900 O   0  0  0  0  0  0  0  0  0  0  0  0
   59.8630   29.8210   46.6800 C   0  0  0  0  0  0  0  0  0  0  0  0
   59.4389   29.4450   45.7372 H   0  0  0  0  0  0  0  0  0  0  0  0
   60.4120   31.1040   46.7280 C   0  0  0  0  0  0  0  0  0  0  0  0
   60.4123   31.7327   45.8253 H   0  0  0  0  0  0  0  0  0  0  0  0
   60.9620   31.5950   47.9180 C   0  0  0  0  0  0  0  0  0  0  0  0
   61.5100   32.9220   47.9500 N   0  0  0  0  0  0  0  0  0  0  0  0
   62.6920   33.2420   47.1360 C   0  0  0  0  0  0  0  0  0  0  0  0
   62.8888   32.4114   46.4422 H   0  0  0  0  0  0  0  0  0  0  0  0
   62.4964   34.1679   46.5752 H   0  0  0  0  0  0  0  0  0  0  0  0
   63.9220   33.4550   48.0300 C   0  0  0  0  0  0  0  0  0  0  0  0
   64.7905   32.9596   47.5714 H   0  0  0  0  0  0  0  0  0  0  0  0
   64.1026   34.5357   48.1271 H   0  0  0  0  0  0  0  0  0  0  0  0
   63.6990   32.8900   49.3800 N   0  0  0  0  0  0  0  0  0  0  0  0
   64.7970   31.9860   49.7660 C   0  0  0  0  0  0  0  0  0  0  0  0
   64.8605   31.9337   50.8629 H   0  0  0  0  0  0  0  0  0  0  0  0
   64.6042   30.9814   49.3616 H   0  0  0  0  0  0  0  0  0  0  0  0
   65.7459   32.3681   49.3616 H   0  0  0  0  0  0  0  0  0  0  0  0
   63.5930   33.9760   50.3690 C   0  0  0  0  0  0  0  0  0  0  0  0
   63.6343   33.5532   51.3837 H   0  0  0  0  0  0  0  0  0  0  0  0
   64.4267   34.6802   50.2310 H   0  0  0  0  0  0  0  0  0  0  0  0
   62.6389   34.5057   50.2310 H   0  0  0  0  0  0  0  0  0  0  0  0
   60.8380   33.9590   48.7410 C   0  0  0  0  0  0  0  0  0  0  0  0
   61.5657   34.7401   49.0062 H   0  0  0  0  0  0  0  0  0  0  0  0
   60.4251   33.4996   49.6512 H   0  0  0  0  0  0  0  0  0  0  0  0
   59.6910   34.5890   47.9400 C   0  0  0  0  0  0  0  0  0  0  0  0
   59.5085   35.6024   48.3270 H   0  0  0  0  0  0  0  0  0  0  0  0
   58.8112   33.9395   48.0587 H   0  0  0  0  0  0  0  0  0  0  0  0
   59.9920   34.6860   46.4330 C   0  0  0  0  0  0  0  0  0  0  0  0
   60.6742   33.8649   46.1677 H   0  0  0  0  0  0  0  0  0  0  0  0
   60.4252   35.6838   46.2696 H   0  0  0  0  0  0  0  0  0  0  0  0
   58.7570   34.5970   45.5150 C   0  0  0  0  0  0  0  0  0  0  0  0
   59.0763   34.2147   44.5342 H   0  0  0  0  0  0  0  0  0  0  0  0
   58.3279   35.6073   45.4427 H   0  0  0  0  0  0  0  0  0  0  0  0
   57.6600   33.6700   46.0690 C   0  0  0  0  0  0  0  0  0  0  0  0
   56.8835   34.2857   46.5465 H   0  0  0  0  0  0  0  0  0  0  0  0
   58.1287   32.9860   46.7918 H   0  0  0  0  0  0  0  0  0  0  0  0
   57.0060   32.8150   44.9620 C   0  0  0  0  0  0  0  0  0  0  0  0
   57.1262   33.3382   44.0019 H   0  0  0  0  0  0  0  0  0  0  0  0
   55.9492   32.6839   45.2378 H   0  0  0  0  0  0  0  0  0  0  0  0
   57.6150   31.4090   44.8290 C   0  0  0  0  0  0  0  0  0  0  0  0
   57.0681   30.7250   45.4946 H   0  0  0  0  0  0  0  0  0  0  0  0
   58.6781   31.4820   45.1020 H   0  0  0  0  0  0  0  0  0  0  0  0
   57.5430   30.8600   43.3940 C   0  0  0  0  0  0  0  0  0  0  0  0
   58.4547   30.2782   43.1933 H   0  0  0  0  0  0  0  0  0  0  0  0
   57.4516   31.7190   42.7129 H   0  0  0  0  0  0  0  0  0  0  0  0
   56.3220   29.9550   43.1680 C   0  0  0  0  0  0  0  0  0  0  0  0
   56.6706   28.9802   42.7963 H   0  0  0  0  0  0  0  0  0  0  0  0
   55.6665   30.4571   42.4412 H   0  0  0  0  0  0  0  0  0  0  0  0
   55.5100   29.7300   44.4430 C   0  0  0  0  0  0  0  0  0  0  0  0
   56.1490   29.9071   45.3207 H   0  0  0  0  0  0  0  0  0  0  0  0
   54.6584   30.4260   44.4630 H   0  0  0  0  0  0  0  0  0  0  0  0
   55.1381   28.6950   44.4630 H   0  0  0  0  0  0  0  0  0  0  0  0
  1  2  1  0
  2  3  1  0
  3  4  2  0
  4  5  1  0
  4  6  1  0
  6  7  1  0
  7  8  1  0
  7  9  2  0
  9 10  1  0
  9 11  1  0
 11 12  2  0
 11 13  1  0
 13 14  2  0
 14 15  1  0
 14 16  1  0
 16 17  1  0
 16 18  2  0
 18 19  1  0
 18 20  1  0
 20 21  1  0
 20 22  2  0
 22 23  1  0
  6 24  2  0
 24 25  1  0
 24 26  1  0
 26 27  1  0
 26 28  2  0
 28 29  1  0
 29 30  1  0
 30 31  1  0
 30 32  1  0
 30 33  1  0
 33 34  1  0
 33 35  1  0
 33 36  1  0
 36 37  1  0
 37 38  1  0
 37 39  1  0
 37 40  1  0
 36 41  1  0
 41 42  1  0
 41 43  1  0
 41 44  1  0
 29 45  1  0
 45 46  1  0
 45 47  1  0
 45 48  1  0
 48 49  1  0
 48 50  1  0
 48 51  1  0
 51 52  1  0
 51 53  1  0
 51 54  1  0
 54 55  1  0
 54 56  1  0
 54 57  1  0
 57 58  1  0
 57 59  1  0
 57 60  1  0
 60 61  1  0
 60 62  1  0
 60 63  1  0
 63 64  1  0
 63 65  1  0
 63 66  1  0
 66 67  1  0
 66 68  1  0
 66 69  1  0
 69 70  1  0
 69 71  1  0
 69 72  1  0
 72 73  1  0
 72 74  1  0
 72 75  1  0
 28  3  1  0
 22 13  1  0
M  CHG  1  23  -1
M  END
>  <UniqueID>  (69) 
66

>  <SMILES>  (69) 
CCCCCCCCCCN(CCN(C)C)c1ccc(/C=C/C(=O)c2ccccc2[O-])cc1O

>  <Energy>  (69) 
72.38798319681375

>  <Genealogy>  (69) 
CCCCCCCCCCN(CCN(C)C)c1ccc(C=CC(=O)c2ccccc2[O-])cc1O (protonated)
CCCCCCCCCCN(CCN(C)C)c1ccc(/C=C/C(=O)c2ccccc2[O-])cc1O (cis-trans isomerization)
CCCCCCCCCCN(CCN(C)C)c1ccc(/C=C/C(=O)c2ccccc2[O-])cc1O (3D coordinates assigned)
CCCCCCCCCCN(CCN(C)C)c1ccc(/C=C/C(=O)c2ccccc2[O-])cc1O (optimized conformer: 72.38798319681375 kcal/mol)

>  <smiles>  (69) 
CCCCCCCCCCN(CCN(C)C)c1ccc(C=CC(=O)c2ccccc2O)cc1O

>  <score_type>  (69) 
oracle

>  <origin>  (69) 
adg

>  <m_score__min__energy>  (69) 
-12.279999999999999

>  <m_primary>  (69) 
energy

$$$$
69:0
     RDKit          3D

 60 63  0  0  0  0  0  0  0  0999 V2000
   59.1060   21.8850   44.5730 C   0  0  0  0  0  0  0  0  0  0  0  0
   57.8250   22.6510   44.4280 C   0  0  0  0  0  0  0  0  0  0  0  0
   56.8600   22.2460   43.4890 C   0  0  0  0  0  0  0  0  0  0  0  0
   55.6720   22.9650   43.3520 C   0  0  0  0  0  0  0  0  0  0  0  0
   55.4310   24.0840   44.1540 C   0  0  0  0  0  0  0  0  0  0  0  0
   56.3860   24.4970   45.0920 C   0  0  0  0  0  0  0  0  0  0  0  0
   56.1110   25.6410   45.9750 C   0  0  0  0  0  0  0  0  0  0  0  0
   54.9500   26.1260   46.0040 O   0  0  0  0  0  0  0  0  0  0  0  0
   57.1350   26.2470   46.7710 N   0  0  0  0  0  0  0  0  0  0  0  0
   58.7800   26.4550   46.2550 S   0  0  0  0  0  0  0  0  0  0  0  0
   58.8430   26.4240   44.7510 O   0  0  0  0  0  0  0  0  0  0  0  0
   59.6150   25.3310   46.8010 O   0  0  0  0  0  0  0  0  0  0  0  0
   59.4140   27.9780   46.8790 C   0  0  0  0  0  0  0  0  0  0  0  0
   60.5310   28.5590   46.2700 C   0  0  0  0  0  0  0  0  0  0  0  0
   61.1020   29.7150   46.8070 C   0  0  0  0  0  0  0  0  0  0  0  0
   60.5590   30.2970   47.9550 C   0  0  0  0  0  0  0  0  0  0  0  0
   59.4390   29.7230   48.5820 C   0  0  0  0  0  0  0  0  0  0  0  0
   58.8800   30.3160   49.8160 C   0  0  0  0  0  0  0  0  0  0  0  0
   58.5790   29.5720   50.7890 O   0  0  0  0  0  0  0  0  0  0  0  0
   58.7200   31.7410   49.9210 N   0  0  0  0  0  0  0  0  0  0  0  0
   58.8240   32.7070   48.8670 C   0  0  0  0  0  0  0  0  0  0  0  0
   59.6230   33.8380   49.0750 C   0  0  0  0  0  0  0  0  0  0  0  0
   59.7960   34.7800   48.0570 C   0  0  0  0  0  0  0  0  0  0  0  0
   59.1920   34.5880   46.8120 C   0  0  0  0  0  0  0  0  0  0  0  0
   58.4050   33.4510   46.5790 C   0  0  0  0  0  0  0  0  0  0  0  0
   57.7030   33.1580   44.9810 S   0  0  0  0  0  0  0  0  0  0  0  0
   58.7990   33.1880   43.9460 O   0  0  0  0  0  0  0  0  0  0  0  0
   56.7380   34.2670   44.6620 O   0  0  0  0  0  0  0  0  0  0  0  0
   56.8990   31.6030   44.8880 N   0  0  0  0  0  0  0  0  0  0  0  0
   56.6570   31.2150   43.4890 C   0  0  0  0  0  0  0  0  0  0  0  0
   55.8720   29.8850   43.4400 C   0  0  0  0  0  0  0  0  0  0  0  0
   55.9430   29.1500   44.6530 O   0  0  0  0  0  0  0  0  0  0  0  0
   57.2710   29.1500   45.1440 C   0  0  0  0  0  0  0  0  0  0  0  0
   57.6640   30.5650   45.6120 C   0  0  0  0  0  0  0  0  0  0  0  0
   58.2180   32.5170   47.6090 C   0  0  0  0  0  0  0  0  0  0  0  0
   58.8680   28.5640   48.0290 C   0  0  0  0  0  0  0  0  0  0  0  0
   57.5960   23.7970   45.2050 C   0  0  0  0  0  0  0  0  0  0  0  0
   59.3331   21.7492   45.6407 H   0  0  0  0  0  0  0  0  0  0  0  0
   59.0013   20.9011   44.0923 H   0  0  0  0  0  0  0  0  0  0  0  0
   59.9232   22.4428   44.0923 H   0  0  0  0  0  0  0  0  0  0  0  0
   57.0418   21.3611   42.8615 H   0  0  0  0  0  0  0  0  0  0  0  0
   54.9229   22.6502   42.6106 H   0  0  0  0  0  0  0  0  0  0  0  0
   54.4889   24.6419   44.0484 H   0  0  0  0  0  0  0  0  0  0  0  0
   60.9611   28.1042   45.3655 H   0  0  0  0  0  0  0  0  0  0  0  0
   61.9809   30.1680   46.3251 H   0  0  0  0  0  0  0  0  0  0  0  0
   61.0103   31.2098   48.3710 H   0  0  0  0  0  0  0  0  0  0  0  0
   60.1179   33.9861   50.0462 H   0  0  0  0  0  0  0  0  0  0  0  0
   60.4095   35.6752   48.2367 H   0  0  0  0  0  0  0  0  0  0  0  0
   59.3341   35.3303   46.0128 H   0  0  0  0  0  0  0  0  0  0  0  0
   56.0735   32.0015   42.9881 H   0  0  0  0  0  0  0  0  0  0  0  0
   57.6220   31.0848   42.9773 H   0  0  0  0  0  0  0  0  0  0  0  0
   54.8162   30.1095   43.2282 H   0  0  0  0  0  0  0  0  0  0  0  0
   56.3275   29.2647   42.6540 H   0  0  0  0  0  0  0  0  0  0  0  0
   57.3452   28.4530   45.9917 H   0  0  0  0  0  0  0  0  0  0  0  0
   57.9518   28.8355   44.3393 H   0  0  0  0  0  0  0  0  0  0  0  0
   57.4599   30.6556   46.6891 H   0  0  0  0  0  0  0  0  0  0  0  0
   58.7338   30.7144   45.4043 H   0  0  0  0  0  0  0  0  0  0  0  0
   57.5931   31.6290   47.4332 H   0  0  0  0  0  0  0  0  0  0  0  0
   57.9841   28.1125   48.5033 H   0  0  0  0  0  0  0  0  0  0  0  0
   58.3685   24.1475   45.9053 H   0  0  0  0  0  0  0  0  0  0  0  0
  1  2  1  0
  2  3  2  0
  3  4  1  0
  4  5  2  0
  5  6  1  0
  6  7  1  0
  7  8  2  0
  7  9  1  0
  9 10  1  0
 10 11  2  0
 10 12  2  0
 10 13  1  0
 13 14  2  0
 14 15  1  0
 15 16  2  0
 16 17  1  0
 17 18  1  0
 18 19  2  0
 18 20  1  0
 20 21  1  0
 21 22  2  0
 22 23  1  0
 23 24  2  0
 24 25  1  0
 25 26  1  0
 26 27  2  0
 26 28  2  0
 26 29  1  0
 29 30  1  0
 30 31  1  0
 31 32  1  0
 32 33  1  0
 33 34  1  0
 25 35  2  0
 17 36  2  0
  6 37  2  0
 37  2  1  0
 36 13  1  0
 35 21  1  0
 34 29  1  0
  1 38  1  0
  1 39  1  0
  1 40  1  0
  3 41  1  0
  4 42  1  0
  5 43  1  0
 14 44  1  0
 15 45  1  0
 16 46  1  0
 22 47  1  0
 23 48  1  0
 24 49  1  0
 30 50  1  0
 30 51  1  0
 31 52  1  0
 31 53  1  0
 33 54  1  0
 33 55  1  0
 34 56  1  0
 34 57  1  0
 35 58  1  0
 36 59  1  0
 37 60  1  0
M  CHG  2   9  -1  20  -1
M  END
>  <UniqueID>  (70) 
67

>  <SMILES>  (70) 
Cc1cccc(C(=O)[N-]S(=O)(=O)c2cccc(C(=O)[N-]c3cccc(S(=O)(=O)N4CCOCC4)c3)c2)c1

>  <Energy>  (70) 
79.92180727038475

>  <Genealogy>  (70) 
Cc1cccc(C(=O)[N-]S(=O)(=O)c2cccc(C(=O)[N-]c3cccc(S(=O)(=O)N4CCOCC4)c3)c2)c1 (protonated)
Cc1cccc(C(=O)[N-]S(=O)(=O)c2cccc(C(=O)[N-]c3cccc(S(=O)(=O)N4CCOCC4)c3)c2)c1 (3D coordinates assigned)
Cc1cccc(C(=O)[N-]S(=O)(=O)c2cccc(C(=O)[N-]c3cccc(S(=O)(=O)N4CCOCC4)c3)c2)c1 (nonaromatic ring conformer: 79.92180727038475 kcal/mol)

>  <smiles>  (70) 
Cc1cccc(C(=O)NS(=O)(=O)c2cccc(C(=O)Nc3cccc(S(=O)(=O)N4CCOCC4)c3)c2)c1

>  <score_type>  (70) 
oracle

>  <origin>  (70) 
adg

>  <m_score__min__energy>  (70) 
-14.77

>  <m_primary>  (70) 
energy

$$$$
70:0
     RDKit          3D

 74 78  0  0  0  0  0  0  0  0999 V2000
   56.5140   31.2590   52.0580 C   0  0  0  0  0  0  0  0  0  0  0  0
   57.1060   30.1100   51.4990 O   0  0  0  0  0  0  0  0  0  0  0  0
   58.2920   29.8050   52.2040 C   0  0  0  0  0  0  0  0  0  0  0  0
   59.2430   31.0000   52.1300 C   0  0  0  0  0  0  0  0  0  0  0  0
   59.7160   31.2200   50.7510 N   0  0  0  0  0  0  0  0  0  0  0  0
   60.5480   30.1890   50.1090 C   0  0  0  0  0  0  0  0  0  0  0  0
   59.7930   29.4460   49.0410 C   0  0  0  0  0  0  0  0  0  0  0  0
   58.5900   29.7550   48.8160 O   0  0  0  0  0  0  0  0  0  0  0  0
   60.3910   28.3370   48.3500 N   0  0  0  0  0  0  0  0  0  0  0  0
   59.6300   27.4780   47.4450 C   0  0  0  0  0  0  0  0  0  0  0  0
   58.9670   28.2990   46.3740 C   0  0  0  0  0  0  0  0  0  0  0  0
   59.7410   29.1280   45.5220 C   0  0  0  0  0  0  0  0  0  0  0  0
   59.1220   29.9020   44.5220 C   0  0  0  0  0  0  0  0  0  0  0  0
   57.7370   29.8260   44.4070 C   0  0  0  0  0  0  0  0  0  0  0  0
   56.9920   29.0280   45.2120 C   0  0  0  0  0  0  0  0  0  0  0  0
   57.5660   28.2370   46.2030 C   0  0  0  0  0  0  0  0  0  0  0  0
   55.6570   29.1560   44.8770 O   0  0  0  0  0  0  0  0  0  0  0  0
   55.5570   30.0980   43.8010 C   0  0  0  0  0  0  0  0  0  0  0  0
   56.9080   30.4950   43.5270 O   0  0  0  0  0  0  0  0  0  0  0  0
   59.2850   32.3600   49.9710 C   0  0  0  0  0  0  0  0  0  0  0  0
   58.1460   32.3420   49.4250 O   0  0  0  0  0  0  0  0  0  0  0  0
   60.1320   33.6020   49.8030 C   0  0  0  0  0  0  0  0  0  0  0  0
   61.5890   33.2990   49.8270 N   0  0  0  0  0  0  0  0  0  0  0  0
   62.2390   33.0270   48.6330 C   0  0  0  0  0  0  0  0  0  0  0  0
   61.7120   33.4780   47.2770 C   0  0  0  0  0  0  0  0  0  0  0  0
   60.7320   32.4460   46.6900 C   0  0  0  0  0  0  0  0  0  0  0  0
   59.4640   33.1030   46.2080 C   0  0  0  0  0  0  0  0  0  0  0  0
   58.2150   32.5350   46.5020 C   0  0  0  0  0  0  0  0  0  0  0  0
   57.0470   33.0860   45.9670 C   0  0  0  0  0  0  0  0  0  0  0  0
   57.1170   34.2140   45.1440 C   0  0  0  0  0  0  0  0  0  0  0  0
   58.3550   34.7920   44.8530 C   0  0  0  0  0  0  0  0  0  0  0  0
   59.5270   34.2370   45.3790 C   0  0  0  0  0  0  0  0  0  0  0  0
   63.5160   32.4560   48.6390 C   0  0  0  0  0  0  0  0  0  0  0  0
   64.1820   32.2350   49.8320 C   0  0  0  0  0  0  0  0  0  0  0  0
   65.3190   31.6870   49.8110 O   0  0  0  0  0  0  0  0  0  0  0  0
   63.6060   32.6570   51.0340 C   0  0  0  0  0  0  0  0  0  0  0  0
   64.3100   32.5230   52.2470 C   0  0  0  0  0  0  0  0  0  0  0  0
   63.7640   32.9960   53.4360 C   0  0  0  0  0  0  0  0  0  0  0  0
   62.5280   33.6330   53.4300 C   0  0  0  0  0  0  0  0  0  0  0  0
   61.8120   33.7730   52.2400 C   0  0  0  0  0  0  0  0  0  0  0  0
   62.3050   33.2400   51.0180 C   0  0  0  0  0  0  0  0  0  0  0  0
   56.5484   31.1922   53.1554 H   0  0  0  0  0  0  0  0  0  0  0  0
   57.0640   32.1525   51.7276 H   0  0  0  0  0  0  0  0  0  0  0  0
   55.4672   31.3298   51.7276 H   0  0  0  0  0  0  0  0  0  0  0  0
   58.0502   29.5919   53.2557 H   0  0  0  0  0  0  0  0  0  0  0  0
   58.7719   28.9228   51.7552 H   0  0  0  0  0  0  0  0  0  0  0  0
   58.7151   31.9008   52.4763 H   0  0  0  0  0  0  0  0  0  0  0  0
   60.1144   30.7919   52.7682 H   0  0  0  0  0  0  0  0  0  0  0  0
   61.4253   30.6721   49.6540 H   0  0  0  0  0  0  0  0  0  0  0  0
   60.8503   29.4650   50.8801 H   0  0  0  0  0  0  0  0  0  0  0  0
   61.3800   28.0720   48.5590 H   0  0  0  0  0  0  0  0  0  0  0  0
   60.3111   26.7528   46.9758 H   0  0  0  0  0  0  0  0  0  0  0  0
   58.8548   26.9517   48.0213 H   0  0  0  0  0  0  0  0  0  0  0  0
   60.8336   29.1664   45.6436 H   0  0  0  0  0  0  0  0  0  0  0  0
   59.7133   30.5454   43.8538 H   0  0  0  0  0  0  0  0  0  0  0  0
   56.9470   27.5828   46.8345 H   0  0  0  0  0  0  0  0  0  0  0  0
   55.1056   29.6267   42.9155 H   0  0  0  0  0  0  0  0  0  0  0  0
   54.9195   30.9558   44.0613 H   0  0  0  0  0  0  0  0  0  0  0  0
   59.8841   34.0717   48.8397 H   0  0  0  0  0  0  0  0  0  0  0  0
   59.9140   34.2747   50.6456 H   0  0  0  0  0  0  0  0  0  0  0  0
   61.1917   34.4398   47.3960 H   0  0  0  0  0  0  0  0  0  0  0  0
   62.5638   33.5807   46.5886 H   0  0  0  0  0  0  0  0  0  0  0  0
   61.2146   31.9355   45.8435 H   0  0  0  0  0  0  0  0  0  0  0  0
   60.4704   31.7282   47.4814 H   0  0  0  0  0  0  0  0  0  0  0  0
   58.1548   31.6526   47.1561 H   0  0  0  0  0  0  0  0  0  0  0  0
   56.0714   32.6314   46.1939 H   0  0  0  0  0  0  0  0  0  0  0  0
   56.1965   34.6467   44.7253 H   0  0  0  0  0  0  0  0  0  0  0  0
   58.4086   35.6832   44.2105 H   0  0  0  0  0  0  0  0  0  0  0  0
   60.5014   34.6896   45.1430 H   0  0  0  0  0  0  0  0  0  0  0  0
   63.9948   32.1804   47.6878 H   0  0  0  0  0  0  0  0  0  0  0  0
   65.2987   32.0408   52.2540 H   0  0  0  0  0  0  0  0  0  0  0  0
   64.3106   32.8659   54.3817 H   0  0  0  0  0  0  0  0  0  0  0  0
   62.1121   34.0288   54.3683 H   0  0  0  0  0  0  0  0  0  0  0  0
   60.8493   34.3051   52.2480 H   0  0  0  0  0  0  0  0  0  0  0  0
  1  2  1  0
  2  3  1  0
  3  4  1  0
  4  5  1  0
  5  6  1  0
  6  7  1  0
  7  8  2  0
  7  9  1  0
  9 10  1  0
 10 11  1  0
 11 12  2  0
 12 13  1  0
 13 14  2  0
 14 15  1  0
 15 16  2  0
 15 17  1  0
 17 18  1  0
 18 19  1  0
  5 20  1  0
 20 21  2  0
 20 22  1  0
 22 23  1  0
 23 24  1  0
 24 25  1  0
 25 26  1  0
 26 27  1  0
 27 28  2  0
 28 29  1  0
 29 30  2  0
 30 31  1  0
 31 32  2  0
 24 33  2  0
 33 34  1  0
 34 35  2  0
 34 36  1  0
 36 37  2  0
 37 38  1  0
 38 39  2  0
 39 40  1  0
 40 41  2  0
 16 11  1  0
 41 23  1  0
 19 14  1  0
 32 27  1  0
 41 36  1  0
  1 42  1  0
  1 43  1  0
  1 44  1  0
  3 45  1  0
  3 46  1  0
  4 47  1  0
  4 48  1  0
  6 49  1  0
  6 50  1  0
  9 51  1  0
 10 52  1  0
 10 53  1  0
 12 54  1  0
 13 55  1  0
 16 56  1  0
 18 57  1  0
 18 58  1  0
 22 59  1  0
 22 60  1  0
 25 61  1  0
 25 62  1  0
 26 63  1  0
 26 64  1  0
 28 65  1  0
 29 66  1  0
 30 67  1  0
 31 68  1  0
 32 69  1  0
 33 70  1  0
 37 71  1  0
 38 72  1  0
 39 73  1  0
 40 74  1  0
M  END
>  <UniqueID>  (71) 
68

>  <SMILES>  (71) 
COCCN(CC(=O)NCc1ccc2c(c1)OCO2)C(=O)Cn1c(CCc2ccccc2)cc(=O)c2ccccc21

>  <Energy>  (71) 
116.02920123540798

>  <Genealogy>  (71) 
COCCN(CC(=O)NCc1ccc2c(c1)OCO2)C(=O)Cn1c(CCc2ccccc2)cc(=O)c2ccccc21 (3D coordinates assigned)
COCCN(CC(=O)NCc1ccc2c(c1)OCO2)C(=O)Cn1c(CCc2ccccc2)cc(=O)c2ccccc21 (nonaromatic ring conformer: 116.02920123540798 kcal/mol)

>  <smiles>  (71) 
COCCN(CC(=O)NCc1ccc2c(c1)OCO2)C(=O)Cn1c(CCc2ccccc2)cc(=O)c2ccccc21

>  <score_type>  (71) 
oracle

>  <origin>  (71) 
adg

>  <m_score__min__energy>  (71) 
-9.5199999999999996

>  <m_primary>  (71) 
energy

$$$$
71:0
     RDKit          3D

 56 58  0  0  0  0  0  0  0  0999 V2000
   62.3390   31.7440   47.5690 C   0  0  0  0  0  0  0  0  0  0  0  0
   62.3110   33.2830   47.4990 C   0  0  0  0  0  0  0  0  0  0  0  0
   63.7420   33.8550   47.5270 C   0  0  0  0  0  0  0  0  0  0  0  0
   61.5390   33.8200   48.7130 C   0  0  0  0  0  0  0  0  0  0  0  0
   61.6120   33.7220   46.3250 O   0  0  0  0  0  0  0  0  0  0  0  0
   60.2860   34.1820   46.2670 C   0  0  0  0  0  0  0  0  0  0  0  0
   60.0220   35.4070   46.4110 O   0  0  0  0  0  0  0  0  0  0  0  0
   59.2210   33.2430   46.0380 N   0  0  0  0  0  0  0  0  0  0  0  0
   57.8540   33.7120   45.7830 C   0  0  0  0  0  0  0  0  0  0  0  0
   57.0980   32.6790   44.9440 C   0  0  0  0  0  0  0  0  0  0  0  0
   57.0530   31.3520   45.5970 N   0  0  0  0  0  0  0  0  0  0  0  0
   56.7240   30.1160   44.4070 S   0  0  0  0  0  0  0  0  0  0  0  0
   57.3460   30.4990   43.0930 O   0  0  0  0  0  0  0  0  0  0  0  0
   55.2390   29.9750   44.2110 O   0  0  0  0  0  0  0  0  0  0  0  0
   57.4090   28.5790   44.9290 C   0  0  0  0  0  0  0  0  0  0  0  0
   56.6230   27.6470   45.6220 C   0  0  0  0  0  0  0  0  0  0  0  0
   57.1820   26.4430   46.0570 C   0  0  0  0  0  0  0  0  0  0  0  0
   58.5270   26.1510   45.7980 C   0  0  0  0  0  0  0  0  0  0  0  0
   59.0720   24.9130   46.2780 N   0  0  0  0  0  0  0  0  0  0  0  0
   59.2590   23.7160   45.5080 C   0  0  0  0  0  0  0  0  0  0  0  0
   60.3310   23.0710   45.6470 O   0  0  0  0  0  0  0  0  0  0  0  0
   58.2190   23.1890   44.5990 C   0  0  0  0  0  0  0  0  0  0  0  0
   58.1840   21.8340   44.2260 C   0  0  0  0  0  0  0  0  0  0  0  0
   57.1910   21.3880   43.3520 C   0  0  0  0  0  0  0  0  0  0  0  0
   56.2540   22.2890   42.8450 C   0  0  0  0  0  0  0  0  0  0  0  0
   56.3270   23.6310   43.2200 C   0  0  0  0  0  0  0  0  0  0  0  0
   57.2980   24.0470   44.0750 N   0  0  0  0  0  0  0  0  0  0  0  0
   59.3200   27.0980   45.1270 C   0  0  0  0  0  0  0  0  0  0  0  0
   58.7620   28.3030   44.6920 C   0  0  0  0  0  0  0  0  0  0  0  0
   58.2530   31.0090   46.4000 C   0  0  0  0  0  0  0  0  0  0  0  0
   59.5050   31.8040   46.0000 C   0  0  0  0  0  0  0  0  0  0  0  0
   62.3448   31.4249   48.6217 H   0  0  0  0  0  0  0  0  0  0  0  0
   61.4481   31.3379   47.0676 H   0  0  0  0  0  0  0  0  0  0  0  0
   63.2441   31.3706   47.0676 H   0  0  0  0  0  0  0  0  0  0  0  0
   64.0649   33.9841   48.5706 H   0  0  0  0  0  0  0  0  0  0  0  0
   64.4245   33.1606   47.0152 H   0  0  0  0  0  0  0  0  0  0  0  0
   63.7578   34.8286   47.0152 H   0  0  0  0  0  0  0  0  0  0  0  0
   62.0277   33.4800   49.6380 H   0  0  0  0  0  0  0  0  0  0  0  0
   61.5310   34.9196   48.6853 H   0  0  0  0  0  0  0  0  0  0  0  0
   60.5053   33.4450   48.6853 H   0  0  0  0  0  0  0  0  0  0  0  0
   57.3329   33.8560   46.7410 H   0  0  0  0  0  0  0  0  0  0  0  0
   57.8939   34.6650   45.2351 H   0  0  0  0  0  0  0  0  0  0  0  0
   56.0679   33.0331   44.7903 H   0  0  0  0  0  0  0  0  0  0  0  0
   57.6301   32.5665   43.9878 H   0  0  0  0  0  0  0  0  0  0  0  0
   55.5637   27.8646   45.8235 H   0  0  0  0  0  0  0  0  0  0  0  0
   56.5618   25.7196   46.6065 H   0  0  0  0  0  0  0  0  0  0  0  0
   58.9329   21.1310   44.6196 H   0  0  0  0  0  0  0  0  0  0  0  0
   57.1473   20.3274   43.0634 H   0  0  0  0  0  0  0  0  0  0  0  0
   55.4669   21.9454   42.1577 H   0  0  0  0  0  0  0  0  0  0  0  0
   55.5980   24.3529   42.8232 H   0  0  0  0  0  0  0  0  0  0  0  0
   60.3844   26.8896   44.9436 H   0  0  0  0  0  0  0  0  0  0  0  0
   59.3868   29.0370   44.1620 H   0  0  0  0  0  0  0  0  0  0  0  0
   58.0340   31.2136   47.4584 H   0  0  0  0  0  0  0  0  0  0  0  0
   58.4720   29.9466   46.2174 H   0  0  0  0  0  0  0  0  0  0  0  0
   60.3209   31.5754   46.7015 H   0  0  0  0  0  0  0  0  0  0  0  0
   59.8001   31.5217   44.9786 H   0  0  0  0  0  0  0  0  0  0  0  0
  1  2  1  0
  2  3  1  0
  2  4  1  0
  2  5  1  0
  5  6  1  0
  6  7  2  0
  6  8  1  0
  8  9  1  0
  9 10  1  0
 10 11  1  0
 11 12  1  0
 12 13  2  0
 12 14  2  0
 12 15  1  0
 15 16  2  0
 16 17  1  0
 17 18  2  0
 18 19  1  0
 19 20  1  0
 20 21  2  0
 20 22  1  0
 22 23  2  0
 23 24  1  0
 24 25  2  0
 25 26  1  0
 26 27  2  0
 18 28  1  0
 28 29  2  0
 11 30  1  0
 30 31  1  0
 31  8  1  0
 29 15  1  0
 27 22  1  0
  1 32  1  0
  1 33  1  0
  1 34  1  0
  3 35  1  0
  3 36  1  0
  3 37  1  0
  4 38  1  0
  4 39  1  0
  4 40  1  0
  9 41  1  0
  9 42  1  0
 10 43  1  0
 10 44  1  0
 16 45  1  0
 17 46  1  0
 23 47  1  0
 24 48  1  0
 25 49  1  0
 26 50  1  0
 28 51  1  0
 29 52  1  0
 30 53  1  0
 30 54  1  0
 31 55  1  0
 31 56  1  0
M  CHG  1  19  -1
M  END
>  <UniqueID>  (72) 
69

>  <SMILES>  (72) 
CC(C)(C)OC(=O)N1CCN(S(=O)(=O)c2ccc([N-]C(=O)c3ccccn3)cc2)CC1

>  <Energy>  (72) 
64.05853728812593

>  <Genealogy>  (72) 
CC(C)(C)OC(=O)N1CCN(S(=O)(=O)c2ccc([N-]C(=O)c3ccccn3)cc2)CC1 (protonated)
CC(C)(C)OC(=O)N1CCN(S(=O)(=O)c2ccc([N-]C(=O)c3ccccn3)cc2)CC1 (3D coordinates assigned)
CC(C)(C)OC(=O)N1CCN(S(=O)(=O)c2ccc([N-]C(=O)c3ccccn3)cc2)CC1 (nonaromatic ring conformer: 64.05853728812593 kcal/mol)

>  <smiles>  (72) 
CC(C)(C)OC(=O)N1CCN(S(=O)(=O)c2ccc(NC(=O)c3ccccn3)cc2)CC1

>  <score_type>  (72) 
oracle

>  <origin>  (72) 
adg

>  <m_score__min__energy>  (72) 
-10.83

>  <m_primary>  (72) 
energy

$$$$
72:0
     RDKit          3D

 77 82  0  0  0  0  0  0  0  0999 V2000
   57.6150   30.1990   51.0690 O   0  0  0  0  0  0  0  0  0  0  0  0
   58.8200   30.4950   50.8280 C   0  0  0  0  0  0  0  0  0  0  0  0
   59.4490   30.0690   49.5160 C   0  0  1  0  0  0  0  0  0  0  0  0
   58.5240   29.2270   48.6260 C   0  0  0  0  0  0  0  0  0  0  0  0
   59.2050   28.9050   47.3130 C   0  0  0  0  0  0  0  0  0  0  0  0
   58.7400   27.8230   46.5480 C   0  0  0  0  0  0  0  0  0  0  0  0
   59.3650   27.4890   45.3440 C   0  0  0  0  0  0  0  0  0  0  0  0
   60.4490   28.2380   44.8850 C   0  0  0  0  0  0  0  0  0  0  0  0
   60.8930   29.3470   45.6100 C   0  0  0  0  0  0  0  0  0  0  0  0
   60.2720   29.7020   46.8170 C   0  0  0  0  0  0  0  0  0  0  0  0
   60.8240   30.8680   47.6120 C   0  0  0  0  0  0  0  0  0  0  0  0
   59.9310   31.2120   48.7250 N   0  0  0  0  0  0  0  0  0  0  0  0
   59.2190   32.4650   48.6880 C   0  0  0  0  0  0  0  0  0  0  0  0
   58.9300   33.0460   49.7710 O   0  0  0  0  0  0  0  0  0  0  0  0
   58.8610   33.1110   47.4000 C   0  0  0  0  0  0  0  0  0  0  0  0
   57.8320   32.5680   46.6100 C   0  0  0  0  0  0  0  0  0  0  0  0
   57.5500   33.0990   45.3480 C   0  0  0  0  0  0  0  0  0  0  0  0
   58.2930   34.1740   44.8590 C   0  0  0  0  0  0  0  0  0  0  0  0
   59.3100   34.7300   45.6360 C   0  0  0  0  0  0  0  0  0  0  0  0
   59.5870   34.2210   46.9090 C   0  0  0  0  0  0  0  0  0  0  0  0
   60.5880   34.8310   47.6710 O   0  0  0  0  0  0  0  0  0  0  0  0
   61.6930   34.1400   48.1880 C   0  0  0  0  0  0  0  0  0  0  0  0
   61.8960   34.1310   49.5720 C   0  0  0  0  0  0  0  0  0  0  0  0
   62.9760   33.4360   50.1240 C   0  0  0  0  0  0  0  0  0  0  0  0
   63.8660   32.7290   49.2970 C   0  0  0  0  0  0  0  0  0  0  0  0
   64.9740   31.9060   49.9080 C   0  0  0  0  0  0  0  0  0  0  0  0
   66.0640   32.7630   50.5120 C   0  0  0  0  0  0  0  0  0  0  0  0
   66.7940   33.4060   49.7680 O   0  0  0  0  0  0  0  0  0  0  0  0
   66.2040   32.8710   51.9580 N   0  0  0  0  0  0  0  0  0  0  0  0
   67.0040   34.0540   52.3320 C   0  0  0  0  0  0  0  0  0  0  0  0
   66.2160   35.3770   52.1730 C   0  0  0  0  0  0  0  0  0  0  0  0
   64.8190   35.1870   52.0290 O   0  0  0  0  0  0  0  0  0  0  0  0
   64.3590   34.2510   52.9770 C   0  0  0  0  0  0  0  0  0  0  0  0
   64.8890   32.8420   52.6470 C   0  0  0  0  0  0  0  0  0  0  0  0
   63.6500   32.7240   47.9090 C   0  0  0  0  0  0  0  0  0  0  0  0
   62.5830   33.4360   47.3550 C   0  0  0  0  0  0  0  0  0  0  0  0
   59.5660   31.2600   51.7900 N   0  0  0  0  0  0  0  0  0  0  0  0
   58.9840   31.7610   53.0220 C   0  0  0  0  0  0  0  0  0  0  0  0
   60.1540   32.2830   53.8450 C   0  0  0  0  0  0  0  0  0  0  0  0
   61.3110   32.4550   52.8650 C   0  0  0  0  0  0  0  0  0  0  0  0
   60.9830   31.5660   51.6740 C   0  0  0  0  0  0  0  0  0  0  0  0
   60.2980   29.4420   49.8261 H   0  0  0  0  0  0  0  0  0  0  0  0
   58.2762   28.2895   49.1453 H   0  0  0  0  0  0  0  0  0  0  0  0
   57.6072   29.7995   48.4216 H   0  0  0  0  0  0  0  0  0  0  0  0
   57.8789   27.2352   46.8987 H   0  0  0  0  0  0  0  0  0  0  0  0
   59.0015   26.6332   44.7563 H   0  0  0  0  0  0  0  0  0  0  0  0
   60.9552   27.9549   43.9503 H   0  0  0  0  0  0  0  0  0  0  0  0
   61.7349   29.9456   45.2319 H   0  0  0  0  0  0  0  0  0  0  0  0
   61.8112   30.5952   48.0133 H   0  0  0  0  0  0  0  0  0  0  0  0
   60.9077   31.7395   46.9460 H   0  0  0  0  0  0  0  0  0  0  0  0
   57.2443   31.7186   46.9882 H   0  0  0  0  0  0  0  0  0  0  0  0
   56.7410   32.6686   44.7395 H   0  0  0  0  0  0  0  0  0  0  0  0
   58.0771   34.5832   43.8610 H   0  0  0  0  0  0  0  0  0  0  0  0
   59.8975   35.5738   45.2450 H   0  0  0  0  0  0  0  0  0  0  0  0
   61.2016   34.6741   50.2299 H   0  0  0  0  0  0  0  0  0  0  0  0
   63.1304   33.4424   51.2131 H   0  0  0  0  0  0  0  0  0  0  0  0
   64.5471   31.2696   50.6972 H   0  0  0  0  0  0  0  0  0  0  0  0
   65.4264   31.3049   49.1055 H   0  0  0  0  0  0  0  0  0  0  0  0
   66.7370   32.0340   52.2910 H   0  0  0  0  0  0  0  0  0  0  0  0
   67.3143   33.9523   53.3824 H   0  0  0  0  0  0  0  0  0  0  0  0
   67.8711   34.0982   51.6566 H   0  0  0  0  0  0  0  0  0  0  0  0
   66.3934   35.9975   53.0638 H   0  0  0  0  0  0  0  0  0  0  0  0
   66.5745   35.8594   51.2517 H   0  0  0  0  0  0  0  0  0  0  0  0
   64.7116   34.5453   53.9765 H   0  0  0  0  0  0  0  0  0  0  0  0
   63.2594   34.2317   52.9527 H   0  0  0  0  0  0  0  0  0  0  0  0
   64.9956   32.2775   53.5851 H   0  0  0  0  0  0  0  0  0  0  0  0
   64.1676   32.3668   51.9660 H   0  0  0  0  0  0  0  0  0  0  0  0
   64.3259   32.1553   47.2534 H   0  0  0  0  0  0  0  0  0  0  0  0
   62.4380   33.4464   46.2646 H   0  0  0  0  0  0  0  0  0  0  0  0
   58.2725   32.5723   52.8084 H   0  0  0  0  0  0  0  0  0  0  0  0
   58.4273   30.9776   53.5572 H   0  0  0  0  0  0  0  0  0  0  0  0
   59.8969   33.2478   54.3065 H   0  0  0  0  0  0  0  0  0  0  0  0
   60.4146   31.5919   54.6601 H   0  0  0  0  0  0  0  0  0  0  0  0
   61.3913   33.5053   52.5481 H   0  0  0  0  0  0  0  0  0  0  0  0
   62.2727   32.1795   53.3225 H   0  0  0  0  0  0  0  0  0  0  0  0
   61.1849   32.0969   50.7320 H   0  0  0  0  0  0  0  0  0  0  0  0
   61.5964   30.6529   51.6677 H   0  0  0  0  0  0  0  0  0  0  0  0
  1  2  2  0
  2  3  1  0
  3  4  1  0
  4  5  1  0
  5  6  2  0
  6  7  1  0
  7  8  2  0
  8  9  1  0
  9 10  2  0
 10 11  1  0
 11 12  1  0
 12 13  1  0
 13 14  2  0
 13 15  1  0
 15 16  2  0
 16 17  1  0
 17 18  2  0
 18 19  1  0
 19 20  2  0
 20 21  1  0
 21 22  1  0
 22 23  2  0
 23 24  1  0
 24 25  2  0
 25 26  1  0
 26 27  1  0
 27 28  2  0
 27 29  1  0
 29 30  1  0
 30 31  1  0
 31 32  1  0
 32 33  1  0
 33 34  1  0
 25 35  1  0
 35 36  2  0
  2 37  1  0
 37 38  1  0
 38 39  1  0
 39 40  1  0
 40 41  1  0
 12  3  1  0
 20 15  1  0
 36 22  1  0
 41 37  1  0
 10  5  1  0
 34 29  1  0
  3 42  1  1
  4 43  1  0
  4 44  1  0
  6 45  1  0
  7 46  1  0
  8 47  1  0
  9 48  1  0
 11 49  1  0
 11 50  1  0
 16 51  1  0
 17 52  1  0
 18 53  1  0
 19 54  1  0
 23 55  1  0
 24 56  1  0
 26 57  1  0
 26 58  1  0
 29 59  1  0
 30 60  1  0
 30 61  1  0
 31 62  1  0
 31 63  1  0
 33 64  1  0
 33 65  1  0
 34 66  1  0
 34 67  1  0
 35 68  1  0
 36 69  1  0
 38 70  1  0
 38 71  1  0
 39 72  1  0
 39 73  1  0
 40 74  1  0
 40 75  1  0
 41 76  1  0
 41 77  1  0
M  CHG  1  29   1
M  END
>  <UniqueID>  (73) 
70

>  <SMILES>  (73) 
O=C([C@H]1Cc2ccccc2CN1C(=O)c1ccccc1Oc1ccc(CC(=O)[NH+]2CCOCC2)cc1)N1CCCC1

>  <Energy>  (73) 
108.95389114728134

>  <Genealogy>  (73) 
O=C(C1Cc2ccccc2CN1C(=O)c1ccccc1Oc1ccc(CC(=O)[NH+]2CCOCC2)cc1)N1CCCC1 (protonated)
O=C([C@H]1Cc2ccccc2CN1C(=O)c1ccccc1Oc1ccc(CC(=O)[NH+]2CCOCC2)cc1)N1CCCC1 (chirality)
O=C([C@H]1Cc2ccccc2CN1C(=O)c1ccccc1Oc1ccc(CC(=O)[NH+]2CCOCC2)cc1)N1CCCC1 (3D coordinates assigned)
O=C([C@H]1Cc2ccccc2CN1C(=O)c1ccccc1Oc1ccc(CC(=O)[NH+]2CCOCC2)cc1)N1CCCC1 (nonaromatic ring conformer: 108.95389114728134 kcal/mol)

>  <smiles>  (73) 
O=C(Cc1ccc(Oc2ccccc2C(=O)N2Cc3ccccc3CC2C(=O)N2CCCC2)cc1)N1CCOCC1

>  <score_type>  (73) 
oracle

>  <origin>  (73) 
adg

>  <m_score__min__energy>  (73) 
-9.1600000000000001

>  <m_primary>  (73) 
energy

$$$$
73:0
     RDKit          3D

 56 58  0  0  0  0  0  0  0  0999 V2000
   49.9960   28.8850   53.5510 C   0  0  0  0  0  0  0  0  0  0  0  0
   50.2840   29.9610   52.8180 C   0  0  0  0  0  0  0  0  0  0  0  0
   51.6670   30.4270   52.5590 C   0  0  0  0  0  0  0  0  0  0  0  0
   52.7240   29.7330   53.1750 C   0  0  0  0  0  0  0  0  0  0  0  0
   54.0460   30.1380   52.9900 C   0  0  0  0  0  0  0  0  0  0  0  0
   54.3370   31.2670   52.2100 C   0  0  0  0  0  0  0  0  0  0  0  0
   55.7040   31.6700   52.0340 N   0  0  0  0  0  0  0  0  0  0  0  0
   56.7990   30.7440   51.9490 C   0  0  0  0  0  0  0  0  0  0  0  0
   56.6000   29.5100   52.0620 O   0  0  0  0  0  0  0  0  0  0  0  0
   58.2030   31.2450   51.7190 C   0  0  0  0  0  0  0  0  0  0  0  0
   58.4110   31.8430   50.3810 N   0  0  0  0  0  0  0  0  0  0  0  0
   58.5640   30.8280   49.3290 C   0  0  0  0  0  0  0  0  0  0  0  0
   58.7400   31.4660   47.9330 C   0  0  0  0  0  0  0  0  0  0  0  0
   58.8170   32.9420   47.9600 N   0  0  0  0  0  0  0  0  0  0  0  0
   58.4590   33.7140   46.7890 C   0  0  0  0  0  0  0  0  0  0  0  0
   58.5260   34.9760   46.8300 O   0  0  0  0  0  0  0  0  0  0  0  0
   58.0460   33.0610   45.5230 C   0  0  0  0  0  0  0  0  0  0  0  0
   58.6230   31.9650   45.0040 C   0  0  0  0  0  0  0  0  0  0  0  0
   58.1280   30.5760   45.1650 C   0  0  0  0  0  0  0  0  0  0  0  0
   58.9630   29.5380   45.6160 C   0  0  0  0  0  0  0  0  0  0  0  0
   58.4720   28.2360   45.7370 C   0  0  0  0  0  0  0  0  0  0  0  0
   57.1460   27.9360   45.3800 C   0  0  0  0  0  0  0  0  0  0  0  0
   56.6310   26.5510   45.4930 C   0  0  0  0  0  0  0  0  0  0  0  0
   55.3220   26.3060   46.0080 N   0  0  0  0  0  0  0  0  0  0  0  0
   57.3340   25.5770   45.1160 O   0  0  0  0  0  0  0  0  0  0  0  0
   56.3260   28.9680   44.8910 C   0  0  0  0  0  0  0  0  0  0  0  0
   56.8160   30.2710   44.7750 C   0  0  0  0  0  0  0  0  0  0  0  0
   59.4010   33.6600   49.1030 C   0  0  0  0  0  0  0  0  0  0  0  0
   59.5430   32.7770   50.3380 C   0  0  0  0  0  0  0  0  0  0  0  0
   53.2870   31.9660   51.5890 C   0  0  0  0  0  0  0  0  0  0  0  0
   51.9600   31.5640   51.7710 C   0  0  0  0  0  0  0  0  0  0  0  0
   50.9460   32.3190   51.1900 O   0  0  0  0  0  0  0  0  0  0  0  0
   48.9478   28.5901   53.7068 H   0  0  0  0  0  0  0  0  0  0  0  0
   50.8066   28.2922   53.9998 H   0  0  0  0  0  0  0  0  0  0  0  0
   49.4513   30.5329   52.3826 H   0  0  0  0  0  0  0  0  0  0  0  0
   52.5058   28.8614   53.8096 H   0  0  0  0  0  0  0  0  0  0  0  0
   54.8636   29.5698   53.4577 H   0  0  0  0  0  0  0  0  0  0  0  0
   55.8910   32.6770   51.8140 H   0  0  0  0  0  0  0  0  0  0  0  0
   58.4281   32.0079   52.4789 H   0  0  0  0  0  0  0  0  0  0  0  0
   58.8702   30.3732   51.7881 H   0  0  0  0  0  0  0  0  0  0  0  0
   59.4487   30.2141   49.5534 H   0  0  0  0  0  0  0  0  0  0  0  0
   57.6502   30.2159   49.3109 H   0  0  0  0  0  0  0  0  0  0  0  0
   59.6682   31.0778   47.4882 H   0  0  0  0  0  0  0  0  0  0  0  0
   57.8497   31.2011   47.3438 H   0  0  0  0  0  0  0  0  0  0  0  0
   57.2065   33.5066   44.9692 H   0  0  0  0  0  0  0  0  0  0  0  0
   59.5380   32.1092   44.4107 H   0  0  0  0  0  0  0  0  0  0  0  0
   60.0102   29.7531   45.8753 H   0  0  0  0  0  0  0  0  0  0  0  0
   59.1287   27.4385   46.1149 H   0  0  0  0  0  0  0  0  0  0  0  0
   54.7640   27.0680   46.4560 H   0  0  0  0  0  0  0  0  0  0  0  0
   55.2892   28.7474   44.5971 H   0  0  0  0  0  0  0  0  0  0  0  0
   56.1675   31.0641   44.3745 H   0  0  0  0  0  0  0  0  0  0  0  0
   60.3972   34.0281   48.8164 H   0  0  0  0  0  0  0  0  0  0  0  0
   58.7222   34.4866   49.3600 H   0  0  0  0  0  0  0  0  0  0  0  0
   60.4861   32.2134   50.2838 H   0  0  0  0  0  0  0  0  0  0  0  0
   59.5504   33.3993   51.2450 H   0  0  0  0  0  0  0  0  0  0  0  0
   53.5112   32.8363   50.9547 H   0  0  0  0  0  0  0  0  0  0  0  0
  1  2  2  0
  2  3  1  0
  3  4  2  0
  4  5  1  0
  5  6  2  0
  6  7  1  0
  7  8  1  0
  8  9  2  0
  8 10  1  0
 10 11  1  0
 11 12  1  0
 12 13  1  0
 13 14  1  0
 14 15  1  0
 15 16  2  0
 15 17  1  0
 17 18  2  3
 18 19  1  0
 19 20  2  0
 20 21  1  0
 21 22  2  0
 22 23  1  0
 23 24  1  0
 23 25  2  0
 22 26  1  0
 26 27  2  0
 14 28  1  0
 28 29  1  0
  6 30  1  0
 30 31  2  0
 31 32  1  0
 31  3  1  0
 29 11  1  0
 27 19  1  0
  1 33  1  0
  1 34  1  0
  2 35  1  0
  4 36  1  0
  5 37  1  0
  7 38  1  0
 10 39  1  0
 10 40  1  0
 12 41  1  0
 12 42  1  0
 13 43  1  0
 13 44  1  0
 17 45  1  0
 18 46  1  0
 20 47  1  0
 21 48  1  0
 24 49  1  0
 26 50  1  0
 27 51  1  0
 28 52  1  0
 28 53  1  0
 29 54  1  0
 29 55  1  0
 30 56  1  0
M  CHG  2  24  -1  32  -1
M  END
>  <UniqueID>  (74) 
71

>  <SMILES>  (74) 
C=Cc1ccc(NC(=O)CN2CCN(C(=O)C=Cc3ccc(C([NH-])=O)cc3)CC2)cc1[O-]

>  <Energy>  (74) 
81.63502945506363

>  <Genealogy>  (74) 
C=Cc1ccc(NC(=O)CN2CCN(C(=O)C=Cc3ccc(C([NH-])=O)cc3)CC2)cc1[O-] (protonated)
C=Cc1ccc(NC(=O)CN2CCN(C(=O)C=Cc3ccc(C([NH-])=O)cc3)CC2)cc1[O-] (3D coordinates assigned)
C=Cc1ccc(NC(=O)CN2CCN(C(=O)C=Cc3ccc(C([NH-])=O)cc3)CC2)cc1[O-] (nonaromatic ring conformer: 81.63502945506363 kcal/mol)

>  <smiles>  (74) 
C=Cc1ccc(NC(=O)CN2CCN(C(=O)C=Cc3ccc(C(N)=O)cc3)CC2)cc1O

>  <score_type>  (74) 
oracle

>  <origin>  (74) 
adg

>  <m_score__min__energy>  (74) 
-16.289999999999999

>  <m_primary>  (74) 
energy

$$$$
74:0
     RDKit          3D

 61 64  0  0  0  0  0  0  0  0999 V2000
   56.6500   30.7590   45.1940 O   0  0  0  0  0  0  0  0  0  0  0  0
   57.4600   30.6570   44.2340 C   0  0  0  0  0  0  0  0  0  0  0  0
   57.7610   31.8600   43.3890 C   0  0  0  0  0  0  0  0  0  0  0  0
   57.4300   33.1720   44.1190 C   0  0  0  0  0  0  0  0  0  0  0  0
   58.6760   33.9560   44.5730 C   0  0  0  0  0  0  0  0  0  0  0  0
   59.1060   33.5530   45.9290 N   0  0  0  0  0  0  0  0  0  0  0  0
   57.9660   33.0460   46.7120 C   0  0  0  0  0  0  0  0  0  0  0  0
   58.4690   32.4870   48.0420 C   0  0  0  0  0  0  0  0  0  0  0  0
   59.3060   33.4690   48.7380 N   0  0  0  0  0  0  0  0  0  0  0  0
   59.6350   33.2590   50.1230 C   0  0  0  0  0  0  0  0  0  0  0  0
   60.8940   33.6500   50.6160 C   0  0  0  0  0  0  0  0  0  0  0  0
   61.2150   33.4620   51.9630 C   0  0  0  0  0  0  0  0  0  0  0  0
   60.2860   32.8810   52.8290 C   0  0  0  0  0  0  0  0  0  0  0  0
   59.0360   32.4840   52.3490 C   0  0  0  0  0  0  0  0  0  0  0  0
   58.7070   32.6700   51.0030 C   0  0  0  0  0  0  0  0  0  0  0  0
   57.5020   32.2410   50.5520 F   0  0  0  0  0  0  0  0  0  0  0  0
   59.5590   34.7760   48.1180 C   0  0  0  0  0  0  0  0  0  0  0  0
   59.8730   34.6300   46.6160 C   0  0  0  0  0  0  0  0  0  0  0  0
   58.1180   29.4120   43.9720 N   0  0  0  0  0  0  0  0  0  0  0  0
   58.0280   28.2770   44.8910 C   0  0  0  0  0  0  0  0  0  0  0  0
   59.4140   27.8630   45.3970 C   0  0  0  0  0  0  0  0  0  0  0  0
   59.7850   28.6410   46.6260 C   0  0  0  0  0  0  0  0  0  0  0  0
   59.1160   28.5130   47.8400 C   0  0  0  0  0  0  0  0  0  0  0  0
   59.7990   29.6130   48.9110 S   0  0  0  0  0  0  0  0  0  0  0  0
   60.9090   30.2110   47.7910 C   0  0  0  0  0  0  0  0  0  0  0  0
   61.9010   31.2820   48.0360 C   0  0  0  0  0  0  0  0  0  0  0  0
   62.7190   31.2670   49.1820 C   0  0  0  0  0  0  0  0  0  0  0  0
   63.6560   32.2840   49.3950 C   0  0  0  0  0  0  0  0  0  0  0  0
   63.7860   33.3240   48.4720 C   0  0  0  0  0  0  0  0  0  0  0  0
   62.9780   33.3520   47.3340 C   0  0  0  0  0  0  0  0  0  0  0  0
   62.0400   32.3380   47.1140 C   0  0  0  0  0  0  0  0  0  0  0  0
   60.7670   29.5830   46.6020 N   0  0  0  0  0  0  0  0  0  0  0  0
   58.8308   31.8558   43.1329 H   0  0  0  0  0  0  0  0  0  0  0  0
   57.1362   31.8062   42.4853 H   0  0  0  0  0  0  0  0  0  0  0  0
   56.8459   33.8102   43.4397 H   0  0  0  0  0  0  0  0  0  0  0  0
   56.8691   32.9038   45.0264 H   0  0  0  0  0  0  0  0  0  0  0  0
   59.4965   33.7636   43.8660 H   0  0  0  0  0  0  0  0  0  0  0  0
   58.4211   35.0258   44.5957 H   0  0  0  0  0  0  0  0  0  0  0  0
   57.2589   33.8666   46.9033 H   0  0  0  0  0  0  0  0  0  0  0  0
   57.4596   32.2490   46.1478 H   0  0  0  0  0  0  0  0  0  0  0  0
   57.6063   32.2348   48.6762 H   0  0  0  0  0  0  0  0  0  0  0  0
   59.0727   31.5897   47.8408 H   0  0  0  0  0  0  0  0  0  0  0  0
   61.6295   34.1062   49.9371 H   0  0  0  0  0  0  0  0  0  0  0  0
   62.2002   33.7719   52.3416 H   0  0  0  0  0  0  0  0  0  0  0  0
   60.5390   32.7360   53.8897 H   0  0  0  0  0  0  0  0  0  0  0  0
   58.3076   32.0233   53.0325 H   0  0  0  0  0  0  0  0  0  0  0  0
   58.6671   35.4086   48.2381 H   0  0  0  0  0  0  0  0  0  0  0  0
   60.4288   35.2332   48.6125 H   0  0  0  0  0  0  0  0  0  0  0  0
   59.6426   35.5854   46.1218 H   0  0  0  0  0  0  0  0  0  0  0  0
   60.9355   34.3547   46.5426 H   0  0  0  0  0  0  0  0  0  0  0  0
   58.7450   29.3460   43.1430 H   0  0  0  0  0  0  0  0  0  0  0  0
   57.4019   28.5596   45.7502 H   0  0  0  0  0  0  0  0  0  0  0  0
   57.5853   27.4264   44.3520 H   0  0  0  0  0  0  0  0  0  0  0  0
   59.4045   26.7898   45.6383 H   0  0  0  0  0  0  0  0  0  0  0  0
   60.1541   28.0710   44.6103 H   0  0  0  0  0  0  0  0  0  0  0  0
   58.2911   27.8188   48.0583 H   0  0  0  0  0  0  0  0  0  0  0  0
   62.6209   30.4515   49.9136 H   0  0  0  0  0  0  0  0  0  0  0  0
   64.2922   32.2644   50.2922 H   0  0  0  0  0  0  0  0  0  0  0  0
   64.5250   34.1209   48.6417 H   0  0  0  0  0  0  0  0  0  0  0  0
   63.0792   34.1730   46.6089 H   0  0  0  0  0  0  0  0  0  0  0  0
   61.4066   32.3653   46.2150 H   0  0  0  0  0  0  0  0  0  0  0  0
  1  2  2  0
  2  3  1  0
  3  4  1  0
  4  5  1  0
  5  6  1  0
  6  7  1  0
  7  8  1  0
  8  9  1  0
  9 10  1  0
 10 11  2  0
 11 12  1  0
 12 13  2  0
 13 14  1  0
 14 15  2  0
 15 16  1  0
  9 17  1  0
 17 18  1  0
  2 19  1  0
 19 20  1  0
 20 21  1  0
 21 22  1  0
 22 23  2  0
 23 24  1  0
 24 25  1  0
 25 26  1  0
 26 27  2  0
 27 28  1  0
 28 29  2  0
 29 30  1  0
 30 31  2  0
 25 32  2  0
 18  6  1  0
 32 22  1  0
 15 10  1  0
 31 26  1  0
  3 33  1  0
  3 34  1  0
  4 35  1  0
  4 36  1  0
  5 37  1  0
  5 38  1  0
  7 39  1  0
  7 40  1  0
  8 41  1  0
  8 42  1  0
 11 43  1  0
 12 44  1  0
 13 45  1  0
 14 46  1  0
 17 47  1  0
 17 48  1  0
 18 49  1  0
 18 50  1  0
 19 51  1  0
 20 52  1  0
 20 53  1  0
 21 54  1  0
 21 55  1  0
 23 56  1  0
 27 57  1  0
 28 58  1  0
 29 59  1  0
 30 60  1  0
 31 61  1  0
M  END
>  <UniqueID>  (75) 
72

>  <SMILES>  (75) 
O=C(CCCN1CCN(c2ccccc2F)CC1)NCCc1csc(-c2ccccc2)n1

>  <Energy>  (75) 
94.63999890622439

>  <Genealogy>  (75) 
O=C(CCCN1CCN(c2ccccc2F)CC1)NCCc1csc(-c2ccccc2)n1 (3D coordinates assigned)
O=C(CCCN1CCN(c2ccccc2F)CC1)NCCc1csc(-c2ccccc2)n1 (nonaromatic ring conformer: 94.63999890622439 kcal/mol)

>  <smiles>  (75) 
O=C(CCCN1CCN(c2ccccc2F)CC1)NCCc1csc(-c2ccccc2)n1

>  <score_type>  (75) 
oracle

>  <origin>  (75) 
adg

>  <m_score__min__energy>  (75) 
-8.8000000000000007

>  <m_primary>  (75) 
energy

$$$$
75:0
     RDKit          3D

 60 63  0  0  0  0  0  0  0  0999 V2000
   59.2186   28.8115   45.0734 H   0  0  0  0  0  0  0  0  0  0  0  0
   58.7120   29.7870   45.1150 C   0  0  0  0  0  0  0  0  0  0  0  0
   59.3950   31.2350   45.6300 S   0  0  0  0  0  0  0  0  0  0  0  0
   57.9750   32.1170   45.3730 C   0  0  0  0  0  0  0  0  0  0  0  0
   57.8270   33.3980   45.5340 N   0  0  0  0  0  0  0  0  0  0  0  0
   58.8910   34.3490   45.6810 C   0  0  0  0  0  0  0  0  0  0  0  0
   58.9220   35.3460   44.9120 O   0  0  0  0  0  0  0  0  0  0  0  0
   59.8980   34.2340   46.7620 C   0  0  0  0  0  0  0  0  0  0  0  0
   61.2320   33.9150   46.4540 C   0  0  0  0  0  0  0  0  0  0  0  0
   61.5255   33.7393   45.4085 H   0  0  0  0  0  0  0  0  0  0  0  0
   62.1880   33.8200   47.4710 C   0  0  0  0  0  0  0  0  0  0  0  0
   63.2261   33.5512   47.2258 H   0  0  0  0  0  0  0  0  0  0  0  0
   61.8260   34.0660   48.7970 C   0  0  0  0  0  0  0  0  0  0  0  0
   62.7540   33.9810   49.7810 F   0  0  0  0  0  0  0  0  0  0  0  0
   60.5030   34.3910   49.1130 C   0  0  0  0  0  0  0  0  0  0  0  0
   60.2184   34.5792   50.1587 H   0  0  0  0  0  0  0  0  0  0  0  0
   59.5420   34.4770   48.1020 C   0  0  0  0  0  0  0  0  0  0  0  0
   58.5031   34.7357   48.3544 H   0  0  0  0  0  0  0  0  0  0  0  0
   56.9890   31.3360   44.8860 N   0  0  0  0  0  0  0  0  0  0  0  0
   57.3900   30.0410   44.7500 C   0  0  0  0  0  0  0  0  0  0  0  0
   56.4840   28.9870   44.1770 C   0  0  0  0  0  0  0  0  0  0  0  0
   57.0781   28.2917   43.5657 H   0  0  0  0  0  0  0  0  0  0  0  0
   55.7169   29.4745   43.5574 H   0  0  0  0  0  0  0  0  0  0  0  0
   55.8240   28.2420   45.2510 N   0  0  0  0  0  0  0  0  0  0  0  0
   56.2770   27.0070   45.8260 C   0  0  0  0  0  0  0  0  0  0  0  0
   55.4460   26.0710   45.9830 O   0  0  0  0  0  0  0  0  0  0  0  0
   57.6730   26.8030   46.2600 C   0  0  0  0  0  0  0  0  0  0  0  0
   58.5030   25.9150   45.5590 C   0  0  0  0  0  0  0  0  0  0  0  0
   58.1209   25.3931   44.6693 H   0  0  0  0  0  0  0  0  0  0  0  0
   59.8150   25.6920   45.9890 C   0  0  0  0  0  0  0  0  0  0  0  0
   60.4599   24.9930   45.4362 H   0  0  0  0  0  0  0  0  0  0  0  0
   60.3130   26.3530   47.1190 C   0  0  0  0  0  0  0  0  0  0  0  0
   61.3414   26.1600   47.4584 H   0  0  0  0  0  0  0  0  0  0  0  0
   59.5010   27.2640   47.8220 C   0  0  0  0  0  0  0  0  0  0  0  0
   59.9720   27.9970   49.0620 C   0  0  0  0  0  0  0  0  0  0  0  0
   60.9899   28.3744   48.8844 H   0  0  0  0  0  0  0  0  0  0  0  0
   59.9470   27.2871   49.9019 H   0  0  0  0  0  0  0  0  0  0  0  0
   59.0930   29.1410   49.4090 N   0  0  0  0  0  0  0  0  0  0  0  0
   59.1520   29.5130   50.8460 C   0  0  0  0  0  0  0  0  0  0  0  0
   59.7421   28.7524   51.3781 H   0  0  0  0  0  0  0  0  0  0  0  0
   58.1147   29.5667   51.2081 H   0  0  0  0  0  0  0  0  0  0  0  0
   59.7920   30.8930   51.1010 C   0  0  0  0  0  0  0  0  0  0  0  0
   60.1450   30.9292   52.1422 H   0  0  0  0  0  0  0  0  0  0  0  0
   59.0239   31.6550   50.9025 H   0  0  0  0  0  0  0  0  0  0  0  0
   60.9380   31.1720   50.2030 N   0  0  0  0  0  0  0  0  0  0  0  0
   62.1910   30.5010   50.6380 C   0  0  0  0  0  0  0  0  0  0  0  0
   62.2093   29.4753   50.2409 H   0  0  0  0  0  0  0  0  0  0  0  0
   62.2218   30.4820   51.7374 H   0  0  0  0  0  0  0  0  0  0  0  0
   63.4110   31.2620   50.1220 C   0  0  0  0  0  0  0  0  0  0  0  0
   64.0010   31.6300   50.9743 H   0  0  0  0  0  0  0  0  0  0  0  0
   64.0306   30.5899   49.5101 H   0  0  0  0  0  0  0  0  0  0  0  0
   63.0799   32.1140   49.5101 H   0  0  0  0  0  0  0  0  0  0  0  0
   60.6250   30.9860   48.7630 C   0  0  0  0  0  0  0  0  0  0  0  0
   61.4192   30.3740   48.3105 H   0  0  0  0  0  0  0  0  0  0  0  0
   60.5627   31.9882   48.3139 H   0  0  0  0  0  0  0  0  0  0  0  0
   59.2750   30.2940   48.5120 C   0  0  0  0  0  0  0  0  0  0  0  0
   59.2384   29.9465   47.4690 H   0  0  0  0  0  0  0  0  0  0  0  0
   58.4706   31.0182   48.7080 H   0  0  0  0  0  0  0  0  0  0  0  0
   58.1900   27.5010   47.3660 C   0  0  0  0  0  0  0  0  0  0  0  0
   57.5618   28.2421   47.8818 H   0  0  0  0  0  0  0  0  0  0  0  0
  1  2  1  0
  2  3  1  0
  3  4  1  0
  4  5  2  0
  5  6  1  0
  6  7  2  0
  6  8  1  0
  8  9  2  0
  9 10  1  0
  9 11  1  0
 11 12  1  0
 11 13  2  0
 13 14  1  0
 13 15  1  0
 15 16  1  0
 15 17  2  0
 17 18  1  0
  4 19  1  0
 19 20  1  0
 20 21  1  0
 21 22  1  0
 21 23  1  0
 21 24  1  0
 24 25  1  0
 25 26  2  0
 25 27  1  0
 27 28  2  0
 28 29  1  0
 28 30  1  0
 30 31  1  0
 30 32  2  0
 32 33  1  0
 32 34  1  0
 34 35  1  0
 35 36  1  0
 35 37  1  0
 35 38  1  0
 38 39  1  0
 39 40  1  0
 39 41  1  0
 39 42  1  0
 42 43  1  0
 42 44  1  0
 42 45  1  0
 45 46  1  0
 46 47  1  0
 46 48  1  0
 46 49  1  0
 49 50  1  0
 49 51  1  0
 49 52  1  0
 45 53  1  0
 53 54  1  0
 53 55  1  0
 53 56  1  0
 56 57  1  0
 56 58  1  0
 34 59  2  0
 59 60  1  0
 20  2  2  0
 59 27  1  0
 17  8  1  0
 56 38  1  0
M  CHG  2  19  -1  24  -1
M  END
>  <UniqueID>  (76) 
73

>  <SMILES>  (76) 
CCN1CCN(Cc2cccc(C(=O)[N-]Cc3cs/c(=N\C(=O)c4ccc(F)cc4)[n-]3)c2)CC1

>  <Energy>  (76) 
122.15085418886717

>  <Genealogy>  (76) 
CCN1CCN(Cc2cccc(C(=O)[N-]Cc3csc(=NC(=O)c4ccc(F)cc4)[n-]3)c2)CC1 (protonated)
CCN1CCN(Cc2cccc(C(=O)[N-]Cc3cs/c(=N\C(=O)c4ccc(F)cc4)[n-]3)c2)CC1 (cis-trans isomerization)
CCN1CCN(Cc2cccc(C(=O)[N-]Cc3cs/c(=N\C(=O)c4ccc(F)cc4)[n-]3)c2)CC1 (3D coordinates assigned)
CCN1CCN(Cc2cccc(C(=O)[N-]Cc3cs/c(=N\C(=O)c4ccc(F)cc4)[n-]3)c2)CC1 (nonaromatic ring conformer: 122.15085418886717 kcal/mol)

>  <smiles>  (76) 
CCN1CCN(Cc2cccc(C(=O)NCc3csc(=NC(=O)c4ccc(F)cc4)[nH]3)c2)CC1

>  <score_type>  (76) 
oracle

>  <origin>  (76) 
adg

>  <m_score__min__energy>  (76) 
-12.800000000000001

>  <m_primary>  (76) 
energy

$$$$
76:0
     RDKit          3D

 50 52  0  0  0  0  0  0  0  0999 V2000
   55.1550   29.3120   44.8760 N   0  0  0  0  0  0  0  0  0  0  0  0
   56.3880   29.7800   44.3350 C   0  0  0  0  0  0  0  0  0  0  0  0
   56.3980   30.3450   43.2080 O   0  0  0  0  0  0  0  0  0  0  0  0
   57.6520   29.5500   45.0650 C   0  0  0  0  0  0  0  0  0  0  0  0
   58.7040   30.4480   44.8190 C   0  0  0  0  0  0  0  0  0  0  0  0
   59.8050   30.4610   45.6120 N   0  0  0  0  0  0  0  0  0  0  0  0
   59.9380   29.6170   46.6690 C   0  0  0  0  0  0  0  0  0  0  0  0
   61.0730   29.6630   47.4820 O   0  0  0  0  0  0  0  0  0  0  0  0
   61.7510   30.8770   47.7930 C   0  0  0  0  0  0  0  0  0  0  0  0
   61.2960   31.3900   49.1530 C   0  0  0  0  0  0  0  0  0  0  0  0
   62.2740   32.3410   49.6740 N   0  0  0  0  0  0  0  0  0  0  0  0
   62.3880   33.7100   48.6110 S   0  0  0  0  0  0  0  0  0  0  0  0
   63.5590   33.5240   47.6870 O   0  0  0  0  0  0  0  0  0  0  0  0
   62.6090   34.9590   49.4180 O   0  0  0  0  0  0  0  0  0  0  0  0
   60.9160   33.8550   47.6480 C   0  0  0  0  0  0  0  0  0  0  0  0
   60.9790   33.8310   46.2450 C   0  0  0  0  0  0  0  0  0  0  0  0
   59.8120   33.9640   45.4870 C   0  0  0  0  0  0  0  0  0  0  0  0
   58.5780   34.1240   46.1230 C   0  0  0  0  0  0  0  0  0  0  0  0
   58.5090   34.1540   47.5180 C   0  0  0  0  0  0  0  0  0  0  0  0
   59.6730   34.0230   48.2820 C   0  0  0  0  0  0  0  0  0  0  0  0
   59.5890   34.0630   49.6350 F   0  0  0  0  0  0  0  0  0  0  0  0
   58.9370   28.6860   46.9410 C   0  0  0  0  0  0  0  0  0  0  0  0
   57.8080   28.5940   46.1150 C   0  0  0  0  0  0  0  0  0  0  0  0
   56.9850   27.6050   46.3480 N   0  0  0  0  0  0  0  0  0  0  0  0
   56.8280   26.3650   45.6450 C   0  0  0  0  0  0  0  0  0  0  0  0
   55.7600   25.5200   45.9730 C   0  0  0  0  0  0  0  0  0  0  0  0
   55.6160   24.2860   45.3330 C   0  0  0  0  0  0  0  0  0  0  0  0
   56.5580   23.8700   44.3820 C   0  0  0  0  0  0  0  0  0  0  0  0
   56.3680   22.3260   43.5580 S   0  0  0  0  0  0  0  0  0  0  0  0
   55.5570   21.2120   44.5990 N   0  0  0  0  0  0  0  0  0  0  0  0
   57.7160   21.7720   43.1890 O   0  0  0  0  0  0  0  0  0  0  0  0
   55.5650   22.5170   42.3010 O   0  0  0  0  0  0  0  0  0  0  0  0
   57.6470   24.6980   44.0790 C   0  0  0  0  0  0  0  0  0  0  0  0
   57.7910   25.9320   44.7190 C   0  0  0  0  0  0  0  0  0  0  0  0
   55.1420   28.6230   45.6600 H   0  0  0  0  0  0  0  0  0  0  0  0
   58.6344   31.1486   43.9738 H   0  0  0  0  0  0  0  0  0  0  0  0
   62.8354   30.6937   47.8163 H   0  0  0  0  0  0  0  0  0  0  0  0
   61.5179   31.6294   47.0252 H   0  0  0  0  0  0  0  0  0  0  0  0
   60.3213   31.8889   49.0480 H   0  0  0  0  0  0  0  0  0  0  0  0
   61.2052   30.5433   49.8494 H   0  0  0  0  0  0  0  0  0  0  0  0
   61.9491   33.7072   45.7414 H   0  0  0  0  0  0  0  0  0  0  0  0
   59.8651   33.9427   44.3885 H   0  0  0  0  0  0  0  0  0  0  0  0
   57.6605   34.2264   45.5249 H   0  0  0  0  0  0  0  0  0  0  0  0
   57.5368   34.2810   48.0167 H   0  0  0  0  0  0  0  0  0  0  0  0
   59.0336   28.0186   47.8101 H   0  0  0  0  0  0  0  0  0  0  0  0
   55.0318   25.8290   46.7374 H   0  0  0  0  0  0  0  0  0  0  0  0
   54.7604   23.6389   45.5764 H   0  0  0  0  0  0  0  0  0  0  0  0
   54.5850   21.5710   44.7310 H   0  0  0  0  0  0  0  0  0  0  0  0
   58.3907   24.3758   43.3353 H   0  0  0  0  0  0  0  0  0  0  0  0
   58.6617   26.5664   44.4967 H   0  0  0  0  0  0  0  0  0  0  0  0
  1  2  1  0
  2  3  2  0
  2  4  1  0
  4  5  2  0
  5  6  1  0
  6  7  1  0
  7  8  1  0
  8  9  1  0
  9 10  1  0
 10 11  1  0
 11 12  1  0
 12 13  2  0
 12 14  2  0
 12 15  1  0
 15 16  2  0
 16 17  1  0
 17 18  2  0
 18 19  1  0
 19 20  2  0
 20 21  1  0
  7 22  2  0
 22 23  1  0
 23 24  2  3
 24 25  1  0
 25 26  2  0
 26 27  1  0
 27 28  2  0
 28 29  1  0
 29 30  1  0
 29 31  2  0
 29 32  2  0
 28 33  1  0
 33 34  2  0
 23  4  1  0
 34 25  1  0
 20 15  1  0
  1 35  1  0
  5 36  1  0
  9 37  1  0
  9 38  1  0
 10 39  1  0
 10 40  1  0
 16 41  1  0
 17 42  1  0
 18 43  1  0
 19 44  1  0
 22 45  1  0
 26 46  1  0
 27 47  1  0
 30 48  1  0
 33 49  1  0
 34 50  1  0
M  CHG  4   1  -1   6  -1  11  -1  30  -1
M  END
>  <UniqueID>  (77) 
74

>  <SMILES>  (77) 
[NH-]C(=O)c1c[n-]c(OCC[N-]S(=O)(=O)c2ccccc2F)cc1=Nc1ccc(S([NH-])(=O)=O)cc1

>  <Energy>  (77) 
67.822363459119

>  <Genealogy>  (77) 
[NH-]C(=O)c1c[n-]c(OCC[N-]S(=O)(=O)c2ccccc2F)cc1=Nc1ccc(S([NH-])(=O)=O)cc1 (protonated)
[NH-]C(=O)c1c[n-]c(OCC[N-]S(=O)(=O)c2ccccc2F)cc1=Nc1ccc(S([NH-])(=O)=O)cc1 (3D coordinates assigned)
[NH-]C(=O)c1c[n-]c(OCC[N-]S(=O)(=O)c2ccccc2F)cc1=Nc1ccc(S([NH-])(=O)=O)cc1 (optimized conformer: 67.822363459119 kcal/mol)

>  <smiles>  (77) 
NC(=O)c1c[nH]c(OCCNS(=O)(=O)c2ccccc2F)cc1=Nc1ccc(S(N)(=O)=O)cc1

>  <score_type>  (77) 
oracle

>  <origin>  (77) 
adg

>  <m_score__min__energy>  (77) 
-14.800000000000001

>  <m_primary>  (77) 
energy

$$$$
77:0
     RDKit          3D

 52 55  0  0  0  0  0  0  0  0999 V2000
   59.5690   28.6330   48.1030 C   0  0  0  0  0  0  0  0  0  0  0  0
   59.2700   29.1460   46.9090 C   0  0  0  0  0  0  0  0  0  0  0  0
   59.7550   28.2920   45.4170 S   0  0  0  0  0  0  0  0  0  0  0  0
   58.0390   27.9120   45.0220 C   0  0  0  0  0  0  0  0  0  0  0  0
   57.6400   26.6710   44.6900 C   0  0  0  0  0  0  0  0  0  0  0  0
   57.0670   25.7020   45.6390 C   0  0  0  0  0  0  0  0  0  0  0  0
   57.6880   24.5640   45.9960 N   0  0  0  0  0  0  0  0  0  0  0  0
   56.7870   23.9510   46.7930 C   0  0  0  0  0  0  0  0  0  0  0  0
   57.0130   22.8420   47.3430 O   0  0  0  0  0  0  0  0  0  0  0  0
   55.6220   24.6150   46.9470 N   0  0  0  0  0  0  0  0  0  0  0  0
   55.8100   25.7150   46.2000 C   0  0  0  0  0  0  0  0  0  0  0  0
   54.8330   26.6810   45.9980 O   0  0  0  0  0  0  0  0  0  0  0  0
   57.0830   29.0450   44.9930 C   0  0  0  0  0  0  0  0  0  0  0  0
   56.0330   28.9720   44.2990 O   0  0  0  0  0  0  0  0  0  0  0  0
   57.3330   30.2350   45.7610 N   0  0  0  0  0  0  0  0  0  0  0  0
   58.3840   30.3220   46.7430 C   0  0  0  0  0  0  0  0  0  0  0  0
   58.5080   31.4530   47.4690 C   0  0  0  0  0  0  0  0  0  0  0  0
   59.2620   32.6560   47.0530 C   0  0  0  0  0  0  0  0  0  0  0  0
   58.6200   33.7480   46.4460 C   0  0  0  0  0  0  0  0  0  0  0  0
   59.3500   34.8850   46.0930 C   0  0  0  0  0  0  0  0  0  0  0  0
   60.7210   34.9480   46.3520 C   0  0  0  0  0  0  0  0  0  0  0  0
   61.3770   33.8720   46.9720 C   0  0  0  0  0  0  0  0  0  0  0  0
   62.8260   33.9420   47.2700 C   0  0  0  0  0  0  0  0  0  0  0  0
   63.6410   34.1390   46.3280 O   0  0  0  0  0  0  0  0  0  0  0  0
   63.3270   33.7690   48.6090 N   0  0  0  0  0  0  0  0  0  0  0  0
   64.6070   33.0850   48.8110 C   0  0  0  0  0  0  0  0  0  0  0  0
   64.9120   32.9170   50.3090 C   0  0  0  0  0  0  0  0  0  0  0  0
   63.6990   32.5740   51.0810 N   0  0  0  0  0  0  0  0  0  0  0  0
   63.2070   31.2230   50.7590 C   0  0  0  0  0  0  0  0  0  0  0  0
   62.6250   33.5960   50.9770 C   0  0  0  0  0  0  0  0  0  0  0  0
   62.7290   34.5000   49.7320 C   0  0  0  0  0  0  0  0  0  0  0  0
   60.6330   32.7370   47.3400 C   0  0  0  0  0  0  0  0  0  0  0  0
   59.2687   29.1618   49.0196 H   0  0  0  0  0  0  0  0  0  0  0  0
   60.1160   27.6811   48.1713 H   0  0  0  0  0  0  0  0  0  0  0  0
   57.7490   26.3597   43.6406 H   0  0  0  0  0  0  0  0  0  0  0  0
   56.6770   31.0400   45.6360 H   0  0  0  0  0  0  0  0  0  0  0  0
   58.0084   31.4827   48.4485 H   0  0  0  0  0  0  0  0  0  0  0  0
   57.5387   33.7074   46.2481 H   0  0  0  0  0  0  0  0  0  0  0  0
   58.8437   35.7335   45.6095 H   0  0  0  0  0  0  0  0  0  0  0  0
   61.2903   35.8456   46.0687 H   0  0  0  0  0  0  0  0  0  0  0  0
   64.5626   32.0922   48.3394 H   0  0  0  0  0  0  0  0  0  0  0  0
   65.4041   33.6921   48.3571 H   0  0  0  0  0  0  0  0  0  0  0  0
   65.6525   32.1132   50.4336 H   0  0  0  0  0  0  0  0  0  0  0  0
   65.2996   33.8740   50.6885 H   0  0  0  0  0  0  0  0  0  0  0  0
   63.0070   30.6738   51.6909 H   0  0  0  0  0  0  0  0  0  0  0  0
   62.2794   31.3006   50.1729 H   0  0  0  0  0  0  0  0  0  0  0  0
   63.9673   30.6859   50.1729 H   0  0  0  0  0  0  0  0  0  0  0  0
   61.6562   33.0759   50.9454 H   0  0  0  0  0  0  0  0  0  0  0  0
   62.7287   34.2528   51.8533 H   0  0  0  0  0  0  0  0  0  0  0  0
   61.7222   34.8392   49.4469 H   0  0  0  0  0  0  0  0  0  0  0  0
   63.3681   35.3622   49.9733 H   0  0  0  0  0  0  0  0  0  0  0  0
   61.1309   31.9042   47.8581 H   0  0  0  0  0  0  0  0  0  0  0  0
  1  2  2  0
  2  3  1  0
  3  4  1  0
  4  5  2  3
  5  6  1  0
  6  7  1  0
  7  8  1  0
  8  9  2  0
  8 10  1  0
 10 11  1  0
 11 12  1  0
  4 13  1  0
 13 14  2  0
 13 15  1  0
 15 16  1  0
 16 17  2  3
 17 18  1  0
 18 19  2  0
 19 20  1  0
 20 21  2  0
 21 22  1  0
 22 23  1  0
 23 24  2  0
 23 25  1  0
 25 26  1  0
 26 27  1  0
 27 28  1  0
 28 29  1  0
 28 30  1  0
 30 31  1  0
 22 32  2  0
 16  2  1  0
 32 18  1  0
 11  6  2  0
 31 25  1  0
  1 33  1  0
  1 34  1  0
  5 35  1  0
 15 36  1  0
 17 37  1  0
 19 38  1  0
 20 39  1  0
 21 40  1  0
 26 41  1  0
 26 42  1  0
 27 43  1  0
 27 44  1  0
 29 45  1  0
 29 46  1  0
 29 47  1  0
 30 48  1  0
 30 49  1  0
 31 50  1  0
 31 51  1  0
 32 52  1  0
M  CHG  3   7  -1  10  -1  12  -1
M  END
>  <UniqueID>  (78) 
75

>  <SMILES>  (78) 
C=C1SC(=Cc2[n-]c(=O)[n-]c2[O-])C(=O)NC1=Cc1cccc(C(=O)N2CCN(C)CC2)c1

>  <Energy>  (78) 
116.27374446457904

>  <Genealogy>  (78) 
C=C1SC(=Cc2[n-]c(=O)[n-]c2[O-])C(=O)NC1=Cc1cccc(C(=O)N2CCN(C)CC2)c1 (protonated)
C=C1SC(=Cc2[n-]c(=O)[n-]c2[O-])C(=O)NC1=Cc1cccc(C(=O)N2CCN(C)CC2)c1 (3D coordinates assigned)
C=C1SC(=Cc2[n-]c(=O)[n-]c2[O-])C(=O)NC1=Cc1cccc(C(=O)N2CCN(C)CC2)c1 (nonaromatic ring conformer: 116.27374446457904 kcal/mol)

>  <smiles>  (78) 
C=C1SC(=Cc2[nH]c(=O)[nH]c2O)C(=O)NC1=Cc1cccc(C(=O)N2CCN(C)CC2)c1

>  <score_type>  (78) 
oracle

>  <origin>  (78) 
adg

>  <m_score__min__energy>  (78) 
-17.600000000000001

>  <m_primary>  (78) 
energy

$$$$
78:0
     RDKit          3D

 55 57  0  0  0  0  0  0  0  0999 V2000
   57.5980   33.8130   44.5400 C   0  0  0  0  0  0  0  0  0  0  0  0
   58.4070   32.8720   45.2390 O   0  0  0  0  0  0  0  0  0  0  0  0
   59.0510   33.1320   46.4610 C   0  0  0  0  0  0  0  0  0  0  0  0
   58.9020   34.3630   47.1280 C   0  0  0  0  0  0  0  0  0  0  0  0
   59.5630   34.5990   48.3330 C   0  0  0  0  0  0  0  0  0  0  0  0
   60.3860   33.6170   48.8870 C   0  0  0  0  0  0  0  0  0  0  0  0
   60.5460   32.3940   48.2410 C   0  0  0  0  0  0  0  0  0  0  0  0
   59.8710   32.1350   47.0340 C   0  0  0  0  0  0  0  0  0  0  0  0
   60.0700   30.8050   46.3470 C   0  0  0  0  0  0  0  0  0  0  0  0
   58.9010   30.4630   45.5350 N   0  0  0  0  0  0  0  0  0  0  0  0
   58.9680   29.4390   44.5300 C   0  0  0  0  0  0  0  0  0  0  0  0
   60.0610   28.8570   44.2890 O   0  0  0  0  0  0  0  0  0  0  0  0
   57.7520   29.0880   43.7280 C   0  0  0  0  0  0  0  0  0  0  0  0
   56.5160   29.2980   44.5560 C   0  0  0  0  0  0  0  0  0  0  0  0
   56.0670   30.4610   44.7020 O   0  0  0  0  0  0  0  0  0  0  0  0
   55.8810   28.2150   45.2470 N   0  0  0  0  0  0  0  0  0  0  0  0
   56.5730   27.1610   45.9280 C   0  0  0  0  0  0  0  0  0  0  0  0
   57.7450   27.4210   46.6590 C   0  0  0  0  0  0  0  0  0  0  0  0
   58.4200   26.3750   47.2940 C   0  0  0  0  0  0  0  0  0  0  0  0
   57.9280   25.0680   47.2100 C   0  0  0  0  0  0  0  0  0  0  0  0
   56.7560   24.8020   46.4880 C   0  0  0  0  0  0  0  0  0  0  0  0
   56.0910   23.1680   46.4520 S   0  0  0  0  0  0  0  0  0  0  0  0
   54.8570   23.1630   45.5930 O   0  0  0  0  0  0  0  0  0  0  0  0
   55.6820   22.7710   47.8450 O   0  0  0  0  0  0  0  0  0  0  0  0
   57.2340   21.9940   45.8310 N   0  0  0  0  0  0  0  0  0  0  0  0
   56.6500   20.6430   45.6910 C   0  0  0  0  0  0  0  0  0  0  0  0
   56.2490   20.3090   44.2440 C   0  0  0  0  0  0  0  0  0  0  0  0
   55.9270   21.4830   43.5350 O   0  0  0  0  0  0  0  0  0  0  0  0
   57.0940   22.2510   43.3270 C   0  0  0  0  0  0  0  0  0  0  0  0
   57.9250   22.4630   44.6150 C   0  0  0  0  0  0  0  0  0  0  0  0
   56.0970   25.8480   45.8250 C   0  0  0  0  0  0  0  0  0  0  0  0
   57.0579   34.4412   45.2637 H   0  0  0  0  0  0  0  0  0  0  0  0
   58.2367   34.4478   43.9082 H   0  0  0  0  0  0  0  0  0  0  0  0
   56.8746   33.2768   43.9082 H   0  0  0  0  0  0  0  0  0  0  0  0
   58.2596   35.1442   46.6955 H   0  0  0  0  0  0  0  0  0  0  0  0
   59.4354   35.5622   48.8487 H   0  0  0  0  0  0  0  0  0  0  0  0
   60.9089   33.8097   49.8354 H   0  0  0  0  0  0  0  0  0  0  0  0
   61.2032   31.6268   48.6763 H   0  0  0  0  0  0  0  0  0  0  0  0
   60.9563   30.8627   45.6980 H   0  0  0  0  0  0  0  0  0  0  0  0
   60.2085   30.0280   47.1132 H   0  0  0  0  0  0  0  0  0  0  0  0
   57.9910   30.9550   45.6910 H   0  0  0  0  0  0  0  0  0  0  0  0
   57.7063   29.7289   42.8352 H   0  0  0  0  0  0  0  0  0  0  0  0
   57.8101   28.0322   43.4249 H   0  0  0  0  0  0  0  0  0  0  0  0
   58.1312   28.4485   46.7313 H   0  0  0  0  0  0  0  0  0  0  0  0
   59.3401   26.5797   47.8611 H   0  0  0  0  0  0  0  0  0  0  0  0
   58.4619   24.2473   47.7115 H   0  0  0  0  0  0  0  0  0  0  0  0
   57.3913   19.9039   46.0289 H   0  0  0  0  0  0  0  0  0  0  0  0
   55.7350   20.6150   46.3010 H   0  0  0  0  0  0  0  0  0  0  0  0
   57.0882   19.8034   43.7439 H   0  0  0  0  0  0  0  0  0  0  0  0
   55.3662   19.6530   44.2631 H   0  0  0  0  0  0  0  0  0  0  0  0
   57.7234   21.7361   42.5863 H   0  0  0  0  0  0  0  0  0  0  0  0
   56.7728   23.2440   42.9794 H   0  0  0  0  0  0  0  0  0  0  0  0
   58.8720   21.9123   44.5156 H   0  0  0  0  0  0  0  0  0  0  0  0
   58.0886   23.5450   44.7264 H   0  0  0  0  0  0  0  0  0  0  0  0
   55.2022   25.6359   45.2214 H   0  0  0  0  0  0  0  0  0  0  0  0
  1  2  1  0
  2  3  1  0
  3  4  2  0
  4  5  1  0
  5  6  2  0
  6  7  1  0
  7  8  2  0
  8  9  1  0
  9 10  1  0
 10 11  1  0
 11 12  2  0
 11 13  1  0
 13 14  1  0
 14 15  2  0
 14 16  1  0
 16 17  1  0
 17 18  2  0
 18 19  1  0
 19 20  2  0
 20 21  1  0
 21 22  1  0
 22 23  2  0
 22 24  2  0
 22 25  1  0
 25 26  1  0
 26 27  1  0
 27 28  1  0
 28 29  1  0
 29 30  1  0
 21 31  2  0
  8  3  1  0
 31 17  1  0
 30 25  1  0
  1 32  1  0
  1 33  1  0
  1 34  1  0
  4 35  1  0
  5 36  1  0
  6 37  1  0
  7 38  1  0
  9 39  1  0
  9 40  1  0
 10 41  1  0
 13 42  1  0
 13 43  1  0
 18 44  1  0
 19 45  1  0
 20 46  1  0
 26 47  1  0
 26 48  1  0
 27 49  1  0
 27 50  1  0
 29 51  1  0
 29 52  1  0
 30 53  1  0
 30 54  1  0
 31 55  1  0
M  CHG  1  16  -1
M  END
>  <UniqueID>  (79) 
76

>  <SMILES>  (79) 
COc1ccccc1CNC(=O)CC(=O)[N-]c1cccc(S(=O)(=O)N2CCOCC2)c1

>  <Energy>  (79) 
64.85388241516065

>  <Genealogy>  (79) 
COc1ccccc1CNC(=O)CC(=O)[N-]c1cccc(S(=O)(=O)N2CCOCC2)c1 (protonated)
COc1ccccc1CNC(=O)CC(=O)[N-]c1cccc(S(=O)(=O)N2CCOCC2)c1 (3D coordinates assigned)
COc1ccccc1CNC(=O)CC(=O)[N-]c1cccc(S(=O)(=O)N2CCOCC2)c1 (nonaromatic ring conformer: 64.85388241516065 kcal/mol)

>  <smiles>  (79) 
COc1ccccc1CNC(=O)CC(=O)Nc1cccc(S(=O)(=O)N2CCOCC2)c1

>  <score_type>  (79) 
oracle

>  <origin>  (79) 
adg

>  <m_score__min__energy>  (79) 
-10.449999999999999

>  <m_primary>  (79) 
energy

$$$$
79:0
     RDKit          3D

 52 55  0  0  0  0  0  0  0  0999 V2000
   61.1340   34.2280   48.1760 O   0  0  0  0  0  0  0  0  0  0  0  0
   60.2840   33.3210   47.9510 C   0  0  0  0  0  0  0  0  0  0  0  0
   60.4210   31.9830   48.6390 C   0  0  0  0  0  0  0  0  0  0  0  0
   61.6630   31.1970   48.1920 C   0  0  0  0  0  0  0  0  0  0  0  0
   62.8910   31.6960   48.9100 C   0  0  0  0  0  0  0  0  0  0  0  0
   63.2400   31.1480   50.1560 C   0  0  0  0  0  0  0  0  0  0  0  0
   64.3920   31.5780   50.8200 C   0  0  0  0  0  0  0  0  0  0  0  0
   65.2120   32.5480   50.2430 C   0  0  0  0  0  0  0  0  0  0  0  0
   64.8850   33.0900   48.9970 C   0  0  0  0  0  0  0  0  0  0  0  0
   63.7300   32.6660   48.3230 C   0  0  0  0  0  0  0  0  0  0  0  0
   63.4180   33.2000   47.0730 O   0  0  0  0  0  0  0  0  0  0  0  0
   59.1890   33.5770   47.0420 N   0  0  0  0  0  0  0  0  0  0  0  0
   59.1330   34.8360   46.2850 C   0  0  0  0  0  0  0  0  0  0  0  0
   58.6100   34.6200   44.8460 C   0  0  0  0  0  0  0  0  0  0  0  0
   57.7360   33.4320   44.6810 N   0  0  0  0  0  0  0  0  0  0  0  0
   58.4680   32.2930   44.0800 C   0  0  0  0  0  0  0  0  0  0  0  0
   57.7350   30.9980   44.2820 C   0  0  0  0  0  0  0  0  0  0  0  0
   56.5700   30.5930   43.6380 C   0  0  0  0  0  0  0  0  0  0  0  0
   56.2170   29.3500   44.0420 N   0  0  0  0  0  0  0  0  0  0  0  0
   57.1510   28.9700   44.9320 C   0  0  0  0  0  0  0  0  0  0  0  0
   57.2240   27.7580   45.6170 C   0  0  0  0  0  0  0  0  0  0  0  0
   58.3030   27.5640   46.4980 C   0  0  0  0  0  0  0  0  0  0  0  0
   59.2770   28.5730   46.6710 C   0  0  0  0  0  0  0  0  0  0  0  0
   59.1790   29.7860   45.9660 C   0  0  0  0  0  0  0  0  0  0  0  0
   58.0950   29.9500   45.1020 C   0  0  0  0  0  0  0  0  0  0  0  0
   57.0270   33.0870   45.9330 C   0  0  0  0  0  0  0  0  0  0  0  0
   58.0080   32.7010   47.0480 C   0  0  0  0  0  0  0  0  0  0  0  0
   60.4864   32.1528   49.7238 H   0  0  0  0  0  0  0  0  0  0  0  0
   59.5396   31.3838   48.3670 H   0  0  0  0  0  0  0  0  0  0  0  0
   61.5182   30.1308   48.4208 H   0  0  0  0  0  0  0  0  0  0  0  0
   61.8022   31.3375   47.1099 H   0  0  0  0  0  0  0  0  0  0  0  0
   62.6025   30.3759   50.6115 H   0  0  0  0  0  0  0  0  0  0  0  0
   64.6527   31.1508   51.7995 H   0  0  0  0  0  0  0  0  0  0  0  0
   66.1167   32.8865   50.7692 H   0  0  0  0  0  0  0  0  0  0  0  0
   65.5357   33.8519   48.5431 H   0  0  0  0  0  0  0  0  0  0  0  0
   62.6430   33.8410   46.9470 H   0  0  0  0  0  0  0  0  0  0  0  0
   58.4622   35.5349   46.8061 H   0  0  0  0  0  0  0  0  0  0  0  0
   60.1538   35.2406   46.2199 H   0  0  0  0  0  0  0  0  0  0  0  0
   58.0372   35.5116   44.5511 H   0  0  0  0  0  0  0  0  0  0  0  0
   59.4940   34.4484   44.2142 H   0  0  0  0  0  0  0  0  0  0  0  0
   58.5848   32.4728   43.0011 H   0  0  0  0  0  0  0  0  0  0  0  0
   59.4482   32.2147   44.5730 H   0  0  0  0  0  0  0  0  0  0  0  0
   56.0149   31.1968   42.9050 H   0  0  0  0  0  0  0  0  0  0  0  0
   55.3910   28.8000   43.7210 H   0  0  0  0  0  0  0  0  0  0  0  0
   56.4618   26.9781   45.4730 H   0  0  0  0  0  0  0  0  0  0  0  0
   58.3893   26.6202   47.0563 H   0  0  0  0  0  0  0  0  0  0  0  0
   60.1173   28.4087   47.3616 H   0  0  0  0  0  0  0  0  0  0  0  0
   59.9312   30.5788   46.0912 H   0  0  0  0  0  0  0  0  0  0  0  0
   56.4375   33.9559   46.2608 H   0  0  0  0  0  0  0  0  0  0  0  0
   56.3751   32.2237   45.7333 H   0  0  0  0  0  0  0  0  0  0  0  0
   57.5001   32.7896   48.0197 H   0  0  0  0  0  0  0  0  0  0  0  0
   58.3402   31.6663   46.8778 H   0  0  0  0  0  0  0  0  0  0  0  0
  1  2  2  0
  2  3  1  0
  3  4  1  0
  4  5  1  0
  5  6  2  0
  6  7  1  0
  7  8  2  0
  8  9  1  0
  9 10  2  0
 10 11  1  0
  2 12  1  0
 12 13  1  0
 13 14  1  0
 14 15  1  0
 15 16  1  0
 16 17  1  0
 17 18  2  0
 18 19  1  0
 19 20  1  0
 20 21  2  0
 21 22  1  0
 22 23  2  0
 23 24  1  0
 24 25  2  0
 15 26  1  0
 26 27  1  0
 10  5  1  0
 27 12  1  0
 25 17  1  0
 25 20  1  0
  3 28  1  0
  3 29  1  0
  4 30  1  0
  4 31  1  0
  6 32  1  0
  7 33  1  0
  8 34  1  0
  9 35  1  0
 11 36  1  0
 13 37  1  0
 13 38  1  0
 14 39  1  0
 14 40  1  0
 16 41  1  0
 16 42  1  0
 18 43  1  0
 19 44  1  0
 21 45  1  0
 22 46  1  0
 23 47  1  0
 24 48  1  0
 26 49  1  0
 26 50  1  0
 27 51  1  0
 27 52  1  0
M  END
>  <UniqueID>  (80) 
77

>  <SMILES>  (80) 
O=C(CCc1ccccc1O)N1CCN(Cc2c[nH]c3ccccc23)CC1

>  <Energy>  (80) 
94.69291094959337

>  <Genealogy>  (80) 
O=C(CCc1ccccc1O)N1CCN(Cc2c[nH]c3ccccc23)CC1 (3D coordinates assigned)
O=C(CCc1ccccc1O)N1CCN(Cc2c[nH]c3ccccc23)CC1 (nonaromatic ring conformer: 94.69291094959337 kcal/mol)

>  <smiles>  (80) 
O=C(CCc1ccccc1O)N1CCN(Cc2c[nH]c3ccccc23)CC1

>  <score_type>  (80) 
oracle

>  <origin>  (80) 
adg

>  <m_score__min__energy>  (80) 
-9.3800000000000008

>  <m_primary>  (80) 
energy

$$$$
80:0
     RDKit          3D

 40 41  0  0  0  0  0  0  0  0999 V2000
   57.4650   31.9630   42.1840 C   0  0  0  0  0  0  0  0  0  0  0  0
   57.3320   31.0310   43.3500 C   0  0  0  0  0  0  0  0  0  0  0  0
   58.3530   30.6780   44.1440 C   0  0  0  0  0  0  0  0  0  0  0  0
   58.3010   29.5650   45.1170 C   0  0  0  0  0  0  0  0  0  0  0  0
   57.3840   28.5140   44.9490 C   0  0  0  0  0  0  0  0  0  0  0  0
   57.3160   27.4590   45.8790 C   0  0  0  0  0  0  0  0  0  0  0  0
   56.3610   26.3320   45.7040 C   0  0  0  0  0  0  0  0  0  0  0  0
   56.8000   24.9940   45.1860 C   0  0  0  0  0  0  0  0  0  0  0  0
   55.1430   26.4920   45.9930 O   0  0  0  0  0  0  0  0  0  0  0  0
   58.1660   27.4930   46.9990 C   0  0  0  0  0  0  0  0  0  0  0  0
   59.0610   28.5490   47.1830 C   0  0  0  0  0  0  0  0  0  0  0  0
   59.1430   29.5860   46.2400 C   0  0  0  0  0  0  0  0  0  0  0  0
   60.0290   30.6630   46.4030 O   0  0  0  0  0  0  0  0  0  0  0  0
   60.4290   31.2100   47.6270 C   0  0  0  0  0  0  0  0  0  0  0  0
   61.1050   30.5390   48.4530 O   0  0  0  0  0  0  0  0  0  0  0  0
   60.1490   32.6530   47.8980 C   0  0  0  0  0  0  0  0  0  0  0  0
   59.2370   33.2000   46.8360 C   0  0  0  0  0  0  0  0  0  0  0  0
   57.8600   32.9200   46.8690 C   0  0  0  0  0  0  0  0  0  0  0  0
   57.0080   33.4690   45.9050 C   0  0  0  0  0  0  0  0  0  0  0  0
   57.5200   34.3080   44.9110 C   0  0  0  0  0  0  0  0  0  0  0  0
   58.8860   34.6020   44.8810 C   0  0  0  0  0  0  0  0  0  0  0  0
   59.7420   34.0540   45.8410 C   0  0  0  0  0  0  0  0  0  0  0  0
   57.6115   32.9898   42.5502 H   0  0  0  0  0  0  0  0  0  0  0  0
   58.3297   31.6647   41.5730 H   0  0  0  0  0  0  0  0  0  0  0  0
   56.5514   31.9185   41.5730 H   0  0  0  0  0  0  0  0  0  0  0  0
   56.3384   30.6119   43.5671 H   0  0  0  0  0  0  0  0  0  0  0  0
   59.2881   31.2521   44.0671 H   0  0  0  0  0  0  0  0  0  0  0  0
   56.7103   28.5153   44.0795 H   0  0  0  0  0  0  0  0  0  0  0  0
   57.0189   24.3268   46.0327 H   0  0  0  0  0  0  0  0  0  0  0  0
   55.9981   24.5571   44.5728 H   0  0  0  0  0  0  0  0  0  0  0  0
   57.7049   25.1171   44.5728 H   0  0  0  0  0  0  0  0  0  0  0  0
   58.1254   26.6791   47.7379 H   0  0  0  0  0  0  0  0  0  0  0  0
   59.7066   28.5685   48.0734 H   0  0  0  0  0  0  0  0  0  0  0  0
   59.6666   32.7535   48.8815 H   0  0  0  0  0  0  0  0  0  0  0  0
   61.0945   33.2151   47.8912 H   0  0  0  0  0  0  0  0  0  0  0  0
   57.4514   32.2676   47.6548 H   0  0  0  0  0  0  0  0  0  0  0  0
   55.9324   33.2400   45.9292 H   0  0  0  0  0  0  0  0  0  0  0  0
   56.8481   34.7366   44.1528 H   0  0  0  0  0  0  0  0  0  0  0  0
   59.2881   35.2654   44.1011 H   0  0  0  0  0  0  0  0  0  0  0  0
   60.8156   34.2924   45.8173 H   0  0  0  0  0  0  0  0  0  0  0  0
  1  2  1  0
  2  3  2  3
  3  4  1  0
  4  5  2  0
  5  6  1  0
  6  7  1  0
  7  8  1  0
  7  9  2  0
  6 10  2  0
 10 11  1  0
 11 12  2  0
 12 13  1  0
 13 14  1  0
 14 15  2  0
 14 16  1  0
 16 17  1  0
 17 18  2  0
 18 19  1  0
 19 20  2  0
 20 21  1  0
 21 22  2  0
 12  4  1  0
 22 17  1  0
  1 23  1  0
  1 24  1  0
  1 25  1  0
  2 26  1  0
  3 27  1  0
  5 28  1  0
  8 29  1  0
  8 30  1  0
  8 31  1  0
 10 32  1  0
 11 33  1  0
 16 34  1  0
 16 35  1  0
 18 36  1  0
 19 37  1  0
 20 38  1  0
 21 39  1  0
 22 40  1  0
M  END
>  <UniqueID>  (81) 
78

>  <SMILES>  (81) 
CC=Cc1cc(C(C)=O)ccc1OC(=O)Cc1ccccc1

>  <Energy>  (81) 
46.4517719306116

>  <Genealogy>  (81) 
CC=Cc1cc(C(C)=O)ccc1OC(=O)Cc1ccccc1 (3D coordinates assigned)
CC=Cc1cc(C(C)=O)ccc1OC(=O)Cc1ccccc1 (optimized conformer: 46.4517719306116 kcal/mol)

>  <smiles>  (81) 
CC=Cc1cc(C(C)=O)ccc1OC(=O)Cc1ccccc1

>  <score_type>  (81) 
oracle

>  <origin>  (81) 
adg

>  <m_score__min__energy>  (81) 
-7.5899999999999999

>  <m_primary>  (81) 
energy

$$$$
81:0
     RDKit          3D

 49 52  0  0  0  0  0  0  0  0999 V2000
   57.2524   32.4458   52.4587 H   0  0  0  0  0  0  0  0  0  0  0  0
   56.2700   32.1610   52.0540 C   0  0  0  0  0  0  0  0  0  0  0  0
   55.7407   32.8381   51.3674 H   0  0  0  0  0  0  0  0  0  0  0  0
   55.7170   30.9870   52.3980 C   0  0  0  0  0  0  0  0  0  0  0  0
   54.4760   30.4920   51.9630 C   0  0  0  0  0  0  0  0  0  0  0  0
   53.4610   31.0930   51.3100 C   0  0  0  0  0  0  0  0  0  0  0  0
   53.5385   31.1607   50.2148 H   0  0  0  0  0  0  0  0  0  0  0  0
   52.2570   31.6670   51.9360 C   0  0  0  0  0  0  0  0  0  0  0  0
   51.8160   31.3650   53.1710 N   0  0  0  0  0  0  0  0  0  0  0  0
   50.6350   32.0160   53.2470 C   0  0  0  0  0  0  0  0  0  0  0  0
   49.9130   31.9910   54.2770 O   0  0  0  0  0  0  0  0  0  0  0  0
   50.2840   32.6860   52.1290 N   0  0  0  0  0  0  0  0  0  0  0  0
   51.3150   32.4420   51.3050 C   0  0  0  0  0  0  0  0  0  0  0  0
   51.3940   32.9160   50.0010 O   0  0  0  0  0  0  0  0  0  0  0  0
   54.4260   29.1680   52.3560 C   0  0  0  0  0  0  0  0  0  0  0  0
   53.6227   28.4493   52.1362 H   0  0  0  0  0  0  0  0  0  0  0  0
   55.5750   28.9200   53.0760 C   0  0  0  0  0  0  0  0  0  0  0  0
   55.9240   27.5840   53.6610 C   0  0  0  0  0  0  0  0  0  0  0  0
   55.9071   27.6488   54.7590 H   0  0  0  0  0  0  0  0  0  0  0  0
   55.1915   26.8346   53.3266 H   0  0  0  0  0  0  0  0  0  0  0  0
   56.9294   27.2886   53.3266 H   0  0  0  0  0  0  0  0  0  0  0  0
   56.3650   30.0200   53.1090 N   0  0  0  0  0  0  0  0  0  0  0  0
   57.6990   30.0860   53.7310 C   0  0  0  0  0  0  0  0  0  0  0  0
   57.8082   31.0505   54.2485 H   0  0  0  0  0  0  0  0  0  0  0  0
   57.7963   29.2549   54.4450 H   0  0  0  0  0  0  0  0  0  0  0  0
   58.7830   29.9580   52.6900 C   0  0  0  0  0  0  0  0  0  0  0  0
   60.1170   29.7530   53.0760 C   0  0  0  0  0  0  0  0  0  0  0  0
   60.3702   29.6612   54.1425 H   0  0  0  0  0  0  0  0  0  0  0  0
   61.1240   29.6650   52.1130 C   0  0  0  0  0  0  0  0  0  0  0  0
   62.1682   29.5111   52.4229 H   0  0  0  0  0  0  0  0  0  0  0  0
   60.8080   29.7720   50.7570 C   0  0  0  0  0  0  0  0  0  0  0  0
   61.6081   29.7161   50.0041 H   0  0  0  0  0  0  0  0  0  0  0  0
   59.4800   29.9500   50.3480 C   0  0  0  0  0  0  0  0  0  0  0  0
   59.1850   30.0810   48.9460 N   0  0  0  0  0  0  0  0  0  0  0  0
   59.2470   31.0340   48.5250 H   0  0  0  0  0  0  0  0  0  0  0  0
   58.9340   28.9660   48.0730 C   0  0  0  0  0  0  0  0  0  0  0  0
   59.2600   27.8000   48.4290 O   0  0  0  0  0  0  0  0  0  0  0  0
   58.3320   29.1840   46.7410 C   0  0  0  0  0  0  0  0  0  0  0  0
   58.0520   30.4520   46.3240 N   0  0  0  0  0  0  0  0  0  0  0  0
   57.4920   30.7080   45.1130 C   0  0  0  0  0  0  0  0  0  0  0  0
   57.2812   31.7452   44.8134 H   0  0  0  0  0  0  0  0  0  0  0  0
   57.1840   29.6570   44.2490 C   0  0  0  0  0  0  0  0  0  0  0  0
   56.7318   29.8587   43.2667 H   0  0  0  0  0  0  0  0  0  0  0  0
   57.4560   28.3470   44.6450 C   0  0  0  0  0  0  0  0  0  0  0  0
   57.2183   27.5080   43.9745 H   0  0  0  0  0  0  0  0  0  0  0  0
   58.0310   28.1030   45.8950 C   0  0  0  0  0  0  0  0  0  0  0  0
   58.2464   27.0726   46.2143 H   0  0  0  0  0  0  0  0  0  0  0  0
   58.4710   30.0590   51.3230 C   0  0  0  0  0  0  0  0  0  0  0  0
   57.4288   30.2247   51.0126 H   0  0  0  0  0  0  0  0  0  0  0  0
  1  2  1  0
  2  3  1  0
  2  4  2  0
  4  5  1  0
  5  6  2  0
  6  7  1  0
  6  8  1  0
  8  9  1  0
  9 10  1  0
 10 11  2  0
 10 12  1  0
 12 13  1  0
 13 14  1  0
  5 15  1  0
 15 16  1  0
 15 17  2  0
 17 18  1  0
 18 19  1  0
 18 20  1  0
 18 21  1  0
 17 22  1  0
 22 23  1  0
 23 24  1  0
 23 25  1  0
 23 26  1  0
 26 27  2  0
 27 28  1  0
 27 29  1  0
 29 30  1  0
 29 31  2  0
 31 32  1  0
 31 33  1  0
 33 34  1  0
 34 35  1  0
 34 36  1  0
 36 37  2  0
 36 38  1  0
 38 39  2  0
 39 40  1  0
 40 41  1  0
 40 42  2  0
 42 43  1  0
 42 44  1  0
 44 45  1  0
 44 46  2  0
 46 47  1  0
 33 48  2  0
 48 49  1  0
 22  4  1  0
 48 26  1  0
 13  8  2  0
 46 38  1  0
M  CHG  3   9  -1  12  -1  14  -1
M  END
>  <UniqueID>  (82) 
79

>  <SMILES>  (82) 
C=c1/c(=C\c2[n-]c(=O)[n-]c2[O-])cc(C)n1Cc1cccc(NC(=O)c2ccccn2)c1

>  <Energy>  (82) 
126.19838562490726

>  <Genealogy>  (82) 
C=c1c(=Cc2[n-]c(=O)[n-]c2[O-])cc(C)n1Cc1cccc(NC(=O)c2ccccn2)c1 (protonated)
C=c1/c(=C\c2[n-]c(=O)[n-]c2[O-])cc(C)n1Cc1cccc(NC(=O)c2ccccn2)c1 (cis-trans isomerization)
C=c1/c(=C\c2[n-]c(=O)[n-]c2[O-])cc(C)n1Cc1cccc(NC(=O)c2ccccn2)c1 (3D coordinates assigned)
C=c1/c(=C\c2[n-]c(=O)[n-]c2[O-])cc(C)n1Cc1cccc(NC(=O)c2ccccn2)c1 (optimized conformer: 126.19838562490726 kcal/mol)

>  <smiles>  (82) 
C=c1c(=Cc2[nH]c(=O)[nH]c2O)cc(C)n1Cc1cccc(NC(=O)c2ccccn2)c1

>  <score_type>  (82) 
oracle

>  <origin>  (82) 
adg

>  <m_score__min__energy>  (82) 
-17.170000000000002

>  <m_primary>  (82) 
energy

$$$$
82:0
     RDKit          3D

 53 55  0  0  0  0  0  0  0  0999 V2000
   59.2670   24.6670   45.9820 C   0  0  0  0  0  0  0  0  0  0  0  0
   58.1750   23.9160   45.2640 C   0  0  0  0  0  0  0  0  0  0  0  0
   58.3940   22.5720   44.9120 C   0  0  0  0  0  0  0  0  0  0  0  0
   57.4000   21.8370   44.2680 C   0  0  0  0  0  0  0  0  0  0  0  0
   56.1750   22.4290   43.9640 C   0  0  0  0  0  0  0  0  0  0  0  0
   55.9440   23.7660   44.2900 C   0  0  0  0  0  0  0  0  0  0  0  0
   56.9360   24.5270   44.9350 C   0  0  0  0  0  0  0  0  0  0  0  0
   56.6570   25.9520   45.2380 C   0  0  0  0  0  0  0  0  0  0  0  0
   55.7170   26.2460   46.0260 O   0  0  0  0  0  0  0  0  0  0  0  0
   57.4650   26.9890   44.6540 N   0  0  0  0  0  0  0  0  0  0  0  0
   57.2260   28.3930   44.8390 C   0  0  0  0  0  0  0  0  0  0  0  0
   56.2760   28.7890   45.5700 O   0  0  0  0  0  0  0  0  0  0  0  0
   58.0570   29.3450   44.1590 N   0  0  0  0  0  0  0  0  0  0  0  0
   57.9860   30.7630   44.3760 C   0  0  0  0  0  0  0  0  0  0  0  0
   57.9320   31.6120   43.2700 C   0  0  0  0  0  0  0  0  0  0  0  0
   57.8270   32.9850   43.4470 C   0  0  0  0  0  0  0  0  0  0  0  0
   57.7500   33.5100   44.7370 C   0  0  0  0  0  0  0  0  0  0  0  0
   57.6310   34.7590   44.8800 O   0  0  0  0  0  0  0  0  0  0  0  0
   57.8040   32.6800   45.8320 N   0  0  0  0  0  0  0  0  0  0  0  0
   57.6500   33.2650   47.1740 C   0  0  0  0  0  0  0  0  0  0  0  0
   58.0050   31.3280   45.6720 C   0  0  0  0  0  0  0  0  0  0  0  0
   58.1900   30.4970   46.7910 O   0  0  0  0  0  0  0  0  0  0  0  0
   59.3930   30.4190   47.5740 C   0  0  0  0  0  0  0  0  0  0  0  0
   60.5910   31.1180   46.9000 C   0  0  0  0  0  0  0  0  0  0  0  0
   61.7910   31.3050   47.8540 C   0  0  0  0  0  0  0  0  0  0  0  0
   61.6740   30.4830   49.0680 N   0  0  0  0  0  0  0  0  0  0  0  0
   60.4740   30.8270   49.8540 C   0  0  0  0  0  0  0  0  0  0  0  0
   59.1950   30.9650   48.9930 C   0  0  0  0  0  0  0  0  0  0  0  0
   59.1256   24.5697   47.0685 H   0  0  0  0  0  0  0  0  0  0  0  0
   60.2451   24.2496   45.7007 H   0  0  0  0  0  0  0  0  0  0  0  0
   59.2272   25.7297   45.7007 H   0  0  0  0  0  0  0  0  0  0  0  0
   59.3579   22.0969   45.1469 H   0  0  0  0  0  0  0  0  0  0  0  0
   57.5828   20.7862   43.9987 H   0  0  0  0  0  0  0  0  0  0  0  0
   55.3894   21.8414   43.4665 H   0  0  0  0  0  0  0  0  0  0  0  0
   54.9779   24.2290   44.0405 H   0  0  0  0  0  0  0  0  0  0  0  0
   58.2350   26.7140   44.0050 H   0  0  0  0  0  0  0  0  0  0  0  0
   58.6450   29.0000   43.3670 H   0  0  0  0  0  0  0  0  0  0  0  0
   57.9728   31.1919   42.2542 H   0  0  0  0  0  0  0  0  0  0  0  0
   57.8047   33.6550   42.5749 H   0  0  0  0  0  0  0  0  0  0  0  0
   57.8523   32.4964   47.9345 H   0  0  0  0  0  0  0  0  0  0  0  0
   58.3598   34.0965   47.2952 H   0  0  0  0  0  0  0  0  0  0  0  0
   56.6227   33.6392   47.2952 H   0  0  0  0  0  0  0  0  0  0  0  0
   59.6279   29.3466   47.6439 H   0  0  0  0  0  0  0  0  0  0  0  0
   60.9154   30.5100   46.0426 H   0  0  0  0  0  0  0  0  0  0  0  0
   60.2573   32.1188   46.5886 H   0  0  0  0  0  0  0  0  0  0  0  0
   62.7120   31.0223   47.3231 H   0  0  0  0  0  0  0  0  0  0  0  0
   61.8127   32.3603   48.1637 H   0  0  0  0  0  0  0  0  0  0  0  0
   62.5180   30.6460   49.6640 H   0  0  0  0  0  0  0  0  0  0  0  0
   61.6600   29.4680   48.8100 H   0  0  0  0  0  0  0  0  0  0  0  0
   60.3080   30.0369   50.6011 H   0  0  0  0  0  0  0  0  0  0  0  0
   60.6599   31.8062   50.3194 H   0  0  0  0  0  0  0  0  0  0  0  0
   58.3797   30.4073   49.4770 H   0  0  0  0  0  0  0  0  0  0  0  0
   58.9542   32.0354   48.9134 H   0  0  0  0  0  0  0  0  0  0  0  0
  1  2  1  0
  2  3  2  0
  3  4  1  0
  4  5  2  0
  5  6  1  0
  6  7  2  0
  7  8  1  0
  8  9  2  0
  8 10  1  0
 10 11  1  0
 11 12  2  0
 11 13  1  0
 13 14  1  0
 14 15  1  0
 15 16  2  0
 16 17  1  0
 17 18  2  0
 17 19  1  0
 19 20  1  0
 19 21  1  0
 21 22  1  0
 22 23  1  0
 23 24  1  0
 24 25  1  0
 25 26  1  0
 26 27  1  0
 27 28  1  0
  7  2  1  0
 21 14  2  0
 28 23  1  0
  1 29  1  0
  1 30  1  0
  1 31  1  0
  3 32  1  0
  4 33  1  0
  5 34  1  0
  6 35  1  0
 10 36  1  0
 13 37  1  0
 15 38  1  0
 16 39  1  0
 20 40  1  0
 20 41  1  0
 20 42  1  0
 23 43  1  0
 24 44  1  0
 24 45  1  0
 25 46  1  0
 25 47  1  0
 26 48  1  0
 26 49  1  0
 27 50  1  0
 27 51  1  0
 28 52  1  0
 28 53  1  0
M  CHG  1  26   1
M  END
>  <UniqueID>  (83) 
80

>  <SMILES>  (83) 
Cc1ccccc1C(=O)NC(=O)Nc1ccc(=O)n(C)c1OC1CC[NH2+]CC1

>  <Energy>  (83) 
79.99677740231097

>  <Genealogy>  (83) 
Cc1ccccc1C(=O)NC(=O)Nc1ccc(=O)n(C)c1OC1CC[NH2+]CC1 (protonated)
Cc1ccccc1C(=O)NC(=O)Nc1ccc(=O)n(C)c1OC1CC[NH2+]CC1 (3D coordinates assigned)
Cc1ccccc1C(=O)NC(=O)Nc1ccc(=O)n(C)c1OC1CC[NH2+]CC1 (nonaromatic ring conformer: 79.99677740231097 kcal/mol)

>  <smiles>  (83) 
Cc1ccccc1C(=O)NC(=O)Nc1ccc(=O)n(C)c1OC1CCNCC1

>  <score_type>  (83) 
oracle

>  <origin>  (83) 
adg

>  <m_score__min__energy>  (83) 
-7.0899999999999999

>  <m_primary>  (83) 
energy

$$$$
83:0
     RDKit          3D

 52 55  0  0  0  0  0  0  0  0999 V2000
   54.4070   26.7300   46.7680 H   0  0  0  0  0  0  0  0  0  0  0  0
   55.1390   26.4950   46.1090 O   0  0  0  0  0  0  0  0  0  0  0  0
   56.0310   25.4550   46.3570 C   0  0  0  0  0  0  0  0  0  0  0  0
   55.7640   24.4310   47.1830 N   0  0  0  0  0  0  0  0  0  0  0  0
   56.8830   23.6810   47.1010 C   0  0  0  0  0  0  0  0  0  0  0  0
   57.0270   22.6060   47.7380 O   0  0  0  0  0  0  0  0  0  0  0  0
   57.8310   24.1670   46.2710 N   0  0  0  0  0  0  0  0  0  0  0  0
   57.2910   25.3130   45.8170 C   0  0  0  0  0  0  0  0  0  0  0  0
   57.8860   26.1530   44.7650 C   0  0  0  0  0  0  0  0  0  0  0  0
   58.0858   25.6750   43.7947 H   0  0  0  0  0  0  0  0  0  0  0  0
   58.2080   27.4580   44.8860 C   0  0  0  0  0  0  0  0  0  0  0  0
   57.2280   28.4480   44.6650 C   0  0  0  0  0  0  0  0  0  0  0  0
   56.1747   28.2107   44.4549 H   0  0  0  0  0  0  0  0  0  0  0  0
   57.7100   29.7500   44.7360 C   0  0  0  0  0  0  0  0  0  0  0  0
   56.9430   30.9850   44.4890 C   0  0  0  0  0  0  0  0  0  0  0  0
   55.7120   30.9040   44.2390 O   0  0  0  0  0  0  0  0  0  0  0  0
   57.5470   32.2820   44.5780 N   0  0  0  0  0  0  0  0  0  0  0  0
   58.2600   32.8000   45.7100 C   0  0  0  0  0  0  0  0  0  0  0  0
   58.0360   32.3090   47.0060 C   0  0  0  0  0  0  0  0  0  0  0  0
   57.2870   31.5205   47.1710 H   0  0  0  0  0  0  0  0  0  0  0  0
   58.7610   32.8180   48.0880 C   0  0  0  0  0  0  0  0  0  0  0  0
   58.5693   32.4362   49.1016 H   0  0  0  0  0  0  0  0  0  0  0  0
   59.7330   33.8140   47.8900 C   0  0  0  0  0  0  0  0  0  0  0  0
   60.5050   34.3490   49.0360 C   0  0  0  0  0  0  0  0  0  0  0  0
   61.7000   34.7190   48.8760 O   0  0  0  0  0  0  0  0  0  0  0  0
   59.8980   34.4500   50.3300 N   0  0  0  0  0  0  0  0  0  0  0  0
   60.1220   33.4920   51.4080 C   0  0  0  0  0  0  0  0  0  0  0  0
   60.9861   32.8592   51.1571 H   0  0  0  0  0  0  0  0  0  0  0  0
   60.3153   34.0423   52.3406 H   0  0  0  0  0  0  0  0  0  0  0  0
   58.9090   32.6230   51.5960 C   0  0  0  0  0  0  0  0  0  0  0  0
   58.9210   31.2790   51.1900 C   0  0  0  0  0  0  0  0  0  0  0  0
   59.8190   30.8589   50.7134 H   0  0  0  0  0  0  0  0  0  0  0  0
   57.7960   30.4720   51.3890 C   0  0  0  0  0  0  0  0  0  0  0  0
   57.8163   29.4174   51.0769 H   0  0  0  0  0  0  0  0  0  0  0  0
   56.6420   31.0020   51.9850 C   0  0  0  0  0  0  0  0  0  0  0  0
   55.4490   30.1250   52.2330 C   0  0  0  0  0  0  0  0  0  0  0  0
   55.2957   30.0123   53.3164 H   0  0  0  0  0  0  0  0  0  0  0  0
   54.5566   30.5837   51.7822 H   0  0  0  0  0  0  0  0  0  0  0  0
   55.6206   29.1364   51.7822 H   0  0  0  0  0  0  0  0  0  0  0  0
   56.6370   32.3380   52.4100 C   0  0  0  0  0  0  0  0  0  0  0  0
   55.7446   32.7530   52.9014 H   0  0  0  0  0  0  0  0  0  0  0  0
   57.7610   33.1450   52.2120 C   0  0  0  0  0  0  0  0  0  0  0  0
   57.7457   34.1946   52.5407 H   0  0  0  0  0  0  0  0  0  0  0  0
   59.9680   34.2850   46.5860 C   0  0  0  0  0  0  0  0  0  0  0  0
   60.7293   35.0603   46.4144 H   0  0  0  0  0  0  0  0  0  0  0  0
   59.2410   33.7750   45.5060 C   0  0  0  0  0  0  0  0  0  0  0  0
   59.4422   34.1433   44.4892 H   0  0  0  0  0  0  0  0  0  0  0  0
   59.3480   29.6930   45.0950 S   0  0  0  0  0  0  0  0  0  0  0  0
   59.4680   28.0180   45.1970 C   0  0  0  0  0  0  0  0  0  0  0  0
   60.5670   27.4130   45.6560 C   0  0  0  0  0  0  0  0  0  0  0  0
   60.6093   26.3151   45.7083 H   0  0  0  0  0  0  0  0  0  0  0  0
   61.4297   28.0128   45.9817 H   0  0  0  0  0  0  0  0  0  0  0  0
  1  2  1  0
  2  3  1  0
  3  4  1  0
  4  5  1  0
  5  6  2  0
  5  7  1  0
  7  8  1  0
  8  9  1  0
  9 10  1  0
  9 11  2  0
 11 12  1  0
 12 13  1  0
 12 14  2  0
 14 15  1  0
 15 16  2  0
 15 17  1  0
 17 18  1  0
 18 19  2  0
 19 20  1  0
 19 21  1  0
 21 22  1  0
 21 23  2  0
 23 24  1  0
 24 25  2  0
 24 26  1  0
 26 27  1  0
 27 28  1  0
 27 29  1  0
 27 30  1  0
 30 31  2  0
 31 32  1  0
 31 33  1  0
 33 34  1  0
 33 35  2  0
 35 36  1  0
 36 37  1  0
 36 38  1  0
 36 39  1  0
 35 40  1  0
 40 41  1  0
 40 42  2  0
 42 43  1  0
 23 44  1  0
 44 45  1  0
 44 46  2  0
 46 47  1  0
 14 48  1  0
 48 49  1  0
 49 50  2  0
 50 51  1  0
 50 52  1  0
  8  3  2  0
 49 11  1  0
 46 18  1  0
 42 30  1  0
M  CHG  4   4  -1   7  -1  17  -1  26  -1
M  END
>  <UniqueID>  (84) 
81

>  <SMILES>  (84) 
C=c1sc(C(=O)[N-]c2ccc(C(=O)[N-]Cc3ccc(C)cc3)cc2)c/c1=C/c1[n-]c(=O)[n-]c1O

>  <Energy>  (84) 
127.15608286904178

>  <Genealogy>  (84) 
C=c1sc(C(=O)[N-]c2ccc(C(=O)[N-]Cc3ccc(C)cc3)cc2)cc1=Cc1[n-]c(=O)[n-]c1O (protonated)
C=c1sc(C(=O)[N-]c2ccc(C(=O)[N-]Cc3ccc(C)cc3)cc2)c/c1=C/c1[n-]c(=O)[n-]c1O (cis-trans isomerization)
C=c1sc(C(=O)[N-]c2ccc(C(=O)[N-]Cc3ccc(C)cc3)cc2)c/c1=C/c1[n-]c(=O)[n-]c1O (3D coordinates assigned)
C=c1sc(C(=O)[N-]c2ccc(C(=O)[N-]Cc3ccc(C)cc3)cc2)c/c1=C/c1[n-]c(=O)[n-]c1O (optimized conformer: 127.15608286904178 kcal/mol)

>  <smiles>  (84) 
C=c1sc(C(=O)Nc2ccc(C(=O)NCc3ccc(C)cc3)cc2)cc1=Cc1[nH]c(=O)[nH]c1O

>  <score_type>  (84) 
oracle

>  <origin>  (84) 
adg

>  <m_score__min__energy>  (84) 
-16.41

>  <m_primary>  (84) 
energy

$$$$
84:0
     RDKit          3D

 53 57  0  0  0  0  0  0  0  0999 V2000
   59.5150   30.6050   50.1670 O   0  0  0  0  0  0  0  0  0  0  0  0
   60.2760   30.2540   49.2240 C   0  0  0  0  0  0  0  0  0  0  0  0
   60.0700   28.9960   48.5650 N   0  0  0  0  0  0  0  0  0  0  0  0
   59.5360   28.7970   47.2480 C   0  0  0  0  0  0  0  0  0  0  0  0
   60.3130   28.9640   46.0930 C   0  0  0  0  0  0  0  0  0  0  0  0
   59.7440   28.7330   44.8400 C   0  0  0  0  0  0  0  0  0  0  0  0
   58.4430   28.3220   44.7230 N   0  0  0  0  0  0  0  0  0  0  0  0
   57.8830   28.1170   43.3760 C   0  0  0  0  0  0  0  0  0  0  0  0
   56.9380   29.2340   43.0050 C   0  0  0  0  0  0  0  0  0  0  0  0
   55.9290   28.9680   42.2930 O   0  0  0  0  0  0  0  0  0  0  0  0
   57.1960   30.6010   43.3990 N   0  0  0  0  0  0  0  0  0  0  0  0
   57.1180   31.6810   42.3910 C   0  0  0  0  0  0  0  0  0  0  0  0
   58.3090   32.6460   42.5190 C   0  0  0  0  0  0  0  0  0  0  0  0
   58.4970   33.0250   43.9510 C   0  0  0  0  0  0  0  0  0  0  0  0
   59.1690   34.1100   44.4010 N   0  0  0  0  0  0  0  0  0  0  0  0
   59.1440   34.0080   45.7440 C   0  0  0  0  0  0  0  0  0  0  0  0
   59.7020   34.8890   46.6690 C   0  0  0  0  0  0  0  0  0  0  0  0
   59.5610   34.5840   48.0360 C   0  0  0  0  0  0  0  0  0  0  0  0
   58.8760   33.4170   48.4440 C   0  0  0  0  0  0  0  0  0  0  0  0
   58.3240   32.5420   47.4900 C   0  0  0  0  0  0  0  0  0  0  0  0
   58.4780   32.8720   46.1450 C   0  0  0  0  0  0  0  0  0  0  0  0
   58.0710   32.2310   44.9970 C   0  0  0  0  0  0  0  0  0  0  0  0
   57.3100   30.9530   44.8290 C   0  0  0  0  0  0  0  0  0  0  0  0
   57.6730   28.1470   45.8470 C   0  0  0  0  0  0  0  0  0  0  0  0
   56.4670   27.7860   45.7510 O   0  0  0  0  0  0  0  0  0  0  0  0
   58.2150   28.3680   47.1170 C   0  0  0  0  0  0  0  0  0  0  0  0
   61.4180   31.1140   48.8340 C   0  0  0  0  0  0  0  0  0  0  0  0
   61.5970   31.4920   47.4920 C   0  0  0  0  0  0  0  0  0  0  0  0
   62.6770   32.3010   47.1410 C   0  0  0  0  0  0  0  0  0  0  0  0
   63.5710   32.7290   48.1210 C   0  0  0  0  0  0  0  0  0  0  0  0
   63.3700   32.3390   49.4450 C   0  0  0  0  0  0  0  0  0  0  0  0
   62.3110   31.5480   49.7750 N   0  0  0  0  0  0  0  0  0  0  0  0
   61.3649   29.2753   46.1741 H   0  0  0  0  0  0  0  0  0  0  0  0
   60.3489   28.8831   43.9336 H   0  0  0  0  0  0  0  0  0  0  0  0
   58.7053   28.0847   42.6461 H   0  0  0  0  0  0  0  0  0  0  0  0
   57.3238   27.1697   43.3704 H   0  0  0  0  0  0  0  0  0  0  0  0
   57.1237   31.2349   41.3855 H   0  0  0  0  0  0  0  0  0  0  0  0
   56.1901   32.2477   42.5577 H   0  0  0  0  0  0  0  0  0  0  0  0
   59.2201   32.1537   42.1483 H   0  0  0  0  0  0  0  0  0  0  0  0
   58.1107   33.5506   41.9254 H   0  0  0  0  0  0  0  0  0  0  0  0
   59.6170   34.8600   43.8290 H   0  0  0  0  0  0  0  0  0  0  0  0
   60.2354   35.7935   46.3413 H   0  0  0  0  0  0  0  0  0  0  0  0
   59.9873   35.2592   48.7926 H   0  0  0  0  0  0  0  0  0  0  0  0
   58.7735   33.1909   49.5156 H   0  0  0  0  0  0  0  0  0  0  0  0
   57.7900   31.6300   47.7952 H   0  0  0  0  0  0  0  0  0  0  0  0
   57.8368   30.1460   45.3592 H   0  0  0  0  0  0  0  0  0  0  0  0
   56.2998   31.0842   45.2440 H   0  0  0  0  0  0  0  0  0  0  0  0
   57.5992   28.2034   48.0135 H   0  0  0  0  0  0  0  0  0  0  0  0
   60.8886   31.1513   46.7226 H   0  0  0  0  0  0  0  0  0  0  0  0
   62.8232   32.6009   46.0928 H   0  0  0  0  0  0  0  0  0  0  0  0
   64.4258   33.3674   47.8531 H   0  0  0  0  0  0  0  0  0  0  0  0
   64.0695   32.6715   50.2261 H   0  0  0  0  0  0  0  0  0  0  0  0
   62.1980   31.2790   50.7780 H   0  0  0  0  0  0  0  0  0  0  0  0
  1  2  2  0
  2  3  1  0
  3  4  1  0
  4  5  1  0
  5  6  2  0
  6  7  1  0
  7  8  1  0
  8  9  1  0
  9 10  2  0
  9 11  1  0
 11 12  1  0
 12 13  1  0
 13 14  1  0
 14 15  1  0
 15 16  1  0
 16 17  2  0
 17 18  1  0
 18 19  2  0
 19 20  1  0
 20 21  2  0
 21 22  1  0
 22 23  1  0
  7 24  1  0
 24 25  2  0
 24 26  1  0
  2 27  1  0
 27 28  2  0
 28 29  1  0
 29 30  2  0
 30 31  1  0
 31 32  2  0
 26  4  2  0
 32 27  1  0
 23 11  1  0
 22 14  2  0
 21 16  1  0
  5 33  1  0
  6 34  1  0
  8 35  1  0
  8 36  1  0
 12 37  1  0
 12 38  1  0
 13 39  1  0
 13 40  1  0
 15 41  1  0
 17 42  1  0
 18 43  1  0
 19 44  1  0
 20 45  1  0
 23 46  1  0
 23 47  1  0
 26 48  1  0
 28 49  1  0
 29 50  1  0
 30 51  1  0
 31 52  1  0
 32 53  1  0
M  CHG  2   3  -1  32   1
M  END
>  <UniqueID>  (85) 
82

>  <SMILES>  (85) 
O=C([N-]c1ccn(CC(=O)N2CCc3[nH]c4ccccc4c3C2)c(=O)c1)c1cccc[nH+]1

>  <Energy>  (85) 
102.32057515527298

>  <Genealogy>  (85) 
O=C([N-]c1ccn(CC(=O)N2CCc3[nH]c4ccccc4c3C2)c(=O)c1)c1cccc[nH+]1 (protonated)
O=C([N-]c1ccn(CC(=O)N2CCc3[nH]c4ccccc4c3C2)c(=O)c1)c1cccc[nH+]1 (3D coordinates assigned)
O=C([N-]c1ccn(CC(=O)N2CCc3[nH]c4ccccc4c3C2)c(=O)c1)c1cccc[nH+]1 (nonaromatic ring conformer: 102.32057515527298 kcal/mol)

>  <smiles>  (85) 
O=C(Nc1ccn(CC(=O)N2CCc3[nH]c4ccccc4c3C2)c(=O)c1)c1ccccn1

>  <score_type>  (85) 
oracle

>  <origin>  (85) 
adg

>  <m_score__min__energy>  (85) 
-9.6799999999999997

>  <m_primary>  (85) 
energy

$$$$
85:0
     RDKit          3D

 48 50  0  0  0  0  0  0  0  0999 V2000
   58.7370   29.2480   44.1820 C   0  0  0  0  0  0  0  0  0  0  0  0
   57.4110   29.7220   43.7830 N   0  0  0  0  0  0  0  0  0  0  0  0
   56.6600   28.9980   42.7570 C   0  0  0  0  0  0  0  0  0  0  0  0
   56.7980   30.8510   44.4390 C   0  0  0  0  0  0  0  0  0  0  0  0
   55.5400   30.9320   44.4880 O   0  0  0  0  0  0  0  0  0  0  0  0
   57.6030   31.9350   45.0480 C   0  0  0  0  0  0  0  0  0  0  0  0
   57.6460   33.2030   44.4500 C   0  0  0  0  0  0  0  0  0  0  0  0
   58.4040   34.2300   45.0200 C   0  0  0  0  0  0  0  0  0  0  0  0
   59.1260   33.9970   46.1930 C   0  0  0  0  0  0  0  0  0  0  0  0
   59.1150   32.7270   46.7980 C   0  0  0  0  0  0  0  0  0  0  0  0
   59.9070   32.4780   48.0280 C   0  0  0  0  0  0  0  0  0  0  0  0
   61.1130   32.8380   48.0740 O   0  0  0  0  0  0  0  0  0  0  0  0
   59.3370   31.7650   49.1910 C   0  0  0  0  0  0  0  0  0  0  0  0
   58.8500   32.5290   50.2670 C   0  0  0  0  0  0  0  0  0  0  0  0
   58.3300   31.9050   51.4050 C   0  0  0  0  0  0  0  0  0  0  0  0
   57.7670   32.8660   52.7610 Cl  0  0  0  0  0  0  0  0  0  0  0  0
   58.2790   30.5120   51.4730 C   0  0  0  0  0  0  0  0  0  0  0  0
   58.7310   29.7390   50.4010 C   0  0  0  0  0  0  0  0  0  0  0  0
   59.2570   30.3490   49.2460 C   0  0  0  0  0  0  0  0  0  0  0  0
   59.6870   29.4820   48.0860 C   0  0  0  0  0  0  0  0  0  0  0  0
   59.2940   28.1320   48.3250 O   0  0  0  0  0  0  0  0  0  0  0  0
   58.7000   27.3320   47.3480 C   0  0  0  0  0  0  0  0  0  0  0  0
   59.4980   26.4710   46.5860 C   0  0  0  0  0  0  0  0  0  0  0  0
   58.9070   25.6800   45.6040 C   0  0  0  0  0  0  0  0  0  0  0  0
   57.5290   25.7490   45.3910 C   0  0  0  0  0  0  0  0  0  0  0  0
   56.7550   26.6180   46.1770 C   0  0  0  0  0  0  0  0  0  0  0  0
   55.4720   26.7030   46.0110 N   0  0  0  0  0  0  0  0  0  0  0  0
   57.3550   27.3810   47.1260 N   0  0  0  0  0  0  0  0  0  0  0  0
   58.3690   31.6950   46.1990 C   0  0  0  0  0  0  0  0  0  0  0  0
   58.8030   29.2244   45.2798 H   0  0  0  0  0  0  0  0  0  0  0  0
   58.9000   28.2359   43.7831 H   0  0  0  0  0  0  0  0  0  0  0  0
   59.5046   29.9274   43.7831 H   0  0  0  0  0  0  0  0  0  0  0  0
   55.9482   28.3118   43.2393 H   0  0  0  0  0  0  0  0  0  0  0  0
   56.1102   29.7155   42.1302 H   0  0  0  0  0  0  0  0  0  0  0  0
   57.3569   28.4223   42.1302 H   0  0  0  0  0  0  0  0  0  0  0  0
   57.0793   33.3906   43.5261 H   0  0  0  0  0  0  0  0  0  0  0  0
   58.4319   35.2217   44.5448 H   0  0  0  0  0  0  0  0  0  0  0  0
   59.7076   34.8128   46.6471 H   0  0  0  0  0  0  0  0  0  0  0  0
   58.8785   33.6273   50.2126 H   0  0  0  0  0  0  0  0  0  0  0  0
   57.8816   30.0212   52.3737 H   0  0  0  0  0  0  0  0  0  0  0  0
   58.6755   28.6420   50.4597 H   0  0  0  0  0  0  0  0  0  0  0  0
   59.2109   29.8437   47.1627 H   0  0  0  0  0  0  0  0  0  0  0  0
   60.7808   29.5303   47.9802 H   0  0  0  0  0  0  0  0  0  0  0  0
   60.5827   26.4195   46.7613 H   0  0  0  0  0  0  0  0  0  0  0  0
   59.5250   25.0019   44.9971 H   0  0  0  0  0  0  0  0  0  0  0  0
   57.0546   25.1293   44.6158 H   0  0  0  0  0  0  0  0  0  0  0  0
   54.8140   26.8450   46.8090 H   0  0  0  0  0  0  0  0  0  0  0  0
   58.3866   30.6869   46.6388 H   0  0  0  0  0  0  0  0  0  0  0  0
  1  2  1  0
  2  3  1  0
  2  4  1  0
  4  5  2  0
  4  6  1  0
  6  7  2  0
  7  8  1  0
  8  9  2  0
  9 10  1  0
 10 11  1  0
 11 12  2  0
 11 13  1  0
 13 14  2  0
 14 15  1  0
 15 16  1  0
 15 17  2  0
 17 18  1  0
 18 19  2  0
 19 20  1  0
 20 21  1  0
 21 22  1  0
 22 23  2  0
 23 24  1  0
 24 25  2  0
 25 26  1  0
 26 27  2  3
 26 28  1  0
 10 29  2  0
 29  6  1  0
 19 13  1  0
 28 22  1  0
  1 30  1  0
  1 31  1  0
  1 32  1  0
  3 33  1  0
  3 34  1  0
  3 35  1  0
  7 36  1  0
  8 37  1  0
  9 38  1  0
 14 39  1  0
 17 40  1  0
 18 41  1  0
 20 42  1  0
 20 43  1  0
 23 44  1  0
 24 45  1  0
 25 46  1  0
 27 47  1  0
 29 48  1  0
M  CHG  1  28  -1
M  END
>  <UniqueID>  (86) 
83

>  <SMILES>  (86) 
CN(C)C(=O)c1cccc(C(=O)c2cc(Cl)ccc2COc2cccc(=N)[n-]2)c1

>  <Energy>  (86) 
59.02532738314078

>  <Genealogy>  (86) 
CN(C)C(=O)c1cccc(C(=O)c2cc(Cl)ccc2COc2cccc(=N)[n-]2)c1 (protonated)
CN(C)C(=O)c1cccc(C(=O)c2cc(Cl)ccc2COc2cccc(=N)[n-]2)c1 (3D coordinates assigned)
CN(C)C(=O)c1cccc(C(=O)c2cc(Cl)ccc2COc2cccc(=N)[n-]2)c1 (optimized conformer: 59.02532738314078 kcal/mol)

>  <smiles>  (86) 
CN(C)C(=O)c1cccc(C(=O)c2cc(Cl)ccc2COc2cccc(=N)[nH]2)c1

>  <score_type>  (86) 
oracle

>  <origin>  (86) 
adg

>  <m_score__min__energy>  (86) 
-11.960000000000001

>  <m_primary>  (86) 
energy

$$$$
86:0
     RDKit          3D

 53 55  0  0  0  0  0  0  0  0999 V2000
   61.5890   33.1660   50.0080 C   0  0  0  0  0  0  0  0  0  0  0  0
   62.1670   32.0440   49.0890 C   0  0  1  0  0  0  0  0  0  0  0  0
   62.3470   30.8040   49.9710 C   0  0  0  0  0  0  0  0  0  0  0  0
   63.4990   30.5000   50.3810 O   0  0  0  0  0  0  0  0  0  0  0  0
   61.2480   29.9550   50.3350 N   0  0  0  0  0  0  0  0  0  0  0  0
   60.6860   30.0730   51.6840 C   0  0  0  0  0  0  0  0  0  0  0  0
   59.8630   28.8350   52.0250 C   0  0  0  0  0  0  0  0  0  0  0  0
   60.5450   27.6890   51.5680 O   0  0  0  0  0  0  0  0  0  0  0  0
   60.4400   27.5940   50.1590 C   0  0  0  0  0  0  0  0  0  0  0  0
   60.8020   28.9030   49.4140 C   0  0  0  0  0  0  0  0  0  0  0  0
   61.1080   31.7710   47.9870 C   0  0  0  0  0  0  0  0  0  0  0  0
   60.9550   32.9570   47.1310 N   0  0  0  0  0  0  0  0  0  0  0  0
   59.6540   33.4380   46.7320 C   0  0  0  0  0  0  0  0  0  0  0  0
   59.1550   34.4330   47.3270 O   0  0  0  0  0  0  0  0  0  0  0  0
   58.8790   32.7960   45.6450 C   0  0  0  0  0  0  0  0  0  0  0  0
   58.6530   33.4850   44.4420 C   0  0  0  0  0  0  0  0  0  0  0  0
   57.9050   32.8930   43.4190 C   0  0  0  0  0  0  0  0  0  0  0  0
   57.3800   31.6110   43.5850 C   0  0  0  0  0  0  0  0  0  0  0  0
   57.6180   30.9030   44.7690 C   0  0  0  0  0  0  0  0  0  0  0  0
   56.9620   29.2850   44.9980 S   0  0  0  0  0  0  0  0  0  0  0  0
   55.2400   29.3410   44.8760 N   0  0  0  0  0  0  0  0  0  0  0  0
   57.3560   28.7720   46.3540 O   0  0  0  0  0  0  0  0  0  0  0  0
   57.5000   28.3530   43.9500 O   0  0  0  0  0  0  0  0  0  0  0  0
   58.3760   31.4920   45.7900 C   0  0  0  0  0  0  0  0  0  0  0  0
   62.1480   33.7260   46.7640 C   0  0  0  0  0  0  0  0  0  0  0  0
   63.4270   32.9320   47.0610 C   0  0  0  0  0  0  0  0  0  0  0  0
   63.4930   32.4050   48.4550 N   0  0  1  0  0  0  0  0  0  0  0  0
   64.3300   33.2500   49.2890 C   0  0  0  0  0  0  0  0  0  0  0  0
   65.5270   33.0320   49.4090 O   0  0  0  0  0  0  0  0  0  0  0  0
   61.7328   32.8868   51.0622 H   0  0  0  0  0  0  0  0  0  0  0  0
   62.1119   34.1122   49.8046 H   0  0  0  0  0  0  0  0  0  0  0  0
   60.5150   33.2895   49.8046 H   0  0  0  0  0  0  0  0  0  0  0  0
   61.5054   30.1755   52.4107 H   0  0  0  0  0  0  0  0  0  0  0  0
   60.0340   30.9581   51.7237 H   0  0  0  0  0  0  0  0  0  0  0  0
   59.7258   28.7722   53.1146 H   0  0  0  0  0  0  0  0  0  0  0  0
   58.8779   28.8989   51.5396 H   0  0  0  0  0  0  0  0  0  0  0  0
   61.1183   26.7998   49.8137 H   0  0  0  0  0  0  0  0  0  0  0  0
   59.3860   27.3772   49.9308 H   0  0  0  0  0  0  0  0  0  0  0  0
   61.6099   28.6921   48.6979 H   0  0  0  0  0  0  0  0  0  0  0  0
   59.8982   29.2623   48.9002 H   0  0  0  0  0  0  0  0  0  0  0  0
   61.4329   30.9181   47.3730 H   0  0  0  0  0  0  0  0  0  0  0  0
   60.1429   31.5423   48.4627 H   0  0  0  0  0  0  0  0  0  0  0  0
   59.0662   34.4950   44.3037 H   0  0  0  0  0  0  0  0  0  0  0  0
   57.7301   33.4399   42.4807 H   0  0  0  0  0  0  0  0  0  0  0  0
   56.7783   31.1560   42.7844 H   0  0  0  0  0  0  0  0  0  0  0  0
   54.8660   29.3720   45.8510 H   0  0  0  0  0  0  0  0  0  0  0  0
   58.5789   30.9287   46.7128 H   0  0  0  0  0  0  0  0  0  0  0  0
   62.1100   33.9579   45.6894 H   0  0  0  0  0  0  0  0  0  0  0  0
   62.1645   34.6519   47.3577 H   0  0  0  0  0  0  0  0  0  0  0  0
   63.4778   32.0817   46.3651 H   0  0  0  0  0  0  0  0  0  0  0  0
   64.2725   33.6248   46.9378 H   0  0  0  0  0  0  0  0  0  0  0  0
   64.0410   31.5150   48.3610 H   0  0  0  0  0  0  0  0  0  0  0  0
   63.8792   34.1004   49.8216 H   0  0  0  0  0  0  0  0  0  0  0  0
  2  1  1  1
  2  3  1  0
  3  4  2  0
  3  5  1  0
  5  6  1  0
  6  7  1  0
  7  8  1  0
  8  9  1  0
  9 10  1  0
  2 11  1  0
 11 12  1  0
 12 13  1  0
 13 14  2  0
 13 15  1  0
 15 16  2  0
 16 17  1  0
 17 18  2  0
 18 19  1  0
 19 20  1  0
 20 21  1  0
 20 22  2  0
 20 23  2  0
 19 24  2  0
 12 25  1  0
 25 26  1  0
 26 27  1  0
 27 28  1  0
 28 29  2  0
 27  2  1  0
 10  5  1  0
 24 15  1  0
  1 30  1  0
  1 31  1  0
  1 32  1  0
  6 33  1  0
  6 34  1  0
  7 35  1  0
  7 36  1  0
  9 37  1  0
  9 38  1  0
 10 39  1  0
 10 40  1  0
 11 41  1  0
 11 42  1  0
 16 43  1  0
 17 44  1  0
 18 45  1  0
 21 46  1  0
 24 47  1  0
 25 48  1  0
 25 49  1  0
 26 50  1  0
 26 51  1  0
 27 52  1  6
 28 53  1  0
M  CHG  2  21  -1  27   1
M  END
>  <UniqueID>  (87) 
84

>  <SMILES>  (87) 
C[C@@]1(C(=O)N2CCOCC2)CN(C(=O)c2cccc(S([NH-])(=O)=O)c2)CC[N@H+]1C=O

>  <Energy>  (87) 
85.85541572640047

>  <Genealogy>  (87) 
CC1(C(=O)N2CCOCC2)CN(C(=O)c2cccc(S([NH-])(=O)=O)c2)CC[NH+]1C=O (protonated)
C[C@@]1(C(=O)N2CCOCC2)CN(C(=O)c2cccc(S([NH-])(=O)=O)c2)CC[N@H+]1C=O (chirality)
C[C@@]1(C(=O)N2CCOCC2)CN(C(=O)c2cccc(S([NH-])(=O)=O)c2)CC[N@H+]1C=O (3D coordinates assigned)
C[C@@]1(C(=O)N2CCOCC2)CN(C(=O)c2cccc(S([NH-])(=O)=O)c2)CC[N@H+]1C=O (nonaromatic ring conformer: 85.85541572640047 kcal/mol)

>  <smiles>  (87) 
CC1(C(=O)N2CCOCC2)CN(C(=O)c2cccc(S(N)(=O)=O)c2)CCN1C=O

>  <score_type>  (87) 
oracle

>  <origin>  (87) 
adg

>  <m_score__min__energy>  (87) 
-10.279999999999999

>  <m_primary>  (87) 
energy

$$$$
87:0
     RDKit          3D

 42 45  0  0  0  0  0  0  0  0999 V2000
   57.2650   24.3470   44.1880 C   0  0  0  0  0  0  0  0  0  0  0  0
   57.7170   24.2660   45.6420 C   0  0  0  0  0  0  0  0  0  0  0  0
   56.8560   25.0770   46.5000 N   0  0  0  0  0  0  0  0  0  0  0  0
   56.2290   26.3160   46.1410 C   0  0  0  0  0  0  0  0  0  0  0  0
   54.9780   26.3420   46.0040 O   0  0  0  0  0  0  0  0  0  0  0  0
   56.9930   27.5530   45.9060 C   0  0  0  0  0  0  0  0  0  0  0  0
   58.2860   27.8280   46.3380 C   0  0  0  0  0  0  0  0  0  0  0  0
   58.7210   29.1170   46.0070 C   0  0  0  0  0  0  0  0  0  0  0  0
   57.7550   29.8660   45.3430 C   0  0  0  0  0  0  0  0  0  0  0  0
   57.9480   31.1990   44.8370 N   0  0  0  0  0  0  0  0  0  0  0  0
   57.6140   31.6360   43.5950 C   0  0  0  0  0  0  0  0  0  0  0  0
   57.8790   32.9520   43.3970 N   0  0  0  0  0  0  0  0  0  0  0  0
   58.4070   33.3360   44.5730 C   0  0  0  0  0  0  0  0  0  0  0  0
   58.8770   34.6010   44.9080 C   0  0  0  0  0  0  0  0  0  0  0  0
   59.4280   34.7790   46.1900 C   0  0  0  0  0  0  0  0  0  0  0  0
   59.5090   33.6900   47.1010 C   0  0  0  0  0  0  0  0  0  0  0  0
   60.0680   33.8170   48.3840 O   0  0  0  0  0  0  0  0  0  0  0  0
   61.4330   34.1180   48.6670 C   0  0  0  0  0  0  0  0  0  0  0  0
   62.3240   33.7080   47.4850 C   0  0  0  0  0  0  0  0  0  0  0  0
   63.7510   33.3290   47.8460 C   0  0  0  0  0  0  0  0  0  0  0  0
   62.7480   32.2480   47.4690 C   0  0  0  0  0  0  0  0  0  0  0  0
   59.0170   32.4260   46.7190 C   0  0  0  0  0  0  0  0  0  0  0  0
   58.4550   32.2890   45.4470 C   0  0  0  0  0  0  0  0  0  0  0  0
   56.3750   28.9220   45.1460 S   0  0  0  0  0  0  0  0  0  0  0  0
   56.1829   24.5409   44.1507 H   0  0  0  0  0  0  0  0  0  0  0  0
   57.8015   25.1633   43.6822 H   0  0  0  0  0  0  0  0  0  0  0  0
   57.4846   23.3952   43.6822 H   0  0  0  0  0  0  0  0  0  0  0  0
   57.6739   23.2185   45.9750 H   0  0  0  0  0  0  0  0  0  0  0  0
   58.7458   24.6488   45.7128 H   0  0  0  0  0  0  0  0  0  0  0  0
   58.9063   27.1036   46.8862 H   0  0  0  0  0  0  0  0  0  0  0  0
   59.7243   29.4985   46.2475 H   0  0  0  0  0  0  0  0  0  0  0  0
   57.1719   30.9866   42.8250 H   0  0  0  0  0  0  0  0  0  0  0  0
   58.8198   35.4355   44.1937 H   0  0  0  0  0  0  0  0  0  0  0  0
   59.7997   35.7697   46.4906 H   0  0  0  0  0  0  0  0  0  0  0  0
   61.5376   35.1988   48.8428 H   0  0  0  0  0  0  0  0  0  0  0  0
   61.7451   33.5594   49.5617 H   0  0  0  0  0  0  0  0  0  0  0  0
   61.8604   34.3935   46.7603 H   0  0  0  0  0  0  0  0  0  0  0  0
   64.5758   33.5768   47.1617 H   0  0  0  0  0  0  0  0  0  0  0  0
   64.4105   33.5122   48.7071 H   0  0  0  0  0  0  0  0  0  0  0  0
   62.8477   31.7145   46.5122 H   0  0  0  0  0  0  0  0  0  0  0  0
   62.3819   31.3261   47.9446 H   0  0  0  0  0  0  0  0  0  0  0  0
   59.0739   31.5682   47.4053 H   0  0  0  0  0  0  0  0  0  0  0  0
  1  2  1  0
  2  3  1  0
  3  4  1  0
  4  5  2  0
  4  6  1  0
  6  7  2  0
  7  8  1  0
  8  9  2  0
  9 10  1  0
 10 11  1  0
 11 12  2  0
 12 13  1  0
 13 14  2  0
 14 15  1  0
 15 16  2  0
 16 17  1  0
 17 18  1  0
 18 19  1  0
 19 20  1  0
 20 21  1  0
 16 22  1  0
 22 23  2  0
  9 24  1  0
 24  6  1  0
 23 10  1  0
 23 13  1  0
 21 19  1  0
  1 25  1  0
  1 26  1  0
  1 27  1  0
  2 28  1  0
  2 29  1  0
  7 30  1  0
  8 31  1  0
 11 32  1  0
 14 33  1  0
 15 34  1  0
 18 35  1  0
 18 36  1  0
 19 37  1  0
 20 38  1  0
 20 39  1  0
 21 40  1  0
 21 41  1  0
 22 42  1  0
M  CHG  1   3  -1
M  END
>  <UniqueID>  (88) 
85

>  <SMILES>  (88) 
CC[N-]C(=O)c1ccc(-n2cnc3ccc(OCC4CC4)cc32)s1

>  <Energy>  (88) 
376.30360435315924

>  <Genealogy>  (88) 
CC[N-]C(=O)c1ccc(-n2cnc3ccc(OCC4CC4)cc32)s1 (protonated)
CC[N-]C(=O)c1ccc(-n2cnc3ccc(OCC4CC4)cc32)s1 (3D coordinates assigned)
CC[N-]C(=O)c1ccc(-n2cnc3ccc(OCC4CC4)cc32)s1 (nonaromatic ring conformer: 376.30360435315924 kcal/mol)

>  <smiles>  (88) 
CCNC(=O)c1ccc(-n2cnc3ccc(OCC4CC4)cc32)s1

>  <score_type>  (88) 
oracle

>  <origin>  (88) 
adg

>  <m_score__min__energy>  (88) 
-10.31

>  <m_primary>  (88) 
energy

$$$$
88:0
     RDKit          3D

 53 56  0  0  0  0  0  0  0  0999 V2000
   51.8000   32.5420   52.8830 H   0  0  0  0  0  0  0  0  0  0  0  0
   51.3850   32.8230   52.0040 O   0  0  0  0  0  0  0  0  0  0  0  0
   51.3880   31.9630   50.9100 C   0  0  0  0  0  0  0  0  0  0  0  0
   50.8220   32.2530   49.7270 N   0  0  0  0  0  0  0  0  0  0  0  0
   51.0260   31.1240   49.0170 C   0  0  0  0  0  0  0  0  0  0  0  0
   50.6290   30.9890   47.8310 O   0  0  0  0  0  0  0  0  0  0  0  0
   51.6790   30.1460   49.6810 N   0  0  0  0  0  0  0  0  0  0  0  0
   51.9340   30.7000   50.8790 C   0  0  0  0  0  0  0  0  0  0  0  0
   52.5330   29.9650   52.0030 C   0  0  0  0  0  0  0  0  0  0  0  0
   51.9814   29.0926   52.3832 H   0  0  0  0  0  0  0  0  0  0  0  0
   53.6990   30.2670   52.6080 C   0  0  0  0  0  0  0  0  0  0  0  0
   54.7650   30.8360   51.9360 C   0  0  0  0  0  0  0  0  0  0  0  0
   54.7844   31.1380   50.8784 H   0  0  0  0  0  0  0  0  0  0  0  0
   55.8000   30.9540   52.8410 C   0  0  0  0  0  0  0  0  0  0  0  0
   57.1460   31.5450   52.5090 C   0  0  0  0  0  0  0  0  0  0  0  0
   57.0040   32.5747   52.1492 H   0  0  0  0  0  0  0  0  0  0  0  0
   57.7622   31.5266   53.4200 H   0  0  0  0  0  0  0  0  0  0  0  0
   57.8580   30.7500   51.4450 C   0  0  0  0  0  0  0  0  0  0  0  0
   57.7760   29.4910   51.4790 O   0  0  0  0  0  0  0  0  0  0  0  0
   58.6050   31.3850   50.3840 N   0  0  0  0  0  0  0  0  0  0  0  0
   59.0820   32.7680   50.5050 C   0  0  0  0  0  0  0  0  0  0  0  0
   58.2468   33.4556   50.3061 H   0  0  0  0  0  0  0  0  0  0  0  0
   59.4694   32.9180   51.5235 H   0  0  0  0  0  0  0  0  0  0  0  0
   60.2130   33.0480   49.5040 C   0  0  0  0  0  0  0  0  0  0  0  0
   60.4652   34.1176   49.5524 H   0  0  0  0  0  0  0  0  0  0  0  0
   61.0627   32.4086   49.7854 H   0  0  0  0  0  0  0  0  0  0  0  0
   59.8540   32.7110   48.1020 N   0  0  0  0  0  0  0  0  0  0  0  0
   59.4070   33.8940   47.3390 C   0  0  0  0  0  0  0  0  0  0  0  0
   58.5882   34.3884   47.8823 H   0  0  0  0  0  0  0  0  0  0  0  0
   60.2536   34.5867   47.2232 H   0  0  0  0  0  0  0  0  0  0  0  0
   58.9110   33.4730   45.9480 C   0  0  0  0  0  0  0  0  0  0  0  0
   59.5175   32.5571   45.8903 H   0  0  0  0  0  0  0  0  0  0  0  0
   58.5930   34.5950   44.9690 C   0  0  0  0  0  0  0  0  0  0  0  0
   58.8164   35.6383   45.2368 H   0  0  0  0  0  0  0  0  0  0  0  0
   58.8501   34.8088   43.9211 H   0  0  0  0  0  0  0  0  0  0  0  0
   57.4650   33.8560   45.6690 C   0  0  0  0  0  0  0  0  0  0  0  0
   56.8718   34.3646   46.4433 H   0  0  0  0  0  0  0  0  0  0  0  0
   56.5674   33.3136   45.3371 H   0  0  0  0  0  0  0  0  0  0  0  0
   58.8850   31.5950   47.9650 C   0  0  0  0  0  0  0  0  0  0  0  0
   57.8728   32.0164   47.8766 H   0  0  0  0  0  0  0  0  0  0  0  0
   59.1648   31.0193   47.0704 H   0  0  0  0  0  0  0  0  0  0  0  0
   58.9150   30.6380   49.1600 C   0  0  0  0  0  0  0  0  0  0  0  0
   58.1678   29.8440   49.0143 H   0  0  0  0  0  0  0  0  0  0  0  0
   59.9139   30.1855   49.2461 H   0  0  0  0  0  0  0  0  0  0  0  0
   55.4210   30.4750   54.0510 N   0  0  0  0  0  0  0  0  0  0  0  0
   56.2310   30.4590   55.2740 C   0  0  0  0  0  0  0  0  0  0  0  0
   55.5690   30.4721   56.1524 H   0  0  0  0  0  0  0  0  0  0  0  0
   56.8479   29.5485   55.2933 H   0  0  0  0  0  0  0  0  0  0  0  0
   56.8834   31.3444   55.2933 H   0  0  0  0  0  0  0  0  0  0  0  0
   54.1180   30.1060   53.9390 C   0  0  0  0  0  0  0  0  0  0  0  0
   53.3480   29.7840   54.9910 C   0  0  0  0  0  0  0  0  0  0  0  0
   53.7958   29.6866   55.9910 H   0  0  0  0  0  0  0  0  0  0  0  0
   52.2695   29.6177   54.8527 H   0  0  0  0  0  0  0  0  0  0  0  0
  1  2  1  0
  2  3  1  0
  3  4  1  0
  4  5  1  0
  5  6  2  0
  5  7  1  0
  7  8  1  0
  8  9  1  0
  9 10  1  0
  9 11  2  0
 11 12  1  0
 12 13  1  0
 12 14  2  0
 14 15  1  0
 15 16  1  0
 15 17  1  0
 15 18  1  0
 18 19  2  0
 18 20  1  0
 20 21  1  0
 21 22  1  0
 21 23  1  0
 21 24  1  0
 24 25  1  0
 24 26  1  0
 24 27  1  0
 27 28  1  0
 28 29  1  0
 28 30  1  0
 28 31  1  0
 31 32  1  0
 31 33  1  0
 33 34  1  0
 33 35  1  0
 33 36  1  0
 36 37  1  0
 36 38  1  0
 27 39  1  0
 39 40  1  0
 39 41  1  0
 39 42  1  0
 42 43  1  0
 42 44  1  0
 14 45  1  0
 45 46  1  0
 46 47  1  0
 46 48  1  0
 46 49  1  0
 45 50  1  0
 50 51  2  0
 51 52  1  0
 51 53  1  0
  8  3  2  0
 50 11  1  0
 42 20  1  0
 36 31  1  0
M  CHG  2   4  -1   7  -1
M  END
>  <UniqueID>  (89) 
86

>  <SMILES>  (89) 
C=c1/c(=C\c2[n-]c(=O)[n-]c2O)cc(CC(=O)N2CCN(CC3CC3)CC2)n1C

>  <Energy>  (89) 
393.8718768376544

>  <Genealogy>  (89) 
C=c1c(=Cc2[n-]c(=O)[n-]c2O)cc(CC(=O)N2CCN(CC3CC3)CC2)n1C (protonated)
C=c1/c(=C\c2[n-]c(=O)[n-]c2O)cc(CC(=O)N2CCN(CC3CC3)CC2)n1C (cis-trans isomerization)
C=c1/c(=C\c2[n-]c(=O)[n-]c2O)cc(CC(=O)N2CCN(CC3CC3)CC2)n1C (3D coordinates assigned)
C=c1/c(=C\c2[n-]c(=O)[n-]c2O)cc(CC(=O)N2CCN(CC3CC3)CC2)n1C (nonaromatic ring conformer: 393.8718768376544 kcal/mol)

>  <smiles>  (89) 
C=c1c(=Cc2[nH]c(=O)[nH]c2O)cc(CC(=O)N2CCN(CC3CC3)CC2)n1C

>  <score_type>  (89) 
oracle

>  <origin>  (89) 
adg

>  <m_score__min__energy>  (89) 
-13.960000000000001

>  <m_primary>  (89) 
energy

$$$$
89:0
     RDKit          3D

 43 45  0  0  0  0  0  0  0  0999 V2000
   56.1710   27.6590   45.5720 O   0  0  0  0  0  0  0  0  0  0  0  0
   57.0470   28.5650   45.5880 C   0  0  0  0  0  0  0  0  0  0  0  0
   56.6390   29.9160   45.3380 N   0  0  0  0  0  0  0  0  0  0  0  0
   57.0490   30.7410   44.2380 C   0  0  0  0  0  0  0  0  0  0  0  0
   56.6250   30.4110   42.9450 C   0  0  0  0  0  0  0  0  0  0  0  0
   56.9870   31.2140   41.8580 C   0  0  0  0  0  0  0  0  0  0  0  0
   57.7560   32.3630   42.0610 C   0  0  0  0  0  0  0  0  0  0  0  0
   58.1570   32.7150   43.3540 C   0  0  0  0  0  0  0  0  0  0  0  0
   57.7980   31.9140   44.4420 C   0  0  0  0  0  0  0  0  0  0  0  0
   58.5070   28.1830   45.7260 C   0  0  0  0  0  0  0  0  0  0  0  0
   59.4230   29.3210   45.2150 C   0  0  0  0  0  0  0  0  0  0  0  0
   60.8100   29.2480   45.8690 C   0  0  0  0  0  0  0  0  0  0  0  0
   60.7580   29.3540   47.3480 N   0  0  0  0  0  0  0  0  0  0  0  0
   61.2130   30.9520   47.8950 S   0  0  0  0  0  0  0  0  0  0  0  0
   62.5640   31.3030   47.3330 O   0  0  0  0  0  0  0  0  0  0  0  0
   61.3180   30.9590   49.3950 O   0  0  0  0  0  0  0  0  0  0  0  0
   60.0390   32.1680   47.3880 C   0  0  0  0  0  0  0  0  0  0  0  0
   58.7080   32.0930   47.8260 C   0  0  0  0  0  0  0  0  0  0  0  0
   57.7850   33.0710   47.4430 C   0  0  0  0  0  0  0  0  0  0  0  0
   58.1830   34.1260   46.6170 C   0  0  0  0  0  0  0  0  0  0  0  0
   59.5060   34.2020   46.1700 C   0  0  0  0  0  0  0  0  0  0  0  0
   60.4300   33.2250   46.5510 C   0  0  0  0  0  0  0  0  0  0  0  0
   59.4700   28.9520   47.9530 C   0  0  0  0  0  0  0  0  0  0  0  0
   58.8300   27.7880   47.1890 C   0  0  0  0  0  0  0  0  0  0  0  0
   56.0049   29.5170   42.7832 H   0  0  0  0  0  0  0  0  0  0  0  0
   56.6658   30.9405   40.8421 H   0  0  0  0  0  0  0  0  0  0  0  0
   58.0457   32.9900   41.2049 H   0  0  0  0  0  0  0  0  0  0  0  0
   58.7558   33.6236   43.5150 H   0  0  0  0  0  0  0  0  0  0  0  0
   58.1018   32.2015   45.4594 H   0  0  0  0  0  0  0  0  0  0  0  0
   58.7031   27.3021   45.0970 H   0  0  0  0  0  0  0  0  0  0  0  0
   59.5345   29.2304   44.1244 H   0  0  0  0  0  0  0  0  0  0  0  0
   58.9628   30.2851   45.4771 H   0  0  0  0  0  0  0  0  0  0  0  0
   61.2735   28.2868   45.6022 H   0  0  0  0  0  0  0  0  0  0  0  0
   61.3952   30.1022   45.4975 H   0  0  0  0  0  0  0  0  0  0  0  0
   58.3897   31.2621   48.4728 H   0  0  0  0  0  0  0  0  0  0  0  0
   56.7437   33.0100   47.7924 H   0  0  0  0  0  0  0  0  0  0  0  0
   57.4562   34.8959   46.3188 H   0  0  0  0  0  0  0  0  0  0  0  0
   59.8195   35.0309   45.5184 H   0  0  0  0  0  0  0  0  0  0  0  0
   61.4685   33.2846   46.1933 H   0  0  0  0  0  0  0  0  0  0  0  0
   59.6450   28.6430   48.9941 H   0  0  0  0  0  0  0  0  0  0  0  0
   58.7850   29.8116   47.9097 H   0  0  0  0  0  0  0  0  0  0  0  0
   59.5264   26.9366   47.1846 H   0  0  0  0  0  0  0  0  0  0  0  0
   57.8890   27.5193   47.6913 H   0  0  0  0  0  0  0  0  0  0  0  0
  1  2  2  0
  2  3  1  0
  3  4  1  0
  4  5  2  0
  5  6  1  0
  6  7  2  0
  7  8  1  0
  8  9  2  0
  2 10  1  0
 10 11  1  0
 11 12  1  0
 12 13  1  0
 13 14  1  0
 14 15  2  0
 14 16  2  0
 14 17  1  0
 17 18  2  0
 18 19  1  0
 19 20  2  0
 20 21  1  0
 21 22  2  0
 13 23  1  0
 23 24  1  0
  9  4  1  0
 24 10  1  0
 22 17  1  0
  5 25  1  0
  6 26  1  0
  7 27  1  0
  8 28  1  0
  9 29  1  0
 10 30  1  0
 11 31  1  0
 11 32  1  0
 12 33  1  0
 12 34  1  0
 18 35  1  0
 19 36  1  0
 20 37  1  0
 21 38  1  0
 22 39  1  0
 23 40  1  0
 23 41  1  0
 24 42  1  0
 24 43  1  0
M  CHG  1   3  -1
M  END
>  <UniqueID>  (90) 
87

>  <SMILES>  (90) 
O=C([N-]c1ccccc1)C1CCN(S(=O)(=O)c2ccccc2)CC1

>  <Energy>  (90) 
55.3382794608378

>  <Genealogy>  (90) 
O=C([N-]c1ccccc1)C1CCN(S(=O)(=O)c2ccccc2)CC1 (protonated)
O=C([N-]c1ccccc1)C1CCN(S(=O)(=O)c2ccccc2)CC1 (3D coordinates assigned)
O=C([N-]c1ccccc1)C1CCN(S(=O)(=O)c2ccccc2)CC1 (nonaromatic ring conformer: 55.3382794608378 kcal/mol)

>  <smiles>  (90) 
O=C(Nc1ccccc1)C1CCN(S(=O)(=O)c2ccccc2)CC1

>  <score_type>  (90) 
oracle

>  <origin>  (90) 
adg

>  <m_score__min__energy>  (90) 
-10.83

>  <m_primary>  (90) 
energy

$$$$
90:0
     RDKit          3D

 80 85  0  0  0  0  0  0  0  0999 V2000
   57.8090   32.5700   47.3750 O   0  0  0  0  0  0  0  0  0  0  0  0
   58.9950   32.6620   46.9580 C   0  0  0  0  0  0  0  0  0  0  0  0
   59.6270   34.0160   46.8410 C   0  0  0  0  0  0  0  0  0  0  0  0
   61.0610   33.9530   47.2900 C   0  0  0  0  0  0  0  0  0  0  0  0
   61.3970   34.2280   48.6250 C   0  0  0  0  0  0  0  0  0  0  0  0
   62.7340   34.2010   49.0360 C   0  0  0  0  0  0  0  0  0  0  0  0
   63.7450   33.9080   48.1150 C   0  0  0  0  0  0  0  0  0  0  0  0
   63.4200   33.6460   46.7800 C   0  0  0  0  0  0  0  0  0  0  0  0
   62.0830   33.6700   46.3670 C   0  0  0  0  0  0  0  0  0  0  0  0
   59.7380   31.4840   46.5990 N   0  0  0  0  0  0  0  0  0  0  0  0
   59.3200   30.1540   46.9480 C   0  0  0  0  0  0  0  0  0  0  0  0
   58.2890   29.5300   46.2240 C   0  0  0  0  0  0  0  0  0  0  0  0
   57.8560   28.2390   46.5550 C   0  0  0  0  0  0  0  0  0  0  0  0
   56.7870   27.5880   45.7650 C   0  0  0  0  0  0  0  0  0  0  0  0
   56.0500   28.3010   45.0300 O   0  0  0  0  0  0  0  0  0  0  0  0
   56.5730   26.1620   45.8130 N   0  0  0  0  0  0  0  0  0  0  0  0
   57.6940   25.2320   46.0260 C   0  0  0  0  0  0  0  0  0  0  0  0
   57.6160   24.0650   45.0340 C   0  0  0  0  0  0  0  0  0  0  0  0
   56.1980   23.4270   44.9400 C   0  0  0  0  0  0  0  0  0  0  0  0
   56.2240   21.9730   45.2230 N   0  0  0  0  0  0  0  0  0  0  0  0
   56.2690   21.0000   44.1510 C   0  0  0  0  0  0  0  0  0  0  0  0
   56.5590   21.3480   42.9750 O   0  0  0  0  0  0  0  0  0  0  0  0
   56.0240   19.5460   44.4370 C   0  0  0  0  0  0  0  0  0  0  0  0
   55.1150   19.3780   45.6580 C   0  0  0  0  0  0  0  0  0  0  0  0
   55.6300   20.1870   46.8180 C   0  0  0  0  0  0  0  0  0  0  0  0
   55.5390   19.6910   48.1260 C   0  0  0  0  0  0  0  0  0  0  0  0
   56.0230   20.4430   49.1980 C   0  0  0  0  0  0  0  0  0  0  0  0
   56.6020   21.6930   48.9700 C   0  0  0  0  0  0  0  0  0  0  0  0
   56.6800   22.2050   47.6720 C   0  0  0  0  0  0  0  0  0  0  0  0
   56.1640   21.4710   46.5820 C   0  0  0  0  0  0  0  0  0  0  0  0
   55.1480   24.1280   45.8230 C   0  0  0  0  0  0  0  0  0  0  0  0
   55.2080   25.6460   45.6270 C   0  0  0  0  0  0  0  0  0  0  0  0
   58.4250   27.5880   47.6570 C   0  0  0  0  0  0  0  0  0  0  0  0
   59.4390   28.2000   48.3910 C   0  0  0  0  0  0  0  0  0  0  0  0
   59.9050   29.4780   48.0430 C   0  0  0  0  0  0  0  0  0  0  0  0
   61.0180   30.1050   48.8500 C   0  0  0  0  0  0  0  0  0  0  0  0
   60.5190   31.2770   49.5990 N   0  0  0  0  0  0  0  0  0  0  0  0
   61.3360   31.5060   50.8040 C   0  0  0  0  0  0  0  0  0  0  0  0
   60.8340   32.7580   51.5560 C   0  0  0  0  0  0  0  0  0  0  0  0
   59.5920   33.2270   51.0610 O   0  0  0  0  0  0  0  0  0  0  0  0
   58.6650   32.1620   51.0130 C   0  0  0  0  0  0  0  0  0  0  0  0
   59.0970   31.1080   49.9760 C   0  0  0  0  0  0  0  0  0  0  0  0
   59.5874   34.3475   45.7929 H   0  0  0  0  0  0  0  0  0  0  0  0
   59.0796   34.7270   47.4773 H   0  0  0  0  0  0  0  0  0  0  0  0
   60.6056   34.4657   49.3511 H   0  0  0  0  0  0  0  0  0  0  0  0
   62.9905   34.4105   50.0850 H   0  0  0  0  0  0  0  0  0  0  0  0
   64.7955   33.8836   48.4405 H   0  0  0  0  0  0  0  0  0  0  0  0
   64.2156   33.4210   46.0544 H   0  0  0  0  0  0  0  0  0  0  0  0
   61.8307   33.4666   45.3158 H   0  0  0  0  0  0  0  0  0  0  0  0
   60.6080   31.6050   46.0330 H   0  0  0  0  0  0  0  0  0  0  0  0
   57.8156   30.0626   45.3860 H   0  0  0  0  0  0  0  0  0  0  0  0
   58.6430   25.7688   45.8803 H   0  0  0  0  0  0  0  0  0  0  0  0
   57.6382   24.8343   47.0501 H   0  0  0  0  0  0  0  0  0  0  0  0
   57.8987   24.4350   44.0374 H   0  0  0  0  0  0  0  0  0  0  0  0
   58.3002   23.2839   45.3969 H   0  0  0  0  0  0  0  0  0  0  0  0
   55.8860   23.5750   43.8956 H   0  0  0  0  0  0  0  0  0  0  0  0
   55.5433   19.0825   43.5629 H   0  0  0  0  0  0  0  0  0  0  0  0
   56.9885   19.0601   44.6458 H   0  0  0  0  0  0  0  0  0  0  0  0
   54.1004   19.7177   45.4027 H   0  0  0  0  0  0  0  0  0  0  0  0
   55.1002   18.3163   45.9453 H   0  0  0  0  0  0  0  0  0  0  0  0
   55.0847   18.7059   48.3083 H   0  0  0  0  0  0  0  0  0  0  0  0
   55.9482   20.0506   50.2229 H   0  0  0  0  0  0  0  0  0  0  0  0
   56.9978   22.2763   49.8144 H   0  0  0  0  0  0  0  0  0  0  0  0
   57.1464   23.1860   47.4985 H   0  0  0  0  0  0  0  0  0  0  0  0
   54.1457   23.7671   45.5489 H   0  0  0  0  0  0  0  0  0  0  0  0
   55.3594   23.8972   46.8775 H   0  0  0  0  0  0  0  0  0  0  0  0
   54.8704   25.8881   44.6085 H   0  0  0  0  0  0  0  0  0  0  0  0
   54.5568   26.1162   46.3786 H   0  0  0  0  0  0  0  0  0  0  0  0
   58.0692   26.5877   47.9447 H   0  0  0  0  0  0  0  0  0  0  0  0
   59.8792   27.6763   49.2524 H   0  0  0  0  0  0  0  0  0  0  0  0
   61.4123   29.3631   49.5600 H   0  0  0  0  0  0  0  0  0  0  0  0
   61.8124   30.4339   48.1639 H   0  0  0  0  0  0  0  0  0  0  0  0
   61.2619   30.6303   51.4655 H   0  0  0  0  0  0  0  0  0  0  0  0
   62.3830   31.6617   50.5047 H   0  0  0  0  0  0  0  0  0  0  0  0
   60.7172   32.5068   52.6206 H   0  0  0  0  0  0  0  0  0  0  0  0
   61.5758   33.5566   51.4077 H   0  0  0  0  0  0  0  0  0  0  0  0
   58.6066   31.6896   52.0047 H   0  0  0  0  0  0  0  0  0  0  0  0
   57.6827   32.5621   50.7214 H   0  0  0  0  0  0  0  0  0  0  0  0
   58.9565   30.1047   50.4046 H   0  0  0  0  0  0  0  0  0  0  0  0
   58.4807   31.2349   49.0738 H   0  0  0  0  0  0  0  0  0  0  0  0
  1  2  2  0
  2  3  1  0
  3  4  1  0
  4  5  2  0
  5  6  1  0
  6  7  2  0
  7  8  1  0
  8  9  2  0
  2 10  1  0
 10 11  1  0
 11 12  2  0
 12 13  1  0
 13 14  1  0
 14 15  2  0
 14 16  1  0
 16 17  1  0
 17 18  1  0
 18 19  1  0
 19 20  1  0
 20 21  1  0
 21 22  2  0
 21 23  1  0
 23 24  1  0
 24 25  1  0
 25 26  2  0
 26 27  1  0
 27 28  2  0
 28 29  1  0
 29 30  2  0
 19 31  1  0
 31 32  1  0
 13 33  2  0
 33 34  1  0
 34 35  2  0
 35 36  1  0
 36 37  1  0
 37 38  1  0
 38 39  1  0
 39 40  1  0
 40 41  1  0
 41 42  1  0
  9  4  1  0
 35 11  1  0
 42 37  1  0
 32 16  1  0
 30 20  1  0
 30 25  1  0
  3 43  1  0
  3 44  1  0
  5 45  1  0
  6 46  1  0
  7 47  1  0
  8 48  1  0
  9 49  1  0
 10 50  1  0
 12 51  1  0
 17 52  1  0
 17 53  1  0
 18 54  1  0
 18 55  1  0
 19 56  1  0
 23 57  1  0
 23 58  1  0
 24 59  1  0
 24 60  1  0
 26 61  1  0
 27 62  1  0
 28 63  1  0
 29 64  1  0
 31 65  1  0
 31 66  1  0
 32 67  1  0
 32 68  1  0
 33 69  1  0
 34 70  1  0
 36 71  1  0
 36 72  1  0
 38 73  1  0
 38 74  1  0
 39 75  1  0
 39 76  1  0
 41 77  1  0
 41 78  1  0
 42 79  1  0
 42 80  1  0
M  END
>  <UniqueID>  (91) 
88

>  <SMILES>  (91) 
O=C(Cc1ccccc1)Nc1cc(C(=O)N2CCC(N3C(=O)CCc4ccccc43)CC2)ccc1CN1CCOCC1

>  <Energy>  (91) 
109.6670505827545

>  <Genealogy>  (91) 
O=C(Cc1ccccc1)Nc1cc(C(=O)N2CCC(N3C(=O)CCc4ccccc43)CC2)ccc1CN1CCOCC1 (3D coordinates assigned)
O=C(Cc1ccccc1)Nc1cc(C(=O)N2CCC(N3C(=O)CCc4ccccc43)CC2)ccc1CN1CCOCC1 (nonaromatic ring conformer: 109.6670505827545 kcal/mol)

>  <smiles>  (91) 
O=C(Cc1ccccc1)Nc1cc(C(=O)N2CCC(N3C(=O)CCc4ccccc43)CC2)ccc1CN1CCOCC1

>  <score_type>  (91) 
oracle

>  <origin>  (91) 
adg

>  <m_score__min__energy>  (91) 
-10.220000000000001

>  <m_primary>  (91) 
energy

$$$$
