0:0
     RDKit          3D

 47 50  0  0  0  0  0  0  0  0999 V2000
   58.9001   26.2929   44.8376 H   0  0  0  0  0  0  0  0  0  0  0  0
   58.9600   27.3880   44.9220 C   0  0  0  0  0  0  0  0  0  0  0  0
   60.0320   27.9770   45.5970 C   0  0  0  0  0  0  0  0  0  0  0  0
   60.8209   27.3441   46.0295 H   0  0  0  0  0  0  0  0  0  0  0  0
   60.1070   29.3750   45.7260 C   0  0  0  0  0  0  0  0  0  0  0  0
   61.2140   30.0100   46.3880 N   0  0  0  0  0  0  0  0  0  0  0  0
   62.1710   29.7070   46.1020 H   0  0  0  0  0  0  0  0  0  0  0  0
   61.0710   31.0690   47.3530 C   0  0  0  0  0  0  0  0  0  0  0  0
   59.9300   31.5460   47.6020 O   0  0  0  0  0  0  0  0  0  0  0  0
   62.2480   31.6240   48.0640 C   0  0  0  0  0  0  0  0  0  0  0  0
   63.0030   32.6480   47.4650 C   0  0  0  0  0  0  0  0  0  0  0  0
   62.7126   33.0291   46.4748 H   0  0  0  0  0  0  0  0  0  0  0  0
   64.1170   33.1870   48.1120 C   0  0  0  0  0  0  0  0  0  0  0  0
   64.6911   33.9944   47.6339 H   0  0  0  0  0  0  0  0  0  0  0  0
   64.5060   32.7030   49.3680 C   0  0  0  0  0  0  0  0  0  0  0  0
   65.6250   33.2360   50.0250 C   0  0  0  0  0  0  0  0  0  0  0  0
   66.2032   34.0455   49.5556 H   0  0  0  0  0  0  0  0  0  0  0  0
   66.0070   32.7400   51.2760 C   0  0  0  0  0  0  0  0  0  0  0  0
   66.8839   33.1618   51.7890 H   0  0  0  0  0  0  0  0  0  0  0  0
   65.2780   31.7110   51.8750 C   0  0  0  0  0  0  0  0  0  0  0  0
   65.5832   31.3238   52.8583 H   0  0  0  0  0  0  0  0  0  0  0  0
   64.1620   31.1710   51.2300 C   0  0  0  0  0  0  0  0  0  0  0  0
   63.5930   30.3589   51.7062 H   0  0  0  0  0  0  0  0  0  0  0  0
   63.7650   31.6620   49.9760 C   0  0  0  0  0  0  0  0  0  0  0  0
   62.6460   31.1270   49.3190 C   0  0  0  0  0  0  0  0  0  0  0  0
   62.0754   30.3125   49.7890 H   0  0  0  0  0  0  0  0  0  0  0  0
   59.1150   30.1710   45.1340 C   0  0  0  0  0  0  0  0  0  0  0  0
   59.1798   31.2667   45.2064 H   0  0  0  0  0  0  0  0  0  0  0  0
   58.0420   29.5820   44.4510 C   0  0  0  0  0  0  0  0  0  0  0  0
   56.8110   30.5990   43.7100 S   0  0  0  0  0  0  0  0  0  0  0  0
   56.4220   30.0660   42.3590 O   0  0  0  0  0  0  0  0  0  0  0  0
   55.5970   30.6110   44.5960 O   0  0  0  0  0  0  0  0  0  0  0  0
   57.4010   32.2210   43.5350 N   0  0  0  0  0  0  0  0  0  0  0  0
   57.7890   32.9710   44.5210 C   0  0  0  0  0  0  0  0  0  0  0  0
   57.1400   32.9460   45.7740 N   0  0  0  0  0  0  0  0  0  0  0  0
   56.3400   32.3220   46.0200 H   0  0  0  0  0  0  0  0  0  0  0  0
   57.8030   33.8430   46.6980 C   0  0  0  0  0  0  0  0  0  0  0  0
   58.2593   33.2738   47.5213 H   0  0  0  0  0  0  0  0  0  0  0  0
   57.0935   34.5547   47.1453 H   0  0  0  0  0  0  0  0  0  0  0  0
   58.8890   34.5690   45.8850 C   0  0  0  0  0  0  0  0  0  0  0  0
   59.8637   34.4688   46.3850 H   0  0  0  0  0  0  0  0  0  0  0  0
   58.6591   35.6412   45.7981 H   0  0  0  0  0  0  0  0  0  0  0  0
   58.9390   33.9090   44.4980 C   0  0  0  0  0  0  0  0  0  0  0  0
   59.8856   33.3676   44.3538 H   0  0  0  0  0  0  0  0  0  0  0  0
   58.8833   34.6361   43.6745 H   0  0  0  0  0  0  0  0  0  0  0  0
   57.9640   28.1860   44.3540 C   0  0  0  0  0  0  0  0  0  0  0  0
   57.1175   27.7182   43.8300 H   0  0  0  0  0  0  0  0  0  0  0  0
  1  2  1  0
  2  3  2  0
  3  4  1  0
  3  5  1  0
  5  6  1  0
  6  7  1  0
  6  8  1  0
  8  9  2  0
  8 10  1  0
 10 11  2  0
 11 12  1  0
 11 13  1  0
 13 14  1  0
 13 15  2  0
 15 16  1  0
 16 17  1  0
 16 18  2  0
 18 19  1  0
 18 20  1  0
 20 21  1  0
 20 22  2  0
 22 23  1  0
 22 24  1  0
 24 25  2  0
 25 26  1  0
  5 27  2  0
 27 28  1  0
 27 29  1  0
 29 30  1  0
 30 31  2  0
 30 32  2  0
 30 33  1  0
 33 34  2  0
 34 35  1  0
 35 36  1  0
 35 37  1  0
 37 38  1  0
 37 39  1  0
 37 40  1  0
 40 41  1  0
 40 42  1  0
 40 43  1  0
 43 44  1  0
 43 45  1  0
 29 46  2  0
 46 47  1  0
 46  2  1  0
 25 10  1  0
 43 34  1  0
 24 15  1  0
M  END
>  <UniqueID>  (1) 
1

>  <SMILES>  (1) 
O=C(Nc1cccc(S(=O)(=O)/N=C2\CCCN2)c1)c1ccc2ccccc2c1

>  <Energy>  (1) 
68.449626477143

>  <Genealogy>  (1) 
O=C(Nc1cccc(S(=O)(=O)/N=C2\CCCN2)c1)c1ccc2ccccc2c1 (cis-trans isomerization)
O=C(Nc1cccc(S(=O)(=O)/N=C2\CCCN2)c1)c1ccc2ccccc2c1 (3D coordinates assigned)
O=C(Nc1cccc(S(=O)(=O)/N=C2\CCCN2)c1)c1ccc2ccccc2c1 (nonaromatic ring conformer: 68.449626477143 kcal/mol)

>  <smiles>  (1) 
O=C(Nc1cccc(S(=O)(=O)N=C2CCCN2)c1)c1ccc2ccccc2c1

>  <score_type>  (1) 
oracle

>  <origin>  (1) 
adg

>  <m_score__min__energy>  (1) 
-9.4800000000000004

>  <m_primary>  (1) 
energy

$$$$
1:0
     RDKit          3D

 66 69  0  0  0  0  0  0  0  0999 V2000
   64.4740   33.1280   48.0700 N   0  0  0  0  0  0  0  0  0  0  0  0
   63.9220   32.4910   49.0600 C   0  0  0  0  0  0  0  0  0  0  0  0
   64.6540   31.8600   50.1040 N   0  0  0  0  0  0  0  0  0  0  0  0
   66.1160   31.9230   50.2930 C   0  0  0  0  0  0  0  0  0  0  0  0
   66.5920   33.3990   50.3890 C   0  0  0  0  0  0  0  0  0  0  0  0
   66.9850   33.7990   51.8170 C   0  0  0  0  0  0  0  0  0  0  0  0
   68.1090   32.9000   52.3710 C   0  0  0  0  0  0  0  0  0  0  0  0
   68.0160   31.4340   51.8960 C   0  0  0  0  0  0  0  0  0  0  0  0
   66.5860   31.0580   51.4920 C   0  0  0  0  0  0  0  0  0  0  0  0
   63.6840   31.3580   51.0770 C   0  0  0  0  0  0  0  0  0  0  0  0
   62.2850   31.6480   50.4880 C   0  0  0  0  0  0  0  0  0  0  0  0
   62.5200   32.3780   49.2530 N   0  0  0  0  0  0  0  0  0  0  0  0
   61.2400   32.9370   48.2180 S   0  0  0  0  0  0  0  0  0  0  0  0
   60.3870   33.8970   49.0000 O   0  0  0  0  0  0  0  0  0  0  0  0
   61.7960   33.6690   47.0290 O   0  0  0  0  0  0  0  0  0  0  0  0
   60.2550   31.5740   47.6860 C   0  0  0  0  0  0  0  0  0  0  0  0
   60.3780   31.0770   46.3810 C   0  0  0  0  0  0  0  0  0  0  0  0
   59.5900   30.0020   45.9580 C   0  0  0  0  0  0  0  0  0  0  0  0
   58.6610   29.4180   46.8340 C   0  0  0  0  0  0  0  0  0  0  0  0
   57.8200   28.2560   46.3800 C   0  0  0  0  0  0  0  0  0  0  0  0
   58.0670   27.9510   44.8990 C   0  0  0  0  0  0  0  0  0  0  0  0
   57.3980   28.9380   44.0580 N   0  0  0  0  0  0  0  0  0  0  0  0
   56.2720   29.7020   44.4970 C   0  0  0  0  0  0  0  0  0  0  0  0
   55.2230   29.1060   44.8640 O   0  0  0  0  0  0  0  0  0  0  0  0
   56.3450   31.1300   44.5420 N   0  0  0  0  0  0  0  0  0  0  0  0
   57.3940   31.9000   43.8870 C   0  0  0  0  0  0  0  0  0  0  0  0
   57.9350   32.9270   44.8430 C   0  0  0  0  0  0  0  0  0  0  0  0
   58.8950   33.8600   44.4110 C   0  0  0  0  0  0  0  0  0  0  0  0
   59.3850   34.8270   45.2950 C   0  0  0  0  0  0  0  0  0  0  0  0
   58.9340   34.8620   46.6170 C   0  0  0  0  0  0  0  0  0  0  0  0
   57.9920   33.9270   47.0590 C   0  0  0  0  0  0  0  0  0  0  0  0
   57.4930   32.9630   46.1770 C   0  0  0  0  0  0  0  0  0  0  0  0
   58.5560   29.9000   48.1470 C   0  0  0  0  0  0  0  0  0  0  0  0
   59.3440   30.9750   48.5690 C   0  0  0  0  0  0  0  0  0  0  0  0
   63.9140   33.7020   47.4070 H   0  0  0  0  0  0  0  0  0  0  0  0
   65.5010   33.0860   47.8980 H   0  0  0  0  0  0  0  0  0  0  0  0
   66.5952   31.4839   49.4056 H   0  0  0  0  0  0  0  0  0  0  0  0
   67.4650   33.5313   49.7329 H   0  0  0  0  0  0  0  0  0  0  0  0
   65.7533   34.0408   50.0815 H   0  0  0  0  0  0  0  0  0  0  0  0
   67.3326   34.8426   51.8122 H   0  0  0  0  0  0  0  0  0  0  0  0
   66.1018   33.6813   52.4620 H   0  0  0  0  0  0  0  0  0  0  0  0
   69.0759   33.3109   52.0450 H   0  0  0  0  0  0  0  0  0  0  0  0
   68.0067   32.8922   53.4662 H   0  0  0  0  0  0  0  0  0  0  0  0
   68.6789   31.2976   51.0288 H   0  0  0  0  0  0  0  0  0  0  0  0
   68.3187   30.7837   52.7300 H   0  0  0  0  0  0  0  0  0  0  0  0
   66.5578   29.9963   51.2057 H   0  0  0  0  0  0  0  0  0  0  0  0
   65.9158   31.2380   52.3455 H   0  0  0  0  0  0  0  0  0  0  0  0
   63.8180   30.2762   51.2243 H   0  0  0  0  0  0  0  0  0  0  0  0
   63.8131   31.8435   52.0556 H   0  0  0  0  0  0  0  0  0  0  0  0
   61.7534   30.7073   50.2819 H   0  0  0  0  0  0  0  0  0  0  0  0
   61.6623   32.2249   51.1876 H   0  0  0  0  0  0  0  0  0  0  0  0
   61.0978   31.5348   45.6865 H   0  0  0  0  0  0  0  0  0  0  0  0
   59.6984   29.6124   44.9350 H   0  0  0  0  0  0  0  0  0  0  0  0
   58.0768   27.3695   46.9784 H   0  0  0  0  0  0  0  0  0  0  0  0
   56.7594   28.5148   46.5144 H   0  0  0  0  0  0  0  0  0  0  0  0
   59.1483   27.9776   44.6989 H   0  0  0  0  0  0  0  0  0  0  0  0
   57.6643   26.9538   44.6681 H   0  0  0  0  0  0  0  0  0  0  0  0
   58.2051   31.2247   43.5771 H   0  0  0  0  0  0  0  0  0  0  0  0
   56.9791   32.4057   43.0027 H   0  0  0  0  0  0  0  0  0  0  0  0
   59.2617   33.8291   43.3744 H   0  0  0  0  0  0  0  0  0  0  0  0
   60.1270   35.5615   44.9487 H   0  0  0  0  0  0  0  0  0  0  0  0
   59.3195   35.6244   47.3099 H   0  0  0  0  0  0  0  0  0  0  0  0
   57.6432   33.9500   48.1020 H   0  0  0  0  0  0  0  0  0  0  0  0
   56.7518   32.2302   46.5285 H   0  0  0  0  0  0  0  0  0  0  0  0
   57.8504   29.4300   48.8479 H   0  0  0  0  0  0  0  0  0  0  0  0
   59.2493   31.3528   49.5977 H   0  0  0  0  0  0  0  0  0  0  0  0
  1  2  2  0
  2  3  1  0
  3  4  1  0
  4  5  1  0
  5  6  1  0
  6  7  1  0
  7  8  1  0
  8  9  1  0
  3 10  1  0
 10 11  1  0
 11 12  1  0
 12 13  1  0
 13 14  2  0
 13 15  2  0
 13 16  1  0
 16 17  2  0
 17 18  1  0
 18 19  2  0
 19 20  1  0
 20 21  1  0
 21 22  1  0
 22 23  1  0
 23 24  2  0
 23 25  1  0
 25 26  1  0
 26 27  1  0
 27 28  2  0
 28 29  1  0
 29 30  2  0
 30 31  1  0
 31 32  2  0
 19 33  1  0
 33 34  2  0
 12  2  1  0
 34 16  1  0
  9  4  1  0
 32 27  1  0
  1 35  1  0
  1 36  1  0
  4 37  1  0
  5 38  1  0
  5 39  1  0
  6 40  1  0
  6 41  1  0
  7 42  1  0
  7 43  1  0
  8 44  1  0
  8 45  1  0
  9 46  1  0
  9 47  1  0
 10 48  1  0
 10 49  1  0
 11 50  1  0
 11 51  1  0
 17 52  1  0
 18 53  1  0
 20 54  1  0
 20 55  1  0
 21 56  1  0
 21 57  1  0
 26 58  1  0
 26 59  1  0
 28 60  1  0
 29 61  1  0
 30 62  1  0
 31 63  1  0
 32 64  1  0
 33 65  1  0
 34 66  1  0
M  CHG  3   1   1  22  -1  25  -1
M  END
>  <UniqueID>  (2) 
2

>  <SMILES>  (2) 
[NH2+]=C1N(C2CCCCC2)CCN1S(=O)(=O)c1ccc(CC[N-]C(=O)[N-]Cc2ccccc2)cc1

>  <Energy>  (2) 
78.36611314631062

>  <Genealogy>  (2) 
[NH2+]=C1N(C2CCCCC2)CCN1S(=O)(=O)c1ccc(CC[N-]C(=O)[N-]Cc2ccccc2)cc1 (protonated)
[NH2+]=C1N(C2CCCCC2)CCN1S(=O)(=O)c1ccc(CC[N-]C(=O)[N-]Cc2ccccc2)cc1 (3D coordinates assigned)
[NH2+]=C1N(C2CCCCC2)CCN1S(=O)(=O)c1ccc(CC[N-]C(=O)[N-]Cc2ccccc2)cc1 (nonaromatic ring conformer: 78.36611314631062 kcal/mol)

>  <smiles>  (2) 
N=C1N(C2CCCCC2)CCN1S(=O)(=O)c1ccc(CCNC(=O)NCc2ccccc2)cc1

>  <score_type>  (2) 
oracle

>  <origin>  (2) 
adg

>  <m_score__min__energy>  (2) 
-12.609999999999999

>  <m_primary>  (2) 
energy

$$$$
2:0
     RDKit          3D

 44 45  0  0  0  0  0  0  0  0999 V2000
   57.3820   24.4580   43.4490 C   0  0  0  0  0  0  0  0  0  0  0  0
   57.0250   23.3010   44.2600 N   0  0  0  0  0  0  0  0  0  0  0  0
   56.2490   22.2180   43.7240 C   0  0  0  0  0  0  0  0  0  0  0  0
   55.8560   22.2580   42.5280 O   0  0  0  0  0  0  0  0  0  0  0  0
   55.9060   21.0820   44.5250 N   0  0  0  0  0  0  0  0  0  0  0  0
   56.8770   20.2550   45.2290 C   0  0  0  0  0  0  0  0  0  0  0  0
   56.8670   20.6070   46.7140 C   0  0  0  0  0  0  0  0  0  0  0  0
   57.5170   21.8930   46.9380 N   0  0  0  0  0  0  0  0  0  0  0  0
   56.9220   22.9610   47.6810 C   0  0  0  0  0  0  0  0  0  0  0  0
   57.2890   23.2000   48.8630 O   0  0  0  0  0  0  0  0  0  0  0  0
   55.8950   23.8330   47.0310 C   0  0  0  0  0  0  0  0  0  0  0  0
   56.4920   25.1270   46.6620 N   0  0  0  0  0  0  0  0  0  0  0  0
   57.8450   25.2890   46.7980 C   0  0  0  0  0  0  0  0  0  0  0  0
   58.4590   26.4870   46.4380 C   0  0  0  0  0  0  0  0  0  0  0  0
   57.6860   27.5440   45.9390 C   0  0  0  0  0  0  0  0  0  0  0  0
   58.2780   28.7890   45.5400 N   0  0  0  0  0  0  0  0  0  0  0  0
   58.6980   29.8490   46.4110 C   0  0  0  0  0  0  0  0  0  0  0  0
   59.3680   29.5570   47.4360 O   0  0  0  0  0  0  0  0  0  0  0  0
   58.4150   31.2720   46.1220 C   0  0  0  0  0  0  0  0  0  0  0  0
   59.1970   32.3040   46.6680 C   0  0  0  0  0  0  0  0  0  0  0  0
   58.8830   33.6310   46.3720 C   0  0  0  0  0  0  0  0  0  0  0  0
   57.7900   33.9230   45.5560 C   0  0  0  0  0  0  0  0  0  0  0  0
   57.0200   32.8760   45.0470 C   0  0  0  0  0  0  0  0  0  0  0  0
   57.3450   31.5880   45.3400 N   0  0  0  0  0  0  0  0  0  0  0  0
   56.3120   27.3560   45.7710 C   0  0  0  0  0  0  0  0  0  0  0  0
   55.5280   28.3780   45.2440 O   0  0  0  0  0  0  0  0  0  0  0  0
   55.7240   26.1370   46.1370 C   0  0  0  0  0  0  0  0  0  0  0  0
   54.4820   25.9820   45.9750 O   0  0  0  0  0  0  0  0  0  0  0  0
   57.6420   25.3006   44.1066 H   0  0  0  0  0  0  0  0  0  0  0  0
   58.2450   24.2086   42.8141 H   0  0  0  0  0  0  0  0  0  0  0  0
   56.5285   24.7382   42.8141 H   0  0  0  0  0  0  0  0  0  0  0  0
   57.3510   23.2750   45.2510 H   0  0  0  0  0  0  0  0  0  0  0  0
   56.6149   19.1942   45.1023 H   0  0  0  0  0  0  0  0  0  0  0  0
   57.8803   20.4378   44.8166 H   0  0  0  0  0  0  0  0  0  0  0  0
   55.8263   20.6611   47.0663 H   0  0  0  0  0  0  0  0  0  0  0  0
   57.4147   19.8301   47.2676 H   0  0  0  0  0  0  0  0  0  0  0  0
   55.5155   23.3359   46.1261 H   0  0  0  0  0  0  0  0  0  0  0  0
   55.0693   24.0052   47.7370 H   0  0  0  0  0  0  0  0  0  0  0  0
   58.4541   24.4640   47.1960 H   0  0  0  0  0  0  0  0  0  0  0  0
   59.5476   26.6027   46.5452 H   0  0  0  0  0  0  0  0  0  0  0  0
   60.0488   32.0679   47.3227 H   0  0  0  0  0  0  0  0  0  0  0  0
   59.4971   34.4464   46.7819 H   0  0  0  0  0  0  0  0  0  0  0  0
   57.5378   34.9665   45.3164 H   0  0  0  0  0  0  0  0  0  0  0  0
   56.1504   33.0924   44.4090 H   0  0  0  0  0  0  0  0  0  0  0  0
  1  2  1  0
  2  3  1  0
  3  4  2  0
  3  5  1  0
  5  6  1  0
  6  7  1  0
  7  8  1  0
  8  9  1  0
  9 10  2  0
  9 11  1  0
 11 12  1  0
 12 13  1  0
 13 14  2  0
 14 15  1  0
 15 16  1  0
 16 17  1  0
 17 18  2  0
 17 19  1  0
 19 20  2  0
 20 21  1  0
 21 22  2  0
 22 23  1  0
 23 24  2  0
 15 25  2  0
 25 26  1  0
 25 27  1  0
 27 28  2  0
 27 12  1  0
 24 19  1  0
  1 29  1  0
  1 30  1  0
  1 31  1  0
  2 32  1  0
  6 33  1  0
  6 34  1  0
  7 35  1  0
  7 36  1  0
 11 37  1  0
 11 38  1  0
 13 39  1  0
 14 40  1  0
 20 41  1  0
 21 42  1  0
 22 43  1  0
 23 44  1  0
M  CHG  4   5  -1   8  -1  16  -1  26  -1
M  END
>  <UniqueID>  (3) 
3

>  <SMILES>  (3) 
CNC(=O)[N-]CC[N-]C(=O)Cn1ccc([N-]C(=O)c2ccccn2)c([O-])c1=O

>  <Energy>  (3) 
43.59707133860705

>  <Genealogy>  (3) 
CNC(=O)[N-]CC[N-]C(=O)Cn1ccc([N-]C(=O)c2ccccn2)c([O-])c1=O (protonated)
CNC(=O)[N-]CC[N-]C(=O)Cn1ccc([N-]C(=O)c2ccccn2)c([O-])c1=O (3D coordinates assigned)
CNC(=O)[N-]CC[N-]C(=O)Cn1ccc([N-]C(=O)c2ccccn2)c([O-])c1=O (optimized conformer: 43.59707133860705 kcal/mol)

>  <smiles>  (3) 
CNC(=O)NCCNC(=O)Cn1ccc(NC(=O)c2ccccn2)c(O)c1=O

>  <score_type>  (3) 
oracle

>  <origin>  (3) 
adg

>  <m_score__min__energy>  (3) 
-15.720000000000001

>  <m_primary>  (3) 
energy

$$$$
3:0
     RDKit          3D

 18 19  0  0  0  0  0  0  0  0999 V2000
   55.5180   29.7090   44.8690 O   0  0  0  0  0  0  0  0  0  0  0  0
   56.5100   30.2100   44.2780 C   0  0  0  0  0  0  0  0  0  0  0  0
   57.6210   30.8100   45.0300 C   0  0  0  0  0  0  0  0  0  0  0  0
   58.5520   30.1080   45.7860 C   0  0  0  0  0  0  0  0  0  0  0  0
   59.4410   30.9540   46.3510 N   0  0  0  0  0  0  0  0  0  0  0  0
   59.0820   32.1910   45.9590 C   0  0  0  0  0  0  0  0  0  0  0  0
   59.7000   33.4000   46.2870 C   0  0  0  0  0  0  0  0  0  0  0  0
   61.2450   33.4700   47.4130 Br  0  0  0  0  0  0  0  0  0  0  0  0
   59.1500   34.5840   45.7620 C   0  0  0  0  0  0  0  0  0  0  0  0
   58.0110   34.5370   44.9320 C   0  0  0  0  0  0  0  0  0  0  0  0
   57.4070   33.3070   44.6160 C   0  0  0  0  0  0  0  0  0  0  0  0
   57.9710   32.1450   45.1500 C   0  0  0  0  0  0  0  0  0  0  0  0
   56.5460   30.1985   43.1786 H   0  0  0  0  0  0  0  0  0  0  0  0
   58.5635   29.0148   45.9076 H   0  0  0  0  0  0  0  0  0  0  0  0
   60.2420   30.6910   46.9650 H   0  0  0  0  0  0  0  0  0  0  0  0
   59.6119   35.5533   46.0008 H   0  0  0  0  0  0  0  0  0  0  0  0
   57.5914   35.4703   44.5283 H   0  0  0  0  0  0  0  0  0  0  0  0
   56.5186   33.2608   43.9689 H   0  0  0  0  0  0  0  0  0  0  0  0
  1  2  2  0
  2  3  1  0
  3  4  2  0
  4  5  1  0
  5  6  1  0
  6  7  2  0
  7  8  1  0
  7  9  1  0
  9 10  2  0
 10 11  1  0
 11 12  2  0
 12  3  1  0
 12  6  1  0
  2 13  1  0
  4 14  1  0
  5 15  1  0
  9 16  1  0
 10 17  1  0
 11 18  1  0
M  END
>  <UniqueID>  (4) 
4

>  <SMILES>  (4) 
O=Cc1c[nH]c2c(Br)cccc12

>  <Energy>  (4) 
51.94104292026361

>  <Genealogy>  (4) 
O=Cc1c[nH]c2c(Br)cccc12 (3D coordinates assigned)
O=Cc1c[nH]c2c(Br)cccc12 (optimized conformer: 51.94104292026361 kcal/mol)

>  <smiles>  (4) 
O=Cc1c[nH]c2c(Br)cccc12

>  <score_type>  (4) 
oracle

>  <origin>  (4) 
adg

>  <m_score__min__energy>  (4) 
-5.6699999999999999

>  <m_primary>  (4) 
energy

$$$$
4:0
     RDKit          3D

 48 50  0  0  0  0  0  0  0  0999 V2000
   64.4990   32.6590   47.1210 H   0  0  0  0  0  0  0  0  0  0  0  0
   64.1020   32.8320   48.0720 N   0  0  0  0  0  0  0  0  0  0  0  0
   62.4640   33.3350   47.8510 S   0  0  0  0  0  0  0  0  0  0  0  0
   62.1900   34.5400   48.7070 O   0  0  0  0  0  0  0  0  0  0  0  0
   62.2420   33.7060   46.4110 O   0  0  0  0  0  0  0  0  0  0  0  0
   61.3800   32.0240   48.3050 C   0  0  0  0  0  0  0  0  0  0  0  0
   60.5130   32.1730   49.3940 C   0  0  0  0  0  0  0  0  0  0  0  0
   60.4831   33.1238   49.9463 H   0  0  0  0  0  0  0  0  0  0  0  0
   59.6860   31.1160   49.7800 C   0  0  0  0  0  0  0  0  0  0  0  0
   59.0047   31.2363   50.6352 H   0  0  0  0  0  0  0  0  0  0  0  0
   59.7220   29.9070   49.0830 C   0  0  0  0  0  0  0  0  0  0  0  0
   59.0758   29.0752   49.4000 H   0  0  0  0  0  0  0  0  0  0  0  0
   60.5760   29.7440   47.9810 C   0  0  0  0  0  0  0  0  0  0  0  0
   60.6330   28.4640   47.3230 N   0  0  0  0  0  0  0  0  0  0  0  0
   60.8570   28.4550   46.3020 H   0  0  0  0  0  0  0  0  0  0  0  0
   60.4000   27.1990   47.9630 C   0  0  0  0  0  0  0  0  0  0  0  0
   60.5400   27.0730   49.2090 O   0  0  0  0  0  0  0  0  0  0  0  0
   60.0290   26.0010   47.1390 C   0  0  0  0  0  0  0  0  0  0  0  0
   60.5301   26.0698   46.1622 H   0  0  0  0  0  0  0  0  0  0  0  0
   60.3480   25.0978   47.6797 H   0  0  0  0  0  0  0  0  0  0  0  0
   58.5810   25.9230   46.9270 N   0  0  0  0  0  0  0  0  0  0  0  0
   57.9280   26.1440   45.8200 C   0  0  0  0  0  0  0  0  0  0  0  0
   57.7690   25.2991   45.1338 H   0  0  0  0  0  0  0  0  0  0  0  0
   57.3890   27.4670   45.4350 C   0  0  0  0  0  0  0  0  0  0  0  0
   56.0190   27.7130   45.5480 C   0  0  0  0  0  0  0  0  0  0  0  0
   55.1550   26.7240   46.0060 O   0  0  0  0  0  0  0  0  0  0  0  0
   55.5240   28.9320   45.2300 N   0  0  0  0  0  0  0  0  0  0  0  0
   56.3270   29.9330   44.7910 C   0  0  0  0  0  0  0  0  0  0  0  0
   55.8110   31.0530   44.5330 O   0  0  0  0  0  0  0  0  0  0  0  0
   57.6740   29.7220   44.6310 N   0  0  0  0  0  0  0  0  0  0  0  0
   58.5430   30.7990   44.1160 C   0  0  0  0  0  0  0  0  0  0  0  0
   59.5794   30.4340   44.0648 H   0  0  0  0  0  0  0  0  0  0  0  0
   58.1923   31.0897   43.1147 H   0  0  0  0  0  0  0  0  0  0  0  0
   58.4860   32.0040   45.0200 C   0  0  0  0  0  0  0  0  0  0  0  0
   58.2950   31.8440   46.4030 C   0  0  0  0  0  0  0  0  0  0  0  0
   58.2119   30.8340   46.8307 H   0  0  0  0  0  0  0  0  0  0  0  0
   58.2100   32.9620   47.2380 C   0  0  0  0  0  0  0  0  0  0  0  0
   58.0634   32.8295   48.3201 H   0  0  0  0  0  0  0  0  0  0  0  0
   58.3110   34.2470   46.7000 C   0  0  0  0  0  0  0  0  0  0  0  0
   58.2434   35.1258   47.3581 H   0  0  0  0  0  0  0  0  0  0  0  0
   58.4980   34.4160   45.3250 C   0  0  0  0  0  0  0  0  0  0  0  0
   58.5776   35.4283   44.9020 H   0  0  0  0  0  0  0  0  0  0  0  0
   58.5840   33.3010   44.4870 C   0  0  0  0  0  0  0  0  0  0  0  0
   58.7290   33.4389   43.4054 H   0  0  0  0  0  0  0  0  0  0  0  0
   58.2060   28.4880   44.9180 C   0  0  0  0  0  0  0  0  0  0  0  0
   59.4270   28.2550   44.7040 O   0  0  0  0  0  0  0  0  0  0  0  0
   61.4150   30.8100   47.6050 C   0  0  0  0  0  0  0  0  0  0  0  0
   62.1033   30.6894   46.7555 H   0  0  0  0  0  0  0  0  0  0  0  0
  1  2  1  0
  2  3  1  0
  3  4  2  0
  3  5  2  0
  3  6  1  0
  6  7  2  0
  7  8  1  0
  7  9  1  0
  9 10  1  0
  9 11  2  0
 11 12  1  0
 11 13  1  0
 13 14  1  0
 14 15  1  0
 14 16  1  0
 16 17  2  0
 16 18  1  0
 18 19  1  0
 18 20  1  0
 18 21  1  0
 21 22  2  0
 22 23  1  0
 22 24  1  0
 24 25  2  0
 25 26  1  0
 25 27  1  0
 27 28  1  0
 28 29  2  0
 28 30  1  0
 30 31  1  0
 31 32  1  0
 31 33  1  0
 31 34  1  0
 34 35  2  0
 35 36  1  0
 35 37  1  0
 37 38  1  0
 37 39  2  0
 39 40  1  0
 39 41  1  0
 41 42  1  0
 41 43  2  0
 43 44  1  0
 30 45  1  0
 45 46  2  0
 13 47  2  0
 47 48  1  0
 47  6  1  0
 45 24  1  0
 43 34  1  0
M  CHG  3   2  -1  26  -1  27  -1
M  END
>  <UniqueID>  (5) 
5

>  <SMILES>  (5) 
[NH-]S(=O)(=O)c1cccc(NC(=O)C/N=C\c2c([O-])[n-]c(=O)n(Cc3ccccc3)c2=O)c1

>  <Energy>  (5) 
60.843024641338644

>  <Genealogy>  (5) 
[NH-]S(=O)(=O)c1cccc(NC(=O)CN=Cc2c([O-])[n-]c(=O)n(Cc3ccccc3)c2=O)c1 (protonated)
[NH-]S(=O)(=O)c1cccc(NC(=O)C/N=C\c2c([O-])[n-]c(=O)n(Cc3ccccc3)c2=O)c1 (cis-trans isomerization)
[NH-]S(=O)(=O)c1cccc(NC(=O)C/N=C\c2c([O-])[n-]c(=O)n(Cc3ccccc3)c2=O)c1 (3D coordinates assigned)
[NH-]S(=O)(=O)c1cccc(NC(=O)C/N=C\c2c([O-])[n-]c(=O)n(Cc3ccccc3)c2=O)c1 (optimized conformer: 60.843024641338644 kcal/mol)

>  <smiles>  (5) 
NS(=O)(=O)c1cccc(NC(=O)CN=Cc2c(O)[nH]c(=O)n(Cc3ccccc3)c2=O)c1

>  <score_type>  (5) 
oracle

>  <origin>  (5) 
adg

>  <m_score__min__energy>  (5) 
-14.289999999999999

>  <m_primary>  (5) 
energy

$$$$
5:0
     RDKit          3D

 50 53  0  0  0  0  0  0  0  0999 V2000
   57.1050   28.9780   43.7540 C   0  0  0  0  0  0  0  0  0  0  0  0
   56.2960   30.1170   43.7140 C   0  0  0  0  0  0  0  0  0  0  0  0
   56.6480   31.2540   44.4460 C   0  0  0  0  0  0  0  0  0  0  0  0
   57.8260   31.2690   45.2140 C   0  0  0  0  0  0  0  0  0  0  0  0
   58.6480   30.1240   45.2250 C   0  0  0  0  0  0  0  0  0  0  0  0
   58.2790   28.9800   44.5110 C   0  0  0  0  0  0  0  0  0  0  0  0
   60.2290   30.1730   46.0740 S   0  0  0  0  0  0  0  0  0  0  0  0
   59.5530   30.9570   47.5400 C   0  0  0  0  0  0  0  0  0  0  0  0
   59.9650   30.5330   48.8070 C   0  0  0  0  0  0  0  0  0  0  0  0
   59.5150   31.2000   49.9490 C   0  0  0  0  0  0  0  0  0  0  0  0
   58.6430   32.2830   49.8270 C   0  0  0  0  0  0  0  0  0  0  0  0
   58.2090   32.6980   48.5640 C   0  0  0  0  0  0  0  0  0  0  0  0
   58.6680   32.0450   47.4070 C   0  0  0  0  0  0  0  0  0  0  0  0
   58.1260   32.3670   46.1060 N   0  0  0  0  0  0  0  0  0  0  0  0
   57.9410   33.7670   45.6850 C   0  0  0  0  0  0  0  0  0  0  0  0
   59.2820   34.4390   45.3460 C   0  0  0  0  0  0  0  0  0  0  0  0
   60.2260   34.5910   46.5500 C   0  0  0  0  0  0  0  0  0  0  0  0
   61.5530   33.8350   46.3780 C   0  0  0  0  0  0  0  0  0  0  0  0
   61.9760   33.2410   47.6640 N   0  0  0  0  0  0  0  0  0  0  0  0
   63.3650   32.7400   47.5730 C   0  0  0  0  0  0  0  0  0  0  0  0
   63.9400   32.3760   48.9600 C   0  0  0  0  0  0  0  0  0  0  0  0
   62.8750   32.2580   49.9640 N   0  0  0  0  0  0  0  0  0  0  0  0
   62.1380   33.5250   50.1200 C   0  0  0  0  0  0  0  0  0  0  0  0
   61.8650   34.2150   48.7680 C   0  0  0  0  0  0  0  0  0  0  0  0
   56.8170   28.0793   43.1889 H   0  0  0  0  0  0  0  0  0  0  0  0
   55.3801   30.1184   43.1049 H   0  0  0  0  0  0  0  0  0  0  0  0
   55.9999   32.1425   44.4214 H   0  0  0  0  0  0  0  0  0  0  0  0
   58.9130   28.0817   44.5453 H   0  0  0  0  0  0  0  0  0  0  0  0
   60.6442   29.6733   48.9047 H   0  0  0  0  0  0  0  0  0  0  0  0
   59.8480   30.8716   50.9446 H   0  0  0  0  0  0  0  0  0  0  0  0
   58.2961   32.8117   50.7271 H   0  0  0  0  0  0  0  0  0  0  0  0
   57.5055   33.5390   48.4756 H   0  0  0  0  0  0  0  0  0  0  0  0
   57.2955   33.7895   44.7946 H   0  0  0  0  0  0  0  0  0  0  0  0
   57.4811   34.3186   46.5183 H   0  0  0  0  0  0  0  0  0  0  0  0
   59.7901   33.8319   44.5823 H   0  0  0  0  0  0  0  0  0  0  0  0
   59.0494   35.4546   44.9931 H   0  0  0  0  0  0  0  0  0  0  0  0
   60.4477   35.6596   46.6877 H   0  0  0  0  0  0  0  0  0  0  0  0
   59.7146   34.1593   47.4230 H   0  0  0  0  0  0  0  0  0  0  0  0
   61.4210   33.0349   45.6348 H   0  0  0  0  0  0  0  0  0  0  0  0
   62.3254   34.5409   46.0389 H   0  0  0  0  0  0  0  0  0  0  0  0
   63.3782   31.8431   46.9364 H   0  0  0  0  0  0  0  0  0  0  0  0
   63.9878   33.5398   47.1458 H   0  0  0  0  0  0  0  0  0  0  0  0
   64.4717   31.4158   48.8869 H   0  0  0  0  0  0  0  0  0  0  0  0
   64.6256   33.1772   49.2731 H   0  0  0  0  0  0  0  0  0  0  0  0
   63.3000   31.9960   50.8840 H   0  0  0  0  0  0  0  0  0  0  0  0
   62.2120   31.4960   49.6820 H   0  0  0  0  0  0  0  0  0  0  0  0
   61.1760   33.3163   50.6110 H   0  0  0  0  0  0  0  0  0  0  0  0
   62.7592   34.2029   50.7238 H   0  0  0  0  0  0  0  0  0  0  0  0
   60.8506   34.6404   48.7760 H   0  0  0  0  0  0  0  0  0  0  0  0
   62.6071   35.0129   48.6172 H   0  0  0  0  0  0  0  0  0  0  0  0
  1  2  2  0
  2  3  1  0
  3  4  2  0
  4  5  1  0
  5  6  2  0
  5  7  1  0
  7  8  1  0
  8  9  2  0
  9 10  1  0
 10 11  2  0
 11 12  1  0
 12 13  2  0
 13 14  1  0
 14 15  1  0
 15 16  1  0
 16 17  1  0
 17 18  1  0
 18 19  1  0
 19 20  1  0
 20 21  1  0
 21 22  1  0
 22 23  1  0
 23 24  1  0
  6  1  1  0
 13  8  1  0
 24 19  1  0
 14  4  1  0
  1 25  1  0
  2 26  1  0
  3 27  1  0
  6 28  1  0
  9 29  1  0
 10 30  1  0
 11 31  1  0
 12 32  1  0
 15 33  1  0
 15 34  1  0
 16 35  1  0
 16 36  1  0
 17 37  1  0
 17 38  1  0
 18 39  1  0
 18 40  1  0
 20 41  1  0
 20 42  1  0
 21 43  1  0
 21 44  1  0
 22 45  1  0
 22 46  1  0
 23 47  1  0
 23 48  1  0
 24 49  1  0
 24 50  1  0
M  CHG  1  22   1
M  END
>  <UniqueID>  (6) 
6

>  <SMILES>  (6) 
c1ccc2c(c1)Sc1ccccc1N2CCCCN1CC[NH2+]CC1

>  <Energy>  (6) 
71.26973165101573

>  <Genealogy>  (6) 
c1ccc2c(c1)Sc1ccccc1N2CCCCN1CC[NH2+]CC1 (protonated)
c1ccc2c(c1)Sc1ccccc1N2CCCCN1CC[NH2+]CC1 (3D coordinates assigned)
c1ccc2c(c1)Sc1ccccc1N2CCCCN1CC[NH2+]CC1 (nonaromatic ring conformer: 71.26973165101573 kcal/mol)

>  <smiles>  (6) 
c1ccc2c(c1)Sc1ccccc1N2CCCCN1CCNCC1

>  <score_type>  (6) 
oracle

>  <origin>  (6) 
adg

>  <m_score__min__energy>  (6) 
-7.3300000000000001

>  <m_primary>  (6) 
energy

$$$$
6:0
     RDKit          3D

 48 51  0  0  0  0  0  0  0  0999 V2000
   60.7580   25.8180   45.9930 O   0  0  0  0  0  0  0  0  0  0  0  0
   59.8380   26.2130   46.7570 C   0  0  0  0  0  0  0  0  0  0  0  0
   58.5500   25.5750   46.7580 N   0  0  0  0  0  0  0  0  0  0  0  0
   58.1020   24.6720   45.7320 C   0  0  0  0  0  0  0  0  0  0  0  0
   58.8230   23.4910   45.4990 C   0  0  0  0  0  0  0  0  0  0  0  0
   58.4000   22.5810   44.5260 C   0  0  0  0  0  0  0  0  0  0  0  0
   57.2630   22.8520   43.7520 C   0  0  0  0  0  0  0  0  0  0  0  0
   56.7780   21.8490   42.7400 C   0  0  0  0  0  0  0  0  0  0  0  0
   56.2800   20.7130   43.3900 O   0  0  0  0  0  0  0  0  0  0  0  0
   56.5490   24.0400   43.9690 C   0  0  0  0  0  0  0  0  0  0  0  0
   56.9740   24.9520   44.9400 C   0  0  0  0  0  0  0  0  0  0  0  0
   60.0820   27.3700   47.6350 C   0  0  0  0  0  0  0  0  0  0  0  0
   60.2300   27.1480   49.0130 C   0  0  0  0  0  0  0  0  0  0  0  0
   60.4880   28.2120   49.8780 C   0  0  0  0  0  0  0  0  0  0  0  0
   60.5960   29.5100   49.3770 C   0  0  0  0  0  0  0  0  0  0  0  0
   60.4320   29.7500   48.0120 C   0  0  0  0  0  0  0  0  0  0  0  0
   60.1570   28.6920   47.1240 C   0  0  0  0  0  0  0  0  0  0  0  0
   59.9140   29.0060   45.6570 C   0  0  0  0  0  0  0  0  0  0  0  0
   58.6520   29.7700   45.4560 N   0  0  0  0  0  0  0  0  0  0  0  0
   57.5100   29.0530   45.1640 C   0  0  0  0  0  0  0  0  0  0  0  0
   57.5180   27.7910   45.1820 O   0  0  0  0  0  0  0  0  0  0  0  0
   56.3210   29.7130   44.8380 C   0  0  0  0  0  0  0  0  0  0  0  0
   55.2870   29.0600   44.5350 O   0  0  0  0  0  0  0  0  0  0  0  0
   56.2770   31.0630   44.8470 N   0  0  0  0  0  0  0  0  0  0  0  0
   57.3560   31.8000   45.1970 C   0  0  0  0  0  0  0  0  0  0  0  0
   57.2480   33.1940   45.2150 C   0  0  0  0  0  0  0  0  0  0  0  0
   58.3320   33.9770   45.6020 C   0  0  0  0  0  0  0  0  0  0  0  0
   59.5210   33.3700   45.9970 C   0  0  0  0  0  0  0  0  0  0  0  0
   59.6430   31.9770   45.9880 C   0  0  0  0  0  0  0  0  0  0  0  0
   58.5730   31.1550   45.5470 C   0  0  0  0  0  0  0  0  0  0  0  0
   57.8250   25.9710   47.3970 H   0  0  0  0  0  0  0  0  0  0  0  0
   59.7284   23.2796   46.0868 H   0  0  0  0  0  0  0  0  0  0  0  0
   58.9615   21.6486   44.3670 H   0  0  0  0  0  0  0  0  0  0  0  0
   55.9792   22.3009   42.1336 H   0  0  0  0  0  0  0  0  0  0  0  0
   57.6176   21.5550   42.0930 H   0  0  0  0  0  0  0  0  0  0  0  0
   57.0020   20.0320   43.3630 H   0  0  0  0  0  0  0  0  0  0  0  0
   55.6503   24.2551   43.3723 H   0  0  0  0  0  0  0  0  0  0  0  0
   56.4234   25.8931   45.0851 H   0  0  0  0  0  0  0  0  0  0  0  0
   60.1419   26.1275   49.4140 H   0  0  0  0  0  0  0  0  0  0  0  0
   60.6064   28.0275   50.9559 H   0  0  0  0  0  0  0  0  0  0  0  0
   60.8108   30.3456   50.0593 H   0  0  0  0  0  0  0  0  0  0  0  0
   60.5184   30.7763   47.6256 H   0  0  0  0  0  0  0  0  0  0  0  0
   60.7559   29.6030   45.2766 H   0  0  0  0  0  0  0  0  0  0  0  0
   59.8269   28.0535   45.1137 H   0  0  0  0  0  0  0  0  0  0  0  0
   56.3025   33.6739   44.9221 H   0  0  0  0  0  0  0  0  0  0  0  0
   58.2492   35.0739   45.5957 H   0  0  0  0  0  0  0  0  0  0  0  0
   60.3705   33.9905   46.3184 H   0  0  0  0  0  0  0  0  0  0  0  0
   60.5805   31.5121   46.3271 H   0  0  0  0  0  0  0  0  0  0  0  0
  1  2  2  0
  2  3  1  0
  3  4  1  0
  4  5  2  0
  5  6  1  0
  6  7  2  0
  7  8  1  0
  8  9  1  0
  7 10  1  0
 10 11  2  0
  2 12  1  0
 12 13  2  0
 13 14  1  0
 14 15  2  0
 15 16  1  0
 16 17  2  0
 17 18  1  0
 18 19  1  0
 19 20  1  0
 20 21  2  0
 20 22  1  0
 22 23  2  0
 22 24  1  0
 24 25  1  0
 25 26  2  0
 26 27  1  0
 27 28  2  0
 28 29  1  0
 29 30  2  0
 11  4  1  0
 17 12  1  0
 30 19  1  0
 30 25  1  0
  3 31  1  0
  5 32  1  0
  6 33  1  0
  8 34  1  0
  8 35  1  0
  9 36  1  0
 10 37  1  0
 11 38  1  0
 13 39  1  0
 14 40  1  0
 15 41  1  0
 16 42  1  0
 18 43  1  0
 18 44  1  0
 26 45  1  0
 27 46  1  0
 28 47  1  0
 29 48  1  0
M  CHG  1  24  -1
M  END
>  <UniqueID>  (7) 
7

>  <SMILES>  (7) 
O=C(Nc1ccc(CO)cc1)c1ccccc1Cn1c(=O)c(=O)[n-]c2ccccc21

>  <Energy>  (7) 
72.61266272376277

>  <Genealogy>  (7) 
O=C(Nc1ccc(CO)cc1)c1ccccc1Cn1c(=O)c(=O)[n-]c2ccccc21 (protonated)
O=C(Nc1ccc(CO)cc1)c1ccccc1Cn1c(=O)c(=O)[n-]c2ccccc21 (3D coordinates assigned)
O=C(Nc1ccc(CO)cc1)c1ccccc1Cn1c(=O)c(=O)[n-]c2ccccc21 (optimized conformer: 72.61266272376277 kcal/mol)

>  <smiles>  (7) 
O=C(Nc1ccc(CO)cc1)c1ccccc1Cn1c(=O)c(=O)[nH]c2ccccc21

>  <score_type>  (7) 
oracle

>  <origin>  (7) 
adg

>  <m_score__min__energy>  (7) 
-10.94

>  <m_primary>  (7) 
energy

$$$$
7:0
     RDKit          3D

 45 47  0  0  0  0  0  0  0  0999 V2000
   56.4890   28.0960   45.2520 N   0  0  0  0  0  0  0  0  0  0  0  0
   57.0100   29.2450   44.5700 C   0  0  0  0  0  0  0  0  0  0  0  0
   56.3650   29.6820   43.4020 C   0  0  0  0  0  0  0  0  0  0  0  0
   56.7810   30.8450   42.7520 C   0  0  0  0  0  0  0  0  0  0  0  0
   57.8470   31.5850   43.2590 C   0  0  0  0  0  0  0  0  0  0  0  0
   58.5110   31.1580   44.4100 C   0  0  0  0  0  0  0  0  0  0  0  0
   58.1180   29.9790   45.0700 C   0  0  0  0  0  0  0  0  0  0  0  0
   58.9120   29.5330   46.2370 C   0  0  0  0  0  0  0  0  0  0  0  0
   59.8190   28.6710   46.0970 O   0  0  0  0  0  0  0  0  0  0  0  0
   58.6190   30.0840   47.5300 N   0  0  0  0  0  0  0  0  0  0  0  0
   59.2420   31.0300   48.1800 C   0  0  0  0  0  0  0  0  0  0  0  0
   60.5600   30.6760   48.8180 C   0  0  0  0  0  0  0  0  0  0  0  0
   61.5960   31.7310   48.5220 C   0  0  0  0  0  0  0  0  0  0  0  0
   62.4350   31.6120   47.4000 C   0  0  0  0  0  0  0  0  0  0  0  0
   63.3570   32.6190   47.0980 C   0  0  0  0  0  0  0  0  0  0  0  0
   63.4540   33.7480   47.9160 C   0  0  0  0  0  0  0  0  0  0  0  0
   62.6340   33.8700   49.0400 C   0  0  0  0  0  0  0  0  0  0  0  0
   61.7090   32.8650   49.3450 C   0  0  0  0  0  0  0  0  0  0  0  0
   58.6240   32.3800   48.4820 C   0  0  0  0  0  0  0  0  0  0  0  0
   58.5900   33.2370   47.2430 C   0  0  0  0  0  0  0  0  0  0  0  0
   59.7640   33.8490   46.7690 C   0  0  0  0  0  0  0  0  0  0  0  0
   59.7400   34.6050   45.5940 C   0  0  0  0  0  0  0  0  0  0  0  0
   58.5470   34.7640   44.8860 C   0  0  0  0  0  0  0  0  0  0  0  0
   57.3730   34.1700   45.3560 C   0  0  0  0  0  0  0  0  0  0  0  0
   57.3920   33.4110   46.5310 C   0  0  0  0  0  0  0  0  0  0  0  0
   56.2700   27.2070   44.7520 H   0  0  0  0  0  0  0  0  0  0  0  0
   56.4410   28.0780   46.2950 H   0  0  0  0  0  0  0  0  0  0  0  0
   55.5235   29.1021   42.9951 H   0  0  0  0  0  0  0  0  0  0  0  0
   56.2666   31.1777   41.8384 H   0  0  0  0  0  0  0  0  0  0  0  0
   58.1659   32.5073   42.7513 H   0  0  0  0  0  0  0  0  0  0  0  0
   59.3502   31.7492   44.8053 H   0  0  0  0  0  0  0  0  0  0  0  0
   60.4247   30.5982   49.9069 H   0  0  0  0  0  0  0  0  0  0  0  0
   60.9054   29.7160   48.4068 H   0  0  0  0  0  0  0  0  0  0  0  0
   62.3658   30.7224   46.7567 H   0  0  0  0  0  0  0  0  0  0  0  0
   64.0067   32.5224   46.2156 H   0  0  0  0  0  0  0  0  0  0  0  0
   64.1768   34.5412   47.6744 H   0  0  0  0  0  0  0  0  0  0  0  0
   62.7153   34.7566   49.6860 H   0  0  0  0  0  0  0  0  0  0  0  0
   61.0673   32.9629   50.2330 H   0  0  0  0  0  0  0  0  0  0  0  0
   57.5973   32.2337   48.8486 H   0  0  0  0  0  0  0  0  0  0  0  0
   59.2326   32.8856   49.2462 H   0  0  0  0  0  0  0  0  0  0  0  0
   60.7055   33.7321   47.3257 H   0  0  0  0  0  0  0  0  0  0  0  0
   60.6633   35.0761   45.2258 H   0  0  0  0  0  0  0  0  0  0  0  0
   58.5315   35.3563   43.9592 H   0  0  0  0  0  0  0  0  0  0  0  0
   56.4321   34.2994   44.8011 H   0  0  0  0  0  0  0  0  0  0  0  0
   56.4643   32.9483   46.8989 H   0  0  0  0  0  0  0  0  0  0  0  0
  1  2  1  0
  2  3  2  0
  3  4  1  0
  4  5  2  0
  5  6  1  0
  6  7  2  0
  7  8  1  0
  8  9  2  0
  8 10  1  0
 10 11  2  3
 11 12  1  0
 12 13  1  0
 13 14  2  0
 14 15  1  0
 15 16  2  0
 16 17  1  0
 17 18  2  0
 11 19  1  0
 19 20  1  0
 20 21  2  0
 21 22  1  0
 22 23  2  0
 23 24  1  0
 24 25  2  0
  7  2  1  0
 18 13  1  0
 25 20  1  0
  1 26  1  0
  1 27  1  0
  3 28  1  0
  4 29  1  0
  5 30  1  0
  6 31  1  0
 12 32  1  0
 12 33  1  0
 14 34  1  0
 15 35  1  0
 16 36  1  0
 17 37  1  0
 18 38  1  0
 19 39  1  0
 19 40  1  0
 21 41  1  0
 22 42  1  0
 23 43  1  0
 24 44  1  0
 25 45  1  0
M  END
>  <UniqueID>  (8) 
8

>  <SMILES>  (8) 
Nc1ccccc1C(=O)N=C(Cc1ccccc1)Cc1ccccc1

>  <Energy>  (8) 
53.58338993860433

>  <Genealogy>  (8) 
Nc1ccccc1C(=O)N=C(Cc1ccccc1)Cc1ccccc1 (3D coordinates assigned)
Nc1ccccc1C(=O)N=C(Cc1ccccc1)Cc1ccccc1 (optimized conformer: 53.58338993860433 kcal/mol)

>  <smiles>  (8) 
Nc1ccccc1C(=O)N=C(Cc1ccccc1)Cc1ccccc1

>  <score_type>  (8) 
oracle

>  <origin>  (8) 
adg

>  <m_score__min__energy>  (8) 
-8.6400000000000006

>  <m_primary>  (8) 
energy

$$$$
8:0
     RDKit          3D

 56 59  0  0  0  0  0  0  0  0999 V2000
   59.6210   36.3700   44.5420 C   0  0  0  0  0  0  0  0  0  0  0  0
   59.7630   36.3900   45.9590 O   0  0  0  0  0  0  0  0  0  0  0  0
   59.9750   35.2510   46.7490 C   0  0  0  0  0  0  0  0  0  0  0  0
   61.0110   34.3850   46.4000 C   0  0  0  0  0  0  0  0  0  0  0  0
   61.2480   33.2240   47.1400 C   0  0  0  0  0  0  0  0  0  0  0  0
   60.4270   32.8710   48.2330 C   0  0  0  0  0  0  0  0  0  0  0  0
   60.6970   31.5860   49.0480 C   0  0  1  0  0  0  0  0  0  0  0  0
   62.1150   31.6850   49.6550 C   0  0  0  0  0  0  0  0  0  0  0  0
   59.7830   31.5180   50.1930 N   0  0  0  0  0  0  0  0  0  0  0  0
   58.5590   30.7840   50.1870 C   0  0  0  0  0  0  0  0  0  0  0  0
   57.7710   30.8740   51.1630 O   0  0  0  0  0  0  0  0  0  0  0  0
   58.2440   29.9160   49.0990 N   0  0  0  0  0  0  0  0  0  0  0  0
   59.1050   29.7610   47.9270 C   0  0  1  0  0  0  0  0  0  0  0  0
   58.4340   30.3670   46.6890 C   0  0  0  0  0  0  0  0  0  0  0  0
   58.2640   31.7630   46.6110 C   0  0  0  0  0  0  0  0  0  0  0  0
   57.7640   32.3680   45.4570 C   0  0  0  0  0  0  0  0  0  0  0  0
   57.6390   33.7500   45.3960 O   0  0  0  0  0  0  0  0  0  0  0  0
   57.3860   31.5870   44.3690 C   0  0  0  0  0  0  0  0  0  0  0  0
   57.4700   30.1980   44.4460 C   0  0  0  0  0  0  0  0  0  0  0  0
   57.9720   29.5690   45.5980 C   0  0  0  0  0  0  0  0  0  0  0  0
   57.9270   28.0850   45.6450 C   0  0  0  0  0  0  0  0  0  0  0  0
   59.1000   27.3700   45.9350 C   0  0  0  0  0  0  0  0  0  0  0  0
   59.0740   25.9790   46.0330 C   0  0  0  0  0  0  0  0  0  0  0  0
   57.8770   25.2860   45.8550 C   0  0  0  0  0  0  0  0  0  0  0  0
   56.6870   25.9780   45.5790 C   0  0  0  0  0  0  0  0  0  0  0  0
   55.4330   25.2110   45.4100 C   0  0  0  0  0  0  0  0  0  0  0  0
   54.3810   25.6260   45.9670 O   0  0  0  0  0  0  0  0  0  0  0  0
   55.3820   23.9520   44.6450 C   0  0  0  0  0  0  0  0  0  0  0  0
   56.3390   23.6110   43.9000 O   0  0  0  0  0  0  0  0  0  0  0  0
   54.2830   23.1120   44.7700 O   0  0  0  0  0  0  0  0  0  0  0  0
   56.7090   27.3880   45.5130 C   0  0  0  0  0  0  0  0  0  0  0  0
   55.5210   28.0950   45.3460 O   0  0  0  0  0  0  0  0  0  0  0  0
   60.5640   30.2420   48.2290 C   0  0  1  0  0  0  0  0  0  0  0  0
   61.4890   30.1210   47.0400 C   0  0  0  0  0  0  0  0  0  0  0  0
   62.5780   30.7500   46.9940 O   0  0  0  0  0  0  0  0  0  0  0  0
   61.1480   29.2840   45.9850 O   0  0  0  0  0  0  0  0  0  0  0  0
   59.4320   33.8000   48.6210 C   0  0  0  0  0  0  0  0  0  0  0  0
   59.1930   34.9580   47.8770 C   0  0  0  0  0  0  0  0  0  0  0  0
   58.5627   36.2209   44.2816 H   0  0  0  0  0  0  0  0  0  0  0  0
   59.9700   37.3262   44.1250 H   0  0  0  0  0  0  0  0  0  0  0  0
   60.2206   35.5474   44.1250 H   0  0  0  0  0  0  0  0  0  0  0  0
   61.6476   34.6183   45.5338 H   0  0  0  0  0  0  0  0  0  0  0  0
   62.0906   32.5722   46.8658 H   0  0  0  0  0  0  0  0  0  0  0  0
   62.0451   31.6801   50.7528 H   0  0  0  0  0  0  0  0  0  0  0  0
   62.7171   30.8267   49.3221 H   0  0  0  0  0  0  0  0  0  0  0  0
   62.5920   32.6186   49.3221 H   0  0  0  0  0  0  0  0  0  0  0  0
   59.2295   28.6961   47.6811 H   0  0  0  0  0  0  0  0  0  0  0  0
   58.5304   32.3882   47.4760 H   0  0  0  0  0  0  0  0  0  0  0  0
   57.0210   32.0659   43.4484 H   0  0  0  0  0  0  0  0  0  0  0  0
   57.1390   29.5861   43.5939 H   0  0  0  0  0  0  0  0  0  0  0  0
   60.0460   27.9106   46.0860 H   0  0  0  0  0  0  0  0  0  0  0  0
   60.0001   25.4271   46.2513 H   0  0  0  0  0  0  0  0  0  0  0  0
   57.8651   24.1887   45.9314 H   0  0  0  0  0  0  0  0  0  0  0  0
   60.9369   29.5083   48.9588 H   0  0  0  0  0  0  0  0  0  0  0  0
   58.8359   33.6066   49.5250 H   0  0  0  0  0  0  0  0  0  0  0  0
   58.3873   35.6441   48.1770 H   0  0  0  0  0  0  0  0  0  0  0  0
  1  2  1  0
  2  3  1  0
  3  4  2  0
  4  5  1  0
  5  6  2  0
  6  7  1  0
  7  8  1  1
  7  9  1  0
  9 10  1  0
 10 11  2  0
 10 12  1  0
 12 13  1  0
 13 14  1  0
 14 15  2  0
 15 16  1  0
 16 17  1  0
 16 18  2  0
 18 19  1  0
 19 20  2  0
 20 21  1  0
 21 22  2  0
 22 23  1  0
 23 24  2  0
 24 25  1  0
 25 26  1  0
 26 27  2  0
 26 28  1  0
 28 29  2  0
 28 30  1  0
 25 31  2  0
 31 32  1  0
 13 33  1  0
 33 34  1  0
 34 35  2  0
 34 36  1  0
  6 37  1  0
 37 38  2  0
 38  3  1  0
 33  7  1  0
 20 14  1  0
 31 21  1  0
  1 39  1  0
  1 40  1  0
  1 41  1  0
  4 42  1  0
  5 43  1  0
  8 44  1  0
  8 45  1  0
  8 46  1  0
 13 47  1  6
 15 48  1  0
 18 49  1  0
 19 50  1  0
 22 51  1  0
 23 52  1  0
 24 53  1  0
 33 54  1  1
 37 55  1  0
 38 56  1  0
M  CHG  6   9  -1  12  -1  17  -1  30  -1  32  -1  36  -1
M  END
>  <UniqueID>  (9) 
9

>  <SMILES>  (9) 
COc1ccc([C@@]2(C)[N-]C(=O)[N-][C@@H](c3cc([O-])ccc3-c3cccc(C(=O)C(=O)[O-])c3[O-])C2C(=O)[O-])cc1

>  <Energy>  (9) 
90.4154665159245

>  <Genealogy>  (9) 
COc1ccc(C2(C)[N-]C(=O)[N-]C(c3cc([O-])ccc3-c3cccc(C(=O)C(=O)[O-])c3[O-])C2C(=O)[O-])cc1 (protonated)
COc1ccc([C@@]2(C)[N-]C(=O)[N-][C@@H](c3cc([O-])ccc3-c3cccc(C(=O)C(=O)[O-])c3[O-])C2C(=O)[O-])cc1 (chirality)
COc1ccc([C@@]2(C)[N-]C(=O)[N-][C@@H](c3cc([O-])ccc3-c3cccc(C(=O)C(=O)[O-])c3[O-])C2C(=O)[O-])cc1 (3D coordinates assigned)
COc1ccc([C@@]2(C)[N-]C(=O)[N-][C@@H](c3cc([O-])ccc3-c3cccc(C(=O)C(=O)[O-])c3[O-])C2C(=O)[O-])cc1 (nonaromatic ring conformer: 90.4154665159245 kcal/mol)

>  <smiles>  (9) 
COc1ccc(C2(C)NC(=O)NC(c3cc(O)ccc3-c3cccc(C(=O)C(=O)O)c3O)C2C(=O)O)cc1

>  <score_type>  (9) 
oracle

>  <origin>  (9) 
adg

>  <m_score__min__energy>  (9) 
-15.720000000000001

>  <m_primary>  (9) 
energy

$$$$
9:0
     RDKit          3D

 35 36  0  0  0  0  0  0  0  0999 V2000
   58.8990   31.1450   47.8190 C   0  0  0  0  0  0  0  0  0  0  0  0
   59.0440   32.4300   47.0450 C   0  0  0  0  0  0  0  0  0  0  0  0
   59.8930   33.4270   47.5550 C   0  0  0  0  0  0  0  0  0  0  0  0
   60.0940   34.6180   46.8570 C   0  0  0  0  0  0  0  0  0  0  0  0
   59.4460   34.8320   45.6410 C   0  0  0  0  0  0  0  0  0  0  0  0
   58.5830   33.8630   45.1270 C   0  0  0  0  0  0  0  0  0  0  0  0
   58.3520   32.6650   45.8260 C   0  0  0  0  0  0  0  0  0  0  0  0
   57.3970   31.6870   45.2540 C   0  0  0  0  0  0  0  0  0  0  0  0
   56.2560   32.0840   44.8900 O   0  0  0  0  0  0  0  0  0  0  0  0
   57.7290   30.2900   45.1980 N   0  0  0  0  0  0  0  0  0  0  0  0
   57.0900   29.3320   44.3300 C   0  0  0  0  0  0  0  0  0  0  0  0
   56.2840   29.8190   42.9840 S   0  0  0  0  0  0  0  0  0  0  0  0
   57.2370   27.9220   44.5610 N   0  0  0  0  0  0  0  0  0  0  0  0
   58.0020   27.3890   45.6490 C   0  0  0  0  0  0  0  0  0  0  0  0
   59.3190   27.8360   45.8200 C   0  0  0  0  0  0  0  0  0  0  0  0
   60.1180   27.3130   46.8370 C   0  0  0  0  0  0  0  0  0  0  0  0
   59.6060   26.3410   47.6960 C   0  0  0  0  0  0  0  0  0  0  0  0
   58.2900   25.8980   47.5490 C   0  0  0  0  0  0  0  0  0  0  0  0
   57.4630   26.4210   46.5340 C   0  0  0  0  0  0  0  0  0  0  0  0
   56.0520   25.9610   46.4420 C   0  0  0  0  0  0  0  0  0  0  0  0
   55.1620   26.7300   45.9920 O   0  0  0  0  0  0  0  0  0  0  0  0
   55.6900   24.6750   46.8230 O   0  0  0  0  0  0  0  0  0  0  0  0
   58.9234   31.3616   48.8972 H   0  0  0  0  0  0  0  0  0  0  0  0
   57.9414   30.6684   47.5624 H   0  0  0  0  0  0  0  0  0  0  0  0
   59.7263   30.4670   47.5624 H   0  0  0  0  0  0  0  0  0  0  0  0
   60.4048   33.2665   48.5154 H   0  0  0  0  0  0  0  0  0  0  0  0
   60.7640   35.3886   47.2660 H   0  0  0  0  0  0  0  0  0  0  0  0
   59.6153   35.7664   45.0858 H   0  0  0  0  0  0  0  0  0  0  0  0
   58.0785   34.0382   44.1654 H   0  0  0  0  0  0  0  0  0  0  0  0
   58.4540   29.9550   45.8680 H   0  0  0  0  0  0  0  0  0  0  0  0
   56.6480   27.2560   44.0110 H   0  0  0  0  0  0  0  0  0  0  0  0
   59.7260   28.6052   45.1472 H   0  0  0  0  0  0  0  0  0  0  0  0
   61.1519   27.6673   46.9613 H   0  0  0  0  0  0  0  0  0  0  0  0
   60.2403   25.9223   48.4912 H   0  0  0  0  0  0  0  0  0  0  0  0
   57.8942   25.1325   48.2326 H   0  0  0  0  0  0  0  0  0  0  0  0
  1  2  1  0
  2  3  2  0
  3  4  1  0
  4  5  2  0
  5  6  1  0
  6  7  2  0
  7  8  1  0
  8  9  2  0
  8 10  1  0
 10 11  1  0
 11 12  2  0
 11 13  1  0
 13 14  1  0
 14 15  2  0
 15 16  1  0
 16 17  2  0
 17 18  1  0
 18 19  2  0
 19 20  1  0
 20 21  2  0
 20 22  1  0
  7  2  1  0
 19 14  1  0
  1 23  1  0
  1 24  1  0
  1 25  1  0
  3 26  1  0
  4 27  1  0
  5 28  1  0
  6 29  1  0
 10 30  1  0
 13 31  1  0
 15 32  1  0
 16 33  1  0
 17 34  1  0
 18 35  1  0
M  CHG  1  22  -1
M  END
>  <UniqueID>  (10) 
10

>  <SMILES>  (10) 
Cc1ccccc1C(=O)NC(=S)Nc1ccccc1C(=O)[O-]

>  <Energy>  (10) 
52.01202371876588

>  <Genealogy>  (10) 
Cc1ccccc1C(=O)NC(=S)Nc1ccccc1C(=O)[O-] (protonated)
Cc1ccccc1C(=O)NC(=S)Nc1ccccc1C(=O)[O-] (3D coordinates assigned)
Cc1ccccc1C(=O)NC(=S)Nc1ccccc1C(=O)[O-] (optimized conformer: 52.01202371876588 kcal/mol)

>  <smiles>  (10) 
Cc1ccccc1C(=O)NC(=S)Nc1ccccc1C(=O)O

>  <score_type>  (10) 
oracle

>  <origin>  (10) 
adg

>  <m_score__min__energy>  (10) 
-11.99

>  <m_primary>  (10) 
energy

$$$$
10:0
     RDKit          3D

 38 39  0  0  0  0  0  0  0  0999 V2000
   58.8450   35.0740   46.1050 H   0  0  0  0  0  0  0  0  0  0  0  0
   59.8380   35.0230   46.2970 O   0  0  0  0  0  0  0  0  0  0  0  0
   60.4630   33.8140   46.6070 C   0  0  0  0  0  0  0  0  0  0  0  0
   61.7140   33.8180   47.2420 C   0  0  0  0  0  0  0  0  0  0  0  0
   62.1804   34.7747   47.5199 H   0  0  0  0  0  0  0  0  0  0  0  0
   62.3780   32.6110   47.5270 C   0  0  0  0  0  0  0  0  0  0  0  0
   63.6640   32.5880   48.1750 N   0  0  0  0  0  0  0  0  0  0  0  0
   64.5060   32.3170   47.6170 H   0  0  0  0  0  0  0  0  0  0  0  0
   63.8650   32.9190   49.5820 C   0  0  0  0  0  0  0  0  0  0  0  0
   63.3965   32.1475   50.2107 H   0  0  0  0  0  0  0  0  0  0  0  0
   64.9427   32.9633   49.7979 H   0  0  0  0  0  0  0  0  0  0  0  0
   63.4073   33.8957   49.7979 H   0  0  0  0  0  0  0  0  0  0  0  0
   61.7730   31.4010   47.1610 C   0  0  0  0  0  0  0  0  0  0  0  0
   62.2864   30.4506   47.3689 H   0  0  0  0  0  0  0  0  0  0  0  0
   60.5250   31.3900   46.5350 C   0  0  0  0  0  0  0  0  0  0  0  0
   60.0677   30.4320   46.2466 H   0  0  0  0  0  0  0  0  0  0  0  0
   59.8500   32.5900   46.2710 C   0  0  0  0  0  0  0  0  0  0  0  0
   58.5280   32.5450   45.6050 C   0  0  0  0  0  0  0  0  0  0  0  0
   57.5890   33.2430   46.0750 O   0  0  0  0  0  0  0  0  0  0  0  0
   58.2560   31.7220   44.4080 C   0  0  0  0  0  0  0  0  0  0  0  0
   58.8354   31.9152   43.4932 H   0  0  0  0  0  0  0  0  0  0  0  0
   57.3320   30.7490   44.3900 C   0  0  0  0  0  0  0  0  0  0  0  0
   56.3605   30.9605   43.9194 H   0  0  0  0  0  0  0  0  0  0  0  0
   57.5540   29.4010   44.9730 C   0  0  0  0  0  0  0  0  0  0  0  0
   58.8400   28.9530   45.3270 C   0  0  0  0  0  0  0  0  0  0  0  0
   59.7104   29.6047   45.1606 H   0  0  0  0  0  0  0  0  0  0  0  0
   59.0190   27.6870   45.8880 C   0  0  0  0  0  0  0  0  0  0  0  0
   60.0295   27.3436   46.1543 H   0  0  0  0  0  0  0  0  0  0  0  0
   57.9210   26.8560   46.1120 C   0  0  0  0  0  0  0  0  0  0  0  0
   58.0697   25.8580   46.5501 H   0  0  0  0  0  0  0  0  0  0  0  0
   56.6250   27.2890   45.7800 C   0  0  0  0  0  0  0  0  0  0  0  0
   55.4930   26.4880   45.9940 O   0  0  0  0  0  0  0  0  0  0  0  0
   55.3910   25.1180   45.6160 C   0  0  0  0  0  0  0  0  0  0  0  0
   55.3443   24.4911   46.5187 H   0  0  0  0  0  0  0  0  0  0  0  0
   54.4793   24.9693   45.0188 H   0  0  0  0  0  0  0  0  0  0  0  0
   56.2706   24.8359   45.0188 H   0  0  0  0  0  0  0  0  0  0  0  0
   56.4470   28.5610   45.2140 C   0  0  0  0  0  0  0  0  0  0  0  0
   55.1620   28.9810   44.8840 O   0  0  0  0  0  0  0  0  0  0  0  0
  1  2  1  0
  2  3  1  0
  3  4  2  0
  4  5  1  0
  4  6  1  0
  6  7  1  0
  7  8  1  0
  7  9  1  0
  9 10  1  0
  9 11  1  0
  9 12  1  0
  6 13  2  0
 13 14  1  0
 13 15  1  0
 15 16  1  0
 15 17  2  0
 17 18  1  0
 18 19  2  0
 18 20  1  0
 20 21  1  0
 20 22  2  0
 22 23  1  0
 22 24  1  0
 24 25  2  0
 25 26  1  0
 25 27  1  0
 27 28  1  0
 27 29  2  0
 29 30  1  0
 29 31  1  0
 31 32  1  0
 32 33  1  0
 33 34  1  0
 33 35  1  0
 33 36  1  0
 31 37  2  0
 37 38  1  0
 17  3  1  0
 37 24  1  0
M  CHG  1  38  -1
M  END
>  <UniqueID>  (11) 
11

>  <SMILES>  (11) 
CNc1ccc(C(=O)/C=C/c2cccc(OC)c2[O-])c(O)c1

>  <Energy>  (11) 
45.57976765481328

>  <Genealogy>  (11) 
CNc1ccc(C(=O)C=Cc2cccc(OC)c2[O-])c(O)c1 (protonated)
CNc1ccc(C(=O)/C=C/c2cccc(OC)c2[O-])c(O)c1 (cis-trans isomerization)
CNc1ccc(C(=O)/C=C/c2cccc(OC)c2[O-])c(O)c1 (3D coordinates assigned)
CNc1ccc(C(=O)/C=C/c2cccc(OC)c2[O-])c(O)c1 (optimized conformer: 45.57976765481328 kcal/mol)

>  <smiles>  (11) 
CNc1ccc(C(=O)C=Cc2cccc(OC)c2O)c(O)c1

>  <score_type>  (11) 
oracle

>  <origin>  (11) 
adg

>  <m_score__min__energy>  (11) 
-11.050000000000001

>  <m_primary>  (11) 
energy

$$$$
11:0
     RDKit          3D

 38 41  0  0  0  0  0  0  0  0999 V2000
   60.4191   35.3120   48.6545 H   0  0  0  0  0  0  0  0  0  0  0  0
   60.1000   34.6090   47.8710 C   0  0  0  0  0  0  0  0  0  0  0  0
   60.8770   33.4840   47.5840 C   0  0  0  0  0  0  0  0  0  0  0  0
   61.8112   33.3056   48.1367 H   0  0  0  0  0  0  0  0  0  0  0  0
   60.4680   32.5850   46.5950 C   0  0  0  0  0  0  0  0  0  0  0  0
   61.0885   31.7068   46.3633 H   0  0  0  0  0  0  0  0  0  0  0  0
   59.2710   32.7970   45.8970 C   0  0  0  0  0  0  0  0  0  0  0  0
   58.8820   31.8640   44.8810 N   0  0  0  0  0  0  0  0  0  0  0  0
   58.2780   30.7370   45.1150 C   0  0  0  0  0  0  0  0  0  0  0  0
   58.7840   29.8180   45.9730 N   0  0  0  0  0  0  0  0  0  0  0  0
   57.9580   28.7440   46.0580 C   0  0  0  0  0  0  0  0  0  0  0  0
   58.1630   27.6160   46.8440 C   0  0  0  0  0  0  0  0  0  0  0  0
   59.1850   27.5060   47.5700 O   0  0  0  0  0  0  0  0  0  0  0  0
   57.2280   26.6240   46.8150 N   0  0  0  0  0  0  0  0  0  0  0  0
   56.1050   26.7120   46.0300 C   0  0  0  0  0  0  0  0  0  0  0  0
   55.2090   25.7700   46.0290 N   0  0  0  0  0  0  0  0  0  0  0  0
   55.4410   24.3570   46.1570 C   0  0  0  0  0  0  0  0  0  0  0  0
   54.9030   23.4980   45.1920 C   0  0  0  0  0  0  0  0  0  0  0  0
   54.2961   23.9090   44.3718 H   0  0  0  0  0  0  0  0  0  0  0  0
   55.1320   22.1220   45.2640 C   0  0  0  0  0  0  0  0  0  0  0  0
   54.6904   21.4527   44.5110 H   0  0  0  0  0  0  0  0  0  0  0  0
   55.9200   21.5930   46.2890 C   0  0  0  0  0  0  0  0  0  0  0  0
   56.0892   20.5076   46.3468 H   0  0  0  0  0  0  0  0  0  0  0  0
   56.4980   22.4460   47.2480 C   0  0  0  0  0  0  0  0  0  0  0  0
   57.3160   21.9670   48.2840 O   0  0  0  0  0  0  0  0  0  0  0  0
   56.8760   21.7520   49.6200 C   0  0  0  0  0  0  0  0  0  0  0  0
   57.6375   22.1241   50.3212 H   0  0  0  0  0  0  0  0  0  0  0  0
   55.9309   22.2898   49.7858 H   0  0  0  0  0  0  0  0  0  0  0  0
   56.7195   20.6759   49.7858 H   0  0  0  0  0  0  0  0  0  0  0  0
   56.2620   23.8240   47.1700 C   0  0  0  0  0  0  0  0  0  0  0  0
   56.7227   24.4975   47.9077 H   0  0  0  0  0  0  0  0  0  0  0  0
   55.8980   27.8240   45.2670 N   0  0  0  0  0  0  0  0  0  0  0  0
   56.8200   28.8150   45.2860 C   0  0  0  0  0  0  0  0  0  0  0  0
   56.7860   30.2600   44.4400 S   0  0  0  0  0  0  0  0  0  0  0  0
   58.5000   33.9450   46.1720 C   0  0  0  0  0  0  0  0  0  0  0  0
   57.0420   34.3070   45.2570 Cl  0  0  0  0  0  0  0  0  0  0  0  0
   58.9170   34.8420   47.1630 C   0  0  0  0  0  0  0  0  0  0  0  0
   58.3117   35.7332   47.3853 H   0  0  0  0  0  0  0  0  0  0  0  0
  1  2  1  0
  2  3  2  0
  3  4  1  0
  3  5  1  0
  5  6  1  0
  5  7  2  0
  7  8  1  0
  8  9  2  3
  9 10  1  0
 10 11  1  0
 11 12  1  0
 12 13  2  0
 12 14  1  0
 14 15  1  0
 15 16  2  0
 16 17  1  0
 17 18  2  0
 18 19  1  0
 18 20  1  0
 20 21  1  0
 20 22  2  0
 22 23  1  0
 22 24  1  0
 24 25  1  0
 25 26  1  0
 26 27  1  0
 26 28  1  0
 26 29  1  0
 24 30  2  0
 30 31  1  0
 15 32  1  0
 32 33  1  0
 33 34  1  0
  7 35  1  0
 35 36  1  0
 35 37  2  0
 37 38  1  0
 37  2  1  0
 34  9  1  0
 33 11  2  0
 30 17  1  0
M  CHG  3  10  -1  14  -1  32  -1
M  END
>  <UniqueID>  (12) 
12

>  <SMILES>  (12) 
COc1cccc(/N=c2\[n-]c(=O)c3[n-]c(=Nc4ccccc4Cl)sc3[n-]2)c1

>  <Energy>  (12) 
95.8486209278874

>  <Genealogy>  (12) 
COc1cccc(N=c2[n-]c(=O)c3[n-]c(=Nc4ccccc4Cl)sc3[n-]2)c1 (protonated)
COc1cccc(/N=c2\[n-]c(=O)c3[n-]c(=Nc4ccccc4Cl)sc3[n-]2)c1 (cis-trans isomerization)
COc1cccc(/N=c2\[n-]c(=O)c3[n-]c(=Nc4ccccc4Cl)sc3[n-]2)c1 (3D coordinates assigned)
COc1cccc(/N=c2\[n-]c(=O)c3[n-]c(=Nc4ccccc4Cl)sc3[n-]2)c1 (optimized conformer: 95.8486209278874 kcal/mol)

>  <smiles>  (12) 
COc1cccc(N=c2[nH]c(=O)c3[nH]c(=Nc4ccccc4Cl)sc3[nH]2)c1

>  <score_type>  (12) 
oracle

>  <origin>  (12) 
adg

>  <m_score__min__energy>  (12) 
-13.06

>  <m_primary>  (12) 
energy

$$$$
12:0
     RDKit          3D

 26 27  0  0  0  0  0  0  0  0999 V2000
   55.1390   26.6870   46.0070 O   0  0  0  0  0  0  0  0  0  0  0  0
   56.3940   26.5970   45.9410 C   0  0  0  0  0  0  0  0  0  0  0  0
   57.0200   25.4030   46.4300 N   0  0  0  0  0  0  0  0  0  0  0  0
   57.4680   24.2940   45.6370 C   0  0  0  0  0  0  0  0  0  0  0  0
   56.6900   23.7750   44.5860 C   0  0  0  0  0  0  0  0  0  0  0  0
   57.1500   22.6830   43.8440 C   0  0  0  0  0  0  0  0  0  0  0  0
   58.3780   22.0920   44.1530 C   0  0  0  0  0  0  0  0  0  0  0  0
   59.1470   22.5860   45.2150 C   0  0  0  0  0  0  0  0  0  0  0  0
   60.3670   22.0000   45.5410 O   0  0  0  0  0  0  0  0  0  0  0  0
   58.6860   23.6800   45.9580 C   0  0  0  0  0  0  0  0  0  0  0  0
   57.1830   27.7440   45.4310 C   0  0  0  0  0  0  0  0  0  0  0  0
   58.5890   27.6970   45.4540 C   0  0  0  0  0  0  0  0  0  0  0  0
   59.3420   28.7750   44.9830 C   0  0  0  0  0  0  0  0  0  0  0  0
   58.7050   29.9140   44.4910 C   0  0  0  0  0  0  0  0  0  0  0  0
   57.3090   29.9800   44.4720 C   0  0  0  0  0  0  0  0  0  0  0  0
   56.5460   28.9030   44.9380 C   0  0  0  0  0  0  0  0  0  0  0  0
   55.1580   28.9900   44.8920 O   0  0  0  0  0  0  0  0  0  0  0  0
   55.7172   24.2296   44.3474 H   0  0  0  0  0  0  0  0  0  0  0  0
   56.5440   22.2882   43.0152 H   0  0  0  0  0  0  0  0  0  0  0  0
   58.7412   21.2383   43.5620 H   0  0  0  0  0  0  0  0  0  0  0  0
   61.0710   21.8140   44.8350 H   0  0  0  0  0  0  0  0  0  0  0  0
   59.2842   24.0599   46.7994 H   0  0  0  0  0  0  0  0  0  0  0  0
   59.0990   26.8046   45.8458 H   0  0  0  0  0  0  0  0  0  0  0  0
   60.4407   28.7255   45.0002 H   0  0  0  0  0  0  0  0  0  0  0  0
   59.3010   30.7600   44.1181 H   0  0  0  0  0  0  0  0  0  0  0  0
   56.8081   30.8816   44.0895 H   0  0  0  0  0  0  0  0  0  0  0  0
  1  2  2  0
  2  3  1  0
  3  4  1  0
  4  5  2  0
  5  6  1  0
  6  7  2  0
  7  8  1  0
  8  9  1  0
  8 10  2  0
  2 11  1  0
 11 12  2  0
 12 13  1  0
 13 14  2  0
 14 15  1  0
 15 16  2  0
 16 17  1  0
 10  4  1  0
 16 11  1  0
  5 18  1  0
  6 19  1  0
  7 20  1  0
  9 21  1  0
 10 22  1  0
 12 23  1  0
 13 24  1  0
 14 25  1  0
 15 26  1  0
M  CHG  2   3  -1  17  -1
M  END
>  <UniqueID>  (13) 
13

>  <SMILES>  (13) 
O=C([N-]c1cccc(O)c1)c1ccccc1[O-]

>  <Energy>  (13) 
34.60661776687152

>  <Genealogy>  (13) 
O=C([N-]c1cccc(O)c1)c1ccccc1[O-] (protonated)
O=C([N-]c1cccc(O)c1)c1ccccc1[O-] (3D coordinates assigned)
O=C([N-]c1cccc(O)c1)c1ccccc1[O-] (optimized conformer: 34.60661776687152 kcal/mol)

>  <smiles>  (13) 
O=C(Nc1cccc(O)c1)c1ccccc1O

>  <score_type>  (13) 
oracle

>  <origin>  (13) 
adg

>  <m_score__min__energy>  (13) 
-12.57

>  <m_primary>  (13) 
energy

$$$$
13:0
     RDKit          3D

 48 51  0  0  0  0  0  0  0  0999 V2000
   62.8640   34.1390   49.8930 O   0  0  0  0  0  0  0  0  0  0  0  0
   62.1730   33.8400   48.8850 C   0  0  0  0  0  0  0  0  0  0  0  0
   62.8400   33.4580   47.5990 C   0  0  0  0  0  0  0  0  0  0  0  0
   61.9590   33.8420   46.4040 C   0  0  0  0  0  0  0  0  0  0  0  0
   60.4990   33.5500   46.6570 C   0  0  0  0  0  0  0  0  0  0  0  0
   59.6200   33.3730   45.5810 C   0  0  0  0  0  0  0  0  0  0  0  0
   58.2380   33.2340   45.7980 C   0  0  0  0  0  0  0  0  0  0  0  0
   57.4140   33.0730   44.7410 C   0  0  0  0  0  0  0  0  0  0  0  0
   57.4580   31.9070   43.7870 C   0  0  0  0  0  0  0  0  0  0  0  0
   57.0080   30.6400   44.4700 C   0  0  0  0  0  0  0  0  0  0  0  0
   55.7710   30.3870   44.5250 O   0  0  0  0  0  0  0  0  0  0  0  0
   57.9440   29.7320   45.0810 N   0  0  0  0  0  0  0  0  0  0  0  0
   59.3930   29.9390   44.9360 C   0  0  0  0  0  0  0  0  0  0  0  0
   60.1690   28.6130   44.8450 C   0  0  0  0  0  0  0  0  0  0  0  0
   59.5350   27.4390   45.6150 C   0  0  0  0  0  0  0  0  0  0  0  0
   58.5160   27.8780   46.6860 C   0  0  1  0  0  0  0  0  0  0  0  0
   57.9580   26.7190   47.2540 O   0  0  0  0  0  0  0  0  0  0  0  0
   59.1870   28.6860   47.7870 C   0  0  0  0  0  0  0  0  0  0  0  0
   59.1940   30.0660   47.8950 C   0  0  0  0  0  0  0  0  0  0  0  0
   59.9290   30.3480   49.0260 C   0  0  0  0  0  0  0  0  0  0  0  0
   60.3360   29.1300   49.5320 C   0  0  0  0  0  0  0  0  0  0  0  0
   59.8840   28.1620   48.7700 O   0  0  0  0  0  0  0  0  0  0  0  0
   57.4060   28.6890   45.9710 C   0  0  0  0  0  0  0  0  0  0  0  0
   57.7680   33.2830   47.1260 C   0  0  0  0  0  0  0  0  0  0  0  0
   58.6340   33.4690   48.1560 N   0  0  0  0  0  0  0  0  0  0  0  0
   59.9720   33.6010   47.9650 C   0  0  0  0  0  0  0  0  0  0  0  0
   60.7470   33.7730   48.9940 N   0  0  0  0  0  0  0  0  0  0  0  0
   63.8041   33.9819   47.5214 H   0  0  0  0  0  0  0  0  0  0  0  0
   62.9988   32.3696   47.5895 H   0  0  0  0  0  0  0  0  0  0  0  0
   62.0767   34.9180   46.2079 H   0  0  0  0  0  0  0  0  0  0  0  0
   62.2797   33.2413   45.5401 H   0  0  0  0  0  0  0  0  0  0  0  0
   60.0153   33.3424   44.5550 H   0  0  0  0  0  0  0  0  0  0  0  0
   56.6552   33.8493   44.5630 H   0  0  0  0  0  0  0  0  0  0  0  0
   56.7938   32.1129   42.9347 H   0  0  0  0  0  0  0  0  0  0  0  0
   58.4936   31.7728   43.4412 H   0  0  0  0  0  0  0  0  0  0  0  0
   59.5770   30.5195   44.0200 H   0  0  0  0  0  0  0  0  0  0  0  0
   59.7465   30.4737   45.8299 H   0  0  0  0  0  0  0  0  0  0  0  0
   60.2381   28.3291   43.7845 H   0  0  0  0  0  0  0  0  0  0  0  0
   61.1489   28.7952   45.3104 H   0  0  0  0  0  0  0  0  0  0  0  0
   59.0210   26.7874   44.8930 H   0  0  0  0  0  0  0  0  0  0  0  0
   60.3510   26.9215   46.1407 H   0  0  0  0  0  0  0  0  0  0  0  0
   58.3760   26.5890   48.1460 H   0  0  0  0  0  0  0  0  0  0  0  0
   58.7128   30.7877   47.2185 H   0  0  0  0  0  0  0  0  0  0  0  0
   60.1473   31.3428   49.4416 H   0  0  0  0  0  0  0  0  0  0  0  0
   60.9465   28.9918   50.4366 H   0  0  0  0  0  0  0  0  0  0  0  0
   56.7954   27.9970   45.3724 H   0  0  0  0  0  0  0  0  0  0  0  0
   56.8107   29.1914   46.7477 H   0  0  0  0  0  0  0  0  0  0  0  0
   56.6930   33.1699   47.3297 H   0  0  0  0  0  0  0  0  0  0  0  0
  1  2  2  0
  2  3  1  0
  3  4  1  0
  4  5  1  0
  5  6  2  0
  6  7  1  0
  7  8  2  3
  8  9  1  0
  9 10  1  0
 10 11  2  0
 10 12  1  0
 12 13  1  0
 13 14  1  0
 14 15  1  0
 15 16  1  0
 16 17  1  1
 16 18  1  0
 18 19  2  0
 19 20  1  0
 20 21  2  0
 21 22  1  0
 16 23  1  0
  7 24  1  0
 24 25  2  0
 25 26  1  0
 26 27  2  0
 27  2  1  0
 26  5  1  0
 23 12  1  0
 22 18  1  0
  3 28  1  0
  3 29  1  0
  4 30  1  0
  4 31  1  0
  6 32  1  0
  8 33  1  0
  9 34  1  0
  9 35  1  0
 13 36  1  0
 13 37  1  0
 14 38  1  0
 14 39  1  0
 15 40  1  0
 15 41  1  0
 17 42  1  0
 19 43  1  0
 20 44  1  0
 21 45  1  0
 23 46  1  0
 23 47  1  0
 24 48  1  0
M  END
>  <UniqueID>  (14) 
14

>  <SMILES>  (14) 
O=C1CCc2cc(=CCC(=O)N3CCC[C@@](O)(c4ccco4)C3)cnc2=N1

>  <Energy>  (14) 
85.79824625389718

>  <Genealogy>  (14) 
O=C1CCc2cc(=CCC(=O)N3CCC[C@@](O)(c4ccco4)C3)cnc2=N1 (chirality)
O=C1CCc2cc(=CCC(=O)N3CCC[C@@](O)(c4ccco4)C3)cnc2=N1 (3D coordinates assigned)
O=C1CCc2cc(=CCC(=O)N3CCC[C@@](O)(c4ccco4)C3)cnc2=N1 (nonaromatic ring conformer: 85.79824625389718 kcal/mol)

>  <smiles>  (14) 
O=C1CCc2cc(=CCC(=O)N3CCCC(O)(c4ccco4)C3)cnc2=N1

>  <score_type>  (14) 
oracle

>  <origin>  (14) 
adg

>  <m_score__min__energy>  (14) 
-8.8200000000000003

>  <m_primary>  (14) 
energy

$$$$
14:0
     RDKit          3D

 38 39  0  0  0  0  0  0  0  0999 V2000
   58.1350   32.6500   47.4270 C   0  0  0  0  0  0  0  0  0  0  0  0
   57.9340   32.4600   45.9580 C   0  0  0  0  0  0  0  0  0  0  0  0
   58.4160   33.3980   45.0430 C   0  0  0  0  0  0  0  0  0  0  0  0
   58.2290   33.1890   43.7150 N   0  0  0  0  0  0  0  0  0  0  0  0
   57.5860   32.0870   43.2430 C   0  0  0  0  0  0  0  0  0  0  0  0
   57.4450   31.9300   41.7570 C   0  0  0  0  0  0  0  0  0  0  0  0
   57.1270   31.1170   44.1660 C   0  0  0  0  0  0  0  0  0  0  0  0
   56.4410   29.8420   43.7480 C   0  0  0  0  0  0  0  0  0  0  0  0
   56.0180   29.0730   44.9200 N   0  0  0  0  0  0  0  0  0  0  0  0
   56.7810   27.9880   45.4770 C   0  0  0  0  0  0  0  0  0  0  0  0
   58.1760   28.1080   45.5460 C   0  0  0  0  0  0  0  0  0  0  0  0
   58.9530   27.0780   46.0790 C   0  0  0  0  0  0  0  0  0  0  0  0
   58.3440   25.9200   46.5630 C   0  0  0  0  0  0  0  0  0  0  0  0
   56.9440   25.7870   46.5300 C   0  0  0  0  0  0  0  0  0  0  0  0
   56.2800   24.6200   47.0370 N   0  0  0  0  0  0  0  0  0  0  0  0
   56.4840   22.9990   46.4560 S   0  0  0  0  0  0  0  0  0  0  0  0
   57.4750   23.0000   44.9770 C   0  0  0  0  0  0  0  0  0  0  0  0
   57.1920   22.1960   47.5090 O   0  0  0  0  0  0  0  0  0  0  0  0
   55.1450   22.3740   46.1890 O   0  0  0  0  0  0  0  0  0  0  0  0
   56.1660   26.8280   45.9950 C   0  0  0  0  0  0  0  0  0  0  0  0
   54.7810   26.7100   46.0130 O   0  0  0  0  0  0  0  0  0  0  0  0
   57.3160   31.3420   45.4950 N   0  0  0  0  0  0  0  0  0  0  0  0
   57.4437   31.9965   47.9792 H   0  0  0  0  0  0  0  0  0  0  0  0
   59.1716   32.3940   47.6914 H   0  0  0  0  0  0  0  0  0  0  0  0
   57.9376   33.6994   47.6914 H   0  0  0  0  0  0  0  0  0  0  0  0
   58.9422   34.2976   45.3949 H   0  0  0  0  0  0  0  0  0  0  0  0
   56.7245   31.1277   41.5398 H   0  0  0  0  0  0  0  0  0  0  0  0
   57.0854   32.8737   41.3211 H   0  0  0  0  0  0  0  0  0  0  0  0
   58.4218   31.6735   41.3211 H   0  0  0  0  0  0  0  0  0  0  0  0
   55.5579   30.0896   43.1407 H   0  0  0  0  0  0  0  0  0  0  0  0
   57.1484   29.2352   43.1637 H   0  0  0  0  0  0  0  0  0  0  0  0
   55.2750   29.4990   45.5190 H   0  0  0  0  0  0  0  0  0  0  0  0
   58.6630   29.0225   45.1766 H   0  0  0  0  0  0  0  0  0  0  0  0
   60.0476   27.1797   46.1174 H   0  0  0  0  0  0  0  0  0  0  0  0
   58.9615   25.1070   46.9724 H   0  0  0  0  0  0  0  0  0  0  0  0
   58.5407   23.0011   45.2497 H   0  0  0  0  0  0  0  0  0  0  0  0
   57.2492   22.1016   44.3837 H   0  0  0  0  0  0  0  0  0  0  0  0
   57.2474   23.8979   44.3837 H   0  0  0  0  0  0  0  0  0  0  0  0
  1  2  1  0
  2  3  2  0
  3  4  1  0
  4  5  2  0
  5  6  1  0
  5  7  1  0
  7  8  1  0
  8  9  1  0
  9 10  1  0
 10 11  2  0
 11 12  1  0
 12 13  2  0
 13 14  1  0
 14 15  1  0
 15 16  1  0
 16 17  1  0
 16 18  2  0
 16 19  2  0
 14 20  2  0
 20 21  1  0
  7 22  2  0
 22  2  1  0
 20 10  1  0
  1 23  1  0
  1 24  1  0
  1 25  1  0
  3 26  1  0
  6 27  1  0
  6 28  1  0
  6 29  1  0
  8 30  1  0
  8 31  1  0
  9 32  1  0
 11 33  1  0
 12 34  1  0
 13 35  1  0
 17 36  1  0
 17 37  1  0
 17 38  1  0
M  CHG  2  15  -1  21  -1
M  END
>  <UniqueID>  (15) 
15

>  <SMILES>  (15) 
Cc1cnc(C)c(CNc2cccc([N-]S(C)(=O)=O)c2[O-])n1

>  <Energy>  (15) 
41.77188126707131

>  <Genealogy>  (15) 
Cc1cnc(C)c(CNc2cccc([N-]S(C)(=O)=O)c2[O-])n1 (protonated)
Cc1cnc(C)c(CNc2cccc([N-]S(C)(=O)=O)c2[O-])n1 (3D coordinates assigned)
Cc1cnc(C)c(CNc2cccc([N-]S(C)(=O)=O)c2[O-])n1 (optimized conformer: 41.77188126707131 kcal/mol)

>  <smiles>  (15) 
Cc1cnc(C)c(CNc2cccc(NS(C)(=O)=O)c2O)n1

>  <score_type>  (15) 
oracle

>  <origin>  (15) 
adg

>  <m_score__min__energy>  (15) 
-14.029999999999999

>  <m_primary>  (15) 
energy

$$$$
15:0
     RDKit          3D

 47 50  0  0  0  0  0  0  0  0999 V2000
   55.1950   29.3570   44.8610 N   0  0  0  0  0  0  0  0  0  0  0  0
   56.8160   29.6970   44.3710 S   0  0  0  0  0  0  0  0  0  0  0  0
   57.3490   28.5470   43.5620 O   0  0  0  0  0  0  0  0  0  0  0  0
   56.8350   30.9350   43.5200 O   0  0  0  0  0  0  0  0  0  0  0  0
   57.8180   29.9370   45.7980 C   0  0  0  0  0  0  0  0  0  0  0  0
   57.9660   31.2170   46.3470 C   0  0  0  0  0  0  0  0  0  0  0  0
   58.7550   31.4080   47.4850 C   0  0  0  0  0  0  0  0  0  0  0  0
   59.4060   30.3200   48.0870 C   0  0  0  0  0  0  0  0  0  0  0  0
   60.2280   30.5140   49.2510 N   0  0  0  0  0  0  0  0  0  0  0  0
   60.0630   29.9080   50.4440 C   0  0  0  0  0  0  0  0  0  0  0  0
   59.0730   28.9700   50.7170 O   0  0  0  0  0  0  0  0  0  0  0  0
   60.9900   30.3610   51.3510 C   0  0  0  0  0  0  0  0  0  0  0  0
   61.1090   29.9240   52.6670 O   0  0  0  0  0  0  0  0  0  0  0  0
   61.7780   31.2950   50.6950 C   0  0  0  0  0  0  0  0  0  0  0  0
   62.9340   32.0240   51.2630 C   0  0  0  0  0  0  0  0  0  0  0  0
   62.7610   33.1860   51.7180 O   0  0  0  0  0  0  0  0  0  0  0  0
   64.2960   31.4410   51.2780 C   0  0  0  0  0  0  0  0  0  0  0  0
   65.3160   32.0570   50.5330 C   0  0  0  0  0  0  0  0  0  0  0  0
   66.5960   31.4990   50.4900 C   0  0  0  0  0  0  0  0  0  0  0  0
   66.8750   30.3290   51.1990 C   0  0  0  0  0  0  0  0  0  0  0  0
   65.8770   29.7220   51.9650 C   0  0  0  0  0  0  0  0  0  0  0  0
   64.5920   30.2760   52.0160 C   0  0  0  0  0  0  0  0  0  0  0  0
   63.6280   29.6680   52.8130 O   0  0  0  0  0  0  0  0  0  0  0  0
   61.2720   31.3710   49.3940 C   0  0  0  0  0  0  0  0  0  0  0  0
   61.7960   32.2360   48.3140 C   0  0  0  0  0  0  0  0  0  0  0  0
   63.0950   32.0420   47.8160 C   0  0  0  0  0  0  0  0  0  0  0  0
   63.5760   32.8420   46.7750 C   0  0  0  0  0  0  0  0  0  0  0  0
   62.7670   33.8440   46.2300 C   0  0  0  0  0  0  0  0  0  0  0  0
   61.4770   34.0490   46.7280 C   0  0  0  0  0  0  0  0  0  0  0  0
   60.6940   35.0210   46.1990 F   0  0  0  0  0  0  0  0  0  0  0  0
   60.9920   33.2490   47.7670 C   0  0  0  0  0  0  0  0  0  0  0  0
   59.2430   29.0360   47.5430 C   0  0  0  0  0  0  0  0  0  0  0  0
   58.4530   28.8460   46.4050 C   0  0  0  0  0  0  0  0  0  0  0  0
   55.2490   28.6460   45.6240 H   0  0  0  0  0  0  0  0  0  0  0  0
   57.4595   32.0751   45.8810 H   0  0  0  0  0  0  0  0  0  0  0  0
   58.8662   32.4161   47.9109 H   0  0  0  0  0  0  0  0  0  0  0  0
   62.0120   29.7510   53.0920 H   0  0  0  0  0  0  0  0  0  0  0  0
   65.1052   32.9844   49.9802 H   0  0  0  0  0  0  0  0  0  0  0  0
   67.3858   31.9825   49.8963 H   0  0  0  0  0  0  0  0  0  0  0  0
   67.8806   29.8853   51.1544 H   0  0  0  0  0  0  0  0  0  0  0  0
   66.1014   28.8054   52.5302 H   0  0  0  0  0  0  0  0  0  0  0  0
   63.7358   31.2583   48.2463 H   0  0  0  0  0  0  0  0  0  0  0  0
   64.5919   32.6830   46.3843 H   0  0  0  0  0  0  0  0  0  0  0  0
   63.1458   34.4709   45.4093 H   0  0  0  0  0  0  0  0  0  0  0  0
   59.9769   33.4137   48.1574 H   0  0  0  0  0  0  0  0  0  0  0  0
   59.7393   28.1750   48.0145 H   0  0  0  0  0  0  0  0  0  0  0  0
   58.3298   27.8367   45.9852 H   0  0  0  0  0  0  0  0  0  0  0  0
  1  2  1  0
  2  3  2  0
  2  4  2  0
  2  5  1  0
  5  6  2  0
  6  7  1  0
  7  8  2  0
  8  9  1  0
  9 10  1  0
 10 11  1  0
 10 12  2  0
 12 13  1  0
 12 14  1  0
 14 15  1  0
 15 16  2  0
 15 17  1  0
 17 18  2  0
 18 19  1  0
 19 20  2  0
 20 21  1  0
 21 22  2  0
 22 23  1  0
 14 24  2  0
 24 25  1  0
 25 26  2  0
 26 27  1  0
 27 28  2  0
 28 29  1  0
 29 30  1  0
 29 31  2  0
  8 32  1  0
 32 33  2  0
 33  5  1  0
 24  9  1  0
 31 25  1  0
 22 17  1  0
  1 34  1  0
  6 35  1  0
  7 36  1  0
 13 37  1  0
 18 38  1  0
 19 39  1  0
 20 40  1  0
 21 41  1  0
 26 42  1  0
 27 43  1  0
 28 44  1  0
 31 45  1  0
 32 46  1  0
 33 47  1  0
M  CHG  3   1  -1  11  -1  23  -1
M  END
>  <UniqueID>  (16) 
16

>  <SMILES>  (16) 
[NH-]S(=O)(=O)c1ccc(-n2c([O-])c(O)c(C(=O)c3ccccc3[O-])c2-c2cccc(F)c2)cc1

>  <Energy>  (16) 
96.6957362899045

>  <Genealogy>  (16) 
[NH-]S(=O)(=O)c1ccc(-n2c([O-])c(O)c(C(=O)c3ccccc3[O-])c2-c2cccc(F)c2)cc1 (protonated)
[NH-]S(=O)(=O)c1ccc(-n2c([O-])c(O)c(C(=O)c3ccccc3[O-])c2-c2cccc(F)c2)cc1 (3D coordinates assigned)
[NH-]S(=O)(=O)c1ccc(-n2c([O-])c(O)c(C(=O)c3ccccc3[O-])c2-c2cccc(F)c2)cc1 (optimized conformer: 96.6957362899045 kcal/mol)

>  <smiles>  (16) 
NS(=O)(=O)c1ccc(-n2c(O)c(O)c(C(=O)c3ccccc3O)c2-c2cccc(F)c2)cc1

>  <score_type>  (16) 
oracle

>  <origin>  (16) 
adg

>  <m_score__min__energy>  (16) 
-14.210000000000001

>  <m_primary>  (16) 
energy

$$$$
16:0
     RDKit          3D

 32 33  0  0  0  0  0  0  0  0999 V2000
   55.8070   27.5140   46.0460 H   0  0  0  0  0  0  0  0  0  0  0  0
   55.1860   26.7160   45.9850 O   0  0  0  0  0  0  0  0  0  0  0  0
   55.6620   25.4330   45.7180 C   0  0  0  0  0  0  0  0  0  0  0  0
   54.8000   24.3410   45.8910 C   0  0  0  0  0  0  0  0  0  0  0  0
   53.7478   24.5122   46.1624 H   0  0  0  0  0  0  0  0  0  0  0  0
   55.2690   23.0400   45.7210 C   0  0  0  0  0  0  0  0  0  0  0  0
   54.5928   22.1825   45.8530 H   0  0  0  0  0  0  0  0  0  0  0  0
   56.6040   22.8390   45.3820 C   0  0  0  0  0  0  0  0  0  0  0  0
   56.9936   21.8169   45.2655 H   0  0  0  0  0  0  0  0  0  0  0  0
   57.4260   23.9040   45.1950 N   0  0  0  0  0  0  0  0  0  0  0  0
   57.0040   25.1920   45.3240 C   0  0  0  0  0  0  0  0  0  0  0  0
   57.8800   26.1360   45.1080 N   0  0  0  0  0  0  0  0  0  0  0  0
   58.8600   26.6870   45.9990 C   0  0  0  0  0  0  0  0  0  0  0  0
   59.6270   25.9330   46.6580 O   0  0  0  0  0  0  0  0  0  0  0  0
   58.8750   28.1610   46.2540 C   0  0  0  0  0  0  0  0  0  0  0  0
   59.4238   28.3605   47.1862 H   0  0  0  0  0  0  0  0  0  0  0  0
   59.3667   28.6612   45.4066 H   0  0  0  0  0  0  0  0  0  0  0  0
   57.5120   28.6790   46.3790 N   0  0  0  0  0  0  0  0  0  0  0  0
   56.9300   29.2990   44.8600 S   0  0  0  0  0  0  0  0  0  0  0  0
   57.4120   28.4110   43.7500 O   0  0  0  0  0  0  0  0  0  0  0  0
   55.4260   29.2950   44.8570 O   0  0  0  0  0  0  0  0  0  0  0  0
   57.5400   30.9290   44.5850 C   0  0  0  0  0  0  0  0  0  0  0  0
   57.6540   31.4110   43.2740 C   0  0  0  0  0  0  0  0  0  0  0  0
   57.3527   30.7764   42.4276 H   0  0  0  0  0  0  0  0  0  0  0  0
   58.1500   32.6970   43.0400 C   0  0  0  0  0  0  0  0  0  0  0  0
   58.2390   33.0721   42.0098 H   0  0  0  0  0  0  0  0  0  0  0  0
   58.5330   33.5070   44.1130 C   0  0  0  0  0  0  0  0  0  0  0  0
   58.9216   34.5191   43.9269 H   0  0  0  0  0  0  0  0  0  0  0  0
   58.4220   33.0300   45.4240 C   0  0  0  0  0  0  0  0  0  0  0  0
   58.9480   34.1360   46.8910 Br  0  0  0  0  0  0  0  0  0  0  0  0
   57.9270   31.7420   45.6610 C   0  0  0  0  0  0  0  0  0  0  0  0
   57.8414   31.3671   46.6916 H   0  0  0  0  0  0  0  0  0  0  0  0
  1  2  1  0
  2  3  1  0
  3  4  2  0
  4  5  1  0
  4  6  1  0
  6  7  1  0
  6  8  2  0
  8  9  1  0
  8 10  1  0
 10 11  1  0
 11 12  2  0
 12 13  1  0
 13 14  2  0
 13 15  1  0
 15 16  1  0
 15 17  1  0
 15 18  1  0
 18 19  1  0
 19 20  2  0
 19 21  2  0
 19 22  1  0
 22 23  2  0
 23 24  1  0
 23 25  1  0
 25 26  1  0
 25 27  2  0
 27 28  1  0
 27 29  1  0
 29 30  1  0
 29 31  2  0
 31 32  1  0
 11  3  1  0
 31 22  1  0
M  CHG  2  10  -1  18  -1
M  END
>  <UniqueID>  (17) 
17

>  <SMILES>  (17) 
O=C(C[N-]S(=O)(=O)c1cccc(Br)c1)/N=c1/[n-]cccc1O

>  <Energy>  (17) 
43.11410836100968

>  <Genealogy>  (17) 
O=C(C[N-]S(=O)(=O)c1cccc(Br)c1)N=c1[n-]cccc1O (protonated)
O=C(C[N-]S(=O)(=O)c1cccc(Br)c1)/N=c1/[n-]cccc1O (cis-trans isomerization)
O=C(C[N-]S(=O)(=O)c1cccc(Br)c1)/N=c1/[n-]cccc1O (3D coordinates assigned)
O=C(C[N-]S(=O)(=O)c1cccc(Br)c1)/N=c1/[n-]cccc1O (optimized conformer: 43.11410836100968 kcal/mol)

>  <smiles>  (17) 
O=C(CNS(=O)(=O)c1cccc(Br)c1)N=c1[nH]cccc1O

>  <score_type>  (17) 
oracle

>  <origin>  (17) 
adg

>  <m_score__min__energy>  (17) 
-11.619999999999999

>  <m_primary>  (17) 
energy

$$$$
17:0
     RDKit          3D

 48 51  0  0  0  0  0  0  0  0999 V2000
   57.0560   21.0960   42.6940 C   0  0  0  0  0  0  0  0  0  0  0  0
   55.9030   21.4610   43.4430 O   0  0  0  0  0  0  0  0  0  0  0  0
   55.8940   21.7120   44.8260 C   0  0  0  0  0  0  0  0  0  0  0  0
   55.8070   20.6660   45.7660 C   0  0  0  0  0  0  0  0  0  0  0  0
   55.8020   20.9420   47.1350 C   0  0  0  0  0  0  0  0  0  0  0  0
   55.8860   22.2580   47.5840 C   0  0  0  0  0  0  0  0  0  0  0  0
   55.9740   23.3060   46.6660 C   0  0  0  0  0  0  0  0  0  0  0  0
   55.9750   23.0460   45.2850 C   0  0  0  0  0  0  0  0  0  0  0  0
   56.0930   24.2060   44.3260 C   0  0  0  0  0  0  0  0  0  0  0  0
   57.0410   25.1930   44.8390 N   0  0  0  0  0  0  0  0  0  0  0  0
   56.6410   26.2590   45.7160 C   0  0  0  0  0  0  0  0  0  0  0  0
   55.4210   26.4110   45.9970 O   0  0  0  0  0  0  0  0  0  0  0  0
   57.6370   27.1990   46.2860 C   0  0  0  0  0  0  0  0  0  0  0  0
   58.4980   26.8070   47.3250 C   0  0  0  0  0  0  0  0  0  0  0  0
   59.4280   27.7060   47.8530 C   0  0  0  0  0  0  0  0  0  0  0  0
   59.5110   29.0220   47.3670 C   0  0  0  0  0  0  0  0  0  0  0  0
   60.5170   29.9520   47.9420 C   0  0  0  0  0  0  0  0  0  0  0  0
   61.0100   29.7960   49.2500 C   0  0  0  0  0  0  0  0  0  0  0  0
   61.9550   30.6990   49.7370 C   0  0  0  0  0  0  0  0  0  0  0  0
   62.4010   30.5620   50.9090 O   0  0  0  0  0  0  0  0  0  0  0  0
   62.3980   31.7450   48.9130 C   0  0  0  0  0  0  0  0  0  0  0  0
   63.3480   32.6910   49.3420 C   0  0  0  0  0  0  0  0  0  0  0  0
   63.7590   33.7110   48.4790 C   0  0  0  0  0  0  0  0  0  0  0  0
   63.2290   33.7960   47.1880 C   0  0  0  0  0  0  0  0  0  0  0  0
   62.2860   32.8610   46.7520 C   0  0  0  0  0  0  0  0  0  0  0  0
   61.8660   31.8360   47.6080 C   0  0  0  0  0  0  0  0  0  0  0  0
   60.9670   30.9520   47.1850 O   0  0  0  0  0  0  0  0  0  0  0  0
   58.6500   29.4140   46.3260 C   0  0  0  0  0  0  0  0  0  0  0  0
   57.7190   28.5140   45.7980 C   0  0  0  0  0  0  0  0  0  0  0  0
   57.8738   20.8371   43.3826 H   0  0  0  0  0  0  0  0  0  0  0  0
   56.8218   20.2281   42.0601 H   0  0  0  0  0  0  0  0  0  0  0  0
   57.3640   21.9406   42.0601 H   0  0  0  0  0  0  0  0  0  0  0  0
   55.7425   19.6242   45.4189 H   0  0  0  0  0  0  0  0  0  0  0  0
   55.7316   20.1182   47.8605 H   0  0  0  0  0  0  0  0  0  0  0  0
   55.8830   22.4716   48.6631 H   0  0  0  0  0  0  0  0  0  0  0  0
   56.0431   24.3430   47.0263 H   0  0  0  0  0  0  0  0  0  0  0  0
   56.4451   23.8369   43.3514 H   0  0  0  0  0  0  0  0  0  0  0  0
   55.1069   24.6806   44.2150 H   0  0  0  0  0  0  0  0  0  0  0  0
   58.0250   25.1430   44.4940 H   0  0  0  0  0  0  0  0  0  0  0  0
   58.4393   25.7843   47.7258 H   0  0  0  0  0  0  0  0  0  0  0  0
   60.1029   27.3801   48.6582 H   0  0  0  0  0  0  0  0  0  0  0  0
   60.6537   28.9698   49.8828 H   0  0  0  0  0  0  0  0  0  0  0  0
   63.7672   32.6276   50.3570 H   0  0  0  0  0  0  0  0  0  0  0  0
   64.5016   34.4489   48.8166 H   0  0  0  0  0  0  0  0  0  0  0  0
   63.5552   34.6012   46.5133 H   0  0  0  0  0  0  0  0  0  0  0  0
   61.8733   32.9307   45.7347 H   0  0  0  0  0  0  0  0  0  0  0  0
   58.7095   30.4363   45.9242 H   0  0  0  0  0  0  0  0  0  0  0  0
   57.0440   28.8389   44.9925 H   0  0  0  0  0  0  0  0  0  0  0  0
  1  2  1  0
  2  3  1  0
  3  4  2  0
  4  5  1  0
  5  6  2  0
  6  7  1  0
  7  8  2  0
  8  9  1  0
  9 10  1  0
 10 11  1  0
 11 12  2  0
 11 13  1  0
 13 14  2  0
 14 15  1  0
 15 16  2  0
 16 17  1  0
 17 18  2  0
 18 19  1  0
 19 20  2  0
 19 21  1  0
 21 22  2  0
 22 23  1  0
 23 24  2  0
 24 25  1  0
 25 26  2  0
 26 27  1  0
 16 28  1  0
 28 29  2  0
  8  3  1  0
 29 13  1  0
 27 17  1  0
 26 21  1  0
  1 30  1  0
  1 31  1  0
  1 32  1  0
  4 33  1  0
  5 34  1  0
  6 35  1  0
  7 36  1  0
  9 37  1  0
  9 38  1  0
 10 39  1  0
 14 40  1  0
 15 41  1  0
 18 42  1  0
 22 43  1  0
 23 44  1  0
 24 45  1  0
 25 46  1  0
 28 47  1  0
 29 48  1  0
M  END
>  <UniqueID>  (18) 
18

>  <SMILES>  (18) 
COc1ccccc1CNC(=O)c1ccc(-c2cc(=O)c3ccccc3o2)cc1

>  <Energy>  (18) 
61.95728236934708

>  <Genealogy>  (18) 
COc1ccccc1CNC(=O)c1ccc(-c2cc(=O)c3ccccc3o2)cc1 (3D coordinates assigned)
COc1ccccc1CNC(=O)c1ccc(-c2cc(=O)c3ccccc3o2)cc1 (optimized conformer: 61.95728236934708 kcal/mol)

>  <smiles>  (18) 
COc1ccccc1CNC(=O)c1ccc(-c2cc(=O)c3ccccc3o2)cc1

>  <score_type>  (18) 
oracle

>  <origin>  (18) 
adg

>  <m_score__min__energy>  (18) 
-8.1400000000000006

>  <m_primary>  (18) 
energy

$$$$
18:0
     RDKit          3D

 51 53  0  0  1  0  0  0  0  0999 V2000
   59.1420   33.8380   44.6150 C   0  0  0  0  0  0  0  0  0  0  0  0
   57.8630   33.2000   45.1210 C   0  0  0  0  0  0  0  0  0  0  0  0
   58.1300   32.6370   46.5210 C   0  0  0  0  0  0  0  0  0  0  0  0
   56.8270   34.2760   45.2550 C   0  0  0  0  0  0  0  0  0  0  0  0
   57.4410   32.0670   44.2660 C   0  0  0  0  0  0  0  0  0  0  0  0
   57.7650   31.9890   43.0320 O   0  0  0  0  0  0  0  0  0  0  0  0
   56.6480   30.9960   44.7630 N   0  0  0  0  0  0  0  0  0  0  0  0
   57.0370   29.7910   44.4890 C   0  0  0  0  0  0  0  0  0  0  0  0
   57.5090   29.2050   43.3410 N   0  0  0  0  0  0  0  0  0  0  0  0
   57.8080   27.9810   43.4070 N   0  0  0  0  0  0  0  0  0  0  0  0
   57.7400   27.1980   44.3840 C   0  0  0  0  0  0  0  0  0  0  0  0
   58.0590   25.5150   44.8050 S   0  0  0  0  0  0  0  0  0  0  0  0
   59.2270   25.3350   46.1660 C   0  0  0  0  0  0  0  0  0  0  0  0
   59.6650   26.7060   46.5600 C   0  0  0  0  0  0  0  0  0  0  0  0
   60.3940   27.5270   45.7260 C   0  0  0  0  0  0  0  0  0  0  0  0
   60.7570   28.7820   46.1740 C   0  0  0  0  0  0  0  0  0  0  0  0
   60.4200   29.2560   47.4230 C   0  0  0  0  0  0  0  0  0  0  0  0
   60.7930   30.5760   47.9140 C   0  0  0  0  0  0  0  0  0  0  0  0
   60.6350   30.8300   49.1370 O   0  0  0  0  0  0  0  0  0  0  0  0
   61.3250   31.6030   47.1050 N   0  0  0  0  0  0  0  0  0  0  0  0
   61.7010   32.9080   47.5460 C   0  0  0  0  0  0  0  0  0  0  0  0
   62.8310   32.9420   48.4930 C   0  0  0  0  0  0  0  0  0  0  0  0
   63.0650   33.8370   49.5120 C   0  0  0  0  0  0  0  0  0  0  0  0
   64.2470   33.4750   50.1340 C   0  0  0  0  0  0  0  0  0  0  0  0
   64.6790   32.3570   49.4470 C   0  0  0  0  0  0  0  0  0  0  0  0
   63.8220   32.0840   48.5000 O   0  0  0  0  0  0  0  0  0  0  0  0
   59.6880   28.3980   48.2270 C   0  0  0  0  0  0  0  0  0  0  0  0
   59.3020   27.1370   47.8270 C   0  0  0  0  0  0  0  0  0  0  0  0
   57.0520   28.4030   45.7260 S   0  0  0  0  0  0  0  0  0  0  0  0
   59.7610   34.1468   45.4703 H   0  0  0  0  0  0  0  0  0  0  0  0
   59.6974   33.1113   44.0038 H   0  0  0  0  0  0  0  0  0  0  0  0
   58.8955   34.7187   44.0038 H   0  0  0  0  0  0  0  0  0  0  0  0
   57.7879   33.3584   47.2777 H   0  0  0  0  0  0  0  0  0  0  0  0
   57.5854   31.6894   46.6451 H   0  0  0  0  0  0  0  0  0  0  0  0
   59.2084   32.4591   46.6451 H   0  0  0  0  0  0  0  0  0  0  0  0
   56.6380   34.4723   46.3207 H   0  0  0  0  0  0  0  0  0  0  0  0
   57.1886   35.1954   44.7713 H   0  0  0  0  0  0  0  0  0  0  0  0
   55.8946   33.9495   44.7713 H   0  0  0  0  0  0  0  0  0  0  0  0
   57.5920   29.8150   42.4740 H   0  0  0  0  0  0  0  0  0  0  0  0
   58.7395   24.8366   47.0169 H   0  0  0  0  0  0  0  0  0  0  0  0
   60.0891   24.7238   45.8607 H   0  0  0  0  0  0  0  0  0  0  0  0
   60.6819   27.1879   44.7200 H   0  0  0  0  0  0  0  0  0  0  0  0
   61.3404   29.4312   45.5046 H   0  0  0  0  0  0  0  0  0  0  0  0
   61.4470   31.3610   46.0750 H   0  0  0  0  0  0  0  0  0  0  0  0
   61.9783   33.5007   46.6618 H   0  0  0  0  0  0  0  0  0  0  0  0
   60.8329   33.3127   48.0870 H   0  0  0  0  0  0  0  0  0  0  0  0
   62.4254   34.6896   49.7840 H   0  0  0  0  0  0  0  0  0  0  0  0
   64.7350   33.9686   50.9873 H   0  0  0  0  0  0  0  0  0  0  0  0
   65.5960   31.7889   49.6626 H   0  0  0  0  0  0  0  0  0  0  0  0
   59.4011   28.7393   49.2326 H   0  0  0  0  0  0  0  0  0  0  0  0
   58.7196   26.4876   48.4971 H   0  0  0  0  0  0  0  0  0  0  0  0
  1  2  1  0
  2  3  1  0
  2  4  1  0
  2  5  1  0
  5  6  2  0
  5  7  1  0
  7  8  2  0
  8  9  1  0
  9 10  1  0
 10 11  2  0
 11 12  1  0
 12 13  1  0
 13 14  1  0
 14 15  2  0
 15 16  1  0
 16 17  2  0
 17 18  1  0
 18 19  2  0
 18 20  1  0
 20 21  1  0
 21 22  1  0
 22 23  2  0
 23 24  1  0
 24 25  2  0
 25 26  1  0
 17 27  1  0
 27 28  2  0
 11 29  1  0
 29  8  1  0
 28 14  1  0
 26 22  1  0
  1 30  1  0
  1 31  1  0
  1 32  1  0
  3 33  1  0
  3 34  1  0
  3 35  1  0
  4 36  1  0
  4 37  1  0
  4 38  1  0
  9 39  1  0
 13 40  1  0
 13 41  1  0
 15 42  1  0
 16 43  1  0
 20 44  1  0
 21 45  1  0
 21 46  1  0
 23 47  1  0
 24 48  1  0
 25 49  1  0
 27 50  1  0
 28 51  1  0
M  END
>  <smiles>  (19) 
CC(C)(C)C(=O)N=c1[nH]nc(SCc2ccc(C(=O)NCc3ccco3)cc2)s1

>  <score_type>  (19) 
oracle

>  <origin>  (19) 
adg

>  <m_score__min__energy>  (19) 
-9.8200000000000003

>  <m_primary>  (19) 
energy

$$$$
19:0
     RDKit          3D

 44 46  0  0  1  0  0  0  0  0999 V2000
   59.9760   33.8230   50.2380 C   0  0  0  0  0  0  0  0  0  0  0  0
   60.5310   33.7260   48.8600 C   0  0  0  0  0  0  0  0  0  0  0  0
   59.6320   33.8590   47.8160 C   0  0  0  0  0  0  0  0  0  0  0  0
   60.1490   33.7690   46.5420 C   0  0  0  0  0  0  0  0  0  0  0  0
   59.3670   33.8840   45.5230 N   0  0  0  0  0  0  0  0  0  0  0  0
   57.7440   33.3430   45.5270 S   0  0  0  0  0  0  0  0  0  0  0  0
   57.0370   34.0420   44.3980 O   0  0  0  0  0  0  0  0  0  0  0  0
   56.9940   33.6530   46.7810 O   0  0  0  0  0  0  0  0  0  0  0  0
   57.7410   31.6120   45.1890 C   0  0  0  0  0  0  0  0  0  0  0  0
   56.6500   31.1440   44.4670 C   0  0  0  0  0  0  0  0  0  0  0  0
   56.5530   29.8010   44.1510 C   0  0  0  0  0  0  0  0  0  0  0  0
   57.5790   28.9510   44.5810 C   0  0  0  0  0  0  0  0  0  0  0  0
   57.4270   27.5800   44.2270 N   0  0  0  0  0  0  0  0  0  0  0  0
   57.7550   26.5730   45.1590 C   0  0  0  0  0  0  0  0  0  0  0  0
   58.1810   26.8720   46.3030 O   0  0  0  0  0  0  0  0  0  0  0  0
   57.6000   25.1680   44.7960 C   0  0  0  0  0  0  0  0  0  0  0  0
   58.3440   24.1160   45.2900 C   0  0  0  0  0  0  0  0  0  0  0  0
   57.8780   22.9650   44.6920 C   0  0  0  0  0  0  0  0  0  0  0  0
   56.8600   23.3680   43.8510 C   0  0  0  0  0  0  0  0  0  0  0  0
   56.0800   22.5150   43.0220 N   0  0  0  0  0  0  0  0  0  0  0  0
   55.1530   22.9700   42.3390 O   0  0  0  0  0  0  0  0  0  0  0  0
   56.3380   21.1650   42.9580 O   0  0  0  0  0  0  0  0  0  0  0  0
   56.7370   24.6690   43.9500 O   0  0  0  0  0  0  0  0  0  0  0  0
   58.6580   29.4280   45.2990 C   0  0  0  0  0  0  0  0  0  0  0  0
   58.7570   30.7830   45.6180 C   0  0  0  0  0  0  0  0  0  0  0  0
   61.4660   33.5600   46.3540 N   0  0  0  0  0  0  0  0  0  0  0  0
   62.3240   33.4320   47.3800 C   0  0  0  0  0  0  0  0  0  0  0  0
   63.7760   33.2000   47.1630 C   0  0  0  0  0  0  0  0  0  0  0  0
   61.8410   33.5170   48.6300 N   0  0  0  0  0  0  0  0  0  0  0  0
   60.7849   33.6816   50.9699 H   0  0  0  0  0  0  0  0  0  0  0  0
   59.5211   34.8143   50.3812 H   0  0  0  0  0  0  0  0  0  0  0  0
   59.2119   33.0448   50.3812 H   0  0  0  0  0  0  0  0  0  0  0  0
   58.5598   34.0279   47.9943 H   0  0  0  0  0  0  0  0  0  0  0  0
   55.8628   31.8422   44.1465 H   0  0  0  0  0  0  0  0  0  0  0  0
   55.6967   29.4130   43.5798 H   0  0  0  0  0  0  0  0  0  0  0  0
   57.0720   27.2830   43.2750 H   0  0  0  0  0  0  0  0  0  0  0  0
   59.1590   24.1836   46.0257 H   0  0  0  0  0  0  0  0  0  0  0  0
   58.2414   21.9391   44.8516 H   0  0  0  0  0  0  0  0  0  0  0  0
   59.4470   28.7332   45.6226 H   0  0  0  0  0  0  0  0  0  0  0  0
   59.6116   31.1747   46.1891 H   0  0  0  0  0  0  0  0  0  0  0  0
   64.2837   33.1189   48.1354 H   0  0  0  0  0  0  0  0  0  0  0  0
   63.9177   32.2678   46.5965 H   0  0  0  0  0  0  0  0  0  0  0  0
   64.2011   34.0416   46.5965 H   0  0  0  0  0  0  0  0  0  0  0  0
   62.4780   33.4230   49.4720 H   0  0  0  0  0  0  0  0  0  0  0  0
  1  2  1  0
  2  3  2  0
  3  4  1  0
  4  5  2  0
  5  6  1  0
  6  7  2  0
  6  8  2  0
  6  9  1  0
  9 10  2  0
 10 11  1  0
 11 12  2  0
 12 13  1  0
 13 14  1  0
 14 15  2  0
 14 16  1  0
 16 17  2  0
 17 18  1  0
 18 19  2  0
 19 20  1  0
 20 21  2  0
 20 22  1  0
 19 23  1  0
 12 24  1  0
 24 25  2  0
  4 26  1  0
 26 27  2  0
 27 28  1  0
 27 29  1  0
 29  2  1  0
 25  9  1  0
 23 16  1  0
  1 30  1  0
  1 31  1  0
  1 32  1  0
  3 33  1  0
 10 34  1  0
 11 35  1  0
 13 36  1  0
 17 37  1  0
 18 38  1  0
 24 39  1  0
 25 40  1  0
 28 41  1  0
 28 42  1  0
 28 43  1  0
 29 44  1  0
M  CHG  2  20   1  22  -1
M  END
>  <smiles>  (20) 
Cc1cc(=NS(=O)(=O)c2ccc(NC(=O)c3ccc([N+](=O)[O-])o3)cc2)nc(C)[nH]1

>  <score_type>  (20) 
oracle

>  <origin>  (20) 
adg

>  <m_score__min__energy>  (20) 
-9.3000000000000007

>  <m_primary>  (20) 
energy

$$$$
20:0
     RDKit          3D

 49 51  0  0  0  0  0  0  0  0999 V2000
   58.2340   26.7300   45.0040 C   0  0  0  0  0  0  0  0  0  0  0  0
   58.5000   27.8820   45.9380 C   0  0  0  0  0  0  0  0  0  0  0  0
   58.7390   27.6210   47.2970 C   0  0  0  0  0  0  0  0  0  0  0  0
   58.9950   28.6640   48.1890 C   0  0  0  0  0  0  0  0  0  0  0  0
   59.0060   29.9930   47.7460 C   0  0  0  0  0  0  0  0  0  0  0  0
   59.2710   31.1040   48.6900 C   0  0  0  0  0  0  0  0  0  0  0  0
   60.0290   30.9180   49.6810 O   0  0  0  0  0  0  0  0  0  0  0  0
   58.6280   32.3710   48.5110 N   0  0  0  0  0  0  0  0  0  0  0  0
   58.5940   33.1440   47.3040 C   0  0  0  0  0  0  0  0  0  0  0  0
   57.3880   33.3720   46.6160 C   0  0  0  0  0  0  0  0  0  0  0  0
   57.3840   34.0910   45.4200 C   0  0  0  0  0  0  0  0  0  0  0  0
   58.5740   34.6080   44.9100 C   0  0  0  0  0  0  0  0  0  0  0  0
   59.7710   34.4210   45.6030 C   0  0  0  0  0  0  0  0  0  0  0  0
   59.7880   33.7060   46.8110 C   0  0  0  0  0  0  0  0  0  0  0  0
   61.0240   33.5360   47.5270 N   0  0  0  0  0  0  0  0  0  0  0  0
   61.9360   32.4630   47.1210 C   0  0  0  0  0  0  0  0  0  0  0  0
   63.3480   32.7490   47.6370 C   0  0  0  0  0  0  0  0  0  0  0  0
   63.3350   33.0330   49.0230 O   0  0  0  0  0  0  0  0  0  0  0  0
   62.6230   34.2340   49.2550 C   0  0  0  0  0  0  0  0  0  0  0  0
   61.1450   34.0680   48.8870 C   0  0  0  0  0  0  0  0  0  0  0  0
   58.7570   30.2580   46.3890 C   0  0  0  0  0  0  0  0  0  0  0  0
   58.5050   29.2160   45.4780 C   0  0  0  0  0  0  0  0  0  0  0  0
   58.2290   29.5150   44.0980 N   0  0  0  0  0  0  0  0  0  0  0  0
   56.8990   30.5190   43.5950 S   0  0  0  0  0  0  0  0  0  0  0  0
   57.4940   31.8130   42.5310 C   0  0  0  0  0  0  0  0  0  0  0  0
   55.8700   29.6890   42.8810 O   0  0  0  0  0  0  0  0  0  0  0  0
   56.2600   31.1340   44.8080 O   0  0  0  0  0  0  0  0  0  0  0  0
   58.0246   25.8233   45.5905 H   0  0  0  0  0  0  0  0  0  0  0  0
   57.3665   26.9649   44.3698 H   0  0  0  0  0  0  0  0  0  0  0  0
   59.1167   26.5608   44.3698 H   0  0  0  0  0  0  0  0  0  0  0  0
   58.7243   26.5836   47.6626 H   0  0  0  0  0  0  0  0  0  0  0  0
   59.1897   28.4405   49.2483 H   0  0  0  0  0  0  0  0  0  0  0  0
   56.4436   32.9815   47.0229 H   0  0  0  0  0  0  0  0  0  0  0  0
   56.4398   34.2502   44.8785 H   0  0  0  0  0  0  0  0  0  0  0  0
   58.5696   35.1637   43.9607 H   0  0  0  0  0  0  0  0  0  0  0  0
   60.7066   34.8363   45.2003 H   0  0  0  0  0  0  0  0  0  0  0  0
   61.5828   31.5083   47.5379 H   0  0  0  0  0  0  0  0  0  0  0  0
   61.9588   32.4065   46.0227 H   0  0  0  0  0  0  0  0  0  0  0  0
   63.9819   31.8683   47.4565 H   0  0  0  0  0  0  0  0  0  0  0  0
   63.7443   33.6258   47.1040 H   0  0  0  0  0  0  0  0  0  0  0  0
   62.7022   34.5008   50.3192 H   0  0  0  0  0  0  0  0  0  0  0  0
   63.0560   35.0280   48.6289 H   0  0  0  0  0  0  0  0  0  0  0  0
   60.6695   33.3723   49.5940 H   0  0  0  0  0  0  0  0  0  0  0  0
   60.6481   35.0481   48.9369 H   0  0  0  0  0  0  0  0  0  0  0  0
   58.7591   31.2986   46.0325 H   0  0  0  0  0  0  0  0  0  0  0  0
   58.9090   29.2390   43.3550 H   0  0  0  0  0  0  0  0  0  0  0  0
   57.8760   32.6438   43.1424 H   0  0  0  0  0  0  0  0  0  0  0  0
   58.3031   31.4227   41.8961 H   0  0  0  0  0  0  0  0  0  0  0  0
   56.6711   32.1731   41.8961 H   0  0  0  0  0  0  0  0  0  0  0  0
  1  2  1  0
  2  3  2  0
  3  4  1  0
  4  5  2  0
  5  6  1  0
  6  7  2  0
  6  8  1  0
  8  9  1  0
  9 10  2  0
 10 11  1  0
 11 12  2  0
 12 13  1  0
 13 14  2  0
 14 15  1  0
 15 16  1  0
 16 17  1  0
 17 18  1  0
 18 19  1  0
 19 20  1  0
  5 21  1  0
 21 22  2  0
 22 23  1  0
 23 24  1  0
 24 25  1  0
 24 26  2  0
 24 27  2  0
 22  2  1  0
 14  9  1  0
 20 15  1  0
  1 28  1  0
  1 29  1  0
  1 30  1  0
  3 31  1  0
  4 32  1  0
 10 33  1  0
 11 34  1  0
 12 35  1  0
 13 36  1  0
 16 37  1  0
 16 38  1  0
 17 39  1  0
 17 40  1  0
 19 41  1  0
 19 42  1  0
 20 43  1  0
 20 44  1  0
 21 45  1  0
 23 46  1  0
 25 47  1  0
 25 48  1  0
 25 49  1  0
M  CHG  1   8  -1
M  END
>  <UniqueID>  (21) 
19

>  <SMILES>  (21) 
Cc1ccc(C(=O)[N-]c2ccccc2N2CCOCC2)cc1NS(C)(=O)=O

>  <Energy>  (21) 
60.86263340716032

>  <Genealogy>  (21) 
Cc1ccc(C(=O)[N-]c2ccccc2N2CCOCC2)cc1NS(C)(=O)=O (protonated)
Cc1ccc(C(=O)[N-]c2ccccc2N2CCOCC2)cc1NS(C)(=O)=O (3D coordinates assigned)
Cc1ccc(C(=O)[N-]c2ccccc2N2CCOCC2)cc1NS(C)(=O)=O (nonaromatic ring conformer: 60.86263340716032 kcal/mol)

>  <smiles>  (21) 
Cc1ccc(C(=O)Nc2ccccc2N2CCOCC2)cc1NS(C)(=O)=O

>  <score_type>  (21) 
oracle

>  <origin>  (21) 
adg

>  <m_score__min__energy>  (21) 
-10.390000000000001

>  <m_primary>  (21) 
energy

$$$$
21:0
     RDKit          3D

 43 45  0  0  0  0  0  0  0  0999 V2000
   60.3000   29.7440   45.9860 C   0  0  0  0  0  0  0  0  0  0  0  0
   58.9650   30.2310   45.5200 C   0  0  0  0  0  0  0  0  0  0  0  0
   58.1230   29.4030   44.7700 C   0  0  0  0  0  0  0  0  0  0  0  0
   56.9270   29.9320   44.2850 C   0  0  0  0  0  0  0  0  0  0  0  0
   56.6100   31.2300   44.5320 N   0  0  0  0  0  0  0  0  0  0  0  0
   57.4350   32.0200   45.2690 C   0  0  0  0  0  0  0  0  0  0  0  0
   57.0300   33.7440   45.5370 S   0  0  0  0  0  0  0  0  0  0  0  0
   58.6550   34.4090   45.0220 C   0  0  0  0  0  0  0  0  0  0  0  0
   59.6670   34.4760   46.1300 C   0  0  0  0  0  0  0  0  0  0  0  0
   59.8320   35.5740   46.7300 O   0  0  0  0  0  0  0  0  0  0  0  0
   60.5070   33.3550   46.4450 N   0  0  0  0  0  0  0  0  0  0  0  0
   61.5930   33.4640   47.3760 C   0  0  0  0  0  0  0  0  0  0  0  0
   62.8720   33.0630   46.9640 C   0  0  0  0  0  0  0  0  0  0  0  0
   63.9670   33.1930   47.8180 C   0  0  0  0  0  0  0  0  0  0  0  0
   63.7960   33.7290   49.0940 C   0  0  0  0  0  0  0  0  0  0  0  0
   62.5240   34.1090   49.5290 C   0  0  0  0  0  0  0  0  0  0  0  0
   61.4010   33.9480   48.6940 C   0  0  0  0  0  0  0  0  0  0  0  0
   60.0830   34.2880   49.1730 N   0  0  0  0  0  0  0  0  0  0  0  0
   59.3170   33.4870   50.0880 C   0  0  0  0  0  0  0  0  0  0  0  0
   59.1630   33.8610   51.4370 C   0  0  0  0  0  0  0  0  0  0  0  0
   58.4570   33.0390   52.3200 C   0  0  0  0  0  0  0  0  0  0  0  0
   57.9120   31.8320   51.8710 C   0  0  0  0  0  0  0  0  0  0  0  0
   58.0800   31.4430   50.5400 C   0  0  0  0  0  0  0  0  0  0  0  0
   58.7860   32.2630   49.6530 C   0  0  0  0  0  0  0  0  0  0  0  0
   58.6040   31.5220   45.7480 N   0  0  0  0  0  0  0  0  0  0  0  0
   60.3237   29.7353   47.0857 H   0  0  0  0  0  0  0  0  0  0  0  0
   60.4713   28.7255   45.6075 H   0  0  0  0  0  0  0  0  0  0  0  0
   61.0869   30.4130   45.6075 H   0  0  0  0  0  0  0  0  0  0  0  0
   58.3982   28.3575   44.5672 H   0  0  0  0  0  0  0  0  0  0  0  0
   56.2410   29.2989   43.7031 H   0  0  0  0  0  0  0  0  0  0  0  0
   59.0559   33.7644   44.2259 H   0  0  0  0  0  0  0  0  0  0  0  0
   58.4836   35.4419   44.6848 H   0  0  0  0  0  0  0  0  0  0  0  0
   60.5140   32.5410   45.7890 H   0  0  0  0  0  0  0  0  0  0  0  0
   63.0130   32.6419   45.9576 H   0  0  0  0  0  0  0  0  0  0  0  0
   64.9653   32.8728   47.4851 H   0  0  0  0  0  0  0  0  0  0  0  0
   64.6637   33.8527   49.7587 H   0  0  0  0  0  0  0  0  0  0  0  0
   62.3981   34.5383   50.5339 H   0  0  0  0  0  0  0  0  0  0  0  0
   59.6390   35.1740   48.8520 H   0  0  0  0  0  0  0  0  0  0  0  0
   59.6001   34.8039   51.7973 H   0  0  0  0  0  0  0  0  0  0  0  0
   58.3299   33.3421   53.3698 H   0  0  0  0  0  0  0  0  0  0  0  0
   57.3513   31.1892   52.5656 H   0  0  0  0  0  0  0  0  0  0  0  0
   57.6566   30.4905   50.1886 H   0  0  0  0  0  0  0  0  0  0  0  0
   58.9256   31.9465   48.6088 H   0  0  0  0  0  0  0  0  0  0  0  0
  1  2  1  0
  2  3  2  0
  3  4  1  0
  4  5  2  0
  5  6  1  0
  6  7  1  0
  7  8  1  0
  8  9  1  0
  9 10  2  0
  9 11  1  0
 11 12  1  0
 12 13  2  0
 13 14  1  0
 14 15  2  0
 15 16  1  0
 16 17  2  0
 17 18  1  0
 18 19  1  0
 19 20  2  0
 20 21  1  0
 21 22  2  0
 22 23  1  0
 23 24  2  0
  6 25  2  0
 25  2  1  0
 17 12  1  0
 24 19  1  0
  1 26  1  0
  1 27  1  0
  1 28  1  0
  3 29  1  0
  4 30  1  0
  8 31  1  0
  8 32  1  0
 11 33  1  0
 13 34  1  0
 14 35  1  0
 15 36  1  0
 16 37  1  0
 18 38  1  0
 20 39  1  0
 21 40  1  0
 22 41  1  0
 23 42  1  0
 24 43  1  0
M  END
>  <UniqueID>  (22) 
20

>  <SMILES>  (22) 
Cc1ccnc(SCC(=O)Nc2ccccc2Nc2ccccc2)n1

>  <Energy>  (22) 
50.57979286243625

>  <Genealogy>  (22) 
Cc1ccnc(SCC(=O)Nc2ccccc2Nc2ccccc2)n1 (3D coordinates assigned)
Cc1ccnc(SCC(=O)Nc2ccccc2Nc2ccccc2)n1 (optimized conformer: 50.57979286243625 kcal/mol)

>  <smiles>  (22) 
Cc1ccnc(SCC(=O)Nc2ccccc2Nc2ccccc2)n1

>  <score_type>  (22) 
oracle

>  <origin>  (22) 
adg

>  <m_score__min__energy>  (22) 
-7.9299999999999997

>  <m_primary>  (22) 
energy

$$$$
22:0
     RDKit          3D

 34 35  0  0  0  0  0  0  0  0999 V2000
   55.1650   30.3961   43.8085 H   0  0  0  0  0  0  0  0  0  0  0  0
   56.0640   29.9080   44.2130 C   0  0  0  0  0  0  0  0  0  0  0  0
   57.3360   30.4660   44.1110 C   0  0  0  0  0  0  0  0  0  0  0  0
   57.6740   31.7440   43.4730 C   0  0  0  0  0  0  0  0  0  0  0  0
   57.4870   31.8980   42.2350 O   0  0  0  0  0  0  0  0  0  0  0  0
   58.2010   32.7810   44.2470 O   0  0  0  0  0  0  0  0  0  0  0  0
   57.4260   33.4930   45.2050 C   0  0  0  0  0  0  0  0  0  0  0  0
   57.7404   33.2041   46.2188 H   0  0  0  0  0  0  0  0  0  0  0  0
   57.5769   34.5740   45.0684 H   0  0  0  0  0  0  0  0  0  0  0  0
   56.3616   33.2512   45.0684 H   0  0  0  0  0  0  0  0  0  0  0  0
   58.4410   29.4250   44.8440 S   0  0  0  0  0  0  0  0  0  0  0  0
   57.2460   28.3090   45.2730 C   0  0  0  0  0  0  0  0  0  0  0  0
   57.4350   27.1770   45.8850 N   0  0  0  0  0  0  0  0  0  0  0  0
   56.5150   26.0780   45.9150 C   0  0  0  0  0  0  0  0  0  0  0  0
   55.2900   26.3170   46.0770 O   0  0  0  0  0  0  0  0  0  0  0  0
   56.9700   24.6730   45.8220 C   0  0  0  0  0  0  0  0  0  0  0  0
   57.1990   23.7840   46.8670 C   0  0  0  0  0  0  0  0  0  0  0  0
   57.0660   24.0590   48.3300 C   0  0  0  0  0  0  0  0  0  0  0  0
   57.4754   23.2125   48.9009 H   0  0  0  0  0  0  0  0  0  0  0  0
   57.6209   24.9745   48.5829 H   0  0  0  0  0  0  0  0  0  0  0  0
   56.0038   24.1924   48.5829 H   0  0  0  0  0  0  0  0  0  0  0  0
   57.5600   22.6150   46.3860 O   0  0  0  0  0  0  0  0  0  0  0  0
   57.5650   22.6800   45.0740 C   0  0  0  0  0  0  0  0  0  0  0  0
   57.9160   21.5290   44.1900 C   0  0  0  0  0  0  0  0  0  0  0  0
   58.1813   20.6591   44.8087 H   0  0  0  0  0  0  0  0  0  0  0  0
   57.0536   21.2780   43.5550 H   0  0  0  0  0  0  0  0  0  0  0  0
   58.7717   21.8020   43.5550 H   0  0  0  0  0  0  0  0  0  0  0  0
   57.2050   23.9530   44.6630 C   0  0  0  0  0  0  0  0  0  0  0  0
   57.0500   24.4360   43.2530 C   0  0  0  0  0  0  0  0  0  0  0  0
   56.7139   25.4834   43.2591 H   0  0  0  0  0  0  0  0  0  0  0  0
   58.0164   24.3640   42.7324 H   0  0  0  0  0  0  0  0  0  0  0  0
   56.3060   23.8152   42.7324 H   0  0  0  0  0  0  0  0  0  0  0  0
   56.0260   28.7100   44.8540 N   0  0  0  0  0  0  0  0  0  0  0  0
   55.1480   28.1640   45.0040 H   0  0  0  0  0  0  0  0  0  0  0  0
  1  2  1  0
  2  3  2  0
  3  4  1  0
  4  5  2  0
  4  6  1  0
  6  7  1  0
  7  8  1  0
  7  9  1  0
  7 10  1  0
  3 11  1  0
 11 12  1  0
 12 13  2  0
 13 14  1  0
 14 15  2  0
 14 16  1  0
 16 17  2  0
 17 18  1  0
 18 19  1  0
 18 20  1  0
 18 21  1  0
 17 22  1  0
 22 23  1  0
 23 24  1  0
 24 25  1  0
 24 26  1  0
 24 27  1  0
 23 28  2  0
 28 29  1  0
 29 30  1  0
 29 31  1  0
 29 32  1  0
 12 33  1  0
 33 34  1  0
 33  2  1  0
 28 16  1  0
M  END
>  <UniqueID>  (23) 
21

>  <SMILES>  (23) 
COC(=O)c1c[nH]/c(=N/C(=O)c2c(C)oc(C)c2C)s1

>  <Energy>  (23) 
92.74557905533925

>  <Genealogy>  (23) 
COC(=O)c1c[nH]/c(=N/C(=O)c2c(C)oc(C)c2C)s1 (cis-trans isomerization)
COC(=O)c1c[nH]/c(=N/C(=O)c2c(C)oc(C)c2C)s1 (3D coordinates assigned)
COC(=O)c1c[nH]/c(=N/C(=O)c2c(C)oc(C)c2C)s1 (optimized conformer: 92.74557905533925 kcal/mol)

>  <smiles>  (23) 
COC(=O)c1c[nH]c(=NC(=O)c2c(C)oc(C)c2C)s1

>  <score_type>  (23) 
oracle

>  <origin>  (23) 
adg

>  <m_score__min__energy>  (23) 
-6.7300000000000004

>  <m_primary>  (23) 
energy

$$$$
23:0
     RDKit          3D

 52 55  0  0  0  0  0  0  0  0999 V2000
   55.8590   24.4570   45.1090 C   0  0  0  0  0  0  0  0  0  0  0  0
   55.6850   25.5040   46.0570 O   0  0  0  0  0  0  0  0  0  0  0  0
   56.6060   26.5420   46.2700 C   0  0  0  0  0  0  0  0  0  0  0  0
   57.7190   26.3990   47.1160 C   0  0  0  0  0  0  0  0  0  0  0  0
   58.6070   27.4600   47.2950 C   0  0  0  0  0  0  0  0  0  0  0  0
   58.4020   28.6790   46.6340 C   0  0  0  0  0  0  0  0  0  0  0  0
   59.5120   30.0220   46.9070 S   0  0  0  0  0  0  0  0  0  0  0  0
   60.4160   29.7140   48.0680 O   0  0  0  0  0  0  0  0  0  0  0  0
   60.3410   30.2600   45.6770 O   0  0  0  0  0  0  0  0  0  0  0  0
   58.5580   31.4200   47.2660 N   0  0  0  0  0  0  0  0  0  0  0  0
   58.5230   32.6400   46.5160 C   0  0  0  0  0  0  0  0  0  0  0  0
   57.3550   33.0680   45.8640 C   0  0  0  0  0  0  0  0  0  0  0  0
   57.3690   34.2260   45.0820 C   0  0  0  0  0  0  0  0  0  0  0  0
   58.5480   34.9590   44.9370 C   0  0  0  0  0  0  0  0  0  0  0  0
   59.7140   34.5430   45.5830 C   0  0  0  0  0  0  0  0  0  0  0  0
   59.7080   33.3990   46.3880 C   0  0  0  0  0  0  0  0  0  0  0  0
   60.9000   33.0070   47.0140 O   0  0  0  0  0  0  0  0  0  0  0  0
   61.1460   33.2090   48.3790 C   0  0  0  0  0  0  0  0  0  0  0  0
   60.0550   33.3690   49.2370 C   0  0  0  0  0  0  0  0  0  0  0  0
   60.2830   33.5730   50.5900 C   0  0  0  0  0  0  0  0  0  0  0  0
   61.5520   33.6040   51.0620 N   0  0  0  0  0  0  0  0  0  0  0  0
   62.6170   33.4200   50.2360 C   0  0  0  0  0  0  0  0  0  0  0  0
   63.8670   33.4040   50.7620 N   0  0  0  0  0  0  0  0  0  0  0  0
   64.9450   33.1920   49.9730 C   0  0  0  0  0  0  0  0  0  0  0  0
   66.3160   33.2000   50.5600 C   0  0  0  0  0  0  0  0  0  0  0  0
   64.7770   33.0270   48.6410 N   0  0  0  0  0  0  0  0  0  0  0  0
   63.5390   33.0450   48.0890 C   0  0  0  0  0  0  0  0  0  0  0  0
   63.4360   32.8790   46.8440 O   0  0  0  0  0  0  0  0  0  0  0  0
   62.4300   33.2350   48.8820 N   0  0  0  0  0  0  0  0  0  0  0  0
   57.2820   28.8400   45.7970 C   0  0  0  0  0  0  0  0  0  0  0  0
   57.0750   30.0790   45.1710 O   0  0  0  0  0  0  0  0  0  0  0  0
   57.0530   30.2800   43.7620 C   0  0  0  0  0  0  0  0  0  0  0  0
   56.3960   27.7600   45.6160 C   0  0  0  0  0  0  0  0  0  0  0  0
   56.0171   23.5057   45.6382 H   0  0  0  0  0  0  0  0  0  0  0  0
   54.9612   24.3808   44.4780 H   0  0  0  0  0  0  0  0  0  0  0  0
   56.7332   24.6752   44.4780 H   0  0  0  0  0  0  0  0  0  0  0  0
   57.8907   25.4467   47.6391 H   0  0  0  0  0  0  0  0  0  0  0  0
   59.4748   27.3390   47.9600 H   0  0  0  0  0  0  0  0  0  0  0  0
   56.4255   32.4893   45.9693 H   0  0  0  0  0  0  0  0  0  0  0  0
   56.4493   34.5605   44.5798 H   0  0  0  0  0  0  0  0  0  0  0  0
   58.5586   35.8651   44.3134 H   0  0  0  0  0  0  0  0  0  0  0  0
   60.6431   35.1185   45.4581 H   0  0  0  0  0  0  0  0  0  0  0  0
   59.0280   33.3336   48.8445 H   0  0  0  0  0  0  0  0  0  0  0  0
   59.4353   33.7092   51.2777 H   0  0  0  0  0  0  0  0  0  0  0  0
   61.7070   33.7570   52.0840 H   0  0  0  0  0  0  0  0  0  0  0  0
   66.2449   33.1996   51.6577 H   0  0  0  0  0  0  0  0  0  0  0  0
   66.8624   32.3050   50.2276 H   0  0  0  0  0  0  0  0  0  0  0  0
   66.8519   34.1013   50.2276 H   0  0  0  0  0  0  0  0  0  0  0  0
   56.9356   31.3523   43.5464 H   0  0  0  0  0  0  0  0  0  0  0  0
   57.9960   29.9193   43.3254 H   0  0  0  0  0  0  0  0  0  0  0  0
   56.2104   29.7238   43.3254 H   0  0  0  0  0  0  0  0  0  0  0  0
   55.5273   27.8763   44.9513 H   0  0  0  0  0  0  0  0  0  0  0  0
  1  2  1  0
  2  3  1  0
  3  4  2  0
  4  5  1  0
  5  6  2  0
  6  7  1  0
  7  8  2  0
  7  9  2  0
  7 10  1  0
 10 11  1  0
 11 12  2  0
 12 13  1  0
 13 14  2  0
 14 15  1  0
 15 16  2  0
 16 17  1  0
 17 18  1  0
 18 19  2  0
 19 20  1  0
 20 21  2  0
 21 22  1  0
 22 23  2  0
 23 24  1  0
 24 25  1  0
 24 26  2  0
 26 27  1  0
 27 28  2  0
 27 29  1  0
  6 30  1  0
 30 31  1  0
 31 32  1  0
 30 33  2  0
 33  3  1  0
 16 11  1  0
 29 18  1  0
 29 22  1  0
  1 34  1  0
  1 35  1  0
  1 36  1  0
  4 37  1  0
  5 38  1  0
 12 39  1  0
 13 40  1  0
 14 41  1  0
 15 42  1  0
 19 43  1  0
 20 44  1  0
 21 45  1  0
 25 46  1  0
 25 47  1  0
 25 48  1  0
 32 49  1  0
 32 50  1  0
 32 51  1  0
 33 52  1  0
M  CHG  2  10  -1  21   1
M  END
>  <UniqueID>  (24) 
22

>  <SMILES>  (24) 
COc1ccc(S(=O)(=O)[N-]c2ccccc2Oc2cc[nH+]c3nc(C)nc(=O)n23)c(OC)c1

>  <Energy>  (24) 
69.74808696124171

>  <Genealogy>  (24) 
COc1ccc(S(=O)(=O)[N-]c2ccccc2Oc2cc[nH+]c3nc(C)nc(=O)n23)c(OC)c1 (protonated)
COc1ccc(S(=O)(=O)[N-]c2ccccc2Oc2cc[nH+]c3nc(C)nc(=O)n23)c(OC)c1 (3D coordinates assigned)
COc1ccc(S(=O)(=O)[N-]c2ccccc2Oc2cc[nH+]c3nc(C)nc(=O)n23)c(OC)c1 (optimized conformer: 69.74808696124171 kcal/mol)

>  <smiles>  (24) 
COc1ccc(S(=O)(=O)Nc2ccccc2Oc2ccnc3nc(C)nc(=O)n23)c(OC)c1

>  <score_type>  (24) 
oracle

>  <origin>  (24) 
adg

>  <m_score__min__energy>  (24) 
-8.2899999999999991

>  <m_primary>  (24) 
energy

$$$$
24:0
     RDKit          3D

 53 55  0  0  0  0  0  0  0  0999 V2000
   55.5310   24.0700   46.6320 C   0  0  0  0  0  0  0  0  0  0  0  0
   56.5390   25.1140   46.3670 N   0  0  0  0  0  0  0  0  0  0  0  0
   56.1300   26.3860   46.0670 C   0  0  0  0  0  0  0  0  0  0  0  0
   54.7680   26.6780   46.0030 O   0  0  0  0  0  0  0  0  0  0  0  0
   57.0750   27.3930   45.8070 C   0  0  0  0  0  0  0  0  0  0  0  0
   56.6490   28.7890   45.5140 C   0  0  0  0  0  0  0  0  0  0  0  0
   55.6330   28.9970   44.7970 O   0  0  0  0  0  0  0  0  0  0  0  0
   57.3600   29.8990   46.0830 N   0  0  0  0  0  0  0  0  0  0  0  0
   57.6900   31.1260   45.4150 C   0  0  0  0  0  0  0  0  0  0  0  0
   57.3730   31.3190   44.0570 C   0  0  0  0  0  0  0  0  0  0  0  0
   57.7760   32.4820   43.3950 C   0  0  0  0  0  0  0  0  0  0  0  0
   58.5190   33.4520   44.0700 C   0  0  0  0  0  0  0  0  0  0  0  0
   58.8560   33.2630   45.4120 C   0  0  0  0  0  0  0  0  0  0  0  0
   58.4370   32.1100   46.0960 C   0  0  0  0  0  0  0  0  0  0  0  0
   58.7910   31.9620   47.5220 C   0  0  0  0  0  0  0  0  0  0  0  0
   59.3330   30.8950   47.9070 O   0  0  0  0  0  0  0  0  0  0  0  0
   58.5920   33.0160   48.4720 N   0  0  0  0  0  0  0  0  0  0  0  0
   59.6390   33.8070   49.1210 C   0  0  0  0  0  0  0  0  0  0  0  0
   60.4770   34.5980   48.1030 C   0  0  0  0  0  0  0  0  0  0  0  0
   61.8840   34.1450   48.0860 N   0  0  0  0  0  0  0  0  0  0  0  0
   62.2300   33.4940   46.8080 C   0  0  0  0  0  0  0  0  0  0  0  0
   63.7140   33.0640   46.8180 C   0  0  0  0  0  0  0  0  0  0  0  0
   64.3090   33.2020   48.0960 O   0  0  0  0  0  0  0  0  0  0  0  0
   63.5200   32.5400   49.0650 C   0  0  0  0  0  0  0  0  0  0  0  0
   62.1400   33.2150   49.2060 C   0  0  0  0  0  0  0  0  0  0  0  0
   58.4370   27.0390   45.8220 C   0  0  0  0  0  0  0  0  0  0  0  0
   59.3170   27.9300   45.6460 O   0  0  0  0  0  0  0  0  0  0  0  0
   58.8160   25.7420   46.0420 N   0  0  0  0  0  0  0  0  0  0  0  0
   60.2480   25.3910   46.0530 C   0  0  0  0  0  0  0  0  0  0  0  0
   57.8720   24.7910   46.3360 C   0  0  0  0  0  0  0  0  0  0  0  0
   58.2340   23.6040   46.5820 O   0  0  0  0  0  0  0  0  0  0  0  0
   55.4099   23.9445   47.7181 H   0  0  0  0  0  0  0  0  0  0  0  0
   54.5696   24.3673   46.1878 H   0  0  0  0  0  0  0  0  0  0  0  0
   55.8619   23.1196   46.1878 H   0  0  0  0  0  0  0  0  0  0  0  0
   56.8047   30.5497   43.5136 H   0  0  0  0  0  0  0  0  0  0  0  0
   57.5070   32.6334   42.3392 H   0  0  0  0  0  0  0  0  0  0  0  0
   58.8388   34.3644   43.5453 H   0  0  0  0  0  0  0  0  0  0  0  0
   59.4538   34.0225   45.9371 H   0  0  0  0  0  0  0  0  0  0  0  0
   59.1683   34.5143   49.8197 H   0  0  0  0  0  0  0  0  0  0  0  0
   60.3106   33.1141   49.6490 H   0  0  0  0  0  0  0  0  0  0  0  0
   60.0453   34.4591   47.1008 H   0  0  0  0  0  0  0  0  0  0  0  0
   60.4609   35.6585   48.3947 H   0  0  0  0  0  0  0  0  0  0  0  0
   61.5948   32.6070   46.6674 H   0  0  0  0  0  0  0  0  0  0  0  0
   62.0659   34.2050   45.9849 H   0  0  0  0  0  0  0  0  0  0  0  0
   63.7781   32.0097   46.5108 H   0  0  0  0  0  0  0  0  0  0  0  0
   64.2575   33.7209   46.1230 H   0  0  0  0  0  0  0  0  0  0  0  0
   63.3791   31.4925   48.7602 H   0  0  0  0  0  0  0  0  0  0  0  0
   64.0372   32.5918   50.0344 H   0  0  0  0  0  0  0  0  0  0  0  0
   61.3601   32.4393   49.2139 H   0  0  0  0  0  0  0  0  0  0  0  0
   62.1262   33.7878   50.1450 H   0  0  0  0  0  0  0  0  0  0  0  0
   60.5966   25.3056   47.0928 H   0  0  0  0  0  0  0  0  0  0  0  0
   60.3941   24.4305   45.5372 H   0  0  0  0  0  0  0  0  0  0  0  0
   60.8217   26.1751   45.5372 H   0  0  0  0  0  0  0  0  0  0  0  0
  1  2  1  0
  2  3  1  0
  3  4  1  0
  3  5  2  0
  5  6  1  0
  6  7  2  0
  6  8  1  0
  8  9  1  0
  9 10  2  0
 10 11  1  0
 11 12  2  0
 12 13  1  0
 13 14  2  0
 14 15  1  0
 15 16  2  0
 15 17  1  0
 17 18  1  0
 18 19  1  0
 19 20  1  0
 20 21  1  0
 21 22  1  0
 22 23  1  0
 23 24  1  0
 24 25  1  0
  5 26  1  0
 26 27  2  0
 26 28  1  0
 28 29  1  0
 28 30  1  0
 30 31  2  0
 30  2  1  0
 14  9  1  0
 25 20  1  0
  1 32  1  0
  1 33  1  0
  1 34  1  0
 10 35  1  0
 11 36  1  0
 12 37  1  0
 13 38  1  0
 18 39  1  0
 18 40  1  0
 19 41  1  0
 19 42  1  0
 21 43  1  0
 21 44  1  0
 22 45  1  0
 22 46  1  0
 24 47  1  0
 24 48  1  0
 25 49  1  0
 25 50  1  0
 29 51  1  0
 29 52  1  0
 29 53  1  0
M  CHG  3   4  -1   8  -1  17  -1
M  END
>  <UniqueID>  (25) 
23

>  <SMILES>  (25) 
Cn1c([O-])c(C(=O)[N-]c2ccccc2C(=O)[N-]CCN2CCOCC2)c(=O)n(C)c1=O

>  <Energy>  (25) 
82.17403756761016

>  <Genealogy>  (25) 
Cn1c([O-])c(C(=O)[N-]c2ccccc2C(=O)[N-]CCN2CCOCC2)c(=O)n(C)c1=O (protonated)
Cn1c([O-])c(C(=O)[N-]c2ccccc2C(=O)[N-]CCN2CCOCC2)c(=O)n(C)c1=O (3D coordinates assigned)
Cn1c([O-])c(C(=O)[N-]c2ccccc2C(=O)[N-]CCN2CCOCC2)c(=O)n(C)c1=O (nonaromatic ring conformer: 82.17403756761016 kcal/mol)

>  <smiles>  (25) 
Cn1c(O)c(C(=O)Nc2ccccc2C(=O)NCCN2CCOCC2)c(=O)n(C)c1=O

>  <score_type>  (25) 
oracle

>  <origin>  (25) 
adg

>  <m_score__min__energy>  (25) 
-15.1

>  <m_primary>  (25) 
energy

$$$$
25:0
     RDKit          3D

 55 58  0  0  0  0  0  0  0  0999 V2000
   63.3510   33.7320   46.6530 C   0  0  0  0  0  0  0  0  0  0  0  0
   62.9430   33.3250   47.9530 O   0  0  0  0  0  0  0  0  0  0  0  0
   62.6110   32.0010   48.2640 C   0  0  0  0  0  0  0  0  0  0  0  0
   63.3340   31.3400   49.0550 O   0  0  0  0  0  0  0  0  0  0  0  0
   61.4150   31.3800   47.6570 C   0  0  0  0  0  0  0  0  0  0  0  0
   60.1390   31.6410   48.1830 C   0  0  0  0  0  0  0  0  0  0  0  0
   59.0020   31.0670   47.6090 C   0  0  0  0  0  0  0  0  0  0  0  0
   59.1290   30.2070   46.5100 C   0  0  0  0  0  0  0  0  0  0  0  0
   57.9330   29.5760   45.9320 C   0  0  0  0  0  0  0  0  0  0  0  0
   57.1530   30.1050   44.9080 C   0  0  0  0  0  0  0  0  0  0  0  0
   57.3620   31.3860   44.1950 C   0  0  0  0  0  0  0  0  0  0  0  0
   57.1000   31.4440   42.9630 O   0  0  0  0  0  0  0  0  0  0  0  0
   57.8560   32.6030   44.8810 C   0  0  0  0  0  0  0  0  0  0  0  0
   58.8810   33.3870   44.3200 C   0  0  0  0  0  0  0  0  0  0  0  0
   59.3420   34.5270   44.9860 C   0  0  0  0  0  0  0  0  0  0  0  0
   58.7950   34.8890   46.2200 C   0  0  0  0  0  0  0  0  0  0  0  0
   57.7930   34.1060   46.7960 C   0  0  0  0  0  0  0  0  0  0  0  0
   57.3300   32.9630   46.1350 C   0  0  0  0  0  0  0  0  0  0  0  0
   56.1120   29.2070   44.7330 C   0  0  0  0  0  0  0  0  0  0  0  0
   55.0390   29.3350   43.8600 O   0  0  0  0  0  0  0  0  0  0  0  0
   56.3110   28.1760   45.6200 C   0  0  0  0  0  0  0  0  0  0  0  0
   55.4800   27.0710   45.7630 O   0  0  0  0  0  0  0  0  0  0  0  0
   57.4250   28.3900   46.3490 N   0  0  0  0  0  0  0  0  0  0  0  0
   57.9660   27.5130   47.3910 C   0  0  0  0  0  0  0  0  0  0  0  0
   57.9700   26.0800   46.9310 C   0  0  0  0  0  0  0  0  0  0  0  0
   58.8060   25.6730   45.8790 C   0  0  0  0  0  0  0  0  0  0  0  0
   58.8410   24.3340   45.4840 C   0  0  0  0  0  0  0  0  0  0  0  0
   58.0310   23.3900   46.1210 C   0  0  0  0  0  0  0  0  0  0  0  0
   58.0890   22.0610   45.7180 O   0  0  0  0  0  0  0  0  0  0  0  0
   57.1660   23.7880   47.1580 C   0  0  0  0  0  0  0  0  0  0  0  0
   56.3030   22.7900   47.8860 C   0  0  0  0  0  0  0  0  0  0  0  0
   57.0710   21.6920   48.2850 O   0  0  0  0  0  0  0  0  0  0  0  0
   57.1530   25.1340   47.5620 C   0  0  0  0  0  0  0  0  0  0  0  0
   60.3950   29.9400   45.9780 C   0  0  0  0  0  0  0  0  0  0  0  0
   61.5330   30.5200   46.5480 C   0  0  0  0  0  0  0  0  0  0  0  0
   64.1274   34.5065   46.7381 H   0  0  0  0  0  0  0  0  0  0  0  0
   63.7549   32.8663   46.1076 H   0  0  0  0  0  0  0  0  0  0  0  0
   62.4863   34.1380   46.1076 H   0  0  0  0  0  0  0  0  0  0  0  0
   60.0340   32.3034   49.0549 H   0  0  0  0  0  0  0  0  0  0  0  0
   58.0064   31.2903   48.0200 H   0  0  0  0  0  0  0  0  0  0  0  0
   59.3216   33.1019   43.3533 H   0  0  0  0  0  0  0  0  0  0  0  0
   60.1373   35.1404   44.5374 H   0  0  0  0  0  0  0  0  0  0  0  0
   59.1540   35.7909   46.7374 H   0  0  0  0  0  0  0  0  0  0  0  0
   57.3671   34.3878   47.7703 H   0  0  0  0  0  0  0  0  0  0  0  0
   56.5496   32.3419   46.5989 H   0  0  0  0  0  0  0  0  0  0  0  0
   58.9963   27.8207   47.6229 H   0  0  0  0  0  0  0  0  0  0  0  0
   57.3325   27.5952   48.2865 H   0  0  0  0  0  0  0  0  0  0  0  0
   59.4365   26.4124   45.3634 H   0  0  0  0  0  0  0  0  0  0  0  0
   59.5090   24.0210   44.6680 H   0  0  0  0  0  0  0  0  0  0  0  0
   55.8633   23.2683   48.7736 H   0  0  0  0  0  0  0  0  0  0  0  0
   55.5045   22.4454   47.2125 H   0  0  0  0  0  0  0  0  0  0  0  0
   57.7720   21.5690   47.5920 H   0  0  0  0  0  0  0  0  0  0  0  0
   56.4929   25.4482   48.3840 H   0  0  0  0  0  0  0  0  0  0  0  0
   60.4957   29.2725   45.1095 H   0  0  0  0  0  0  0  0  0  0  0  0
   62.5261   30.3031   46.1276 H   0  0  0  0  0  0  0  0  0  0  0  0
  1  2  1  0
  2  3  1  0
  3  4  2  0
  3  5  1  0
  5  6  2  0
  6  7  1  0
  7  8  2  0
  8  9  1  0
  9 10  2  0
 10 11  1  0
 11 12  2  0
 11 13  1  0
 13 14  2  0
 14 15  1  0
 15 16  2  0
 16 17  1  0
 17 18  2  0
 10 19  1  0
 19 20  1  0
 19 21  2  0
 21 22  1  0
 21 23  1  0
 23 24  1  0
 24 25  1  0
 25 26  2  0
 26 27  1  0
 27 28  2  0
 28 29  1  0
 28 30  1  0
 30 31  1  0
 31 32  1  0
 30 33  2  0
  8 34  1  0
 34 35  2  0
 35  5  1  0
 23  9  1  0
 33 25  1  0
 18 13  1  0
  1 36  1  0
  1 37  1  0
  1 38  1  0
  6 39  1  0
  7 40  1  0
 14 41  1  0
 15 42  1  0
 16 43  1  0
 17 44  1  0
 18 45  1  0
 24 46  1  0
 24 47  1  0
 26 48  1  0
 27 49  1  0
 31 50  1  0
 31 51  1  0
 32 52  1  0
 33 53  1  0
 34 54  1  0
 35 55  1  0
M  CHG  3  20  -1  22  -1  29  -1
M  END
>  <UniqueID>  (26) 
24

>  <SMILES>  (26) 
COC(=O)c1ccc(-c2c(C(=O)c3ccccc3)c([O-])c([O-])n2Cc2ccc([O-])c(CO)c2)cc1

>  <Energy>  (26) 
97.61981716814489

>  <Genealogy>  (26) 
COC(=O)c1ccc(-c2c(C(=O)c3ccccc3)c([O-])c([O-])n2Cc2ccc([O-])c(CO)c2)cc1 (protonated)
COC(=O)c1ccc(-c2c(C(=O)c3ccccc3)c([O-])c([O-])n2Cc2ccc([O-])c(CO)c2)cc1 (3D coordinates assigned)
COC(=O)c1ccc(-c2c(C(=O)c3ccccc3)c([O-])c([O-])n2Cc2ccc([O-])c(CO)c2)cc1 (optimized conformer: 97.61981716814489 kcal/mol)

>  <smiles>  (26) 
COC(=O)c1ccc(-c2c(C(=O)c3ccccc3)c(O)c(O)n2Cc2ccc(O)c(CO)c2)cc1

>  <score_type>  (26) 
oracle

>  <origin>  (26) 
adg

>  <m_score__min__energy>  (26) 
-15.050000000000001

>  <m_primary>  (26) 
energy

$$$$
26:0
     RDKit          3D

 50 52  0  0  0  0  0  0  0  0999 V2000
   56.6710   25.6450   46.5420 C   0  0  0  0  0  0  0  0  0  0  0  0
   58.1320   25.9130   46.8910 C   0  0  0  0  0  0  0  0  0  0  0  0
   58.9570   26.1870   45.6300 C   0  0  0  0  0  0  0  0  0  0  0  0
   58.5220   27.4730   44.9860 C   0  0  0  0  0  0  0  0  0  0  0  0
   57.5070   27.5370   44.0890 N   0  0  0  0  0  0  0  0  0  0  0  0
   57.4240   28.8400   43.7720 C   0  0  0  0  0  0  0  0  0  0  0  0
   56.5580   29.4520   42.8700 C   0  0  0  0  0  0  0  0  0  0  0  0
   56.6800   30.8430   42.6920 C   0  0  0  0  0  0  0  0  0  0  0  0
   57.6530   31.5750   43.4100 C   0  0  0  0  0  0  0  0  0  0  0  0
   58.5140   30.9240   44.3140 C   0  0  0  0  0  0  0  0  0  0  0  0
   58.3630   29.5450   44.4720 C   0  0  0  0  0  0  0  0  0  0  0  0
   59.0550   28.6970   45.2600 N   0  0  0  0  0  0  0  0  0  0  0  0
   60.1890   29.0130   46.1320 C   0  0  0  0  0  0  0  0  0  0  0  0
   59.6880   29.5820   47.4640 C   0  0  0  0  0  0  0  0  0  0  0  0
   60.0330   31.0680   47.6130 C   0  0  0  0  0  0  0  0  0  0  0  0
   58.8660   31.9150   47.3590 N   0  0  0  0  0  0  0  0  0  0  0  0
   58.9740   33.2540   46.8470 C   0  0  0  0  0  0  0  0  0  0  0  0
   57.7290   33.8760   45.9850 S   0  0  0  0  0  0  0  0  0  0  0  0
   60.1710   34.0330   46.9980 N   0  0  0  0  0  0  0  0  0  0  0  0
   61.0540   33.9410   48.1250 C   0  0  0  0  0  0  0  0  0  0  0  0
   60.5020   33.8930   49.4130 C   0  0  0  0  0  0  0  0  0  0  0  0
   61.3280   33.8150   50.5370 C   0  0  0  0  0  0  0  0  0  0  0  0
   62.7160   33.7680   50.3840 C   0  0  0  0  0  0  0  0  0  0  0  0
   63.7520   33.6700   51.7960 Cl  0  0  0  0  0  0  0  0  0  0  0  0
   63.2780   33.7850   49.1040 C   0  0  0  0  0  0  0  0  0  0  0  0
   62.4570   33.8620   47.9710 C   0  0  0  0  0  0  0  0  0  0  0  0
   63.2190   33.7950   46.3870 Cl  0  0  0  0  0  0  0  0  0  0  0  0
   56.0866   25.5378   47.4677 H   0  0  0  0  0  0  0  0  0  0  0  0
   56.2745   26.4854   45.9533 H   0  0  0  0  0  0  0  0  0  0  0  0
   56.5986   24.7186   45.9533 H   0  0  0  0  0  0  0  0  0  0  0  0
   58.1884   26.7883   47.5548 H   0  0  0  0  0  0  0  0  0  0  0  0
   58.5416   25.0228   47.3908 H   0  0  0  0  0  0  0  0  0  0  0  0
   60.0204   26.2598   45.9018 H   0  0  0  0  0  0  0  0  0  0  0  0
   58.8033   25.3627   44.9181 H   0  0  0  0  0  0  0  0  0  0  0  0
   56.9270   26.7510   43.7190 H   0  0  0  0  0  0  0  0  0  0  0  0
   55.8061   28.8700   42.3168 H   0  0  0  0  0  0  0  0  0  0  0  0
   56.0134   31.3641   41.9891 H   0  0  0  0  0  0  0  0  0  0  0  0
   57.7382   32.6616   43.2613 H   0  0  0  0  0  0  0  0  0  0  0  0
   59.2780   31.4817   44.8755 H   0  0  0  0  0  0  0  0  0  0  0  0
   60.7675   28.0970   46.3225 H   0  0  0  0  0  0  0  0  0  0  0  0
   60.8250   29.7620   45.6375 H   0  0  0  0  0  0  0  0  0  0  0  0
   58.5956   29.4632   47.5137 H   0  0  0  0  0  0  0  0  0  0  0  0
   60.1825   29.0325   48.2786 H   0  0  0  0  0  0  0  0  0  0  0  0
   60.3924   31.2512   48.6364 H   0  0  0  0  0  0  0  0  0  0  0  0
   60.8101   31.3188   46.8759 H   0  0  0  0  0  0  0  0  0  0  0  0
   57.9120   31.4880   47.3980 H   0  0  0  0  0  0  0  0  0  0  0  0
   60.4340   34.6840   46.2240 H   0  0  0  0  0  0  0  0  0  0  0  0
   59.4096   33.9170   49.5395 H   0  0  0  0  0  0  0  0  0  0  0  0
   60.8851   33.7906   51.5436 H   0  0  0  0  0  0  0  0  0  0  0  0
   64.3706   33.7377   48.9856 H   0  0  0  0  0  0  0  0  0  0  0  0
  1  2  1  0
  2  3  1  0
  3  4  1  0
  4  5  2  0
  5  6  1  0
  6  7  2  0
  7  8  1  0
  8  9  2  0
  9 10  1  0
 10 11  2  0
 11 12  1  0
 12 13  1  0
 13 14  1  0
 14 15  1  0
 15 16  1  0
 16 17  1  0
 17 18  2  0
 17 19  1  0
 19 20  1  0
 20 21  2  0
 21 22  1  0
 22 23  2  0
 23 24  1  0
 23 25  1  0
 25 26  2  0
 26 27  1  0
 12  4  1  0
 26 20  1  0
 11  6  1  0
  1 28  1  0
  1 29  1  0
  1 30  1  0
  2 31  1  0
  2 32  1  0
  3 33  1  0
  3 34  1  0
  5 35  1  0
  7 36  1  0
  8 37  1  0
  9 38  1  0
 10 39  1  0
 13 40  1  0
 13 41  1  0
 14 42  1  0
 14 43  1  0
 15 44  1  0
 15 45  1  0
 16 46  1  0
 19 47  1  0
 21 48  1  0
 22 49  1  0
 25 50  1  0
M  CHG  1   5   1
M  END
>  <UniqueID>  (27) 
25

>  <SMILES>  (27) 
CCCc1[nH+]c2ccccc2n1CCCNC(=S)Nc1ccc(Cl)cc1Cl

>  <Energy>  (27) 
85.29372856511274

>  <Genealogy>  (27) 
CCCc1[nH+]c2ccccc2n1CCCNC(=S)Nc1ccc(Cl)cc1Cl (protonated)
CCCc1[nH+]c2ccccc2n1CCCNC(=S)Nc1ccc(Cl)cc1Cl (3D coordinates assigned)
CCCc1[nH+]c2ccccc2n1CCCNC(=S)Nc1ccc(Cl)cc1Cl (optimized conformer: 85.29372856511274 kcal/mol)

>  <smiles>  (27) 
CCCc1nc2ccccc2n1CCCNC(=S)Nc1ccc(Cl)cc1Cl

>  <score_type>  (27) 
oracle

>  <origin>  (27) 
adg

>  <m_score__min__energy>  (27) 
-7.0700000000000003

>  <m_primary>  (27) 
energy

$$$$
27:0
     RDKit          3D

 32 34  0  0  0  0  0  0  0  0999 V2000
   59.5350   28.8110   46.7040 C   0  0  0  0  0  0  0  0  0  0  0  0
   58.8090   28.0460   45.6940 N   0  0  0  0  0  0  0  0  0  0  0  0
   58.8920   26.7150   45.5030 C   0  0  0  0  0  0  0  0  0  0  0  0
   58.0500   26.3710   44.4680 C   0  0  0  0  0  0  0  0  0  0  0  0
   57.4470   27.4850   44.0150 N   0  0  0  0  0  0  0  0  0  0  0  0
   57.9230   28.4960   44.7720 C   0  0  0  0  0  0  0  0  0  0  0  0
   57.5160   29.9110   44.6020 C   0  0  0  0  0  0  0  0  0  0  0  0
   56.3370   30.2630   44.8670 O   0  0  0  0  0  0  0  0  0  0  0  0
   58.4810   30.9460   44.0940 C   0  0  0  0  0  0  0  0  0  0  0  0
   58.2890   32.2130   44.8020 N   0  0  0  0  0  0  0  0  0  0  0  0
   57.3810   33.1720   44.4960 C   0  0  0  0  0  0  0  0  0  0  0  0
   57.4580   34.2270   45.3990 C   0  0  0  0  0  0  0  0  0  0  0  0
   58.4580   33.8780   46.2810 C   0  0  0  0  0  0  0  0  0  0  0  0
   58.9610   34.5570   47.3880 C   0  0  0  0  0  0  0  0  0  0  0  0
   60.0010   33.9480   48.1160 C   0  0  0  0  0  0  0  0  0  0  0  0
   60.5210   34.5740   49.2000 F   0  0  0  0  0  0  0  0  0  0  0  0
   60.5080   32.6900   47.7210 C   0  0  0  0  0  0  0  0  0  0  0  0
   59.9790   32.0280   46.5980 C   0  0  0  0  0  0  0  0  0  0  0  0
   58.9440   32.6540   45.8960 C   0  0  0  0  0  0  0  0  0  0  0  0
   59.2235   28.4828   47.7066 H   0  0  0  0  0  0  0  0  0  0  0  0
   60.6157   28.6450   46.5831 H   0  0  0  0  0  0  0  0  0  0  0  0
   59.3127   29.8815   46.5831 H   0  0  0  0  0  0  0  0  0  0  0  0
   59.5244   26.0209   46.0759 H   0  0  0  0  0  0  0  0  0  0  0  0
   57.8964   25.3544   44.0771 H   0  0  0  0  0  0  0  0  0  0  0  0
   56.7690   27.5380   43.2230 H   0  0  0  0  0  0  0  0  0  0  0  0
   59.5101   30.5926   44.2557 H   0  0  0  0  0  0  0  0  0  0  0  0
   58.3009   31.1059   43.0207 H   0  0  0  0  0  0  0  0  0  0  0  0
   56.6798   33.1226   43.6499 H   0  0  0  0  0  0  0  0  0  0  0  0
   56.8506   35.1440   45.4075 H   0  0  0  0  0  0  0  0  0  0  0  0
   58.5589   35.5372   47.6840 H   0  0  0  0  0  0  0  0  0  0  0  0
   61.3224   32.2246   48.2957 H   0  0  0  0  0  0  0  0  0  0  0  0
   60.3673   31.0486   46.2819 H   0  0  0  0  0  0  0  0  0  0  0  0
  1  2  1  0
  2  3  1  0
  3  4  2  0
  4  5  1  0
  5  6  2  0
  6  7  1  0
  7  8  2  0
  7  9  1  0
  9 10  1  0
 10 11  1  0
 11 12  2  0
 12 13  1  0
 13 14  2  0
 14 15  1  0
 15 16  1  0
 15 17  2  0
 17 18  1  0
 18 19  2  0
  6  2  1  0
 19 10  1  0
 19 13  1  0
  1 20  1  0
  1 21  1  0
  1 22  1  0
  3 23  1  0
  4 24  1  0
  5 25  1  0
  9 26  1  0
  9 27  1  0
 11 28  1  0
 12 29  1  0
 14 30  1  0
 17 31  1  0
 18 32  1  0
M  CHG  1   5   1
M  END
>  <UniqueID>  (28) 
26

>  <SMILES>  (28) 
Cn1cc[nH+]c1C(=O)Cn1ccc2cc(F)ccc21

>  <Energy>  (28) 
96.53317058959068

>  <Genealogy>  (28) 
Cn1cc[nH+]c1C(=O)Cn1ccc2cc(F)ccc21 (protonated)
Cn1cc[nH+]c1C(=O)Cn1ccc2cc(F)ccc21 (3D coordinates assigned)
Cn1cc[nH+]c1C(=O)Cn1ccc2cc(F)ccc21 (optimized conformer: 96.53317058959068 kcal/mol)

>  <smiles>  (28) 
Cn1ccnc1C(=O)Cn1ccc2cc(F)ccc21

>  <score_type>  (28) 
oracle

>  <origin>  (28) 
adg

>  <m_score__min__energy>  (28) 
-5.0499999999999998

>  <m_primary>  (28) 
energy

$$$$
28:0
     RDKit          3D

 46 48  0  0  0  0  0  0  0  0999 V2000
   55.5410   29.3650   44.6340 O   0  0  0  0  0  0  0  0  0  0  0  0
   56.6590   29.3330   45.2180 C   0  0  0  0  0  0  0  0  0  0  0  0
   57.1810   28.0840   45.6790 N   0  0  0  0  0  0  0  0  0  0  0  0
   57.6660   27.0440   44.7810 C   0  0  0  0  0  0  0  0  0  0  0  0
   57.1840   25.7010   45.2600 C   0  0  0  0  0  0  0  0  0  0  0  0
   58.0150   24.5770   45.1000 C   0  0  0  0  0  0  0  0  0  0  0  0
   57.5920   23.3160   45.5270 C   0  0  0  0  0  0  0  0  0  0  0  0
   56.3340   23.1610   46.1090 C   0  0  0  0  0  0  0  0  0  0  0  0
   55.4920   24.2640   46.2600 C   0  0  0  0  0  0  0  0  0  0  0  0
   55.9010   25.5340   45.8340 C   0  0  0  0  0  0  0  0  0  0  0  0
   55.0100   26.5990   45.9880 O   0  0  0  0  0  0  0  0  0  0  0  0
   57.4290   30.5830   45.4200 C   0  0  0  0  0  0  0  0  0  0  0  0
   57.4940   31.5550   44.4050 C   0  0  0  0  0  0  0  0  0  0  0  0
   58.2180   32.7350   44.5990 C   0  0  0  0  0  0  0  0  0  0  0  0
   58.8880   32.9610   45.8060 C   0  0  0  0  0  0  0  0  0  0  0  0
   59.7910   34.4510   46.0690 S   0  0  0  0  0  0  0  0  0  0  0  0
   59.5170   35.3960   44.9340 O   0  0  0  0  0  0  0  0  0  0  0  0
   59.3670   35.1010   47.3570 O   0  0  0  0  0  0  0  0  0  0  0  0
   61.4940   34.1070   46.1300 N   0  0  0  0  0  0  0  0  0  0  0  0
   61.9600   34.1650   47.5130 C   0  0  0  0  0  0  0  0  0  0  0  0
   61.5630   32.9030   48.2210 C   0  0  0  0  0  0  0  0  0  0  0  0
   61.8060   31.6500   47.6330 C   0  0  0  0  0  0  0  0  0  0  0  0
   61.4100   30.4790   48.2870 C   0  0  0  0  0  0  0  0  0  0  0  0
   60.7590   30.5500   49.5220 C   0  0  0  0  0  0  0  0  0  0  0  0
   60.5000   31.7930   50.1050 C   0  0  0  0  0  0  0  0  0  0  0  0
   60.8960   32.9680   49.4560 C   0  0  0  0  0  0  0  0  0  0  0  0
   58.8320   31.9980   46.8180 C   0  0  0  0  0  0  0  0  0  0  0  0
   58.1100   30.8150   46.6290 C   0  0  0  0  0  0  0  0  0  0  0  0
   57.2850   27.2294   43.7659 H   0  0  0  0  0  0  0  0  0  0  0  0
   58.7659   27.0550   44.7681 H   0  0  0  0  0  0  0  0  0  0  0  0
   59.0053   24.6921   44.6351 H   0  0  0  0  0  0  0  0  0  0  0  0
   58.2517   22.4444   45.4041 H   0  0  0  0  0  0  0  0  0  0  0  0
   56.0049   22.1681   46.4495 H   0  0  0  0  0  0  0  0  0  0  0  0
   54.4998   24.1348   46.7170 H   0  0  0  0  0  0  0  0  0  0  0  0
   55.1500   27.5050   45.5630 H   0  0  0  0  0  0  0  0  0  0  0  0
   56.9715   31.3853   43.4520 H   0  0  0  0  0  0  0  0  0  0  0  0
   58.2610   33.4890   43.7992 H   0  0  0  0  0  0  0  0  0  0  0  0
   63.0552   34.2664   47.5282 H   0  0  0  0  0  0  0  0  0  0  0  0
   61.5078   35.0306   48.0193 H   0  0  0  0  0  0  0  0  0  0  0  0
   62.3087   31.5901   46.6564 H   0  0  0  0  0  0  0  0  0  0  0  0
   61.6113   29.4996   47.8284 H   0  0  0  0  0  0  0  0  0  0  0  0
   60.4506   29.6271   50.0349 H   0  0  0  0  0  0  0  0  0  0  0  0
   59.9843   31.8482   51.0751 H   0  0  0  0  0  0  0  0  0  0  0  0
   60.6844   33.9454   49.9141 H   0  0  0  0  0  0  0  0  0  0  0  0
   59.3586   32.1716   47.7680 H   0  0  0  0  0  0  0  0  0  0  0  0
   58.0745   30.0620   47.4300 H   0  0  0  0  0  0  0  0  0  0  0  0
  1  2  2  0
  2  3  1  0
  3  4  1  0
  4  5  1  0
  5  6  2  0
  6  7  1  0
  7  8  2  0
  8  9  1  0
  9 10  2  0
 10 11  1  0
  2 12  1  0
 12 13  2  0
 13 14  1  0
 14 15  2  0
 15 16  1  0
 16 17  2  0
 16 18  2  0
 16 19  1  0
 19 20  1  0
 20 21  1  0
 21 22  2  0
 22 23  1  0
 23 24  2  0
 24 25  1  0
 25 26  2  0
 15 27  1  0
 27 28  2  0
 10  5  1  0
 28 12  1  0
 26 21  1  0
  4 29  1  0
  4 30  1  0
  6 31  1  0
  7 32  1  0
  8 33  1  0
  9 34  1  0
 11 35  1  0
 13 36  1  0
 14 37  1  0
 20 38  1  0
 20 39  1  0
 22 40  1  0
 23 41  1  0
 24 42  1  0
 25 43  1  0
 26 44  1  0
 27 45  1  0
 28 46  1  0
M  CHG  2   3  -1  19  -1
M  END
>  <UniqueID>  (29) 
27

>  <SMILES>  (29) 
O=C([N-]Cc1ccccc1O)c1ccc(S(=O)(=O)[N-]Cc2ccccc2)cc1

>  <Energy>  (29) 
45.63726112042625

>  <Genealogy>  (29) 
O=C([N-]Cc1ccccc1O)c1ccc(S(=O)(=O)[N-]Cc2ccccc2)cc1 (protonated)
O=C([N-]Cc1ccccc1O)c1ccc(S(=O)(=O)[N-]Cc2ccccc2)cc1 (3D coordinates assigned)
O=C([N-]Cc1ccccc1O)c1ccc(S(=O)(=O)[N-]Cc2ccccc2)cc1 (optimized conformer: 45.63726112042625 kcal/mol)

>  <smiles>  (29) 
O=C(NCc1ccccc1O)c1ccc(S(=O)(=O)NCc2ccccc2)cc1

>  <score_type>  (29) 
oracle

>  <origin>  (29) 
adg

>  <m_score__min__energy>  (29) 
-12.380000000000001

>  <m_primary>  (29) 
energy

$$$$
29:0
     RDKit          3D

 36 38  0  0  0  0  0  0  0  0999 V2000
   57.0360   20.8820   43.0470 C   0  0  0  0  0  0  0  0  0  0  0  0
   57.4580   21.8010   44.1470 C   0  0  0  0  0  0  0  0  0  0  0  0
   58.5460   21.6160   44.9230 N   0  0  0  0  0  0  0  0  0  0  0  0
   58.5760   22.5640   45.8140 O   0  0  0  0  0  0  0  0  0  0  0  0
   57.5420   23.3590   45.6540 C   0  0  0  0  0  0  0  0  0  0  0  0
   57.2840   24.3960   46.3860 N   0  0  0  0  0  0  0  0  0  0  0  0
   56.9430   25.9520   45.7050 S   0  0  0  0  0  0  0  0  0  0  0  0
   55.5160   26.3170   46.0050 O   0  0  0  0  0  0  0  0  0  0  0  0
   57.1670   25.9000   44.2190 O   0  0  0  0  0  0  0  0  0  0  0  0
   58.0170   27.1560   46.4160 C   0  0  0  0  0  0  0  0  0  0  0  0
   58.8560   26.8480   47.5000 C   0  0  0  0  0  0  0  0  0  0  0  0
   59.6260   27.9150   47.9370 C   0  0  0  0  0  0  0  0  0  0  0  0
   59.2670   29.2440   46.9780 S   0  0  0  0  0  0  0  0  0  0  0  0
   58.1310   28.4860   45.9920 C   0  0  0  0  0  0  0  0  0  0  0  0
   57.4170   29.1700   44.8970 C   0  0  0  0  0  0  0  0  0  0  0  0
   57.3680   28.6580   43.7470 O   0  0  0  0  0  0  0  0  0  0  0  0
   56.8240   30.4530   45.1410 N   0  0  0  0  0  0  0  0  0  0  0  0
   57.5180   31.6960   45.3100 C   0  0  0  0  0  0  0  0  0  0  0  0
   57.8790   32.5060   44.2160 C   0  0  0  0  0  0  0  0  0  0  0  0
   58.5350   33.7220   44.4280 C   0  0  0  0  0  0  0  0  0  0  0  0
   58.8250   34.1480   45.7280 C   0  0  0  0  0  0  0  0  0  0  0  0
   59.6470   35.6750   45.9900 Cl  0  0  0  0  0  0  0  0  0  0  0  0
   58.4460   33.3590   46.8190 C   0  0  0  0  0  0  0  0  0  0  0  0
   57.7900   32.1430   46.6100 C   0  0  0  0  0  0  0  0  0  0  0  0
   56.7780   22.9170   44.5970 C   0  0  0  0  0  0  0  0  0  0  0  0
   55.2790   23.5960   43.9860 Cl  0  0  0  0  0  0  0  0  0  0  0  0
   56.6138   19.9627   43.4790 H   0  0  0  0  0  0  0  0  0  0  0  0
   56.2755   21.3782   42.4261 H   0  0  0  0  0  0  0  0  0  0  0  0
   57.9079   20.6286   42.4261 H   0  0  0  0  0  0  0  0  0  0  0  0
   59.2490   20.8480   44.8450 H   0  0  0  0  0  0  0  0  0  0  0  0
   58.8982   25.8500   47.9606 H   0  0  0  0  0  0  0  0  0  0  0  0
   60.3467   27.8939   48.7677 H   0  0  0  0  0  0  0  0  0  0  0  0
   57.6441   32.1809   43.1917 H   0  0  0  0  0  0  0  0  0  0  0  0
   58.8241   34.3459   43.5694 H   0  0  0  0  0  0  0  0  0  0  0  0
   58.6646   33.6962   47.8430 H   0  0  0  0  0  0  0  0  0  0  0  0
   57.4848   31.5321   47.4724 H   0  0  0  0  0  0  0  0  0  0  0  0
  1  2  1  0
  2  3  1  0
  3  4  1  0
  4  5  1  0
  5  6  2  3
  6  7  1  0
  7  8  2  0
  7  9  2  0
  7 10  1  0
 10 11  1  0
 11 12  2  0
 12 13  1  0
 13 14  1  0
 14 15  1  0
 15 16  2  0
 15 17  1  0
 17 18  1  0
 18 19  2  0
 19 20  1  0
 20 21  2  0
 21 22  1  0
 21 23  1  0
 23 24  2  0
  5 25  1  0
 25 26  1  0
 25  2  2  0
 14 10  2  0
 24 18  1  0
  1 27  1  0
  1 28  1  0
  1 29  1  0
  3 30  1  0
 11 31  1  0
 12 32  1  0
 19 33  1  0
 20 34  1  0
 23 35  1  0
 24 36  1  0
M  CHG  1  17  -1
M  END
>  <UniqueID>  (30) 
28

>  <SMILES>  (30) 
Cc1[nH]oc(=NS(=O)(=O)c2ccsc2C(=O)[N-]c2ccc(Cl)cc2)c1Cl

>  <Energy>  (30) 
103.57987401254059

>  <Genealogy>  (30) 
Cc1[nH]oc(=NS(=O)(=O)c2ccsc2C(=O)[N-]c2ccc(Cl)cc2)c1Cl (protonated)
Cc1[nH]oc(=NS(=O)(=O)c2ccsc2C(=O)[N-]c2ccc(Cl)cc2)c1Cl (3D coordinates assigned)
Cc1[nH]oc(=NS(=O)(=O)c2ccsc2C(=O)[N-]c2ccc(Cl)cc2)c1Cl (optimized conformer: 103.57987401254059 kcal/mol)

>  <smiles>  (30) 
Cc1[nH]oc(=NS(=O)(=O)c2ccsc2C(=O)Nc2ccc(Cl)cc2)c1Cl

>  <score_type>  (30) 
oracle

>  <origin>  (30) 
adg

>  <m_score__min__energy>  (30) 
-10.289999999999999

>  <m_primary>  (30) 
energy

$$$$
30:0
     RDKit          3D

 22 22  0  0  0  0  0  0  0  0999 V2000
   56.2780   27.2380   45.9290 N   0  0  0  0  0  0  0  0  0  0  0  0
   57.6500   27.4230   46.2780 C   0  0  0  0  0  0  0  0  0  0  0  0
   58.0500   27.1050   47.4300 O   0  0  0  0  0  0  0  0  0  0  0  0
   58.6190   27.9690   45.2770 C   0  0  0  0  0  0  0  0  0  0  0  0
   57.7410   28.4420   43.7460 S   0  0  0  0  0  0  0  0  0  0  0  0
   56.8710   29.8370   44.4790 C   0  0  0  0  0  0  0  0  0  0  0  0
   55.6840   29.6480   44.8580 O   0  0  0  0  0  0  0  0  0  0  0  0
   57.5280   31.1430   44.7640 C   0  0  0  0  0  0  0  0  0  0  0  0
   57.8590   31.4270   46.1060 C   0  0  0  0  0  0  0  0  0  0  0  0
   58.5000   32.6180   46.4530 C   0  0  0  0  0  0  0  0  0  0  0  0
   58.8190   33.5520   45.4710 C   0  0  0  0  0  0  0  0  0  0  0  0
   59.6240   35.0480   45.9100 Cl  0  0  0  0  0  0  0  0  0  0  0  0
   58.4900   33.3000   44.1390 C   0  0  0  0  0  0  0  0  0  0  0  0
   57.8450   32.1100   43.7730 C   0  0  0  0  0  0  0  0  0  0  0  0
   57.4090   31.9530   42.0760 Cl  0  0  0  0  0  0  0  0  0  0  0  0
   55.6050   26.8480   46.6250 H   0  0  0  0  0  0  0  0  0  0  0  0
   55.9350   27.4880   44.9750 H   0  0  0  0  0  0  0  0  0  0  0  0
   59.1176   28.8542   45.6987 H   0  0  0  0  0  0  0  0  0  0  0  0
   59.3652   27.1964   45.0399 H   0  0  0  0  0  0  0  0  0  0  0  0
   57.6081   30.6986   46.8912 H   0  0  0  0  0  0  0  0  0  0  0  0
   58.7535   32.8187   47.5044 H   0  0  0  0  0  0  0  0  0  0  0  0
   58.7393   34.0431   43.3672 H   0  0  0  0  0  0  0  0  0  0  0  0
  1  2  1  0
  2  3  2  0
  2  4  1  0
  4  5  1  0
  5  6  1  0
  6  7  2  0
  6  8  1  0
  8  9  2  0
  9 10  1  0
 10 11  2  0
 11 12  1  0
 11 13  1  0
 13 14  2  0
 14 15  1  0
 14  8  1  0
  1 16  1  0
  1 17  1  0
  4 18  1  0
  4 19  1  0
  9 20  1  0
 10 21  1  0
 13 22  1  0
M  END
>  <UniqueID>  (31) 
29

>  <SMILES>  (31) 
NC(=O)CSC(=O)c1ccc(Cl)cc1Cl

>  <Energy>  (31) 
23.01649565826647

>  <Genealogy>  (31) 
NC(=O)CSC(=O)c1ccc(Cl)cc1Cl (3D coordinates assigned)
NC(=O)CSC(=O)c1ccc(Cl)cc1Cl (optimized conformer: 23.01649565826647 kcal/mol)

>  <smiles>  (31) 
NC(=O)CSC(=O)c1ccc(Cl)cc1Cl

>  <score_type>  (31) 
oracle

>  <origin>  (31) 
adg

>  <m_score__min__energy>  (31) 
-7.1900000000000004

>  <m_primary>  (31) 
energy

$$$$
31:0
     RDKit          3D

 26 28  0  0  0  0  0  0  0  0999 V2000
   57.0770   30.9530   42.8330 C   0  0  0  0  0  0  0  0  0  0  0  0
   57.8340   31.7290   43.8790 C   0  0  0  0  0  0  0  0  0  0  0  0
   58.0540   33.1010   43.6810 C   0  0  0  0  0  0  0  0  0  0  0  0
   58.7720   33.8320   44.6260 C   0  0  0  0  0  0  0  0  0  0  0  0
   59.2530   33.2210   45.7380 N   0  0  0  0  0  0  0  0  0  0  0  0
   59.0480   31.8990   45.9730 C   0  0  0  0  0  0  0  0  0  0  0  0
   58.3180   31.1190   45.0620 C   0  0  0  0  0  0  0  0  0  0  0  0
   58.0890   29.6890   45.3670 C   0  0  0  0  0  0  0  0  0  0  0  0
   59.1790   28.8610   45.7480 C   0  0  0  0  0  0  0  0  0  0  0  0
   58.9760   27.5020   46.0530 C   0  0  0  0  0  0  0  0  0  0  0  0
   57.6780   27.0080   45.9750 C   0  0  0  0  0  0  0  0  0  0  0  0
   57.2560   25.7560   46.2230 N   0  0  0  0  0  0  0  0  0  0  0  0
   55.9230   25.8720   45.9950 C   0  0  0  0  0  0  0  0  0  0  0  0
   55.1240   24.9070   46.1160 O   0  0  0  0  0  0  0  0  0  0  0  0
   55.5360   27.0850   45.6360 O   0  0  0  0  0  0  0  0  0  0  0  0
   56.6280   27.8000   45.6210 C   0  0  0  0  0  0  0  0  0  0  0  0
   56.7830   29.1480   45.3120 C   0  0  0  0  0  0  0  0  0  0  0  0
   56.3899   30.2487   43.3247 H   0  0  0  0  0  0  0  0  0  0  0  0
   56.5013   31.6490   42.2052 H   0  0  0  0  0  0  0  0  0  0  0  0
   57.7871   30.3947   42.2052 H   0  0  0  0  0  0  0  0  0  0  0  0
   57.6607   33.5983   42.7821 H   0  0  0  0  0  0  0  0  0  0  0  0
   58.9491   34.9064   44.4700 H   0  0  0  0  0  0  0  0  0  0  0  0
   59.4568   31.4363   46.8834 H   0  0  0  0  0  0  0  0  0  0  0  0
   60.1918   29.2864   45.8052 H   0  0  0  0  0  0  0  0  0  0  0  0
   59.8152   26.8527   46.3432 H   0  0  0  0  0  0  0  0  0  0  0  0
   55.9200   29.7712   45.0346 H   0  0  0  0  0  0  0  0  0  0  0  0
  1  2  1  0
  2  3  2  0
  3  4  1  0
  4  5  2  0
  5  6  1  0
  6  7  2  0
  7  8  1  0
  8  9  2  0
  9 10  1  0
 10 11  2  0
 11 12  1  0
 12 13  1  0
 13 14  2  0
 13 15  1  0
 15 16  1  0
 16 17  2  0
  7  2  1  0
 17  8  1  0
 16 11  1  0
  1 18  1  0
  1 19  1  0
  1 20  1  0
  3 21  1  0
  4 22  1  0
  6 23  1  0
  9 24  1  0
 10 25  1  0
 17 26  1  0
M  CHG  1  12  -1
M  END
>  <UniqueID>  (32) 
30

>  <SMILES>  (32) 
Cc1ccncc1-c1ccc2[n-]c(=O)oc2c1

>  <Energy>  (32) 
74.78870866930458

>  <Genealogy>  (32) 
Cc1ccncc1-c1ccc2[n-]c(=O)oc2c1 (protonated)
Cc1ccncc1-c1ccc2[n-]c(=O)oc2c1 (3D coordinates assigned)
Cc1ccncc1-c1ccc2[n-]c(=O)oc2c1 (optimized conformer: 74.78870866930458 kcal/mol)

>  <smiles>  (32) 
Cc1ccncc1-c1ccc2[nH]c(=O)oc2c1

>  <score_type>  (32) 
oracle

>  <origin>  (32) 
adg

>  <m_score__min__energy>  (32) 
-8.2200000000000006

>  <m_primary>  (32) 
energy

$$$$
32:0
     RDKit          3D

 49 52  0  0  1  0  0  0  0  0999 V2000
   58.1510   30.5650   52.2340 C   0  0  0  0  0  0  0  0  0  0  0  0
   59.0100   29.8020   51.2150 C   0  0  1  0  0  0  0  0  0  0  0  0
   58.3900   29.8210   49.9440 O   0  0  0  0  0  0  0  0  0  0  0  0
   59.0400   29.2940   48.8130 C   0  0  0  0  0  0  0  0  0  0  0  0
   59.6480   28.0960   48.8370 N   0  0  0  0  0  0  0  0  0  0  0  0
   60.2690   27.6060   47.7300 C   0  0  0  0  0  0  0  0  0  0  0  0
   60.2910   28.3290   46.5440 C   0  0  0  0  0  0  0  0  0  0  0  0
   59.6780   29.5610   46.4770 C   0  0  0  0  0  0  0  0  0  0  0  0
   59.0320   30.0710   47.6340 C   0  0  0  0  0  0  0  0  0  0  0  0
   58.5670   31.3180   47.6430 N   0  0  0  0  0  0  0  0  0  0  0  0
   58.9190   32.4320   48.0030 C   0  0  0  0  0  0  0  0  0  0  0  0
   59.2470   32.6320   49.3020 N   0  0  0  0  0  0  0  0  0  0  0  0
   59.6430   33.8150   49.7950 C   0  0  0  0  0  0  0  0  0  0  0  0
   59.7120   34.8440   48.9430 N   0  0  0  0  0  0  0  0  0  0  0  0
   59.3930   34.6810   47.6440 C   0  0  0  0  0  0  0  0  0  0  0  0
   59.4050   35.5740   46.6690 N   0  0  0  0  0  0  0  0  0  0  0  0
   59.0220   34.9700   45.5600 C   0  0  0  0  0  0  0  0  0  0  0  0
   58.7390   33.6090   45.8010 C   0  0  0  0  0  0  0  0  0  0  0  0
   58.2280   32.6260   44.4810 Cl  0  0  0  0  0  0  0  0  0  0  0  0
   58.9800   33.4580   47.1190 C   0  0  0  0  0  0  0  0  0  0  0  0
   60.3100   30.5240   51.1950 C   0  0  0  0  0  0  0  0  0  0  0  0
   60.3700   31.6160   51.7920 O   0  0  0  0  0  0  0  0  0  0  0  0
   61.3920   29.9300   50.4990 N   0  0  0  0  0  0  0  0  0  0  0  0
   62.7160   30.5200   50.4080 C   0  0  0  0  0  0  0  0  0  0  0  0
   62.7630   31.6030   49.4090 C   0  0  0  0  0  0  0  0  0  0  0  0
   63.2730   32.8600   49.6260 C   0  0  0  0  0  0  0  0  0  0  0  0
   63.2620   33.7820   48.6090 C   0  0  0  0  0  0  0  0  0  0  0  0
   62.7510   33.5050   47.3430 C   0  0  0  0  0  0  0  0  0  0  0  0
   62.2380   32.2360   47.1240 C   0  0  0  0  0  0  0  0  0  0  0  0
   62.2460   31.3070   48.1420 C   0  0  0  0  0  0  0  0  0  0  0  0
   58.4604   30.2902   53.2532 H   0  0  0  0  0  0  0  0  0  0  0  0
   58.2851   31.6472   52.0894 H   0  0  0  0  0  0  0  0  0  0  0  0
   57.0922   30.3042   52.0894 H   0  0  0  0  0  0  0  0  0  0  0  0
   59.1415   28.7424   51.4795 H   0  0  0  0  0  0  0  0  0  0  0  0
   60.7608   26.6231   47.7748 H   0  0  0  0  0  0  0  0  0  0  0  0
   60.7978   27.9179   45.6585 H   0  0  0  0  0  0  0  0  0  0  0  0
   59.6889   30.1404   45.5420 H   0  0  0  0  0  0  0  0  0  0  0  0
   59.1970   31.8430   49.9680 H   0  0  0  0  0  0  0  0  0  0  0  0
   59.9008   33.9342   50.8577 H   0  0  0  0  0  0  0  0  0  0  0  0
   59.6650   36.5650   46.7520 H   0  0  0  0  0  0  0  0  0  0  0  0
   58.9351   35.4614   44.5797 H   0  0  0  0  0  0  0  0  0  0  0  0
   61.2530   29.0040   50.0100 H   0  0  0  0  0  0  0  0  0  0  0  0
   62.9921   30.9295   51.3909 H   0  0  0  0  0  0  0  0  0  0  0  0
   63.4205   29.7349   50.0959 H   0  0  0  0  0  0  0  0  0  0  0  0
   63.6879   33.1263   50.6093 H   0  0  0  0  0  0  0  0  0  0  0  0
   63.6747   34.7832   48.8022 H   0  0  0  0  0  0  0  0  0  0  0  0
   62.7545   34.2645   46.5473 H   0  0  0  0  0  0  0  0  0  0  0  0
   61.8252   31.9709   46.1394 H   0  0  0  0  0  0  0  0  0  0  0  0
   61.8345   30.3044   47.9537 H   0  0  0  0  0  0  0  0  0  0  0  0
  1  2  1  0
  2  3  1  0
  3  4  1  0
  4  5  2  0
  5  6  1  0
  6  7  2  0
  7  8  1  0
  8  9  2  0
  9 10  1  0
 10 11  2  0
 11 12  1  0
 12 13  1  0
 13 14  2  0
 14 15  1  0
 15 16  1  0
 16 17  1  0
 17 18  2  0
 18 19  1  0
 18 20  1  0
  2 21  1  0
 21 22  2  0
 21 23  1  0
 23 24  1  0
 24 25  1  0
 25 26  2  0
 26 27  1  0
 27 28  2  0
 28 29  1  0
 29 30  2  0
  9  4  1  0
 20 11  1  0
 30 25  1  0
 20 15  2  0
  1 31  1  0
  1 32  1  0
  1 33  1  0
  2 34  1  1
  6 35  1  0
  7 36  1  0
  8 37  1  0
 12 38  1  0
 13 39  1  0
 16 40  1  0
 17 41  1  0
 23 42  1  0
 24 43  1  0
 24 44  1  0
 26 45  1  0
 27 46  1  0
 28 47  1  0
 29 48  1  0
 30 49  1  0
M  END
>  <smiles>  (33) 
CC(Oc1ncccc1N=c1[nH]cnc2[nH]cc(Cl)c12)C(=O)NCc1ccccc1

>  <score_type>  (33) 
oracle

>  <origin>  (33) 
adg

>  <m_score__min__energy>  (33) 
-8.1199999999999992

>  <m_primary>  (33) 
energy

$$$$
33:0
     RDKit          3D

 49 51  0  0  0  0  0  0  0  0999 V2000
   56.1940   30.2390   44.7020 O   0  0  0  0  0  0  0  0  0  0  0  0
   57.2640   29.6570   45.0260 C   0  0  0  0  0  0  0  0  0  0  0  0
   57.3870   28.1700   44.8160 C   0  0  0  0  0  0  0  0  0  0  0  0
   58.4100   27.5360   45.6770 N   0  0  0  0  0  0  0  0  0  0  0  0
   59.7900   27.8050   45.2370 C   0  0  0  0  0  0  0  0  0  0  0  0
   60.7790   26.9800   46.0880 C   0  0  0  0  0  0  0  0  0  0  0  0
   60.1390   26.3220   47.1710 O   0  0  0  0  0  0  0  0  0  0  0  0
   59.4010   27.2570   47.9330 C   0  0  0  0  0  0  0  0  0  0  0  0
   58.2420   27.8540   47.1070 C   0  0  0  0  0  0  0  0  0  0  0  0
   58.3430   30.3950   45.6210 N   0  0  0  0  0  0  0  0  0  0  0  0
   58.3490   31.8270   45.7270 C   0  0  0  0  0  0  0  0  0  0  0  0
   57.7290   32.6030   44.7300 C   0  0  0  0  0  0  0  0  0  0  0  0
   57.8110   33.9960   44.7610 C   0  0  0  0  0  0  0  0  0  0  0  0
   58.5280   34.6320   45.7740 C   0  0  0  0  0  0  0  0  0  0  0  0
   59.1540   33.8760   46.7660 C   0  0  0  0  0  0  0  0  0  0  0  0
   59.0550   32.4780   46.7700 C   0  0  0  0  0  0  0  0  0  0  0  0
   59.6970   31.7610   47.8360 N   0  0  0  0  0  0  0  0  0  0  0  0
   60.9450   31.0520   47.7790 C   0  0  0  0  0  0  0  0  0  0  0  0
   60.9760   29.9390   47.1920 O   0  0  0  0  0  0  0  0  0  0  0  0
   62.1940   31.5960   48.3630 C   0  0  0  0  0  0  0  0  0  0  0  0
   62.9860   32.5180   47.6560 C   0  0  0  0  0  0  0  0  0  0  0  0
   64.1300   33.0640   48.2440 C   0  0  0  0  0  0  0  0  0  0  0  0
   64.5160   32.6790   49.5350 C   0  0  0  0  0  0  0  0  0  0  0  0
   65.7100   33.3150   50.1920 C   0  0  0  0  0  0  0  0  0  0  0  0
   66.8850   32.6850   49.7630 O   0  0  0  0  0  0  0  0  0  0  0  0
   63.7400   31.7450   50.2350 C   0  0  0  0  0  0  0  0  0  0  0  0
   62.5950   31.1970   49.6490 C   0  0  0  0  0  0  0  0  0  0  0  0
   56.4134   27.7059   45.0323 H   0  0  0  0  0  0  0  0  0  0  0  0
   57.7000   28.0148   43.7729 H   0  0  0  0  0  0  0  0  0  0  0  0
   59.8971   27.5253   44.1786 H   0  0  0  0  0  0  0  0  0  0  0  0
   60.0090   28.8758   45.3608 H   0  0  0  0  0  0  0  0  0  0  0  0
   61.2535   26.2239   45.4453 H   0  0  0  0  0  0  0  0  0  0  0  0
   61.5222   27.6740   46.5076 H   0  0  0  0  0  0  0  0  0  0  0  0
   58.9883   26.7527   48.8192 H   0  0  0  0  0  0  0  0  0  0  0  0
   60.0744   28.0738   48.2322 H   0  0  0  0  0  0  0  0  0  0  0  0
   57.2899   27.4329   47.4621 H   0  0  0  0  0  0  0  0  0  0  0  0
   58.2427   28.9470   47.2310 H   0  0  0  0  0  0  0  0  0  0  0  0
   59.1340   29.8620   46.0460 H   0  0  0  0  0  0  0  0  0  0  0  0
   57.1749   32.1074   43.9192 H   0  0  0  0  0  0  0  0  0  0  0  0
   57.3093   34.5931   43.9852 H   0  0  0  0  0  0  0  0  0  0  0  0
   58.6001   35.7295   45.7911 H   0  0  0  0  0  0  0  0  0  0  0  0
   59.7314   34.3828   47.5533 H   0  0  0  0  0  0  0  0  0  0  0  0
   62.7034   32.8112   46.6341 H   0  0  0  0  0  0  0  0  0  0  0  0
   64.7311   33.8003   47.6903 H   0  0  0  0  0  0  0  0  0  0  0  0
   65.7491   34.3809   49.9230 H   0  0  0  0  0  0  0  0  0  0  0  0
   65.6210   33.2086   51.2832 H   0  0  0  0  0  0  0  0  0  0  0  0
   66.8920   32.7400   48.7720 H   0  0  0  0  0  0  0  0  0  0  0  0
   64.0334   31.4415   51.2508 H   0  0  0  0  0  0  0  0  0  0  0  0
   62.0045   30.4489   50.1982 H   0  0  0  0  0  0  0  0  0  0  0  0
  1  2  2  0
  2  3  1  0
  3  4  1  0
  4  5  1  0
  5  6  1  0
  6  7  1  0
  7  8  1  0
  8  9  1  0
  2 10  1  0
 10 11  1  0
 11 12  2  0
 12 13  1  0
 13 14  2  0
 14 15  1  0
 15 16  2  0
 16 17  1  0
 17 18  1  0
 18 19  2  0
 18 20  1  0
 20 21  2  0
 21 22  1  0
 22 23  2  0
 23 24  1  0
 24 25  1  0
 23 26  1  0
 26 27  2  0
  9  4  1  0
 16 11  1  0
 27 20  1  0
  3 28  1  0
  3 29  1  0
  5 30  1  0
  5 31  1  0
  6 32  1  0
  6 33  1  0
  8 34  1  0
  8 35  1  0
  9 36  1  0
  9 37  1  0
 10 38  1  0
 12 39  1  0
 13 40  1  0
 14 41  1  0
 15 42  1  0
 21 43  1  0
 22 44  1  0
 24 45  1  0
 24 46  1  0
 25 47  1  0
 26 48  1  0
 27 49  1  0
M  CHG  1  17  -1
M  END
>  <UniqueID>  (34) 
31

>  <SMILES>  (34) 
O=C(CN1CCOCC1)Nc1ccccc1[N-]C(=O)c1ccc(CO)cc1

>  <Energy>  (34) 
69.86710056981929

>  <Genealogy>  (34) 
O=C(CN1CCOCC1)Nc1ccccc1[N-]C(=O)c1ccc(CO)cc1 (protonated)
O=C(CN1CCOCC1)Nc1ccccc1[N-]C(=O)c1ccc(CO)cc1 (3D coordinates assigned)
O=C(CN1CCOCC1)Nc1ccccc1[N-]C(=O)c1ccc(CO)cc1 (nonaromatic ring conformer: 69.86710056981929 kcal/mol)

>  <smiles>  (34) 
O=C(CN1CCOCC1)Nc1ccccc1NC(=O)c1ccc(CO)cc1

>  <score_type>  (34) 
oracle

>  <origin>  (34) 
adg

>  <m_score__min__energy>  (34) 
-9.9800000000000004

>  <m_primary>  (34) 
energy

$$$$
34:0
     RDKit          3D

 44 46  0  0  0  0  0  0  0  0999 V2000
   59.1090   35.3520   46.5980 O   0  0  0  0  0  0  0  0  0  0  0  0
   59.3880   34.3710   47.3390 C   0  0  0  0  0  0  0  0  0  0  0  0
   59.6280   34.5900   48.8010 C   0  0  0  0  0  0  0  0  0  0  0  0
   60.3820   33.5080   49.3490 O   0  0  0  0  0  0  0  0  0  0  0  0
   61.7790   33.3680   49.2650 C   0  0  0  0  0  0  0  0  0  0  0  0
   62.6180   33.4140   50.3980 C   0  0  0  0  0  0  0  0  0  0  0  0
   64.0010   33.2710   50.2530 C   0  0  0  0  0  0  0  0  0  0  0  0
   64.5590   33.0900   48.9860 C   0  0  0  0  0  0  0  0  0  0  0  0
   63.7350   33.0460   47.8610 C   0  0  0  0  0  0  0  0  0  0  0  0
   62.3510   33.1800   48.0010 C   0  0  0  0  0  0  0  0  0  0  0  0
   59.5040   33.0530   46.7850 N   0  0  0  0  0  0  0  0  0  0  0  0
   58.7490   32.6050   45.6480 C   0  0  0  0  0  0  0  0  0  0  0  0
   58.7580   33.3670   44.4700 C   0  0  0  0  0  0  0  0  0  0  0  0
   58.0660   32.9280   43.3380 C   0  0  0  0  0  0  0  0  0  0  0  0
   57.3810   31.7120   43.3640 C   0  0  0  0  0  0  0  0  0  0  0  0
   57.3820   30.9290   44.5250 C   0  0  0  0  0  0  0  0  0  0  0  0
   56.5760   29.3640   44.5170 S   0  0  0  0  0  0  0  0  0  0  0  0
   57.0140   28.5980   43.3000 O   0  0  0  0  0  0  0  0  0  0  0  0
   55.0800   29.5240   44.4740 O   0  0  0  0  0  0  0  0  0  0  0  0
   57.0190   28.4790   45.9400 N   0  0  0  0  0  0  0  0  0  0  0  0
   57.2490   27.0620   45.9970 C   0  0  0  0  0  0  0  0  0  0  0  0
   58.5480   26.5180   46.0440 C   0  0  0  0  0  0  0  0  0  0  0  0
   58.7280   25.1320   46.1020 C   0  0  0  0  0  0  0  0  0  0  0  0
   57.6210   24.2790   46.1110 C   0  0  0  0  0  0  0  0  0  0  0  0
   56.3300   24.8110   46.0800 C   0  0  0  0  0  0  0  0  0  0  0  0
   56.1420   26.1980   46.0260 C   0  0  0  0  0  0  0  0  0  0  0  0
   54.8530   26.7140   46.0160 O   0  0  0  0  0  0  0  0  0  0  0  0
   58.0620   31.3770   45.6660 C   0  0  0  0  0  0  0  0  0  0  0  0
   60.1859   35.5278   48.9403 H   0  0  0  0  0  0  0  0  0  0  0  0
   58.6584   34.6469   49.3173 H   0  0  0  0  0  0  0  0  0  0  0  0
   62.1832   33.5627   51.3974 H   0  0  0  0  0  0  0  0  0  0  0  0
   64.6515   33.3012   51.1396 H   0  0  0  0  0  0  0  0  0  0  0  0
   65.6480   32.9821   48.8748 H   0  0  0  0  0  0  0  0  0  0  0  0
   64.1752   32.9057   46.8627 H   0  0  0  0  0  0  0  0  0  0  0  0
   61.7059   33.1374   47.1110 H   0  0  0  0  0  0  0  0  0  0  0  0
   60.1330   32.3700   47.2650 H   0  0  0  0  0  0  0  0  0  0  0  0
   59.3133   34.3160   44.4372 H   0  0  0  0  0  0  0  0  0  0  0  0
   58.0611   33.5416   42.4251 H   0  0  0  0  0  0  0  0  0  0  0  0
   56.8392   31.3681   42.4706 H   0  0  0  0  0  0  0  0  0  0  0  0
   59.4227   27.1849   46.0351 H   0  0  0  0  0  0  0  0  0  0  0  0
   59.7440   24.7122   46.1406 H   0  0  0  0  0  0  0  0  0  0  0  0
   57.7664   23.1891   46.1425 H   0  0  0  0  0  0  0  0  0  0  0  0
   55.4590   24.1394   46.0980 H   0  0  0  0  0  0  0  0  0  0  0  0
   58.0586   30.7654   46.5803 H   0  0  0  0  0  0  0  0  0  0  0  0
  1  2  2  0
  2  3  1  0
  3  4  1  0
  4  5  1  0
  5  6  2  0
  6  7  1  0
  7  8  2  0
  8  9  1  0
  9 10  2  0
  2 11  1  0
 11 12  1  0
 12 13  2  0
 13 14  1  0
 14 15  2  0
 15 16  1  0
 16 17  1  0
 17 18  2  0
 17 19  2  0
 17 20  1  0
 20 21  1  0
 21 22  2  0
 22 23  1  0
 23 24  2  0
 24 25  1  0
 25 26  2  0
 26 27  1  0
 16 28  2  0
 10  5  1  0
 28 12  1  0
 26 21  1  0
  3 29  1  0
  3 30  1  0
  6 31  1  0
  7 32  1  0
  8 33  1  0
  9 34  1  0
 10 35  1  0
 11 36  1  0
 13 37  1  0
 14 38  1  0
 15 39  1  0
 22 40  1  0
 23 41  1  0
 24 42  1  0
 25 43  1  0
 28 44  1  0
M  CHG  2  20  -1  27  -1
M  END
>  <UniqueID>  (35) 
32

>  <SMILES>  (35) 
O=C(COc1ccccc1)Nc1cccc(S(=O)(=O)[N-]c2ccccc2[O-])c1

>  <Energy>  (35) 
50.03948889298727

>  <Genealogy>  (35) 
O=C(COc1ccccc1)Nc1cccc(S(=O)(=O)[N-]c2ccccc2[O-])c1 (protonated)
O=C(COc1ccccc1)Nc1cccc(S(=O)(=O)[N-]c2ccccc2[O-])c1 (3D coordinates assigned)
O=C(COc1ccccc1)Nc1cccc(S(=O)(=O)[N-]c2ccccc2[O-])c1 (optimized conformer: 50.03948889298727 kcal/mol)

>  <smiles>  (35) 
O=C(COc1ccccc1)Nc1cccc(S(=O)(=O)Nc2ccccc2O)c1

>  <score_type>  (35) 
oracle

>  <origin>  (35) 
adg

>  <m_score__min__energy>  (35) 
-15.25

>  <m_primary>  (35) 
energy

$$$$
35:0
     RDKit          3D

 52 54  0  0  1  0  0  0  0  0999 V2000
   59.2730   23.1880   45.5020 C   0  0  0  0  0  0  0  0  0  0  0  0
   58.1800   23.4980   46.3470 O   0  0  0  0  0  0  0  0  0  0  0  0
   57.3330   24.5690   46.1110 C   0  0  0  0  0  0  0  0  0  0  0  0
   57.8850   25.7990   45.8220 C   0  0  0  0  0  0  0  0  0  0  0  0
   57.0530   26.8750   45.5850 C   0  0  0  0  0  0  0  0  0  0  0  0
   57.5580   28.0090   45.3140 N   0  0  0  0  0  0  0  0  0  0  0  0
   56.8380   29.3520   44.5760 S   0  0  0  0  0  0  0  0  0  0  0  0
   55.4300   29.4910   45.0780 O   0  0  0  0  0  0  0  0  0  0  0  0
   56.6690   29.1530   43.0780 O   0  0  0  0  0  0  0  0  0  0  0  0
   57.6660   30.8620   44.8640 C   0  0  0  0  0  0  0  0  0  0  0  0
   57.3700   31.8960   43.9640 C   0  0  0  0  0  0  0  0  0  0  0  0
   57.9750   33.1150   44.1240 C   0  0  0  0  0  0  0  0  0  0  0  0
   58.8780   33.3070   45.1770 C   0  0  0  0  0  0  0  0  0  0  0  0
   59.1900   32.3160   46.0720 C   0  0  0  0  0  0  0  0  0  0  0  0
   60.0890   32.4330   47.1480 N   0  0  0  0  0  0  0  0  0  0  0  0
   61.2370   33.2550   47.1880 C   0  0  0  0  0  0  0  0  0  0  0  0
   61.5520   33.9800   46.2150 O   0  0  0  0  0  0  0  0  0  0  0  0
   62.1330   33.3280   48.3490 C   0  0  0  0  0  0  0  0  0  0  0  0
   63.4960   33.1300   48.2440 C   0  0  0  0  0  0  0  0  0  0  0  0
   64.2820   33.2360   49.3830 C   0  0  0  0  0  0  0  0  0  0  0  0
   63.7140   33.5360   50.6080 C   0  0  0  0  0  0  0  0  0  0  0  0
   62.3590   33.7310   50.7040 C   0  0  0  0  0  0  0  0  0  0  0  0
   61.5420   33.6300   49.5690 C   0  0  0  0  0  0  0  0  0  0  0  0
   59.7980   33.8630   49.6990 S   0  0  0  0  0  0  0  0  0  0  0  0
   59.3410   34.4060   51.2730 N   0  0  0  0  0  0  0  0  0  0  0  0
   59.1260   32.5010   49.5170 O   0  0  0  0  0  0  0  0  0  0  0  0
   59.2570   34.7840   48.6740 O   0  0  0  0  0  0  0  0  0  0  0  0
   58.5480   31.0900   45.8730 C   0  0  0  0  0  0  0  0  0  0  0  0
   55.7220   26.7670   45.6230 N   0  0  0  0  0  0  0  0  0  0  0  0
   55.1990   25.5740   45.9020 C   0  0  0  0  0  0  0  0  0  0  0  0
   53.8030   25.4610   45.9420 O   0  0  0  0  0  0  0  0  0  0  0  0
   53.2180   24.3410   45.2760 C   0  0  0  0  0  0  0  0  0  0  0  0
   55.9900   24.4890   46.1420 N   0  0  0  0  0  0  0  0  0  0  0  0
   60.1515   22.9388   46.1153 H   0  0  0  0  0  0  0  0  0  0  0  0
   59.0133   22.3281   44.8671 H   0  0  0  0  0  0  0  0  0  0  0  0
   59.5034   24.0562   44.8671 H   0  0  0  0  0  0  0  0  0  0  0  0
   58.9773   25.9218   45.7807 H   0  0  0  0  0  0  0  0  0  0  0  0
   56.6608   31.7305   43.1396 H   0  0  0  0  0  0  0  0  0  0  0  0
   57.7526   33.9382   43.4291 H   0  0  0  0  0  0  0  0  0  0  0  0
   59.3557   34.2913   45.2906 H   0  0  0  0  0  0  0  0  0  0  0  0
   59.9140   31.8630   48.0190 H   0  0  0  0  0  0  0  0  0  0  0  0
   63.9519   32.8918   47.2717 H   0  0  0  0  0  0  0  0  0  0  0  0
   65.3684   33.0797   49.3107 H   0  0  0  0  0  0  0  0  0  0  0  0
   64.3473   33.6181   51.5037 H   0  0  0  0  0  0  0  0  0  0  0  0
   61.9100   33.9686   51.6797 H   0  0  0  0  0  0  0  0  0  0  0  0
   58.8860   35.3430   51.2770 H   0  0  0  0  0  0  0  0  0  0  0  0
   58.7280   33.6910   51.7170 H   0  0  0  0  0  0  0  0  0  0  0  0
   58.7680   30.2672   46.5691 H   0  0  0  0  0  0  0  0  0  0  0  0
   55.1450   27.6050   45.4420 H   0  0  0  0  0  0  0  0  0  0  0  0
   52.8439   23.6249   46.0225 H   0  0  0  0  0  0  0  0  0  0  0  0
   52.3837   24.6836   44.6463 H   0  0  0  0  0  0  0  0  0  0  0  0
   53.9759   23.8520   44.6463 H   0  0  0  0  0  0  0  0  0  0  0  0
  1  2  1  0
  2  3  1  0
  3  4  2  0
  4  5  1  0
  5  6  2  0
  6  7  1  0
  7  8  2  0
  7  9  2  0
  7 10  1  0
 10 11  2  0
 11 12  1  0
 12 13  2  0
 13 14  1  0
 14 15  1  0
 15 16  1  0
 16 17  2  0
 16 18  1  0
 18 19  2  0
 19 20  1  0
 20 21  2  0
 21 22  1  0
 22 23  2  0
 23 24  1  0
 24 25  1  0
 24 26  2  0
 24 27  2  0
 14 28  2  0
  5 29  1  0
 29 30  1  0
 30 31  1  0
 31 32  1  0
 30 33  2  0
 33  3  1  0
 28 10  1  0
 23 18  1  0
  1 34  1  0
  1 35  1  0
  1 36  1  0
  4 37  1  0
 11 38  1  0
 12 39  1  0
 13 40  1  0
 15 41  1  0
 19 42  1  0
 20 43  1  0
 21 44  1  0
 22 45  1  0
 25 46  1  0
 25 47  1  0
 28 48  1  0
 29 49  1  0
 32 50  1  0
 32 51  1  0
 32 52  1  0
M  END
>  <smiles>  (36) 
COc1cc(=NS(=O)(=O)c2cccc(NC(=O)c3ccccc3S(N)(=O)=O)c2)[nH]c(OC)n1

>  <score_type>  (36) 
oracle

>  <origin>  (36) 
adg

>  <m_score__min__energy>  (36) 
-10.23

>  <m_primary>  (36) 
energy

$$$$
36:0
     RDKit          3D

 35 36  0  0  0  0  0  0  0  0999 V2000
   58.9510   34.0690   48.0880 O   0  0  0  0  0  0  0  0  0  0  0  0
   58.7650   33.3530   47.0670 C   0  0  0  0  0  0  0  0  0  0  0  0
   57.3800   33.2250   46.5100 C   0  0  0  0  0  0  0  0  0  0  0  0
   57.3230   33.7700   45.1930 O   0  0  0  0  0  0  0  0  0  0  0  0
   58.2220   33.4260   44.1790 C   0  0  0  0  0  0  0  0  0  0  0  0
   59.3660   33.9540   44.1220 O   0  0  0  0  0  0  0  0  0  0  0  0
   57.8400   32.3790   43.1830 C   0  0  0  0  0  0  0  0  0  0  0  0
   57.5560   31.0810   43.8850 C   0  0  0  0  0  0  0  0  0  0  0  0
   58.5670   30.4350   44.6160 C   0  0  0  0  0  0  0  0  0  0  0  0
   58.2940   29.2450   45.2960 C   0  0  0  0  0  0  0  0  0  0  0  0
   57.0090   28.6960   45.2600 C   0  0  0  0  0  0  0  0  0  0  0  0
   56.7450   27.5420   45.9220 F   0  0  0  0  0  0  0  0  0  0  0  0
   55.9940   29.3400   44.5460 C   0  0  0  0  0  0  0  0  0  0  0  0
   56.2630   30.5310   43.8640 C   0  0  0  0  0  0  0  0  0  0  0  0
   59.8720   32.7210   46.4060 N   0  0  0  0  0  0  0  0  0  0  0  0
   61.2130   32.7300   46.9220 C   0  0  0  0  0  0  0  0  0  0  0  0
   62.0750   33.8090   46.6500 C   0  0  0  0  0  0  0  0  0  0  0  0
   63.3690   33.8320   47.1760 C   0  0  0  0  0  0  0  0  0  0  0  0
   63.8140   32.7840   47.9850 C   0  0  0  0  0  0  0  0  0  0  0  0
   62.9650   31.7140   48.2730 C   0  0  0  0  0  0  0  0  0  0  0  0
   61.6660   31.6840   47.7520 C   0  0  0  0  0  0  0  0  0  0  0  0
   60.5550   30.1740   48.1560 Br  0  0  0  0  0  0  0  0  0  0  0  0
   57.0999   32.1618   46.4750 H   0  0  0  0  0  0  0  0  0  0  0  0
   56.6823   33.7778   47.1562 H   0  0  0  0  0  0  0  0  0  0  0  0
   56.9403   32.7039   42.6399 H   0  0  0  0  0  0  0  0  0  0  0  0
   58.6701   32.2331   42.4762 H   0  0  0  0  0  0  0  0  0  0  0  0
   59.5777   30.8677   44.6533 H   0  0  0  0  0  0  0  0  0  0  0  0
   59.0915   28.7396   45.8604 H   0  0  0  0  0  0  0  0  0  0  0  0
   54.9822   28.9092   44.5206 H   0  0  0  0  0  0  0  0  0  0  0  0
   55.4601   31.0387   43.3095 H   0  0  0  0  0  0  0  0  0  0  0  0
   59.7050   32.2910   45.4680 H   0  0  0  0  0  0  0  0  0  0  0  0
   61.7273   34.6400   46.0188 H   0  0  0  0  0  0  0  0  0  0  0  0
   64.0380   34.6762   46.9528 H   0  0  0  0  0  0  0  0  0  0  0  0
   64.8344   32.8018   48.3956 H   0  0  0  0  0  0  0  0  0  0  0  0
   63.3181   30.8911   48.9119 H   0  0  0  0  0  0  0  0  0  0  0  0
  1  2  2  0
  2  3  1  0
  3  4  1  0
  4  5  1  0
  5  6  2  0
  5  7  1  0
  7  8  1  0
  8  9  2  0
  9 10  1  0
 10 11  2  0
 11 12  1  0
 11 13  1  0
 13 14  2  0
  2 15  1  0
 15 16  1  0
 16 17  2  0
 17 18  1  0
 18 19  2  0
 19 20  1  0
 20 21  2  0
 21 22  1  0
 14  8  1  0
 21 16  1  0
  3 23  1  0
  3 24  1  0
  7 25  1  0
  7 26  1  0
  9 27  1  0
 10 28  1  0
 13 29  1  0
 14 30  1  0
 15 31  1  0
 17 32  1  0
 18 33  1  0
 19 34  1  0
 20 35  1  0
M  END
>  <UniqueID>  (37) 
33

>  <SMILES>  (37) 
O=C(COC(=O)Cc1ccc(F)cc1)Nc1ccccc1Br

>  <Energy>  (37) 
35.216690852198624

>  <Genealogy>  (37) 
O=C(COC(=O)Cc1ccc(F)cc1)Nc1ccccc1Br (3D coordinates assigned)
O=C(COC(=O)Cc1ccc(F)cc1)Nc1ccccc1Br (optimized conformer: 35.216690852198624 kcal/mol)

>  <smiles>  (37) 
O=C(COC(=O)Cc1ccc(F)cc1)Nc1ccccc1Br

>  <score_type>  (37) 
oracle

>  <origin>  (37) 
adg

>  <m_score__min__energy>  (37) 
-7.8799999999999999

>  <m_primary>  (37) 
energy

$$$$
37:0
     RDKit          3D

 61 64  0  0  0  0  0  0  0  0999 V2000
   60.6500   28.3610   48.1950 C   0  0  0  0  0  0  0  0  0  0  0  0
   59.1350   28.4110   48.0240 C   0  0  0  0  0  0  0  0  0  0  0  0
   58.7140   29.6320   47.2450 C   0  0  0  0  0  0  0  0  0  0  0  0
   58.8990   30.9660   47.6200 C   0  0  0  0  0  0  0  0  0  0  0  0
   59.5800   31.4370   48.8850 C   0  0  0  0  0  0  0  0  0  0  0  0
   58.7040   31.2170   50.0940 C   0  0  0  0  0  0  0  0  0  0  0  0
   58.6480   29.9560   50.7060 C   0  0  0  0  0  0  0  0  0  0  0  0
   57.8410   29.7490   51.8280 C   0  0  0  0  0  0  0  0  0  0  0  0
   57.0670   30.7980   52.3560 C   0  0  0  0  0  0  0  0  0  0  0  0
   56.2330   30.5890   53.5630 C   0  0  0  0  0  0  0  0  0  0  0  0
   56.7170   30.8020   54.7110 O   0  0  0  0  0  0  0  0  0  0  0  0
   54.8700   30.1730   53.4340 N   0  0  0  0  0  0  0  0  0  0  0  0
   54.1070   30.3370   52.2070 C   0  0  0  0  0  0  0  0  0  0  0  0
   57.1080   32.0530   51.7260 C   0  0  0  0  0  0  0  0  0  0  0  0
   57.9170   32.2600   50.6070 C   0  0  0  0  0  0  0  0  0  0  0  0
   58.4320   31.7340   46.5500 C   0  0  0  0  0  0  0  0  0  0  0  0
   58.4010   33.1350   46.3880 C   0  0  0  0  0  0  0  0  0  0  0  0
   58.8520   33.9790   47.4160 O   0  0  0  0  0  0  0  0  0  0  0  0
   59.9860   34.8450   47.3510 C   0  0  0  0  0  0  0  0  0  0  0  0
   61.1880   34.1760   47.9600 C   0  0  0  0  0  0  0  0  0  0  0  0
   61.4080   34.2120   49.3470 C   0  0  0  0  0  0  0  0  0  0  0  0
   62.5410   33.6000   49.8950 C   0  0  0  0  0  0  0  0  0  0  0  0
   63.4590   32.9470   49.0640 C   0  0  0  0  0  0  0  0  0  0  0  0
   64.8820   32.1840   49.7520 Cl  0  0  0  0  0  0  0  0  0  0  0  0
   63.2410   32.9020   47.6820 C   0  0  0  0  0  0  0  0  0  0  0  0
   62.1070   33.5080   47.1330 C   0  0  0  0  0  0  0  0  0  0  0  0
   57.8870   33.6350   45.1730 C   0  0  0  0  0  0  0  0  0  0  0  0
   57.4170   32.7620   44.1830 C   0  0  0  0  0  0  0  0  0  0  0  0
   57.4650   31.3840   44.3990 C   0  0  0  0  0  0  0  0  0  0  0  0
   57.9790   30.9200   45.5710 N   0  0  0  0  0  0  0  0  0  0  0  0
   58.1520   29.6410   45.9720 C   0  0  0  0  0  0  0  0  0  0  0  0
   57.7350   28.4270   45.1810 C   0  0  0  0  0  0  0  0  0  0  0  0
   56.2520   28.2410   45.2470 C   0  0  0  0  0  0  0  0  0  0  0  0
   55.7090   27.0510   45.8130 N   0  0  0  0  0  0  0  0  0  0  0  0
   55.4800   29.1330   44.8070 O   0  0  0  0  0  0  0  0  0  0  0  0
   60.8980   28.3528   49.2667 H   0  0  0  0  0  0  0  0  0  0  0  0
   61.0426   27.4494   47.7208 H   0  0  0  0  0  0  0  0  0  0  0  0
   61.1019   29.2447   47.7208 H   0  0  0  0  0  0  0  0  0  0  0  0
   58.8048   27.5104   47.4856 H   0  0  0  0  0  0  0  0  0  0  0  0
   58.6733   28.4578   49.0213 H   0  0  0  0  0  0  0  0  0  0  0  0
   60.5184   30.8783   49.0161 H   0  0  0  0  0  0  0  0  0  0  0  0
   59.7785   32.5149   48.7917 H   0  0  0  0  0  0  0  0  0  0  0  0
   59.2432   29.1247   50.3001 H   0  0  0  0  0  0  0  0  0  0  0  0
   57.8109   28.7570   52.3024 H   0  0  0  0  0  0  0  0  0  0  0  0
   53.0591   30.5622   52.4542 H   0  0  0  0  0  0  0  0  0  0  0  0
   54.5311   31.1645   51.6193 H   0  0  0  0  0  0  0  0  0  0  0  0
   54.1536   29.4083   51.6193 H   0  0  0  0  0  0  0  0  0  0  0  0
   56.4974   32.8799   52.1177 H   0  0  0  0  0  0  0  0  0  0  0  0
   57.9378   33.2479   50.1237 H   0  0  0  0  0  0  0  0  0  0  0  0
   60.1988   35.0863   46.2991 H   0  0  0  0  0  0  0  0  0  0  0  0
   59.7662   35.7658   47.9112 H   0  0  0  0  0  0  0  0  0  0  0  0
   60.6881   34.7224   50.0038 H   0  0  0  0  0  0  0  0  0  0  0  0
   62.7106   33.6321   50.9814 H   0  0  0  0  0  0  0  0  0  0  0  0
   63.9620   32.3898   47.0279 H   0  0  0  0  0  0  0  0  0  0  0  0
   61.9332   33.4616   46.0478 H   0  0  0  0  0  0  0  0  0  0  0  0
   57.8549   34.7210   45.0012 H   0  0  0  0  0  0  0  0  0  0  0  0
   57.0125   33.1604   43.2409 H   0  0  0  0  0  0  0  0  0  0  0  0
   57.0938   30.6848   43.6352 H   0  0  0  0  0  0  0  0  0  0  0  0
   58.0368   28.5580   44.1313 H   0  0  0  0  0  0  0  0  0  0  0  0
   58.2237   27.5392   45.6088 H   0  0  0  0  0  0  0  0  0  0  0  0
   54.8210   27.0760   46.3610 H   0  0  0  0  0  0  0  0  0  0  0  0
  1  2  1  0
  2  3  1  0
  3  4  1  0
  4  5  1  0
  5  6  1  0
  6  7  2  0
  7  8  1  0
  8  9  2  0
  9 10  1  0
 10 11  2  0
 10 12  1  0
 12 13  1  0
  9 14  1  0
 14 15  2  0
  4 16  2  0
 16 17  1  0
 17 18  1  0
 18 19  1  0
 19 20  1  0
 20 21  2  0
 21 22  1  0
 22 23  2  0
 23 24  1  0
 23 25  1  0
 25 26  2  0
 17 27  2  0
 27 28  1  0
 28 29  2  0
 29 30  1  0
 30 31  1  0
 31 32  1  0
 32 33  1  0
 33 34  1  0
 33 35  2  0
 31  3  2  0
 15  6  1  0
 30 16  1  0
 26 20  1  0
  1 36  1  0
  1 37  1  0
  1 38  1  0
  2 39  1  0
  2 40  1  0
  5 41  1  0
  5 42  1  0
  7 43  1  0
  8 44  1  0
 13 45  1  0
 13 46  1  0
 13 47  1  0
 14 48  1  0
 15 49  1  0
 19 50  1  0
 19 51  1  0
 21 52  1  0
 22 53  1  0
 25 54  1  0
 26 55  1  0
 27 56  1  0
 28 57  1  0
 29 58  1  0
 32 59  1  0
 32 60  1  0
 34 61  1  0
M  CHG  2  12  -1  34  -1
M  END
>  <UniqueID>  (38) 
34

>  <SMILES>  (38) 
CCc1c(Cc2ccc(C(=O)[N-]C)cc2)c2c(OCc3ccc(Cl)cc3)cccn2c1CC([NH-])=O

>  <Energy>  (38) 
86.80217962570183

>  <Genealogy>  (38) 
CCc1c(Cc2ccc(C(=O)[N-]C)cc2)c2c(OCc3ccc(Cl)cc3)cccn2c1CC([NH-])=O (protonated)
CCc1c(Cc2ccc(C(=O)[N-]C)cc2)c2c(OCc3ccc(Cl)cc3)cccn2c1CC([NH-])=O (3D coordinates assigned)
CCc1c(Cc2ccc(C(=O)[N-]C)cc2)c2c(OCc3ccc(Cl)cc3)cccn2c1CC([NH-])=O (optimized conformer: 86.80217962570183 kcal/mol)

>  <smiles>  (38) 
CCc1c(Cc2ccc(C(=O)NC)cc2)c2c(OCc3ccc(Cl)cc3)cccn2c1CC(N)=O

>  <score_type>  (38) 
oracle

>  <origin>  (38) 
adg

>  <m_score__min__energy>  (38) 
-13.359999999999999

>  <m_primary>  (38) 
energy

$$$$
38:0
     RDKit          3D

 50 53  0  0  0  0  0  0  0  0999 V2000
   55.8890   30.2460   44.5680 O   0  0  0  0  0  0  0  0  0  0  0  0
   56.9330   29.9910   43.9070 C   0  0  0  0  0  0  0  0  0  0  0  0
   57.0590   28.6710   43.2140 C   0  0  0  0  0  0  0  0  0  0  0  0
   58.6140   27.8490   43.6940 S   0  0  0  0  0  0  0  0  0  0  0  0
   57.8190   26.3920   44.4030 C   0  0  0  0  0  0  0  0  0  0  0  0
   57.6790   25.3160   43.5880 N   0  0  0  0  0  0  0  0  0  0  0  0
   57.0730   24.1790   43.9990 C   0  0  0  0  0  0  0  0  0  0  0  0
   56.9700   23.0860   43.1300 C   0  0  0  0  0  0  0  0  0  0  0  0
   56.3350   21.9150   43.5530 C   0  0  0  0  0  0  0  0  0  0  0  0
   55.8010   21.8340   44.8410 C   0  0  0  0  0  0  0  0  0  0  0  0
   55.8990   22.9240   45.7120 C   0  0  0  0  0  0  0  0  0  0  0  0
   56.5390   24.1060   45.2950 C   0  0  0  0  0  0  0  0  0  0  0  0
   56.6530   25.2350   46.1250 C   0  0  0  0  0  0  0  0  0  0  0  0
   56.1220   25.2120   47.2710 O   0  0  0  0  0  0  0  0  0  0  0  0
   57.3190   26.3600   45.6890 N   0  0  0  0  0  0  0  0  0  0  0  0
   57.3970   27.5400   46.5840 C   0  0  0  0  0  0  0  0  0  0  0  0
   58.6400   27.5190   47.4920 C   0  0  0  0  0  0  0  0  0  0  0  0
   59.3750   28.8330   47.5030 C   0  0  0  0  0  0  0  0  0  0  0  0
   60.1840   29.2010   46.4170 C   0  0  0  0  0  0  0  0  0  0  0  0
   60.8380   30.4380   46.4140 C   0  0  0  0  0  0  0  0  0  0  0  0
   60.6950   31.3090   47.4980 C   0  0  0  0  0  0  0  0  0  0  0  0
   59.9010   30.9430   48.5890 C   0  0  0  0  0  0  0  0  0  0  0  0
   59.2450   29.7080   48.5960 C   0  0  0  0  0  0  0  0  0  0  0  0
   57.9770   30.9680   43.7850 N   0  0  0  0  0  0  0  0  0  0  0  0
   58.1100   32.1160   44.6420 C   0  0  0  0  0  0  0  0  0  0  0  0
   58.4990   33.3690   44.1420 C   0  0  0  0  0  0  0  0  0  0  0  0
   58.5900   34.4660   45.0000 C   0  0  0  0  0  0  0  0  0  0  0  0
   58.2790   34.3060   46.3520 C   0  0  0  0  0  0  0  0  0  0  0  0
   57.8830   33.0920   46.8180 N   0  0  0  0  0  0  0  0  0  0  0  0
   57.7860   32.0080   46.0020 C   0  0  0  0  0  0  0  0  0  0  0  0
   56.2091   28.0315   43.4945 H   0  0  0  0  0  0  0  0  0  0  0  0
   57.0634   28.8372   42.1266 H   0  0  0  0  0  0  0  0  0  0  0  0
   57.3887   23.1489   42.1147 H   0  0  0  0  0  0  0  0  0  0  0  0
   56.2557   21.0560   42.8705 H   0  0  0  0  0  0  0  0  0  0  0  0
   55.3022   20.9109   45.1712 H   0  0  0  0  0  0  0  0  0  0  0  0
   55.4750   22.8572   46.7248 H   0  0  0  0  0  0  0  0  0  0  0  0
   57.4291   28.4489   45.9652 H   0  0  0  0  0  0  0  0  0  0  0  0
   56.5108   27.5208   47.2353 H   0  0  0  0  0  0  0  0  0  0  0  0
   58.3217   27.2854   48.5187 H   0  0  0  0  0  0  0  0  0  0  0  0
   59.3277   26.7574   47.0956 H   0  0  0  0  0  0  0  0  0  0  0  0
   60.3044   28.5150   45.5656 H   0  0  0  0  0  0  0  0  0  0  0  0
   61.4655   30.7255   45.5575 H   0  0  0  0  0  0  0  0  0  0  0  0
   61.2072   32.2824   47.4926 H   0  0  0  0  0  0  0  0  0  0  0  0
   59.7921   31.6275   49.4432 H   0  0  0  0  0  0  0  0  0  0  0  0
   58.6259   29.4204   49.4585 H   0  0  0  0  0  0  0  0  0  0  0  0
   58.6510   30.8640   42.9930 H   0  0  0  0  0  0  0  0  0  0  0  0
   58.7322   33.4861   43.0734 H   0  0  0  0  0  0  0  0  0  0  0  0
   58.9038   35.4475   44.6149 H   0  0  0  0  0  0  0  0  0  0  0  0
   58.3544   35.1616   47.0392 H   0  0  0  0  0  0  0  0  0  0  0  0
   57.4521   31.0428   46.4106 H   0  0  0  0  0  0  0  0  0  0  0  0
  1  2  2  0
  2  3  1  0
  3  4  1  0
  4  5  1  0
  5  6  2  0
  6  7  1  0
  7  8  2  0
  8  9  1  0
  9 10  2  0
 10 11  1  0
 11 12  2  0
 12 13  1  0
 13 14  2  0
 13 15  1  0
 15 16  1  0
 16 17  1  0
 17 18  1  0
 18 19  2  0
 19 20  1  0
 20 21  2  0
 21 22  1  0
 22 23  2  0
  2 24  1  0
 24 25  1  0
 25 26  2  0
 26 27  1  0
 27 28  2  0
 28 29  1  0
 29 30  2  0
 15  5  1  0
 23 18  1  0
 30 25  1  0
 12  7  1  0
  3 31  1  0
  3 32  1  0
  8 33  1  0
  9 34  1  0
 10 35  1  0
 11 36  1  0
 16 37  1  0
 16 38  1  0
 17 39  1  0
 17 40  1  0
 19 41  1  0
 20 42  1  0
 21 43  1  0
 22 44  1  0
 23 45  1  0
 24 46  1  0
 26 47  1  0
 27 48  1  0
 28 49  1  0
 30 50  1  0
M  END
>  <UniqueID>  (39) 
35

>  <SMILES>  (39) 
O=C(CSc1nc2ccccc2c(=O)n1CCc1ccccc1)Nc1cccnc1

>  <Energy>  (39) 
59.60342780346378

>  <Genealogy>  (39) 
O=C(CSc1nc2ccccc2c(=O)n1CCc1ccccc1)Nc1cccnc1 (3D coordinates assigned)
O=C(CSc1nc2ccccc2c(=O)n1CCc1ccccc1)Nc1cccnc1 (optimized conformer: 59.60342780346378 kcal/mol)

>  <smiles>  (39) 
O=C(CSc1nc2ccccc2c(=O)n1CCc1ccccc1)Nc1cccnc1

>  <score_type>  (39) 
oracle

>  <origin>  (39) 
adg

>  <m_score__min__energy>  (39) 
-8.9399999999999995

>  <m_primary>  (39) 
energy

$$$$
39:0
     RDKit          3D

 58 61  0  0  0  0  0  0  0  0999 V2000
   63.3170   30.3240   51.2820 C   0  0  0  0  0  0  0  0  0  0  0  0
   62.1050   30.0210   50.5920 O   0  0  0  0  0  0  0  0  0  0  0  0
   60.9380   30.8000   50.6480 C   0  0  0  0  0  0  0  0  0  0  0  0
   60.9220   32.0640   51.2750 C   0  0  0  0  0  0  0  0  0  0  0  0
   59.7430   32.8120   51.3240 C   0  0  0  0  0  0  0  0  0  0  0  0
   58.5710   32.3230   50.7350 C   0  0  0  0  0  0  0  0  0  0  0  0
   58.5770   31.0820   50.0940 C   0  0  0  0  0  0  0  0  0  0  0  0
   59.7540   30.3030   50.0590 C   0  0  0  0  0  0  0  0  0  0  0  0
   59.7480   28.9830   49.3270 C   0  0  0  0  0  0  0  0  0  0  0  0
   60.4840   29.1070   47.9870 C   0  0  0  0  0  0  0  0  0  0  0  0
   60.3840   30.4890   47.4730 N   0  0  0  0  0  0  0  0  0  0  0  0
   59.1850   30.9670   47.0200 C   0  0  0  0  0  0  0  0  0  0  0  0
   58.1710   30.2160   47.0210 O   0  0  0  0  0  0  0  0  0  0  0  0
   59.0760   32.2550   46.5680 N   0  0  0  0  0  0  0  0  0  0  0  0
   57.7800   32.7510   46.0550 C   0  0  0  0  0  0  0  0  0  0  0  0
   57.5050   32.1970   44.6790 C   0  0  0  0  0  0  0  0  0  0  0  0
   56.7250   31.0380   44.5190 C   0  0  0  0  0  0  0  0  0  0  0  0
   56.4810   30.5180   43.2420 C   0  0  0  0  0  0  0  0  0  0  0  0
   57.0160   31.1520   42.1150 C   0  0  0  0  0  0  0  0  0  0  0  0
   57.7980   32.3030   42.2670 C   0  0  0  0  0  0  0  0  0  0  0  0
   58.0450   32.8240   43.5430 C   0  0  0  0  0  0  0  0  0  0  0  0
   60.1810   33.0610   46.5620 C   0  0  0  0  0  0  0  0  0  0  0  0
   60.0910   34.2460   46.1330 O   0  0  0  0  0  0  0  0  0  0  0  0
   61.3840   32.5940   47.0230 N   0  0  0  0  0  0  0  0  0  0  0  0
   62.5870   33.4490   46.9600 C   0  0  0  0  0  0  0  0  0  0  0  0
   63.1750   33.6250   48.3360 C   0  0  0  0  0  0  0  0  0  0  0  0
   64.4030   33.0260   48.6640 C   0  0  0  0  0  0  0  0  0  0  0  0
   64.9150   33.1320   49.9580 C   0  0  0  0  0  0  0  0  0  0  0  0
   64.2110   33.8410   50.9360 C   0  0  0  0  0  0  0  0  0  0  0  0
   62.9900   34.4410   50.6200 C   0  0  0  0  0  0  0  0  0  0  0  0
   62.4690   34.3310   49.3250 C   0  0  0  0  0  0  0  0  0  0  0  0
   61.4750   31.3120   47.4920 C   0  0  0  0  0  0  0  0  0  0  0  0
   62.5770   30.8850   47.9460 O   0  0  0  0  0  0  0  0  0  0  0  0
   63.1419   30.2802   52.3671 H   0  0  0  0  0  0  0  0  0  0  0  0
   64.0894   29.5913   51.0054 H   0  0  0  0  0  0  0  0  0  0  0  0
   63.6538   31.3340   51.0054 H   0  0  0  0  0  0  0  0  0  0  0  0
   61.8422   32.4623   51.7274 H   0  0  0  0  0  0  0  0  0  0  0  0
   59.7356   33.7898   51.8278 H   0  0  0  0  0  0  0  0  0  0  0  0
   57.6455   32.9160   50.7770 H   0  0  0  0  0  0  0  0  0  0  0  0
   57.6600   30.7097   49.6140 H   0  0  0  0  0  0  0  0  0  0  0  0
   60.2487   28.2239   49.9459 H   0  0  0  0  0  0  0  0  0  0  0  0
   58.7059   28.6886   49.1339 H   0  0  0  0  0  0  0  0  0  0  0  0
   61.5437   28.8487   48.1297 H   0  0  0  0  0  0  0  0  0  0  0  0
   60.0235   28.4209   47.2609 H   0  0  0  0  0  0  0  0  0  0  0  0
   56.9770   32.4369   46.7380 H   0  0  0  0  0  0  0  0  0  0  0  0
   57.8203   33.8485   45.9932 H   0  0  0  0  0  0  0  0  0  0  0  0
   56.3037   30.5366   45.4028 H   0  0  0  0  0  0  0  0  0  0  0  0
   55.8690   29.6115   43.1247 H   0  0  0  0  0  0  0  0  0  0  0  0
   56.8223   30.7464   41.1110 H   0  0  0  0  0  0  0  0  0  0  0  0
   58.2199   32.7999   41.3810 H   0  0  0  0  0  0  0  0  0  0  0  0
   58.6634   33.7266   43.6566 H   0  0  0  0  0  0  0  0  0  0  0  0
   63.3335   32.9776   46.3038 H   0  0  0  0  0  0  0  0  0  0  0  0
   62.3052   34.4350   46.5621 H   0  0  0  0  0  0  0  0  0  0  0  0
   64.9634   32.4709   47.8973 H   0  0  0  0  0  0  0  0  0  0  0  0
   65.8747   32.6566   50.2090 H   0  0  0  0  0  0  0  0  0  0  0  0
   64.6187   33.9262   51.9541 H   0  0  0  0  0  0  0  0  0  0  0  0
   62.4372   35.0004   51.3891 H   0  0  0  0  0  0  0  0  0  0  0  0
   61.5038   34.7988   49.0809 H   0  0  0  0  0  0  0  0  0  0  0  0
  1  2  1  0
  2  3  1  0
  3  4  2  0
  4  5  1  0
  5  6  2  0
  6  7  1  0
  7  8  2  0
  8  9  1  0
  9 10  1  0
 10 11  1  0
 11 12  1  0
 12 13  2  0
 12 14  1  0
 14 15  1  0
 15 16  1  0
 16 17  2  0
 17 18  1  0
 18 19  2  0
 19 20  1  0
 20 21  2  0
 14 22  1  0
 22 23  2  0
 22 24  1  0
 24 25  1  0
 25 26  1  0
 26 27  2  0
 27 28  1  0
 28 29  2  0
 29 30  1  0
 30 31  2  0
 24 32  1  0
 32 33  2  0
  8  3  1  0
 32 11  1  0
 21 16  1  0
 31 26  1  0
  1 34  1  0
  1 35  1  0
  1 36  1  0
  4 37  1  0
  5 38  1  0
  6 39  1  0
  7 40  1  0
  9 41  1  0
  9 42  1  0
 10 43  1  0
 10 44  1  0
 15 45  1  0
 15 46  1  0
 17 47  1  0
 18 48  1  0
 19 49  1  0
 20 50  1  0
 21 51  1  0
 25 52  1  0
 25 53  1  0
 27 54  1  0
 28 55  1  0
 29 56  1  0
 30 57  1  0
 31 58  1  0
M  END
>  <UniqueID>  (40) 
36

>  <SMILES>  (40) 
COc1ccccc1CCn1c(=O)n(Cc2ccccc2)c(=O)n(Cc2ccccc2)c1=O

>  <Energy>  (40) 
69.16770047435173

>  <Genealogy>  (40) 
COc1ccccc1CCn1c(=O)n(Cc2ccccc2)c(=O)n(Cc2ccccc2)c1=O (3D coordinates assigned)
COc1ccccc1CCn1c(=O)n(Cc2ccccc2)c(=O)n(Cc2ccccc2)c1=O (optimized conformer: 69.16770047435173 kcal/mol)

>  <smiles>  (40) 
COc1ccccc1CCn1c(=O)n(Cc2ccccc2)c(=O)n(Cc2ccccc2)c1=O

>  <score_type>  (40) 
oracle

>  <origin>  (40) 
adg

>  <m_score__min__energy>  (40) 
-8.5600000000000005

>  <m_primary>  (40) 
energy

$$$$
40:0
     RDKit          3D

 59 62  0  0  0  0  0  0  0  0999 V2000
   65.9590   32.2360   50.1210 C   0  0  0  0  0  0  0  0  0  0  0  0
   65.2470   33.4040   49.7240 O   0  0  0  0  0  0  0  0  0  0  0  0
   63.9700   33.3940   49.1440 C   0  0  0  0  0  0  0  0  0  0  0  0
   63.7390   32.9240   47.8370 C   0  0  0  0  0  0  0  0  0  0  0  0
   62.4460   32.9360   47.3030 C   0  0  0  0  0  0  0  0  0  0  0  0
   61.3690   33.4140   48.0640 C   0  0  0  0  0  0  0  0  0  0  0  0
   59.9860   33.4450   47.4700 C   0  0  0  0  0  0  0  0  0  0  0  0
   59.8450   32.4090   46.4290 N   0  0  0  0  0  0  0  0  0  0  0  0
   60.0480   31.0370   46.9550 C   0  0  1  0  0  0  0  0  0  0  0  0
   59.1190   30.6640   48.1030 C   0  0  0  0  0  0  0  0  0  0  0  0
   58.1640   29.8710   47.9000 O   0  0  0  0  0  0  0  0  0  0  0  0
   59.3440   31.1140   49.4480 N   0  0  0  0  0  0  0  0  0  0  0  0
   60.0160   30.3760   50.5180 C   0  0  0  0  0  0  0  0  0  0  0  0
   61.3420   29.7520   49.9750 C   0  0  0  0  0  0  0  0  0  0  0  0
   62.6090   30.6200   50.0960 C   0  0  0  0  0  0  0  0  0  0  0  0
   63.3350   30.5140   51.4520 C   0  0  0  0  0  0  0  0  0  0  0  0
   62.6430   31.2170   52.6280 C   0  0  0  0  0  0  0  0  0  0  0  0
   61.1660   30.8330   52.8120 C   0  0  0  0  0  0  0  0  0  0  0  0
   60.1950   31.3320   51.7180 C   0  0  0  0  0  0  0  0  0  0  0  0
   59.9470   29.9990   45.8630 C   0  0  0  0  0  0  0  0  0  0  0  0
   60.8480   29.1200   45.7800 O   0  0  0  0  0  0  0  0  0  0  0  0
   58.7840   29.9420   44.9450 C   0  0  0  0  0  0  0  0  0  0  0  0
   58.4800   28.7490   44.2630 C   0  0  0  0  0  0  0  0  0  0  0  0
   57.3730   28.6820   43.4120 C   0  0  0  0  0  0  0  0  0  0  0  0
   56.5610   29.8030   43.2300 C   0  0  0  0  0  0  0  0  0  0  0  0
   56.8590   30.9960   43.8920 C   0  0  0  0  0  0  0  0  0  0  0  0
   57.9670   31.0690   44.7470 C   0  0  0  0  0  0  0  0  0  0  0  0
   58.3630   32.5950   45.5160 S   0  0  0  0  0  0  0  0  0  0  0  0
   57.2290   33.0240   46.4050 O   0  0  0  0  0  0  0  0  0  0  0  0
   58.5780   33.6310   44.4490 O   0  0  0  0  0  0  0  0  0  0  0  0
   61.6000   33.8830   49.3650 C   0  0  0  0  0  0  0  0  0  0  0  0
   62.8920   33.8720   49.8990 C   0  0  0  0  0  0  0  0  0  0  0  0
   65.9918   32.1821   51.2192 H   0  0  0  0  0  0  0  0  0  0  0  0
   65.4506   31.3444   49.7252 H   0  0  0  0  0  0  0  0  0  0  0  0
   66.9844   32.2794   49.7252 H   0  0  0  0  0  0  0  0  0  0  0  0
   64.5778   32.5462   47.2339 H   0  0  0  0  0  0  0  0  0  0  0  0
   62.2730   32.5686   46.2807 H   0  0  0  0  0  0  0  0  0  0  0  0
   59.2472   33.2624   48.2642 H   0  0  0  0  0  0  0  0  0  0  0  0
   59.8179   34.4317   47.0137 H   0  0  0  0  0  0  0  0  0  0  0  0
   61.0699   31.0462   47.3620 H   0  0  0  0  0  0  0  0  0  0  0  0
   59.4205   29.5224   50.8739 H   0  0  0  0  0  0  0  0  0  0  0  0
   61.5226   28.8179   50.5271 H   0  0  0  0  0  0  0  0  0  0  0  0
   61.1812   29.6199   48.8949 H   0  0  0  0  0  0  0  0  0  0  0  0
   63.3110   30.3136   49.3065 H   0  0  0  0  0  0  0  0  0  0  0  0
   62.2800   31.6653   50.0004 H   0  0  0  0  0  0  0  0  0  0  0  0
   63.4301   29.4473   51.7031 H   0  0  0  0  0  0  0  0  0  0  0  0
   64.2997   31.0256   51.3192 H   0  0  0  0  0  0  0  0  0  0  0  0
   63.1838   30.9590   53.5505 H   0  0  0  0  0  0  0  0  0  0  0  0
   62.6640   32.2946   52.4082 H   0  0  0  0  0  0  0  0  0  0  0  0
   61.1048   29.7351   52.8410 H   0  0  0  0  0  0  0  0  0  0  0  0
   60.8448   31.3264   53.7412 H   0  0  0  0  0  0  0  0  0  0  0  0
   59.2093   31.4863   52.1813 H   0  0  0  0  0  0  0  0  0  0  0  0
   60.6366   32.2544   51.3128 H   0  0  0  0  0  0  0  0  0  0  0  0
   59.1178   27.8634   44.4005 H   0  0  0  0  0  0  0  0  0  0  0  0
   57.1414   27.7447   42.8850 H   0  0  0  0  0  0  0  0  0  0  0  0
   55.6865   29.7466   42.5652 H   0  0  0  0  0  0  0  0  0  0  0  0
   56.2225   31.8805   43.7420 H   0  0  0  0  0  0  0  0  0  0  0  0
   60.7613   34.2611   49.9680 H   0  0  0  0  0  0  0  0  0  0  0  0
   63.0631   34.2419   50.9207 H   0  0  0  0  0  0  0  0  0  0  0  0
  1  2  1  0
  2  3  1  0
  3  4  2  0
  4  5  1  0
  5  6  2  0
  6  7  1  0
  7  8  1  0
  8  9  1  0
  9 10  1  0
 10 11  2  0
 10 12  1  0
 12 13  1  0
 13 14  1  0
 14 15  1  0
 15 16  1  0
 16 17  1  0
 17 18  1  0
 18 19  1  0
  9 20  1  0
 20 21  2  0
 20 22  1  0
 22 23  2  0
 23 24  1  0
 24 25  2  0
 25 26  1  0
 26 27  2  0
 27 28  1  0
 28 29  2  0
 28 30  2  0
  6 31  1  0
 31 32  2  0
 32  3  1  0
 28  8  1  0
 19 13  1  0
 27 22  1  0
  1 33  1  0
  1 34  1  0
  1 35  1  0
  4 36  1  0
  5 37  1  0
  7 38  1  0
  7 39  1  0
  9 40  1  1
 13 41  1  0
 14 42  1  0
 14 43  1  0
 15 44  1  0
 15 45  1  0
 16 46  1  0
 16 47  1  0
 17 48  1  0
 17 49  1  0
 18 50  1  0
 18 51  1  0
 19 52  1  0
 19 53  1  0
 23 54  1  0
 24 55  1  0
 25 56  1  0
 26 57  1  0
 31 58  1  0
 32 59  1  0
M  CHG  1  12  -1
M  END
>  <UniqueID>  (41) 
37

>  <SMILES>  (41) 
COc1ccc(CN2[C@@H](C(=O)[N-]C3CCCCCC3)C(=O)c3ccccc3S2(=O)=O)cc1

>  <Energy>  (41) 
76.4396567788546

>  <Genealogy>  (41) 
COc1ccc(CN2C(C(=O)[N-]C3CCCCCC3)C(=O)c3ccccc3S2(=O)=O)cc1 (protonated)
COc1ccc(CN2[C@@H](C(=O)[N-]C3CCCCCC3)C(=O)c3ccccc3S2(=O)=O)cc1 (chirality)
COc1ccc(CN2[C@@H](C(=O)[N-]C3CCCCCC3)C(=O)c3ccccc3S2(=O)=O)cc1 (3D coordinates assigned)
COc1ccc(CN2[C@@H](C(=O)[N-]C3CCCCCC3)C(=O)c3ccccc3S2(=O)=O)cc1 (nonaromatic ring conformer: 76.4396567788546 kcal/mol)

>  <smiles>  (41) 
COc1ccc(CN2C(C(=O)NC3CCCCCC3)C(=O)c3ccccc3S2(=O)=O)cc1

>  <score_type>  (41) 
oracle

>  <origin>  (41) 
adg

>  <m_score__min__energy>  (41) 
-7.5

>  <m_primary>  (41) 
energy

$$$$
41:0
     RDKit          3D

 49 51  0  0  0  0  0  0  0  0999 V2000
   60.0240   30.6190   45.6580 O   0  0  0  0  0  0  0  0  0  0  0  0
   59.9680   29.4780   46.1940 C   0  0  0  0  0  0  0  0  0  0  0  0
   60.3930   29.2910   47.5460 N   0  0  0  0  0  0  0  0  0  0  0  0
   60.2990   30.3240   48.5720 C   0  0  0  0  0  0  0  0  0  0  0  0
   61.2340   31.4600   48.2570 C   0  0  0  0  0  0  0  0  0  0  0  0
   62.3930   31.2420   47.4940 C   0  0  0  0  0  0  0  0  0  0  0  0
   63.2730   32.2970   47.2350 C   0  0  0  0  0  0  0  0  0  0  0  0
   63.0060   33.5720   47.7390 C   0  0  0  0  0  0  0  0  0  0  0  0
   63.8630   34.5940   47.4900 F   0  0  0  0  0  0  0  0  0  0  0  0
   61.8580   33.7950   48.5030 C   0  0  0  0  0  0  0  0  0  0  0  0
   60.9750   32.7430   48.7650 C   0  0  0  0  0  0  0  0  0  0  0  0
   59.4760   28.3570   45.4540 N   0  0  0  0  0  0  0  0  0  0  0  0
   58.5180   27.4400   45.9940 C   0  0  0  0  0  0  0  0  0  0  0  0
   58.9630   26.4410   46.8670 C   0  0  0  0  0  0  0  0  0  0  0  0
   58.0600   25.5350   47.4240 C   0  0  0  0  0  0  0  0  0  0  0  0
   56.7010   25.6270   47.1210 C   0  0  0  0  0  0  0  0  0  0  0  0
   56.2370   26.6280   46.2590 C   0  0  0  0  0  0  0  0  0  0  0  0
   54.8760   26.7050   45.9910 O   0  0  0  0  0  0  0  0  0  0  0  0
   57.1420   27.5400   45.6760 C   0  0  0  0  0  0  0  0  0  0  0  0
   56.6300   28.6600   44.7950 C   0  0  0  0  0  0  0  0  0  0  0  0
   57.0050   29.9610   45.3680 N   0  0  0  0  0  0  0  0  0  0  0  0
   56.6240   31.0760   44.4830 C   0  0  0  0  0  0  0  0  0  0  0  0
   57.8630   31.8740   44.0520 C   0  0  0  0  0  0  0  0  0  0  0  0
   58.2740   32.8840   45.0930 C   0  0  0  0  0  0  0  0  0  0  0  0
   59.1260   33.9480   44.7570 C   0  0  0  0  0  0  0  0  0  0  0  0
   59.4730   34.8980   45.7200 C   0  0  0  0  0  0  0  0  0  0  0  0
   58.9710   34.7710   47.0160 C   0  0  0  0  0  0  0  0  0  0  0  0
   58.1500   33.7320   47.3310 N   0  0  0  0  0  0  0  0  0  0  0  0
   57.7920   32.7960   46.4090 C   0  0  0  0  0  0  0  0  0  0  0  0
   59.2673   30.7035   48.6113 H   0  0  0  0  0  0  0  0  0  0  0  0
   60.5782   29.8898   49.5433 H   0  0  0  0  0  0  0  0  0  0  0  0
   62.6089   30.2383   47.0991 H   0  0  0  0  0  0  0  0  0  0  0  0
   64.1772   32.1227   46.6333 H   0  0  0  0  0  0  0  0  0  0  0  0
   61.6484   34.7996   48.8990 H   0  0  0  0  0  0  0  0  0  0  0  0
   60.0745   32.9212   49.3711 H   0  0  0  0  0  0  0  0  0  0  0  0
   60.0321   26.3695   47.1158 H   0  0  0  0  0  0  0  0  0  0  0  0
   58.4196   24.7475   48.1026 H   0  0  0  0  0  0  0  0  0  0  0  0
   55.9917   24.9105   47.5609 H   0  0  0  0  0  0  0  0  0  0  0  0
   57.0692   28.5638   43.7911 H   0  0  0  0  0  0  0  0  0  0  0  0
   55.5338   28.5962   44.7299 H   0  0  0  0  0  0  0  0  0  0  0  0
   58.0480   29.9740   45.4720 H   0  0  0  0  0  0  0  0  0  0  0  0
   56.1248   30.6734   43.5893 H   0  0  0  0  0  0  0  0  0  0  0  0
   55.9445   31.7458   45.0303 H   0  0  0  0  0  0  0  0  0  0  0  0
   58.6961   31.1749   43.8870 H   0  0  0  0  0  0  0  0  0  0  0  0
   57.6125   32.4189   43.1299 H   0  0  0  0  0  0  0  0  0  0  0  0
   59.5208   34.0335   43.7338 H   0  0  0  0  0  0  0  0  0  0  0  0
   60.1348   35.7373   45.4599 H   0  0  0  0  0  0  0  0  0  0  0  0
   59.2392   35.5115   47.7839 H   0  0  0  0  0  0  0  0  0  0  0  0
   57.1244   31.9700   46.6954 H   0  0  0  0  0  0  0  0  0  0  0  0
  1  2  2  0
  2  3  1  0
  3  4  1  0
  4  5  1  0
  5  6  2  0
  6  7  1  0
  7  8  2  0
  8  9  1  0
  8 10  1  0
 10 11  2  0
  2 12  1  0
 12 13  1  0
 13 14  2  0
 14 15  1  0
 15 16  2  0
 16 17  1  0
 17 18  1  0
 17 19  2  0
 19 20  1  0
 20 21  1  0
 21 22  1  0
 22 23  1  0
 23 24  1  0
 24 25  2  0
 25 26  1  0
 26 27  2  0
 27 28  1  0
 28 29  2  0
 11  5  1  0
 19 13  1  0
 29 24  1  0
  4 30  1  0
  4 31  1  0
  6 32  1  0
  7 33  1  0
 10 34  1  0
 11 35  1  0
 14 36  1  0
 15 37  1  0
 16 38  1  0
 20 39  1  0
 20 40  1  0
 21 41  1  0
 22 42  1  0
 22 43  1  0
 23 44  1  0
 23 45  1  0
 25 46  1  0
 26 47  1  0
 27 48  1  0
 29 49  1  0
M  CHG  3   3  -1  12  -1  18  -1
M  END
>  <UniqueID>  (42) 
38

>  <SMILES>  (42) 
O=C([N-]Cc1ccc(F)cc1)[N-]c1cccc([O-])c1CNCCc1cccnc1

>  <Energy>  (42) 
55.87635922242863

>  <Genealogy>  (42) 
O=C([N-]Cc1ccc(F)cc1)[N-]c1cccc([O-])c1CNCCc1cccnc1 (protonated)
O=C([N-]Cc1ccc(F)cc1)[N-]c1cccc([O-])c1CNCCc1cccnc1 (3D coordinates assigned)
O=C([N-]Cc1ccc(F)cc1)[N-]c1cccc([O-])c1CNCCc1cccnc1 (optimized conformer: 55.87635922242863 kcal/mol)

>  <smiles>  (42) 
O=C(NCc1ccc(F)cc1)Nc1cccc(O)c1CNCCc1cccnc1

>  <score_type>  (42) 
oracle

>  <origin>  (42) 
adg

>  <m_score__min__energy>  (42) 
-14.109999999999999

>  <m_primary>  (42) 
energy

$$$$
42:0
     RDKit          3D

 53 55  0  0  0  0  0  0  0  0999 V2000
   59.5600   24.4090   45.8320 C   0  0  0  0  0  0  0  0  0  0  0  0
   58.5210   23.3660   46.2280 C   0  0  0  0  0  0  0  0  0  0  0  0
   57.6370   23.0170   45.0540 C   0  0  0  0  0  0  0  0  0  0  0  0
   58.1360   22.1830   44.0390 C   0  0  0  0  0  0  0  0  0  0  0  0
   57.3290   21.8220   42.9580 C   0  0  0  0  0  0  0  0  0  0  0  0
   56.0170   22.2880   42.8790 C   0  0  0  0  0  0  0  0  0  0  0  0
   55.5010   23.1060   43.8870 C   0  0  0  0  0  0  0  0  0  0  0  0
   56.2950   23.4600   44.9950 C   0  0  0  0  0  0  0  0  0  0  0  0
   55.7890   24.3170   46.0300 N   0  0  0  0  0  0  0  0  0  0  0  0
   55.7330   25.7490   46.0110 C   0  0  0  0  0  0  0  0  0  0  0  0
   54.6180   26.3400   45.9680 O   0  0  0  0  0  0  0  0  0  0  0  0
   56.9830   26.5380   46.0980 C   0  0  0  0  0  0  0  0  0  0  0  0
   57.6330   26.9820   44.9330 C   0  0  0  0  0  0  0  0  0  0  0  0
   58.8130   27.7280   45.0180 C   0  0  0  0  0  0  0  0  0  0  0  0
   59.3630   28.0490   46.2630 C   0  0  0  0  0  0  0  0  0  0  0  0
   60.5570   28.8430   46.3030 N   0  0  0  0  0  0  0  0  0  0  0  0
   60.6830   30.4180   47.0150 S   0  0  0  0  0  0  0  0  0  0  0  0
   60.4470   30.3230   48.4970 O   0  0  0  0  0  0  0  0  0  0  0  0
   62.0530   30.9890   46.7720 O   0  0  0  0  0  0  0  0  0  0  0  0
   59.4640   31.4710   46.2890 C   0  0  0  0  0  0  0  0  0  0  0  0
   58.3220   30.9040   45.7020 C   0  0  0  0  0  0  0  0  0  0  0  0
   57.3430   31.7110   45.1160 C   0  0  0  0  0  0  0  0  0  0  0  0
   56.2260   31.0880   44.5390 O   0  0  0  0  0  0  0  0  0  0  0  0
   56.2950   30.0080   43.6150 C   0  0  0  0  0  0  0  0  0  0  0  0
   57.5120   33.1080   45.1220 C   0  0  0  0  0  0  0  0  0  0  0  0
   58.6500   33.6800   45.6930 C   0  0  0  0  0  0  0  0  0  0  0  0
   59.6430   32.8680   46.2740 C   0  0  0  0  0  0  0  0  0  0  0  0
   60.8110   33.4160   46.8350 O   0  0  0  0  0  0  0  0  0  0  0  0
   60.9330   33.8490   48.1860 C   0  0  0  0  0  0  0  0  0  0  0  0
   58.7230   27.6030   47.4320 C   0  0  0  0  0  0  0  0  0  0  0  0
   57.5450   26.8530   47.3490 C   0  0  0  0  0  0  0  0  0  0  0  0
   60.0000   24.8507   46.7383 H   0  0  0  0  0  0  0  0  0  0  0  0
   60.3511   23.9306   45.2360 H   0  0  0  0  0  0  0  0  0  0  0  0
   59.0785   25.1983   45.2360 H   0  0  0  0  0  0  0  0  0  0  0  0
   59.0357   22.4577   46.5745 H   0  0  0  0  0  0  0  0  0  0  0  0
   57.8936   23.7804   47.0309 H   0  0  0  0  0  0  0  0  0  0  0  0
   59.1699   21.8118   44.0964 H   0  0  0  0  0  0  0  0  0  0  0  0
   57.7287   21.1693   42.1679 H   0  0  0  0  0  0  0  0  0  0  0  0
   55.3870   22.0108   42.0210 H   0  0  0  0  0  0  0  0  0  0  0  0
   54.4676   23.4761   43.8148 H   0  0  0  0  0  0  0  0  0  0  0  0
   57.2100   26.7407   43.9467 H   0  0  0  0  0  0  0  0  0  0  0  0
   59.3126   28.0651   44.0978 H   0  0  0  0  0  0  0  0  0  0  0  0
   58.1961   29.8112   45.7032 H   0  0  0  0  0  0  0  0  0  0  0  0
   56.3557   29.0577   44.1656 H   0  0  0  0  0  0  0  0  0  0  0  0
   55.3950   30.0085   42.9826 H   0  0  0  0  0  0  0  0  0  0  0  0
   57.1876   30.1230   42.9826 H   0  0  0  0  0  0  0  0  0  0  0  0
   56.7423   33.7535   44.6738 H   0  0  0  0  0  0  0  0  0  0  0  0
   58.7721   34.7732   45.6891 H   0  0  0  0  0  0  0  0  0  0  0  0
   60.6976   33.0134   48.8615 H   0  0  0  0  0  0  0  0  0  0  0  0
   61.9623   34.1905   48.3701 H   0  0  0  0  0  0  0  0  0  0  0  0
   60.2333   34.6776   48.3701 H   0  0  0  0  0  0  0  0  0  0  0  0
   59.1502   27.8447   48.4164 H   0  0  0  0  0  0  0  0  0  0  0  0
   57.0536   26.5064   48.2701 H   0  0  0  0  0  0  0  0  0  0  0  0
  1  2  1  0
  2  3  1  0
  3  4  2  0
  4  5  1  0
  5  6  2  0
  6  7  1  0
  7  8  2  0
  8  9  1  0
  9 10  1  0
 10 11  2  0
 10 12  1  0
 12 13  2  0
 13 14  1  0
 14 15  2  0
 15 16  1  0
 16 17  1  0
 17 18  2  0
 17 19  2  0
 17 20  1  0
 20 21  2  0
 21 22  1  0
 22 23  1  0
 23 24  1  0
 22 25  2  0
 25 26  1  0
 26 27  2  0
 27 28  1  0
 28 29  1  0
 15 30  1  0
 30 31  2  0
  8  3  1  0
 31 12  1  0
 27 20  1  0
  1 32  1  0
  1 33  1  0
  1 34  1  0
  2 35  1  0
  2 36  1  0
  4 37  1  0
  5 38  1  0
  6 39  1  0
  7 40  1  0
 13 41  1  0
 14 42  1  0
 21 43  1  0
 24 44  1  0
 24 45  1  0
 24 46  1  0
 25 47  1  0
 26 48  1  0
 29 49  1  0
 29 50  1  0
 29 51  1  0
 30 52  1  0
 31 53  1  0
M  CHG  2   9  -1  16  -1
M  END
>  <UniqueID>  (43) 
39

>  <SMILES>  (43) 
CCc1ccccc1[N-]C(=O)c1ccc([N-]S(=O)(=O)c2cc(OC)ccc2OC)cc1

>  <Energy>  (43) 
60.71092535864828

>  <Genealogy>  (43) 
CCc1ccccc1[N-]C(=O)c1ccc([N-]S(=O)(=O)c2cc(OC)ccc2OC)cc1 (protonated)
CCc1ccccc1[N-]C(=O)c1ccc([N-]S(=O)(=O)c2cc(OC)ccc2OC)cc1 (3D coordinates assigned)
CCc1ccccc1[N-]C(=O)c1ccc([N-]S(=O)(=O)c2cc(OC)ccc2OC)cc1 (optimized conformer: 60.71092535864828 kcal/mol)

>  <smiles>  (43) 
CCc1ccccc1NC(=O)c1ccc(NS(=O)(=O)c2cc(OC)ccc2OC)cc1

>  <score_type>  (43) 
oracle

>  <origin>  (43) 
adg

>  <m_score__min__energy>  (43) 
-10.609999999999999

>  <m_primary>  (43) 
energy

$$$$
43:0
     RDKit          3D

 55 58  0  0  0  0  0  0  0  0999 V2000
   59.5470   34.5520   54.6040 C   0  0  0  0  0  0  0  0  0  0  0  0
   58.5340   33.9300   53.7360 N   0  0  0  0  0  0  0  0  0  0  0  0
   58.5790   34.4950   52.3640 C   0  0  0  0  0  0  0  0  0  0  0  0
   59.3280   33.6000   51.3640 C   0  0  0  0  0  0  0  0  0  0  0  0
   58.7620   32.2440   51.3650 N   0  0  0  0  0  0  0  0  0  0  0  0
   58.8850   31.3800   50.2150 C   0  0  0  0  0  0  0  0  0  0  0  0
   58.8560   29.9830   50.3470 C   0  0  0  0  0  0  0  0  0  0  0  0
   58.9320   29.1810   49.2090 C   0  0  0  0  0  0  0  0  0  0  0  0
   59.0510   29.7630   47.9360 C   0  0  0  0  0  0  0  0  0  0  0  0
   59.0800   28.9510   46.7390 N   0  0  0  0  0  0  0  0  0  0  0  0
   59.6380   29.4950   45.4960 C   0  0  0  0  0  0  0  0  0  0  0  0
   59.0720   28.7730   44.2560 C   0  0  0  0  0  0  0  0  0  0  0  0
   57.6430   28.4120   44.3920 N   0  0  0  0  0  0  0  0  0  0  0  0
   56.5750   29.7360   43.9790 S   0  0  0  0  0  0  0  0  0  0  0  0
   56.1270   29.5860   42.5520 O   0  0  0  0  0  0  0  0  0  0  0  0
   55.3560   29.6900   44.8580 O   0  0  0  0  0  0  0  0  0  0  0  0
   57.3460   31.3030   44.1640 C   0  0  0  0  0  0  0  0  0  0  0  0
   57.3930   32.0500   45.3190 C   0  0  0  0  0  0  0  0  0  0  0  0
   58.0700   33.1760   45.0390 N   0  0  0  0  0  0  0  0  0  0  0  0
   58.3550   34.2830   45.9430 C   0  0  0  0  0  0  0  0  0  0  0  0
   58.4050   33.0960   43.7370 C   0  0  0  0  0  0  0  0  0  0  0  0
   57.9710   31.9540   43.1610 N   0  0  0  0  0  0  0  0  0  0  0  0
   57.2580   27.7480   45.6640 C   0  0  0  0  0  0  0  0  0  0  0  0
   58.4110   27.6520   46.6680 C   0  0  0  0  0  0  0  0  0  0  0  0
   59.0800   31.1630   47.8500 C   0  0  0  0  0  0  0  0  0  0  0  0
   58.9950   31.9240   48.9720 N   0  0  0  0  0  0  0  0  0  0  0  0
   58.0530   31.7720   52.5600 C   0  0  0  0  0  0  0  0  0  0  0  0
   58.6330   32.4520   53.8040 C   0  0  0  0  0  0  0  0  0  0  0  0
   59.2782   34.3869   55.6578 H   0  0  0  0  0  0  0  0  0  0  0  0
   60.5299   34.1016   54.4014 H   0  0  0  0  0  0  0  0  0  0  0  0
   59.5900   35.6323   54.4014 H   0  0  0  0  0  0  0  0  0  0  0  0
   57.5471   34.6298   52.0076 H   0  0  0  0  0  0  0  0  0  0  0  0
   59.1247   35.4484   52.4212 H   0  0  0  0  0  0  0  0  0  0  0  0
   59.2378   34.0295   50.3553 H   0  0  0  0  0  0  0  0  0  0  0  0
   60.3864   33.5446   51.6585 H   0  0  0  0  0  0  0  0  0  0  0  0
   58.7738   29.5233   51.3429 H   0  0  0  0  0  0  0  0  0  0  0  0
   58.8986   28.0860   49.3086 H   0  0  0  0  0  0  0  0  0  0  0  0
   59.3891   30.5645   45.4310 H   0  0  0  0  0  0  0  0  0  0  0  0
   60.7277   29.3457   45.5136 H   0  0  0  0  0  0  0  0  0  0  0  0
   59.1837   29.4352   43.3848 H   0  0  0  0  0  0  0  0  0  0  0  0
   59.6357   27.8358   44.1383 H   0  0  0  0  0  0  0  0  0  0  0  0
   56.9571   31.7759   46.2910 H   0  0  0  0  0  0  0  0  0  0  0  0
   58.2663   33.9385   46.9839 H   0  0  0  0  0  0  0  0  0  0  0  0
   59.3767   34.6491   45.7637 H   0  0  0  0  0  0  0  0  0  0  0  0
   57.6371   35.0969   45.7637 H   0  0  0  0  0  0  0  0  0  0  0  0
   58.9693   33.8742   43.2022 H   0  0  0  0  0  0  0  0  0  0  0  0
   56.4404   28.3221   46.1245 H   0  0  0  0  0  0  0  0  0  0  0  0
   56.9534   26.7203   45.4170 H   0  0  0  0  0  0  0  0  0  0  0  0
   58.0172   27.3837   47.6594 H   0  0  0  0  0  0  0  0  0  0  0  0
   59.1250   26.8796   46.3462 H   0  0  0  0  0  0  0  0  0  0  0  0
   59.1722   31.6479   46.8670 H   0  0  0  0  0  0  0  0  0  0  0  0
   56.9845   32.0183   52.4728 H   0  0  0  0  0  0  0  0  0  0  0  0
   58.1737   30.6823   52.6497 H   0  0  0  0  0  0  0  0  0  0  0  0
   58.0813   32.1010   54.6885 H   0  0  0  0  0  0  0  0  0  0  0  0
   59.6993   32.1889   53.8647 H   0  0  0  0  0  0  0  0  0  0  0  0
  1  2  1  0
  2  3  1  0
  3  4  1  0
  4  5  1  0
  5  6  1  0
  6  7  2  0
  7  8  1  0
  8  9  2  0
  9 10  1  0
 10 11  1  0
 11 12  1  0
 12 13  1  0
 13 14  1  0
 14 15  2  0
 14 16  2  0
 14 17  1  0
 17 18  2  0
 18 19  1  0
 19 20  1  0
 19 21  1  0
 21 22  2  0
 13 23  1  0
 23 24  1  0
  9 25  1  0
 25 26  2  0
  5 27  1  0
 27 28  1  0
 28  2  1  0
 26  6  1  0
 24 10  1  0
 22 17  1  0
  1 29  1  0
  1 30  1  0
  1 31  1  0
  3 32  1  0
  3 33  1  0
  4 34  1  0
  4 35  1  0
  7 36  1  0
  8 37  1  0
 11 38  1  0
 11 39  1  0
 12 40  1  0
 12 41  1  0
 18 42  1  0
 20 43  1  0
 20 44  1  0
 20 45  1  0
 21 46  1  0
 23 47  1  0
 23 48  1  0
 24 49  1  0
 24 50  1  0
 25 51  1  0
 27 52  1  0
 27 53  1  0
 28 54  1  0
 28 55  1  0
M  END
>  <UniqueID>  (44) 
40

>  <SMILES>  (44) 
CN1CCN(c2ccc(N3CCN(S(=O)(=O)c4cn(C)cn4)CC3)cn2)CC1

>  <Energy>  (44) 
101.72359864786414

>  <Genealogy>  (44) 
CN1CCN(c2ccc(N3CCN(S(=O)(=O)c4cn(C)cn4)CC3)cn2)CC1 (3D coordinates assigned)
CN1CCN(c2ccc(N3CCN(S(=O)(=O)c4cn(C)cn4)CC3)cn2)CC1 (nonaromatic ring conformer: 101.72359864786414 kcal/mol)

>  <smiles>  (44) 
CN1CCN(c2ccc(N3CCN(S(=O)(=O)c4cn(C)cn4)CC3)cn2)CC1

>  <score_type>  (44) 
oracle

>  <origin>  (44) 
adg

>  <m_score__min__energy>  (44) 
-7.96

>  <m_primary>  (44) 
energy

$$$$
44:0
     RDKit          3D

 45 47  0  0  0  0  0  0  0  0999 V2000
   62.6530   32.0270   49.4610 C   0  0  0  0  0  0  0  0  0  0  0  0
   62.2040   32.0100   47.9830 C   0  0  0  0  0  0  0  0  0  0  0  0
   63.4000   31.5760   47.1190 C   0  0  0  0  0  0  0  0  0  0  0  0
   61.0570   31.0260   47.7900 C   0  0  0  0  0  0  0  0  0  0  0  0
   60.4090   30.6080   48.7910 O   0  0  0  0  0  0  0  0  0  0  0  0
   60.7390   30.5120   46.4850 N   0  0  0  0  0  0  0  0  0  0  0  0
   59.6760   29.5700   46.2630 C   0  0  0  0  0  0  0  0  0  0  0  0
   59.7350   28.3360   46.9260 C   0  0  0  0  0  0  0  0  0  0  0  0
   58.7200   27.3930   46.7730 C   0  0  0  0  0  0  0  0  0  0  0  0
   57.6330   27.6610   45.9420 C   0  0  0  0  0  0  0  0  0  0  0  0
   57.5620   28.8720   45.2400 C   0  0  0  0  0  0  0  0  0  0  0  0
   56.4790   29.1240   44.3830 C   0  0  0  0  0  0  0  0  0  0  0  0
   56.4190   30.3130   43.6560 C   0  0  0  0  0  0  0  0  0  0  0  0
   57.4410   31.2570   43.7710 C   0  0  0  0  0  0  0  0  0  0  0  0
   58.5220   31.0230   44.6240 C   0  0  0  0  0  0  0  0  0  0  0  0
   58.5930   29.8390   45.3860 C   0  0  0  0  0  0  0  0  0  0  0  0
   61.6840   33.6920   47.5430 S   0  0  0  0  0  0  0  0  0  0  0  0
   61.8270   34.5740   48.7520 O   0  0  0  0  0  0  0  0  0  0  0  0
   62.6080   34.2250   46.4830 O   0  0  0  0  0  0  0  0  0  0  0  0
   60.0310   33.7770   46.8890 C   0  0  0  0  0  0  0  0  0  0  0  0
   59.8760   34.1930   45.5550 C   0  0  0  0  0  0  0  0  0  0  0  0
   58.6100   34.2700   44.9740 C   0  0  0  0  0  0  0  0  0  0  0  0
   57.4770   33.9450   45.7170 C   0  0  0  0  0  0  0  0  0  0  0  0
   57.6070   33.5480   47.0490 C   0  0  0  0  0  0  0  0  0  0  0  0
   58.8730   33.4670   47.6480 C   0  0  0  0  0  0  0  0  0  0  0  0
   58.9340   33.0760   49.0340 C   0  0  0  0  0  0  0  0  0  0  0  0
   58.9820   32.7480   50.1420 N   0  0  0  0  0  0  0  0  0  0  0  0
   61.7680   31.9935   50.1135 H   0  0  0  0  0  0  0  0  0  0  0  0
   63.2893   31.1523   49.6610 H   0  0  0  0  0  0  0  0  0  0  0  0
   63.2214   32.9473   49.6610 H   0  0  0  0  0  0  0  0  0  0  0  0
   64.2328   31.2738   47.7710 H   0  0  0  0  0  0  0  0  0  0  0  0
   63.1049   30.7276   46.4840 H   0  0  0  0  0  0  0  0  0  0  0  0
   63.7177   32.4162   46.4840 H   0  0  0  0  0  0  0  0  0  0  0  0
   61.4510   30.6080   45.7290 H   0  0  0  0  0  0  0  0  0  0  0  0
   60.5934   28.1091   47.5753 H   0  0  0  0  0  0  0  0  0  0  0  0
   58.7768   26.4344   47.3095 H   0  0  0  0  0  0  0  0  0  0  0  0
   56.8278   26.9189   45.8369 H   0  0  0  0  0  0  0  0  0  0  0  0
   55.6742   28.3806   44.2844 H   0  0  0  0  0  0  0  0  0  0  0  0
   55.5647   30.5072   42.9908 H   0  0  0  0  0  0  0  0  0  0  0  0
   57.3948   32.1885   43.1877 H   0  0  0  0  0  0  0  0  0  0  0  0
   59.3258   31.7699   44.7020 H   0  0  0  0  0  0  0  0  0  0  0  0
   60.7632   34.4609   44.9625 H   0  0  0  0  0  0  0  0  0  0  0  0
   58.5059   34.5882   43.9262 H   0  0  0  0  0  0  0  0  0  0  0  0
   56.4807   34.0012   45.2543 H   0  0  0  0  0  0  0  0  0  0  0  0
   56.7097   33.2967   47.6335 H   0  0  0  0  0  0  0  0  0  0  0  0
  1  2  1  0
  2  3  1  0
  2  4  1  0
  4  5  2  0
  4  6  1  0
  6  7  1  0
  7  8  2  0
  8  9  1  0
  9 10  2  0
 10 11  1  0
 11 12  2  0
 12 13  1  0
 13 14  2  0
 14 15  1  0
 15 16  2  0
  2 17  1  0
 17 18  2  0
 17 19  2  0
 17 20  1  0
 20 21  2  0
 21 22  1  0
 22 23  2  0
 23 24  1  0
 24 25  2  0
 25 26  1  0
 26 27  3  0
 16  7  1  0
 25 20  1  0
 16 11  1  0
  1 28  1  0
  1 29  1  0
  1 30  1  0
  3 31  1  0
  3 32  1  0
  3 33  1  0
  6 34  1  0
  8 35  1  0
  9 36  1  0
 10 37  1  0
 12 38  1  0
 13 39  1  0
 14 40  1  0
 15 41  1  0
 21 42  1  0
 22 43  1  0
 23 44  1  0
 24 45  1  0
M  END
>  <UniqueID>  (45) 
41

>  <SMILES>  (45) 
CC(C)(C(=O)Nc1cccc2ccccc12)S(=O)(=O)c1ccccc1C#N

>  <Energy>  (45) 
54.58566160249835

>  <Genealogy>  (45) 
CC(C)(C(=O)Nc1cccc2ccccc12)S(=O)(=O)c1ccccc1C#N (3D coordinates assigned)
CC(C)(C(=O)Nc1cccc2ccccc12)S(=O)(=O)c1ccccc1C#N (optimized conformer: 54.58566160249835 kcal/mol)

>  <smiles>  (45) 
CC(C)(C(=O)Nc1cccc2ccccc12)S(=O)(=O)c1ccccc1C#N

>  <score_type>  (45) 
oracle

>  <origin>  (45) 
adg

>  <m_score__min__energy>  (45) 
-9.3399999999999999

>  <m_primary>  (45) 
energy

$$$$
45:0
     RDKit          3D

 45 47  0  0  0  0  0  0  0  0999 V2000
   55.1650   29.3440   44.8440 N   0  0  0  0  0  0  0  0  0  0  0  0
   56.6270   30.0900   44.3020 S   0  0  0  0  0  0  0  0  0  0  0  0
   56.5580   31.5710   44.5490 O   0  0  0  0  0  0  0  0  0  0  0  0
   56.7910   29.8530   42.8270 O   0  0  0  0  0  0  0  0  0  0  0  0
   57.9940   29.4060   45.1750 C   0  0  0  0  0  0  0  0  0  0  0  0
   58.3910   28.0830   44.9410 C   0  0  0  0  0  0  0  0  0  0  0  0
   59.4590   27.5350   45.6560 C   0  0  0  0  0  0  0  0  0  0  0  0
   60.1370   28.3040   46.6060 C   0  0  0  0  0  0  0  0  0  0  0  0
   59.7610   29.6350   46.8390 C   0  0  0  0  0  0  0  0  0  0  0  0
   60.4580   30.3980   47.8400 N   0  0  0  0  0  0  0  0  0  0  0  0
   60.2700   30.2220   49.2560 C   0  0  0  0  0  0  0  0  0  0  0  0
   59.2860   29.5630   49.6900 O   0  0  0  0  0  0  0  0  0  0  0  0
   61.2030   30.8770   50.2450 C   0  0  1  0  0  0  0  0  0  0  0  0
   61.0620   30.2630   51.6560 C   0  0  0  0  0  0  0  0  0  0  0  0
   62.3240   30.4670   52.5140 C   0  0  0  0  0  0  0  0  0  0  0  0
   63.1200   31.6930   52.0540 C   0  0  0  0  0  0  0  0  0  0  0  0
   63.5970   31.5410   50.6620 N   0  0  0  0  0  0  0  0  0  0  0  0
   64.0400   33.0970   50.0000 S   0  0  0  0  0  0  0  0  0  0  0  0
   63.8700   34.1620   51.0480 O   0  0  0  0  0  0  0  0  0  0  0  0
   65.4850   33.0690   49.5860 O   0  0  0  0  0  0  0  0  0  0  0  0
   63.0530   33.5020   48.6060 C   0  0  0  0  0  0  0  0  0  0  0  0
   63.4770   33.4920   47.2830 C   0  0  0  0  0  0  0  0  0  0  0  0
   62.4590   33.8210   46.3810 C   0  0  0  0  0  0  0  0  0  0  0  0
   61.2460   34.0900   46.9990 C   0  0  0  0  0  0  0  0  0  0  0  0
   59.6260   34.5660   46.1150 Br  0  0  0  0  0  0  0  0  0  0  0  0
   61.4240   33.9180   48.6620 S   0  0  0  0  0  0  0  0  0  0  0  0
   62.6660   30.8150   49.7610 C   0  0  0  0  0  0  0  0  0  0  0  0
   58.6700   30.1750   46.1320 C   0  0  0  0  0  0  0  0  0  0  0  0
   55.1850   28.3550   44.5060 H   0  0  0  0  0  0  0  0  0  0  0  0
   57.8611   27.4747   44.1932 H   0  0  0  0  0  0  0  0  0  0  0  0
   59.7671   26.4954   45.4707 H   0  0  0  0  0  0  0  0  0  0  0  0
   60.9696   27.8631   47.1738 H   0  0  0  0  0  0  0  0  0  0  0  0
   61.0800   31.1700   47.5160 H   0  0  0  0  0  0  0  0  0  0  0  0
   60.9125   31.9358   50.3131 H   0  0  0  0  0  0  0  0  0  0  0  0
   60.2092   30.7371   52.1639 H   0  0  0  0  0  0  0  0  0  0  0  0
   60.9091   29.1802   51.5367 H   0  0  0  0  0  0  0  0  0  0  0  0
   62.0248   30.6075   53.5632 H   0  0  0  0  0  0  0  0  0  0  0  0
   62.9634   29.5784   52.4064 H   0  0  0  0  0  0  0  0  0  0  0  0
   62.4744   32.5815   52.1152 H   0  0  0  0  0  0  0  0  0  0  0  0
   63.9974   31.7994   52.7089 H   0  0  0  0  0  0  0  0  0  0  0  0
   64.5055   33.2507   46.9766 H   0  0  0  0  0  0  0  0  0  0  0  0
   62.6056   33.8622   45.2916 H   0  0  0  0  0  0  0  0  0  0  0  0
   62.7247   31.2635   48.7583 H   0  0  0  0  0  0  0  0  0  0  0  0
   62.9690   29.7576   49.7509 H   0  0  0  0  0  0  0  0  0  0  0  0
   58.3460   31.2070   46.3319 H   0  0  0  0  0  0  0  0  0  0  0  0
  1  2  1  0
  2  3  2  0
  2  4  2  0
  2  5  1  0
  5  6  2  0
  6  7  1  0
  7  8  2  0
  8  9  1  0
  9 10  1  0
 10 11  1  0
 11 12  2  0
 11 13  1  0
 13 14  1  0
 14 15  1  0
 15 16  1  0
 16 17  1  0
 17 18  1  0
 18 19  2  0
 18 20  2  0
 18 21  1  0
 21 22  2  0
 22 23  1  0
 23 24  2  0
 24 25  1  0
 24 26  1  0
 17 27  1  0
  9 28  2  0
 28  5  1  0
 27 13  1  0
 26 21  1  0
  1 29  1  0
  6 30  1  0
  7 31  1  0
  8 32  1  0
 10 33  1  0
 13 34  1  1
 14 35  1  0
 14 36  1  0
 15 37  1  0
 15 38  1  0
 16 39  1  0
 16 40  1  0
 22 41  1  0
 23 42  1  0
 27 43  1  0
 27 44  1  0
 28 45  1  0
M  CHG  1   1  -1
M  END
>  <UniqueID>  (46) 
42

>  <SMILES>  (46) 
[NH-]S(=O)(=O)c1cccc(NC(=O)[C@H]2CCCN(S(=O)(=O)c3ccc(Br)s3)C2)c1

>  <Energy>  (46) 
79.8100819402616

>  <Genealogy>  (46) 
[NH-]S(=O)(=O)c1cccc(NC(=O)C2CCCN(S(=O)(=O)c3ccc(Br)s3)C2)c1 (protonated)
[NH-]S(=O)(=O)c1cccc(NC(=O)[C@H]2CCCN(S(=O)(=O)c3ccc(Br)s3)C2)c1 (chirality)
[NH-]S(=O)(=O)c1cccc(NC(=O)[C@H]2CCCN(S(=O)(=O)c3ccc(Br)s3)C2)c1 (3D coordinates assigned)
[NH-]S(=O)(=O)c1cccc(NC(=O)[C@H]2CCCN(S(=O)(=O)c3ccc(Br)s3)C2)c1 (nonaromatic ring conformer: 79.8100819402616 kcal/mol)

>  <smiles>  (46) 
NS(=O)(=O)c1cccc(NC(=O)C2CCCN(S(=O)(=O)c3ccc(Br)s3)C2)c1

>  <score_type>  (46) 
oracle

>  <origin>  (46) 
adg

>  <m_score__min__energy>  (46) 
-12.890000000000001

>  <m_primary>  (46) 
energy

$$$$
46:0
     RDKit          3D

 48 50  0  0  0  0  0  0  0  0999 V2000
   51.2720   32.2860   51.2420 N   0  0  0  0  0  0  0  0  0  0  0  0
   51.6940   30.6160   51.4070 S   0  0  0  0  0  0  0  0  0  0  0  0
   50.6470   29.9080   52.2200 O   0  0  0  0  0  0  0  0  0  0  0  0
   51.7570   29.9820   50.0460 O   0  0  0  0  0  0  0  0  0  0  0  0
   53.2570   30.4840   52.2080 C   0  0  0  0  0  0  0  0  0  0  0  0
   53.3270   30.4710   53.6050 C   0  0  0  0  0  0  0  0  0  0  0  0
   54.5680   30.4140   54.2460 C   0  0  0  0  0  0  0  0  0  0  0  0
   55.7440   30.3680   53.4920 C   0  0  0  0  0  0  0  0  0  0  0  0
   55.6880   30.3610   52.0930 C   0  0  0  0  0  0  0  0  0  0  0  0
   56.9150   30.3410   51.3550 N   0  0  0  0  0  0  0  0  0  0  0  0
   57.6260   31.4870   50.8680 C   0  0  0  0  0  0  0  0  0  0  0  0
   57.3770   32.6380   51.3160 O   0  0  0  0  0  0  0  0  0  0  0  0
   58.6680   31.3200   49.8070 C   0  0  0  0  0  0  0  0  0  0  0  0
   58.6020   29.9860   49.2160 N   0  0  0  0  0  0  0  0  0  0  0  0
   59.1730   29.6080   47.9560 C   0  0  0  0  0  0  0  0  0  0  0  0
   60.2560   30.1370   47.5940 O   0  0  0  0  0  0  0  0  0  0  0  0
   58.5120   28.6440   47.0540 C   0  0  0  0  0  0  0  0  0  0  0  0
   58.2000   27.3580   47.5210 C   0  0  0  0  0  0  0  0  0  0  0  0
   57.5980   26.4270   46.6750 C   0  0  0  0  0  0  0  0  0  0  0  0
   57.3080   26.7690   45.3530 C   0  0  0  0  0  0  0  0  0  0  0  0
   57.6340   28.0390   44.8680 C   0  0  0  0  0  0  0  0  0  0  0  0
   58.2610   28.9800   45.7070 C   0  0  0  0  0  0  0  0  0  0  0  0
   58.5900   30.2970   45.2350 N   0  0  0  0  0  0  0  0  0  0  0  0
   57.7380   31.4500   45.2560 C   0  0  0  0  0  0  0  0  0  0  0  0
   56.5490   31.3650   44.8440 O   0  0  0  0  0  0  0  0  0  0  0  0
   58.2730   32.7560   45.7060 C   0  0  0  0  0  0  0  0  0  0  0  0
   58.3880   33.0450   47.0790 C   0  0  0  0  0  0  0  0  0  0  0  0
   58.9030   34.2740   47.5030 C   0  0  0  0  0  0  0  0  0  0  0  0
   59.3060   35.2260   46.5670 C   0  0  0  0  0  0  0  0  0  0  0  0
   59.1970   34.9510   45.2030 C   0  0  0  0  0  0  0  0  0  0  0  0
   58.6840   33.7270   44.7700 C   0  0  0  0  0  0  0  0  0  0  0  0
   54.4380   30.4380   51.4530 C   0  0  0  0  0  0  0  0  0  0  0  0
   50.2920   32.3170   50.8760 H   0  0  0  0  0  0  0  0  0  0  0  0
   52.4030   30.5057   54.2008 H   0  0  0  0  0  0  0  0  0  0  0  0
   54.6191   30.4053   55.3448 H   0  0  0  0  0  0  0  0  0  0  0  0
   56.7189   30.3371   54.0005 H   0  0  0  0  0  0  0  0  0  0  0  0
   58.5041   32.0709   49.0201 H   0  0  0  0  0  0  0  0  0  0  0  0
   59.6595   31.4526   50.2646 H   0  0  0  0  0  0  0  0  0  0  0  0
   58.4316   27.0827   48.5605 H   0  0  0  0  0  0  0  0  0  0  0  0
   57.3515   25.4226   47.0496 H   0  0  0  0  0  0  0  0  0  0  0  0
   56.8217   26.0373   44.6911 H   0  0  0  0  0  0  0  0  0  0  0  0
   57.3997   28.3043   43.8265 H   0  0  0  0  0  0  0  0  0  0  0  0
   58.0708   32.2994   47.8229 H   0  0  0  0  0  0  0  0  0  0  0  0
   58.9905   34.4905   48.5779 H   0  0  0  0  0  0  0  0  0  0  0  0
   59.7093   36.1925   46.9033 H   0  0  0  0  0  0  0  0  0  0  0  0
   59.5168   35.7022   44.4658 H   0  0  0  0  0  0  0  0  0  0  0  0
   58.6000   33.5190   43.6931 H   0  0  0  0  0  0  0  0  0  0  0  0
   54.3864   30.4623   50.3545 H   0  0  0  0  0  0  0  0  0  0  0  0
  1  2  1  0
  2  3  2  0
  2  4  2  0
  2  5  1  0
  5  6  2  0
  6  7  1  0
  7  8  2  0
  8  9  1  0
  9 10  1  0
 10 11  1  0
 11 12  2  0
 11 13  1  0
 13 14  1  0
 14 15  1  0
 15 16  2  0
 15 17  1  0
 17 18  2  0
 18 19  1  0
 19 20  2  0
 20 21  1  0
 21 22  2  0
 22 23  1  0
 23 24  1  0
 24 25  2  0
 24 26  1  0
 26 27  2  0
 27 28  1  0
 28 29  2  0
 29 30  1  0
 30 31  2  0
  9 32  2  0
 32  5  1  0
 22 17  1  0
 31 26  1  0
  1 33  1  0
  6 34  1  0
  7 35  1  0
  8 36  1  0
 13 37  1  0
 13 38  1  0
 18 39  1  0
 19 40  1  0
 20 41  1  0
 21 42  1  0
 27 43  1  0
 28 44  1  0
 29 45  1  0
 30 46  1  0
 31 47  1  0
 32 48  1  0
M  CHG  4   1  -1  10  -1  14  -1  23  -1
M  END
>  <UniqueID>  (47) 
43

>  <SMILES>  (47) 
[NH-]S(=O)(=O)c1cccc([N-]C(=O)C[N-]C(=O)c2ccccc2[N-]C(=O)c2ccccc2)c1

>  <Energy>  (47) 
63.08206032640138

>  <Genealogy>  (47) 
[NH-]S(=O)(=O)c1cccc([N-]C(=O)C[N-]C(=O)c2ccccc2[N-]C(=O)c2ccccc2)c1 (protonated)
[NH-]S(=O)(=O)c1cccc([N-]C(=O)C[N-]C(=O)c2ccccc2[N-]C(=O)c2ccccc2)c1 (3D coordinates assigned)
[NH-]S(=O)(=O)c1cccc([N-]C(=O)C[N-]C(=O)c2ccccc2[N-]C(=O)c2ccccc2)c1 (optimized conformer: 63.08206032640138 kcal/mol)

>  <smiles>  (47) 
NS(=O)(=O)c1cccc(NC(=O)CNC(=O)c2ccccc2NC(=O)c2ccccc2)c1

>  <score_type>  (47) 
oracle

>  <origin>  (47) 
adg

>  <m_score__min__energy>  (47) 
-15.4

>  <m_primary>  (47) 
energy

$$$$
47:0
     RDKit          3D

 48 50  0  0  0  0  0  0  0  0999 V2000
   50.2410   32.7700   52.7720 C   0  0  0  0  0  0  0  0  0  0  0  0
   51.0280   32.7190   51.5470 N   0  0  0  0  0  0  0  0  0  0  0  0
   51.6040   31.5280   50.9930 C   0  0  0  0  0  0  0  0  0  0  0  0
   51.2130   31.1370   49.8630 O   0  0  0  0  0  0  0  0  0  0  0  0
   52.6660   30.7720   51.6860 C   0  0  0  0  0  0  0  0  0  0  0  0
   52.4280   29.4800   52.1750 C   0  0  0  0  0  0  0  0  0  0  0  0
   53.4590   28.7840   52.8090 C   0  0  0  0  0  0  0  0  0  0  0  0
   54.6850   29.3530   52.9380 N   0  0  0  0  0  0  0  0  0  0  0  0
   54.9520   30.6020   52.4640 C   0  0  0  0  0  0  0  0  0  0  0  0
   56.2330   31.1600   52.5800 O   0  0  0  0  0  0  0  0  0  0  0  0
   57.2790   30.9340   51.6760 C   0  0  0  0  0  0  0  0  0  0  0  0
   57.9460   29.7010   51.6100 C   0  0  0  0  0  0  0  0  0  0  0  0
   58.9470   29.4940   50.6610 C   0  0  0  0  0  0  0  0  0  0  0  0
   59.2850   30.5060   49.7540 C   0  0  0  0  0  0  0  0  0  0  0  0
   60.1860   30.1910   48.6830 N   0  0  0  0  0  0  0  0  0  0  0  0
   59.8690   29.3070   47.5970 C   0  0  0  0  0  0  0  0  0  0  0  0
   60.7480   28.5090   47.1830 O   0  0  0  0  0  0  0  0  0  0  0  0
   58.5860   29.3300   46.9560 N   0  0  0  0  0  0  0  0  0  0  0  0
   58.2260   30.2280   45.9000 C   0  0  0  0  0  0  0  0  0  0  0  0
   57.7920   29.7420   44.6570 C   0  0  0  0  0  0  0  0  0  0  0  0
   57.4050   30.6310   43.6530 C   0  0  0  0  0  0  0  0  0  0  0  0
   57.4440   32.0080   43.8810 C   0  0  0  0  0  0  0  0  0  0  0  0
   57.8660   32.5110   45.1240 C   0  0  0  0  0  0  0  0  0  0  0  0
   57.9280   33.9970   45.3680 C   0  0  0  0  0  0  0  0  0  0  0  0
   56.8640   34.6400   44.7580 F   0  0  0  0  0  0  0  0  0  0  0  0
   57.8750   34.2680   46.7250 F   0  0  0  0  0  0  0  0  0  0  0  0
   59.1110   34.4940   44.8550 F   0  0  0  0  0  0  0  0  0  0  0  0
   58.2980   31.6090   46.1150 C   0  0  0  0  0  0  0  0  0  0  0  0
   58.6950   31.7860   49.8870 C   0  0  0  0  0  0  0  0  0  0  0  0
   59.0920   32.9390   49.0050 C   0  0  0  0  0  0  0  0  0  0  0  0
   57.6840   31.9790   50.8410 C   0  0  0  0  0  0  0  0  0  0  0  0
   53.9480   31.3250   51.8140 C   0  0  0  0  0  0  0  0  0  0  0  0
   50.9131   32.7264   53.6417 H   0  0  0  0  0  0  0  0  0  0  0  0
   49.6659   33.7073   52.7996 H   0  0  0  0  0  0  0  0  0  0  0  0
   49.5498   31.9148   52.7996 H   0  0  0  0  0  0  0  0  0  0  0  0
   51.4364   29.0180   52.0601 H   0  0  0  0  0  0  0  0  0  0  0  0
   53.2778   27.7736   53.2044 H   0  0  0  0  0  0  0  0  0  0  0  0
   57.6784   28.8950   52.3091 H   0  0  0  0  0  0  0  0  0  0  0  0
   59.4744   28.5294   50.6248 H   0  0  0  0  0  0  0  0  0  0  0  0
   57.7567   28.6580   44.4736 H   0  0  0  0  0  0  0  0  0  0  0  0
   57.0683   30.2457   42.6793 H   0  0  0  0  0  0  0  0  0  0  0  0
   57.1428   32.7031   43.0835 H   0  0  0  0  0  0  0  0  0  0  0  0
   58.6954   31.9929   47.0661 H   0  0  0  0  0  0  0  0  0  0  0  0
   59.3866   33.7946   49.6304 H   0  0  0  0  0  0  0  0  0  0  0  0
   59.9390   32.6402   48.3700 H   0  0  0  0  0  0  0  0  0  0  0  0
   58.2406   33.2250   48.3700 H   0  0  0  0  0  0  0  0  0  0  0  0
   57.2045   32.9647   50.9327 H   0  0  0  0  0  0  0  0  0  0  0  0
   54.1626   32.3232   51.4047 H   0  0  0  0  0  0  0  0  0  0  0  0
  1  2  1  0
  2  3  1  0
  3  4  2  0
  3  5  1  0
  5  6  2  0
  6  7  1  0
  7  8  2  0
  8  9  1  0
  9 10  1  0
 10 11  1  0
 11 12  2  0
 12 13  1  0
 13 14  2  0
 14 15  1  0
 15 16  1  0
 16 17  2  0
 16 18  1  0
 18 19  1  0
 19 20  2  0
 20 21  1  0
 21 22  2  0
 22 23  1  0
 23 24  1  0
 24 25  1  0
 24 26  1  0
 24 27  1  0
 23 28  2  0
 14 29  1  0
 29 30  1  0
 29 31  2  0
  9 32  2  0
 32  5  1  0
 31 11  1  0
 28 19  1  0
  1 33  1  0
  1 34  1  0
  1 35  1  0
  6 36  1  0
  7 37  1  0
 12 38  1  0
 13 39  1  0
 20 40  1  0
 21 41  1  0
 22 42  1  0
 28 43  1  0
 30 44  1  0
 30 45  1  0
 30 46  1  0
 31 47  1  0
 32 48  1  0
M  CHG  3   2  -1  15  -1  18  -1
M  END
>  <UniqueID>  (48) 
44

>  <SMILES>  (48) 
C[N-]C(=O)c1ccnc(Oc2ccc([N-]C(=O)[N-]c3cccc(C(F)(F)F)c3)c(C)c2)c1

>  <Energy>  (48) 
68.08608209151907

>  <Genealogy>  (48) 
C[N-]C(=O)c1ccnc(Oc2ccc([N-]C(=O)[N-]c3cccc(C(F)(F)F)c3)c(C)c2)c1 (protonated)
C[N-]C(=O)c1ccnc(Oc2ccc([N-]C(=O)[N-]c3cccc(C(F)(F)F)c3)c(C)c2)c1 (3D coordinates assigned)
C[N-]C(=O)c1ccnc(Oc2ccc([N-]C(=O)[N-]c3cccc(C(F)(F)F)c3)c(C)c2)c1 (optimized conformer: 68.08608209151907 kcal/mol)

>  <smiles>  (48) 
CNC(=O)c1ccnc(Oc2ccc(NC(=O)Nc3cccc(C(F)(F)F)c3)c(C)c2)c1

>  <score_type>  (48) 
oracle

>  <origin>  (48) 
adg

>  <m_score__min__energy>  (48) 
-12.75

>  <m_primary>  (48) 
energy

$$$$
48:0
     RDKit          3D

 54 57  0  0  0  0  0  0  0  0999 V2000
   54.4680   26.3410   45.9500 O   0  0  0  0  0  0  0  0  0  0  0  0
   55.5880   25.7650   46.0100 C   0  0  0  0  0  0  0  0  0  0  0  0
   55.6460   24.3850   45.8440 O   0  0  0  0  0  0  0  0  0  0  0  0
   56.8220   26.5440   46.2530 C   0  0  0  0  0  0  0  0  0  0  0  0
   57.7750   26.0900   47.1800 C   0  0  0  0  0  0  0  0  0  0  0  0
   58.9380   26.8270   47.4190 C   0  0  0  0  0  0  0  0  0  0  0  0
   59.1680   28.0320   46.7380 C   0  0  0  0  0  0  0  0  0  0  0  0
   60.4000   28.8480   47.0360 C   0  0  0  0  0  0  0  0  0  0  0  0
   60.2130   29.7130   48.2940 C   0  0  2  0  0  0  0  0  0  0  0  0
   58.5850   30.5630   48.2690 S   0  0  0  0  0  0  0  0  0  0  0  0
   58.9110   31.5980   49.7040 C   0  0  0  0  0  0  0  0  0  0  0  0
   59.7420   32.6730   49.5870 N   0  0  0  0  0  0  0  0  0  0  0  0
   59.9990   33.4930   50.6420 C   0  0  0  0  0  0  0  0  0  0  0  0
   59.4140   33.2410   51.8850 C   0  0  0  0  0  0  0  0  0  0  0  0
   58.5660   32.1430   52.0300 C   0  0  0  0  0  0  0  0  0  0  0  0
   58.3090   31.3130   50.9370 C   0  0  0  0  0  0  0  0  0  0  0  0
   57.4600   30.2230   51.0790 O   0  0  0  0  0  0  0  0  0  0  0  0
   61.3010   30.7420   48.3840 C   0  0  0  0  0  0  0  0  0  0  0  0
   61.5320   31.6580   47.4190 N   0  0  0  0  0  0  0  0  0  0  0  0
   62.5460   32.5030   47.7490 C   0  0  0  0  0  0  0  0  0  0  0  0
   62.9680   33.6150   46.8370 C   0  0  0  0  0  0  0  0  0  0  0  0
   61.8920   34.0000   46.0050 O   0  0  0  0  0  0  0  0  0  0  0  0
   60.8630   34.5930   46.7710 C   0  0  0  0  0  0  0  0  0  0  0  0
   59.5400   34.1060   46.2590 C   0  0  0  0  0  0  0  0  0  0  0  0
   58.4660   33.9020   47.1410 C   0  0  0  0  0  0  0  0  0  0  0  0
   57.2220   33.4890   46.6530 C   0  0  0  0  0  0  0  0  0  0  0  0
   57.0390   33.2910   45.2810 C   0  0  0  0  0  0  0  0  0  0  0  0
   58.0980   33.5100   44.3950 C   0  0  0  0  0  0  0  0  0  0  0  0
   59.3420   33.9240   44.8800 C   0  0  0  0  0  0  0  0  0  0  0  0
   63.1380   32.2630   48.9870 C   0  0  0  0  0  0  0  0  0  0  0  0
   62.3500   30.9540   49.6860 S   0  0  0  0  0  0  0  0  0  0  0  0
   58.2190   28.4890   45.8100 C   0  0  0  0  0  0  0  0  0  0  0  0
   57.0570   27.7500   45.5670 C   0  0  0  0  0  0  0  0  0  0  0  0
   57.6045   25.1478   47.7215 H   0  0  0  0  0  0  0  0  0  0  0  0
   59.6778   26.4601   48.1456 H   0  0  0  0  0  0  0  0  0  0  0  0
   61.2499   28.1676   47.1933 H   0  0  0  0  0  0  0  0  0  0  0  0
   60.5859   29.5163   46.1823 H   0  0  0  0  0  0  0  0  0  0  0  0
   60.2579   29.0480   49.1691 H   0  0  0  0  0  0  0  0  0  0  0  0
   60.1980   32.8780   48.6690 H   0  0  0  0  0  0  0  0  0  0  0  0
   60.6690   34.3563   50.5156 H   0  0  0  0  0  0  0  0  0  0  0  0
   59.6198   33.9013   52.7404 H   0  0  0  0  0  0  0  0  0  0  0  0
   58.1005   31.9313   53.0039 H   0  0  0  0  0  0  0  0  0  0  0  0
   63.2876   34.4777   47.4399 H   0  0  0  0  0  0  0  0  0  0  0  0
   63.8006   33.2666   46.2082 H   0  0  0  0  0  0  0  0  0  0  0  0
   60.9780   34.3095   47.8276 H   0  0  0  0  0  0  0  0  0  0  0  0
   60.9171   35.6884   46.6866 H   0  0  0  0  0  0  0  0  0  0  0  0
   58.6038   34.0677   48.2197 H   0  0  0  0  0  0  0  0  0  0  0  0
   56.3871   33.3199   47.3490 H   0  0  0  0  0  0  0  0  0  0  0  0
   56.0613   32.9627   44.8986 H   0  0  0  0  0  0  0  0  0  0  0  0
   57.9523   33.3564   43.3156 H   0  0  0  0  0  0  0  0  0  0  0  0
   60.1694   34.1081   44.1790 H   0  0  0  0  0  0  0  0  0  0  0  0
   63.9718   32.8290   49.4279 H   0  0  0  0  0  0  0  0  0  0  0  0
   58.3902   29.4328   45.2715 H   0  0  0  0  0  0  0  0  0  0  0  0
   56.3215   28.1139   44.8345 H   0  0  0  0  0  0  0  0  0  0  0  0
  1  2  2  0
  2  3  1  0
  2  4  1  0
  4  5  2  0
  5  6  1  0
  6  7  2  0
  7  8  1  0
  8  9  1  0
  9 10  1  0
 10 11  1  0
 11 12  2  0
 12 13  1  0
 13 14  2  0
 14 15  1  0
 15 16  2  0
 16 17  1  0
  9 18  1  0
 18 19  2  0
 19 20  1  0
 20 21  1  0
 21 22  1  0
 22 23  1  0
 23 24  1  0
 24 25  2  0
 25 26  1  0
 26 27  2  0
 27 28  1  0
 28 29  2  0
 20 30  2  0
 30 31  1  0
  7 32  1  0
 32 33  2  0
 33  4  1  0
 16 11  1  0
 31 18  1  0
 29 24  1  0
  5 34  1  0
  6 35  1  0
  8 36  1  0
  8 37  1  0
  9 38  1  1
 12 39  1  0
 13 40  1  0
 14 41  1  0
 15 42  1  0
 21 43  1  0
 21 44  1  0
 23 45  1  0
 23 46  1  0
 25 47  1  0
 26 48  1  0
 27 49  1  0
 28 50  1  0
 29 51  1  0
 30 52  1  0
 32 53  1  0
 33 54  1  0
M  CHG  3   3  -1  12   1  17  -1
M  END
>  <UniqueID>  (49) 
45

>  <SMILES>  (49) 
O=C([O-])c1ccc(C[C@H](Sc2[nH+]cccc2[O-])c2nc(COCc3ccccc3)cs2)cc1

>  <Energy>  (49) 
82.0598644310177

>  <Genealogy>  (49) 
O=C([O-])c1ccc(CC(Sc2[nH+]cccc2[O-])c2nc(COCc3ccccc3)cs2)cc1 (protonated)
O=C([O-])c1ccc(C[C@H](Sc2[nH+]cccc2[O-])c2nc(COCc3ccccc3)cs2)cc1 (chirality)
O=C([O-])c1ccc(C[C@H](Sc2[nH+]cccc2[O-])c2nc(COCc3ccccc3)cs2)cc1 (3D coordinates assigned)
O=C([O-])c1ccc(C[C@H](Sc2[nH+]cccc2[O-])c2nc(COCc3ccccc3)cs2)cc1 (optimized conformer: 82.0598644310177 kcal/mol)

>  <smiles>  (49) 
O=C(O)c1ccc(CC(Sc2ncccc2O)c2nc(COCc3ccccc3)cs2)cc1

>  <score_type>  (49) 
oracle

>  <origin>  (49) 
adg

>  <m_score__min__energy>  (49) 
-12.619999999999999

>  <m_primary>  (49) 
energy

$$$$
49:0
     RDKit          3D

 40 42  0  0  0  0  0  0  0  0999 V2000
   57.0460   21.4430   46.5000 C   0  0  0  0  0  0  0  0  0  0  0  0
   57.4960   22.6310   47.1450 O   0  0  0  0  0  0  0  0  0  0  0  0
   57.5380   23.8930   46.5350 C   0  0  0  0  0  0  0  0  0  0  0  0
   58.6930   24.3900   45.9050 C   0  0  0  0  0  0  0  0  0  0  0  0
   58.6810   25.6540   45.3080 C   0  0  0  0  0  0  0  0  0  0  0  0
   57.5140   26.4350   45.3190 C   0  0  0  0  0  0  0  0  0  0  0  0
   57.4790   27.7350   44.7130 N   0  0  0  0  0  0  0  0  0  0  0  0
   57.1190   28.9630   45.3620 C   0  0  0  0  0  0  0  0  0  0  0  0
   55.9370   29.3820   45.2400 O   0  0  0  0  0  0  0  0  0  0  0  0
   58.1050   29.7760   46.1170 C   0  0  0  0  0  0  0  0  0  0  0  0
   58.8210   29.2030   47.1820 C   0  0  0  0  0  0  0  0  0  0  0  0
   59.7550   29.9600   47.8940 C   0  0  0  0  0  0  0  0  0  0  0  0
   59.9710   31.2990   47.5630 C   0  0  0  0  0  0  0  0  0  0  0  0
   59.2390   31.8990   46.5320 C   0  0  0  0  0  0  0  0  0  0  0  0
   59.5060   33.2710   46.2010 N   0  0  0  0  0  0  0  0  0  0  0  0
   60.2940   34.1910   46.9660 C   0  0  0  0  0  0  0  0  0  0  0  0
   59.7850   35.2920   47.3040 O   0  0  0  0  0  0  0  0  0  0  0  0
   61.7010   33.9120   47.3030 C   0  0  0  0  0  0  0  0  0  0  0  0
   62.2180   33.7970   48.5790 C   0  0  0  0  0  0  0  0  0  0  0  0
   63.5630   33.5400   48.4130 C   0  0  0  0  0  0  0  0  0  0  0  0
   63.7840   33.5180   47.0510 C   0  0  0  0  0  0  0  0  0  0  0  0
   62.6570   33.7460   46.4160 O   0  0  0  0  0  0  0  0  0  0  0  0
   58.3180   31.1300   45.8010 C   0  0  0  0  0  0  0  0  0  0  0  0
   56.3670   25.9510   45.9650 C   0  0  0  0  0  0  0  0  0  0  0  0
   55.2110   26.7290   46.0000 O   0  0  0  0  0  0  0  0  0  0  0  0
   56.3830   24.6830   46.5650 C   0  0  0  0  0  0  0  0  0  0  0  0
   56.7639   20.6982   47.2587 H   0  0  0  0  0  0  0  0  0  0  0  0
   56.1734   21.6749   45.8716 H   0  0  0  0  0  0  0  0  0  0  0  0
   57.8533   21.0386   45.8716 H   0  0  0  0  0  0  0  0  0  0  0  0
   59.6093   23.7818   45.8819 H   0  0  0  0  0  0  0  0  0  0  0  0
   59.5918   26.0394   44.8264 H   0  0  0  0  0  0  0  0  0  0  0  0
   58.6451   28.1525   47.4566 H   0  0  0  0  0  0  0  0  0  0  0  0
   60.3214   29.4999   48.7171 H   0  0  0  0  0  0  0  0  0  0  0  0
   60.7202   31.8853   48.1152 H   0  0  0  0  0  0  0  0  0  0  0  0
   61.6713   33.8908   49.5289 H   0  0  0  0  0  0  0  0  0  0  0  0
   64.3089   33.3840   49.2062 H   0  0  0  0  0  0  0  0  0  0  0  0
   64.7566   33.3370   46.5700 H   0  0  0  0  0  0  0  0  0  0  0  0
   57.7583   31.5911   44.9739 H   0  0  0  0  0  0  0  0  0  0  0  0
   55.1440   27.6040   45.4940 H   0  0  0  0  0  0  0  0  0  0  0  0
   55.4784   24.3057   47.0643 H   0  0  0  0  0  0  0  0  0  0  0  0
  1  2  1  0
  2  3  1  0
  3  4  2  0
  4  5  1  0
  5  6  2  0
  6  7  1  0
  7  8  1  0
  8  9  2  0
  8 10  1  0
 10 11  2  0
 11 12  1  0
 12 13  2  0
 13 14  1  0
 14 15  1  0
 15 16  1  0
 16 17  2  0
 16 18  1  0
 18 19  2  0
 19 20  1  0
 20 21  2  0
 21 22  1  0
 14 23  2  0
  6 24  1  0
 24 25  1  0
 24 26  2  0
 26  3  1  0
 23 10  1  0
 22 18  1  0
  1 27  1  0
  1 28  1  0
  1 29  1  0
  4 30  1  0
  5 31  1  0
 11 32  1  0
 12 33  1  0
 13 34  1  0
 19 35  1  0
 20 36  1  0
 21 37  1  0
 23 38  1  0
 25 39  1  0
 26 40  1  0
M  CHG  2   7  -1  15  -1
M  END
>  <UniqueID>  (50) 
46

>  <SMILES>  (50) 
COc1ccc([N-]C(=O)c2cccc([N-]C(=O)c3ccco3)c2)c(O)c1

>  <Energy>  (50) 
78.13506085013493

>  <Genealogy>  (50) 
COc1ccc([N-]C(=O)c2cccc([N-]C(=O)c3ccco3)c2)c(O)c1 (protonated)
COc1ccc([N-]C(=O)c2cccc([N-]C(=O)c3ccco3)c2)c(O)c1 (3D coordinates assigned)
COc1ccc([N-]C(=O)c2cccc([N-]C(=O)c3ccco3)c2)c(O)c1 (optimized conformer: 78.13506085013493 kcal/mol)

>  <smiles>  (50) 
COc1ccc(NC(=O)c2cccc(NC(=O)c3ccco3)c2)c(O)c1

>  <score_type>  (50) 
oracle

>  <origin>  (50) 
adg

>  <m_score__min__energy>  (50) 
-11.69

>  <m_primary>  (50) 
energy

$$$$
50:0
     RDKit          3D

 36 38  0  0  0  0  0  0  0  0999 V2000
   54.6570   27.0880   46.7030 H   0  0  0  0  0  0  0  0  0  0  0  0
   54.7670   26.3360   45.9870 N   0  0  0  0  0  0  0  0  0  0  0  0
   56.3160   25.6120   46.2480 S   0  0  0  0  0  0  0  0  0  0  0  0
   56.2460   24.7560   47.4820 O   0  0  0  0  0  0  0  0  0  0  0  0
   56.6730   24.7560   45.0670 O   0  0  0  0  0  0  0  0  0  0  0  0
   57.5350   26.8660   46.4550 C   0  0  0  0  0  0  0  0  0  0  0  0
   57.5410   27.9900   45.6200 C   0  0  0  0  0  0  0  0  0  0  0  0
   56.7860   28.0877   44.8260 H   0  0  0  0  0  0  0  0  0  0  0  0
   58.5040   28.9880   45.7930 C   0  0  0  0  0  0  0  0  0  0  0  0
   58.4992   29.8694   45.1348 H   0  0  0  0  0  0  0  0  0  0  0  0
   59.4750   28.8770   46.7960 C   0  0  0  0  0  0  0  0  0  0  0  0
   60.4330   29.9400   46.9360 N   0  0  0  0  0  0  0  0  0  0  0  0
   60.7150   30.5840   48.0290 C   0  0  0  0  0  0  0  0  0  0  0  0
   61.7644   30.7775   48.2961 H   0  0  0  0  0  0  0  0  0  0  0  0
   59.6330   31.0560   48.9120 C   0  0  0  0  0  0  0  0  0  0  0  0
   58.6890   32.0440   48.6630 C   0  0  0  0  0  0  0  0  0  0  0  0
   58.6060   32.9420   47.4900 C   0  0  0  0  0  0  0  0  0  0  0  0
   59.4110   34.0920   47.4310 C   0  0  0  0  0  0  0  0  0  0  0  0
   60.0932   34.3258   48.2616 H   0  0  0  0  0  0  0  0  0  0  0  0
   59.3490   34.9410   46.3210 C   0  0  0  0  0  0  0  0  0  0  0  0
   59.9738   35.8456   46.2856 H   0  0  0  0  0  0  0  0  0  0  0  0
   58.4940   34.6410   45.2570 C   0  0  0  0  0  0  0  0  0  0  0  0
   58.4432   35.3114   44.3864 H   0  0  0  0  0  0  0  0  0  0  0  0
   57.7040   33.4900   45.2990 C   0  0  0  0  0  0  0  0  0  0  0  0
   57.0353   33.2518   44.4587 H   0  0  0  0  0  0  0  0  0  0  0  0
   57.7620   32.6400   46.4080 C   0  0  0  0  0  0  0  0  0  0  0  0
   57.1438   31.7305   46.4334 H   0  0  0  0  0  0  0  0  0  0  0  0
   57.8220   32.0800   49.6960 N   0  0  0  0  0  0  0  0  0  0  0  0
   57.0090   32.7280   49.7980 H   0  0  0  0  0  0  0  0  0  0  0  0
   58.1610   31.1760   50.6020 N   0  0  0  0  0  0  0  0  0  0  0  0
   59.2550   30.5470   50.1400 C   0  0  0  0  0  0  0  0  0  0  0  0
   59.8280   29.6100   50.7570 O   0  0  0  0  0  0  0  0  0  0  0  0
   59.4510   27.7550   47.6500 C   0  0  0  0  0  0  0  0  0  0  0  0
   60.1941   27.6638   48.4559 H   0  0  0  0  0  0  0  0  0  0  0  0
   58.4860   26.7580   47.4760 C   0  0  0  0  0  0  0  0  0  0  0  0
   58.4744   25.8847   48.1448 H   0  0  0  0  0  0  0  0  0  0  0  0
  1  2  1  0
  2  3  1  0
  3  4  2  0
  3  5  2  0
  3  6  1  0
  6  7  2  0
  7  8  1  0
  7  9  1  0
  9 10  1  0
  9 11  2  0
 11 12  1  0
 12 13  2  0
 13 14  1  0
 13 15  1  0
 15 16  2  0
 16 17  1  0
 17 18  2  0
 18 19  1  0
 18 20  1  0
 20 21  1  0
 20 22  2  0
 22 23  1  0
 22 24  1  0
 24 25  1  0
 24 26  2  0
 26 27  1  0
 16 28  1  0
 28 29  1  0
 28 30  1  0
 30 31  1  0
 31 32  2  0
 11 33  1  0
 33 34  1  0
 33 35  2  0
 35 36  1  0
 35  6  1  0
 31 15  1  0
 26 17  1  0
M  CHG  2   2  -1  30  -1
M  END
>  <UniqueID>  (51) 
47

>  <SMILES>  (51) 
[NH-]S(=O)(=O)c1ccc(/N=C/c2c(-c3ccccc3)[nH][n-]c2=O)cc1

>  <Energy>  (51) 
77.21981351804234

>  <Genealogy>  (51) 
[NH-]S(=O)(=O)c1ccc(N=Cc2c(-c3ccccc3)[nH][n-]c2=O)cc1 (protonated)
[NH-]S(=O)(=O)c1ccc(/N=C/c2c(-c3ccccc3)[nH][n-]c2=O)cc1 (cis-trans isomerization)
[NH-]S(=O)(=O)c1ccc(/N=C/c2c(-c3ccccc3)[nH][n-]c2=O)cc1 (3D coordinates assigned)
[NH-]S(=O)(=O)c1ccc(/N=C/c2c(-c3ccccc3)[nH][n-]c2=O)cc1 (optimized conformer: 77.21981351804234 kcal/mol)

>  <smiles>  (51) 
NS(=O)(=O)c1ccc(N=Cc2c(-c3ccccc3)[nH][nH]c2=O)cc1

>  <score_type>  (51) 
oracle

>  <origin>  (51) 
adg

>  <m_score__min__energy>  (51) 
-11.779999999999999

>  <m_primary>  (51) 
energy

$$$$
51:0
     RDKit          3D

 42 43  0  0  0  0  0  0  0  0999 V2000
   59.3280   35.3280   47.0380 C   0  0  0  0  0  0  0  0  0  0  0  0
   58.8260   34.0880   46.3610 C   0  0  0  0  0  0  0  0  0  0  0  0
   58.9470   32.8410   46.9980 C   0  0  0  0  0  0  0  0  0  0  0  0
   58.4510   31.6860   46.3850 C   0  0  0  0  0  0  0  0  0  0  0  0
   57.8240   31.7660   45.1330 C   0  0  0  0  0  0  0  0  0  0  0  0
   57.1990   30.3170   44.3530 S   0  0  0  0  0  0  0  0  0  0  0  0
   56.1570   29.6800   45.2290 O   0  0  0  0  0  0  0  0  0  0  0  0
   56.5970   30.6900   43.0280 O   0  0  0  0  0  0  0  0  0  0  0  0
   58.5040   29.1980   44.1180 N   0  0  0  0  0  0  0  0  0  0  0  0
   58.4690   27.8050   44.4540 C   0  0  0  0  0  0  0  0  0  0  0  0
   59.1480   27.3750   45.5990 C   0  0  0  0  0  0  0  0  0  0  0  0
   59.1390   26.0260   45.9660 C   0  0  0  0  0  0  0  0  0  0  0  0
   58.4360   25.0890   45.1950 C   0  0  0  0  0  0  0  0  0  0  0  0
   58.4240   23.6620   45.5670 C   0  0  0  0  0  0  0  0  0  0  0  0
   59.5180   23.0420   45.6390 O   0  0  0  0  0  0  0  0  0  0  0  0
   57.2080   22.9470   45.8280 N   0  0  0  0  0  0  0  0  0  0  0  0
   56.2610   22.4660   44.8220 C   0  0  0  0  0  0  0  0  0  0  0  0
   55.3360   23.5840   44.3320 C   0  0  0  0  0  0  0  0  0  0  0  0
   54.3190   24.2420   45.6460 S   0  0  0  0  0  0  0  0  0  0  0  0
   54.4620   25.9640   45.7020 N   0  0  0  0  0  0  0  0  0  0  0  0
   54.7780   23.6670   46.9570 O   0  0  0  0  0  0  0  0  0  0  0  0
   52.8820   23.8650   45.4190 O   0  0  0  0  0  0  0  0  0  0  0  0
   57.7750   25.5130   44.0320 C   0  0  0  0  0  0  0  0  0  0  0  0
   57.7840   26.8620   43.6660 C   0  0  0  0  0  0  0  0  0  0  0  0
   57.6780   33.0120   44.5080 C   0  0  0  0  0  0  0  0  0  0  0  0
   58.1730   34.1680   45.1210 C   0  0  0  0  0  0  0  0  0  0  0  0
   59.2750   35.1972   48.1289 H   0  0  0  0  0  0  0  0  0  0  0  0
   60.3711   35.5113   46.7409 H   0  0  0  0  0  0  0  0  0  0  0  0
   58.7061   36.1853   46.7409 H   0  0  0  0  0  0  0  0  0  0  0  0
   59.4336   32.7733   47.9822 H   0  0  0  0  0  0  0  0  0  0  0  0
   58.5529   30.7121   46.8862 H   0  0  0  0  0  0  0  0  0  0  0  0
   59.6936   28.1044   46.2157 H   0  0  0  0  0  0  0  0  0  0  0  0
   59.6853   25.6984   46.8628 H   0  0  0  0  0  0  0  0  0  0  0  0
   56.8237   22.0679   43.9647 H   0  0  0  0  0  0  0  0  0  0  0  0
   55.6390   21.6848   45.2834 H   0  0  0  0  0  0  0  0  0  0  0  0
   55.9509   24.3971   43.9187 H   0  0  0  0  0  0  0  0  0  0  0  0
   54.6682   23.1596   43.5679 H   0  0  0  0  0  0  0  0  0  0  0  0
   53.5220   26.3410   45.9570 H   0  0  0  0  0  0  0  0  0  0  0  0
   57.2468   24.7797   43.4049 H   0  0  0  0  0  0  0  0  0  0  0  0
   57.2537   27.1874   42.7588 H   0  0  0  0  0  0  0  0  0  0  0  0
   57.1730   33.0811   43.5332 H   0  0  0  0  0  0  0  0  0  0  0  0
   58.0499   35.1441   44.6290 H   0  0  0  0  0  0  0  0  0  0  0  0
  1  2  1  0
  2  3  2  0
  3  4  1  0
  4  5  2  0
  5  6  1  0
  6  7  2  0
  6  8  2  0
  6  9  1  0
  9 10  1  0
 10 11  2  0
 11 12  1  0
 12 13  2  0
 13 14  1  0
 14 15  2  0
 14 16  1  0
 16 17  1  0
 17 18  1  0
 18 19  1  0
 19 20  1  0
 19 21  2  0
 19 22  2  0
 13 23  1  0
 23 24  2  0
  5 25  1  0
 25 26  2  0
 26  2  1  0
 24 10  1  0
  1 27  1  0
  1 28  1  0
  1 29  1  0
  3 30  1  0
  4 31  1  0
 11 32  1  0
 12 33  1  0
 17 34  1  0
 17 35  1  0
 18 36  1  0
 18 37  1  0
 20 38  1  0
 23 39  1  0
 24 40  1  0
 25 41  1  0
 26 42  1  0
M  CHG  3   9  -1  16  -1  20  -1
M  END
>  <UniqueID>  (52) 
48

>  <SMILES>  (52) 
Cc1ccc(S(=O)(=O)[N-]c2ccc(C(=O)[N-]CCS([NH-])(=O)=O)cc2)cc1

>  <Energy>  (52) 
42.84666675187334

>  <Genealogy>  (52) 
Cc1ccc(S(=O)(=O)[N-]c2ccc(C(=O)[N-]CCS([NH-])(=O)=O)cc2)cc1 (protonated)
Cc1ccc(S(=O)(=O)[N-]c2ccc(C(=O)[N-]CCS([NH-])(=O)=O)cc2)cc1 (3D coordinates assigned)
Cc1ccc(S(=O)(=O)[N-]c2ccc(C(=O)[N-]CCS([NH-])(=O)=O)cc2)cc1 (optimized conformer: 42.84666675187334 kcal/mol)

>  <smiles>  (52) 
Cc1ccc(S(=O)(=O)Nc2ccc(C(=O)NCCS(N)(=O)=O)cc2)cc1

>  <score_type>  (52) 
oracle

>  <origin>  (52) 
adg

>  <m_score__min__energy>  (52) 
-13.880000000000001

>  <m_primary>  (52) 
energy

$$$$
52:0
     RDKit          3D

 44 47  0  0  0  0  0  0  0  0999 V2000
   60.5338   27.4541   47.1320 H   0  0  0  0  0  0  0  0  0  0  0  0
   59.8330   26.6710   47.4570 C   0  0  0  0  0  0  0  0  0  0  0  0
   60.0648   26.0574   48.3400 H   0  0  0  0  0  0  0  0  0  0  0  0
   58.7000   26.4650   46.7790 C   0  0  0  0  0  0  0  0  0  0  0  0
   57.7530   25.5090   47.1020 C   0  0  0  0  0  0  0  0  0  0  0  0
   57.7861   24.8028   47.9447 H   0  0  0  0  0  0  0  0  0  0  0  0
   56.7580   25.6220   46.1510 C   0  0  0  0  0  0  0  0  0  0  0  0
   55.4910   24.8320   46.1290 C   0  0  0  0  0  0  0  0  0  0  0  0
   55.1669   24.6299   47.1606 H   0  0  0  0  0  0  0  0  0  0  0  0
   54.7112   25.4042   45.6051 H   0  0  0  0  0  0  0  0  0  0  0  0
   55.6616   23.8799   45.6051 H   0  0  0  0  0  0  0  0  0  0  0  0
   57.0400   26.6110   45.2810 N   0  0  0  0  0  0  0  0  0  0  0  0
   56.4190   26.9260   44.5030 H   0  0  0  0  0  0  0  0  0  0  0  0
   58.2370   27.1260   45.6410 C   0  0  0  0  0  0  0  0  0  0  0  0
   58.8500   28.1390   44.9970 C   0  0  0  0  0  0  0  0  0  0  0  0
   59.7083   27.9011   44.3515 H   0  0  0  0  0  0  0  0  0  0  0  0
   58.4310   29.5550   45.1110 C   0  0  0  0  0  0  0  0  0  0  0  0
   59.2780   30.5330   45.6790 C   0  0  0  0  0  0  0  0  0  0  0  0
   60.5910   30.1690   46.1290 N   0  0  0  0  0  0  0  0  0  0  0  0
   61.1220   30.3650   47.4440 C   0  0  0  0  0  0  0  0  0  0  0  0
   61.0200   29.4510   48.3080 O   0  0  0  0  0  0  0  0  0  0  0  0
   61.8410   31.6190   47.7700 C   0  0  0  0  0  0  0  0  0  0  0  0
   61.3100   32.5250   48.7070 C   0  0  0  0  0  0  0  0  0  0  0  0
   60.3532   32.3017   49.2017 H   0  0  0  0  0  0  0  0  0  0  0  0
   61.9910   33.7070   49.0130 C   0  0  0  0  0  0  0  0  0  0  0  0
   61.5678   34.4098   49.7458 H   0  0  0  0  0  0  0  0  0  0  0  0
   63.2070   33.9980   48.3910 C   0  0  0  0  0  0  0  0  0  0  0  0
   63.7414   34.9282   48.6344 H   0  0  0  0  0  0  0  0  0  0  0  0
   63.7440   33.1060   47.4590 C   0  0  0  0  0  0  0  0  0  0  0  0
   64.7012   33.3357   46.9682 H   0  0  0  0  0  0  0  0  0  0  0  0
   63.0680   31.9230   47.1490 C   0  0  0  0  0  0  0  0  0  0  0  0
   63.4969   31.2247   46.4152 H   0  0  0  0  0  0  0  0  0  0  0  0
   58.8280   31.8190   45.7530 N   0  0  0  0  0  0  0  0  0  0  0  0
   59.5520   32.8610   46.1590 N   0  0  0  0  0  0  0  0  0  0  0  0
   58.8550   34.0220   46.1150 C   0  0  0  0  0  0  0  0  0  0  0  0
   59.4480   35.3460   46.4580 C   0  0  0  0  0  0  0  0  0  0  0  0
   59.4963   35.4539   47.5516 H   0  0  0  0  0  0  0  0  0  0  0  0
   60.4623   35.4134   46.0377 H   0  0  0  0  0  0  0  0  0  0  0  0
   58.8229   36.1477   46.0377 H   0  0  0  0  0  0  0  0  0  0  0  0
   57.2870   33.7970   45.5100 S   0  0  0  0  0  0  0  0  0  0  0  0
   57.5820   32.1500   45.3560 C   0  0  0  0  0  0  0  0  0  0  0  0
   56.7230   31.2320   44.8560 N   0  0  0  0  0  0  0  0  0  0  0  0
   57.1230   29.9370   44.7320 C   0  0  0  0  0  0  0  0  0  0  0  0
   56.3190   29.0870   44.2650 O   0  0  0  0  0  0  0  0  0  0  0  0
  1  2  1  0
  2  3  1  0
  2  4  2  0
  4  5  1  0
  5  6  1  0
  5  7  2  0
  7  8  1  0
  8  9  1  0
  8 10  1  0
  8 11  1  0
  7 12  1  0
 12 13  1  0
 12 14  1  0
 14 15  2  0
 15 16  1  0
 15 17  1  0
 17 18  2  0
 18 19  1  0
 19 20  1  0
 20 21  2  0
 20 22  1  0
 22 23  2  0
 23 24  1  0
 23 25  1  0
 25 26  1  0
 25 27  2  0
 27 28  1  0
 27 29  1  0
 29 30  1  0
 29 31  2  0
 31 32  1  0
 18 33  1  0
 33 34  1  0
 34 35  2  0
 35 36  1  0
 36 37  1  0
 36 38  1  0
 36 39  1  0
 35 40  1  0
 40 41  1  0
 41 42  2  0
 42 43  1  0
 43 44  2  0
 14  4  1  0
 43 17  1  0
 31 22  1  0
 41 33  1  0
M  CHG  1  19  -1
M  END
>  <UniqueID>  (53) 
49

>  <SMILES>  (53) 
C=c1cc(C)[nH]/c1=C\c1c([N-]C(=O)c2ccccc2)n2nc(C)sc2nc1=O

>  <Energy>  (53) 
123.35523412706732

>  <Genealogy>  (53) 
C=c1cc(C)[nH]c1=Cc1c([N-]C(=O)c2ccccc2)n2nc(C)sc2nc1=O (protonated)
C=c1cc(C)[nH]/c1=C\c1c([N-]C(=O)c2ccccc2)n2nc(C)sc2nc1=O (cis-trans isomerization)
C=c1cc(C)[nH]/c1=C\c1c([N-]C(=O)c2ccccc2)n2nc(C)sc2nc1=O (3D coordinates assigned)
C=c1cc(C)[nH]/c1=C\c1c([N-]C(=O)c2ccccc2)n2nc(C)sc2nc1=O (optimized conformer: 123.35523412706732 kcal/mol)

>  <smiles>  (53) 
C=c1cc(C)[nH]c1=Cc1c(NC(=O)c2ccccc2)n2nc(C)sc2nc1=O

>  <score_type>  (53) 
oracle

>  <origin>  (53) 
adg

>  <m_score__min__energy>  (53) 
-10

>  <m_primary>  (53) 
energy

$$$$
53:0
     RDKit          3D

 56 60  0  0  0  0  0  0  0  0999 V2000
   60.4480   27.1350   49.8450 O   0  0  0  0  0  0  0  0  0  0  0  0
   60.3960   28.3090   50.3050 C   0  0  0  0  0  0  0  0  0  0  0  0
   60.7350   29.4700   49.4200 C   0  0  0  0  0  0  0  0  0  0  0  0
   60.0970   29.3290   48.0470 C   0  0  0  0  0  0  0  0  0  0  0  0
   59.0870   28.3630   47.8590 C   0  0  0  0  0  0  0  0  0  0  0  0
   58.5220   28.1360   46.5950 C   0  0  0  0  0  0  0  0  0  0  0  0
   57.4970   27.0780   46.4080 C   0  0  0  0  0  0  0  0  0  0  0  0
   57.7390   25.7820   46.8920 C   0  0  0  0  0  0  0  0  0  0  0  0
   56.7730   24.7810   46.7420 C   0  0  0  0  0  0  0  0  0  0  0  0
   56.9850   23.4840   47.2310 C   0  0  0  0  0  0  0  0  0  0  0  0
   55.9920   22.5100   47.0850 C   0  0  0  0  0  0  0  0  0  0  0  0
   54.7860   22.8260   46.4510 C   0  0  0  0  0  0  0  0  0  0  0  0
   54.5680   24.1160   45.9570 C   0  0  0  0  0  0  0  0  0  0  0  0
   55.5570   25.0950   46.0990 C   0  0  0  0  0  0  0  0  0  0  0  0
   55.3450   26.3510   45.6260 N   0  0  0  0  0  0  0  0  0  0  0  0
   56.2720   27.3380   45.7580 C   0  0  0  0  0  0  0  0  0  0  0  0
   56.0250   28.4770   45.2780 O   0  0  0  0  0  0  0  0  0  0  0  0
   58.9620   28.8970   45.5060 C   0  0  0  0  0  0  0  0  0  0  0  0
   59.9210   29.8930   45.6820 C   0  0  0  0  0  0  0  0  0  0  0  0
   60.4790   30.1430   46.9460 C   0  0  0  0  0  0  0  0  0  0  0  0
   61.4230   31.2750   47.0770 C   0  0  0  0  0  0  0  0  0  0  0  0
   62.6640   31.0570   47.0850 O   0  0  0  0  0  0  0  0  0  0  0  0
   60.9040   32.6060   47.2500 N   0  0  0  0  0  0  0  0  0  0  0  0
   60.0350   33.2240   46.5040 C   0  0  0  0  0  0  0  0  0  0  0  0
   60.2920   34.4390   45.9710 N   0  0  0  0  0  0  0  0  0  0  0  0
   59.2480   34.9010   45.2330 C   0  0  0  0  0  0  0  0  0  0  0  0
   58.1570   34.0460   45.1800 C   0  0  0  0  0  0  0  0  0  0  0  0
   57.0030   34.2830   44.5110 F   0  0  0  0  0  0  0  0  0  0  0  0
   58.4950   32.6680   46.0810 S   0  0  0  0  0  0  0  0  0  0  0  0
   59.9410   28.5460   51.6390 N   0  0  0  0  0  0  0  0  0  0  0  0
   58.7980   29.7870   52.0170 S   0  0  0  0  0  0  0  0  0  0  0  0
   58.8300   30.0550   53.4960 O   0  0  0  0  0  0  0  0  0  0  0  0
   57.4110   29.3400   51.6460 O   0  0  0  0  0  0  0  0  0  0  0  0
   59.2260   31.2540   51.1410 C   0  0  0  0  0  0  0  0  0  0  0  0
   58.4250   31.7030   50.0810 C   0  0  0  0  0  0  0  0  0  0  0  0
   58.7690   32.8660   49.3840 C   0  0  0  0  0  0  0  0  0  0  0  0
   59.9060   33.5950   49.7490 C   0  0  0  0  0  0  0  0  0  0  0  0
   60.2480   34.7400   49.0340 O   0  0  0  0  0  0  0  0  0  0  0  0
   60.6910   33.1640   50.8260 C   0  0  0  0  0  0  0  0  0  0  0  0
   60.3530   31.9980   51.5200 C   0  0  0  0  0  0  0  0  0  0  0  0
   60.3713   30.3957   49.8898 H   0  0  0  0  0  0  0  0  0  0  0  0
   61.8271   29.4989   49.2918 H   0  0  0  0  0  0  0  0  0  0  0  0
   58.7353   27.7760   48.7202 H   0  0  0  0  0  0  0  0  0  0  0  0
   58.6921   25.5529   47.3911 H   0  0  0  0  0  0  0  0  0  0  0  0
   57.9327   23.2325   47.7296 H   0  0  0  0  0  0  0  0  0  0  0  0
   56.1598   21.4932   47.4696 H   0  0  0  0  0  0  0  0  0  0  0  0
   54.0067   22.0576   46.3406 H   0  0  0  0  0  0  0  0  0  0  0  0
   53.6193   24.3607   45.4570 H   0  0  0  0  0  0  0  0  0  0  0  0
   58.5482   28.7078   44.5045 H   0  0  0  0  0  0  0  0  0  0  0  0
   60.2454   30.4918   44.8182 H   0  0  0  0  0  0  0  0  0  0  0  0
   59.2669   35.8737   44.7197 H   0  0  0  0  0  0  0  0  0  0  0  0
   57.5241   31.1393   49.7970 H   0  0  0  0  0  0  0  0  0  0  0  0
   58.1436   33.2084   48.5463 H   0  0  0  0  0  0  0  0  0  0  0  0
   60.6110   34.6870   48.0900 H   0  0  0  0  0  0  0  0  0  0  0  0
   61.5758   33.7443   51.1267 H   0  0  0  0  0  0  0  0  0  0  0  0
   60.9725   31.6635   52.3652 H   0  0  0  0  0  0  0  0  0  0  0  0
  1  2  2  0
  2  3  1  0
  3  4  1  0
  4  5  2  0
  5  6  1  0
  6  7  1  0
  7  8  2  0
  8  9  1  0
  9 10  2  0
 10 11  1  0
 11 12  2  0
 12 13  1  0
 13 14  2  0
 14 15  1  0
 15 16  1  0
 16 17  2  0
  6 18  2  0
 18 19  1  0
 19 20  2  0
 20 21  1  0
 21 22  2  0
 21 23  1  0
 23 24  2  3
 24 25  1  0
 25 26  1  0
 26 27  2  0
 27 28  1  0
 27 29  1  0
  2 30  1  0
 30 31  1  0
 31 32  2  0
 31 33  2  0
 31 34  1  0
 34 35  2  0
 35 36  1  0
 36 37  2  0
 37 38  1  0
 37 39  1  0
 39 40  2  0
 20  4  1  0
 29 24  1  0
 40 34  1  0
 16  7  1  0
 14  9  1  0
  3 41  1  0
  3 42  1  0
  5 43  1  0
  8 44  1  0
 10 45  1  0
 11 46  1  0
 12 47  1  0
 13 48  1  0
 18 49  1  0
 19 50  1  0
 26 51  1  0
 35 52  1  0
 36 53  1  0
 38 54  1  0
 39 55  1  0
 40 56  1  0
M  CHG  3  15  -1  25  -1  30  -1
M  END
>  <UniqueID>  (54) 
50

>  <SMILES>  (54) 
O=C(Cc1cc(-c2cc3ccccc3[n-]c2=O)ccc1C(=O)N=c1[n-]cc(F)s1)[N-]S(=O)(=O)c1ccc(O)cc1

>  <Energy>  (54) 
110.08165367379597

>  <Genealogy>  (54) 
O=C(Cc1cc(-c2cc3ccccc3[n-]c2=O)ccc1C(=O)N=c1[n-]cc(F)s1)[N-]S(=O)(=O)c1ccc(O)cc1 (protonated)
O=C(Cc1cc(-c2cc3ccccc3[n-]c2=O)ccc1C(=O)N=c1[n-]cc(F)s1)[N-]S(=O)(=O)c1ccc(O)cc1 (3D coordinates assigned)
O=C(Cc1cc(-c2cc3ccccc3[n-]c2=O)ccc1C(=O)N=c1[n-]cc(F)s1)[N-]S(=O)(=O)c1ccc(O)cc1 (optimized conformer: 110.08165367379597 kcal/mol)

>  <smiles>  (54) 
O=C(Cc1cc(-c2cc3ccccc3[nH]c2=O)ccc1C(=O)N=c1[nH]cc(F)s1)NS(=O)(=O)c1ccc(O)cc1

>  <score_type>  (54) 
oracle

>  <origin>  (54) 
adg

>  <m_score__min__energy>  (54) 
-14.550000000000001

>  <m_primary>  (54) 
energy

$$$$
54:0
     RDKit          3D

 40 42  0  0  0  0  0  0  0  0999 V2000
   54.4530   25.8600   46.3650 H   0  0  0  0  0  0  0  0  0  0  0  0
   53.6500   25.6730   45.8110 O   0  0  0  0  0  0  0  0  0  0  0  0
   53.8830   24.4540   45.1600 C   0  0  0  0  0  0  0  0  0  0  0  0
   53.6039   24.5506   44.1004 H   0  0  0  0  0  0  0  0  0  0  0  0
   53.2779   23.6723   45.6425 H   0  0  0  0  0  0  0  0  0  0  0  0
   55.3610   24.0660   45.2580 C   0  0  0  0  0  0  0  0  0  0  0  0
   55.8368   24.2145   44.2774 H   0  0  0  0  0  0  0  0  0  0  0  0
   55.4249   23.0114   45.5642 H   0  0  0  0  0  0  0  0  0  0  0  0
   56.0550   24.8790   46.2520 N   0  0  0  0  0  0  0  0  0  0  0  0
   57.3310   25.1130   46.2100 C   0  0  0  0  0  0  0  0  0  0  0  0
   58.0338   24.2696   46.2791 H   0  0  0  0  0  0  0  0  0  0  0  0
   57.8650   26.4910   46.0710 C   0  0  0  0  0  0  0  0  0  0  0  0
   57.0350   27.6020   45.7860 C   0  0  0  0  0  0  0  0  0  0  0  0
   55.6610   27.4580   45.6090 O   0  0  0  0  0  0  0  0  0  0  0  0
   57.5980   28.8320   45.6800 N   0  0  0  0  0  0  0  0  0  0  0  0
   56.9220   29.9460   45.4110 N   0  0  0  0  0  0  0  0  0  0  0  0
   57.7240   31.0400   45.3650 C   0  0  0  0  0  0  0  0  0  0  0  0
   57.2410   32.4240   45.0140 C   0  0  0  0  0  0  0  0  0  0  0  0
   56.2649   32.3288   44.5158 H   0  0  0  0  0  0  0  0  0  0  0  0
   57.0290   33.2620   46.2900 C   0  0  0  0  0  0  0  0  0  0  0  0
   56.4738   34.1735   46.0237 H   0  0  0  0  0  0  0  0  0  0  0  0
   56.4723   32.6398   47.0062 H   0  0  0  0  0  0  0  0  0  0  0  0
   58.3530   33.6710   46.9620 C   0  0  0  0  0  0  0  0  0  0  0  0
   58.1632   34.5510   47.5942 H   0  0  0  0  0  0  0  0  0  0  0  0
   58.6991   32.8019   47.5407 H   0  0  0  0  0  0  0  0  0  0  0  0
   59.4770   34.0220   45.9660 C   0  0  0  0  0  0  0  0  0  0  0  0
   60.0147   34.9065   46.3383 H   0  0  0  0  0  0  0  0  0  0  0  0
   60.1403   33.1479   45.8892 H   0  0  0  0  0  0  0  0  0  0  0  0
   58.9440   34.3260   44.5630 C   0  0  0  0  0  0  0  0  0  0  0  0
   58.2691   35.1930   44.6162 H   0  0  0  0  0  0  0  0  0  0  0  0
   59.7996   34.5385   43.9051 H   0  0  0  0  0  0  0  0  0  0  0  0
   58.1730   33.1250   43.9850 C   0  0  0  0  0  0  0  0  0  0  0  0
   57.5577   33.4795   43.1449 H   0  0  0  0  0  0  0  0  0  0  0  0
   58.9226   32.3826   43.6736 H   0  0  0  0  0  0  0  0  0  0  0  0
   59.3490   30.6330   45.6410 S   0  0  0  0  0  0  0  0  0  0  0  0
   58.9220   29.0200   45.8370 C   0  0  0  0  0  0  0  0  0  0  0  0
   59.7590   27.9920   46.1070 N   0  0  0  0  0  0  0  0  0  0  0  0
   60.7830   28.1670   46.2220 H   0  0  0  0  0  0  0  0  0  0  0  0
   59.2560   26.7300   46.2280 C   0  0  0  0  0  0  0  0  0  0  0  0
   60.0420   25.7760   46.4820 O   0  0  0  0  0  0  0  0  0  0  0  0
  1  2  1  0
  2  3  1  0
  3  4  1  0
  3  5  1  0
  3  6  1  0
  6  7  1  0
  6  8  1  0
  6  9  1  0
  9 10  2  0
 10 11  1  0
 10 12  1  0
 12 13  2  0
 13 14  1  0
 13 15  1  0
 15 16  1  0
 16 17  2  0
 17 18  1  0
 18 19  1  0
 18 20  1  0
 20 21  1  0
 20 22  1  0
 20 23  1  0
 23 24  1  0
 23 25  1  0
 23 26  1  0
 26 27  1  0
 26 28  1  0
 26 29  1  0
 29 30  1  0
 29 31  1  0
 29 32  1  0
 32 33  1  0
 32 34  1  0
 17 35  1  0
 35 36  1  0
 36 37  2  0
 37 38  1  0
 37 39  1  0
 39 40  2  0
 39 12  1  0
 36 15  1  0
 32 18  1  0
M  CHG  2  14  -1  37   1
M  END
>  <UniqueID>  (55) 
51

>  <SMILES>  (55) 
O=c1[nH+]c2sc(C3CCCCC3)nn2c([O-])c1/C=N/CCO

>  <Energy>  (55) 
79.27224173334545

>  <Genealogy>  (55) 
O=c1[nH+]c2sc(C3CCCCC3)nn2c([O-])c1C=NCCO (protonated)
O=c1[nH+]c2sc(C3CCCCC3)nn2c([O-])c1/C=N/CCO (cis-trans isomerization)
O=c1[nH+]c2sc(C3CCCCC3)nn2c([O-])c1/C=N/CCO (3D coordinates assigned)
O=c1[nH+]c2sc(C3CCCCC3)nn2c([O-])c1/C=N/CCO (nonaromatic ring conformer: 79.27224173334545 kcal/mol)

>  <smiles>  (55) 
O=c1nc2sc(C3CCCCC3)nn2c(O)c1C=NCCO

>  <score_type>  (55) 
oracle

>  <origin>  (55) 
adg

>  <m_score__min__energy>  (55) 
-10.449999999999999

>  <m_primary>  (55) 
energy

$$$$
55:0
     RDKit          3D

 48 50  0  0  0  0  0  0  0  0999 V2000
   55.1860   29.1870   44.8410 N   0  0  0  0  0  0  0  0  0  0  0  0
   56.5280   30.1710   44.3700 S   0  0  0  0  0  0  0  0  0  0  0  0
   56.6970   30.0720   42.8800 O   0  0  0  0  0  0  0  0  0  0  0  0
   56.2600   31.5980   44.7500 O   0  0  0  0  0  0  0  0  0  0  0  0
   57.9920   29.6130   45.1720 C   0  0  0  0  0  0  0  0  0  0  0  0
   59.0130   29.0120   44.4250 C   0  0  0  0  0  0  0  0  0  0  0  0
   60.1870   28.5910   45.0540 C   0  0  0  0  0  0  0  0  0  0  0  0
   60.3450   28.7610   46.4320 C   0  0  0  0  0  0  0  0  0  0  0  0
   59.3240   29.3460   47.1970 C   0  0  0  0  0  0  0  0  0  0  0  0
   59.5170   29.5270   48.6090 N   0  0  0  0  0  0  0  0  0  0  0  0
   59.1380   30.7140   49.3240 C   0  0  0  0  0  0  0  0  0  0  0  0
   58.3630   31.5560   48.7950 O   0  0  0  0  0  0  0  0  0  0  0  0
   59.5820   30.8990   50.7460 C   0  0  0  0  0  0  0  0  0  0  0  0
   59.7100   32.3150   51.0740 N   0  0  0  0  0  0  0  0  0  0  0  0
   60.9660   32.9990   51.1730 C   0  0  0  0  0  0  0  0  0  0  0  0
   61.2540   33.6250   52.2290 O   0  0  0  0  0  0  0  0  0  0  0  0
   61.9070   32.9880   50.0250 C   0  0  0  0  0  0  0  0  0  0  0  0
   63.2810   32.8100   50.2740 C   0  0  0  0  0  0  0  0  0  0  0  0
   64.1930   32.7440   49.2200 C   0  0  0  0  0  0  0  0  0  0  0  0
   63.7520   32.8630   47.9030 C   0  0  0  0  0  0  0  0  0  0  0  0
   62.3960   33.0530   47.6360 C   0  0  0  0  0  0  0  0  0  0  0  0
   61.4600   33.1120   48.6840 C   0  0  0  0  0  0  0  0  0  0  0  0
   60.0840   33.4030   48.3870 N   0  0  0  0  0  0  0  0  0  0  0  0
   59.6010   33.7580   47.0790 C   0  0  0  0  0  0  0  0  0  0  0  0
   59.0300   32.7700   46.2620 C   0  0  0  0  0  0  0  0  0  0  0  0
   58.5730   33.0890   44.9790 C   0  0  0  0  0  0  0  0  0  0  0  0
   58.6930   34.3950   44.4980 C   0  0  0  0  0  0  0  0  0  0  0  0
   59.2770   35.3820   45.2950 C   0  0  0  0  0  0  0  0  0  0  0  0
   59.7370   35.0670   46.5780 C   0  0  0  0  0  0  0  0  0  0  0  0
   58.1550   29.7920   46.5520 C   0  0  0  0  0  0  0  0  0  0  0  0
   55.5190   28.1980   44.8510 H   0  0  0  0  0  0  0  0  0  0  0  0
   58.8901   28.8713   43.3410 H   0  0  0  0  0  0  0  0  0  0  0  0
   60.9891   28.1245   44.4632 H   0  0  0  0  0  0  0  0  0  0  0  0
   61.2751   28.4344   46.9201 H   0  0  0  0  0  0  0  0  0  0  0  0
   59.8700   28.7160   49.1650 H   0  0  0  0  0  0  0  0  0  0  0  0
   58.8409   30.4400   51.4168 H   0  0  0  0  0  0  0  0  0  0  0  0
   60.5643   30.4201   50.8715 H   0  0  0  0  0  0  0  0  0  0  0  0
   63.6394   32.7220   51.3102 H   0  0  0  0  0  0  0  0  0  0  0  0
   65.2630   32.5976   49.4290 H   0  0  0  0  0  0  0  0  0  0  0  0
   64.4732   32.8071   47.0743 H   0  0  0  0  0  0  0  0  0  0  0  0
   62.0555   33.1577   46.5953 H   0  0  0  0  0  0  0  0  0  0  0  0
   59.4040   33.4020   49.1820 H   0  0  0  0  0  0  0  0  0  0  0  0
   58.9413   31.7382   46.6329 H   0  0  0  0  0  0  0  0  0  0  0  0
   58.1187   32.3107   44.3482 H   0  0  0  0  0  0  0  0  0  0  0  0
   58.3275   34.6460   43.4913 H   0  0  0  0  0  0  0  0  0  0  0  0
   59.3754   36.4089   44.9132 H   0  0  0  0  0  0  0  0  0  0  0  0
   60.2068   35.8448   47.1979 H   0  0  0  0  0  0  0  0  0  0  0  0
   57.3635   30.2847   47.1358 H   0  0  0  0  0  0  0  0  0  0  0  0
  1  2  1  0
  2  3  2  0
  2  4  2  0
  2  5  1  0
  5  6  2  0
  6  7  1  0
  7  8  2  0
  8  9  1  0
  9 10  1  0
 10 11  1  0
 11 12  2  0
 11 13  1  0
 13 14  1  0
 14 15  1  0
 15 16  2  0
 15 17  1  0
 17 18  2  0
 18 19  1  0
 19 20  2  0
 20 21  1  0
 21 22  2  0
 22 23  1  0
 23 24  1  0
 24 25  2  0
 25 26  1  0
 26 27  2  0
 27 28  1  0
 28 29  2  0
  9 30  2  0
 30  5  1  0
 22 17  1  0
 29 24  1  0
  1 31  1  0
  6 32  1  0
  7 33  1  0
  8 34  1  0
 10 35  1  0
 13 36  1  0
 13 37  1  0
 18 38  1  0
 19 39  1  0
 20 40  1  0
 21 41  1  0
 23 42  1  0
 25 43  1  0
 26 44  1  0
 27 45  1  0
 28 46  1  0
 29 47  1  0
 30 48  1  0
M  CHG  2   1  -1  14  -1
M  END
>  <UniqueID>  (56) 
52

>  <SMILES>  (56) 
[NH-]S(=O)(=O)c1cccc(NC(=O)C[N-]C(=O)c2ccccc2Nc2ccccc2)c1

>  <Energy>  (56) 
61.25856810251072

>  <Genealogy>  (56) 
[NH-]S(=O)(=O)c1cccc(NC(=O)C[N-]C(=O)c2ccccc2Nc2ccccc2)c1 (protonated)
[NH-]S(=O)(=O)c1cccc(NC(=O)C[N-]C(=O)c2ccccc2Nc2ccccc2)c1 (3D coordinates assigned)
[NH-]S(=O)(=O)c1cccc(NC(=O)C[N-]C(=O)c2ccccc2Nc2ccccc2)c1 (optimized conformer: 61.25856810251072 kcal/mol)

>  <smiles>  (56) 
NS(=O)(=O)c1cccc(NC(=O)CNC(=O)c2ccccc2Nc2ccccc2)c1

>  <score_type>  (56) 
oracle

>  <origin>  (56) 
adg

>  <m_score__min__energy>  (56) 
-13.06

>  <m_primary>  (56) 
energy

$$$$
56:0
     RDKit          3D

 56 59  0  0  0  0  0  0  0  0999 V2000
   67.5400   33.3380   50.5210 C   0  0  0  0  0  0  0  0  0  0  0  0
   66.2790   33.0250   49.9750 O   0  0  0  0  0  0  0  0  0  0  0  0
   65.7750   31.8290   50.5470 C   0  0  0  0  0  0  0  0  0  0  0  0
   64.3270   31.5770   50.0960 C   0  0  0  0  0  0  0  0  0  0  0  0
   63.8650   32.6110   49.2220 O   0  0  0  0  0  0  0  0  0  0  0  0
   62.5750   33.1660   49.2840 C   0  0  0  0  0  0  0  0  0  0  0  0
   62.0030   33.5850   50.5090 C   0  0  0  0  0  0  0  0  0  0  0  0
   62.7740   33.6060   51.7970 C   0  0  0  0  0  0  0  0  0  0  0  0
   60.7210   34.0410   50.5320 N   0  0  0  0  0  0  0  0  0  0  0  0
   59.9670   34.1390   49.4110 C   0  0  0  0  0  0  0  0  0  0  0  0
   60.5050   33.8050   48.1650 C   0  0  0  0  0  0  0  0  0  0  0  0
   59.6900   33.9360   46.9860 N   0  0  0  0  0  0  0  0  0  0  0  0
   59.3280   35.2760   46.5110 C   0  0  0  0  0  0  0  0  0  0  0  0
   59.2900   35.2930   44.9800 C   0  0  0  0  0  0  0  0  0  0  0  0
   58.4830   34.2220   44.4860 O   0  0  0  0  0  0  0  0  0  0  0  0
   58.4890   32.9580   45.0860 C   0  0  0  0  0  0  0  0  0  0  0  0
   57.8850   31.8750   44.4380 C   0  0  0  0  0  0  0  0  0  0  0  0
   57.8990   30.6060   45.0290 C   0  0  0  0  0  0  0  0  0  0  0  0
   57.1660   29.2380   44.1960 S   0  0  0  0  0  0  0  0  0  0  0  0
   56.3600   29.7380   43.0300 O   0  0  0  0  0  0  0  0  0  0  0  0
   58.2330   28.3140   43.6740 O   0  0  0  0  0  0  0  0  0  0  0  0
   56.1240   28.3760   45.2820 N   0  0  0  0  0  0  0  0  0  0  0  0
   56.3880   27.1850   45.7250 C   0  0  0  0  0  0  0  0  0  0  0  0
   55.4450   26.2510   45.9870 N   0  0  0  0  0  0  0  0  0  0  0  0
   56.0050   25.0980   46.4420 C   0  0  0  0  0  0  0  0  0  0  0  0
   57.3910   25.1160   46.5470 C   0  0  0  0  0  0  0  0  0  0  0  0
   57.9370   26.6290   46.0470 S   0  0  0  0  0  0  0  0  0  0  0  0
   58.4930   30.4320   46.2850 C   0  0  0  0  0  0  0  0  0  0  0  0
   59.0750   31.5170   46.9470 C   0  0  0  0  0  0  0  0  0  0  0  0
   59.0920   32.7870   46.3440 C   0  0  0  0  0  0  0  0  0  0  0  0
   61.8430   33.3570   48.0900 C   0  0  0  0  0  0  0  0  0  0  0  0
   62.4840   33.0910   46.7480 C   0  0  0  0  0  0  0  0  0  0  0  0
   63.8120   33.5220   46.7650 O   0  0  0  0  0  0  0  0  0  0  0  0
   67.4781   33.3226   51.6192 H   0  0  0  0  0  0  0  0  0  0  0  0
   68.2794   32.5961   50.1850 H   0  0  0  0  0  0  0  0  0  0  0  0
   67.8467   34.3395   50.1850 H   0  0  0  0  0  0  0  0  0  0  0  0
   66.4040   30.9843   50.2295 H   0  0  0  0  0  0  0  0  0  0  0  0
   65.7914   31.9275   51.6425 H   0  0  0  0  0  0  0  0  0  0  0  0
   64.2794   30.6136   49.5672 H   0  0  0  0  0  0  0  0  0  0  0  0
   63.6837   31.5648   50.9882 H   0  0  0  0  0  0  0  0  0  0  0  0
   62.0729   33.5869   52.6444 H   0  0  0  0  0  0  0  0  0  0  0  0
   63.4315   32.7254   51.8452 H   0  0  0  0  0  0  0  0  0  0  0  0
   63.3826   34.5211   51.8452 H   0  0  0  0  0  0  0  0  0  0  0  0
   58.9248   34.4836   49.4817 H   0  0  0  0  0  0  0  0  0  0  0  0
   58.3368   35.5468   46.9036 H   0  0  0  0  0  0  0  0  0  0  0  0
   60.0775   36.0001   46.8630 H   0  0  0  0  0  0  0  0  0  0  0  0
   58.8687   36.2503   44.6392 H   0  0  0  0  0  0  0  0  0  0  0  0
   60.3143   35.1712   44.5980 H   0  0  0  0  0  0  0  0  0  0  0  0
   57.3983   32.0209   43.4624 H   0  0  0  0  0  0  0  0  0  0  0  0
   55.4047   24.2153   46.7076 H   0  0  0  0  0  0  0  0  0  0  0  0
   58.0222   24.2856   46.8963 H   0  0  0  0  0  0  0  0  0  0  0  0
   58.5017   29.4366   46.7531 H   0  0  0  0  0  0  0  0  0  0  0  0
   59.5210   31.3767   47.9427 H   0  0  0  0  0  0  0  0  0  0  0  0
   62.4528   32.0121   46.5357 H   0  0  0  0  0  0  0  0  0  0  0  0
   61.9343   33.6380   45.9679 H   0  0  0  0  0  0  0  0  0  0  0  0
   64.3440   32.7690   47.1290 H   0  0  0  0  0  0  0  0  0  0  0  0
  1  2  1  0
  2  3  1  0
  3  4  1  0
  4  5  1  0
  5  6  1  0
  6  7  2  0
  7  8  1  0
  7  9  1  0
  9 10  2  0
 10 11  1  0
 11 12  1  0
 12 13  1  0
 13 14  1  0
 14 15  1  0
 15 16  1  0
 16 17  2  0
 17 18  1  0
 18 19  1  0
 19 20  2  0
 19 21  2  0
 19 22  1  0
 22 23  2  3
 23 24  1  0
 24 25  1  0
 25 26  2  0
 26 27  1  0
 18 28  2  0
 28 29  1  0
 29 30  2  0
 11 31  2  0
 31 32  1  0
 32 33  1  0
 31  6  1  0
 30 12  1  0
 30 16  1  0
 27 23  1  0
  1 34  1  0
  1 35  1  0
  1 36  1  0
  3 37  1  0
  3 38  1  0
  4 39  1  0
  4 40  1  0
  8 41  1  0
  8 42  1  0
  8 43  1  0
 10 44  1  0
 13 45  1  0
 13 46  1  0
 14 47  1  0
 14 48  1  0
 17 49  1  0
 25 50  1  0
 26 51  1  0
 28 52  1  0
 29 53  1  0
 32 54  1  0
 32 55  1  0
 33 56  1  0
M  CHG  1  24  -1
M  END
>  <UniqueID>  (57) 
53

>  <SMILES>  (57) 
COCCOc1c(C)ncc(N2CCOc3cc(S(=O)(=O)N=c4[n-]ccs4)ccc32)c1CO

>  <Energy>  (57) 
108.67874675989785

>  <Genealogy>  (57) 
COCCOc1c(C)ncc(N2CCOc3cc(S(=O)(=O)N=c4[n-]ccs4)ccc32)c1CO (protonated)
COCCOc1c(C)ncc(N2CCOc3cc(S(=O)(=O)N=c4[n-]ccs4)ccc32)c1CO (3D coordinates assigned)
COCCOc1c(C)ncc(N2CCOc3cc(S(=O)(=O)N=c4[n-]ccs4)ccc32)c1CO (nonaromatic ring conformer: 108.67874675989785 kcal/mol)

>  <smiles>  (57) 
COCCOc1c(C)ncc(N2CCOc3cc(S(=O)(=O)N=c4[nH]ccs4)ccc32)c1CO

>  <score_type>  (57) 
oracle

>  <origin>  (57) 
adg

>  <m_score__min__energy>  (57) 
-10.800000000000001

>  <m_primary>  (57) 
energy

$$$$
57:0
     RDKit          3D

 31 32  0  0  0  0  0  0  0  0999 V2000
   62.1480   34.0330   50.0270 H   0  0  0  0  0  0  0  0  0  0  0  0
   62.7590   34.5330   49.3430 N   0  0  0  0  0  0  0  0  0  0  0  0
   62.8130   33.5670   47.9130 S   0  0  0  0  0  0  0  0  0  0  0  0
   63.7390   34.2030   46.9140 O   0  0  0  0  0  0  0  0  0  0  0  0
   63.3340   32.1980   48.2490 O   0  0  0  0  0  0  0  0  0  0  0  0
   61.1950   33.4380   47.2310 C   0  0  0  0  0  0  0  0  0  0  0  0
   60.5080   34.5910   46.8330 C   0  0  0  0  0  0  0  0  0  0  0  0
   60.9664   35.5801   46.9797 H   0  0  0  0  0  0  0  0  0  0  0  0
   59.2420   34.4900   46.2500 C   0  0  0  0  0  0  0  0  0  0  0  0
   58.7059   35.4005   45.9440 H   0  0  0  0  0  0  0  0  0  0  0  0
   58.6510   33.2310   46.0530 C   0  0  0  0  0  0  0  0  0  0  0  0
   57.3350   33.1110   45.3310 C   0  0  0  0  0  0  0  0  0  0  0  0
   56.5583   32.8224   46.0545 H   0  0  0  0  0  0  0  0  0  0  0  0
   57.1099   34.0849   44.8719 H   0  0  0  0  0  0  0  0  0  0  0  0
   57.3850   32.0610   44.2130 C   0  0  0  0  0  0  0  0  0  0  0  0
   57.1313   32.5429   43.2573 H   0  0  0  0  0  0  0  0  0  0  0  0
   58.4001   31.6386   44.1785 H   0  0  0  0  0  0  0  0  0  0  0  0
   56.4380   30.9700   44.4640 N   0  0  0  0  0  0  0  0  0  0  0  0
   56.7580   29.7760   44.8700 C   0  0  0  0  0  0  0  0  0  0  0  0
   55.8000   28.8540   45.1700 N   0  0  0  0  0  0  0  0  0  0  0  0
   56.1310   27.6180   45.6200 C   0  0  0  0  0  0  0  0  0  0  0  0
   55.1330   26.7020   45.9260 O   0  0  0  0  0  0  0  0  0  0  0  0
   57.4730   27.2710   45.7740 C   0  0  0  0  0  0  0  0  0  0  0  0
   57.7589   26.2739   46.1402 H   0  0  0  0  0  0  0  0  0  0  0  0
   58.4440   28.2200   45.4520 C   0  0  0  0  0  0  0  0  0  0  0  0
   59.6650   27.9440   45.5740 O   0  0  0  0  0  0  0  0  0  0  0  0
   58.0700   29.4490   45.0080 N   0  0  0  0  0  0  0  0  0  0  0  0
   59.3420   32.0760   46.4570 C   0  0  0  0  0  0  0  0  0  0  0  0
   58.8852   31.0858   46.3125 H   0  0  0  0  0  0  0  0  0  0  0  0
   60.6080   32.1800   47.0420 C   0  0  0  0  0  0  0  0  0  0  0  0
   61.1442   31.2718   47.3545 H   0  0  0  0  0  0  0  0  0  0  0  0
  1  2  1  0
  2  3  1  0
  3  4  2  0
  3  5  2  0
  3  6  1  0
  6  7  2  0
  7  8  1  0
  7  9  1  0
  9 10  1  0
  9 11  2  0
 11 12  1  0
 12 13  1  0
 12 14  1  0
 12 15  1  0
 15 16  1  0
 15 17  1  0
 15 18  1  0
 18 19  2  0
 19 20  1  0
 20 21  1  0
 21 22  1  0
 21 23  2  0
 23 24  1  0
 23 25  1  0
 25 26  2  0
 25 27  1  0
 11 28  1  0
 28 29  1  0
 28 30  2  0
 30 31  1  0
 30  6  1  0
 27 19  1  0
M  CHG  4   2  -1  20  -1  22  -1  27  -1
M  END
>  <UniqueID>  (58) 
54

>  <SMILES>  (58) 
[NH-]S(=O)(=O)c1ccc(CC/N=c2\[n-]c([O-])cc(=O)[n-]2)cc1

>  <Energy>  (58) 
28.366151383472655

>  <Genealogy>  (58) 
[NH-]S(=O)(=O)c1ccc(CCN=c2[n-]c([O-])cc(=O)[n-]2)cc1 (protonated)
[NH-]S(=O)(=O)c1ccc(CC/N=c2\[n-]c([O-])cc(=O)[n-]2)cc1 (cis-trans isomerization)
[NH-]S(=O)(=O)c1ccc(CC/N=c2\[n-]c([O-])cc(=O)[n-]2)cc1 (3D coordinates assigned)
[NH-]S(=O)(=O)c1ccc(CC/N=c2\[n-]c([O-])cc(=O)[n-]2)cc1 (optimized conformer: 28.366151383472655 kcal/mol)

>  <smiles>  (58) 
NS(=O)(=O)c1ccc(CCN=c2[nH]c(O)cc(=O)[nH]2)cc1

>  <score_type>  (58) 
oracle

>  <origin>  (58) 
adg

>  <m_score__min__energy>  (58) 
-16.149999999999999

>  <m_primary>  (58) 
energy

$$$$
58:0
     RDKit          3D

 61 65  0  0  0  0  0  0  0  0999 V2000
   57.7790   26.8180   44.4530 C   0  0  0  0  0  0  0  0  0  0  0  0
   57.4180   28.2530   44.6520 C   0  0  0  0  0  0  0  0  0  0  0  0
   56.2170   28.6760   44.9660 O   0  0  0  0  0  0  0  0  0  0  0  0
   56.2000   29.9660   45.1330 N   0  0  0  0  0  0  0  0  0  0  0  0
   57.4510   30.4150   44.9070 C   0  0  0  0  0  0  0  0  0  0  0  0
   57.8410   31.8280   45.0640 C   0  0  0  0  0  0  0  0  0  0  0  0
   58.4050   32.5190   43.9800 C   0  0  0  0  0  0  0  0  0  0  0  0
   58.7940   33.8530   44.1210 C   0  0  0  0  0  0  0  0  0  0  0  0
   58.6350   34.5030   45.3480 C   0  0  0  0  0  0  0  0  0  0  0  0
   58.0960   33.8150   46.4380 C   0  0  0  0  0  0  0  0  0  0  0  0
   57.7060   32.4800   46.3000 C   0  0  0  0  0  0  0  0  0  0  0  0
   58.2680   29.3410   44.5820 C   0  0  0  0  0  0  0  0  0  0  0  0
   59.7650   29.3030   44.4990 C   0  0  0  0  0  0  0  0  0  0  0  0
   60.2910   28.8780   45.7500 O   0  0  0  0  0  0  0  0  0  0  0  0
   59.8270   29.3660   46.9740 C   0  0  0  0  0  0  0  0  0  0  0  0
   60.1440   30.6690   47.3570 C   0  0  0  0  0  0  0  0  0  0  0  0
   59.6830   31.1580   48.5800 C   0  0  0  0  0  0  0  0  0  0  0  0
   58.9020   30.3470   49.4200 C   0  0  0  0  0  0  0  0  0  0  0  0
   58.4270   30.8580   50.7290 C   0  0  0  0  0  0  0  0  0  0  0  0
   58.6820   32.0490   51.0610 O   0  0  0  0  0  0  0  0  0  0  0  0
   57.6620   30.0300   51.6180 N   0  0  0  0  0  0  0  0  0  0  0  0
   57.5320   30.3260   53.0160 C   0  0  0  0  0  0  0  0  0  0  0  0
   58.6740   30.6950   53.7400 C   0  0  0  0  0  0  0  0  0  0  0  0
   58.5940   30.9480   55.1100 C   0  0  0  0  0  0  0  0  0  0  0  0
   57.3690   30.8460   55.7700 C   0  0  0  0  0  0  0  0  0  0  0  0
   56.2170   30.5070   55.0560 C   0  0  0  0  0  0  0  0  0  0  0  0
   56.2810   30.2530   53.6760 C   0  0  0  0  0  0  0  0  0  0  0  0
   55.0610   30.0110   52.9520 N   0  0  0  0  0  0  0  0  0  0  0  0
   54.7260   30.8620   51.8050 C   0  0  0  0  0  0  0  0  0  0  0  0
   53.2650   30.6700   51.4080 C   0  0  0  0  0  0  0  0  0  0  0  0
   52.4750   30.6330   52.5760 O   0  0  0  0  0  0  0  0  0  0  0  0
   52.6490   29.3950   53.2420 C   0  0  0  0  0  0  0  0  0  0  0  0
   54.1290   28.9710   53.4130 C   0  0  0  0  0  0  0  0  0  0  0  0
   58.6140   29.0370   48.9950 C   0  0  0  0  0  0  0  0  0  0  0  0
   59.0760   28.5860   47.7990 N   0  0  0  0  0  0  0  0  0  0  0  0
   57.9014   26.3315   45.4320 H   0  0  0  0  0  0  0  0  0  0  0  0
   56.9798   26.3135   43.8902 H   0  0  0  0  0  0  0  0  0  0  0  0
   58.7218   26.7517   43.8902 H   0  0  0  0  0  0  0  0  0  0  0  0
   58.5411   32.0077   43.0156 H   0  0  0  0  0  0  0  0  0  0  0  0
   59.2260   34.3927   43.2653 H   0  0  0  0  0  0  0  0  0  0  0  0
   58.9342   35.5561   45.4555 H   0  0  0  0  0  0  0  0  0  0  0  0
   57.9785   34.3245   47.4058 H   0  0  0  0  0  0  0  0  0  0  0  0
   57.2917   31.9381   47.1630 H   0  0  0  0  0  0  0  0  0  0  0  0
   60.0723   28.5985   43.7120 H   0  0  0  0  0  0  0  0  0  0  0  0
   60.1478   30.3057   44.2581 H   0  0  0  0  0  0  0  0  0  0  0  0
   60.7532   31.3068   46.6996 H   0  0  0  0  0  0  0  0  0  0  0  0
   59.9325   32.1841   48.8879 H   0  0  0  0  0  0  0  0  0  0  0  0
   57.0180   29.3180   51.2060 H   0  0  0  0  0  0  0  0  0  0  0  0
   59.6412   30.7859   53.2241 H   0  0  0  0  0  0  0  0  0  0  0  0
   59.4981   31.2283   55.6704 H   0  0  0  0  0  0  0  0  0  0  0  0
   57.3102   31.0325   56.8525 H   0  0  0  0  0  0  0  0  0  0  0  0
   55.2517   30.4384   55.5789 H   0  0  0  0  0  0  0  0  0  0  0  0
   54.8928   31.9154   52.0744 H   0  0  0  0  0  0  0  0  0  0  0  0
   55.3661   30.5829   50.9550 H   0  0  0  0  0  0  0  0  0  0  0  0
   52.9426   31.5065   50.7706 H   0  0  0  0  0  0  0  0  0  0  0  0
   53.1509   29.7283   50.8510 H   0  0  0  0  0  0  0  0  0  0  0  0
   52.1945   29.4732   54.2407 H   0  0  0  0  0  0  0  0  0  0  0  0
   52.1698   28.6280   52.6158 H   0  0  0  0  0  0  0  0  0  0  0  0
   54.3196   28.7711   54.4778 H   0  0  0  0  0  0  0  0  0  0  0  0
   54.2959   28.0723   52.8011 H   0  0  0  0  0  0  0  0  0  0  0  0
   58.0118   28.3744   49.6340 H   0  0  0  0  0  0  0  0  0  0  0  0
  1  2  1  0
  2  3  1  0
  3  4  1  0
  4  5  2  0
  5  6  1  0
  6  7  2  0
  7  8  1  0
  8  9  2  0
  9 10  1  0
 10 11  2  0
  5 12  1  0
 12 13  1  0
 13 14  1  0
 14 15  1  0
 15 16  2  0
 16 17  1  0
 17 18  2  0
 18 19  1  0
 19 20  2  0
 19 21  1  0
 21 22  1  0
 22 23  2  0
 23 24  1  0
 24 25  2  0
 25 26  1  0
 26 27  2  0
 27 28  1  0
 28 29  1  0
 29 30  1  0
 30 31  1  0
 31 32  1  0
 32 33  1  0
 18 34  1  0
 34 35  2  0
 12  2  2  0
 35 15  1  0
 11  6  1  0
 27 22  1  0
 33 28  1  0
  1 36  1  0
  1 37  1  0
  1 38  1  0
  7 39  1  0
  8 40  1  0
  9 41  1  0
 10 42  1  0
 11 43  1  0
 13 44  1  0
 13 45  1  0
 16 46  1  0
 17 47  1  0
 21 48  1  0
 23 49  1  0
 24 50  1  0
 25 51  1  0
 26 52  1  0
 29 53  1  0
 29 54  1  0
 30 55  1  0
 30 56  1  0
 32 57  1  0
 32 58  1  0
 33 59  1  0
 33 60  1  0
 34 61  1  0
M  END
>  <UniqueID>  (59) 
55

>  <SMILES>  (59) 
Cc1onc(-c2ccccc2)c1COc1ccc(C(=O)Nc2ccccc2N2CCOCC2)cn1

>  <Energy>  (59) 
117.04473278663112

>  <Genealogy>  (59) 
Cc1onc(-c2ccccc2)c1COc1ccc(C(=O)Nc2ccccc2N2CCOCC2)cn1 (3D coordinates assigned)
Cc1onc(-c2ccccc2)c1COc1ccc(C(=O)Nc2ccccc2N2CCOCC2)cn1 (nonaromatic ring conformer: 117.04473278663112 kcal/mol)

>  <smiles>  (59) 
Cc1onc(-c2ccccc2)c1COc1ccc(C(=O)Nc2ccccc2N2CCOCC2)cn1

>  <score_type>  (59) 
oracle

>  <origin>  (59) 
adg

>  <m_score__min__energy>  (59) 
-9.6600000000000001

>  <m_primary>  (59) 
energy

$$$$
59:0
     RDKit          3D

 48 51  0  0  0  0  0  0  0  0999 V2000
   60.9047   29.7400   44.7981 H   0  0  0  0  0  0  0  0  0  0  0  0
   59.9540   29.1870   44.8140 C   0  0  0  0  0  0  0  0  0  0  0  0
   59.9610   27.7940   44.8860 C   0  0  0  0  0  0  0  0  0  0  0  0
   60.9173   27.2512   44.9163 H   0  0  0  0  0  0  0  0  0  0  0  0
   58.7500   27.0820   44.9200 C   0  0  0  0  0  0  0  0  0  0  0  0
   58.7220   25.6500   45.0110 N   0  0  0  0  0  0  0  0  0  0  0  0
   58.6050   24.8850   46.2190 C   0  0  0  0  0  0  0  0  0  0  0  0
   58.6430   23.6300   46.1490 O   0  0  0  0  0  0  0  0  0  0  0  0
   58.4460   25.5040   47.5060 N   0  0  0  0  0  0  0  0  0  0  0  0
   58.9570   26.6430   47.8660 C   0  0  0  0  0  0  0  0  0  0  0  0
   58.3150   27.8330   47.7490 N   0  0  0  0  0  0  0  0  0  0  0  0
   59.0960   28.8440   48.2070 C   0  0  0  0  0  0  0  0  0  0  0  0
   58.7200   30.1860   48.2150 C   0  0  0  0  0  0  0  0  0  0  0  0
   57.7359   30.4947   47.8325 H   0  0  0  0  0  0  0  0  0  0  0  0
   59.6220   31.1370   48.7210 C   0  0  0  0  0  0  0  0  0  0  0  0
   59.3356   32.1988   48.7438 H   0  0  0  0  0  0  0  0  0  0  0  0
   60.8950   30.7460   49.2020 C   0  0  0  0  0  0  0  0  0  0  0  0
   61.7820   31.7460   49.7320 N   0  0  0  0  0  0  0  0  0  0  0  0
   61.4380   32.3330   50.5250 H   0  0  0  0  0  0  0  0  0  0  0  0
   63.0470   32.0870   49.1380 C   0  0  0  0  0  0  0  0  0  0  0  0
   63.2510   31.8370   47.9180 O   0  0  0  0  0  0  0  0  0  0  0  0
   64.0970   32.7760   49.9280 C   0  0  0  0  0  0  0  0  0  0  0  0
   65.4490   32.4380   49.7510 C   0  0  0  0  0  0  0  0  0  0  0  0
   65.7271   31.6635   49.0211 H   0  0  0  0  0  0  0  0  0  0  0  0
   66.4440   33.0790   50.4960 C   0  0  0  0  0  0  0  0  0  0  0  0
   67.4992   32.8085   50.3430 H   0  0  0  0  0  0  0  0  0  0  0  0
   66.1090   34.0610   51.4340 C   0  0  0  0  0  0  0  0  0  0  0  0
   67.1440   34.6750   52.1560 O   0  0  0  0  0  0  0  0  0  0  0  0
   67.5470   36.0300   51.9880 C   0  0  0  0  0  0  0  0  0  0  0  0
   67.6857   36.4963   52.9746 H   0  0  0  0  0  0  0  0  0  0  0  0
   68.4942   36.0643   51.4298 H   0  0  0  0  0  0  0  0  0  0  0  0
   66.7725   36.5764   51.4298 H   0  0  0  0  0  0  0  0  0  0  0  0
   64.7560   34.3970   51.6210 C   0  0  0  0  0  0  0  0  0  0  0  0
   64.4800   35.1672   52.3563 H   0  0  0  0  0  0  0  0  0  0  0  0
   63.7600   33.7570   50.8770 C   0  0  0  0  0  0  0  0  0  0  0  0
   62.7045   34.0232   51.0355 H   0  0  0  0  0  0  0  0  0  0  0  0
   61.2480   29.3790   49.2010 C   0  0  0  0  0  0  0  0  0  0  0  0
   62.2214   29.0484   49.5924 H   0  0  0  0  0  0  0  0  0  0  0  0
   60.3350   28.4600   48.6930 C   0  0  0  0  0  0  0  0  0  0  0  0
   60.4910   26.7920   48.5600 S   0  0  0  0  0  0  0  0  0  0  0  0
   57.5390   27.7810   44.8430 C   0  0  0  0  0  0  0  0  0  0  0  0
   56.5899   27.2250   44.8372 H   0  0  0  0  0  0  0  0  0  0  0  0
   57.5220   29.1860   44.7730 C   0  0  0  0  0  0  0  0  0  0  0  0
   56.2410   29.9230   44.7140 C   0  0  0  0  0  0  0  0  0  0  0  0
   55.1450   29.3140   44.8390 O   0  0  0  0  0  0  0  0  0  0  0  0
   56.2290   31.3000   44.5230 O   0  0  0  0  0  0  0  0  0  0  0  0
   58.7430   29.8820   44.7620 C   0  0  0  0  0  0  0  0  0  0  0  0
   58.7452   30.9809   44.7121 H   0  0  0  0  0  0  0  0  0  0  0  0
  1  2  1  0
  2  3  2  0
  3  4  1  0
  3  5  1  0
  5  6  1  0
  6  7  1  0
  7  8  2  0
  7  9  1  0
  9 10  2  0
 10 11  1  0
 11 12  1  0
 12 13  2  0
 13 14  1  0
 13 15  1  0
 15 16  1  0
 15 17  2  0
 17 18  1  0
 18 19  1  0
 18 20  1  0
 20 21  2  0
 20 22  1  0
 22 23  2  0
 23 24  1  0
 23 25  1  0
 25 26  1  0
 25 27  2  0
 27 28  1  0
 28 29  1  0
 29 30  1  0
 29 31  1  0
 29 32  1  0
 27 33  1  0
 33 34  1  0
 33 35  2  0
 35 36  1  0
 17 37  1  0
 37 38  1  0
 37 39  2  0
 39 40  1  0
  5 41  2  0
 41 42  1  0
 41 43  1  0
 43 44  1  0
 44 45  2  0
 44 46  1  0
 43 47  2  0
 47 48  1  0
 47  2  1  0
 40 10  1  0
 39 12  1  0
 35 22  1  0
M  CHG  3   6  -1  11  -1  46  -1
M  END
>  <UniqueID>  (60) 
56

>  <SMILES>  (60) 
COc1ccc(C(=O)Nc2ccc3[n-]/c(=N\C(=O)[N-]c4cccc(C(=O)[O-])c4)sc3c2)cc1

>  <Energy>  (60) 
100.23209448227159

>  <Genealogy>  (60) 
COc1ccc(C(=O)Nc2ccc3[n-]c(=NC(=O)[N-]c4cccc(C(=O)[O-])c4)sc3c2)cc1 (protonated)
COc1ccc(C(=O)Nc2ccc3[n-]/c(=N\C(=O)[N-]c4cccc(C(=O)[O-])c4)sc3c2)cc1 (cis-trans isomerization)
COc1ccc(C(=O)Nc2ccc3[n-]/c(=N\C(=O)[N-]c4cccc(C(=O)[O-])c4)sc3c2)cc1 (3D coordinates assigned)
COc1ccc(C(=O)Nc2ccc3[n-]/c(=N\C(=O)[N-]c4cccc(C(=O)[O-])c4)sc3c2)cc1 (optimized conformer: 100.23209448227159 kcal/mol)

>  <smiles>  (60) 
COc1ccc(C(=O)Nc2ccc3[nH]c(=NC(=O)Nc4cccc(C(=O)O)c4)sc3c2)cc1

>  <score_type>  (60) 
oracle

>  <origin>  (60) 
adg

>  <m_score__min__energy>  (60) 
-13.67

>  <m_primary>  (60) 
energy

$$$$
60:0
     RDKit          3D

 52 54  0  0  0  0  0  0  0  0999 V2000
   57.3790   24.2390   48.5800 C   0  0  0  0  0  0  0  0  0  0  0  0
   56.4280   23.5030   47.6730 C   0  0  0  0  0  0  0  0  0  0  0  0
   55.8780   22.2830   48.0990 C   0  0  0  0  0  0  0  0  0  0  0  0
   54.9990   21.5790   47.2800 C   0  0  0  0  0  0  0  0  0  0  0  0
   54.6560   22.0780   46.0250 C   0  0  0  0  0  0  0  0  0  0  0  0
   55.1840   23.2970   45.5730 C   0  0  0  0  0  0  0  0  0  0  0  0
   54.8240   23.7810   44.1930 C   0  0  0  0  0  0  0  0  0  0  0  0
   56.0900   24.0130   46.3950 C   0  0  0  0  0  0  0  0  0  0  0  0
   56.6760   25.2940   45.9340 C   0  0  0  0  0  0  0  0  0  0  0  0
   58.0500   25.3730   45.6720 C   0  0  0  0  0  0  0  0  0  0  0  0
   58.6180   26.5820   45.2700 C   0  0  0  0  0  0  0  0  0  0  0  0
   57.8240   27.7240   45.1460 C   0  0  0  0  0  0  0  0  0  0  0  0
   56.4540   27.6740   45.4300 C   0  0  0  0  0  0  0  0  0  0  0  0
   55.6800   28.8710   45.2510 N   0  0  0  0  0  0  0  0  0  0  0  0
   56.0720   30.0190   44.4910 C   0  0  0  0  0  0  0  0  0  0  0  0
   55.5120   30.2720   43.3910 O   0  0  0  0  0  0  0  0  0  0  0  0
   57.1170   30.8810   44.9580 N   0  0  0  0  0  0  0  0  0  0  0  0
   57.0230   32.3370   45.0670 C   0  0  0  0  0  0  0  0  0  0  0  0
   58.1320   32.9390   45.9000 C   0  0  0  0  0  0  0  0  0  0  0  0
   58.5180   32.3040   47.0910 C   0  0  0  0  0  0  0  0  0  0  0  0
   59.5760   32.8080   47.8510 C   0  0  0  0  0  0  0  0  0  0  0  0
   60.2790   33.9380   47.4250 C   0  0  0  0  0  0  0  0  0  0  0  0
   61.4090   34.3740   48.1880 N   0  0  0  0  0  0  0  0  0  0  0  0
   62.9950   33.6900   48.0580 S   0  0  0  0  0  0  0  0  0  0  0  0
   62.8590   31.9240   47.8740 C   0  0  0  0  0  0  0  0  0  0  0  0
   63.7560   33.9840   49.3210 O   0  0  0  0  0  0  0  0  0  0  0  0
   63.7290   34.2880   46.8920 O   0  0  0  0  0  0  0  0  0  0  0  0
   59.8620   34.6110   46.2630 C   0  0  0  0  0  0  0  0  0  0  0  0
   58.7750   34.1320   45.5240 C   0  0  0  0  0  0  0  0  0  0  0  0
   55.8700   26.4380   45.7930 C   0  0  0  0  0  0  0  0  0  0  0  0
   54.4960   26.3260   45.9860 O   0  0  0  0  0  0  0  0  0  0  0  0
   57.1166   24.0359   49.6288 H   0  0  0  0  0  0  0  0  0  0  0  0
   58.4071   23.8990   48.3868 H   0  0  0  0  0  0  0  0  0  0  0  0
   57.3077   25.3196   48.3868 H   0  0  0  0  0  0  0  0  0  0  0  0
   56.1437   21.8803   49.0876 H   0  0  0  0  0  0  0  0  0  0  0  0
   54.5737   20.6251   47.6251 H   0  0  0  0  0  0  0  0  0  0  0  0
   53.9654   21.5115   45.3831 H   0  0  0  0  0  0  0  0  0  0  0  0
   54.1692   24.6613   44.2724 H   0  0  0  0  0  0  0  0  0  0  0  0
   55.7406   24.0536   43.6493 H   0  0  0  0  0  0  0  0  0  0  0  0
   54.2993   22.9816   43.6493 H   0  0  0  0  0  0  0  0  0  0  0  0
   58.6822   24.4798   45.7835 H   0  0  0  0  0  0  0  0  0  0  0  0
   59.6944   26.6359   45.0501 H   0  0  0  0  0  0  0  0  0  0  0  0
   58.2792   28.6716   44.8222 H   0  0  0  0  0  0  0  0  0  0  0  0
   57.0701   32.7681   44.0561 H   0  0  0  0  0  0  0  0  0  0  0  0
   56.0716   32.5691   45.5679 H   0  0  0  0  0  0  0  0  0  0  0  0
   57.9837   31.4035   47.4280 H   0  0  0  0  0  0  0  0  0  0  0  0
   59.8578   32.3119   48.7915 H   0  0  0  0  0  0  0  0  0  0  0  0
   62.8228   31.4535   48.8677 H   0  0  0  0  0  0  0  0  0  0  0  0
   61.9396   31.6828   47.3203 H   0  0  0  0  0  0  0  0  0  0  0  0
   63.7306   31.5448   47.3203 H   0  0  0  0  0  0  0  0  0  0  0  0
   60.3921   35.5169   45.9340 H   0  0  0  0  0  0  0  0  0  0  0  0
   58.4216   34.6909   44.6449 H   0  0  0  0  0  0  0  0  0  0  0  0
  1  2  1  0
  2  3  2  0
  3  4  1  0
  4  5  2  0
  5  6  1  0
  6  7  1  0
  6  8  2  0
  8  9  1  0
  9 10  2  0
 10 11  1  0
 11 12  2  0
 12 13  1  0
 13 14  1  0
 14 15  1  0
 15 16  2  0
 15 17  1  0
 17 18  1  0
 18 19  1  0
 19 20  2  0
 20 21  1  0
 21 22  2  0
 22 23  1  0
 23 24  1  0
 24 25  1  0
 24 26  2  0
 24 27  2  0
 22 28  1  0
 28 29  2  0
 13 30  2  0
 30 31  1  0
  8  2  1  0
 30  9  1  0
 29 19  1  0
  1 32  1  0
  1 33  1  0
  1 34  1  0
  3 35  1  0
  4 36  1  0
  5 37  1  0
  7 38  1  0
  7 39  1  0
  7 40  1  0
 10 41  1  0
 11 42  1  0
 12 43  1  0
 18 44  1  0
 18 45  1  0
 20 46  1  0
 21 47  1  0
 25 48  1  0
 25 49  1  0
 25 50  1  0
 28 51  1  0
 29 52  1  0
M  CHG  4  14  -1  17  -1  23  -1  31  -1
M  END
>  <UniqueID>  (61) 
57

>  <SMILES>  (61) 
Cc1cccc(C)c1-c1cccc([N-]C(=O)[N-]Cc2ccc([N-]S(C)(=O)=O)cc2)c1[O-]

>  <Energy>  (61) 
65.20677967241939

>  <Genealogy>  (61) 
Cc1cccc(C)c1-c1cccc([N-]C(=O)[N-]Cc2ccc([N-]S(C)(=O)=O)cc2)c1[O-] (protonated)
Cc1cccc(C)c1-c1cccc([N-]C(=O)[N-]Cc2ccc([N-]S(C)(=O)=O)cc2)c1[O-] (3D coordinates assigned)
Cc1cccc(C)c1-c1cccc([N-]C(=O)[N-]Cc2ccc([N-]S(C)(=O)=O)cc2)c1[O-] (optimized conformer: 65.20677967241939 kcal/mol)

>  <smiles>  (61) 
Cc1cccc(C)c1-c1cccc(NC(=O)NCc2ccc(NS(C)(=O)=O)cc2)c1O

>  <score_type>  (61) 
oracle

>  <origin>  (61) 
adg

>  <m_score__min__energy>  (61) 
-16.75

>  <m_primary>  (61) 
energy

$$$$
61:0
     RDKit          3D

 44 45  0  0  0  0  0  0  0  0999 V2000
   61.1060   33.9900   49.4430 C   0  0  0  0  0  0  0  0  0  0  0  0
   60.0610   34.6780   48.7620 O   0  0  0  0  0  0  0  0  0  0  0  0
   59.3970   34.1870   47.6280 C   0  0  0  0  0  0  0  0  0  0  0  0
   58.4040   33.1940   47.7050 C   0  0  0  0  0  0  0  0  0  0  0  0
   57.7720   32.7380   46.5440 C   0  0  0  0  0  0  0  0  0  0  0  0
   58.1210   33.2570   45.2920 C   0  0  0  0  0  0  0  0  0  0  0  0
   57.4540   32.7570   44.1620 O   0  0  0  0  0  0  0  0  0  0  0  0
   58.0630   32.0460   43.0830 C   0  0  0  0  0  0  0  0  0  0  0  0
   57.0160   31.3420   42.2080 C   0  0  0  0  0  0  0  0  0  0  0  0
   56.5820   29.9630   42.7400 C   0  0  0  0  0  0  0  0  0  0  0  0
   55.6520   30.0360   43.9660 C   0  0  0  0  0  0  0  0  0  0  0  0
   56.4340   30.0410   45.2120 N   0  0  0  0  0  0  0  0  0  0  0  0
   57.5550   29.0940   45.1430 C   0  0  0  0  0  0  0  0  0  0  0  0
   58.6460   29.4970   46.1000 C   0  0  0  0  0  0  0  0  0  0  0  0
   58.5030   29.2750   47.4810 C   0  0  0  0  0  0  0  0  0  0  0  0
   59.5280   29.6370   48.3610 C   0  0  0  0  0  0  0  0  0  0  0  0
   60.7010   30.2170   47.8690 C   0  0  0  0  0  0  0  0  0  0  0  0
   60.8520   30.4360   46.4980 C   0  0  0  0  0  0  0  0  0  0  0  0
   59.8290   30.0760   45.6140 C   0  0  0  0  0  0  0  0  0  0  0  0
   59.1100   34.2550   45.2160 C   0  0  0  0  0  0  0  0  0  0  0  0
   59.7420   34.7100   46.3770 C   0  0  0  0  0  0  0  0  0  0  0  0
   60.9609   34.0855   50.5292 H   0  0  0  0  0  0  0  0  0  0  0  0
   61.0882   32.9264   49.1628 H   0  0  0  0  0  0  0  0  0  0  0  0
   62.0759   34.4267   49.1628 H   0  0  0  0  0  0  0  0  0  0  0  0
   58.1234   32.7744   48.6824 H   0  0  0  0  0  0  0  0  0  0  0  0
   56.9934   31.9643   46.6154 H   0  0  0  0  0  0  0  0  0  0  0  0
   58.6284   32.7560   42.4616 H   0  0  0  0  0  0  0  0  0  0  0  0
   58.7281   31.2796   43.5077 H   0  0  0  0  0  0  0  0  0  0  0  0
   56.1260   31.9856   42.1477 H   0  0  0  0  0  0  0  0  0  0  0  0
   57.4826   31.1727   41.2263 H   0  0  0  0  0  0  0  0  0  0  0  0
   56.0540   29.4308   41.9350 H   0  0  0  0  0  0  0  0  0  0  0  0
   57.4954   29.4405   43.0605 H   0  0  0  0  0  0  0  0  0  0  0  0
   55.0540   30.9576   43.9113 H   0  0  0  0  0  0  0  0  0  0  0  0
   54.9947   29.1540   43.9644 H   0  0  0  0  0  0  0  0  0  0  0  0
   55.8110   29.7260   45.9900 H   0  0  0  0  0  0  0  0  0  0  0  0
   57.1959   28.0882   45.4064 H   0  0  0  0  0  0  0  0  0  0  0  0
   57.9602   29.0964   44.1203 H   0  0  0  0  0  0  0  0  0  0  0  0
   57.5826   28.8154   47.8703 H   0  0  0  0  0  0  0  0  0  0  0  0
   59.4111   29.4652   49.4412 H   0  0  0  0  0  0  0  0  0  0  0  0
   61.5061   30.5012   48.5626 H   0  0  0  0  0  0  0  0  0  0  0  0
   61.7760   30.8919   46.1128 H   0  0  0  0  0  0  0  0  0  0  0  0
   59.9521   30.2472   44.5344 H   0  0  0  0  0  0  0  0  0  0  0  0
   59.3869   34.6788   44.2394 H   0  0  0  0  0  0  0  0  0  0  0  0
   60.5179   35.4865   46.3063 H   0  0  0  0  0  0  0  0  0  0  0  0
  1  2  1  0
  2  3  1  0
  3  4  2  0
  4  5  1  0
  5  6  2  0
  6  7  1  0
  7  8  1  0
  8  9  1  0
  9 10  1  0
 10 11  1  0
 11 12  1  0
 12 13  1  0
 13 14  1  0
 14 15  2  0
 15 16  1  0
 16 17  2  0
 17 18  1  0
 18 19  2  0
  6 20  1  0
 20 21  2  0
 21  3  1  0
 19 14  1  0
  1 22  1  0
  1 23  1  0
  1 24  1  0
  4 25  1  0
  5 26  1  0
  8 27  1  0
  8 28  1  0
  9 29  1  0
  9 30  1  0
 10 31  1  0
 10 32  1  0
 11 33  1  0
 11 34  1  0
 12 35  1  0
 13 36  1  0
 13 37  1  0
 15 38  1  0
 16 39  1  0
 17 40  1  0
 18 41  1  0
 19 42  1  0
 20 43  1  0
 21 44  1  0
M  END
>  <UniqueID>  (62) 
58

>  <SMILES>  (62) 
COc1ccc(OCCCCNCc2ccccc2)cc1

>  <Energy>  (62) 
40.08947236260336

>  <Genealogy>  (62) 
COc1ccc(OCCCCNCc2ccccc2)cc1 (3D coordinates assigned)
COc1ccc(OCCCCNCc2ccccc2)cc1 (optimized conformer: 40.08947236260336 kcal/mol)

>  <smiles>  (62) 
COc1ccc(OCCCCNCc2ccccc2)cc1

>  <score_type>  (62) 
oracle

>  <origin>  (62) 
adg

>  <m_score__min__energy>  (62) 
-7.2400000000000002

>  <m_primary>  (62) 
energy

$$$$
62:0
     RDKit          3D

 48 51  0  0  0  0  0  0  0  0999 V2000
   56.3866   33.2249   44.5194 H   0  0  0  0  0  0  0  0  0  0  0  0
   57.0770   32.6800   45.1800 C   0  0  0  0  0  0  0  0  0  0  0  0
   57.0190   31.3290   45.2500 N   0  0  0  0  0  0  0  0  0  0  0  0
   57.8820   30.6120   46.0160 C   0  0  0  0  0  0  0  0  0  0  0  0
   57.8050   29.2150   45.9950 C   0  0  0  0  0  0  0  0  0  0  0  0
   56.9988   28.7194   45.4342 H   0  0  0  0  0  0  0  0  0  0  0  0
   58.7460   28.4480   46.6820 C   0  0  0  0  0  0  0  0  0  0  0  0
   58.6540   26.6980   46.6390 Cl  0  0  0  0  0  0  0  0  0  0  0  0
   59.7910   29.0770   47.3600 C   0  0  0  0  0  0  0  0  0  0  0  0
   60.5550   28.4713   47.8693 H   0  0  0  0  0  0  0  0  0  0  0  0
   59.8730   30.4710   47.3960 C   0  0  0  0  0  0  0  0  0  0  0  0
   60.7225   30.9524   47.9026 H   0  0  0  0  0  0  0  0  0  0  0  0
   58.8770   31.2710   46.7890 C   0  0  0  0  0  0  0  0  0  0  0  0
   58.8700   32.7030   46.8120 C   0  0  0  0  0  0  0  0  0  0  0  0
   59.5800   33.4490   47.6180 N   0  0  0  0  0  0  0  0  0  0  0  0
   61.0000   33.5880   47.7430 C   0  0  0  0  0  0  0  0  0  0  0  0
   61.8270   33.3300   46.6360 C   0  0  0  0  0  0  0  0  0  0  0  0
   61.3798   33.0174   45.6809 H   0  0  0  0  0  0  0  0  0  0  0  0
   63.2130   33.4680   46.7410 C   0  0  0  0  0  0  0  0  0  0  0  0
   63.8527   33.2764   45.8669 H   0  0  0  0  0  0  0  0  0  0  0  0
   63.7860   33.8490   47.9550 C   0  0  0  0  0  0  0  0  0  0  0  0
   64.8763   33.9715   48.0335 H   0  0  0  0  0  0  0  0  0  0  0  0
   62.9760   34.0750   49.0710 C   0  0  0  0  0  0  0  0  0  0  0  0
   63.4337   34.3782   50.0242 H   0  0  0  0  0  0  0  0  0  0  0  0
   61.5870   33.9190   48.9870 C   0  0  0  0  0  0  0  0  0  0  0  0
   60.8270   34.1630   50.1410 O   0  0  0  0  0  0  0  0  0  0  0  0
   60.1960   33.1800   50.9120 C   0  0  0  0  0  0  0  0  0  0  0  0
   60.5770   32.9390   52.0900 O   0  0  0  0  0  0  0  0  0  0  0  0
   59.0610   32.4950   50.3690 N   0  0  0  0  0  0  0  0  0  0  0  0
   58.6190   32.8770   49.5040 H   0  0  0  0  0  0  0  0  0  0  0  0
   58.3720   31.4720   51.0980 C   0  0  0  0  0  0  0  0  0  0  0  0
   56.9910   31.6020   51.2970 C   0  0  0  0  0  0  0  0  0  0  0  0
   56.4580   32.4700   50.8815 H   0  0  0  0  0  0  0  0  0  0  0  0
   56.2880   30.6370   52.0190 C   0  0  0  0  0  0  0  0  0  0  0  0
   55.2051   30.7494   52.1764 H   0  0  0  0  0  0  0  0  0  0  0  0
   56.9560   29.5310   52.5410 C   0  0  0  0  0  0  0  0  0  0  0  0
   56.4017   28.7778   53.1202 H   0  0  0  0  0  0  0  0  0  0  0  0
   58.3290   29.3770   52.3300 C   0  0  0  0  0  0  0  0  0  0  0  0
   58.8478   28.4982   52.7406 H   0  0  0  0  0  0  0  0  0  0  0  0
   59.0560   30.3370   51.5960 C   0  0  0  0  0  0  0  0  0  0  0  0
   60.4600   30.1480   51.3140 N   0  0  0  0  0  0  0  0  0  0  0  0
   61.1400   30.9070   51.5410 H   0  0  0  0  0  0  0  0  0  0  0  0
   60.9940   28.9680   50.6430 C   0  0  0  0  0  0  0  0  0  0  0  0
   61.3249   28.2368   51.3952 H   0  0  0  0  0  0  0  0  0  0  0  0
   60.2116   28.5184   50.0139 H   0  0  0  0  0  0  0  0  0  0  0  0
   61.8481   29.2590   50.0139 H   0  0  0  0  0  0  0  0  0  0  0  0
   58.0070   33.3810   45.9410 C   0  0  0  0  0  0  0  0  0  0  0  0
   58.0653   34.4763   45.8582 H   0  0  0  0  0  0  0  0  0  0  0  0
  1  2  1  0
  2  3  1  0
  3  4  1  0
  4  5  2  0
  5  6  1  0
  5  7  1  0
  7  8  1  0
  7  9  2  0
  9 10  1  0
  9 11  1  0
 11 12  1  0
 11 13  2  0
 13 14  1  0
 14 15  2  0
 15 16  1  0
 16 17  2  0
 17 18  1  0
 17 19  1  0
 19 20  1  0
 19 21  2  0
 21 22  1  0
 21 23  1  0
 23 24  1  0
 23 25  2  0
 25 26  1  0
 26 27  1  0
 27 28  2  0
 27 29  1  0
 29 30  1  0
 29 31  1  0
 31 32  2  0
 32 33  1  0
 32 34  1  0
 34 35  1  0
 34 36  2  0
 36 37  1  0
 36 38  1  0
 38 39  1  0
 38 40  2  0
 40 41  1  0
 41 42  1  0
 41 43  1  0
 43 44  1  0
 43 45  1  0
 43 46  1  0
 14 47  1  0
 47 48  1  0
 47  2  2  0
 13  4  1  0
 25 16  1  0
 40 31  1  0
M  CHG  1   3  -1
M  END
>  <UniqueID>  (63) 
59

>  <SMILES>  (63) 
CNc1ccccc1NC(=O)Oc1ccccc1/N=c1/cc[n-]c2cc(Cl)ccc12

>  <Energy>  (63) 
86.16569375398795

>  <Genealogy>  (63) 
CNc1ccccc1NC(=O)Oc1ccccc1N=c1cc[n-]c2cc(Cl)ccc12 (protonated)
CNc1ccccc1NC(=O)Oc1ccccc1/N=c1/cc[n-]c2cc(Cl)ccc12 (cis-trans isomerization)
CNc1ccccc1NC(=O)Oc1ccccc1/N=c1/cc[n-]c2cc(Cl)ccc12 (3D coordinates assigned)
CNc1ccccc1NC(=O)Oc1ccccc1/N=c1/cc[n-]c2cc(Cl)ccc12 (optimized conformer: 86.16569375398795 kcal/mol)

>  <smiles>  (63) 
CNc1ccccc1NC(=O)Oc1ccccc1N=c1cc[nH]c2cc(Cl)ccc12

>  <score_type>  (63) 
oracle

>  <origin>  (63) 
adg

>  <m_score__min__energy>  (63) 
-10.369999999999999

>  <m_primary>  (63) 
energy

$$$$
63:0
     RDKit          3D

 36 38  0  0  0  0  0  0  0  0999 V2000
   56.9500   31.8877   42.0384 H   0  0  0  0  0  0  0  0  0  0  0  0
   57.1160   31.2140   42.8920 C   0  0  0  0  0  0  0  0  0  0  0  0
   58.3980   31.0630   43.4230 C   0  0  0  0  0  0  0  0  0  0  0  0
   59.2411   31.6198   42.9881 H   0  0  0  0  0  0  0  0  0  0  0  0
   58.6130   30.2060   44.5060 C   0  0  0  0  0  0  0  0  0  0  0  0
   59.6238   30.0983   44.9262 H   0  0  0  0  0  0  0  0  0  0  0  0
   57.5440   29.4810   45.0610 C   0  0  0  0  0  0  0  0  0  0  0  0
   57.7850   28.5950   46.2550 C   0  0  0  0  0  0  0  0  0  0  0  0
   58.0563   27.5860   45.9111 H   0  0  0  0  0  0  0  0  0  0  0  0
   56.8683   28.5484   46.8612 H   0  0  0  0  0  0  0  0  0  0  0  0
   58.8960   29.1500   47.0870 C   0  0  0  0  0  0  0  0  0  0  0  0
   59.9130   28.4430   47.3200 O   0  0  0  0  0  0  0  0  0  0  0  0
   58.7520   30.4580   47.6640 N   0  0  0  0  0  0  0  0  0  0  0  0
   59.3260   31.5810   47.3190 C   0  0  0  0  0  0  0  0  0  0  0  0
   58.6910   32.5270   46.4890 C   0  0  0  0  0  0  0  0  0  0  0  0
   57.6791   32.3262   46.1073 H   0  0  0  0  0  0  0  0  0  0  0  0
   59.3400   33.7230   46.1460 C   0  0  0  0  0  0  0  0  0  0  0  0
   58.6720   34.7140   45.2710 C   0  0  0  0  0  0  0  0  0  0  0  0
   59.2870   35.7380   44.8720 O   0  0  0  0  0  0  0  0  0  0  0  0
   57.3530   34.5260   44.8760 O   0  0  0  0  0  0  0  0  0  0  0  0
   60.5900   33.9740   46.6320 N   0  0  0  0  0  0  0  0  0  0  0  0
   61.0680   34.8670   46.3710 H   0  0  0  0  0  0  0  0  0  0  0  0
   61.2300   33.1010   47.4580 C   0  0  0  0  0  0  0  0  0  0  0  0
   62.5100   33.4080   47.9500 C   0  0  0  0  0  0  0  0  0  0  0  0
   62.9934   34.3533   47.6623 H   0  0  0  0  0  0  0  0  0  0  0  0
   63.1730   32.5210   48.8020 C   0  0  0  0  0  0  0  0  0  0  0  0
   64.7710   32.9170   49.4100 Cl  0  0  0  0  0  0  0  0  0  0  0  0
   62.5650   31.3200   49.1700 C   0  0  0  0  0  0  0  0  0  0  0  0
   63.0886   30.6237   49.8416 H   0  0  0  0  0  0  0  0  0  0  0  0
   61.2930   30.9990   48.6880 C   0  0  0  0  0  0  0  0  0  0  0  0
   60.8215   30.0498   48.9826 H   0  0  0  0  0  0  0  0  0  0  0  0
   60.6090   31.8820   47.8270 C   0  0  0  0  0  0  0  0  0  0  0  0
   56.2490   29.6490   44.5290 C   0  0  0  0  0  0  0  0  0  0  0  0
   55.1640   28.9690   45.0720 O   0  0  0  0  0  0  0  0  0  0  0  0
   56.0430   30.5090   43.4450 C   0  0  0  0  0  0  0  0  0  0  0  0
   55.0331   30.6309   43.0263 H   0  0  0  0  0  0  0  0  0  0  0  0
  1  2  1  0
  2  3  2  0
  3  4  1  0
  3  5  1  0
  5  6  1  0
  5  7  2  0
  7  8  1  0
  8  9  1  0
  8 10  1  0
  8 11  1  0
 11 12  2  0
 11 13  1  0
 13 14  2  0
 14 15  1  0
 15 16  1  0
 15 17  2  0
 17 18  1  0
 18 19  2  0
 18 20  1  0
 17 21  1  0
 21 22  1  0
 21 23  1  0
 23 24  2  0
 24 25  1  0
 24 26  1  0
 26 27  1  0
 26 28  2  0
 28 29  1  0
 28 30  1  0
 30 31  1  0
 30 32  2  0
  7 33  1  0
 33 34  1  0
 33 35  2  0
 35 36  1  0
 35  2  1  0
 32 14  1  0
 32 23  1  0
M  CHG  2  20  -1  34  -1
M  END
>  <UniqueID>  (64) 
60

>  <SMILES>  (64) 
O=C(Cc1ccccc1[O-])/N=c1\cc(C(=O)[O-])[nH]c2cc(Cl)ccc12

>  <Energy>  (64) 
50.615560432068065

>  <Genealogy>  (64) 
O=C(Cc1ccccc1[O-])N=c1cc(C(=O)[O-])[nH]c2cc(Cl)ccc12 (protonated)
O=C(Cc1ccccc1[O-])/N=c1\cc(C(=O)[O-])[nH]c2cc(Cl)ccc12 (cis-trans isomerization)
O=C(Cc1ccccc1[O-])/N=c1\cc(C(=O)[O-])[nH]c2cc(Cl)ccc12 (3D coordinates assigned)
O=C(Cc1ccccc1[O-])/N=c1\cc(C(=O)[O-])[nH]c2cc(Cl)ccc12 (optimized conformer: 50.615560432068065 kcal/mol)

>  <smiles>  (64) 
O=C(Cc1ccccc1O)N=c1cc(C(=O)O)[nH]c2cc(Cl)ccc12

>  <score_type>  (64) 
oracle

>  <origin>  (64) 
adg

>  <m_score__min__energy>  (64) 
-13.050000000000001

>  <m_primary>  (64) 
energy

$$$$
64:0
     RDKit          3D

 52 55  0  0  0  0  0  0  0  0999 V2000
   57.9350   32.3280   50.0720 O   0  0  0  0  0  0  0  0  0  0  0  0
   58.7640   31.9900   49.1870 C   0  0  0  0  0  0  0  0  0  0  0  0
   58.3090   31.8800   47.7550 C   0  0  0  0  0  0  0  0  0  0  0  0
   58.7530   33.0610   46.9290 C   0  0  0  0  0  0  0  0  0  0  0  0
   58.6140   33.0400   45.5300 C   0  0  0  0  0  0  0  0  0  0  0  0
   59.0180   34.1380   44.7640 C   0  0  0  0  0  0  0  0  0  0  0  0
   59.5480   35.2700   45.3880 C   0  0  0  0  0  0  0  0  0  0  0  0
   59.6700   35.3090   46.7790 C   0  0  0  0  0  0  0  0  0  0  0  0
   59.2690   34.2130   47.5490 C   0  0  0  0  0  0  0  0  0  0  0  0
   60.0970   31.6460   49.5840 N   0  0  0  0  0  0  0  0  0  0  0  0
   61.2890   32.1550   48.9750 C   0  0  0  0  0  0  0  0  0  0  0  0
   61.9380   33.2640   49.5390 C   0  0  0  0  0  0  0  0  0  0  0  0
   63.0730   33.8050   48.9320 C   0  0  0  0  0  0  0  0  0  0  0  0
   63.5740   33.2360   47.7610 C   0  0  0  0  0  0  0  0  0  0  0  0
   62.9550   32.1140   47.2050 C   0  0  0  0  0  0  0  0  0  0  0  0
   61.8240   31.5470   47.8180 C   0  0  0  0  0  0  0  0  0  0  0  0
   61.1930   30.3600   47.2010 C   0  0  0  0  0  0  0  0  0  0  0  0
   61.4500   30.0920   45.9960 O   0  0  0  0  0  0  0  0  0  0  0  0
   60.3040   29.5230   47.9600 N   0  0  0  0  0  0  0  0  0  0  0  0
   59.6380   28.3660   47.4270 C   0  0  0  0  0  0  0  0  0  0  0  0
   60.3270   27.1480   47.3660 C   0  0  0  0  0  0  0  0  0  0  0  0
   59.7110   26.0140   46.8340 C   0  0  0  0  0  0  0  0  0  0  0  0
   58.4050   26.0890   46.3440 C   0  0  0  0  0  0  0  0  0  0  0  0
   57.7020   27.3070   46.3730 C   0  0  0  0  0  0  0  0  0  0  0  0
   56.3230   27.3900   45.8370 C   0  0  0  0  0  0  0  0  0  0  0  0
   55.5230   26.4280   45.9950 O   0  0  0  0  0  0  0  0  0  0  0  0
   55.8910   28.5630   45.1390 N   0  0  0  0  0  0  0  0  0  0  0  0
   56.7970   29.3730   44.3350 C   0  0  0  0  0  0  0  0  0  0  0  0
   56.2010   29.7720   42.9990 C   0  0  0  0  0  0  0  0  0  0  0  0
   56.3130   30.7940   44.1230 C   0  0  0  0  0  0  0  0  0  0  0  0
   58.3330   28.4460   46.9100 C   0  0  0  0  0  0  0  0  0  0  0  0
   58.7301   30.9625   47.3180 H   0  0  0  0  0  0  0  0  0  0  0  0
   57.2093   31.8552   47.7488 H   0  0  0  0  0  0  0  0  0  0  0  0
   58.1854   32.1557   45.0357 H   0  0  0  0  0  0  0  0  0  0  0  0
   58.9184   34.1103   43.6689 H   0  0  0  0  0  0  0  0  0  0  0  0
   59.8694   36.1311   44.7836 H   0  0  0  0  0  0  0  0  0  0  0  0
   60.0822   36.2033   47.2693 H   0  0  0  0  0  0  0  0  0  0  0  0
   59.3575   34.2520   48.6447 H   0  0  0  0  0  0  0  0  0  0  0  0
   61.5496   33.7104   50.4663 H   0  0  0  0  0  0  0  0  0  0  0  0
   63.5716   34.6789   49.3766 H   0  0  0  0  0  0  0  0  0  0  0  0
   64.4588   33.6720   47.2742 H   0  0  0  0  0  0  0  0  0  0  0  0
   63.3553   31.6710   46.2811 H   0  0  0  0  0  0  0  0  0  0  0  0
   60.0720   29.7990   48.9410 H   0  0  0  0  0  0  0  0  0  0  0  0
   61.3597   27.0847   47.7396 H   0  0  0  0  0  0  0  0  0  0  0  0
   60.2554   25.0588   46.8005 H   0  0  0  0  0  0  0  0  0  0  0  0
   57.9232   25.1897   45.9328 H   0  0  0  0  0  0  0  0  0  0  0  0
   57.7412   28.9168   44.6671 H   0  0  0  0  0  0  0  0  0  0  0  0
   56.8458   29.8566   42.1118 H   0  0  0  0  0  0  0  0  0  0  0  0
   55.3828   29.3953   42.3676 H   0  0  0  0  0  0  0  0  0  0  0  0
   57.0387   31.6172   44.0481 H   0  0  0  0  0  0  0  0  0  0  0  0
   55.6092   31.4623   44.6408 H   0  0  0  0  0  0  0  0  0  0  0  0
   57.7994   29.4078   46.9250 H   0  0  0  0  0  0  0  0  0  0  0  0
  1  2  2  0
  2  3  1  0
  3  4  1  0
  4  5  2  0
  5  6  1  0
  6  7  2  0
  7  8  1  0
  8  9  2  0
  2 10  1  0
 10 11  1  0
 11 12  2  0
 12 13  1  0
 13 14  2  0
 14 15  1  0
 15 16  2  0
 16 17  1  0
 17 18  2  0
 17 19  1  0
 19 20  1  0
 20 21  2  0
 21 22  1  0
 22 23  2  0
 23 24  1  0
 24 25  1  0
 25 26  2  0
 25 27  1  0
 27 28  1  0
 28 29  1  0
 29 30  1  0
 24 31  2  0
  9  4  1  0
 16 11  1  0
 31 20  1  0
 30 28  1  0
  3 32  1  0
  3 33  1  0
  5 34  1  0
  6 35  1  0
  7 36  1  0
  8 37  1  0
  9 38  1  0
 12 39  1  0
 13 40  1  0
 14 41  1  0
 15 42  1  0
 19 43  1  0
 21 44  1  0
 22 45  1  0
 23 46  1  0
 28 47  1  0
 29 48  1  0
 29 49  1  0
 30 50  1  0
 30 51  1  0
 31 52  1  0
M  CHG  2  10  -1  27  -1
M  END
>  <UniqueID>  (65) 
61

>  <SMILES>  (65) 
O=C(Cc1ccccc1)[N-]c1ccccc1C(=O)Nc1cccc(C(=O)[N-]C2CC2)c1

>  <Energy>  (65) 
332.77067411547597

>  <Genealogy>  (65) 
O=C(Cc1ccccc1)[N-]c1ccccc1C(=O)Nc1cccc(C(=O)[N-]C2CC2)c1 (protonated)
O=C(Cc1ccccc1)[N-]c1ccccc1C(=O)Nc1cccc(C(=O)[N-]C2CC2)c1 (3D coordinates assigned)
O=C(Cc1ccccc1)[N-]c1ccccc1C(=O)Nc1cccc(C(=O)[N-]C2CC2)c1 (nonaromatic ring conformer: 332.77067411547597 kcal/mol)

>  <smiles>  (65) 
O=C(Cc1ccccc1)Nc1ccccc1C(=O)Nc1cccc(C(=O)NC2CC2)c1

>  <score_type>  (65) 
oracle

>  <origin>  (65) 
adg

>  <m_score__min__energy>  (65) 
-12.58

>  <m_primary>  (65) 
energy

$$$$
65:0
     RDKit          3D

 39 41  0  0  0  0  0  0  0  0999 V2000
   59.4144   35.0617   44.2002 H   0  0  0  0  0  0  0  0  0  0  0  0
   59.0560   34.2670   44.8710 C   0  0  0  0  0  0  0  0  0  0  0  0
   57.9800   33.5160   44.5150 N   0  0  0  0  0  0  0  0  0  0  0  0
   57.5000   32.5150   45.3050 C   0  0  0  0  0  0  0  0  0  0  0  0
   56.4670   31.8390   44.8860 N   0  0  0  0  0  0  0  0  0  0  0  0
   56.5000   30.3400   44.0070 S   0  0  0  0  0  0  0  0  0  0  0  0
   55.1430   29.6870   44.0400 O   0  0  0  0  0  0  0  0  0  0  0  0
   56.8990   30.6060   42.5780 O   0  0  0  0  0  0  0  0  0  0  0  0
   57.6750   29.2560   44.7490 C   0  0  0  0  0  0  0  0  0  0  0  0
   59.0470   29.4700   44.5720 C   0  0  0  0  0  0  0  0  0  0  0  0
   59.3980   30.3274   43.9789 H   0  0  0  0  0  0  0  0  0  0  0  0
   59.9710   28.5940   45.1490 C   0  0  0  0  0  0  0  0  0  0  0  0
   61.0490   28.7726   45.0223 H   0  0  0  0  0  0  0  0  0  0  0  0
   59.5290   27.4910   45.8870 C   0  0  0  0  0  0  0  0  0  0  0  0
   60.2613   26.8080   46.3423 H   0  0  0  0  0  0  0  0  0  0  0  0
   58.1580   27.2520   46.0490 C   0  0  0  0  0  0  0  0  0  0  0  0
   57.7370   26.0720   46.7470 N   0  0  0  0  0  0  0  0  0  0  0  0
   56.2840   25.1880   46.3820 S   0  0  0  0  0  0  0  0  0  0  0  0
   55.2000   26.1600   46.0000 O   0  0  0  0  0  0  0  0  0  0  0  0
   55.8370   24.4120   47.5970 O   0  0  0  0  0  0  0  0  0  0  0  0
   56.5970   24.0430   45.0720 C   0  0  0  0  0  0  0  0  0  0  0  0
   55.7060   23.9630   43.9930 C   0  0  0  0  0  0  0  0  0  0  0  0
   54.8490   24.6502   43.9358 H   0  0  0  0  0  0  0  0  0  0  0  0
   55.9060   23.0090   42.9880 C   0  0  0  0  0  0  0  0  0  0  0  0
   55.2074   22.9512   42.1403 H   0  0  0  0  0  0  0  0  0  0  0  0
   56.9900   22.1300   43.0580 C   0  0  0  0  0  0  0  0  0  0  0  0
   57.1394   21.3765   42.2707 H   0  0  0  0  0  0  0  0  0  0  0  0
   57.8840   22.2090   44.1290 C   0  0  0  0  0  0  0  0  0  0  0  0
   58.7420   21.5227   44.1822 H   0  0  0  0  0  0  0  0  0  0  0  0
   57.6860   23.1620   45.1330 C   0  0  0  0  0  0  0  0  0  0  0  0
   58.3895   23.2209   45.9765 H   0  0  0  0  0  0  0  0  0  0  0  0
   57.2340   28.1570   45.4990 C   0  0  0  0  0  0  0  0  0  0  0  0
   56.1567   28.0017   45.6583 H   0  0  0  0  0  0  0  0  0  0  0  0
   58.1410   32.2430   46.5370 C   0  0  0  0  0  0  0  0  0  0  0  0
   57.7779   31.4319   47.1853 H   0  0  0  0  0  0  0  0  0  0  0  0
   59.2420   33.0170   46.9220 C   0  0  0  0  0  0  0  0  0  0  0  0
   59.7400   32.8246   47.8837 H   0  0  0  0  0  0  0  0  0  0  0  0
   59.7090   34.0350   46.0840 C   0  0  0  0  0  0  0  0  0  0  0  0
   60.5775   34.6438   46.3758 H   0  0  0  0  0  0  0  0  0  0  0  0
  1  2  1  0
  2  3  1  0
  3  4  1  0
  4  5  2  0
  5  6  1  0
  6  7  2  0
  6  8  2  0
  6  9  1  0
  9 10  2  0
 10 11  1  0
 10 12  1  0
 12 13  1  0
 12 14  2  0
 14 15  1  0
 14 16  1  0
 16 17  1  0
 17 18  1  0
 18 19  2  0
 18 20  2  0
 18 21  1  0
 21 22  2  0
 22 23  1  0
 22 24  1  0
 24 25  1  0
 24 26  2  0
 26 27  1  0
 26 28  1  0
 28 29  1  0
 28 30  2  0
 30 31  1  0
 16 32  2  0
 32 33  1  0
  4 34  1  0
 34 35  1  0
 34 36  2  0
 36 37  1  0
 36 38  1  0
 38 39  1  0
 38  2  2  0
 32  9  1  0
 30 21  1  0
M  CHG  2   3  -1  17  -1
M  END
>  <UniqueID>  (66) 
62

>  <SMILES>  (66) 
O=S(=O)(/N=c1\cccc[n-]1)c1cccc([N-]S(=O)(=O)c2ccccc2)c1

>  <Energy>  (66) 
52.16340556225568

>  <Genealogy>  (66) 
O=S(=O)(N=c1cccc[n-]1)c1cccc([N-]S(=O)(=O)c2ccccc2)c1 (protonated)
O=S(=O)(/N=c1\cccc[n-]1)c1cccc([N-]S(=O)(=O)c2ccccc2)c1 (cis-trans isomerization)
O=S(=O)(/N=c1\cccc[n-]1)c1cccc([N-]S(=O)(=O)c2ccccc2)c1 (3D coordinates assigned)
O=S(=O)(/N=c1\cccc[n-]1)c1cccc([N-]S(=O)(=O)c2ccccc2)c1 (optimized conformer: 52.16340556225568 kcal/mol)

>  <smiles>  (66) 
O=S(=O)(N=c1cccc[nH]1)c1cccc(NS(=O)(=O)c2ccccc2)c1

>  <score_type>  (66) 
oracle

>  <origin>  (66) 
adg

>  <m_score__min__energy>  (66) 
-12.550000000000001

>  <m_primary>  (66) 
energy

$$$$
66:0
     RDKit          3D

 66 69  0  0  0  0  0  0  0  0999 V2000
   55.5120   30.5060   52.0410 C   0  0  0  0  0  0  0  0  0  0  0  0
   56.8770   30.3860   51.6470 O   0  0  0  0  0  0  0  0  0  0  0  0
   57.7250   31.4790   51.4040 C   0  0  0  0  0  0  0  0  0  0  0  0
   58.2140   32.1970   52.5020 C   0  0  0  0  0  0  0  0  0  0  0  0
   59.0540   33.2990   52.3140 C   0  0  0  0  0  0  0  0  0  0  0  0
   59.4180   33.6910   51.0240 C   0  0  0  0  0  0  0  0  0  0  0  0
   58.9600   32.9690   49.9090 C   0  0  0  0  0  0  0  0  0  0  0  0
   59.3490   33.4010   48.5200 C   0  0  0  0  0  0  0  0  0  0  0  0
   60.7000   32.8620   48.0690 C   0  0  0  0  0  0  0  0  0  0  0  0
   61.7420   33.7970   47.9170 C   0  0  0  0  0  0  0  0  0  0  0  0
   63.0150   33.3990   47.5080 C   0  0  0  0  0  0  0  0  0  0  0  0
   63.2780   32.0580   47.2520 C   0  0  0  0  0  0  0  0  0  0  0  0
   62.2710   31.1080   47.4060 C   0  0  0  0  0  0  0  0  0  0  0  0
   60.9790   31.4770   47.8380 C   0  0  0  0  0  0  0  0  0  0  0  0
   59.9620   30.3620   48.0340 C   0  0  0  0  0  0  0  0  0  0  0  0
   60.2680   29.0920   47.2000 C   0  0  1  0  0  0  0  0  0  0  0  0
   59.4420   27.9610   47.6420 N   0  0  0  0  0  0  0  0  0  0  0  0
   60.1390   29.3070   45.6710 C   0  0  0  0  0  0  0  0  0  0  0  0
   58.9090   30.0860   45.2430 C   0  0  0  0  0  0  0  0  0  0  0  0
   58.8940   31.4820   45.4020 C   0  0  0  0  0  0  0  0  0  0  0  0
   57.7900   32.2350   44.9970 C   0  0  0  0  0  0  0  0  0  0  0  0
   56.6810   31.6040   44.4340 C   0  0  0  0  0  0  0  0  0  0  0  0
   56.6730   30.2150   44.2700 C   0  0  0  0  0  0  0  0  0  0  0  0
   57.7820   29.4490   44.6580 C   0  0  0  0  0  0  0  0  0  0  0  0
   57.7500   27.9960   44.4160 C   0  0  0  0  0  0  0  0  0  0  0  0
   58.0220   27.5590   43.2690 O   0  0  0  0  0  0  0  0  0  0  0  0
   57.4070   27.0680   45.4540 N   0  0  0  0  0  0  0  0  0  0  0  0
   58.4550   25.8110   46.0280 S   0  0  0  0  0  0  0  0  0  0  0  0
   58.2870   25.6620   47.5150 O   0  0  0  0  0  0  0  0  0  0  0  0
   59.8800   26.1950   45.7480 O   0  0  0  0  0  0  0  0  0  0  0  0
   58.1040   24.2960   45.1970 C   0  0  0  0  0  0  0  0  0  0  0  0
   58.9530   23.1960   45.3720 C   0  0  0  0  0  0  0  0  0  0  0  0
   58.7270   22.0110   44.6630 C   0  0  0  0  0  0  0  0  0  0  0  0
   57.6400   21.9160   43.7900 C   0  0  0  0  0  0  0  0  0  0  0  0
   56.7750   23.0020   43.6290 C   0  0  0  0  0  0  0  0  0  0  0  0
   57.0030   24.1890   44.3320 C   0  0  0  0  0  0  0  0  0  0  0  0
   58.0980   31.8740   50.1020 C   0  0  0  0  0  0  0  0  0  0  0  0
   55.4465   30.5118   53.1390 H   0  0  0  0  0  0  0  0  0  0  0  0
   55.0969   31.4441   51.6440 H   0  0  0  0  0  0  0  0  0  0  0  0
   54.9396   29.6547   51.6440 H   0  0  0  0  0  0  0  0  0  0  0  0
   57.9350   31.8916   53.5213 H   0  0  0  0  0  0  0  0  0  0  0  0
   59.4288   33.8582   53.1839 H   0  0  0  0  0  0  0  0  0  0  0  0
   60.0657   34.5684   50.8802 H   0  0  0  0  0  0  0  0  0  0  0  0
   58.5808   33.0455   47.8175 H   0  0  0  0  0  0  0  0  0  0  0  0
   59.4281   34.4981   48.5340 H   0  0  0  0  0  0  0  0  0  0  0  0
   61.5488   34.8599   48.1244 H   0  0  0  0  0  0  0  0  0  0  0  0
   63.8121   34.1475   47.3878 H   0  0  0  0  0  0  0  0  0  0  0  0
   64.2820   31.7470   46.9276 H   0  0  0  0  0  0  0  0  0  0  0  0
   62.4865   30.0518   47.1871 H   0  0  0  0  0  0  0  0  0  0  0  0
   59.9500   30.0849   49.0985 H   0  0  0  0  0  0  0  0  0  0  0  0
   58.9900   30.7471   47.6920 H   0  0  0  0  0  0  0  0  0  0  0  0
   61.3263   28.8559   47.3854 H   0  0  0  0  0  0  0  0  0  0  0  0
   58.7320   27.7580   46.9020 H   0  0  0  0  0  0  0  0  0  0  0  0
   60.0370   27.1030   47.7440 H   0  0  0  0  0  0  0  0  0  0  0  0
   61.0287   29.8539   45.3254 H   0  0  0  0  0  0  0  0  0  0  0  0
   60.0455   28.3068   45.2229 H   0  0  0  0  0  0  0  0  0  0  0  0
   59.7619   31.9875   45.8507 H   0  0  0  0  0  0  0  0  0  0  0  0
   57.7950   33.3278   45.1222 H   0  0  0  0  0  0  0  0  0  0  0  0
   55.8115   32.1994   44.1185 H   0  0  0  0  0  0  0  0  0  0  0  0
   55.7922   29.7207   43.8344 H   0  0  0  0  0  0  0  0  0  0  0  0
   59.8008   23.2638   46.0696 H   0  0  0  0  0  0  0  0  0  0  0  0
   59.4048   21.1544   44.7928 H   0  0  0  0  0  0  0  0  0  0  0  0
   57.4650   20.9860   43.2292 H   0  0  0  0  0  0  0  0  0  0  0  0
   55.9142   22.9228   42.9487 H   0  0  0  0  0  0  0  0  0  0  0  0
   56.3184   25.0409   44.2072 H   0  0  0  0  0  0  0  0  0  0  0  0
   57.7123   31.3222   49.2321 H   0  0  0  0  0  0  0  0  0  0  0  0
  1  2  1  0
  2  3  1  0
  3  4  2  0
  4  5  1  0
  5  6  2  0
  6  7  1  0
  7  8  1  0
  8  9  1  0
  9 10  2  0
 10 11  1  0
 11 12  2  0
 12 13  1  0
 13 14  2  0
 14 15  1  0
 15 16  1  0
 16 17  1  0
 16 18  1  0
 18 19  1  0
 19 20  2  0
 20 21  1  0
 21 22  2  0
 22 23  1  0
 23 24  2  0
 24 25  1  0
 25 26  2  0
 25 27  1  0
 27 28  1  0
 28 29  2  0
 28 30  2  0
 28 31  1  0
 31 32  2  0
 32 33  1  0
 33 34  2  0
 34 35  1  0
 35 36  2  0
  7 37  2  0
 37  3  1  0
 14  9  1  0
 24 19  1  0
 36 31  1  0
  1 38  1  0
  1 39  1  0
  1 40  1  0
  4 41  1  0
  5 42  1  0
  6 43  1  0
  8 44  1  0
  8 45  1  0
 10 46  1  0
 11 47  1  0
 12 48  1  0
 13 49  1  0
 15 50  1  0
 15 51  1  0
 16 52  1  6
 17 53  1  0
 17 54  1  0
 18 55  1  0
 18 56  1  0
 20 57  1  0
 21 58  1  0
 22 59  1  0
 23 60  1  0
 32 61  1  0
 33 62  1  0
 34 63  1  0
 35 64  1  0
 36 65  1  0
 37 66  1  0
M  CHG  1  27  -1
M  END
>  <UniqueID>  (67) 
63

>  <SMILES>  (67) 
COc1cccc(Cc2ccccc2C[C@@H](N)Cc2ccccc2C(=O)[N-]S(=O)(=O)c2ccccc2)c1

>  <Energy>  (67) 
78.51780527535561

>  <Genealogy>  (67) 
COc1cccc(Cc2ccccc2CC(N)Cc2ccccc2C(=O)[N-]S(=O)(=O)c2ccccc2)c1 (protonated)
COc1cccc(Cc2ccccc2C[C@@H](N)Cc2ccccc2C(=O)[N-]S(=O)(=O)c2ccccc2)c1 (chirality)
COc1cccc(Cc2ccccc2C[C@@H](N)Cc2ccccc2C(=O)[N-]S(=O)(=O)c2ccccc2)c1 (3D coordinates assigned)
COc1cccc(Cc2ccccc2C[C@@H](N)Cc2ccccc2C(=O)[N-]S(=O)(=O)c2ccccc2)c1 (optimized conformer: 78.51780527535561 kcal/mol)

>  <smiles>  (67) 
COc1cccc(Cc2ccccc2CC(N)Cc2ccccc2C(=O)NS(=O)(=O)c2ccccc2)c1

>  <score_type>  (67) 
oracle

>  <origin>  (67) 
adg

>  <m_score__min__energy>  (67) 
-12.19

>  <m_primary>  (67) 
energy

$$$$
67:0
     RDKit          3D

 40 41  0  0  0  0  0  0  0  0999 V2000
   59.1710   34.6970   45.2090 C   0  0  0  0  0  0  0  0  0  0  0  0
   59.5090   33.7490   46.6750 S   0  0  0  0  0  0  0  0  0  0  0  0
   58.5690   34.1670   47.7700 O   0  0  0  0  0  0  0  0  0  0  0  0
   60.9200   34.0050   47.1250 O   0  0  0  0  0  0  0  0  0  0  0  0
   59.3010   32.0360   46.3210 C   0  0  0  0  0  0  0  0  0  0  0  0
   60.2670   31.1110   46.7210 C   0  0  0  0  0  0  0  0  0  0  0  0
   60.0910   29.7540   46.4550 C   0  0  0  0  0  0  0  0  0  0  0  0
   58.9420   29.2900   45.7890 C   0  0  0  0  0  0  0  0  0  0  0  0
   58.8170   27.7990   45.5730 C   0  0  0  0  0  0  0  0  0  0  0  0
   58.0920   27.1690   46.7220 C   0  0  0  0  0  0  0  0  0  0  0  0
   58.6090   27.1760   47.8710 O   0  0  0  0  0  0  0  0  0  0  0  0
   56.8080   26.5730   46.5010 N   0  0  0  0  0  0  0  0  0  0  0  0
   56.5040   25.5370   45.5560 C   0  0  0  0  0  0  0  0  0  0  0  0
   55.2830   24.8600   45.6670 C   0  0  0  0  0  0  0  0  0  0  0  0
   54.9380   23.8650   44.7470 C   0  0  0  0  0  0  0  0  0  0  0  0
   55.8050   23.5530   43.6950 C   0  0  0  0  0  0  0  0  0  0  0  0
   55.4670   22.5940   42.7990 F   0  0  0  0  0  0  0  0  0  0  0  0
   57.0140   24.2400   43.5620 C   0  0  0  0  0  0  0  0  0  0  0  0
   57.3630   25.2330   44.4830 C   0  0  0  0  0  0  0  0  0  0  0  0
   57.9480   30.2270   45.3960 C   0  0  0  0  0  0  0  0  0  0  0  0
   56.4700   29.7630   44.5300 S   0  0  0  0  0  0  0  0  0  0  0  0
   56.8720   29.3090   42.8560 C   0  0  0  0  0  0  0  0  0  0  0  0
   55.5170   30.9250   44.4890 O   0  0  0  0  0  0  0  0  0  0  0  0
   55.7820   28.6220   45.2240 O   0  0  0  0  0  0  0  0  0  0  0  0
   58.1490   31.5930   45.6640 C   0  0  0  0  0  0  0  0  0  0  0  0
   58.8142   35.6978   45.4937 H   0  0  0  0  0  0  0  0  0  0  0  0
   60.0909   34.7914   44.6132 H   0  0  0  0  0  0  0  0  0  0  0  0
   58.3989   34.1882   44.6132 H   0  0  0  0  0  0  0  0  0  0  0  0
   61.1698   31.4540   47.2477 H   0  0  0  0  0  0  0  0  0  0  0  0
   60.8618   29.0355   46.7705 H   0  0  0  0  0  0  0  0  0  0  0  0
   58.2581   27.6120   44.6442 H   0  0  0  0  0  0  0  0  0  0  0  0
   59.8235   27.3612   45.5002 H   0  0  0  0  0  0  0  0  0  0  0  0
   54.5906   25.1127   46.4835 H   0  0  0  0  0  0  0  0  0  0  0  0
   53.9840   23.3273   44.8509 H   0  0  0  0  0  0  0  0  0  0  0  0
   57.6932   23.9994   42.7309 H   0  0  0  0  0  0  0  0  0  0  0  0
   58.3116   25.7781   44.3686 H   0  0  0  0  0  0  0  0  0  0  0  0
   57.6012   28.4855   42.8645 H   0  0  0  0  0  0  0  0  0  0  0  0
   55.9592   28.9851   42.3346 H   0  0  0  0  0  0  0  0  0  0  0  0
   57.3040   30.1759   42.3346 H   0  0  0  0  0  0  0  0  0  0  0  0
   57.3884   32.3239   45.3520 H   0  0  0  0  0  0  0  0  0  0  0  0
  1  2  1  0
  2  3  2  0
  2  4  2  0
  2  5  1  0
  5  6  2  0
  6  7  1  0
  7  8  2  0
  8  9  1  0
  9 10  1  0
 10 11  2  0
 10 12  1  0
 12 13  1  0
 13 14  2  0
 14 15  1  0
 15 16  2  0
 16 17  1  0
 16 18  1  0
 18 19  2  0
  8 20  1  0
 20 21  1  0
 21 22  1  0
 21 23  2  0
 21 24  2  0
 20 25  2  0
 25  5  1  0
 19 13  1  0
  1 26  1  0
  1 27  1  0
  1 28  1  0
  6 29  1  0
  7 30  1  0
  9 31  1  0
  9 32  1  0
 14 33  1  0
 15 34  1  0
 18 35  1  0
 19 36  1  0
 22 37  1  0
 22 38  1  0
 22 39  1  0
 25 40  1  0
M  CHG  1  12  -1
M  END
>  <UniqueID>  (68) 
64

>  <SMILES>  (68) 
CS(=O)(=O)c1ccc(CC(=O)[N-]c2ccc(F)cc2)c(S(C)(=O)=O)c1

>  <Energy>  (68) 
39.86501378017662

>  <Genealogy>  (68) 
CS(=O)(=O)c1ccc(CC(=O)[N-]c2ccc(F)cc2)c(S(C)(=O)=O)c1 (protonated)
CS(=O)(=O)c1ccc(CC(=O)[N-]c2ccc(F)cc2)c(S(C)(=O)=O)c1 (3D coordinates assigned)
CS(=O)(=O)c1ccc(CC(=O)[N-]c2ccc(F)cc2)c(S(C)(=O)=O)c1 (optimized conformer: 39.86501378017662 kcal/mol)

>  <smiles>  (68) 
CS(=O)(=O)c1ccc(CC(=O)Nc2ccc(F)cc2)c(S(C)(=O)=O)c1

>  <score_type>  (68) 
oracle

>  <origin>  (68) 
adg

>  <m_score__min__energy>  (68) 
-9.8100000000000005

>  <m_primary>  (68) 
energy

$$$$
68:0
     RDKit          3D

 48 50  0  0  0  0  0  0  0  0999 V2000
   64.5380   31.9200   50.6220 C   0  0  0  0  0  0  0  0  0  0  0  0
   63.3290   31.7140   49.7670 C   0  0  0  0  0  0  0  0  0  0  0  0
   62.5220   30.7970   50.0750 O   0  0  0  0  0  0  0  0  0  0  0  0
   63.0420   32.5500   48.6320 N   0  0  0  0  0  0  0  0  0  0  0  0
   64.0870   33.2480   47.8800 C   0  0  0  0  0  0  0  0  0  0  0  0
   63.3940   33.8570   46.6390 C   0  0  0  0  0  0  0  0  0  0  0  0
   61.9670   33.4850   46.8260 C   0  0  0  0  0  0  0  0  0  0  0  0
   60.8880   33.8140   46.0030 C   0  0  0  0  0  0  0  0  0  0  0  0
   59.6020   33.3870   46.3740 C   0  0  0  0  0  0  0  0  0  0  0  0
   58.2440   33.6590   45.2860 S   0  0  0  0  0  0  0  0  0  0  0  0
   56.9710   33.7700   46.0770 O   0  0  0  0  0  0  0  0  0  0  0  0
   58.4420   34.9280   44.5060 O   0  0  0  0  0  0  0  0  0  0  0  0
   58.1340   32.3090   44.2110 N   0  0  0  0  0  0  0  0  0  0  0  0
   57.4360   31.1300   44.6110 C   0  0  0  0  0  0  0  0  0  0  0  0
   56.1880   30.8200   44.0550 C   0  0  0  0  0  0  0  0  0  0  0  0
   55.5560   29.6200   44.3830 C   0  0  0  0  0  0  0  0  0  0  0  0
   56.1760   28.7080   45.2420 C   0  0  0  0  0  0  0  0  0  0  0  0
   55.5270   27.5160   45.5440 O   0  0  0  0  0  0  0  0  0  0  0  0
   57.4430   28.9990   45.7880 C   0  0  0  0  0  0  0  0  0  0  0  0
   58.1760   27.9950   46.6590 C   0  0  0  0  0  0  0  0  0  0  0  0
   59.3240   28.5700   47.4020 N   0  0  0  0  0  0  0  0  0  0  0  0
   60.3600   27.5740   47.7140 C   0  0  0  0  0  0  0  0  0  0  0  0
   58.9120   29.2920   48.6150 C   0  0  0  0  0  0  0  0  0  0  0  0
   58.0460   30.2330   45.4920 C   0  0  0  0  0  0  0  0  0  0  0  0
   59.4220   32.6650   47.5710 C   0  0  0  0  0  0  0  0  0  0  0  0
   60.5220   32.3590   48.3890 C   0  0  0  0  0  0  0  0  0  0  0  0
   61.7990   32.7520   47.9700 C   0  0  0  0  0  0  0  0  0  0  0  0
   64.2498   31.8709   51.6824 H   0  0  0  0  0  0  0  0  0  0  0  0
   65.2777   31.1349   50.4063 H   0  0  0  0  0  0  0  0  0  0  0  0
   64.9760   32.9057   50.4063 H   0  0  0  0  0  0  0  0  0  0  0  0
   64.5332   34.0429   48.4957 H   0  0  0  0  0  0  0  0  0  0  0  0
   64.8970   32.5626   47.5900 H   0  0  0  0  0  0  0  0  0  0  0  0
   63.5164   34.9499   46.6162 H   0  0  0  0  0  0  0  0  0  0  0  0
   63.8129   33.4915   45.6898 H   0  0  0  0  0  0  0  0  0  0  0  0
   61.0419   34.3960   45.0824 H   0  0  0  0  0  0  0  0  0  0  0  0
   55.7061   31.5229   43.3595 H   0  0  0  0  0  0  0  0  0  0  0  0
   54.5653   29.3906   43.9637 H   0  0  0  0  0  0  0  0  0  0  0  0
   57.4628   27.5830   47.3881 H   0  0  0  0  0  0  0  0  0  0  0  0
   58.5835   27.2259   45.9864 H   0  0  0  0  0  0  0  0  0  0  0  0
   60.4597   27.4782   48.8053 H   0  0  0  0  0  0  0  0  0  0  0  0
   60.0752   26.6020   47.2851 H   0  0  0  0  0  0  0  0  0  0  0  0
   61.3201   27.8969   47.2851 H   0  0  0  0  0  0  0  0  0  0  0  0
   59.2333   28.7290   49.5037 H   0  0  0  0  0  0  0  0  0  0  0  0
   59.3773   30.2887   48.6243 H   0  0  0  0  0  0  0  0  0  0  0  0
   57.8172   29.3984   48.6243 H   0  0  0  0  0  0  0  0  0  0  0  0
   59.0072   30.4955   45.9581 H   0  0  0  0  0  0  0  0  0  0  0  0
   58.4138   32.3391   47.8664 H   0  0  0  0  0  0  0  0  0  0  0  0
   60.3832   31.8219   49.3389 H   0  0  0  0  0  0  0  0  0  0  0  0
  1  2  1  0
  2  3  2  0
  2  4  1  0
  4  5  1  0
  5  6  1  0
  6  7  1  0
  7  8  2  0
  8  9  1  0
  9 10  1  0
 10 11  2  0
 10 12  2  0
 10 13  1  0
 13 14  1  0
 14 15  2  0
 15 16  1  0
 16 17  2  0
 17 18  1  0
 17 19  1  0
 19 20  1  0
 20 21  1  0
 21 22  1  0
 21 23  1  0
 19 24  2  0
  9 25  2  0
 25 26  1  0
 26 27  2  0
 27  4  1  0
 27  7  1  0
 24 14  1  0
  1 28  1  0
  1 29  1  0
  1 30  1  0
  5 31  1  0
  5 32  1  0
  6 33  1  0
  6 34  1  0
  8 35  1  0
 15 36  1  0
 16 37  1  0
 20 38  1  0
 20 39  1  0
 22 40  1  0
 22 41  1  0
 22 42  1  0
 23 43  1  0
 23 44  1  0
 23 45  1  0
 24 46  1  0
 25 47  1  0
 26 48  1  0
M  CHG  2  13  -1  18  -1
M  END
>  <UniqueID>  (69) 
65

>  <SMILES>  (69) 
CC(=O)N1CCc2cc(S(=O)(=O)[N-]c3ccc([O-])c(CN(C)C)c3)ccc21

>  <Energy>  (69) 
73.38206277175917

>  <Genealogy>  (69) 
CC(=O)N1CCc2cc(S(=O)(=O)[N-]c3ccc([O-])c(CN(C)C)c3)ccc21 (protonated)
CC(=O)N1CCc2cc(S(=O)(=O)[N-]c3ccc([O-])c(CN(C)C)c3)ccc21 (3D coordinates assigned)
CC(=O)N1CCc2cc(S(=O)(=O)[N-]c3ccc([O-])c(CN(C)C)c3)ccc21 (nonaromatic ring conformer: 73.38206277175917 kcal/mol)

>  <smiles>  (69) 
CC(=O)N1CCc2cc(S(=O)(=O)Nc3ccc(O)c(CN(C)C)c3)ccc21

>  <score_type>  (69) 
oracle

>  <origin>  (69) 
adg

>  <m_score__min__energy>  (69) 
-12.449999999999999

>  <m_primary>  (69) 
energy

$$$$
69:0
     RDKit          3D

 39 41  0  0  0  0  0  0  0  0999 V2000
   63.6200   34.7990   50.3980 H   0  0  0  0  0  0  0  0  0  0  0  0
   63.4170   33.9210   49.8720 N   0  0  0  0  0  0  0  0  0  0  0  0
   62.3970   33.7600   49.0860 C   0  0  0  0  0  0  0  0  0  0  0  0
   61.1530   33.9900   49.5770 N   0  0  0  0  0  0  0  0  0  0  0  0
   60.0420   33.8440   48.8140 C   0  0  0  0  0  0  0  0  0  0  0  0
   59.0477   34.0392   49.2420 H   0  0  0  0  0  0  0  0  0  0  0  0
   60.1670   33.4430   47.4770 C   0  0  0  0  0  0  0  0  0  0  0  0
   58.9650   33.2620   46.6240 C   0  0  0  0  0  0  0  0  0  0  0  0
   58.0850   34.3280   46.3840 C   0  0  0  0  0  0  0  0  0  0  0  0
   58.2781   35.3156   46.8282 H   0  0  0  0  0  0  0  0  0  0  0  0
   56.9640   34.1280   45.5790 C   0  0  0  0  0  0  0  0  0  0  0  0
   56.2631   34.9565   45.3993 H   0  0  0  0  0  0  0  0  0  0  0  0
   56.7350   32.9130   45.0160 N   0  0  0  0  0  0  0  0  0  0  0  0
   57.5690   31.8560   45.2040 C   0  0  0  0  0  0  0  0  0  0  0  0
   57.2750   30.7230   44.6280 N   0  0  0  0  0  0  0  0  0  0  0  0
   57.7980   29.4210   44.9380 C   0  0  0  0  0  0  0  0  0  0  0  0
   59.1840   29.2280   44.9490 C   0  0  0  0  0  0  0  0  0  0  0  0
   59.8548   30.0604   44.6898 H   0  0  0  0  0  0  0  0  0  0  0  0
   59.7200   27.9820   45.2880 C   0  0  0  0  0  0  0  0  0  0  0  0
   60.8098   27.8327   45.2800 H   0  0  0  0  0  0  0  0  0  0  0  0
   58.8740   26.9260   45.6370 C   0  0  0  0  0  0  0  0  0  0  0  0
   59.2987   25.9446   45.8950 H   0  0  0  0  0  0  0  0  0  0  0  0
   57.4840   27.1150   45.6590 C   0  0  0  0  0  0  0  0  0  0  0  0
   56.4110   25.7970   46.1170 S   0  0  0  0  0  0  0  0  0  0  0  0
   56.6250   24.6300   45.1960 O   0  0  0  0  0  0  0  0  0  0  0  0
   56.7050   25.3630   47.5260 O   0  0  0  0  0  0  0  0  0  0  0  0
   54.7710   26.3310   46.0080 N   0  0  0  0  0  0  0  0  0  0  0  0
   54.6510   27.0930   46.7130 H   0  0  0  0  0  0  0  0  0  0  0  0
   56.9520   28.3700   45.3330 C   0  0  0  0  0  0  0  0  0  0  0  0
   55.8656   28.5337   45.3866 H   0  0  0  0  0  0  0  0  0  0  0  0
   58.6940   32.0140   46.0400 C   0  0  0  0  0  0  0  0  0  0  0  0
   59.3590   31.1597   46.2345 H   0  0  0  0  0  0  0  0  0  0  0  0
   61.4150   33.2100   46.9740 N   0  0  0  0  0  0  0  0  0  0  0  0
   61.5170   32.9340   45.9710 H   0  0  0  0  0  0  0  0  0  0  0  0
   62.5380   33.3550   47.7380 C   0  0  0  0  0  0  0  0  0  0  0  0
   63.8890   33.0860   47.1270 C   0  0  0  0  0  0  0  0  0  0  0  0
   64.6301   32.9384   47.9264 H   0  0  0  0  0  0  0  0  0  0  0  0
   63.8361   32.1807   46.5043 H   0  0  0  0  0  0  0  0  0  0  0  0
   64.1869   33.9425   46.5043 H   0  0  0  0  0  0  0  0  0  0  0  0
  1  2  1  0
  2  3  2  0
  3  4  1  0
  4  5  1  0
  5  6  1  0
  5  7  2  0
  7  8  1  0
  8  9  1  0
  9 10  1  0
  9 11  2  0
 11 12  1  0
 11 13  1  0
 13 14  1  0
 14 15  2  3
 15 16  1  0
 16 17  2  0
 17 18  1  0
 17 19  1  0
 19 20  1  0
 19 21  2  0
 21 22  1  0
 21 23  1  0
 23 24  1  0
 24 25  2  0
 24 26  2  0
 24 27  1  0
 27 28  1  0
 23 29  2  0
 29 30  1  0
 14 31  1  0
 31 32  1  0
  7 33  1  0
 33 34  1  0
 33 35  2  0
 35 36  1  0
 36 37  1  0
 36 38  1  0
 36 39  1  0
 35  3  1  0
 31  8  2  0
 29 16  1  0
M  CHG  4   4  -1  13  -1  27  -1  33   1
M  END
>  <UniqueID>  (70) 
66

>  <SMILES>  (70) 
[H]/N=c1/[n-]cc(-c2cc[n-]c(=Nc3cccc(S([NH-])(=O)=O)c3)c2)[nH+]c1C

>  <Energy>  (70) 
58.707252290523705

>  <Genealogy>  (70) 
Cc1[nH+]c(-c2cc[n-]c(=Nc3cccc(S([NH-])(=O)=O)c3)c2)c[n-]c1=N (protonated)
[H]/N=c1/[n-]cc(-c2cc[n-]c(=Nc3cccc(S([NH-])(=O)=O)c3)c2)[nH+]c1C (cis-trans isomerization)
[H]/N=c1/[n-]cc(-c2cc[n-]c(=Nc3cccc(S([NH-])(=O)=O)c3)c2)[nH+]c1C (3D coordinates assigned)
[H]/N=c1/[n-]cc(-c2cc[n-]c(=Nc3cccc(S([NH-])(=O)=O)c3)c2)[nH+]c1C (optimized conformer: 58.707252290523705 kcal/mol)

>  <smiles>  (70) 
Cc1nc(-c2cc[nH]c(=Nc3cccc(S(N)(=O)=O)c3)c2)c[nH]c1=N

>  <score_type>  (70) 
oracle

>  <origin>  (70) 
adg

>  <m_score__min__energy>  (70) 
-12.43

>  <m_primary>  (70) 
energy

$$$$
70:0
     RDKit          3D

 46 48  0  0  0  0  0  0  0  0999 V2000
   58.0280   28.9990   51.6410 H   0  0  0  0  0  0  0  0  0  0  0  0
   57.6240   29.8900   51.2770 N   0  0  0  0  0  0  0  0  0  0  0  0
   58.1610   30.5150   50.1140 C   0  0  0  0  0  0  0  0  0  0  0  0
   58.6000   29.8020   49.1720 O   0  0  0  0  0  0  0  0  0  0  0  0
   58.1530   31.9460   50.0130 N   0  0  0  0  0  0  0  0  0  0  0  0
   57.5370   32.4670   50.6770 H   0  0  0  0  0  0  0  0  0  0  0  0
   58.8340   32.6920   48.9900 C   0  0  0  0  0  0  0  0  0  0  0  0
   60.1660   33.0830   49.1960 C   0  0  0  0  0  0  0  0  0  0  0  0
   60.6713   32.8247   50.1383 H   0  0  0  0  0  0  0  0  0  0  0  0
   60.8550   33.7980   48.2130 C   0  0  0  0  0  0  0  0  0  0  0  0
   61.8955   34.1088   48.3882 H   0  0  0  0  0  0  0  0  0  0  0  0
   60.2250   34.1190   47.0080 C   0  0  0  0  0  0  0  0  0  0  0  0
   60.7650   34.6950   46.2421 H   0  0  0  0  0  0  0  0  0  0  0  0
   58.9060   33.7080   46.7740 C   0  0  0  0  0  0  0  0  0  0  0  0
   58.1160   34.0440   45.2350 S   0  0  0  0  0  0  0  0  0  0  0  0
   58.6110   35.3330   44.6390 O   0  0  0  0  0  0  0  0  0  0  0  0
   56.6360   34.1560   45.4640 O   0  0  0  0  0  0  0  0  0  0  0  0
   58.4260   32.7380   44.1380 N   0  0  0  0  0  0  0  0  0  0  0  0
   58.2140   31.3540   44.4460 C   0  0  0  0  0  0  0  0  0  0  0  0
   58.9190   30.7850   45.5140 C   0  0  0  0  0  0  0  0  0  0  0  0
   59.5813   31.4128   46.1283 H   0  0  0  0  0  0  0  0  0  0  0  0
   58.7860   29.4240   45.8040 C   0  0  0  0  0  0  0  0  0  0  0  0
   59.3525   28.9829   46.6374 H   0  0  0  0  0  0  0  0  0  0  0  0
   57.9330   28.6200   45.0360 C   0  0  0  0  0  0  0  0  0  0  0  0
   57.8400   26.8840   45.3240 S   0  0  0  0  0  0  0  0  0  0  0  0
   59.1220   26.4280   45.9610 O   0  0  0  0  0  0  0  0  0  0  0  0
   57.6400   26.1480   44.0290 O   0  0  0  0  0  0  0  0  0  0  0  0
   56.5130   26.5210   46.3850 N   0  0  0  0  0  0  0  0  0  0  0  0
   55.8490   25.4050   46.3610 C   0  0  0  0  0  0  0  0  0  0  0  0
   54.7010   25.2900   45.6380 N   0  0  0  0  0  0  0  0  0  0  0  0
   53.9780   24.1400   45.6350 C   0  0  0  0  0  0  0  0  0  0  0  0
   52.7250   24.0650   44.8220 C   0  0  0  0  0  0  0  0  0  0  0  0
   51.8550   24.0129   45.4931 H   0  0  0  0  0  0  0  0  0  0  0  0
   52.6455   24.9600   44.1874 H   0  0  0  0  0  0  0  0  0  0  0  0
   52.7528   23.1669   44.1874 H   0  0  0  0  0  0  0  0  0  0  0  0
   54.4330   23.0400   46.3710 C   0  0  0  0  0  0  0  0  0  0  0  0
   53.8711   22.0943   46.3754 H   0  0  0  0  0  0  0  0  0  0  0  0
   55.6160   23.1710   47.0990 C   0  0  0  0  0  0  0  0  0  0  0  0
   55.9968   22.3224   47.6863 H   0  0  0  0  0  0  0  0  0  0  0  0
   56.2980   24.3460   47.0830 N   0  0  0  0  0  0  0  0  0  0  0  0
   57.1890   29.1960   44.0000 C   0  0  0  0  0  0  0  0  0  0  0  0
   56.4894   28.5774   43.4187 H   0  0  0  0  0  0  0  0  0  0  0  0
   57.3310   30.5530   43.7010 C   0  0  0  0  0  0  0  0  0  0  0  0
   56.7496   30.9967   42.8793 H   0  0  0  0  0  0  0  0  0  0  0  0
   58.2180   32.9870   47.7590 C   0  0  0  0  0  0  0  0  0  0  0  0
   57.1887   32.6489   47.5689 H   0  0  0  0  0  0  0  0  0  0  0  0
  1  2  1  0
  2  3  1  0
  3  4  2  0
  3  5  1  0
  5  6  1  0
  5  7  1  0
  7  8  2  0
  8  9  1  0
  8 10  1  0
 10 11  1  0
 10 12  2  0
 12 13  1  0
 12 14  1  0
 14 15  1  0
 15 16  2  0
 15 17  2  0
 15 18  1  0
 18 19  1  0
 19 20  2  0
 20 21  1  0
 20 22  1  0
 22 23  1  0
 22 24  2  0
 24 25  1  0
 25 26  2  0
 25 27  2  0
 25 28  1  0
 28 29  2  0
 29 30  1  0
 30 31  2  0
 31 32  1  0
 32 33  1  0
 32 34  1  0
 32 35  1  0
 31 36  1  0
 36 37  1  0
 36 38  2  0
 38 39  1  0
 38 40  1  0
 24 41  1  0
 41 42  1  0
 41 43  2  0
 43 44  1  0
 14 45  2  0
 45 46  1  0
 45  7  1  0
 43 19  1  0
 40 29  1  0
M  CHG  3   2  -1  18  -1  40  -1
M  END
>  <UniqueID>  (71) 
67

>  <SMILES>  (71) 
Cc1cc[n-]/c(=N/S(=O)(=O)c2ccc([N-]S(=O)(=O)c3cccc(NC([NH-])=O)c3)cc2)n1

>  <Energy>  (71) 
54.155298667497476

>  <Genealogy>  (71) 
Cc1cc[n-]c(=NS(=O)(=O)c2ccc([N-]S(=O)(=O)c3cccc(NC([NH-])=O)c3)cc2)n1 (protonated)
Cc1cc[n-]/c(=N/S(=O)(=O)c2ccc([N-]S(=O)(=O)c3cccc(NC([NH-])=O)c3)cc2)n1 (cis-trans isomerization)
Cc1cc[n-]/c(=N/S(=O)(=O)c2ccc([N-]S(=O)(=O)c3cccc(NC([NH-])=O)c3)cc2)n1 (3D coordinates assigned)
Cc1cc[n-]/c(=N/S(=O)(=O)c2ccc([N-]S(=O)(=O)c3cccc(NC([NH-])=O)c3)cc2)n1 (optimized conformer: 54.155298667497476 kcal/mol)

>  <smiles>  (71) 
Cc1cc[nH]c(=NS(=O)(=O)c2ccc(NS(=O)(=O)c3cccc(NC(N)=O)c3)cc2)n1

>  <score_type>  (71) 
oracle

>  <origin>  (71) 
adg

>  <m_score__min__energy>  (71) 
-13.52

>  <m_primary>  (71) 
energy

$$$$
71:0
     RDKit          3D

 85 88  0  0  1  0  0  0  0  0999 V2000
   65.7860   28.1590   51.6070 C   0  0  0  0  0  0  0  0  0  0  0  0
   65.5900   28.7520   52.9760 C   0  0  0  0  0  0  0  0  0  0  0  0
   66.6610   29.9020   52.9810 C   0  0  0  0  0  0  0  0  0  0  0  0
   63.9840   32.4630   49.7970 N   0  0  0  0  0  0  0  0  0  0  0  0
   63.4640   31.5660   50.5650 C   0  0  0  0  0  0  0  0  0  0  0  0
   64.2630   31.0250   51.5000 N   0  0  0  0  0  0  0  0  0  0  0  0
   63.6990   30.0900   52.2950 C   0  0  0  0  0  0  0  0  0  0  0  0
   64.4190   29.5300   53.1620 N   0  0  0  0  0  0  0  0  0  0  0  0
   63.2320   33.0390   48.7290 C   0  0  0  0  0  0  0  0  0  0  0  0
   63.7900   32.9200   47.4510 C   0  0  0  0  0  0  0  0  0  0  0  0
   63.1460   33.4440   46.3500 C   0  0  0  0  0  0  0  0  0  0  0  0
   61.9430   34.0830   46.5660 C   0  0  0  0  0  0  0  0  0  0  0  0
   61.3870   34.2060   47.8060 C   0  0  0  0  0  0  0  0  0  0  0  0
   60.0930   34.9000   47.9690 C   0  0  0  0  0  0  0  0  0  0  0  0
   59.1470   34.5320   46.8610 C   0  0  0  0  0  0  0  0  0  0  0  0
   59.1460   35.3060   45.8790 O   0  0  0  0  0  0  0  0  0  0  0  0
   58.3500   33.3830   46.9910 N   0  0  0  0  0  0  0  0  0  0  0  0
   57.3790   32.8500   46.1210 C   0  0  0  0  0  0  0  0  0  0  0  0
   57.6390   32.5010   44.7250 C   0  0  0  0  0  0  0  0  0  0  0  0
   57.3590   30.8700   44.2030 S   0  0  0  0  0  0  0  0  0  0  0  0
   58.9500   30.0980   44.0020 N   0  0  0  0  0  0  0  0  0  0  0  0
   56.7040   30.0500   45.2950 O   0  0  0  0  0  0  0  0  0  0  0  0
   56.6450   30.8330   42.9040 O   0  0  0  0  0  0  0  0  0  0  0  0
   62.0270   33.6820   48.9230 C   0  0  0  0  0  0  0  0  0  0  0  0
   61.5110   33.7790   50.1950 O   0  0  0  0  0  0  0  0  0  0  0  0
   62.1670   31.1950   50.4280 N   0  0  0  0  0  0  0  0  0  0  0  0
   61.5730   30.2750   51.1930 C   0  0  0  0  0  0  0  0  0  0  0  0
   60.2870   29.8460   51.1270 O   0  0  0  0  0  0  0  0  0  0  0  0
   59.2050   30.4010   51.7840 C   0  0  0  0  0  0  0  0  0  0  0  0
   59.2010   31.8910   51.9000 C   0  0  0  0  0  0  0  0  0  0  0  0
   59.1110   32.4290   50.4770 C   0  0  0  0  0  0  0  0  0  0  0  0
   58.4610   31.4740   49.6850 O   0  0  0  0  0  0  0  0  0  0  0  0
   59.0520   30.7990   48.6370 C   0  0  0  0  0  0  0  0  0  0  0  0
   58.5800   29.5910   48.1730 C   0  0  0  0  0  0  0  0  0  0  0  0
   59.2750   29.0240   47.1120 C   0  0  0  0  0  0  0  0  0  0  0  0
   60.3750   29.6080   46.5360 C   0  0  0  0  0  0  0  0  0  0  0  0
   61.0880   29.0730   45.4830 O   0  0  0  0  0  0  0  0  0  0  0  0
   60.8180   30.8310   47.0410 C   0  0  0  0  0  0  0  0  0  0  0  0
   60.1470   31.3790   48.0630 N   0  0  0  0  0  0  0  0  0  0  0  0
   62.3860   29.6940   52.1810 C   0  0  0  0  0  0  0  0  0  0  0  0
   61.8010   28.7360   53.0100 O   0  0  0  0  0  0  0  0  0  0  0  0
   62.2880   27.4230   52.7730 C   0  0  0  0  0  0  0  0  0  0  0  0
   63.1360   26.8100   53.6790 C   0  0  0  0  0  0  0  0  0  0  0  0
   63.5690   25.5220   53.3750 C   0  0  0  0  0  0  0  0  0  0  0  0
   63.1910   24.8590   52.2320 C   0  0  0  0  0  0  0  0  0  0  0  0
   62.3420   25.4870   51.3350 C   0  0  0  0  0  0  0  0  0  0  0  0
   61.8970   26.7650   51.6130 C   0  0  0  0  0  0  0  0  0  0  0  0
   61.0430   27.3590   50.6840 O   0  0  0  0  0  0  0  0  0  0  0  0
   66.1299   27.1186   51.7039 H   0  0  0  0  0  0  0  0  0  0  0  0
   64.8329   28.1806   51.0582 H   0  0  0  0  0  0  0  0  0  0  0  0
   66.5385   28.7443   51.0582 H   0  0  0  0  0  0  0  0  0  0  0  0
   65.6030   27.9242   53.7003 H   0  0  0  0  0  0  0  0  0  0  0  0
   66.9086   30.1679   54.0193 H   0  0  0  0  0  0  0  0  0  0  0  0
   67.5693   29.5594   52.4636 H   0  0  0  0  0  0  0  0  0  0  0  0
   66.2548   30.7836   52.4636 H   0  0  0  0  0  0  0  0  0  0  0  0
   65.2540   31.2870   51.6290 H   0  0  0  0  0  0  0  0  0  0  0  0
   64.7525   32.4030   47.3235 H   0  0  0  0  0  0  0  0  0  0  0  0
   63.5743   33.3559   45.3406 H   0  0  0  0  0  0  0  0  0  0  0  0
   61.4103   34.5107   45.7039 H   0  0  0  0  0  0  0  0  0  0  0  0
   59.6484   34.6124   48.9332 H   0  0  0  0  0  0  0  0  0  0  0  0
   60.2685   35.9854   47.9369 H   0  0  0  0  0  0  0  0  0  0  0  0
   58.5150   32.8300   47.9070 H   0  0  0  0  0  0  0  0  0  0  0  0
   57.0250   31.9248   46.5993 H   0  0  0  0  0  0  0  0  0  0  0  0
   56.7078   33.7131   46.0006 H   0  0  0  0  0  0  0  0  0  0  0  0
   57.0041   33.1518   44.1058 H   0  0  0  0  0  0  0  0  0  0  0  0
   58.7259   32.6311   44.6171 H   0  0  0  0  0  0  0  0  0  0  0  0
   58.8880   29.5360   43.1250 H   0  0  0  0  0  0  0  0  0  0  0  0
   58.9480   29.3910   44.7920 H   0  0  0  0  0  0  0  0  0  0  0  0
   61.9970   33.4840   51.0320 H   0  0  0  0  0  0  0  0  0  0  0  0
   61.6390   31.6920   49.6870 H   0  0  0  0  0  0  0  0  0  0  0  0
   58.2945   30.1034   51.2433 H   0  0  0  0  0  0  0  0  0  0  0  0
   59.2602   30.0240   52.8159 H   0  0  0  0  0  0  0  0  0  0  0  0
   58.3343   32.2251   52.4893 H   0  0  0  0  0  0  0  0  0  0  0  0
   60.1053   32.2554   52.4094 H   0  0  0  0  0  0  0  0  0  0  0  0
   58.5394   33.3688   50.4703 H   0  0  0  0  0  0  0  0  0  0  0  0
   60.1187   32.6257   50.0822 H   0  0  0  0  0  0  0  0  0  0  0  0
   57.7009   29.1020   48.6181 H   0  0  0  0  0  0  0  0  0  0  0  0
   58.9263   28.0596   46.7142 H   0  0  0  0  0  0  0  0  0  0  0  0
   60.9060   29.3740   44.5300 H   0  0  0  0  0  0  0  0  0  0  0  0
   61.6969   31.3331   46.6104 H   0  0  0  0  0  0  0  0  0  0  0  0
   63.4546   27.3190   54.6006 H   0  0  0  0  0  0  0  0  0  0  0  0
   64.2427   25.0132   54.0801 H   0  0  0  0  0  0  0  0  0  0  0  0
   63.5582   23.8416   52.0316 H   0  0  0  0  0  0  0  0  0  0  0  0
   62.0266   24.9749   50.4140 H   0  0  0  0  0  0  0  0  0  0  0  0
   60.5760   28.2550   50.8550 H   0  0  0  0  0  0  0  0  0  0  0  0
  1  2  1  0
  2  3  1  0
  2  4  1  0
  4  5  2  0
  5  6  1  0
  6  7  1  0
  7  8  2  0
  8  9  1  0
  9 10  2  0
 10 11  1  0
 11 12  2  0
 12 13  1  0
 13 14  1  0
 14 15  1  0
 15 16  2  0
 15 17  1  0
 17 18  1  0
 18 19  1  0
 19 20  1  0
 20 21  1  0
 20 22  2  0
 20 23  2  0
 13 24  2  0
 24 25  1  0
  7 26  1  0
 26 27  1  0
 27 28  1  0
 28 29  1  0
 29 30  1  0
 30 31  1  0
 31 32  1  0
 32 33  1  0
 33 34  2  0
 34 35  1  0
 35 36  2  0
 36 37  1  0
 36 38  1  0
 38 39  2  0
 27 40  2  0
 40 41  1  0
 41 42  1  0
 42 43  2  0
 43 44  1  0
 44 45  2  0
 45 46  1  0
 46 47  2  0
 47 48  1  0
 40  5  1  0
 47 42  1  0
 24  9  1  0
 39 33  1  0
  1 49  1  0
  1 50  1  0
  1 51  1  0
  2 52  1  0
  3 53  1  0
  3 54  1  0
  3 55  1  0
  6 56  1  0
 10 57  1  0
 11 58  1  0
 12 59  1  0
 14 60  1  0
 14 61  1  0
 17 62  1  0
 18 63  1  0
 18 64  1  0
 19 65  1  0
 19 66  1  0
 21 67  1  0
 21 68  1  0
 25 69  1  0
 26 70  1  0
 29 71  1  0
 29 72  1  0
 30 73  1  0
 30 74  1  0
 31 75  1  0
 31 76  1  0
 34 77  1  0
 35 78  1  0
 37 79  1  0
 38 80  1  0
 43 81  1  0
 44 82  1  0
 45 83  1  0
 46 84  1  0
 48 85  1  0
M  END
>  <smiles>  (72) 
CC(C)N=c1[nH]c(=Nc2cccc(CC(=O)NCCS(N)(=O)=O)c2O)[nH]c(OCCCOc2ccc(O)cn2)c1Oc1ccccc1O

>  <score_type>  (72) 
oracle

>  <origin>  (72) 
adg

>  <m_score__min__energy>  (72) 
-8.8599999999999994

>  <m_primary>  (72) 
energy

$$$$
72:0
     RDKit          3D

 35 37  0  0  0  0  0  0  0  0999 V2000
   57.0280   27.6680   45.7790 O   0  0  0  0  0  0  0  0  0  0  0  0
   56.8960   28.8130   45.2750 C   0  0  0  0  0  0  0  0  0  0  0  0
   55.6880   29.3620   45.0530 N   0  0  0  0  0  0  0  0  0  0  0  0
   55.9070   30.5530   44.5230 N   0  0  0  0  0  0  0  0  0  0  0  0
   57.2500   30.7630   44.4070 C   0  0  0  0  0  0  0  0  0  0  0  0
   57.8390   32.0050   43.8480 C   0  0  0  0  0  0  0  0  0  0  0  0
   58.2810   32.9210   44.9490 C   0  0  0  0  0  0  0  0  0  0  0  0
   57.9870   32.6970   46.2730 C   0  0  0  0  0  0  0  0  0  0  0  0
   58.4210   33.5850   47.2580 C   0  0  0  0  0  0  0  0  0  0  0  0
   59.1500   34.6880   46.8460 C   0  0  0  0  0  0  0  0  0  0  0  0
   59.4450   34.9150   45.5140 C   0  0  0  0  0  0  0  0  0  0  0  0
   59.0150   34.0330   44.5340 C   0  0  0  0  0  0  0  0  0  0  0  0
   57.8750   29.6760   44.8760 N   0  0  0  0  0  0  0  0  0  0  0  0
   59.2770   29.3580   44.9790 C   0  0  0  0  0  0  0  0  0  0  0  0
   59.8590   29.7460   46.2900 C   0  0  0  0  0  0  0  0  0  0  0  0
   60.9930   30.5010   46.4370 C   0  0  0  0  0  0  0  0  0  0  0  0
   61.5260   30.8530   47.6670 C   0  0  0  0  0  0  0  0  0  0  0  0
   60.9050   30.4350   48.8250 C   0  0  0  0  0  0  0  0  0  0  0  0
   61.4470   30.7930   50.0160 F   0  0  0  0  0  0  0  0  0  0  0  0
   59.7610   29.6740   48.7170 C   0  0  0  0  0  0  0  0  0  0  0  0
   59.1660   29.2740   49.8690 F   0  0  0  0  0  0  0  0  0  0  0  0
   59.2430   29.3320   47.4770 C   0  0  0  0  0  0  0  0  0  0  0  0
   54.7520   28.9700   45.2440 H   0  0  0  0  0  0  0  0  0  0  0  0
   58.7067   31.7446   43.2241 H   0  0  0  0  0  0  0  0  0  0  0  0
   57.0765   32.5185   43.2440 H   0  0  0  0  0  0  0  0  0  0  0  0
   57.4039   31.8091   46.5588 H   0  0  0  0  0  0  0  0  0  0  0  0
   58.1929   33.4154   48.3206 H   0  0  0  0  0  0  0  0  0  0  0  0
   59.5051   35.4051   47.6008 H   0  0  0  0  0  0  0  0  0  0  0  0
   60.0266   35.8041   45.2290 H   0  0  0  0  0  0  0  0  0  0  0  0
   59.2435   34.2032   43.4715 H   0  0  0  0  0  0  0  0  0  0  0  0
   59.4024   28.2733   44.8456 H   0  0  0  0  0  0  0  0  0  0  0  0
   59.8047   29.9277   44.1999 H   0  0  0  0  0  0  0  0  0  0  0  0
   61.5086   30.8467   45.5289 H   0  0  0  0  0  0  0  0  0  0  0  0
   62.4400   31.4629   47.7192 H   0  0  0  0  0  0  0  0  0  0  0  0
   58.3288   28.7225   47.4249 H   0  0  0  0  0  0  0  0  0  0  0  0
  1  2  2  0
  2  3  1  0
  3  4  1  0
  4  5  2  0
  5  6  1  0
  6  7  1  0
  7  8  2  0
  8  9  1  0
  9 10  2  0
 10 11  1  0
 11 12  2  0
  5 13  1  0
 13 14  1  0
 14 15  1  0
 15 16  2  0
 16 17  1  0
 17 18  2  0
 18 19  1  0
 18 20  1  0
 20 21  1  0
 20 22  2  0
 13  2  1  0
 22 15  1  0
 12  7  1  0
  3 23  1  0
  6 24  1  0
  6 25  1  0
  8 26  1  0
  9 27  1  0
 10 28  1  0
 11 29  1  0
 12 30  1  0
 14 31  1  0
 14 32  1  0
 16 33  1  0
 17 34  1  0
 22 35  1  0
M  END
>  <smiles>  (73) 
O=c1[nH]nc(Cc2ccccc2)n1Cc1ccc(F)c(F)c1

>  <score_type>  (73) 
oracle

>  <origin>  (73) 
adg

>  <m_score__min__energy>  (73) 
-8.0899999999999999

>  <m_primary>  (73) 
energy

$$$$
73:0
     RDKit          3D

 52 54  0  0  1  0  0  0  0  0999 V2000
   60.3350   27.5660   48.3430 C   0  0  0  0  0  0  0  0  0  0  0  0
   59.6140   26.6170   47.5410 O   0  0  0  0  0  0  0  0  0  0  0  0
   58.5960   27.0400   46.7060 C   0  0  0  0  0  0  0  0  0  0  0  0
   58.8600   28.0520   45.8100 C   0  0  0  0  0  0  0  0  0  0  0  0
   57.8390   28.4870   44.9520 C   0  0  0  0  0  0  0  0  0  0  0  0
   58.0600   29.4280   44.1370 N   0  0  0  0  0  0  0  0  0  0  0  0
   57.6970   31.0460   44.4460 S   0  0  0  0  0  0  0  0  0  0  0  0
   56.2330   31.2300   44.8100 O   0  0  0  0  0  0  0  0  0  0  0  0
   57.8350   31.7960   43.1150 O   0  0  0  0  0  0  0  0  0  0  0  0
   58.7070   31.8470   45.6240 C   0  0  0  0  0  0  0  0  0  0  0  0
   59.2290   31.2080   46.7300 C   0  0  0  0  0  0  0  0  0  0  0  0
   60.0210   31.8170   47.6740 C   0  0  0  0  0  0  0  0  0  0  0  0
   60.3340   33.1790   47.5250 C   0  0  0  0  0  0  0  0  0  0  0  0
   61.1450   33.7250   48.5530 N   0  0  0  0  0  0  0  0  0  0  0  0
   62.5270   33.3170   48.5350 C   0  0  0  0  0  0  0  0  0  0  0  0
   62.8440   32.5120   47.6240 O   0  0  0  0  0  0  0  0  0  0  0  0
   63.4650   33.7970   49.4860 N   0  0  0  0  0  0  0  0  0  0  0  0
   64.8640   33.4360   49.5070 C   0  0  0  0  0  0  0  0  0  0  0  0
   65.0790   32.1620   50.2790 C   0  0  0  0  0  0  0  0  0  0  0  0
   64.0000   31.4370   50.7580 C   0  0  0  0  0  0  0  0  0  0  0  0
   64.2310   30.2570   51.4660 C   0  0  0  0  0  0  0  0  0  0  0  0
   65.4950   29.7820   51.7120 C   0  0  0  0  0  0  0  0  0  0  0  0
   66.5890   30.5130   51.2300 C   0  0  0  0  0  0  0  0  0  0  0  0
   66.3560   31.6910   50.5210 C   0  0  0  0  0  0  0  0  0  0  0  0
   59.8380   33.8330   46.4490 C   0  0  0  0  0  0  0  0  0  0  0  0
   59.0370   33.2040   45.5020 C   0  0  0  0  0  0  0  0  0  0  0  0
   56.6470   27.8830   45.0550 N   0  0  0  0  0  0  0  0  0  0  0  0
   56.3790   26.9010   45.9220 C   0  0  0  0  0  0  0  0  0  0  0  0
   55.1220   26.2840   46.0090 O   0  0  0  0  0  0  0  0  0  0  0  0
   54.9980   24.9210   45.6450 C   0  0  0  0  0  0  0  0  0  0  0  0
   57.3650   26.4830   46.7500 N   0  0  0  0  0  0  0  0  0  0  0  0
   60.1688   27.3472   49.4081 H   0  0  0  0  0  0  0  0  0  0  0  0
   61.4093   27.4954   48.1175 H   0  0  0  0  0  0  0  0  0  0  0  0
   59.9790   28.5821   48.1175 H   0  0  0  0  0  0  0  0  0  0  0  0
   59.8579   28.5129   45.7677 H   0  0  0  0  0  0  0  0  0  0  0  0
   58.9961   30.1415   46.8650 H   0  0  0  0  0  0  0  0  0  0  0  0
   60.4041   31.2469   48.5332 H   0  0  0  0  0  0  0  0  0  0  0  0
   60.8440   34.3700   49.2910 H   0  0  0  0  0  0  0  0  0  0  0  0
   63.0670   34.4650   50.2140 H   0  0  0  0  0  0  0  0  0  0  0  0
   65.2149   33.2947   48.4741 H   0  0  0  0  0  0  0  0  0  0  0  0
   65.4277   34.2433   49.9975 H   0  0  0  0  0  0  0  0  0  0  0  0
   62.9724   31.7878   50.5821 H   0  0  0  0  0  0  0  0  0  0  0  0
   63.3684   29.6865   51.8407 H   0  0  0  0  0  0  0  0  0  0  0  0
   65.6458   28.8489   52.2746 H   0  0  0  0  0  0  0  0  0  0  0  0
   67.6164   30.1628   51.4083 H   0  0  0  0  0  0  0  0  0  0  0  0
   67.2155   32.2636   50.1423 H   0  0  0  0  0  0  0  0  0  0  0  0
   60.0767   34.8989   46.3190 H   0  0  0  0  0  0  0  0  0  0  0  0
   58.6570   33.7795   44.6450 H   0  0  0  0  0  0  0  0  0  0  0  0
   55.9040   28.2030   44.4100 H   0  0  0  0  0  0  0  0  0  0  0  0
   54.9417   24.3027   46.5530 H   0  0  0  0  0  0  0  0  0  0  0  0
   54.0835   24.7822   45.0496 H   0  0  0  0  0  0  0  0  0  0  0  0
   55.8724   24.6195   45.0496 H   0  0  0  0  0  0  0  0  0  0  0  0
  1  2  1  0
  2  3  1  0
  3  4  2  0
  4  5  1  0
  5  6  2  0
  6  7  1  0
  7  8  2  0
  7  9  2  0
  7 10  1  0
 10 11  2  0
 11 12  1  0
 12 13  2  0
 13 14  1  0
 14 15  1  0
 15 16  2  0
 15 17  1  0
 17 18  1  0
 18 19  1  0
 19 20  2  0
 20 21  1  0
 21 22  2  0
 22 23  1  0
 23 24  2  0
 13 25  1  0
 25 26  2  0
  5 27  1  0
 27 28  1  0
 28 29  1  0
 29 30  1  0
 28 31  2  0
 31  3  1  0
 26 10  1  0
 24 19  1  0
  1 32  1  0
  1 33  1  0
  1 34  1  0
  4 35  1  0
 11 36  1  0
 12 37  1  0
 14 38  1  0
 17 39  1  0
 18 40  1  0
 18 41  1  0
 20 42  1  0
 21 43  1  0
 22 44  1  0
 23 45  1  0
 24 46  1  0
 25 47  1  0
 26 48  1  0
 27 49  1  0
 30 50  1  0
 30 51  1  0
 30 52  1  0
M  END
>  <smiles>  (74) 
COc1cc(=NS(=O)(=O)c2ccc(NC(=O)NCc3ccccc3)cc2)[nH]c(OC)n1

>  <score_type>  (74) 
oracle

>  <origin>  (74) 
adg

>  <m_score__min__energy>  (74) 
-8.6899999999999995

>  <m_primary>  (74) 
energy

$$$$
74:0
     RDKit          3D

 55 58  0  0  0  0  0  0  0  0999 V2000
   59.9200   27.3240   52.7110 C   0  0  0  0  0  0  0  0  0  0  0  0
   60.1100   28.6480   52.1090 N   0  0  0  0  0  0  0  0  0  0  0  0
   59.0440   29.4550   51.9340 N   0  0  0  0  0  0  0  0  0  0  0  0
   59.1470   30.6960   51.3520 C   0  0  0  0  0  0  0  0  0  0  0  0
   57.9310   31.5180   51.1320 C   0  0  0  0  0  0  0  0  0  0  0  0
   58.0250   32.7480   50.8710 O   0  0  0  0  0  0  0  0  0  0  0  0
   56.6370   30.9100   51.2070 N   0  0  0  0  0  0  0  0  0  0  0  0
   55.8860   30.7680   52.4480 C   0  0  0  0  0  0  0  0  0  0  0  0
   54.4200   30.7330   52.1570 C   0  0  0  0  0  0  0  0  0  0  0  0
   53.5910   29.6350   52.2940 C   0  0  0  0  0  0  0  0  0  0  0  0
   52.3350   30.0670   51.9210 C   0  0  0  0  0  0  0  0  0  0  0  0
   52.4820   31.4000   51.5820 C   0  0  0  0  0  0  0  0  0  0  0  0
   51.4150   32.2990   51.1320 C   0  0  0  0  0  0  0  0  0  0  0  0
   51.3960   32.7240   49.9470 O   0  0  0  0  0  0  0  0  0  0  0  0
   50.4140   32.6820   52.0140 O   0  0  0  0  0  0  0  0  0  0  0  0
   53.7330   31.7680   51.7300 O   0  0  0  0  0  0  0  0  0  0  0  0
   60.4220   31.1040   50.9430 C   0  0  0  0  0  0  0  0  0  0  0  0
   60.8780   32.2360   50.2890 C   0  0  0  0  0  0  0  0  0  0  0  0
   62.2270   31.9980   50.0420 C   0  0  0  0  0  0  0  0  0  0  0  0
   63.1360   32.8890   49.2470 C   0  0  0  0  0  0  0  0  0  0  0  0
   63.2300   32.4530   47.8450 N   0  0  0  0  0  0  0  0  0  0  0  0
   62.1640   31.5060   47.4630 C   0  0  0  0  0  0  0  0  0  0  0  0
   60.8910   32.2480   47.1010 C   0  0  0  0  0  0  0  0  0  0  0  0
   60.9980   33.6230   46.8130 C   0  0  0  0  0  0  0  0  0  0  0  0
   59.8640   34.3950   46.5720 C   0  0  0  0  0  0  0  0  0  0  0  0
   58.6040   33.8050   46.5930 C   0  0  0  0  0  0  0  0  0  0  0  0
   58.4750   32.4350   46.8180 C   0  0  0  0  0  0  0  0  0  0  0  0
   59.6100   31.6270   47.0470 C   0  0  0  0  0  0  0  0  0  0  0  0
   59.4360   30.1280   47.2100 C   0  0  0  0  0  0  0  0  0  0  0  0
   60.2620   29.4560   46.3300 F   0  0  0  0  0  0  0  0  0  0  0  0
   59.7470   29.7110   48.4940 F   0  0  0  0  0  0  0  0  0  0  0  0
   58.1210   29.7810   46.9600 F   0  0  0  0  0  0  0  0  0  0  0  0
   62.6080   30.8110   50.5620 N   0  0  0  0  0  0  0  0  0  0  0  0
   61.4970   30.2770   51.0950 C   0  0  0  0  0  0  0  0  0  0  0  0
   61.3560   29.0260   51.6780 C   0  0  0  0  0  0  0  0  0  0  0  0
   62.3520   28.2620   51.7960 O   0  0  0  0  0  0  0  0  0  0  0  0
   59.9330   27.4144   53.8072 H   0  0  0  0  0  0  0  0  0  0  0  0
   58.9532   26.9099   52.3886 H   0  0  0  0  0  0  0  0  0  0  0  0
   60.7313   26.6548   52.3886 H   0  0  0  0  0  0  0  0  0  0  0  0
   58.1040   29.1250   52.2460 H   0  0  0  0  0  0  0  0  0  0  0  0
   56.1807   29.8332   52.9473 H   0  0  0  0  0  0  0  0  0  0  0  0
   56.1040   31.6250   53.1022 H   0  0  0  0  0  0  0  0  0  0  0  0
   53.8740   28.6267   52.6304 H   0  0  0  0  0  0  0  0  0  0  0  0
   51.4086   29.4743   51.8980 H   0  0  0  0  0  0  0  0  0  0  0  0
   60.2982   33.1318   50.0218 H   0  0  0  0  0  0  0  0  0  0  0  0
   62.7440   33.9164   49.2760 H   0  0  0  0  0  0  0  0  0  0  0  0
   64.1412   32.8399   49.6911 H   0  0  0  0  0  0  0  0  0  0  0  0
   64.1450   31.9530   47.7410 H   0  0  0  0  0  0  0  0  0  0  0  0
   62.4978   30.9174   46.5957 H   0  0  0  0  0  0  0  0  0  0  0  0
   61.9566   30.8442   48.3168 H   0  0  0  0  0  0  0  0  0  0  0  0
   61.9916   34.0937   46.7780 H   0  0  0  0  0  0  0  0  0  0  0  0
   59.9645   35.4707   46.3651 H   0  0  0  0  0  0  0  0  0  0  0  0
   57.7071   34.4211   46.4316 H   0  0  0  0  0  0  0  0  0  0  0  0
   57.4748   31.9772   46.8171 H   0  0  0  0  0  0  0  0  0  0  0  0
   63.5580   30.3800   50.5190 H   0  0  0  0  0  0  0  0  0  0  0  0
  1  2  1  0
  2  3  1  0
  3  4  2  0
  4  5  1  0
  5  6  2  0
  5  7  1  0
  7  8  1  0
  8  9  1  0
  9 10  2  0
 10 11  1  0
 11 12  2  0
 12 13  1  0
 13 14  2  0
 13 15  1  0
 12 16  1  0
  4 17  1  0
 17 18  1  0
 18 19  2  0
 19 20  1  0
 20 21  1  0
 21 22  1  0
 22 23  1  0
 23 24  2  0
 24 25  1  0
 25 26  2  0
 26 27  1  0
 27 28  2  0
 28 29  1  0
 29 30  1  0
 29 31  1  0
 29 32  1  0
 19 33  1  0
 33 34  1  0
 34 35  1  0
 35 36  2  0
 35  2  1  0
 16  9  1  0
 34 17  2  0
 28 23  1  0
  1 37  1  0
  1 38  1  0
  1 39  1  0
  3 40  1  0
  8 41  1  0
  8 42  1  0
 10 43  1  0
 11 44  1  0
 18 45  1  0
 20 46  1  0
 20 47  1  0
 21 48  1  0
 22 49  1  0
 22 50  1  0
 24 51  1  0
 25 52  1  0
 26 53  1  0
 27 54  1  0
 33 55  1  0
M  CHG  3   3   1   7  -1  15  -1
M  END
>  <UniqueID>  (75) 
68

>  <SMILES>  (75) 
Cn1[nH+]c(C(=O)[N-]Cc2ccc(C(=O)[O-])o2)c2cc(CNCc3ccccc3C(F)(F)F)[nH]c2c1=O

>  <Energy>  (75) 
115.68484950267114

>  <Genealogy>  (75) 
Cn1[nH+]c(C(=O)[N-]Cc2ccc(C(=O)[O-])o2)c2cc(CNCc3ccccc3C(F)(F)F)[nH]c2c1=O (protonated)
Cn1[nH+]c(C(=O)[N-]Cc2ccc(C(=O)[O-])o2)c2cc(CNCc3ccccc3C(F)(F)F)[nH]c2c1=O (3D coordinates assigned)
Cn1[nH+]c(C(=O)[N-]Cc2ccc(C(=O)[O-])o2)c2cc(CNCc3ccccc3C(F)(F)F)[nH]c2c1=O (optimized conformer: 115.68484950267114 kcal/mol)

>  <smiles>  (75) 
Cn1nc(C(=O)NCc2ccc(C(=O)O)o2)c2cc(CNCc3ccccc3C(F)(F)F)[nH]c2c1=O

>  <score_type>  (75) 
oracle

>  <origin>  (75) 
adg

>  <m_score__min__energy>  (75) 
-11.460000000000001

>  <m_primary>  (75) 
energy

$$$$
75:0
     RDKit          3D

 38 39  0  0  0  0  0  0  0  0999 V2000
   60.7790   26.7610   47.1480 C   0  0  0  0  0  0  0  0  0  0  0  0
   59.7270   27.5060   46.3820 C   0  0  0  0  0  0  0  0  0  0  0  0
   60.0910   28.4510   45.4090 C   0  0  0  0  0  0  0  0  0  0  0  0
   59.1100   29.1720   44.7220 C   0  0  0  0  0  0  0  0  0  0  0  0
   57.7530   28.9660   45.0110 C   0  0  0  0  0  0  0  0  0  0  0  0
   56.5050   29.8780   44.1710 S   0  0  0  0  0  0  0  0  0  0  0  0
   56.6350   29.7190   42.6810 O   0  0  0  0  0  0  0  0  0  0  0  0
   55.1560   29.3700   44.5960 O   0  0  0  0  0  0  0  0  0  0  0  0
   56.6390   31.5560   44.5760 N   0  0  0  0  0  0  0  0  0  0  0  0
   57.7800   32.0920   45.2470 C   0  0  0  0  0  0  0  0  0  0  0  0
   58.5340   32.9120   44.6540 O   0  0  0  0  0  0  0  0  0  0  0  0
   58.0810   31.6560   46.5790 N   0  0  0  0  0  0  0  0  0  0  0  0
   59.0910   32.2470   47.4150 C   0  0  0  0  0  0  0  0  0  0  0  0
   58.7370   32.7320   48.6820 C   0  0  0  0  0  0  0  0  0  0  0  0
   59.6950   33.3300   49.5050 C   0  0  0  0  0  0  0  0  0  0  0  0
   61.0140   33.4620   49.0620 C   0  0  0  0  0  0  0  0  0  0  0  0
   61.3800   32.9970   47.7920 C   0  0  0  0  0  0  0  0  0  0  0  0
   63.0320   33.1990   47.2180 S   0  0  0  0  0  0  0  0  0  0  0  0
   63.8040   31.6560   47.1150 N   0  0  0  0  0  0  0  0  0  0  0  0
   63.7950   34.0790   48.1690 O   0  0  0  0  0  0  0  0  0  0  0  0
   63.0270   33.8470   45.8620 O   0  0  0  0  0  0  0  0  0  0  0  0
   60.4150   32.4040   46.9660 C   0  0  0  0  0  0  0  0  0  0  0  0
   57.3880   28.0360   45.9940 C   0  0  0  0  0  0  0  0  0  0  0  0
   58.3690   27.3140   46.6810 C   0  0  0  0  0  0  0  0  0  0  0  0
   60.6039   26.8850   48.2269 H   0  0  0  0  0  0  0  0  0  0  0  0
   60.7334   25.6928   46.8895 H   0  0  0  0  0  0  0  0  0  0  0  0
   61.7715   27.1587   46.8895 H   0  0  0  0  0  0  0  0  0  0  0  0
   61.1541   28.6248   45.1862 H   0  0  0  0  0  0  0  0  0  0  0  0
   59.4028   29.9023   43.9533 H   0  0  0  0  0  0  0  0  0  0  0  0
   57.5940   30.7970   46.9240 H   0  0  0  0  0  0  0  0  0  0  0  0
   57.6977   32.6411   49.0307 H   0  0  0  0  0  0  0  0  0  0  0  0
   59.4108   33.6971   50.5022 H   0  0  0  0  0  0  0  0  0  0  0  0
   61.7666   33.9321   49.7120 H   0  0  0  0  0  0  0  0  0  0  0  0
   64.5020   31.7160   46.3420 H   0  0  0  0  0  0  0  0  0  0  0  0
   64.3440   31.5270   48.0000 H   0  0  0  0  0  0  0  0  0  0  0  0
   60.6950   32.0590   45.9597 H   0  0  0  0  0  0  0  0  0  0  0  0
   56.3252   27.8733   46.2261 H   0  0  0  0  0  0  0  0  0  0  0  0
   58.0755   26.5932   47.4583 H   0  0  0  0  0  0  0  0  0  0  0  0
  1  2  1  0
  2  3  2  0
  3  4  1  0
  4  5  2  0
  5  6  1  0
  6  7  2  0
  6  8  2  0
  6  9  1  0
  9 10  1  0
 10 11  2  0
 10 12  1  0
 12 13  1  0
 13 14  2  0
 14 15  1  0
 15 16  2  0
 16 17  1  0
 17 18  1  0
 18 19  1  0
 18 20  2  0
 18 21  2  0
 17 22  2  0
  5 23  1  0
 23 24  2  0
 24  2  1  0
 22 13  1  0
  1 25  1  0
  1 26  1  0
  1 27  1  0
  3 28  1  0
  4 29  1  0
 12 30  1  0
 14 31  1  0
 15 32  1  0
 16 33  1  0
 19 34  1  0
 19 35  1  0
 22 36  1  0
 23 37  1  0
 24 38  1  0
M  CHG  1   9  -1
M  END
>  <UniqueID>  (76) 
69

>  <SMILES>  (76) 
Cc1ccc(S(=O)(=O)[N-]C(=O)Nc2cccc(S(N)(=O)=O)c2)cc1

>  <Energy>  (76) 
41.039232421101545

>  <Genealogy>  (76) 
Cc1ccc(S(=O)(=O)[N-]C(=O)Nc2cccc(S(N)(=O)=O)c2)cc1 (protonated)
Cc1ccc(S(=O)(=O)[N-]C(=O)Nc2cccc(S(N)(=O)=O)c2)cc1 (3D coordinates assigned)
Cc1ccc(S(=O)(=O)[N-]C(=O)Nc2cccc(S(N)(=O)=O)c2)cc1 (optimized conformer: 41.039232421101545 kcal/mol)

>  <smiles>  (76) 
Cc1ccc(S(=O)(=O)NC(=O)Nc2cccc(S(N)(=O)=O)c2)cc1

>  <score_type>  (76) 
oracle

>  <origin>  (76) 
adg

>  <m_score__min__energy>  (76) 
-11.23

>  <m_primary>  (76) 
energy

$$$$
76:0
     RDKit          3D

 48 51  0  0  0  0  0  0  0  0999 V2000
   55.1510   26.6730   46.0540 N   0  0  0  0  0  0  0  0  0  0  0  0
   56.8730   26.7790   45.9630 S   0  0  0  0  0  0  0  0  0  0  0  0
   57.4640   26.5310   47.3220 O   0  0  0  0  0  0  0  0  0  0  0  0
   57.3910   25.7360   45.0120 O   0  0  0  0  0  0  0  0  0  0  0  0
   57.3290   28.3820   45.3960 C   0  0  0  0  0  0  0  0  0  0  0  0
   58.6230   28.8670   45.6230 C   0  0  0  0  0  0  0  0  0  0  0  0
   58.9910   30.1350   45.1650 C   0  0  0  0  0  0  0  0  0  0  0  0
   58.0690   30.9330   44.4600 C   0  0  0  0  0  0  0  0  0  0  0  0
   58.4170   32.2420   43.9660 N   0  0  0  0  0  0  0  0  0  0  0  0
   58.1450   33.4930   44.6740 C   0  0  0  0  0  0  0  0  0  0  0  0
   58.8960   33.5410   45.9790 C   0  0  0  0  0  0  0  0  0  0  0  0
   58.1980   33.4430   47.1930 C   0  0  0  0  0  0  0  0  0  0  0  0
   58.8820   33.4880   48.4110 C   0  0  0  0  0  0  0  0  0  0  0  0
   60.2730   33.6250   48.4280 C   0  0  0  0  0  0  0  0  0  0  0  0
   60.9370   33.6700   49.6120 N   0  0  0  0  0  0  0  0  0  0  0  0
   62.2890   33.8070   49.6540 C   0  0  0  0  0  0  0  0  0  0  0  0
   62.9980   33.8080   50.9710 C   0  0  0  0  0  0  0  0  0  0  0  0
   64.2790   33.0290   50.8650 C   0  0  0  0  0  0  0  0  0  0  0  0
   64.2660   31.6270   50.9490 C   0  0  0  0  0  0  0  0  0  0  0  0
   65.4630   30.9070   50.8880 C   0  0  0  0  0  0  0  0  0  0  0  0
   66.6810   31.5800   50.7520 C   0  0  0  0  0  0  0  0  0  0  0  0
   66.7030   32.9770   50.6820 C   0  0  0  0  0  0  0  0  0  0  0  0
   68.2330   33.8220   50.5230 Cl  0  0  0  0  0  0  0  0  0  0  0  0
   65.5080   33.7010   50.7420 C   0  0  0  0  0  0  0  0  0  0  0  0
   63.0000   33.8790   48.4980 N   0  0  0  0  0  0  0  0  0  0  0  0
   62.3870   33.8390   47.2860 C   0  0  0  0  0  0  0  0  0  0  0  0
   63.0850   33.9160   46.2390 O   0  0  0  0  0  0  0  0  0  0  0  0
   60.9890   33.7110   47.2160 C   0  0  0  0  0  0  0  0  0  0  0  0
   60.2960   33.6630   45.9940 C   0  0  0  0  0  0  0  0  0  0  0  0
   56.7750   30.4400   44.2380 C   0  0  0  0  0  0  0  0  0  0  0  0
   56.4080   29.1720   44.6980 C   0  0  0  0  0  0  0  0  0  0  0  0
   54.7900   26.7210   45.0750 H   0  0  0  0  0  0  0  0  0  0  0  0
   59.3530   28.2471   46.1642 H   0  0  0  0  0  0  0  0  0  0  0  0
   60.0065   30.5120   45.3562 H   0  0  0  0  0  0  0  0  0  0  0  0
   58.9460   32.3090   43.0670 H   0  0  0  0  0  0  0  0  0  0  0  0
   58.4592   34.3392   44.0454 H   0  0  0  0  0  0  0  0  0  0  0  0
   57.0669   33.5529   44.8842 H   0  0  0  0  0  0  0  0  0  0  0  0
   57.1039   33.3299   47.1856 H   0  0  0  0  0  0  0  0  0  0  0  0
   58.3253   33.4155   49.3570 H   0  0  0  0  0  0  0  0  0  0  0  0
   63.2247   34.8443   51.2620 H   0  0  0  0  0  0  0  0  0  0  0  0
   62.3525   33.3406   51.7293 H   0  0  0  0  0  0  0  0  0  0  0  0
   63.3108   31.0936   51.0632 H   0  0  0  0  0  0  0  0  0  0  0  0
   65.4464   29.8087   50.9471 H   0  0  0  0  0  0  0  0  0  0  0  0
   67.6212   31.0114   50.7001 H   0  0  0  0  0  0  0  0  0  0  0  0
   65.5296   34.7997   50.6928 H   0  0  0  0  0  0  0  0  0  0  0  0
   60.8513   33.7211   45.0463 H   0  0  0  0  0  0  0  0  0  0  0  0
   56.0422   31.0567   43.6970 H   0  0  0  0  0  0  0  0  0  0  0  0
   55.3922   28.7938   44.5109 H   0  0  0  0  0  0  0  0  0  0  0  0
  1  2  1  0
  2  3  2  0
  2  4  2  0
  2  5  1  0
  5  6  2  0
  6  7  1  0
  7  8  2  0
  8  9  1  0
  9 10  1  0
 10 11  1  0
 11 12  2  0
 12 13  1  0
 13 14  2  0
 14 15  1  0
 15 16  2  0
 16 17  1  0
 17 18  1  0
 18 19  2  0
 19 20  1  0
 20 21  2  0
 21 22  1  0
 22 23  1  0
 22 24  2  0
 16 25  1  0
 25 26  1  0
 26 27  2  0
 26 28  1  0
 28 29  2  0
  8 30  1  0
 30 31  2  0
 31  5  1  0
 29 11  1  0
 28 14  1  0
 24 18  1  0
  1 32  1  0
  6 33  1  0
  7 34  1  0
  9 35  1  0
 10 36  1  0
 10 37  1  0
 12 38  1  0
 13 39  1  0
 17 40  1  0
 17 41  1  0
 19 42  1  0
 20 43  1  0
 21 44  1  0
 24 45  1  0
 29 46  1  0
 30 47  1  0
 31 48  1  0
M  CHG  2   1  -1  25  -1
M  END
>  <UniqueID>  (77) 
70

>  <SMILES>  (77) 
[NH-]S(=O)(=O)c1ccc(NCc2ccc3nc(Cc4cccc(Cl)c4)[n-]c(=O)c3c2)cc1

>  <Energy>  (77) 
54.198003230378745

>  <Genealogy>  (77) 
[NH-]S(=O)(=O)c1ccc(NCc2ccc3nc(Cc4cccc(Cl)c4)[n-]c(=O)c3c2)cc1 (protonated)
[NH-]S(=O)(=O)c1ccc(NCc2ccc3nc(Cc4cccc(Cl)c4)[n-]c(=O)c3c2)cc1 (3D coordinates assigned)
[NH-]S(=O)(=O)c1ccc(NCc2ccc3nc(Cc4cccc(Cl)c4)[n-]c(=O)c3c2)cc1 (optimized conformer: 54.198003230378745 kcal/mol)

>  <smiles>  (77) 
NS(=O)(=O)c1ccc(NCc2ccc3nc(Cc4cccc(Cl)c4)[nH]c(=O)c3c2)cc1

>  <score_type>  (77) 
oracle

>  <origin>  (77) 
adg

>  <m_score__min__energy>  (77) 
-13.23

>  <m_primary>  (77) 
energy

$$$$
77:0
     RDKit          3D

 45 47  0  0  0  0  0  0  0  0999 V2000
   56.3130   23.8020   48.3480 H   0  0  0  0  0  0  0  0  0  0  0  0
   56.8170   22.9850   48.0980 O   0  0  0  0  0  0  0  0  0  0  0  0
   57.0890   23.1030   46.7300 C   0  0  0  0  0  0  0  0  0  0  0  0
   56.3889   22.4739   46.1607 H   0  0  0  0  0  0  0  0  0  0  0  0
   58.1198   22.7751   46.5300 H   0  0  0  0  0  0  0  0  0  0  0  0
   56.9290   24.5260   46.3160 C   0  0  0  0  0  0  0  0  0  0  0  0
   55.8780   25.2970   46.6790 N   0  0  0  0  0  0  0  0  0  0  0  0
   55.9110   26.5170   46.1450 N   0  0  0  0  0  0  0  0  0  0  0  0
   56.9790   26.7230   45.3460 C   0  0  0  0  0  0  0  0  0  0  0  0
   57.1740   27.8560   44.7360 N   0  0  0  0  0  0  0  0  0  0  0  0
   56.5420   29.1210   45.0040 C   0  0  0  0  0  0  0  0  0  0  0  0
   55.3020   29.2710   44.8270 O   0  0  0  0  0  0  0  0  0  0  0  0
   57.3540   30.2590   45.4970 C   0  0  0  0  0  0  0  0  0  0  0  0
   57.2770   31.5160   44.8710 C   0  0  0  0  0  0  0  0  0  0  0  0
   56.6095   31.6558   44.0079 H   0  0  0  0  0  0  0  0  0  0  0  0
   58.0420   32.5890   45.3370 C   0  0  0  0  0  0  0  0  0  0  0  0
   57.9783   33.5653   44.8343 H   0  0  0  0  0  0  0  0  0  0  0  0
   58.8880   32.4280   46.4390 C   0  0  0  0  0  0  0  0  0  0  0  0
   59.8650   33.7800   47.0050 S   0  0  0  0  0  0  0  0  0  0  0  0
   60.4200   34.5080   45.8120 O   0  0  0  0  0  0  0  0  0  0  0  0
   59.0020   34.7290   47.7890 O   0  0  0  0  0  0  0  0  0  0  0  0
   61.1670   33.1720   48.0010 N   0  0  0  0  0  0  0  0  0  0  0  0
   61.4660   34.1130   49.1030 C   0  0  0  0  0  0  0  0  0  0  0  0
   62.0133   34.9706   48.6847 H   0  0  0  0  0  0  0  0  0  0  0  0
   60.4998   34.3970   49.5455 H   0  0  0  0  0  0  0  0  0  0  0  0
   62.3120   33.5090   50.2410 C   0  0  0  0  0  0  0  0  0  0  0  0
   62.6585   34.3342   50.8805 H   0  0  0  0  0  0  0  0  0  0  0  0
   61.6560   32.7930   50.7578 H   0  0  0  0  0  0  0  0  0  0  0  0
   63.5570   32.6980   49.7900 C   0  0  0  0  0  0  0  0  0  0  0  0
   64.2170   32.5793   50.6620 H   0  0  0  0  0  0  0  0  0  0  0  0
   63.1684   31.7490   49.3919 H   0  0  0  0  0  0  0  0  0  0  0  0
   64.3840   33.3220   48.6530 C   0  0  0  0  0  0  0  0  0  0  0  0
   64.7401   34.3077   48.9870 H   0  0  0  0  0  0  0  0  0  0  0  0
   65.2042   32.6210   48.4389 H   0  0  0  0  0  0  0  0  0  0  0  0
   63.6100   33.5100   47.3360 C   0  0  0  0  0  0  0  0  0  0  0  0
   63.3489   34.5749   47.2481 H   0  0  0  0  0  0  0  0  0  0  0  0
   64.2795   33.1438   46.5437 H   0  0  0  0  0  0  0  0  0  0  0  0
   62.3100   32.6920   47.1930 C   0  0  0  0  0  0  0  0  0  0  0  0
   62.0103   32.7129   46.1348 H   0  0  0  0  0  0  0  0  0  0  0  0
   62.5432   31.6838   47.5660 H   0  0  0  0  0  0  0  0  0  0  0  0
   58.9770   31.1780   47.0640 C   0  0  0  0  0  0  0  0  0  0  0  0
   59.6482   31.0426   47.9249 H   0  0  0  0  0  0  0  0  0  0  0  0
   58.2160   30.1010   46.5980 C   0  0  0  0  0  0  0  0  0  0  0  0
   58.2919   29.1231   47.0959 H   0  0  0  0  0  0  0  0  0  0  0  0
   57.9580   25.3460   45.2630 S   0  0  0  0  0  0  0  0  0  0  0  0
  1  2  1  0
  2  3  1  0
  3  4  1  0
  3  5  1  0
  3  6  1  0
  6  7  2  0
  7  8  1  0
  8  9  1  0
  9 10  2  0
 10 11  1  0
 11 12  2  0
 11 13  1  0
 13 14  2  0
 14 15  1  0
 14 16  1  0
 16 17  1  0
 16 18  2  0
 18 19  1  0
 19 20  2  0
 19 21  2  0
 19 22  1  0
 22 23  1  0
 23 24  1  0
 23 25  1  0
 23 26  1  0
 26 27  1  0
 26 28  1  0
 26 29  1  0
 29 30  1  0
 29 31  1  0
 29 32  1  0
 32 33  1  0
 32 34  1  0
 32 35  1  0
 35 36  1  0
 35 37  1  0
 35 38  1  0
 38 39  1  0
 38 40  1  0
 18 41  1  0
 41 42  1  0
 41 43  2  0
 43 44  1  0
  9 45  1  0
 45  6  1  0
 43 13  1  0
 38 22  1  0
M  CHG  1   8  -1
M  END
>  <UniqueID>  (78) 
71

>  <SMILES>  (78) 
O=C(/N=c1/[n-]nc(CO)s1)c1ccc(S(=O)(=O)N2CCCCCC2)cc1

>  <Energy>  (78) 
95.80665013287862

>  <Genealogy>  (78) 
O=C(N=c1[n-]nc(CO)s1)c1ccc(S(=O)(=O)N2CCCCCC2)cc1 (protonated)
O=C(/N=c1/[n-]nc(CO)s1)c1ccc(S(=O)(=O)N2CCCCCC2)cc1 (cis-trans isomerization)
O=C(/N=c1/[n-]nc(CO)s1)c1ccc(S(=O)(=O)N2CCCCCC2)cc1 (3D coordinates assigned)
O=C(/N=c1/[n-]nc(CO)s1)c1ccc(S(=O)(=O)N2CCCCCC2)cc1 (nonaromatic ring conformer: 95.80665013287862 kcal/mol)

>  <smiles>  (78) 
O=C(N=c1[nH]nc(CO)s1)c1ccc(S(=O)(=O)N2CCCCCC2)cc1

>  <score_type>  (78) 
oracle

>  <origin>  (78) 
adg

>  <m_score__min__energy>  (78) 
-9.0299999999999994

>  <m_primary>  (78) 
energy

$$$$
78:0
     RDKit          3D

 58 61  0  0  0  0  0  0  0  0999 V2000
   56.6060   30.0320   45.2110 O   0  0  0  0  0  0  0  0  0  0  0  0
   57.5300   30.5450   44.5250 C   0  0  0  0  0  0  0  0  0  0  0  0
   57.1880   31.2620   43.2510 C   0  0  0  0  0  0  0  0  0  0  0  0
   57.7200   32.7110   43.2830 C   0  0  0  0  0  0  0  0  0  0  0  0
   58.2590   33.1270   44.5960 N   0  0  0  0  0  0  0  0  0  0  0  0
   57.2250   33.3830   45.6160 C   0  0  0  0  0  0  0  0  0  0  0  0
   57.8820   33.3850   47.0010 C   0  0  0  0  0  0  0  0  0  0  0  0
   59.1750   34.0850   46.9640 N   0  0  0  0  0  0  0  0  0  0  0  0
   60.1310   33.8950   48.0280 C   0  0  0  0  0  0  0  0  0  0  0  0
   61.5080   33.8450   47.7490 C   0  0  0  0  0  0  0  0  0  0  0  0
   62.4320   33.6570   48.7820 C   0  0  0  0  0  0  0  0  0  0  0  0
   61.9910   33.5280   50.1030 C   0  0  0  0  0  0  0  0  0  0  0  0
   60.6260   33.5860   50.3920 C   0  0  0  0  0  0  0  0  0  0  0  0
   59.6980   33.7700   49.3610 C   0  0  0  0  0  0  0  0  0  0  0  0
   59.4730   34.9620   45.8240 C   0  0  0  0  0  0  0  0  0  0  0  0
   59.2840   34.1990   44.5000 C   0  0  0  0  0  0  0  0  0  0  0  0
   58.9020   30.4260   44.9390 N   0  0  0  0  0  0  0  0  0  0  0  0
   59.3190   30.0520   46.2670 C   0  0  0  0  0  0  0  0  0  0  0  0
   58.5510   29.1810   47.0650 C   0  0  0  0  0  0  0  0  0  0  0  0
   58.9620   28.8670   48.3620 C   0  0  0  0  0  0  0  0  0  0  0  0
   60.1370   29.4220   48.8850 C   0  0  0  0  0  0  0  0  0  0  0  0
   60.6090   29.0620   50.5440 S   0  0  0  0  0  0  0  0  0  0  0  0
   61.5380   30.1180   51.0740 O   0  0  0  0  0  0  0  0  0  0  0  0
   61.3190   27.7370   50.5730 O   0  0  0  0  0  0  0  0  0  0  0  0
   59.1950   28.9730   51.5460 N   0  0  0  0  0  0  0  0  0  0  0  0
   58.3590   29.9540   51.7030 C   0  0  0  0  0  0  0  0  0  0  0  0
   57.0200   29.7220   51.8180 N   0  0  0  0  0  0  0  0  0  0  0  0
   56.1440   30.7440   52.0000 C   0  0  0  0  0  0  0  0  0  0  0  0
   56.6130   32.0540   52.0680 C   0  0  0  0  0  0  0  0  0  0  0  0
   57.9850   32.2760   51.9430 C   0  0  0  0  0  0  0  0  0  0  0  0
   58.8290   31.2280   51.7630 N   0  0  0  0  0  0  0  0  0  0  0  0
   60.8930   30.3050   48.1030 C   0  0  0  0  0  0  0  0  0  0  0  0
   60.4830   30.6210   46.8050 C   0  0  0  0  0  0  0  0  0  0  0  0
   57.6424   30.7288   42.4029 H   0  0  0  0  0  0  0  0  0  0  0  0
   56.0938   31.2884   43.1418 H   0  0  0  0  0  0  0  0  0  0  0  0
   58.5223   32.8011   42.5359 H   0  0  0  0  0  0  0  0  0  0  0  0
   56.8643   33.3681   43.0685 H   0  0  0  0  0  0  0  0  0  0  0  0
   56.7558   34.3601   45.4287 H   0  0  0  0  0  0  0  0  0  0  0  0
   56.4549   32.5988   45.5704 H   0  0  0  0  0  0  0  0  0  0  0  0
   57.2171   33.8930   47.7150 H   0  0  0  0  0  0  0  0  0  0  0  0
   58.0532   32.3438   47.3118 H   0  0  0  0  0  0  0  0  0  0  0  0
   61.8606   33.9543   46.7128 H   0  0  0  0  0  0  0  0  0  0  0  0
   63.5073   33.6105   48.5551 H   0  0  0  0  0  0  0  0  0  0  0  0
   62.7193   33.3809   50.9142 H   0  0  0  0  0  0  0  0  0  0  0  0
   60.2799   33.4869   51.4314 H   0  0  0  0  0  0  0  0  0  0  0  0
   58.6240   33.8172   49.5939 H   0  0  0  0  0  0  0  0  0  0  0  0
   58.7941   35.8272   45.8444 H   0  0  0  0  0  0  0  0  0  0  0  0
   60.5170   35.3009   45.8962 H   0  0  0  0  0  0  0  0  0  0  0  0
   58.9739   34.9136   43.7234 H   0  0  0  0  0  0  0  0  0  0  0  0
   60.2430   33.7200   44.2532 H   0  0  0  0  0  0  0  0  0  0  0  0
   59.6430   30.5560   44.2130 H   0  0  0  0  0  0  0  0  0  0  0  0
   57.6233   28.7464   46.6644 H   0  0  0  0  0  0  0  0  0  0  0  0
   58.3603   28.1806   48.9759 H   0  0  0  0  0  0  0  0  0  0  0  0
   55.0675   30.5379   52.0934 H   0  0  0  0  0  0  0  0  0  0  0  0
   55.9181   32.8937   52.2167 H   0  0  0  0  0  0  0  0  0  0  0  0
   58.3828   33.3005   51.9903 H   0  0  0  0  0  0  0  0  0  0  0  0
   61.8118   30.7507   48.5118 H   0  0  0  0  0  0  0  0  0  0  0  0
   61.0777   31.3215   46.2003 H   0  0  0  0  0  0  0  0  0  0  0  0
  1  2  2  0
  2  3  1  0
  3  4  1  0
  4  5  1  0
  5  6  1  0
  6  7  1  0
  7  8  1  0
  8  9  1  0
  9 10  2  0
 10 11  1  0
 11 12  2  0
 12 13  1  0
 13 14  2  0
  8 15  1  0
 15 16  1  0
  2 17  1  0
 17 18  1  0
 18 19  2  0
 19 20  1  0
 20 21  2  0
 21 22  1  0
 22 23  2  0
 22 24  2  0
 22 25  1  0
 25 26  2  3
 26 27  1  0
 27 28  2  0
 28 29  1  0
 29 30  2  0
 30 31  1  0
 21 32  1  0
 32 33  2  0
 16  5  1  0
 33 18  1  0
 14  9  1  0
 31 26  1  0
  3 34  1  0
  3 35  1  0
  4 36  1  0
  4 37  1  0
  6 38  1  0
  6 39  1  0
  7 40  1  0
  7 41  1  0
 10 42  1  0
 11 43  1  0
 12 44  1  0
 13 45  1  0
 14 46  1  0
 15 47  1  0
 15 48  1  0
 16 49  1  0
 16 50  1  0
 17 51  1  0
 19 52  1  0
 20 53  1  0
 28 54  1  0
 29 55  1  0
 30 56  1  0
 32 57  1  0
 33 58  1  0
M  CHG  1  31  -1
M  END
>  <UniqueID>  (79) 
72

>  <SMILES>  (79) 
O=C(CCN1CCN(c2ccccc2)CC1)Nc1ccc(S(=O)(=O)N=c2nccc[n-]2)cc1

>  <Energy>  (79) 
79.7481665027077

>  <Genealogy>  (79) 
O=C(CCN1CCN(c2ccccc2)CC1)Nc1ccc(S(=O)(=O)N=c2nccc[n-]2)cc1 (protonated)
O=C(CCN1CCN(c2ccccc2)CC1)Nc1ccc(S(=O)(=O)N=c2nccc[n-]2)cc1 (3D coordinates assigned)
O=C(CCN1CCN(c2ccccc2)CC1)Nc1ccc(S(=O)(=O)N=c2nccc[n-]2)cc1 (nonaromatic ring conformer: 79.7481665027077 kcal/mol)

>  <smiles>  (79) 
O=C(CCN1CCN(c2ccccc2)CC1)Nc1ccc(S(=O)(=O)N=c2nccc[nH]2)cc1

>  <score_type>  (79) 
oracle

>  <origin>  (79) 
adg

>  <m_score__min__energy>  (79) 
-11.609999999999999

>  <m_primary>  (79) 
energy

$$$$
79:0
     RDKit          3D

 55 58  0  0  0  0  0  0  0  0999 V2000
   55.8590   26.3560   46.3580 O   0  0  0  0  0  0  0  0  0  0  0  0
   56.5300   27.3420   45.9440 C   0  0  0  0  0  0  0  0  0  0  0  0
   55.8750   28.4100   45.2460 N   0  0  0  0  0  0  0  0  0  0  0  0
   56.5190   29.4510   44.4980 C   0  0  0  0  0  0  0  0  0  0  0  0
   56.0940   29.7040   43.1870 C   0  0  0  0  0  0  0  0  0  0  0  0
   56.6710   30.7380   42.4440 C   0  0  0  0  0  0  0  0  0  0  0  0
   57.6700   31.5340   43.0090 C   0  0  0  0  0  0  0  0  0  0  0  0
   58.0880   31.3010   44.3220 C   0  0  0  0  0  0  0  0  0  0  0  0
   57.5120   30.2680   45.0700 C   0  0  0  0  0  0  0  0  0  0  0  0
   57.9830   27.4170   46.2240 C   0  0  0  0  0  0  0  0  0  0  0  0
   58.9060   27.5430   45.1710 C   0  0  0  0  0  0  0  0  0  0  0  0
   60.2740   27.6230   45.4370 C   0  0  0  0  0  0  0  0  0  0  0  0
   60.7370   27.5940   46.7540 C   0  0  0  0  0  0  0  0  0  0  0  0
   59.8340   27.4860   47.8230 C   0  0  0  0  0  0  0  0  0  0  0  0
   60.3370   27.4780   49.2200 C   0  0  0  0  0  0  0  0  0  0  0  0
   60.7210   26.3910   49.7290 O   0  0  0  0  0  0  0  0  0  0  0  0
   60.3700   28.6610   50.0330 N   0  0  0  0  0  0  0  0  0  0  0  0
   61.5100   29.5020   50.2690 C   0  0  0  0  0  0  0  0  0  0  0  0
   62.4120   29.2450   51.3160 C   0  0  0  0  0  0  0  0  0  0  0  0
   63.5340   30.0590   51.4880 C   0  0  0  0  0  0  0  0  0  0  0  0
   63.7520   31.1430   50.6340 C   0  0  0  0  0  0  0  0  0  0  0  0
   62.8380   31.4410   49.6170 C   0  0  0  0  0  0  0  0  0  0  0  0
   63.1020   32.5750   48.7800 N   0  0  0  0  0  0  0  0  0  0  0  0
   62.1540   33.1280   47.4330 S   0  0  0  0  0  0  0  0  0  0  0  0
   63.0350   33.7750   46.4000 O   0  0  0  0  0  0  0  0  0  0  0  0
   61.4980   31.9320   46.8040 O   0  0  0  0  0  0  0  0  0  0  0  0
   60.8680   34.2480   47.9720 C   0  0  0  0  0  0  0  0  0  0  0  0
   59.6520   34.1580   47.0930 C   0  0  0  0  0  0  0  0  0  0  0  0
   59.6600   34.7410   45.8150 C   0  0  0  0  0  0  0  0  0  0  0  0
   58.5210   34.6790   45.0040 C   0  0  0  0  0  0  0  0  0  0  0  0
   57.3710   34.0320   45.4620 C   0  0  0  0  0  0  0  0  0  0  0  0
   57.3580   33.4450   46.7300 C   0  0  0  0  0  0  0  0  0  0  0  0
   58.4890   33.5140   47.5490 C   0  0  0  0  0  0  0  0  0  0  0  0
   61.7070   30.6200   49.4490 C   0  0  0  0  0  0  0  0  0  0  0  0
   58.4580   27.3750   47.5470 C   0  0  0  0  0  0  0  0  0  0  0  0
   55.3018   29.0855   42.7399 H   0  0  0  0  0  0  0  0  0  0  0  0
   56.3377   30.9251   41.4125 H   0  0  0  0  0  0  0  0  0  0  0  0
   58.1273   32.3435   42.4211 H   0  0  0  0  0  0  0  0  0  0  0  0
   58.8715   31.9309   44.7685 H   0  0  0  0  0  0  0  0  0  0  0  0
   57.8359   30.0943   46.1068 H   0  0  0  0  0  0  0  0  0  0  0  0
   58.5481   27.5787   44.1315 H   0  0  0  0  0  0  0  0  0  0  0  0
   60.9898   27.7092   44.6062 H   0  0  0  0  0  0  0  0  0  0  0  0
   61.8167   27.6562   46.9550 H   0  0  0  0  0  0  0  0  0  0  0  0
   62.2342   28.4023   52.0003 H   0  0  0  0  0  0  0  0  0  0  0  0
   64.2475   29.8461   52.2976 H   0  0  0  0  0  0  0  0  0  0  0  0
   64.6488   31.7670   50.7620 H   0  0  0  0  0  0  0  0  0  0  0  0
   60.5825   33.9939   49.0035 H   0  0  0  0  0  0  0  0  0  0  0  0
   61.2592   35.2745   47.9143 H   0  0  0  0  0  0  0  0  0  0  0  0
   60.5652   35.2484   45.4501 H   0  0  0  0  0  0  0  0  0  0  0  0
   58.5315   35.1401   44.0054 H   0  0  0  0  0  0  0  0  0  0  0  0
   56.4757   33.9846   44.8246 H   0  0  0  0  0  0  0  0  0  0  0  0
   56.4549   32.9269   47.0850 H   0  0  0  0  0  0  0  0  0  0  0  0
   58.4686   33.0634   48.5522 H   0  0  0  0  0  0  0  0  0  0  0  0
   60.9714   30.8587   48.6667 H   0  0  0  0  0  0  0  0  0  0  0  0
   57.7456   27.2539   48.3764 H   0  0  0  0  0  0  0  0  0  0  0  0
  1  2  2  0
  2  3  1  0
  3  4  1  0
  4  5  2  0
  5  6  1  0
  6  7  2  0
  7  8  1  0
  8  9  2  0
  2 10  1  0
 10 11  2  0
 11 12  1  0
 12 13  2  0
 13 14  1  0
 14 15  1  0
 15 16  2  0
 15 17  1  0
 17 18  1  0
 18 19  2  0
 19 20  1  0
 20 21  2  0
 21 22  1  0
 22 23  1  0
 23 24  1  0
 24 25  2  0
 24 26  2  0
 24 27  1  0
 27 28  1  0
 28 29  2  0
 29 30  1  0
 30 31  2  0
 31 32  1  0
 32 33  2  0
 22 34  2  0
 14 35  2  0
  9  4  1  0
 35 10  1  0
 34 18  1  0
 33 28  1  0
  5 36  1  0
  6 37  1  0
  7 38  1  0
  8 39  1  0
  9 40  1  0
 11 41  1  0
 12 42  1  0
 13 43  1  0
 19 44  1  0
 20 45  1  0
 21 46  1  0
 27 47  1  0
 27 48  1  0
 29 49  1  0
 30 50  1  0
 31 51  1  0
 32 52  1  0
 33 53  1  0
 34 54  1  0
 35 55  1  0
M  CHG  3   3  -1  17  -1  23  -1
M  END
>  <UniqueID>  (80) 
73

>  <SMILES>  (80) 
O=C([N-]c1ccccc1)c1cccc(C(=O)[N-]c2cccc([N-]S(=O)(=O)Cc3ccccc3)c2)c1

>  <Energy>  (80) 
65.16298106650488

>  <Genealogy>  (80) 
O=C([N-]c1ccccc1)c1cccc(C(=O)[N-]c2cccc([N-]S(=O)(=O)Cc3ccccc3)c2)c1 (protonated)
O=C([N-]c1ccccc1)c1cccc(C(=O)[N-]c2cccc([N-]S(=O)(=O)Cc3ccccc3)c2)c1 (3D coordinates assigned)
O=C([N-]c1ccccc1)c1cccc(C(=O)[N-]c2cccc([N-]S(=O)(=O)Cc3ccccc3)c2)c1 (optimized conformer: 65.16298106650488 kcal/mol)

>  <smiles>  (80) 
O=C(Nc1ccccc1)c1cccc(C(=O)Nc2cccc(NS(=O)(=O)Cc3ccccc3)c2)c1

>  <score_type>  (80) 
oracle

>  <origin>  (80) 
adg

>  <m_score__min__energy>  (80) 
-14.869999999999999

>  <m_primary>  (80) 
energy

$$$$
80:0
     RDKit          3D

 45 47  0  0  0  0  0  0  0  0999 V2000
   59.1094   35.8302   44.1796 H   0  0  0  0  0  0  0  0  0  0  0  0
   59.2250   35.1010   44.9950 C   0  0  0  0  0  0  0  0  0  0  0  0
   59.8780   35.4550   46.1330 N   0  0  0  0  0  0  0  0  0  0  0  0
   60.0440   34.5800   47.1650 C   0  0  0  0  0  0  0  0  0  0  0  0
   60.7160   34.9660   48.3280 O   0  0  0  0  0  0  0  0  0  0  0  0
   61.5240   34.0710   49.0840 C   0  0  0  0  0  0  0  0  0  0  0  0
   61.3630   34.2493   50.1574 H   0  0  0  0  0  0  0  0  0  0  0  0
   61.2501   33.0341   48.8394 H   0  0  0  0  0  0  0  0  0  0  0  0
   62.5834   34.2378   48.8394 H   0  0  0  0  0  0  0  0  0  0  0  0
   59.5360   33.2830   47.0650 C   0  0  0  0  0  0  0  0  0  0  0  0
   59.6693   32.5733   47.8948 H   0  0  0  0  0  0  0  0  0  0  0  0
   58.8530   32.8860   45.9000 C   0  0  0  0  0  0  0  0  0  0  0  0
   58.3040   31.5120   45.7760 C   0  0  0  0  0  0  0  0  0  0  0  0
   57.4200   31.1890   44.7300 C   0  0  0  0  0  0  0  0  0  0  0  0
   57.1340   31.9614   44.0009 H   0  0  0  0  0  0  0  0  0  0  0  0
   56.9020   29.8980   44.6080 C   0  0  0  0  0  0  0  0  0  0  0  0
   56.2137   29.6600   43.7837 H   0  0  0  0  0  0  0  0  0  0  0  0
   57.2550   28.9040   45.5310 C   0  0  0  0  0  0  0  0  0  0  0  0
   56.7430   27.6030   45.4180 C   0  0  0  0  0  0  0  0  0  0  0  0
   56.0583   27.3471   44.5960 H   0  0  0  0  0  0  0  0  0  0  0  0
   57.1120   26.6240   46.3660 C   0  0  0  0  0  0  0  0  0  0  0  0
   56.6830   25.3920   46.3230 N   0  0  0  0  0  0  0  0  0  0  0  0
   55.4190   24.8850   45.8680 C   0  0  0  0  0  0  0  0  0  0  0  0
   54.4360   25.6520   45.6840 O   0  0  0  0  0  0  0  0  0  0  0  0
   55.2600   23.4730   45.7140 N   0  0  0  0  0  0  0  0  0  0  0  0
   55.7200   22.7500   44.5340 C   0  0  0  0  0  0  0  0  0  0  0  0
   55.4982   21.6795   44.6560 H   0  0  0  0  0  0  0  0  0  0  0  0
   55.2008   23.1463   43.6489 H   0  0  0  0  0  0  0  0  0  0  0  0
   57.2290   22.9340   44.3470 C   0  0  0  0  0  0  0  0  0  0  0  0
   57.5269   22.4556   43.4023 H   0  0  0  0  0  0  0  0  0  0  0  0
   57.4322   24.0150   44.3390 H   0  0  0  0  0  0  0  0  0  0  0  0
   58.0500   22.3180   45.4890 C   0  0  0  0  0  0  0  0  0  0  0  0
   58.1604   21.2382   45.3105 H   0  0  0  0  0  0  0  0  0  0  0  0
   59.0347   22.8076   45.5156 H   0  0  0  0  0  0  0  0  0  0  0  0
   57.3940   22.5240   46.7770 N   0  0  0  0  0  0  0  0  0  0  0  0
   57.1420   23.5350   46.8570 H   0  0  0  0  0  0  0  0  0  0  0  0
   56.4920   21.9930   46.7630 H   0  0  0  0  0  0  0  0  0  0  0  0
   57.9830   26.9610   47.3550 N   0  0  0  0  0  0  0  0  0  0  0  0
   58.4970   28.2120   47.4890 C   0  0  0  0  0  0  0  0  0  0  0  0
   59.1932   28.4352   48.3109 H   0  0  0  0  0  0  0  0  0  0  0  0
   58.1410   29.2160   46.5820 C   0  0  0  0  0  0  0  0  0  0  0  0
   58.6600   30.5140   46.7020 C   0  0  0  0  0  0  0  0  0  0  0  0
   59.3495   30.7530   47.5251 H   0  0  0  0  0  0  0  0  0  0  0  0
   58.7010   33.8160   44.8580 C   0  0  0  0  0  0  0  0  0  0  0  0
   58.1705   33.5315   43.9373 H   0  0  0  0  0  0  0  0  0  0  0  0
  1  2  1  0
  2  3  2  0
  3  4  1  0
  4  5  1  0
  5  6  1  0
  6  7  1  0
  6  8  1  0
  6  9  1  0
  4 10  2  0
 10 11  1  0
 10 12  1  0
 12 13  1  0
 13 14  1  0
 14 15  1  0
 14 16  2  0
 16 17  1  0
 16 18  1  0
 18 19  2  0
 19 20  1  0
 19 21  1  0
 21 22  2  0
 22 23  1  0
 23 24  2  0
 23 25  1  0
 25 26  1  0
 26 27  1  0
 26 28  1  0
 26 29  1  0
 29 30  1  0
 29 31  1  0
 29 32  1  0
 32 33  1  0
 32 34  1  0
 32 35  1  0
 35 36  1  0
 35 37  1  0
 21 38  1  0
 38 39  1  0
 39 40  1  0
 39 41  2  0
 41 42  1  0
 42 43  1  0
 12 44  2  0
 44 45  1  0
 44  2  1  0
 42 13  2  0
 41 18  1  0
M  CHG  2  25  -1  38  -1
M  END
>  <UniqueID>  (81) 
74

>  <SMILES>  (81) 
COc1cc(-c2ccc3c/c(=N\C(=O)[N-]CCCN)[n-]cc3c2)ccn1

>  <Energy>  (81) 
55.29945803495993

>  <Genealogy>  (81) 
COc1cc(-c2ccc3cc(=NC(=O)[N-]CCCN)[n-]cc3c2)ccn1 (protonated)
COc1cc(-c2ccc3c/c(=N\C(=O)[N-]CCCN)[n-]cc3c2)ccn1 (cis-trans isomerization)
COc1cc(-c2ccc3c/c(=N\C(=O)[N-]CCCN)[n-]cc3c2)ccn1 (3D coordinates assigned)
COc1cc(-c2ccc3c/c(=N\C(=O)[N-]CCCN)[n-]cc3c2)ccn1 (optimized conformer: 55.29945803495993 kcal/mol)

>  <smiles>  (81) 
COc1cc(-c2ccc3cc(=NC(=O)NCCCN)[nH]cc3c2)ccn1

>  <score_type>  (81) 
oracle

>  <origin>  (81) 
adg

>  <m_score__min__energy>  (81) 
-9.5500000000000007

>  <m_primary>  (81) 
energy

$$$$
81:0
     RDKit          3D

 45 47  0  0  0  0  0  0  0  0999 V2000
   55.1450   29.5470   44.7190 O   0  0  0  0  0  0  0  0  0  0  0  0
   56.2780   28.9970   44.7510 C   0  0  0  0  0  0  0  0  0  0  0  0
   57.3650   29.5160   43.8510 C   0  0  0  0  0  0  0  0  0  0  0  0
   58.1530   30.5400   44.5350 N   0  0  0  0  0  0  0  0  0  0  0  0
   57.5840   31.7780   44.9900 C   0  0  0  0  0  0  0  0  0  0  0  0
   56.3450   31.9800   44.8700 O   0  0  0  0  0  0  0  0  0  0  0  0
   58.4260   32.8100   45.6370 C   0  0  0  0  0  0  0  0  0  0  0  0
   58.7730   33.9700   44.9200 C   0  0  0  0  0  0  0  0  0  0  0  0
   59.5570   34.9630   45.5150 C   0  0  0  0  0  0  0  0  0  0  0  0
   60.0080   34.8070   46.8250 C   0  0  0  0  0  0  0  0  0  0  0  0
   59.6910   33.6490   47.5400 C   0  0  0  0  0  0  0  0  0  0  0  0
   58.9080   32.6500   46.9530 C   0  0  0  0  0  0  0  0  0  0  0  0
   58.6650   31.5130   47.6550 F   0  0  0  0  0  0  0  0  0  0  0  0
   56.4550   27.8360   45.5730 N   0  0  0  0  0  0  0  0  0  0  0  0
   57.7050   27.2890   46.0160 C   0  0  0  0  0  0  0  0  0  0  0  0
   58.6180   28.0770   46.7370 C   0  0  0  0  0  0  0  0  0  0  0  0
   59.8090   27.5220   47.2150 C   0  0  0  0  0  0  0  0  0  0  0  0
   60.0850   26.1700   47.0030 C   0  0  0  0  0  0  0  0  0  0  0  0
   59.1690   25.3700   46.3170 C   0  0  0  0  0  0  0  0  0  0  0  0
   57.9770   25.9190   45.8220 C   0  0  0  0  0  0  0  0  0  0  0  0
   57.0570   25.0750   45.1160 N   0  0  0  0  0  0  0  0  0  0  0  0
   57.2880   24.7430   43.7070 C   0  0  0  0  0  0  0  0  0  0  0  0
   56.6760   23.3730   43.4010 C   0  0  0  0  0  0  0  0  0  0  0  0
   55.3190   23.3310   43.8070 O   0  0  0  0  0  0  0  0  0  0  0  0
   55.2400   23.4340   45.2170 C   0  0  0  0  0  0  0  0  0  0  0  0
   55.7400   24.8030   45.6930 C   0  0  0  0  0  0  0  0  0  0  0  0
   58.0247   28.6840   43.5636 H   0  0  0  0  0  0  0  0  0  0  0  0
   56.9035   29.9613   42.9573 H   0  0  0  0  0  0  0  0  0  0  0  0
   59.1390   30.3090   44.7860 H   0  0  0  0  0  0  0  0  0  0  0  0
   58.4250   34.0964   43.8842 H   0  0  0  0  0  0  0  0  0  0  0  0
   59.8185   35.8690   44.9486 H   0  0  0  0  0  0  0  0  0  0  0  0
   60.6134   35.5956   47.2958 H   0  0  0  0  0  0  0  0  0  0  0  0
   60.0589   33.5227   48.5689 H   0  0  0  0  0  0  0  0  0  0  0  0
   58.3943   29.1372   46.9266 H   0  0  0  0  0  0  0  0  0  0  0  0
   60.5292   28.1512   47.7586 H   0  0  0  0  0  0  0  0  0  0  0  0
   61.0239   25.7351   47.3763 H   0  0  0  0  0  0  0  0  0  0  0  0
   59.3836   24.3021   46.1638 H   0  0  0  0  0  0  0  0  0  0  0  0
   56.8185   25.5057   43.0684 H   0  0  0  0  0  0  0  0  0  0  0  0
   58.3695   24.7153   43.5083 H   0  0  0  0  0  0  0  0  0  0  0  0
   56.7356   23.1839   42.3190 H   0  0  0  0  0  0  0  0  0  0  0  0
   57.2353   22.6034   43.9532 H   0  0  0  0  0  0  0  0  0  0  0  0
   54.1935   23.3038   45.5298 H   0  0  0  0  0  0  0  0  0  0  0  0
   55.8736   22.6532   45.6631 H   0  0  0  0  0  0  0  0  0  0  0  0
   55.0326   25.5822   45.3729 H   0  0  0  0  0  0  0  0  0  0  0  0
   55.8163   24.8016   46.7903 H   0  0  0  0  0  0  0  0  0  0  0  0
  1  2  2  0
  2  3  1  0
  3  4  1  0
  4  5  1  0
  5  6  2  0
  5  7  1  0
  7  8  2  0
  8  9  1  0
  9 10  2  0
 10 11  1  0
 11 12  2  0
 12 13  1  0
  2 14  1  0
 14 15  1  0
 15 16  2  0
 16 17  1  0
 17 18  2  0
 18 19  1  0
 19 20  2  0
 20 21  1  0
 21 22  1  0
 22 23  1  0
 23 24  1  0
 24 25  1  0
 25 26  1  0
 12  7  1  0
 20 15  1  0
 26 21  1  0
  3 27  1  0
  3 28  1  0
  4 29  1  0
  8 30  1  0
  9 31  1  0
 10 32  1  0
 11 33  1  0
 16 34  1  0
 17 35  1  0
 18 36  1  0
 19 37  1  0
 22 38  1  0
 22 39  1  0
 23 40  1  0
 23 41  1  0
 25 42  1  0
 25 43  1  0
 26 44  1  0
 26 45  1  0
M  CHG  1  14  -1
M  END
>  <UniqueID>  (82) 
75

>  <SMILES>  (82) 
O=C(CNC(=O)c1ccccc1F)[N-]c1ccccc1N1CCOCC1

>  <Energy>  (82) 
59.998467136590655

>  <Genealogy>  (82) 
O=C(CNC(=O)c1ccccc1F)[N-]c1ccccc1N1CCOCC1 (protonated)
O=C(CNC(=O)c1ccccc1F)[N-]c1ccccc1N1CCOCC1 (3D coordinates assigned)
O=C(CNC(=O)c1ccccc1F)[N-]c1ccccc1N1CCOCC1 (nonaromatic ring conformer: 59.998467136590655 kcal/mol)

>  <smiles>  (82) 
O=C(CNC(=O)c1ccccc1F)Nc1ccccc1N1CCOCC1

>  <score_type>  (82) 
oracle

>  <origin>  (82) 
adg

>  <m_score__min__energy>  (82) 
-9.8300000000000001

>  <m_primary>  (82) 
energy

$$$$
82:0
     RDKit          3D

 26 27  0  0  0  0  0  0  0  0999 V2000
   61.0080   30.2850   48.2800 C   0  0  0  0  0  0  0  0  0  0  0  0
   60.9300   29.4930   47.1000 O   0  0  0  0  0  0  0  0  0  0  0  0
   60.0130   28.4460   46.8980 C   0  0  0  0  0  0  0  0  0  0  0  0
   60.3190   27.1190   47.2560 C   0  0  0  0  0  0  0  0  0  0  0  0
   59.3810   26.1040   47.0730 C   0  0  0  0  0  0  0  0  0  0  0  0
   58.1270   26.3930   46.5360 C   0  0  0  0  0  0  0  0  0  0  0  0
   57.8010   27.7060   46.1630 C   0  0  0  0  0  0  0  0  0  0  0  0
   58.7550   28.7360   46.3290 C   0  0  0  0  0  0  0  0  0  0  0  0
   58.3640   30.1640   46.0100 C   0  0  0  0  0  0  0  0  0  0  0  0
   57.4120   30.2450   44.8060 C   0  0  2  0  0  0  0  0  0  0  0  0
   56.9350   31.6230   44.6490 N   0  0  0  0  0  0  0  0  0  0  0  0
   56.2710   29.2700   44.9720 C   0  0  0  0  0  0  0  0  0  0  0  0
   55.1330   29.5260   44.4920 O   0  0  0  0  0  0  0  0  0  0  0  0
   56.5100   28.0050   45.6030 N   0  0  0  0  0  0  0  0  0  0  0  0
   55.5140   27.0860   45.6430 O   0  0  0  0  0  0  0  0  0  0  0  0
   60.9438   29.6334   49.1639 H   0  0  0  0  0  0  0  0  0  0  0  0
   61.9640   30.8288   48.2940 H   0  0  0  0  0  0  0  0  0  0  0  0
   60.1764   31.0049   48.2940 H   0  0  0  0  0  0  0  0  0  0  0  0
   61.3046   26.8817   47.6829 H   0  0  0  0  0  0  0  0  0  0  0  0
   59.6313   25.0703   47.3536 H   0  0  0  0  0  0  0  0  0  0  0  0
   57.3895   25.5876   46.4041 H   0  0  0  0  0  0  0  0  0  0  0  0
   57.8644   30.6000   46.8877 H   0  0  0  0  0  0  0  0  0  0  0  0
   59.2797   30.7186   45.7571 H   0  0  0  0  0  0  0  0  0  0  0  0
   57.9503   29.9637   43.8889 H   0  0  0  0  0  0  0  0  0  0  0  0
   57.3970   32.0470   43.8120 H   0  0  0  0  0  0  0  0  0  0  0  0
   55.9030   31.6160   44.4720 H   0  0  0  0  0  0  0  0  0  0  0  0
  1  2  1  0
  2  3  1  0
  3  4  2  0
  4  5  1  0
  5  6  2  0
  6  7  1  0
  7  8  2  0
  8  9  1  0
  9 10  1  0
 10 11  1  0
 10 12  1  0
 12 13  2  0
 12 14  1  0
 14 15  1  0
  8  3  1  0
 14  7  1  0
  1 16  1  0
  1 17  1  0
  1 18  1  0
  4 19  1  0
  5 20  1  0
  6 21  1  0
  9 22  1  0
  9 23  1  0
 10 24  1  6
 11 25  1  0
 11 26  1  0
M  CHG  1  15  -1
M  END
>  <UniqueID>  (83) 
76

>  <SMILES>  (83) 
COc1cccc2c1C[C@H](N)C(=O)N2[O-]

>  <Energy>  (83) 
28.062586237452944

>  <Genealogy>  (83) 
COc1cccc2c1CC(N)C(=O)N2[O-] (protonated)
COc1cccc2c1C[C@H](N)C(=O)N2[O-] (chirality)
COc1cccc2c1C[C@H](N)C(=O)N2[O-] (3D coordinates assigned)
COc1cccc2c1C[C@H](N)C(=O)N2[O-] (nonaromatic ring conformer: 28.062586237452944 kcal/mol)

>  <smiles>  (83) 
COc1cccc2c1CC(N)C(=O)N2O

>  <score_type>  (83) 
oracle

>  <origin>  (83) 
adg

>  <m_score__min__energy>  (83) 
-9.2100000000000009

>  <m_primary>  (83) 
energy

$$$$
83:0
     RDKit          3D

 35 37  0  0  0  0  0  0  0  0999 V2000
   56.6740   34.0740   45.7120 N   0  0  0  0  0  0  0  0  0  0  0  0
   57.9140   33.6730   45.1280 C   0  0  0  0  0  0  0  0  0  0  0  0
   58.6060   34.5190   44.5010 O   0  0  0  0  0  0  0  0  0  0  0  0
   58.3740   32.2400   45.2210 C   0  0  0  0  0  0  0  0  0  0  0  0
   58.5700   31.8170   46.6990 C   0  0  0  0  0  0  0  0  0  0  0  0
   58.2010   30.3490   46.9800 C   0  0  0  0  0  0  0  0  0  0  0  0
   58.4710   29.4990   45.8140 N   0  0  0  0  0  0  0  0  0  0  0  0
   58.9890   28.1730   46.0100 C   0  0  0  0  0  0  0  0  0  0  0  0
   60.3750   27.9700   46.0930 C   0  0  0  0  0  0  0  0  0  0  0  0
   60.8930   26.6850   46.2930 C   0  0  0  0  0  0  0  0  0  0  0  0
   60.0330   25.5900   46.4080 C   0  0  0  0  0  0  0  0  0  0  0  0
   58.6510   25.7760   46.3170 C   0  0  0  0  0  0  0  0  0  0  0  0
   57.8040   24.7170   46.4110 N   0  0  0  0  0  0  0  0  0  0  0  0
   56.4590   24.8790   46.3100 C   0  0  0  0  0  0  0  0  0  0  0  0
   55.6990   23.8790   46.4030 O   0  0  0  0  0  0  0  0  0  0  0  0
   55.9320   26.1620   46.1010 C   0  0  0  0  0  0  0  0  0  0  0  0
   54.6890   26.3390   45.9990 O   0  0  0  0  0  0  0  0  0  0  0  0
   56.7750   27.2220   46.0060 N   0  0  0  0  0  0  0  0  0  0  0  0
   58.1220   27.0700   46.1160 C   0  0  0  0  0  0  0  0  0  0  0  0
   57.9580   29.8720   44.4870 C   0  0  0  0  0  0  0  0  0  0  0  0
   57.4050   31.3020   44.4790 C   0  0  0  0  0  0  0  0  0  0  0  0
   56.3530   35.0650   45.6350 H   0  0  0  0  0  0  0  0  0  0  0  0
   56.0680   33.3870   46.2130 H   0  0  0  0  0  0  0  0  0  0  0  0
   59.3522   32.1577   44.7247 H   0  0  0  0  0  0  0  0  0  0  0  0
   59.6269   31.9658   46.9650 H   0  0  0  0  0  0  0  0  0  0  0  0
   57.8921   32.4386   47.3024 H   0  0  0  0  0  0  0  0  0  0  0  0
   58.7946   29.9871   47.8325 H   0  0  0  0  0  0  0  0  0  0  0  0
   57.1255   30.2982   47.2054 H   0  0  0  0  0  0  0  0  0  0  0  0
   61.0591   28.8264   46.0003 H   0  0  0  0  0  0  0  0  0  0  0  0
   61.9809   26.5369   46.3598 H   0  0  0  0  0  0  0  0  0  0  0  0
   60.4434   24.5824   46.5700 H   0  0  0  0  0  0  0  0  0  0  0  0
   58.7759   29.8011   43.7549 H   0  0  0  0  0  0  0  0  0  0  0  0
   57.1394   29.1843   44.2280 H   0  0  0  0  0  0  0  0  0  0  0  0
   57.2904   31.6434   43.4396 H   0  0  0  0  0  0  0  0  0  0  0  0
   56.4278   31.3163   44.9838 H   0  0  0  0  0  0  0  0  0  0  0  0
  1  2  1  0
  2  3  2  0
  2  4  1  0
  4  5  1  0
  5  6  1  0
  6  7  1  0
  7  8  1  0
  8  9  2  0
  9 10  1  0
 10 11  2  0
 11 12  1  0
 12 13  1  0
 13 14  1  0
 14 15  2  0
 14 16  1  0
 16 17  2  0
 16 18  1  0
 18 19  1  0
  7 20  1  0
 20 21  1  0
 21  4  1  0
 19  8  1  0
 19 12  2  0
  1 22  1  0
  1 23  1  0
  4 24  1  0
  5 25  1  0
  5 26  1  0
  6 27  1  0
  6 28  1  0
  9 29  1  0
 10 30  1  0
 11 31  1  0
 20 32  1  0
 20 33  1  0
 21 34  1  0
 21 35  1  0
M  CHG  2  13  -1  18  -1
M  END
>  <UniqueID>  (84) 
77

>  <SMILES>  (84) 
NC(=O)C1CCN(c2cccc3[n-]c(=O)c(=O)[n-]c23)CC1

>  <Energy>  (84) 
46.610638522452085

>  <Genealogy>  (84) 
NC(=O)C1CCN(c2cccc3[n-]c(=O)c(=O)[n-]c23)CC1 (protonated)
NC(=O)C1CCN(c2cccc3[n-]c(=O)c(=O)[n-]c23)CC1 (3D coordinates assigned)
NC(=O)C1CCN(c2cccc3[n-]c(=O)c(=O)[n-]c23)CC1 (nonaromatic ring conformer: 46.610638522452085 kcal/mol)

>  <smiles>  (84) 
NC(=O)C1CCN(c2cccc3[nH]c(=O)c(=O)[nH]c23)CC1

>  <score_type>  (84) 
oracle

>  <origin>  (84) 
adg

>  <m_score__min__energy>  (84) 
-9.8499999999999996

>  <m_primary>  (84) 
energy

$$$$
84:0
     RDKit          3D

 54 57  0  0  0  0  0  0  0  0999 V2000
   59.8090   30.4050   47.8090 C   0  0  0  0  0  0  0  0  0  0  0  0
   59.0740   31.4970   47.0460 C   0  0  0  0  0  0  0  0  0  0  0  0
   58.3610   31.1590   45.8720 C   0  0  0  0  0  0  0  0  0  0  0  0
   58.3430   29.7730   45.3350 C   0  0  0  0  0  0  0  0  0  0  0  0
   58.5790   29.5790   44.1110 O   0  0  0  0  0  0  0  0  0  0  0  0
   58.0140   28.5980   46.2160 C   0  0  0  0  0  0  0  0  0  0  0  0
   56.8220   27.8390   45.6970 C   0  0  0  0  0  0  0  0  0  0  0  0
   55.8420   28.4820   45.2320 O   0  0  0  0  0  0  0  0  0  0  0  0
   56.8040   26.3540   45.6560 C   0  0  0  0  0  0  0  0  0  0  0  0
   58.0020   25.6400   45.4760 C   0  0  0  0  0  0  0  0  0  0  0  0
   58.0020   24.2460   45.4200 C   0  0  0  0  0  0  0  0  0  0  0  0
   56.8030   23.5340   45.5410 C   0  0  0  0  0  0  0  0  0  0  0  0
   56.8030   22.1310   45.4860 C   0  0  0  0  0  0  0  0  0  0  0  0
   55.6040   21.4240   45.6060 C   0  0  0  0  0  0  0  0  0  0  0  0
   54.4000   22.1090   45.7800 C   0  0  0  0  0  0  0  0  0  0  0  0
   54.3850   23.5050   45.8370 C   0  0  0  0  0  0  0  0  0  0  0  0
   55.5840   24.2340   45.7190 C   0  0  0  0  0  0  0  0  0  0  0  0
   55.5900   25.6420   45.7770 C   0  0  0  0  0  0  0  0  0  0  0  0
   54.3950   26.3330   45.9700 O   0  0  0  0  0  0  0  0  0  0  0  0
   57.6940   32.1750   45.1740 C   0  0  0  0  0  0  0  0  0  0  0  0
   57.0530   31.8910   44.1220 O   0  0  0  0  0  0  0  0  0  0  0  0
   57.7520   33.4680   45.6100 N   0  0  0  0  0  0  0  0  0  0  0  0
   57.0140   34.5220   44.8880 C   0  0  0  0  0  0  0  0  0  0  0  0
   58.4510   33.7830   46.7460 C   0  0  0  0  0  0  0  0  0  0  0  0
   58.4700   34.9840   47.1430 O   0  0  0  0  0  0  0  0  0  0  0  0
   59.1310   32.8160   47.4520 N   0  0  0  0  0  0  0  0  0  0  0  0
   59.9530   33.2200   48.6220 C   0  0  0  0  0  0  0  0  0  0  0  0
   61.4170   33.2780   48.2640 C   0  0  0  0  0  0  0  0  0  0  0  0
   62.3970   32.9100   49.2070 C   0  0  0  0  0  0  0  0  0  0  0  0
   63.7530   32.9640   48.8730 C   0  0  0  0  0  0  0  0  0  0  0  0
   64.1440   33.3940   47.6010 C   0  0  0  0  0  0  0  0  0  0  0  0
   63.1790   33.7740   46.6640 C   0  0  0  0  0  0  0  0  0  0  0  0
   61.8210   33.7220   46.9950 C   0  0  0  0  0  0  0  0  0  0  0  0
   59.6957   30.5733   48.8901 H   0  0  0  0  0  0  0  0  0  0  0  0
   59.3862   29.4246   47.5443 H   0  0  0  0  0  0  0  0  0  0  0  0
   60.8764   30.4276   47.5443 H   0  0  0  0  0  0  0  0  0  0  0  0
   58.8814   27.9223   46.2501 H   0  0  0  0  0  0  0  0  0  0  0  0
   57.7734   28.9754   47.2208 H   0  0  0  0  0  0  0  0  0  0  0  0
   58.9511   26.1875   45.3781 H   0  0  0  0  0  0  0  0  0  0  0  0
   58.9488   23.7038   45.2801 H   0  0  0  0  0  0  0  0  0  0  0  0
   57.7492   21.5873   45.3481 H   0  0  0  0  0  0  0  0  0  0  0  0
   55.6086   20.3248   45.5633 H   0  0  0  0  0  0  0  0  0  0  0  0
   53.4589   21.5471   45.8726 H   0  0  0  0  0  0  0  0  0  0  0  0
   53.4321   24.0371   45.9747 H   0  0  0  0  0  0  0  0  0  0  0  0
   56.5395   35.1997   45.6130 H   0  0  0  0  0  0  0  0  0  0  0  0
   57.7119   35.0912   44.2564 H   0  0  0  0  0  0  0  0  0  0  0  0
   56.2404   34.0609   44.2564 H   0  0  0  0  0  0  0  0  0  0  0  0
   59.6273   34.2135   48.9639 H   0  0  0  0  0  0  0  0  0  0  0  0
   59.8177   32.4732   49.4182 H   0  0  0  0  0  0  0  0  0  0  0  0
   62.0934   32.5786   50.2110 H   0  0  0  0  0  0  0  0  0  0  0  0
   64.5131   32.6681   49.6110 H   0  0  0  0  0  0  0  0  0  0  0  0
   65.2113   33.4332   47.3378 H   0  0  0  0  0  0  0  0  0  0  0  0
   63.4880   34.1145   45.6647 H   0  0  0  0  0  0  0  0  0  0  0  0
   61.0657   34.0306   46.2572 H   0  0  0  0  0  0  0  0  0  0  0  0
  1  2  1  0
  2  3  2  0
  3  4  1  0
  4  5  2  0
  4  6  1  0
  6  7  1  0
  7  8  2  0
  7  9  1  0
  9 10  2  0
 10 11  1  0
 11 12  2  0
 12 13  1  0
 13 14  2  0
 14 15  1  0
 15 16  2  0
 16 17  1  0
 17 18  2  0
 18 19  1  0
  3 20  1  0
 20 21  2  0
 20 22  1  0
 22 23  1  0
 22 24  1  0
 24 25  2  0
 24 26  1  0
 26 27  1  0
 27 28  1  0
 28 29  2  0
 29 30  1  0
 30 31  2  0
 31 32  1  0
 32 33  2  0
 26  2  1  0
 33 28  1  0
 18  9  1  0
 17 12  1  0
  1 34  1  0
  1 35  1  0
  1 36  1  0
  6 37  1  0
  6 38  1  0
 10 39  1  0
 11 40  1  0
 13 41  1  0
 14 42  1  0
 15 43  1  0
 16 44  1  0
 23 45  1  0
 23 46  1  0
 23 47  1  0
 27 48  1  0
 27 49  1  0
 29 50  1  0
 30 51  1  0
 31 52  1  0
 32 53  1  0
 33 54  1  0
M  CHG  1  19  -1
M  END
>  <UniqueID>  (85) 
78

>  <SMILES>  (85) 
Cc1c(C(=O)CC(=O)c2ccc3ccccc3c2[O-])c(=O)n(C)c(=O)n1Cc1ccccc1

>  <Energy>  (85) 
85.06094756934995

>  <Genealogy>  (85) 
Cc1c(C(=O)CC(=O)c2ccc3ccccc3c2[O-])c(=O)n(C)c(=O)n1Cc1ccccc1 (protonated)
Cc1c(C(=O)CC(=O)c2ccc3ccccc3c2[O-])c(=O)n(C)c(=O)n1Cc1ccccc1 (3D coordinates assigned)
Cc1c(C(=O)CC(=O)c2ccc3ccccc3c2[O-])c(=O)n(C)c(=O)n1Cc1ccccc1 (optimized conformer: 85.06094756934995 kcal/mol)

>  <smiles>  (85) 
Cc1c(C(=O)CC(=O)c2ccc3ccccc3c2O)c(=O)n(C)c(=O)n1Cc1ccccc1

>  <score_type>  (85) 
oracle

>  <origin>  (85) 
adg

>  <m_score__min__energy>  (85) 
-14.19

>  <m_primary>  (85) 
energy

$$$$
85:0
     RDKit          3D

 25 25  0  0  0  0  0  0  0  0999 V2000
   59.7835   35.7309   47.2281 H   0  0  0  0  0  0  0  0  0  0  0  0
   59.2120   34.9130   46.7650 C   0  0  0  0  0  0  0  0  0  0  0  0
   58.5190   34.0410   47.5450 N   0  0  0  0  0  0  0  0  0  0  0  0
   57.8070   33.0130   47.0120 C   0  0  0  0  0  0  0  0  0  0  0  0
   57.2557   32.3275   47.6724 H   0  0  0  0  0  0  0  0  0  0  0  0
   57.7730   32.8230   45.6180 C   0  0  0  0  0  0  0  0  0  0  0  0
   57.0200   31.7550   45.0160 N   0  0  0  0  0  0  0  0  0  0  0  0
   56.0140   31.6440   45.2730 H   0  0  0  0  0  0  0  0  0  0  0  0
   57.6150   30.7260   44.2120 C   0  0  0  0  0  0  0  0  0  0  0  0
   58.0460   30.9760   43.0050 N   0  0  0  0  0  0  0  0  0  0  0  0
   58.8740   30.4530   42.6380 H   0  0  0  0  0  0  0  0  0  0  0  0
   57.3870   31.9100   42.0950 C   0  0  0  0  0  0  0  0  0  0  0  0
   56.8492   32.6722   42.6780 H   0  0  0  0  0  0  0  0  0  0  0  0
   58.1417   32.3983   41.4609 H   0  0  0  0  0  0  0  0  0  0  0  0
   56.6739   31.3627   41.4609 H   0  0  0  0  0  0  0  0  0  0  0  0
   57.5980   29.3150   44.7250 C   0  0  0  0  0  0  0  0  0  0  0  0
   58.0317   28.6465   43.9667 H   0  0  0  0  0  0  0  0  0  0  0  0
   58.1881   29.2606   45.6517 H   0  0  0  0  0  0  0  0  0  0  0  0
   56.2290   28.9030   45.0050 N   0  0  0  0  0  0  0  0  0  0  0  0
   55.2910   29.7150   44.8650 O   0  0  0  0  0  0  0  0  0  0  0  0
   55.9910   27.6970   45.6230 O   0  0  0  0  0  0  0  0  0  0  0  0
   58.4730   33.7240   44.8030 C   0  0  0  0  0  0  0  0  0  0  0  0
   58.4509   33.6065   43.7095 H   0  0  0  0  0  0  0  0  0  0  0  0
   59.1980   34.7700   45.3770 C   0  0  0  0  0  0  0  0  0  0  0  0
   59.7532   35.4750   44.7408 H   0  0  0  0  0  0  0  0  0  0  0  0
  1  2  1  0
  2  3  2  0
  3  4  1  0
  4  5  1  0
  4  6  2  0
  6  7  1  0
  7  8  1  0
  7  9  1  0
  9 10  2  0
 10 11  1  0
 10 12  1  0
 12 13  1  0
 12 14  1  0
 12 15  1  0
  9 16  1  0
 16 17  1  0
 16 18  1  0
 16 19  1  0
 19 20  2  0
 19 21  1  0
  6 22  1  0
 22 23  1  0
 22 24  2  0
 24 25  1  0
 24  2  1  0
M  CHG  3  10   1  19   1  21  -1
M  END
>  <UniqueID>  (86) 
79

>  <SMILES>  (86) 
C/[NH+]=C(/C[N+](=O)[O-])Nc1cccnc1

>  <Energy>  (86) 
27.154338299700445

>  <Genealogy>  (86) 
C[NH+]=C(C[N+](=O)[O-])Nc1cccnc1 (protonated)
C/[NH+]=C(/C[N+](=O)[O-])Nc1cccnc1 (cis-trans isomerization)
C/[NH+]=C(/C[N+](=O)[O-])Nc1cccnc1 (3D coordinates assigned)
C/[NH+]=C(/C[N+](=O)[O-])Nc1cccnc1 (optimized conformer: 27.154338299700445 kcal/mol)

>  <smiles>  (86) 
CN=C(C[N+](=O)[O-])Nc1cccnc1

>  <score_type>  (86) 
oracle

>  <origin>  (86) 
adg

>  <m_score__min__energy>  (86) 
-4.5

>  <m_primary>  (86) 
energy

$$$$
86:0
     RDKit          3D

 49 51  0  0  0  0  0  0  0  0999 V2000
   63.3950   32.4490   47.3260 C   0  0  0  0  0  0  0  0  0  0  0  0
   62.7280   33.7940   47.0610 C   0  0  0  0  0  0  0  0  0  0  0  0
   61.9850   34.2190   48.2020 O   0  0  0  0  0  0  0  0  0  0  0  0
   60.5870   34.2510   48.2440 C   0  0  0  0  0  0  0  0  0  0  0  0
   59.9900   34.9140   49.1350 O   0  0  0  0  0  0  0  0  0  0  0  0
   59.7950   33.5090   47.2510 C   0  0  0  0  0  0  0  0  0  0  0  0
   59.6330   33.9270   46.0090 O   0  0  0  0  0  0  0  0  0  0  0  0
   58.8970   33.0430   45.3800 C   0  0  0  0  0  0  0  0  0  0  0  0
   58.4890   33.0740   44.0490 C   0  0  0  0  0  0  0  0  0  0  0  0
   57.7140   32.0020   43.5730 C   0  0  0  0  0  0  0  0  0  0  0  0
   57.3570   30.9360   44.4310 C   0  0  0  0  0  0  0  0  0  0  0  0
   56.4280   29.5830   43.7970 S   0  0  0  0  0  0  0  0  0  0  0  0
   56.0150   29.8910   42.3830 O   0  0  0  0  0  0  0  0  0  0  0  0
   55.1800   29.3770   44.6110 O   0  0  0  0  0  0  0  0  0  0  0  0
   57.4050   28.1430   43.8580 N   0  0  0  0  0  0  0  0  0  0  0  0
   57.8010   27.4650   42.6220 C   0  0  0  0  0  0  0  0  0  0  0  0
   57.8690   27.6460   45.1270 C   0  0  0  0  0  0  0  0  0  0  0  0
   58.8740   28.2830   45.7900 N   0  0  0  0  0  0  0  0  0  0  0  0
   59.3290   27.8320   46.9890 C   0  0  0  0  0  0  0  0  0  0  0  0
   60.4260   28.5630   47.6940 C   0  0  0  0  0  0  0  0  0  0  0  0
   58.7490   26.6980   47.5660 C   0  0  0  0  0  0  0  0  0  0  0  0
   57.7080   26.0600   46.8840 C   0  0  0  0  0  0  0  0  0  0  0  0
   57.0690   24.8310   47.4490 C   0  0  0  0  0  0  0  0  0  0  0  0
   57.3020   26.5390   45.6800 N   0  0  0  0  0  0  0  0  0  0  0  0
   57.7810   30.9380   45.7760 C   0  0  0  0  0  0  0  0  0  0  0  0
   58.5540   32.0130   46.2170 C   0  0  0  0  0  0  0  0  0  0  0  0
   59.1230   32.2960   47.4430 C   0  0  0  0  0  0  0  0  0  0  0  0
   59.0700   31.4620   48.6870 C   0  0  0  0  0  0  0  0  0  0  0  0
   63.4753   32.2870   48.4110 H   0  0  0  0  0  0  0  0  0  0  0  0
   62.7908   31.6457   46.8791 H   0  0  0  0  0  0  0  0  0  0  0  0
   64.4001   32.4438   46.8791 H   0  0  0  0  0  0  0  0  0  0  0  0
   63.5013   34.5426   46.8337 H   0  0  0  0  0  0  0  0  0  0  0  0
   62.0401   33.6872   46.2093 H   0  0  0  0  0  0  0  0  0  0  0  0
   58.7645   33.9111   43.3906 H   0  0  0  0  0  0  0  0  0  0  0  0
   57.3824   31.9923   42.5242 H   0  0  0  0  0  0  0  0  0  0  0  0
   58.3417   26.5393   42.8686 H   0  0  0  0  0  0  0  0  0  0  0  0
   56.9039   27.2202   42.0345 H   0  0  0  0  0  0  0  0  0  0  0  0
   58.4550   28.1262   42.0345 H   0  0  0  0  0  0  0  0  0  0  0  0
   60.2881   28.4711   48.7814 H   0  0  0  0  0  0  0  0  0  0  0  0
   61.3966   28.1305   47.4097 H   0  0  0  0  0  0  0  0  0  0  0  0
   60.4005   29.6253   47.4097 H   0  0  0  0  0  0  0  0  0  0  0  0
   59.1036   26.3162   48.5348 H   0  0  0  0  0  0  0  0  0  0  0  0
   57.0931   24.8773   48.5478 H   0  0  0  0  0  0  0  0  0  0  0  0
   56.0252   24.7703   47.1073 H   0  0  0  0  0  0  0  0  0  0  0  0
   57.6189   23.9417   47.1073 H   0  0  0  0  0  0  0  0  0  0  0  0
   57.5107   30.1173   46.4567 H   0  0  0  0  0  0  0  0  0  0  0  0
   59.1116   32.1171   49.5697 H   0  0  0  0  0  0  0  0  0  0  0  0
   58.1334   30.8853   48.7022 H   0  0  0  0  0  0  0  0  0  0  0  0
   59.9261   30.7714   48.7022 H   0  0  0  0  0  0  0  0  0  0  0  0
  1  2  1  0
  2  3  1  0
  3  4  1  0
  4  5  2  0
  4  6  1  0
  6  7  1  0
  7  8  1  0
  8  9  2  0
  9 10  1  0
 10 11  2  0
 11 12  1  0
 12 13  2  0
 12 14  2  0
 12 15  1  0
 15 16  1  0
 15 17  1  0
 17 18  2  0
 18 19  1  0
 19 20  1  0
 19 21  2  0
 21 22  1  0
 22 23  1  0
 22 24  2  0
 11 25  1  0
 25 26  2  0
 26 27  1  0
 27 28  1  0
 27  6  2  0
 26  8  1  0
 24 17  1  0
  1 29  1  0
  1 30  1  0
  1 31  1  0
  2 32  1  0
  2 33  1  0
  9 34  1  0
 10 35  1  0
 16 36  1  0
 16 37  1  0
 16 38  1  0
 20 39  1  0
 20 40  1  0
 20 41  1  0
 21 42  1  0
 23 43  1  0
 23 44  1  0
 23 45  1  0
 25 46  1  0
 28 47  1  0
 28 48  1  0
 28 49  1  0
M  END
>  <UniqueID>  (87) 
80

>  <SMILES>  (87) 
CCOC(=O)c1oc2ccc(S(=O)(=O)N(C)c3nc(C)cc(C)n3)cc2c1C

>  <Energy>  (87) 
77.18628087023316

>  <Genealogy>  (87) 
CCOC(=O)c1oc2ccc(S(=O)(=O)N(C)c3nc(C)cc(C)n3)cc2c1C (3D coordinates assigned)
CCOC(=O)c1oc2ccc(S(=O)(=O)N(C)c3nc(C)cc(C)n3)cc2c1C (optimized conformer: 77.18628087023316 kcal/mol)

>  <smiles>  (87) 
CCOC(=O)c1oc2ccc(S(=O)(=O)N(C)c3nc(C)cc(C)n3)cc2c1C

>  <score_type>  (87) 
oracle

>  <origin>  (87) 
adg

>  <m_score__min__energy>  (87) 
-8.0500000000000007

>  <m_primary>  (87) 
energy

$$$$
87:0
     RDKit          3D

 40 40  0  0  0  0  0  0  0  0999 V2000
   56.1840   27.4340   45.5940 N   0  0  0  0  0  0  0  0  0  0  0  0
   56.8450   26.1670   45.7220 C   0  0  0  0  0  0  0  0  0  0  0  0
   57.1340   25.4120   44.5470 N   0  0  0  0  0  0  0  0  0  0  0  0
   57.1990   25.6880   46.8810 N   0  0  0  0  0  0  0  0  0  0  0  0
   58.3670   26.0820   47.6670 C   0  0  0  0  0  0  0  0  0  0  0  0
   58.5540   27.6040   47.6270 C   0  0  0  0  0  0  0  0  0  0  0  0
   59.5550   28.0740   46.5530 C   0  0  0  0  0  0  0  0  0  0  0  0
   58.9700   28.9790   45.4390 C   0  0  1  0  0  0  0  0  0  0  0  0
   58.9160   28.2710   44.1140 C   0  0  0  0  0  0  0  0  0  0  0  0
   57.8660   27.7930   43.7110 O   0  0  0  0  0  0  0  0  0  0  0  0
   57.6350   29.4640   45.7860 N   0  0  0  0  0  0  0  0  0  0  0  0
   56.7640   30.1270   44.8640 C   0  0  0  0  0  0  0  0  0  0  0  0
   55.5310   29.8690   44.8630 O   0  0  0  0  0  0  0  0  0  0  0  0
   57.3510   31.0600   43.8820 C   0  0  0  0  0  0  0  0  0  0  0  0
   57.4080   32.3950   44.0100 C   0  0  0  0  0  0  0  0  0  0  0  0
   58.0940   33.1220   45.0980 C   0  0  0  0  0  0  0  0  0  0  0  0
   58.9120   34.2350   44.8300 C   0  0  0  0  0  0  0  0  0  0  0  0
   59.5110   34.9380   45.8790 C   0  0  0  0  0  0  0  0  0  0  0  0
   59.2830   34.5500   47.2020 C   0  0  0  0  0  0  0  0  0  0  0  0
   58.4460   33.4660   47.4770 C   0  0  0  0  0  0  0  0  0  0  0  0
   57.8440   32.7590   46.4310 C   0  0  0  0  0  0  0  0  0  0  0  0
   55.9890   28.0560   46.4070 H   0  0  0  0  0  0  0  0  0  0  0  0
   55.8980   27.7750   44.6490 H   0  0  0  0  0  0  0  0  0  0  0  0
   56.8660   25.7720   43.6040 H   0  0  0  0  0  0  0  0  0  0  0  0
   57.6170   24.4880   44.6140 H   0  0  0  0  0  0  0  0  0  0  0  0
   58.2260   25.7621   48.7100 H   0  0  0  0  0  0  0  0  0  0  0  0
   59.2605   25.6028   47.2404 H   0  0  0  0  0  0  0  0  0  0  0  0
   57.5787   28.0690   47.4208 H   0  0  0  0  0  0  0  0  0  0  0  0
   58.9626   27.9049   48.6030 H   0  0  0  0  0  0  0  0  0  0  0  0
   60.3548   28.6348   47.0588 H   0  0  0  0  0  0  0  0  0  0  0  0
   59.9018   27.1612   46.0465 H   0  0  0  0  0  0  0  0  0  0  0  0
   59.6498   29.8392   45.3502 H   0  0  0  0  0  0  0  0  0  0  0  0
   59.8269   28.1827   43.5037 H   0  0  0  0  0  0  0  0  0  0  0  0
   57.7783   30.6238   42.9670 H   0  0  0  0  0  0  0  0  0  0  0  0
   56.9021   32.9976   43.2412 H   0  0  0  0  0  0  0  0  0  0  0  0
   59.0808   34.5532   43.7906 H   0  0  0  0  0  0  0  0  0  0  0  0
   60.1626   35.7975   45.6630 H   0  0  0  0  0  0  0  0  0  0  0  0
   59.7625   35.0980   48.0265 H   0  0  0  0  0  0  0  0  0  0  0  0
   58.2598   33.1675   48.5192 H   0  0  0  0  0  0  0  0  0  0  0  0
   57.1729   31.9163   46.6534 H   0  0  0  0  0  0  0  0  0  0  0  0
  1  2  1  0
  2  3  1  0
  2  4  2  3
  4  5  1  0
  5  6  1  0
  6  7  1  0
  7  8  1  0
  8  9  1  0
  9 10  2  0
  8 11  1  0
 11 12  1  0
 12 13  2  0
 12 14  1  0
 14 15  2  3
 15 16  1  0
 16 17  2  0
 17 18  1  0
 18 19  2  0
 19 20  1  0
 20 21  2  0
 21 16  1  0
  1 22  1  0
  1 23  1  0
  3 24  1  0
  3 25  1  0
  5 26  1  0
  5 27  1  0
  6 28  1  0
  6 29  1  0
  7 30  1  0
  7 31  1  0
  8 32  1  6
  9 33  1  0
 14 34  1  0
 15 35  1  0
 17 36  1  0
 18 37  1  0
 19 38  1  0
 20 39  1  0
 21 40  1  0
M  CHG  1  11  -1
M  END
>  <UniqueID>  (88) 
81

>  <SMILES>  (88) 
NC(N)=NCCC[C@@H](C=O)[N-]C(=O)C=Cc1ccccc1

>  <Energy>  (88) 
37.37769176439475

>  <Genealogy>  (88) 
NC(N)=NCCCC(C=O)[N-]C(=O)C=Cc1ccccc1 (protonated)
NC(N)=NCCC[C@@H](C=O)[N-]C(=O)C=Cc1ccccc1 (chirality)
NC(N)=NCCC[C@@H](C=O)[N-]C(=O)C=Cc1ccccc1 (3D coordinates assigned)
NC(N)=NCCC[C@@H](C=O)[N-]C(=O)C=Cc1ccccc1 (optimized conformer: 37.37769176439475 kcal/mol)

>  <smiles>  (88) 
NC(N)=NCCCC(C=O)NC(=O)C=Cc1ccccc1

>  <score_type>  (88) 
oracle

>  <origin>  (88) 
adg

>  <m_score__min__energy>  (88) 
-8.8800000000000008

>  <m_primary>  (88) 
energy

$$$$
88:0
     RDKit          3D

 74 77  0  0  0  0  0  0  0  0999 V2000
   62.9830   31.6990   47.4970 C   0  0  0  0  0  0  0  0  0  0  0  0
   63.3760   33.1760   47.6360 C   0  0  0  0  0  0  0  0  0  0  0  0
   63.3820   33.8430   46.2510 C   0  0  0  0  0  0  0  0  0  0  0  0
   62.4100   33.8860   48.6110 C   0  0  0  0  0  0  0  0  0  0  0  0
   61.7850   32.9300   49.6400 C   0  0  0  0  0  0  0  0  0  0  0  0
   60.3170   33.0320   49.6180 N   0  0  0  0  0  0  0  0  0  0  0  0
   59.6400   34.0700   48.8770 C   0  0  0  0  0  0  0  0  0  0  0  0
   59.2770   35.1240   49.4640 O   0  0  0  0  0  0  0  0  0  0  0  0
   59.3260   33.9210   47.4440 C   0  0  0  0  0  0  0  0  0  0  0  0
   59.4490   35.0100   46.5680 C   0  0  0  0  0  0  0  0  0  0  0  0
   59.1730   34.8520   45.2070 C   0  0  0  0  0  0  0  0  0  0  0  0
   58.7700   33.6090   44.7130 C   0  0  0  0  0  0  0  0  0  0  0  0
   58.6230   32.5200   45.5850 C   0  0  0  0  0  0  0  0  0  0  0  0
   58.1730   30.9320   44.9700 S   0  0  0  0  0  0  0  0  0  0  0  0
   58.4450   30.8700   43.4930 O   0  0  0  0  0  0  0  0  0  0  0  0
   56.6980   30.7420   45.1870 O   0  0  0  0  0  0  0  0  0  0  0  0
   59.0630   29.6960   45.8390 N   0  0  0  0  0  0  0  0  0  0  0  0
   59.9410   28.8970   44.9560 C   0  0  0  0  0  0  0  0  0  0  0  0
   59.1790   27.8520   44.1270 C   0  0  0  0  0  0  0  0  0  0  0  0
   58.3170   26.9650   45.0240 C   0  0  0  0  0  0  0  0  0  0  0  0
   57.3910   27.8120   45.8930 C   0  0  0  0  0  0  0  0  0  0  0  0
   58.1870   28.8580   46.6890 C   0  0  0  0  0  0  0  0  0  0  0  0
   58.8940   32.6820   46.9500 C   0  0  0  0  0  0  0  0  0  0  0  0
   59.5430   31.9830   50.2250 C   0  0  0  0  0  0  0  0  0  0  0  0
   58.8070   32.2150   51.4040 C   0  0  0  0  0  0  0  0  0  0  0  0
   58.8550   33.5220   52.0080 N   0  0  0  0  0  0  0  0  0  0  0  0
   58.0470   31.1970   51.9490 N   0  0  0  0  0  0  0  0  0  0  0  0
   57.2250   31.4210   53.1590 C   0  0  0  0  0  0  0  0  0  0  0  0
   55.8380   30.8470   52.9890 C   0  0  0  0  0  0  0  0  0  0  0  0
   55.0470   31.2140   51.8850 C   0  0  0  0  0  0  0  0  0  0  0  0
   53.7680   30.6700   51.7220 C   0  0  0  0  0  0  0  0  0  0  0  0
   53.2710   29.7570   52.6550 C   0  0  0  0  0  0  0  0  0  0  0  0
   54.0580   29.3720   53.7440 C   0  0  0  0  0  0  0  0  0  0  0  0
   55.3400   29.9060   53.9070 C   0  0  0  0  0  0  0  0  0  0  0  0
   58.0260   29.9660   51.3320 C   0  0  0  0  0  0  0  0  0  0  0  0
   57.3340   29.0190   51.7970 O   0  0  0  0  0  0  0  0  0  0  0  0
   58.7420   29.7460   50.2030 N   0  0  0  0  0  0  0  0  0  0  0  0
   59.4930   30.7170   49.6400 C   0  0  0  0  0  0  0  0  0  0  0  0
   60.1370   30.4700   48.5850 O   0  0  0  0  0  0  0  0  0  0  0  0
   62.8650   31.2553   48.4966 H   0  0  0  0  0  0  0  0  0  0  0  0
   62.0332   31.6224   46.9474 H   0  0  0  0  0  0  0  0  0  0  0  0
   63.7691   31.1606   46.9474 H   0  0  0  0  0  0  0  0  0  0  0  0
   64.3907   33.2559   48.0531 H   0  0  0  0  0  0  0  0  0  0  0  0
   63.3918   34.9364   46.3707 H   0  0  0  0  0  0  0  0  0  0  0  0
   64.2773   33.5268   45.6956 H   0  0  0  0  0  0  0  0  0  0  0  0
   62.4811   33.5430   45.6956 H   0  0  0  0  0  0  0  0  0  0  0  0
   62.9671   34.6661   49.1505 H   0  0  0  0  0  0  0  0  0  0  0  0
   61.5890   34.3074   48.0123 H   0  0  0  0  0  0  0  0  0  0  0  0
   62.0792   31.8977   49.3995 H   0  0  0  0  0  0  0  0  0  0  0  0
   62.1443   33.2046   50.6427 H   0  0  0  0  0  0  0  0  0  0  0  0
   59.7636   35.9910   46.9535 H   0  0  0  0  0  0  0  0  0  0  0  0
   59.2733   35.7081   44.5235 H   0  0  0  0  0  0  0  0  0  0  0  0
   58.5677   33.4840   43.6390 H   0  0  0  0  0  0  0  0  0  0  0  0
   59.6930   30.2240   46.4880 H   0  0  0  0  0  0  0  0  0  0  0  0
   60.4580   29.5805   44.2664 H   0  0  0  0  0  0  0  0  0  0  0  0
   60.6439   28.3511   45.6025 H   0  0  0  0  0  0  0  0  0  0  0  0
   58.5317   28.3691   43.4034 H   0  0  0  0  0  0  0  0  0  0  0  0
   59.9102   27.2175   43.6048 H   0  0  0  0  0  0  0  0  0  0  0  0
   57.7104   26.2969   44.3950 H   0  0  0  0  0  0  0  0  0  0  0  0
   58.9772   26.3780   45.6794 H   0  0  0  0  0  0  0  0  0  0  0  0
   56.6642   28.3275   45.2480 H   0  0  0  0  0  0  0  0  0  0  0  0
   56.8742   27.1499   46.6033 H   0  0  0  0  0  0  0  0  0  0  0  0
   57.4760   29.5144   47.2121 H   0  0  0  0  0  0  0  0  0  0  0  0
   58.8366   28.3113   47.3883 H   0  0  0  0  0  0  0  0  0  0  0  0
   58.7672   31.8328   47.6376 H   0  0  0  0  0  0  0  0  0  0  0  0
   58.9390   34.4020   51.4600 H   0  0  0  0  0  0  0  0  0  0  0  0
   58.8090   33.6440   53.0430 H   0  0  0  0  0  0  0  0  0  0  0  0
   57.7114   30.9363   54.0184 H   0  0  0  0  0  0  0  0  0  0  0  0
   57.1363   32.5048   53.3251 H   0  0  0  0  0  0  0  0  0  0  0  0
   55.4354   31.9313   51.1470 H   0  0  0  0  0  0  0  0  0  0  0  0
   53.1531   30.9618   50.8578 H   0  0  0  0  0  0  0  0  0  0  0  0
   52.2601   29.3409   52.5327 H   0  0  0  0  0  0  0  0  0  0  0  0
   53.6681   28.6476   54.4742 H   0  0  0  0  0  0  0  0  0  0  0  0
   55.9615   29.5884   54.7572 H   0  0  0  0  0  0  0  0  0  0  0  0
  1  2  1  0
  2  3  1  0
  2  4  1  0
  4  5  1  0
  5  6  1  0
  6  7  1  0
  7  8  2  0
  7  9  1  0
  9 10  2  0
 10 11  1  0
 11 12  2  0
 12 13  1  0
 13 14  1  0
 14 15  2  0
 14 16  2  0
 14 17  1  0
 17 18  1  0
 18 19  1  0
 19 20  1  0
 20 21  1  0
 21 22  1  0
 13 23  2  0
  6 24  1  0
 24 25  2  0
 25 26  1  0
 25 27  1  0
 27 28  1  0
 28 29  1  0
 29 30  2  0
 30 31  1  0
 31 32  2  0
 32 33  1  0
 33 34  2  0
 27 35  1  0
 35 36  2  0
 35 37  1  0
 37 38  1  0
 38 39  2  0
 23  9  1  0
 38 24  1  0
 22 17  1  0
 34 29  1  0
  1 40  1  0
  1 41  1  0
  1 42  1  0
  2 43  1  0
  3 44  1  0
  3 45  1  0
  3 46  1  0
  4 47  1  0
  4 48  1  0
  5 49  1  0
  5 50  1  0
 10 51  1  0
 11 52  1  0
 12 53  1  0
 17 54  1  0
 18 55  1  0
 18 56  1  0
 19 57  1  0
 19 58  1  0
 20 59  1  0
 20 60  1  0
 21 61  1  0
 21 62  1  0
 22 63  1  0
 22 64  1  0
 23 65  1  0
 26 66  1  0
 26 67  1  0
 28 68  1  0
 28 69  1  0
 30 70  1  0
 31 71  1  0
 32 72  1  0
 33 73  1  0
 34 74  1  0
M  CHG  2  17   1  37  -1
M  END
>  <UniqueID>  (89) 
82

>  <SMILES>  (89) 
CC(C)CCN(C(=O)c1cccc(S(=O)(=O)[NH+]2CCCCC2)c1)c1c(N)n(Cc2ccccc2)c(=O)[n-]c1=O

>  <Energy>  (89) 
85.58892738153091

>  <Genealogy>  (89) 
CC(C)CCN(C(=O)c1cccc(S(=O)(=O)[NH+]2CCCCC2)c1)c1c(N)n(Cc2ccccc2)c(=O)[n-]c1=O (protonated)
CC(C)CCN(C(=O)c1cccc(S(=O)(=O)[NH+]2CCCCC2)c1)c1c(N)n(Cc2ccccc2)c(=O)[n-]c1=O (3D coordinates assigned)
CC(C)CCN(C(=O)c1cccc(S(=O)(=O)[NH+]2CCCCC2)c1)c1c(N)n(Cc2ccccc2)c(=O)[n-]c1=O (nonaromatic ring conformer: 85.58892738153091 kcal/mol)

>  <smiles>  (89) 
CC(C)CCN(C(=O)c1cccc(S(=O)(=O)N2CCCCC2)c1)c1c(N)n(Cc2ccccc2)c(=O)[nH]c1=O

>  <score_type>  (89) 
oracle

>  <origin>  (89) 
adg

>  <m_score__min__energy>  (89) 
-10.59

>  <m_primary>  (89) 
energy

$$$$
89:0
     RDKit          3D

 75 78  0  0  0  0  0  0  0  0999 V2000
   63.4030   31.8930   47.2180 C   0  0  0  0  0  0  0  0  0  0  0  0
   63.3000   33.3860   47.2280 C   0  0  0  0  0  0  0  0  0  0  0  0
   63.3410   34.0060   46.1330 O   0  0  0  0  0  0  0  0  0  0  0  0
   63.1890   34.1350   48.4460 N   0  0  0  0  0  0  0  0  0  0  0  0
   62.1410   34.0540   49.4230 C   0  0  0  0  0  0  0  0  0  0  0  0
   62.4010   33.7440   50.7680 C   0  0  0  0  0  0  0  0  0  0  0  0
   61.3490   33.6000   51.6760 C   0  0  0  0  0  0  0  0  0  0  0  0
   60.0200   33.7290   51.2480 C   0  0  0  0  0  0  0  0  0  0  0  0
   58.8910   33.5350   52.2270 C   0  0  0  0  0  0  0  0  0  0  0  0
   57.8990   32.4540   51.7750 C   0  0  0  0  0  0  0  0  0  0  0  0
   57.2940   31.8070   52.8950 O   0  0  0  0  0  0  0  0  0  0  0  0
   56.2180   30.9060   52.8540 C   0  0  0  0  0  0  0  0  0  0  0  0
   55.0220   31.1840   52.1640 C   0  0  0  0  0  0  0  0  0  0  0  0
   53.9820   30.2450   52.1430 C   0  0  0  0  0  0  0  0  0  0  0  0
   52.4710   30.6020   51.3190 S   0  0  0  0  0  0  0  0  0  0  0  0
   51.1000   30.2070   52.3850 C   0  0  0  0  0  0  0  0  0  0  0  0
   52.3820   29.7910   50.0560 O   0  0  0  0  0  0  0  0  0  0  0  0
   52.4010   32.0640   50.9690 O   0  0  0  0  0  0  0  0  0  0  0  0
   54.1390   29.0210   52.7980 C   0  0  0  0  0  0  0  0  0  0  0  0
   55.3170   28.7420   53.4930 C   0  0  0  0  0  0  0  0  0  0  0  0
   56.3490   29.6970   53.5530 C   0  0  0  0  0  0  0  0  0  0  0  0
   57.5370   29.4540   54.2660 O   0  0  0  0  0  0  0  0  0  0  0  0
   58.7820   29.1450   53.6940 C   0  0  0  0  0  0  0  0  0  0  0  0
   59.9340   28.9490   54.4810 C   0  0  0  0  0  0  0  0  0  0  0  0
   61.1490   28.6090   53.8820 C   0  0  0  0  0  0  0  0  0  0  0  0
   61.2320   28.4810   52.4970 C   0  0  0  0  0  0  0  0  0  0  0  0
   60.1090   28.7290   51.6970 C   0  0  0  0  0  0  0  0  0  0  0  0
   60.2070   28.5430   50.2850 N   0  0  0  0  0  0  0  0  0  0  0  0
   60.2850   29.8600   49.1630 S   0  0  0  0  0  0  0  0  0  0  0  0
   59.5490   31.0390   49.7370 O   0  0  0  0  0  0  0  0  0  0  0  0
   61.7240   30.2490   48.9640 O   0  0  0  0  0  0  0  0  0  0  0  0
   59.6130   29.4120   47.6000 C   0  0  0  0  0  0  0  0  0  0  0  0
   58.8550   28.2400   47.4600 C   0  0  0  0  0  0  0  0  0  0  0  0
   58.3130   27.8990   46.2170 C   0  0  0  0  0  0  0  0  0  0  0  0
   58.5360   28.7180   45.0960 C   0  0  0  0  0  0  0  0  0  0  0  0
   58.0240   28.3070   43.7420 C   0  0  0  0  0  0  0  0  0  0  0  0
   57.0330   29.3340   43.1780 C   0  0  0  0  0  0  0  0  0  0  0  0
   56.2590   30.0080   44.2700 C   0  0  0  0  0  0  0  0  0  0  0  0
   55.1590   29.3410   44.8820 N   0  0  0  0  0  0  0  0  0  0  0  0
   56.5480   31.1850   44.6150 O   0  0  0  0  0  0  0  0  0  0  0  0
   59.3040   29.8840   45.2380 C   0  0  0  0  0  0  0  0  0  0  0  0
   59.8320   30.2320   46.4860 C   0  0  0  0  0  0  0  0  0  0  0  0
   58.8860   29.0640   52.3000 C   0  0  0  0  0  0  0  0  0  0  0  0
   59.7580   34.0190   49.8990 C   0  0  0  0  0  0  0  0  0  0  0  0
   60.8130   34.1800   48.9970 C   0  0  0  0  0  0  0  0  0  0  0  0
   63.4287   31.5203   48.2526 H   0  0  0  0  0  0  0  0  0  0  0  0
   62.5320   31.4689   46.6970 H   0  0  0  0  0  0  0  0  0  0  0  0
   64.3240   31.5925   46.6970 H   0  0  0  0  0  0  0  0  0  0  0  0
   63.4389   33.6138   51.1084 H   0  0  0  0  0  0  0  0  0  0  0  0
   61.5646   33.3842   52.7329 H   0  0  0  0  0  0  0  0  0  0  0  0
   59.3138   33.2413   53.1991 H   0  0  0  0  0  0  0  0  0  0  0  0
   58.3411   34.4853   52.2951 H   0  0  0  0  0  0  0  0  0  0  0  0
   57.1133   32.9213   51.1632 H   0  0  0  0  0  0  0  0  0  0  0  0
   58.4478   31.6998   51.1919 H   0  0  0  0  0  0  0  0  0  0  0  0
   54.9037   32.1433   51.6388 H   0  0  0  0  0  0  0  0  0  0  0  0
   51.4142   30.2975   53.4353 H   0  0  0  0  0  0  0  0  0  0  0  0
   50.2709   30.9028   52.1891 H   0  0  0  0  0  0  0  0  0  0  0  0
   50.7682   29.1767   52.1891 H   0  0  0  0  0  0  0  0  0  0  0  0
   53.3316   28.2746   52.7659 H   0  0  0  0  0  0  0  0  0  0  0  0
   55.4392   27.7714   53.9960 H   0  0  0  0  0  0  0  0  0  0  0  0
   59.8762   29.0644   55.5734 H   0  0  0  0  0  0  0  0  0  0  0  0
   62.0408   28.4422   54.5039 H   0  0  0  0  0  0  0  0  0  0  0  0
   62.1827   28.1842   52.0301 H   0  0  0  0  0  0  0  0  0  0  0  0
   58.6867   27.5880   48.3298 H   0  0  0  0  0  0  0  0  0  0  0  0
   57.7090   26.9853   46.1156 H   0  0  0  0  0  0  0  0  0  0  0  0
   58.8751   28.2152   43.0512 H   0  0  0  0  0  0  0  0  0  0  0  0
   57.5001   27.3457   43.8492 H   0  0  0  0  0  0  0  0  0  0  0  0
   57.5904   30.0954   42.6127 H   0  0  0  0  0  0  0  0  0  0  0  0
   56.3215   28.8053   42.5267 H   0  0  0  0  0  0  0  0  0  0  0  0
   55.3100   28.6950   45.6880 H   0  0  0  0  0  0  0  0  0  0  0  0
   59.4915   30.5265   44.3651 H   0  0  0  0  0  0  0  0  0  0  0  0
   60.4220   31.1542   46.5928 H   0  0  0  0  0  0  0  0  0  0  0  0
   58.0043   29.2640   51.6735 H   0  0  0  0  0  0  0  0  0  0  0  0
   58.7192   34.1197   49.5515 H   0  0  0  0  0  0  0  0  0  0  0  0
   60.5983   34.4078   47.9425 H   0  0  0  0  0  0  0  0  0  0  0  0
  1  2  1  0
  2  3  2  0
  2  4  1  0
  4  5  1  0
  5  6  2  0
  6  7  1  0
  7  8  2  0
  8  9  1  0
  9 10  1  0
 10 11  1  0
 11 12  1  0
 12 13  2  0
 13 14  1  0
 14 15  1  0
 15 16  1  0
 15 17  2  0
 15 18  2  0
 14 19  2  0
 19 20  1  0
 20 21  2  0
 21 22  1  0
 22 23  1  0
 23 24  2  0
 24 25  1  0
 25 26  2  0
 26 27  1  0
 27 28  1  0
 28 29  1  0
 29 30  2  0
 29 31  2  0
 29 32  1  0
 32 33  2  0
 33 34  1  0
 34 35  2  0
 35 36  1  0
 36 37  1  0
 37 38  1  0
 38 39  1  0
 38 40  2  0
 35 41  1  0
 41 42  2  0
 27 43  2  0
  8 44  1  0
 44 45  2  0
 45  5  1  0
 21 12  1  0
 43 23  1  0
 42 32  1  0
  1 46  1  0
  1 47  1  0
  1 48  1  0
  6 49  1  0
  7 50  1  0
  9 51  1  0
  9 52  1  0
 10 53  1  0
 10 54  1  0
 13 55  1  0
 16 56  1  0
 16 57  1  0
 16 58  1  0
 19 59  1  0
 20 60  1  0
 24 61  1  0
 25 62  1  0
 26 63  1  0
 33 64  1  0
 34 65  1  0
 36 66  1  0
 36 67  1  0
 37 68  1  0
 37 69  1  0
 39 70  1  0
 41 71  1  0
 42 72  1  0
 43 73  1  0
 44 74  1  0
 45 75  1  0
M  CHG  3   4  -1  28  -1  39  -1
M  END
>  <UniqueID>  (90) 
83

>  <SMILES>  (90) 
CC(=O)[N-]c1ccc(CCOc2cc(S(C)(=O)=O)ccc2Oc2cccc([N-]S(=O)(=O)c3ccc(CCC([NH-])=O)cc3)c2)cc1

>  <Energy>  (90) 
84.78990530623008

>  <Genealogy>  (90) 
CC(=O)[N-]c1ccc(CCOc2cc(S(C)(=O)=O)ccc2Oc2cccc([N-]S(=O)(=O)c3ccc(CCC([NH-])=O)cc3)c2)cc1 (protonated)
CC(=O)[N-]c1ccc(CCOc2cc(S(C)(=O)=O)ccc2Oc2cccc([N-]S(=O)(=O)c3ccc(CCC([NH-])=O)cc3)c2)cc1 (3D coordinates assigned)
CC(=O)[N-]c1ccc(CCOc2cc(S(C)(=O)=O)ccc2Oc2cccc([N-]S(=O)(=O)c3ccc(CCC([NH-])=O)cc3)c2)cc1 (optimized conformer: 84.78990530623008 kcal/mol)

>  <smiles>  (90) 
CC(=O)Nc1ccc(CCOc2cc(S(C)(=O)=O)ccc2Oc2cccc(NS(=O)(=O)c3ccc(CCC(N)=O)cc3)c2)cc1

>  <score_type>  (90) 
oracle

>  <origin>  (90) 
adg

>  <m_score__min__energy>  (90) 
-17.09

>  <m_primary>  (90) 
energy

$$$$
90:0
     RDKit          3D

 44 46  0  0  0  0  0  0  0  0999 V2000
   53.1240   24.0970   44.8470 C   0  0  0  0  0  0  0  0  0  0  0  0
   54.0920   23.4230   45.7830 C   0  0  0  0  0  0  0  0  0  0  0  0
   53.9320   22.0590   46.0680 C   0  0  0  0  0  0  0  0  0  0  0  0
   54.8270   21.4040   46.9150 C   0  0  0  0  0  0  0  0  0  0  0  0
   55.8760   22.1080   47.5060 C   0  0  0  0  0  0  0  0  0  0  0  0
   56.0430   23.4780   47.2530 C   0  0  0  0  0  0  0  0  0  0  0  0
   57.1640   24.2300   47.9170 C   0  0  0  0  0  0  0  0  0  0  0  0
   55.1390   24.1450   46.3990 C   0  0  0  0  0  0  0  0  0  0  0  0
   55.3250   25.5390   46.1180 N   0  0  0  0  0  0  0  0  0  0  0  0
   56.4750   26.0800   45.4570 C   0  0  0  0  0  0  0  0  0  0  0  0
   57.1570   25.3320   44.7080 O   0  0  0  0  0  0  0  0  0  0  0  0
   56.9360   27.4850   45.7030 C   0  0  0  0  0  0  0  0  0  0  0  0
   55.9040   28.4100   45.2450 N   0  0  0  0  0  0  0  0  0  0  0  0
   56.5540   29.4690   44.0320 S   0  0  0  0  0  0  0  0  0  0  0  0
   55.4400   30.1150   43.2540 O   0  0  0  0  0  0  0  0  0  0  0  0
   57.3970   28.6680   43.0800 O   0  0  0  0  0  0  0  0  0  0  0  0
   57.5510   30.6990   44.7980 C   0  0  0  0  0  0  0  0  0  0  0  0
   58.5060   30.3330   45.7820 C   0  0  0  0  0  0  0  0  0  0  0  0
   59.3260   31.3060   46.3830 C   0  0  0  0  0  0  0  0  0  0  0  0
   59.1540   32.6300   45.9820 C   0  0  0  0  0  0  0  0  0  0  0  0
   58.2450   32.9830   45.0250 C   0  0  0  0  0  0  0  0  0  0  0  0
   57.4210   32.0480   44.4070 C   0  0  0  0  0  0  0  0  0  0  0  0
   58.3270   34.2750   44.8050 O   0  0  0  0  0  0  0  0  0  0  0  0
   59.2760   34.7120   45.6130 C   0  0  0  0  0  0  0  0  0  0  0  0
   59.6490   35.9150   45.6540 O   0  0  0  0  0  0  0  0  0  0  0  0
   59.8160   33.7320   46.3790 N   0  0  0  0  0  0  0  0  0  0  0  0
   60.9500   33.8240   47.2940 C   0  0  0  0  0  0  0  0  0  0  0  0
   52.3592   24.6295   45.4315 H   0  0  0  0  0  0  0  0  0  0  0  0
   53.6660   24.8140   44.2129 H   0  0  0  0  0  0  0  0  0  0  0  0
   52.6396   23.3399   44.2129 H   0  0  0  0  0  0  0  0  0  0  0  0
   53.0955   21.5019   45.6209 H   0  0  0  0  0  0  0  0  0  0  0  0
   54.7048   20.3296   47.1171 H   0  0  0  0  0  0  0  0  0  0  0  0
   56.5766   21.5861   48.1744 H   0  0  0  0  0  0  0  0  0  0  0  0
   57.0571   24.1583   49.0094 H   0  0  0  0  0  0  0  0  0  0  0  0
   58.1277   23.7949   47.6135 H   0  0  0  0  0  0  0  0  0  0  0  0
   57.1270   25.2867   47.6135 H   0  0  0  0  0  0  0  0  0  0  0  0
   57.1125   27.6324   46.7787 H   0  0  0  0  0  0  0  0  0  0  0  0
   57.8717   27.6708   45.1553 H   0  0  0  0  0  0  0  0  0  0  0  0
   58.6062   29.2783   46.0778 H   0  0  0  0  0  0  0  0  0  0  0  0
   60.0747   31.0321   47.1409 H   0  0  0  0  0  0  0  0  0  0  0  0
   56.6930   32.3503   43.6397 H   0  0  0  0  0  0  0  0  0  0  0  0
   60.5870   33.7945   48.3319 H   0  0  0  0  0  0  0  0  0  0  0  0
   61.6313   32.9782   47.1197 H   0  0  0  0  0  0  0  0  0  0  0  0
   61.4861   34.7686   47.1197 H   0  0  0  0  0  0  0  0  0  0  0  0
  1  2  1  0
  2  3  2  0
  3  4  1  0
  4  5  2  0
  5  6  1  0
  6  7  1  0
  6  8  2  0
  8  9  1  0
  9 10  1  0
 10 11  2  0
 10 12  1  0
 12 13  1  0
 13 14  1  0
 14 15  2  0
 14 16  2  0
 14 17  1  0
 17 18  2  0
 18 19  1  0
 19 20  2  0
 20 21  1  0
 21 22  2  0
 21 23  1  0
 23 24  1  0
 24 25  2  0
 24 26  1  0
 26 27  1  0
  8  2  1  0
 22 17  1  0
 26 20  1  0
  1 28  1  0
  1 29  1  0
  1 30  1  0
  3 31  1  0
  4 32  1  0
  5 33  1  0
  7 34  1  0
  7 35  1  0
  7 36  1  0
 12 37  1  0
 12 38  1  0
 18 39  1  0
 19 40  1  0
 22 41  1  0
 27 42  1  0
 27 43  1  0
 27 44  1  0
M  CHG  2   9  -1  13  -1
M  END
>  <UniqueID>  (91) 
84

>  <SMILES>  (91) 
Cc1cccc(C)c1[N-]C(=O)C[N-]S(=O)(=O)c1ccc2c(c1)oc(=O)n2C

>  <Energy>  (91) 
85.03061358183427

>  <Genealogy>  (91) 
Cc1cccc(C)c1[N-]C(=O)C[N-]S(=O)(=O)c1ccc2c(c1)oc(=O)n2C (protonated)
Cc1cccc(C)c1[N-]C(=O)C[N-]S(=O)(=O)c1ccc2c(c1)oc(=O)n2C (3D coordinates assigned)
Cc1cccc(C)c1[N-]C(=O)C[N-]S(=O)(=O)c1ccc2c(c1)oc(=O)n2C (optimized conformer: 85.03061358183427 kcal/mol)

>  <smiles>  (91) 
Cc1cccc(C)c1NC(=O)CNS(=O)(=O)c1ccc2c(c1)oc(=O)n2C

>  <score_type>  (91) 
oracle

>  <origin>  (91) 
adg

>  <m_score__min__energy>  (91) 
-12.07

>  <m_primary>  (91) 
energy

$$$$
91:0
     RDKit          3D

 47 50  0  0  1  0  0  0  0  0999 V2000
   56.2650   29.9500   42.6230 C   0  0  0  0  0  0  0  0  0  0  0  0
   55.9240   29.8670   43.9710 O   0  0  0  0  0  0  0  0  0  0  0  0
   56.8170   29.4620   44.9560 C   0  0  0  0  0  0  0  0  0  0  0  0
   56.9180   28.1270   45.2080 C   0  0  0  0  0  0  0  0  0  0  0  0
   57.7850   27.7050   46.1730 C   0  0  0  0  0  0  0  0  0  0  0  0
   57.8790   26.3540   46.4050 C   0  0  0  0  0  0  0  0  0  0  0  0
   57.1070   25.3440   45.6950 C   0  0  0  0  0  0  0  0  0  0  0  0
   57.8350   24.3260   45.0650 C   0  0  0  0  0  0  0  0  0  0  0  0
   57.1710   23.3410   44.3520 C   0  0  0  0  0  0  0  0  0  0  0  0
   55.7960   23.3590   44.2620 C   0  0  0  0  0  0  0  0  0  0  0  0
   55.0730   24.3650   44.8830 C   0  0  0  0  0  0  0  0  0  0  0  0
   55.7260   25.3710   45.6090 C   0  0  0  0  0  0  0  0  0  0  0  0
   55.0220   26.3850   46.2380 O   0  0  0  0  0  0  0  0  0  0  0  0
   58.7500   25.9630   47.3540 N   0  0  0  0  0  0  0  0  0  0  0  0
   59.4690   26.8460   48.0200 N   0  0  0  0  0  0  0  0  0  0  0  0
   59.3840   28.1880   47.8010 C   0  0  0  0  0  0  0  0  0  0  0  0
   60.0740   28.9380   48.4750 N   0  0  0  0  0  0  0  0  0  0  0  0
   59.8030   29.9540   49.3460 C   0  0  0  0  0  0  0  0  0  0  0  0
   58.7790   29.9010   50.3270 C   0  0  0  0  0  0  0  0  0  0  0  0
   58.5030   31.0330   51.0890 C   0  0  0  0  0  0  0  0  0  0  0  0
   59.2060   32.2140   50.9120 C   0  0  0  0  0  0  0  0  0  0  0  0
   58.8690   33.6450   51.8630 Cl  0  0  0  0  0  0  0  0  0  0  0  0
   60.2010   32.2710   49.9620 C   0  0  0  0  0  0  0  0  0  0  0  0
   60.5090   31.1750   49.1840 C   0  0  0  0  0  0  0  0  0  0  0  0
   58.5230   28.6580   46.8500 C   0  0  0  0  0  0  0  0  0  0  0  0
   58.4100   29.9950   46.5840 C   0  0  0  0  0  0  0  0  0  0  0  0
   57.5150   30.4330   45.5880 C   0  0  0  0  0  0  0  0  0  0  0  0
   57.3380   31.7400   45.2550 O   0  0  0  0  0  0  0  0  0  0  0  0
   57.7760   32.7660   46.1170 C   0  0  0  0  0  0  0  0  0  0  0  0
   57.3299   30.2092   42.5295 H   0  0  0  0  0  0  0  0  0  0  0  0
   56.0796   28.9805   42.1375 H   0  0  0  0  0  0  0  0  0  0  0  0
   55.6548   30.7258   42.1375 H   0  0  0  0  0  0  0  0  0  0  0  0
   56.3118   27.4029   44.6439 H   0  0  0  0  0  0  0  0  0  0  0  0
   58.9325   24.3089   45.1364 H   0  0  0  0  0  0  0  0  0  0  0  0
   57.7428   22.5426   43.8565 H   0  0  0  0  0  0  0  0  0  0  0  0
   55.2719   22.5742   43.6968 H   0  0  0  0  0  0  0  0  0  0  0  0
   53.9758   24.3743   44.8055 H   0  0  0  0  0  0  0  0  0  0  0  0
   54.0240   26.3220   46.3790 H   0  0  0  0  0  0  0  0  0  0  0  0
   60.1210   26.4730   48.7350 H   0  0  0  0  0  0  0  0  0  0  0  0
   58.2084   28.9738   50.4840 H   0  0  0  0  0  0  0  0  0  0  0  0
   57.7088   30.9889   51.8488 H   0  0  0  0  0  0  0  0  0  0  0  0
   60.7603   33.2077   49.8211 H   0  0  0  0  0  0  0  0  0  0  0  0
   61.3082   31.2473   48.4317 H   0  0  0  0  0  0  0  0  0  0  0  0
   59.0142   30.7237   47.1443 H   0  0  0  0  0  0  0  0  0  0  0  0
   57.6410   32.4497   47.1618 H   0  0  0  0  0  0  0  0  0  0  0  0
   58.8404   32.9718   45.9309 H   0  0  0  0  0  0  0  0  0  0  0  0
   57.1884   33.6771   45.9309 H   0  0  0  0  0  0  0  0  0  0  0  0
  1  2  1  0
  2  3  1  0
  3  4  2  0
  4  5  1  0
  5  6  1  0
  6  7  1  0
  7  8  2  0
  8  9  1  0
  9 10  2  0
 10 11  1  0
 11 12  2  0
 12 13  1  0
  6 14  2  0
 14 15  1  0
 15 16  1  0
 16 17  2  0
 17 18  1  0
 18 19  2  0
 19 20  1  0
 20 21  2  0
 21 22  1  0
 21 23  1  0
 23 24  2  0
 16 25  1  0
 25 26  1  0
 26 27  2  0
 27 28  1  0
 28 29  1  0
 27  3  1  0
 25  5  2  0
 12  7  1  0
 24 18  1  0
  1 30  1  0
  1 31  1  0
  1 32  1  0
  4 33  1  0
  8 34  1  0
  9 35  1  0
 10 36  1  0
 11 37  1  0
 13 38  1  0
 15 39  1  0
 19 40  1  0
 20 41  1  0
 23 42  1  0
 24 43  1  0
 26 44  1  0
 29 45  1  0
 29 46  1  0
 29 47  1  0
M  END
>  <smiles>  (92) 
COc1cc2c(-c3ccccc3O)n[nH]c(=Nc3ccc(Cl)cc3)c2cc1OC

>  <score_type>  (92) 
oracle

>  <origin>  (92) 
adg

>  <m_score__min__energy>  (92) 
-9.1600000000000001

>  <m_primary>  (92) 
energy

$$$$
92:0
     RDKit          3D

 36 38  0  0  0  0  0  0  0  0999 V2000
   56.9320   33.4390   45.9280 O   0  0  0  0  0  0  0  0  0  0  0  0
   57.8780   33.6150   45.1170 C   0  0  0  0  0  0  0  0  0  0  0  0
   58.5180   34.9450   44.8930 C   0  0  0  0  0  0  0  0  0  0  0  0
   59.6750   35.2220   46.2670 S   0  0  0  0  0  0  0  0  0  0  0  0
   60.1850   33.6920   47.0330 C   0  0  0  0  0  0  0  0  0  0  0  0
   59.2270   32.9520   47.6450 N   0  0  0  0  0  0  0  0  0  0  0  0
   59.5310   31.7750   48.2520 C   0  0  0  0  0  0  0  0  0  0  0  0
   58.6400   31.0950   48.8160 O   0  0  0  0  0  0  0  0  0  0  0  0
   60.8180   31.3320   48.2470 N   0  0  0  0  0  0  0  0  0  0  0  0
   61.7960   32.0550   47.6410 C   0  0  0  0  0  0  0  0  0  0  0  0
   61.4930   33.2510   47.0220 C   0  0  0  0  0  0  0  0  0  0  0  0
   62.7290   33.8410   46.4410 C   0  0  0  0  0  0  0  0  0  0  0  0
   63.7670   33.2590   47.4110 C   0  0  0  0  0  0  0  0  0  0  0  0
   63.2740   31.8220   47.4790 C   0  0  0  0  0  0  0  0  0  0  0  0
   58.4070   32.5230   44.3450 N   0  0  0  0  0  0  0  0  0  0  0  0
   57.8740   31.2110   44.4770 C   0  0  0  0  0  0  0  0  0  0  0  0
   56.6410   30.8410   43.9780 C   0  0  0  0  0  0  0  0  0  0  0  0
   56.1930   29.5300   44.1520 C   0  0  0  0  0  0  0  0  0  0  0  0
   56.9800   28.5890   44.8230 C   0  0  0  0  0  0  0  0  0  0  0  0
   58.2290   28.9640   45.3270 C   0  0  0  0  0  0  0  0  0  0  0  0
   58.6510   30.2680   45.1440 C   0  0  0  0  0  0  0  0  0  0  0  0
   59.0614   34.9456   43.9366 H   0  0  0  0  0  0  0  0  0  0  0  0
   57.7604   35.7415   44.8535 H   0  0  0  0  0  0  0  0  0  0  0  0
   58.2330   33.2960   47.6470 H   0  0  0  0  0  0  0  0  0  0  0  0
   62.8984   33.5037   45.4078 H   0  0  0  0  0  0  0  0  0  0  0  0
   62.7297   34.9378   46.3569 H   0  0  0  0  0  0  0  0  0  0  0  0
   64.7877   33.3233   47.0060 H   0  0  0  0  0  0  0  0  0  0  0  0
   63.8404   33.7738   48.3803 H   0  0  0  0  0  0  0  0  0  0  0  0
   63.5005   31.2694   46.5552 H   0  0  0  0  0  0  0  0  0  0  0  0
   63.7347   31.2131   48.2708 H   0  0  0  0  0  0  0  0  0  0  0  0
   59.1820   32.6760   43.6830 H   0  0  0  0  0  0  0  0  0  0  0  0
   56.0159   31.5740   43.4470 H   0  0  0  0  0  0  0  0  0  0  0  0
   55.2100   29.2342   43.7568 H   0  0  0  0  0  0  0  0  0  0  0  0
   56.6181   27.5585   44.9537 H   0  0  0  0  0  0  0  0  0  0  0  0
   58.8621   28.2376   45.8575 H   0  0  0  0  0  0  0  0  0  0  0  0
   59.6325   30.5700   45.5383 H   0  0  0  0  0  0  0  0  0  0  0  0
  1  2  2  0
  2  3  1  0
  3  4  1  0
  4  5  1  0
  5  6  1  0
  6  7  1  0
  7  8  2  0
  7  9  1  0
  9 10  2  0
 10 11  1  0
 11 12  1  0
 12 13  1  0
 13 14  1  0
  2 15  1  0
 15 16  1  0
 16 17  2  0
 17 18  1  0
 18 19  2  0
 19 20  1  0
 20 21  2  0
 11  5  2  0
 21 16  1  0
 14 10  1  0
  3 22  1  0
  3 23  1  0
  6 24  1  0
 12 25  1  0
 12 26  1  0
 13 27  1  0
 13 28  1  0
 14 29  1  0
 14 30  1  0
 15 31  1  0
 17 32  1  0
 18 33  1  0
 19 34  1  0
 20 35  1  0
 21 36  1  0
M  END
>  <smiles>  (93) 
O=C(CSc1[nH]c(=O)nc2c1CCC2)Nc1ccccc1

>  <score_type>  (93) 
oracle

>  <origin>  (93) 
adg

>  <m_score__min__energy>  (93) 
-8.3699999999999992

>  <m_primary>  (93) 
energy

$$$$
93:0
     RDKit          3D

 64 68  0  0  0  0  0  0  0  0999 V2000
   56.3800   29.0890   52.1230 O   0  0  0  0  0  0  0  0  0  0  0  0
   55.5410   30.0270   52.1150 C   0  0  0  0  0  0  0  0  0  0  0  0
   56.0320   31.4490   52.2300 C   0  0  0  0  0  0  0  0  0  0  0  0
   57.4180   31.5430   52.9060 C   0  0  0  0  0  0  0  0  0  0  0  0
   58.3550   32.5800   52.2640 C   0  0  0  0  0  0  0  0  0  0  0  0
   58.6740   32.2490   50.8340 C   0  0  0  0  0  0  0  0  0  0  0  0
   58.4190   33.0870   49.8130 N   0  0  0  0  0  0  0  0  0  0  0  0
   58.8130   32.5070   48.6900 N   0  0  0  0  0  0  0  0  0  0  0  0
   58.6170   33.1040   47.3960 C   0  0  0  0  0  0  0  0  0  0  0  0
   57.5710   32.6880   46.5530 C   0  0  0  0  0  0  0  0  0  0  0  0
   57.3910   33.2880   45.3030 C   0  0  0  0  0  0  0  0  0  0  0  0
   58.2630   34.2930   44.8750 C   0  0  0  0  0  0  0  0  0  0  0  0
   59.3210   34.6950   45.6950 C   0  0  0  0  0  0  0  0  0  0  0  0
   59.5030   34.1000   46.9460 C   0  0  0  0  0  0  0  0  0  0  0  0
   59.3340   31.2860   48.9720 C   0  0  0  0  0  0  0  0  0  0  0  0
   59.7150   30.2790   47.9650 C   0  0  0  0  0  0  0  0  0  0  0  0
   60.6560   30.5910   46.9700 C   0  0  0  0  0  0  0  0  0  0  0  0
   60.9970   29.6380   46.0040 C   0  0  0  0  0  0  0  0  0  0  0  0
   60.3940   28.3770   46.0210 C   0  0  0  0  0  0  0  0  0  0  0  0
   59.4480   28.0670   47.0030 C   0  0  0  0  0  0  0  0  0  0  0  0
   59.1060   29.0150   47.9700 C   0  0  0  0  0  0  0  0  0  0  0  0
   59.2440   31.0780   50.3440 C   0  0  0  0  0  0  0  0  0  0  0  0
   59.5580   29.8500   51.0970 C   0  0  0  0  0  0  0  0  0  0  0  0
   58.6650   28.9760   51.2660 O   0  0  0  0  0  0  0  0  0  0  0  0
   60.8960   29.6140   51.5510 N   0  0  0  0  0  0  0  0  0  0  0  0
   62.0590   30.4060   51.2760 C   0  0  0  0  0  0  0  0  0  0  0  0
   62.4010   30.8110   49.9710 C   0  0  0  0  0  0  0  0  0  0  0  0
   63.5620   31.5570   49.7470 C   0  0  0  0  0  0  0  0  0  0  0  0
   64.3970   31.8930   50.8160 C   0  0  0  0  0  0  0  0  0  0  0  0
   64.0740   31.4780   52.1110 C   0  0  0  0  0  0  0  0  0  0  0  0
   62.9160   30.7280   52.3390 C   0  0  0  0  0  0  0  0  0  0  0  0
   54.1460   29.6900   52.1550 N   0  0  0  0  0  0  0  0  0  0  0  0
   53.0180   30.5720   52.2550 C   0  0  0  0  0  0  0  0  0  0  0  0
   52.4420   30.9110   53.4920 C   0  0  0  0  0  0  0  0  0  0  0  0
   51.3740   31.8130   53.5480 C   0  0  0  0  0  0  0  0  0  0  0  0
   50.8960   32.4070   52.3760 C   0  0  0  0  0  0  0  0  0  0  0  0
   51.4880   32.1020   51.1470 C   0  0  0  0  0  0  0  0  0  0  0  0
   51.0260   32.7050   49.9830 O   0  0  0  0  0  0  0  0  0  0  0  0
   52.5490   31.1920   51.0880 C   0  0  0  0  0  0  0  0  0  0  0  0
   56.1016   31.8809   51.2208 H   0  0  0  0  0  0  0  0  0  0  0  0
   55.3160   32.0004   52.8571 H   0  0  0  0  0  0  0  0  0  0  0  0
   57.2709   31.8156   53.9615 H   0  0  0  0  0  0  0  0  0  0  0  0
   57.8989   30.5609   52.7868 H   0  0  0  0  0  0  0  0  0  0  0  0
   57.8690   33.5662   52.2993 H   0  0  0  0  0  0  0  0  0  0  0  0
   59.2986   32.5778   52.8294 H   0  0  0  0  0  0  0  0  0  0  0  0
   56.8913   31.8868   46.8786 H   0  0  0  0  0  0  0  0  0  0  0  0
   56.5615   32.9685   44.6551 H   0  0  0  0  0  0  0  0  0  0  0  0
   58.1167   34.7673   43.8933 H   0  0  0  0  0  0  0  0  0  0  0  0
   60.0114   35.4810   45.3550 H   0  0  0  0  0  0  0  0  0  0  0  0
   60.3439   34.4121   47.5828 H   0  0  0  0  0  0  0  0  0  0  0  0
   61.1254   31.5856   46.9502 H   0  0  0  0  0  0  0  0  0  0  0  0
   61.7403   29.8813   45.2305 H   0  0  0  0  0  0  0  0  0  0  0  0
   60.6638   27.6283   45.2616 H   0  0  0  0  0  0  0  0  0  0  0  0
   58.9725   27.0751   47.0139 H   0  0  0  0  0  0  0  0  0  0  0  0
   58.3572   28.7700   48.7376 H   0  0  0  0  0  0  0  0  0  0  0  0
   61.7523   30.5394   49.1251 H   0  0  0  0  0  0  0  0  0  0  0  0
   63.8187   31.8801   48.7273 H   0  0  0  0  0  0  0  0  0  0  0  0
   65.3078   32.4837   50.6384 H   0  0  0  0  0  0  0  0  0  0  0  0
   64.7318   31.7418   52.9522 H   0  0  0  0  0  0  0  0  0  0  0  0
   62.6757   30.3887   53.3574 H   0  0  0  0  0  0  0  0  0  0  0  0
   52.8324   30.4655   54.4189 H   0  0  0  0  0  0  0  0  0  0  0  0
   50.9097   32.0552   54.5154 H   0  0  0  0  0  0  0  0  0  0  0  0
   50.0545   33.1140   52.4211 H   0  0  0  0  0  0  0  0  0  0  0  0
   53.0182   30.9615   50.1202 H   0  0  0  0  0  0  0  0  0  0  0  0
  1  2  2  0
  2  3  1  0
  3  4  1  0
  4  5  1  0
  5  6  1  0
  6  7  2  0
  7  8  1  0
  8  9  1  0
  9 10  2  0
 10 11  1  0
 11 12  2  0
 12 13  1  0
 13 14  2  0
  8 15  1  0
 15 16  1  0
 16 17  2  0
 17 18  1  0
 18 19  2  0
 19 20  1  0
 20 21  2  0
 15 22  2  0
 22 23  1  0
 23 24  2  0
 23 25  1  0
 25 26  1  0
 26 27  2  0
 27 28  1  0
 28 29  2  0
 29 30  1  0
 30 31  2  0
  2 32  1  0
 32 33  1  0
 33 34  2  0
 34 35  1  0
 35 36  2  0
 36 37  1  0
 37 38  1  0
 37 39  2  0
 22  6  1  0
 31 26  1  0
 39 33  1  0
 14  9  1  0
 21 16  1  0
  3 40  1  0
  3 41  1  0
  4 42  1  0
  4 43  1  0
  5 44  1  0
  5 45  1  0
 10 46  1  0
 11 47  1  0
 12 48  1  0
 13 49  1  0
 14 50  1  0
 17 51  1  0
 18 52  1  0
 19 53  1  0
 20 54  1  0
 21 55  1  0
 27 56  1  0
 28 57  1  0
 29 58  1  0
 30 59  1  0
 31 60  1  0
 34 61  1  0
 35 62  1  0
 36 63  1  0
 39 64  1  0
M  CHG  3  25  -1  32  -1  38  -1
M  END
>  <UniqueID>  (94) 
85

>  <SMILES>  (94) 
O=C(CCCc1nn(-c2ccccc2)c(-c2ccccc2)c1C(=O)[N-]c1ccccc1)[N-]c1cccc([O-])c1

>  <Energy>  (94) 
119.69267670810092

>  <Genealogy>  (94) 
O=C(CCCc1nn(-c2ccccc2)c(-c2ccccc2)c1C(=O)[N-]c1ccccc1)[N-]c1cccc([O-])c1 (protonated)
O=C(CCCc1nn(-c2ccccc2)c(-c2ccccc2)c1C(=O)[N-]c1ccccc1)[N-]c1cccc([O-])c1 (3D coordinates assigned)
O=C(CCCc1nn(-c2ccccc2)c(-c2ccccc2)c1C(=O)[N-]c1ccccc1)[N-]c1cccc([O-])c1 (optimized conformer: 119.69267670810092 kcal/mol)

>  <smiles>  (94) 
O=C(CCCc1nn(-c2ccccc2)c(-c2ccccc2)c1C(=O)Nc1ccccc1)Nc1cccc(O)c1

>  <score_type>  (94) 
oracle

>  <origin>  (94) 
adg

>  <m_score__min__energy>  (94) 
-17.059999999999999

>  <m_primary>  (94) 
energy

$$$$
94:0
     RDKit          3D

 36 37  0  0  0  0  0  0  0  0999 V2000
   59.6770   35.2920   46.4770 C   0  0  0  0  0  0  0  0  0  0  0  0
   59.3000   34.7760   45.2050 O   0  0  0  0  0  0  0  0  0  0  0  0
   58.6630   33.5430   45.0090 C   0  0  0  0  0  0  0  0  0  0  0  0
   58.4470   32.7220   46.1230 C   0  0  0  0  0  0  0  0  0  0  0  0
   57.8170   31.4820   45.9800 C   0  0  0  0  0  0  0  0  0  0  0  0
   57.3970   31.0470   44.7180 C   0  0  0  0  0  0  0  0  0  0  0  0
   56.6140   29.4800   44.5290 S   0  0  0  0  0  0  0  0  0  0  0  0
   55.1440   29.5850   44.8300 O   0  0  0  0  0  0  0  0  0  0  0  0
   56.7920   29.0140   43.1130 O   0  0  0  0  0  0  0  0  0  0  0  0
   57.3290   28.3230   45.6040 N   0  0  0  0  0  0  0  0  0  0  0  0
   57.0820   26.9120   45.5750 C   0  0  0  0  0  0  0  0  0  0  0  0
   57.8160   26.0300   44.7690 C   0  0  0  0  0  0  0  0  0  0  0  0
   57.5290   24.7020   44.7810 N   0  0  0  0  0  0  0  0  0  0  0  0
   56.5370   24.1990   45.5650 C   0  0  0  0  0  0  0  0  0  0  0  0
   56.2510   22.7870   45.5610 N   0  0  0  0  0  0  0  0  0  0  0  0
   55.1810   22.2610   46.4150 C   0  0  0  0  0  0  0  0  0  0  0  0
   57.0290   21.8880   44.7040 C   0  0  0  0  0  0  0  0  0  0  0  0
   55.8180   25.0440   46.3560 N   0  0  0  0  0  0  0  0  0  0  0  0
   56.0710   26.3770   46.3750 C   0  0  0  0  0  0  0  0  0  0  0  0
   57.6040   31.8640   43.5990 C   0  0  0  0  0  0  0  0  0  0  0  0
   58.2340   33.1050   43.7410 C   0  0  0  0  0  0  0  0  0  0  0  0
   59.2274   34.6766   47.2702 H   0  0  0  0  0  0  0  0  0  0  0  0
   60.7727   35.2692   46.5719 H   0  0  0  0  0  0  0  0  0  0  0  0
   59.3223   36.3289   46.5719 H   0  0  0  0  0  0  0  0  0  0  0  0
   58.7756   33.0554   47.1184 H   0  0  0  0  0  0  0  0  0  0  0  0
   57.6510   30.8464   46.8623 H   0  0  0  0  0  0  0  0  0  0  0  0
   58.6234   26.4129   44.1276 H   0  0  0  0  0  0  0  0  0  0  0  0
   55.4554   22.3959   47.4716 H   0  0  0  0  0  0  0  0  0  0  0  0
   54.2463   22.8023   46.2069 H   0  0  0  0  0  0  0  0  0  0  0  0
   55.0387   21.1903   46.2069 H   0  0  0  0  0  0  0  0  0  0  0  0
   57.6205   21.2045   45.3309 H   0  0  0  0  0  0  0  0  0  0  0  0
   56.3461   21.3046   44.0689 H   0  0  0  0  0  0  0  0  0  0  0  0
   57.7044   22.4801   44.0689 H   0  0  0  0  0  0  0  0  0  0  0  0
   55.4773   27.0383   47.0232 H   0  0  0  0  0  0  0  0  0  0  0  0
   57.2702   31.5288   42.6059 H   0  0  0  0  0  0  0  0  0  0  0  0
   58.3950   33.7415   42.8584 H   0  0  0  0  0  0  0  0  0  0  0  0
  1  2  1  0
  2  3  1  0
  3  4  2  0
  4  5  1  0
  5  6  2  0
  6  7  1  0
  7  8  2  0
  7  9  2  0
  7 10  1  0
 10 11  1  0
 11 12  2  0
 12 13  1  0
 13 14  2  0
 14 15  1  0
 15 16  1  0
 15 17  1  0
 14 18  1  0
 18 19  2  0
  6 20  1  0
 20 21  2  0
 21  3  1  0
 19 11  1  0
  1 22  1  0
  1 23  1  0
  1 24  1  0
  4 25  1  0
  5 26  1  0
 12 27  1  0
 16 28  1  0
 16 29  1  0
 16 30  1  0
 17 31  1  0
 17 32  1  0
 17 33  1  0
 19 34  1  0
 20 35  1  0
 21 36  1  0
M  CHG  1  10  -1
M  END
>  <UniqueID>  (95) 
86

>  <SMILES>  (95) 
COc1ccc(S(=O)(=O)[N-]c2cnc(N(C)C)nc2)cc1

>  <Energy>  (95) 
36.72517002789987

>  <Genealogy>  (95) 
COc1ccc(S(=O)(=O)[N-]c2cnc(N(C)C)nc2)cc1 (protonated)
COc1ccc(S(=O)(=O)[N-]c2cnc(N(C)C)nc2)cc1 (3D coordinates assigned)
COc1ccc(S(=O)(=O)[N-]c2cnc(N(C)C)nc2)cc1 (optimized conformer: 36.72517002789987 kcal/mol)

>  <smiles>  (95) 
COc1ccc(S(=O)(=O)Nc2cnc(N(C)C)nc2)cc1

>  <score_type>  (95) 
oracle

>  <origin>  (95) 
adg

>  <m_score__min__energy>  (95) 
-7.96

>  <m_primary>  (95) 
energy

$$$$
95:0
     RDKit          3D

 51 53  0  0  0  0  0  0  0  0999 V2000
   63.0320   32.4280   47.4860 C   0  0  0  0  0  0  0  0  0  0  0  0
   62.1710   31.7810   48.5650 C   0  0  0  0  0  0  0  0  0  0  0  0
   60.8390   31.4540   48.0440 N   0  0  0  0  0  0  0  0  0  0  0  0
   60.5070   30.1070   47.6620 C   0  0  0  0  0  0  0  0  0  0  0  0
   60.7640   29.6610   46.3540 C   0  0  0  0  0  0  0  0  0  0  0  0
   60.4430   28.3530   45.9790 C   0  0  0  0  0  0  0  0  0  0  0  0
   59.8640   27.4820   46.9050 C   0  0  0  0  0  0  0  0  0  0  0  0
   59.6100   27.9160   48.2080 C   0  0  0  0  0  0  0  0  0  0  0  0
   59.9360   29.2210   48.5890 C   0  0  0  0  0  0  0  0  0  0  0  0
   59.6530   32.7170   47.8720 S   0  0  0  0  0  0  0  0  0  0  0  0
   60.3270   34.0610   47.8700 O   0  0  0  0  0  0  0  0  0  0  0  0
   58.6970   32.6420   49.0290 O   0  0  0  0  0  0  0  0  0  0  0  0
   58.7790   32.5410   46.3530 C   0  0  0  0  0  0  0  0  0  0  0  0
   58.7290   33.6060   45.4440 C   0  0  0  0  0  0  0  0  0  0  0  0
   58.0470   33.4640   44.2330 C   0  0  0  0  0  0  0  0  0  0  0  0
   57.4080   32.2620   43.9250 C   0  0  0  0  0  0  0  0  0  0  0  0
   57.4550   31.1860   44.8250 C   0  0  0  0  0  0  0  0  0  0  0  0
   56.6190   29.6820   44.4450 S   0  0  0  0  0  0  0  0  0  0  0  0
   56.7350   29.3720   42.9790 O   0  0  0  0  0  0  0  0  0  0  0  0
   55.1610   29.8340   44.7830 O   0  0  0  0  0  0  0  0  0  0  0  0
   57.2440   28.3740   45.4030 N   0  0  0  0  0  0  0  0  0  0  0  0
   56.9730   26.9740   45.2400 C   0  0  0  0  0  0  0  0  0  0  0  0
   57.7190   26.2610   44.2960 C   0  0  0  0  0  0  0  0  0  0  0  0
   57.5130   24.8910   44.1140 C   0  0  0  0  0  0  0  0  0  0  0  0
   56.5490   24.2150   44.8730 C   0  0  0  0  0  0  0  0  0  0  0  0
   56.3240   22.4840   44.6420 S   0  0  0  0  0  0  0  0  0  0  0  0
   54.8600   21.9490   45.3900 N   0  0  0  0  0  0  0  0  0  0  0  0
   56.2560   22.1830   43.1720 O   0  0  0  0  0  0  0  0  0  0  0  0
   57.4830   21.7460   45.2510 O   0  0  0  0  0  0  0  0  0  0  0  0
   55.7830   24.9280   45.8070 C   0  0  0  0  0  0  0  0  0  0  0  0
   55.9890   26.3000   45.9870 C   0  0  0  0  0  0  0  0  0  0  0  0
   58.1540   31.3270   46.0310 C   0  0  0  0  0  0  0  0  0  0  0  0
   63.8259   33.0246   47.9591 H   0  0  0  0  0  0  0  0  0  0  0  0
   63.4852   31.6451   46.8602 H   0  0  0  0  0  0  0  0  0  0  0  0
   62.4061   33.0812   46.8602 H   0  0  0  0  0  0  0  0  0  0  0  0
   62.6595   30.8579   48.9104 H   0  0  0  0  0  0  0  0  0  0  0  0
   62.0587   32.4904   49.3981 H   0  0  0  0  0  0  0  0  0  0  0  0
   61.2197   30.3442   45.6222 H   0  0  0  0  0  0  0  0  0  0  0  0
   60.6465   28.0095   44.9540 H   0  0  0  0  0  0  0  0  0  0  0  0
   59.6081   26.4543   46.6079 H   0  0  0  0  0  0  0  0  0  0  0  0
   59.1526   27.2297   48.9358 H   0  0  0  0  0  0  0  0  0  0  0  0
   59.7443   29.5549   49.6194 H   0  0  0  0  0  0  0  0  0  0  0  0
   59.2280   34.5564   45.6844 H   0  0  0  0  0  0  0  0  0  0  0  0
   58.0136   34.3015   43.5206 H   0  0  0  0  0  0  0  0  0  0  0  0
   56.8657   32.1576   42.9737 H   0  0  0  0  0  0  0  0  0  0  0  0
   58.4748   26.7835   43.6913 H   0  0  0  0  0  0  0  0  0  0  0  0
   58.1102   24.3411   43.3717 H   0  0  0  0  0  0  0  0  0  0  0  0
   54.5640   21.0790   44.8930 H   0  0  0  0  0  0  0  0  0  0  0  0
   55.0174   24.4064   46.4002 H   0  0  0  0  0  0  0  0  0  0  0  0
   55.3792   26.8544   46.7156 H   0  0  0  0  0  0  0  0  0  0  0  0
   58.2132   30.4799   46.7303 H   0  0  0  0  0  0  0  0  0  0  0  0
  1  2  1  0
  2  3  1  0
  3  4  1  0
  4  5  2  0
  5  6  1  0
  6  7  2  0
  7  8  1  0
  8  9  2  0
  3 10  1  0
 10 11  2  0
 10 12  2  0
 10 13  1  0
 13 14  2  0
 14 15  1  0
 15 16  2  0
 16 17  1  0
 17 18  1  0
 18 19  2  0
 18 20  2  0
 18 21  1  0
 21 22  1  0
 22 23  2  0
 23 24  1  0
 24 25  2  0
 25 26  1  0
 26 27  1  0
 26 28  2  0
 26 29  2  0
 25 30  1  0
 30 31  2  0
 17 32  2  0
  9  4  1  0
 32 13  1  0
 31 22  1  0
  1 33  1  0
  1 34  1  0
  1 35  1  0
  2 36  1  0
  2 37  1  0
  5 38  1  0
  6 39  1  0
  7 40  1  0
  8 41  1  0
  9 42  1  0
 14 43  1  0
 15 44  1  0
 16 45  1  0
 23 46  1  0
 24 47  1  0
 27 48  1  0
 30 49  1  0
 31 50  1  0
 32 51  1  0
M  CHG  2  21  -1  27  -1
M  END
>  <UniqueID>  (96) 
87

>  <SMILES>  (96) 
CCN(c1ccccc1)S(=O)(=O)c1cccc(S(=O)(=O)[N-]c2ccc(S([NH-])(=O)=O)cc2)c1

>  <Energy>  (96) 
56.28477194731487

>  <Genealogy>  (96) 
CCN(c1ccccc1)S(=O)(=O)c1cccc(S(=O)(=O)[N-]c2ccc(S([NH-])(=O)=O)cc2)c1 (protonated)
CCN(c1ccccc1)S(=O)(=O)c1cccc(S(=O)(=O)[N-]c2ccc(S([NH-])(=O)=O)cc2)c1 (3D coordinates assigned)
CCN(c1ccccc1)S(=O)(=O)c1cccc(S(=O)(=O)[N-]c2ccc(S([NH-])(=O)=O)cc2)c1 (optimized conformer: 56.28477194731487 kcal/mol)

>  <smiles>  (96) 
CCN(c1ccccc1)S(=O)(=O)c1cccc(S(=O)(=O)Nc2ccc(S(N)(=O)=O)cc2)c1

>  <score_type>  (96) 
oracle

>  <origin>  (96) 
adg

>  <m_score__min__energy>  (96) 
-13.470000000000001

>  <m_primary>  (96) 
energy

$$$$
