0:0
     RDKit          3D

 59 62  0  0  0  0  0  0  0  0999 V2000
   59.1486   24.6204   46.9102 H   0  0  0  0  0  0  0  0  0  0  0  0
   58.2130   24.8140   46.3650 C   0  0  0  0  0  0  0  0  0  0  0  0
   58.0660   24.3948   45.3587 H   0  0  0  0  0  0  0  0  0  0  0  0
   57.2570   25.5570   46.9240 C   0  0  0  0  0  0  0  0  0  0  0  0
   57.4303   25.9638   47.9312 H   0  0  0  0  0  0  0  0  0  0  0  0
   55.9760   25.8590   46.2530 C   0  0  0  0  0  0  0  0  0  0  0  0
   55.1000   24.9550   46.1980 O   0  0  0  0  0  0  0  0  0  0  0  0
   55.7040   27.1220   45.6270 N   0  0  0  0  0  0  0  0  0  0  0  0
   56.6720   28.1190   45.2660 C   0  0  0  0  0  0  0  0  0  0  0  0
   57.9550   27.7080   44.8870 C   0  0  0  0  0  0  0  0  0  0  0  0
   58.2121   26.6385   44.8945 H   0  0  0  0  0  0  0  0  0  0  0  0
   58.9110   28.6510   44.4990 C   0  0  0  0  0  0  0  0  0  0  0  0
   59.9168   28.3206   44.2004 H   0  0  0  0  0  0  0  0  0  0  0  0
   58.5940   30.0110   44.4890 C   0  0  0  0  0  0  0  0  0  0  0  0
   59.3495   30.7474   44.1775 H   0  0  0  0  0  0  0  0  0  0  0  0
   57.3180   30.4410   44.8740 C   0  0  0  0  0  0  0  0  0  0  0  0
   57.0110   31.8430   44.8250 N   0  0  0  0  0  0  0  0  0  0  0  0
   57.8130   32.8170   45.1430 C   0  0  0  0  0  0  0  0  0  0  0  0
   57.9770   33.1410   46.4530 N   0  0  0  0  0  0  0  0  0  0  0  0
   58.7940   34.1580   46.8370 C   0  0  0  0  0  0  0  0  0  0  0  0
   58.9240   34.4420   48.2040 O   0  0  0  0  0  0  0  0  0  0  0  0
   59.2620   33.5110   49.1970 C   0  0  0  0  0  0  0  0  0  0  0  0
   60.3630   33.7730   50.0190 C   0  0  0  0  0  0  0  0  0  0  0  0
   60.9370   34.7017   49.8845 H   0  0  0  0  0  0  0  0  0  0  0  0
   60.7380   32.8620   51.0100 C   0  0  0  0  0  0  0  0  0  0  0  0
   61.6156   33.0710   51.6394 H   0  0  0  0  0  0  0  0  0  0  0  0
   60.0060   31.6860   51.2080 C   0  0  0  0  0  0  0  0  0  0  0  0
   60.4890   30.7250   52.1580 N   0  0  0  0  0  0  0  0  0  0  0  0
   61.0290   29.4360   51.8540 C   0  0  0  0  0  0  0  0  0  0  0  0
   62.1570   29.1050   52.3060 O   0  0  0  0  0  0  0  0  0  0  0  0
   60.3390   28.5090   50.9370 C   0  0  0  0  0  0  0  0  0  0  0  0
   59.4251   28.0287   51.3165 H   0  0  0  0  0  0  0  0  0  0  0  0
   60.7120   28.1910   49.6860 C   0  0  0  0  0  0  0  0  0  0  0  0
   61.3653   27.3138   49.5688 H   0  0  0  0  0  0  0  0  0  0  0  0
   60.2520   29.0490   48.2110 S   0  0  0  0  0  0  0  0  0  0  0  0
   60.4250   28.1250   47.0390 O   0  0  0  0  0  0  0  0  0  0  0  0
   58.8020   29.4270   48.3150 O   0  0  0  0  0  0  0  0  0  0  0  0
   61.1850   30.5280   47.9780 C   0  0  0  0  0  0  0  0  0  0  0  0
   62.2430   30.8350   48.8460 C   0  0  0  0  0  0  0  0  0  0  0  0
   62.5046   30.1415   49.6588 H   0  0  0  0  0  0  0  0  0  0  0  0
   62.9660   32.0200   48.6810 C   0  0  0  0  0  0  0  0  0  0  0  0
   63.7883   32.2625   49.3702 H   0  0  0  0  0  0  0  0  0  0  0  0
   62.6450   32.8970   47.6410 C   0  0  0  0  0  0  0  0  0  0  0  0
   63.2134   33.8301   47.5131 H   0  0  0  0  0  0  0  0  0  0  0  0
   61.6010   32.5880   46.7630 C   0  0  0  0  0  0  0  0  0  0  0  0
   61.3506   33.2769   45.9428 H   0  0  0  0  0  0  0  0  0  0  0  0
   60.8760   31.4050   46.9270 C   0  0  0  0  0  0  0  0  0  0  0  0
   60.0607   31.1604   46.2303 H   0  0  0  0  0  0  0  0  0  0  0  0
   58.8880   31.4280   50.3940 C   0  0  0  0  0  0  0  0  0  0  0  0
   58.3097   30.5028   50.5342 H   0  0  0  0  0  0  0  0  0  0  0  0
   58.5100   32.3420   49.4090 C   0  0  0  0  0  0  0  0  0  0  0  0
   57.6185   32.1466   48.7950 H   0  0  0  0  0  0  0  0  0  0  0  0
   59.4460   34.9200   45.8560 C   0  0  0  0  0  0  0  0  0  0  0  0
   60.0866   35.7684   46.1385 H   0  0  0  0  0  0  0  0  0  0  0  0
   59.2660   34.5810   44.5180 C   0  0  0  0  0  0  0  0  0  0  0  0
   59.7791   35.1530   43.7309 H   0  0  0  0  0  0  0  0  0  0  0  0
   58.4560   33.5430   44.1860 N   0  0  0  0  0  0  0  0  0  0  0  0
   56.3450   29.4860   45.2240 C   0  0  0  0  0  0  0  0  0  0  0  0
   55.3224   29.8111   45.4662 H   0  0  0  0  0  0  0  0  0  0  0  0
  1  2  1  0
  2  3  1  0
  2  4  2  0
  4  5  1  0
  4  6  1  0
  6  7  2  0
  6  8  1  0
  8  9  1  0
  9 10  2  0
 10 11  1  0
 10 12  1  0
 12 13  1  0
 12 14  2  0
 14 15  1  0
 14 16  1  0
 16 17  1  0
 17 18  2  0
 18 19  1  0
 19 20  2  0
 20 21  1  0
 21 22  1  0
 22 23  2  0
 23 24  1  0
 23 25  1  0
 25 26  1  0
 25 27  2  0
 27 28  1  0
 28 29  1  0
 29 30  2  0
 29 31  1  0
 31 32  1  0
 31 33  2  3
 33 34  1  0
 33 35  1  0
 35 36  2  0
 35 37  2  0
 35 38  1  0
 38 39  2  0
 39 40  1  0
 39 41  1  0
 41 42  1  0
 41 43  2  0
 43 44  1  0
 43 45  1  0
 45 46  1  0
 45 47  2  0
 47 48  1  0
 27 49  1  0
 49 50  1  0
 49 51  2  0
 51 52  1  0
 20 53  1  0
 53 54  1  0
 53 55  2  0
 55 56  1  0
 55 57  1  0
 16 58  2  0
 58 59  1  0
 58  9  1  0
 57 18  1  0
 51 22  1  0
 47 38  1  0
M  CHG  3   8  -1  28  -1  57  -1
M  END
>  <UniqueID>  (1) 
1

>  <SMILES>  (1) 
C=CC(=O)[N-]c1cccc(/N=c2/nc(Oc3ccc([N-]C(=O)C=CS(=O)(=O)c4ccccc4)cc3)cc[n-]2)c1

>  <Energy>  (1) 
86.1290333852252

>  <Genealogy>  (1) 
C=CC(=O)[N-]c1cccc(N=c2nc(Oc3ccc([N-]C(=O)C=CS(=O)(=O)c4ccccc4)cc3)cc[n-]2)c1 (protonated)
C=CC(=O)[N-]c1cccc(/N=c2/nc(Oc3ccc([N-]C(=O)C=CS(=O)(=O)c4ccccc4)cc3)cc[n-]2)c1 (cis-trans isomerization)
C=CC(=O)[N-]c1cccc(/N=c2/nc(Oc3ccc([N-]C(=O)C=CS(=O)(=O)c4ccccc4)cc3)cc[n-]2)c1 (3D coordinates assigned)
C=CC(=O)[N-]c1cccc(/N=c2/nc(Oc3ccc([N-]C(=O)C=CS(=O)(=O)c4ccccc4)cc3)cc[n-]2)c1 (optimized conformer: 86.1290333852252 kcal/mol)

>  <smiles>  (1) 
C=CC(=O)Nc1cccc(N=c2nc(Oc3ccc(NC(=O)C=CS(=O)(=O)c4ccccc4)cc3)cc[nH]2)c1

>  <score_type>  (1) 
oracle

>  <origin>  (1) 
adg

>  <m_score__min__energy>  (1) 
-16.32

>  <m_primary>  (1) 
energy

$$$$
1:0
     RDKit          3D

 60 63  0  0  0  0  0  0  0  0999 V2000
   60.6144   30.2441   50.8699 H   0  0  0  0  0  0  0  0  0  0  0  0
   60.0770   30.7560   50.0580 C   0  0  0  0  0  0  0  0  0  0  0  0
   59.5250   31.9550   50.3240 C   0  0  0  0  0  0  0  0  0  0  0  0
   58.0970   32.0040   50.7870 C   0  0  0  0  0  0  0  0  0  0  0  0
   58.0679   32.0050   51.8866 H   0  0  0  0  0  0  0  0  0  0  0  0
   57.6194   32.9191   50.4067 H   0  0  0  0  0  0  0  0  0  0  0  0
   57.5578   31.1238   50.4067 H   0  0  0  0  0  0  0  0  0  0  0  0
   60.4330   33.4780   50.1990 S   0  0  0  0  0  0  0  0  0  0  0  0
   60.9450   33.8550   51.5650 O   0  0  0  0  0  0  0  0  0  0  0  0
   59.5340   34.5870   49.7190 O   0  0  0  0  0  0  0  0  0  0  0  0
   61.7720   33.3020   49.0680 C   0  0  0  0  0  0  0  0  0  0  0  0
   63.0190   32.8320   49.5120 C   0  0  0  0  0  0  0  0  0  0  0  0
   63.1702   32.6016   50.5769 H   0  0  0  0  0  0  0  0  0  0  0  0
   64.0680   32.6560   48.6060 C   0  0  0  0  0  0  0  0  0  0  0  0
   65.0412   32.2809   48.9557 H   0  0  0  0  0  0  0  0  0  0  0  0
   63.8780   32.9580   47.2520 C   0  0  0  0  0  0  0  0  0  0  0  0
   64.7034   32.8182   46.5384 H   0  0  0  0  0  0  0  0  0  0  0  0
   62.6420   33.4370   46.8030 C   0  0  0  0  0  0  0  0  0  0  0  0
   62.4984   33.6808   45.7400 H   0  0  0  0  0  0  0  0  0  0  0  0
   61.5900   33.6050   47.7090 C   0  0  0  0  0  0  0  0  0  0  0  0
   60.6165   33.9758   47.3558 H   0  0  0  0  0  0  0  0  0  0  0  0
   60.0060   30.0870   48.7470 C   0  0  0  0  0  0  0  0  0  0  0  0
   60.9740   30.3570   47.7740 C   0  0  0  0  0  0  0  0  0  0  0  0
   61.8204   31.0189   48.0097 H   0  0  0  0  0  0  0  0  0  0  0  0
   60.8670   29.7880   46.5060 C   0  0  0  0  0  0  0  0  0  0  0  0
   61.6270   30.0067   45.7415 H   0  0  0  0  0  0  0  0  0  0  0  0
   59.7970   28.9400   46.2020 C   0  0  0  0  0  0  0  0  0  0  0  0
   59.6910   28.5329   45.1856 H   0  0  0  0  0  0  0  0  0  0  0  0
   58.8630   28.6090   47.1860 C   0  0  0  0  0  0  0  0  0  0  0  0
   57.7200   27.8150   46.8420 N   0  0  0  0  0  0  0  0  0  0  0  0
   57.6230   26.8460   45.9810 C   0  0  0  0  0  0  0  0  0  0  0  0
   57.3030   25.6130   46.4620 N   0  0  0  0  0  0  0  0  0  0  0  0
   57.1860   24.5200   45.6640 C   0  0  0  0  0  0  0  0  0  0  0  0
   56.9275   23.5451   46.1031 H   0  0  0  0  0  0  0  0  0  0  0  0
   57.3930   24.6310   44.2880 C   0  0  0  0  0  0  0  0  0  0  0  0
   57.3108   23.7465   43.6392 H   0  0  0  0  0  0  0  0  0  0  0  0
   57.7050   25.8760   43.7470 C   0  0  0  0  0  0  0  0  0  0  0  0
   57.8646   25.9746   42.6631 H   0  0  0  0  0  0  0  0  0  0  0  0
   57.8180   27.0100   44.5750 C   0  0  0  0  0  0  0  0  0  0  0  0
   57.9710   28.3190   44.0040 N   0  0  0  0  0  0  0  0  0  0  0  0
   56.7800   29.5790   43.9390 S   0  0  0  0  0  0  0  0  0  0  0  0
   55.6900   29.2290   44.9150 O   0  0  0  0  0  0  0  0  0  0  0  0
   56.1650   29.6840   42.5730 O   0  0  0  0  0  0  0  0  0  0  0  0
   57.5080   31.1150   44.4070 C   0  0  0  0  0  0  0  0  0  0  0  0
   57.7700   31.3880   45.7560 C   0  0  0  0  0  0  0  0  0  0  0  0
   57.5282   30.6374   46.5229 H   0  0  0  0  0  0  0  0  0  0  0  0
   58.3370   32.6090   46.1330 C   0  0  0  0  0  0  0  0  0  0  0  0
   58.5423   32.8139   47.1941 H   0  0  0  0  0  0  0  0  0  0  0  0
   58.6460   33.5770   45.1590 C   0  0  0  0  0  0  0  0  0  0  0  0
   59.2000   34.8250   45.4840 O   0  0  0  0  0  0  0  0  0  0  0  0
   59.2790   35.3480   46.8050 C   0  0  0  0  0  0  0  0  0  0  0  0
   59.1556   34.5308   47.5309 H   0  0  0  0  0  0  0  0  0  0  0  0
   60.2593   35.8246   46.9526 H   0  0  0  0  0  0  0  0  0  0  0  0
   58.4832   36.0929   46.9526 H   0  0  0  0  0  0  0  0  0  0  0  0
   58.3940   33.2940   43.8110 C   0  0  0  0  0  0  0  0  0  0  0  0
   58.6447   34.0389   43.0414 H   0  0  0  0  0  0  0  0  0  0  0  0
   57.8270   32.0740   43.4350 C   0  0  0  0  0  0  0  0  0  0  0  0
   57.6301   31.8650   42.3731 H   0  0  0  0  0  0  0  0  0  0  0  0
   58.9730   29.1810   48.4620 C   0  0  0  0  0  0  0  0  0  0  0  0
   58.2453   28.9178   49.2438 H   0  0  0  0  0  0  0  0  0  0  0  0
  1  2  1  0
  2  3  2  3
  3  4  1  0
  4  5  1  0
  4  6  1  0
  4  7  1  0
  3  8  1  0
  8  9  2  0
  8 10  2  0
  8 11  1  0
 11 12  2  0
 12 13  1  0
 12 14  1  0
 14 15  1  0
 14 16  2  0
 16 17  1  0
 16 18  1  0
 18 19  1  0
 18 20  2  0
 20 21  1  0
  2 22  1  0
 22 23  2  0
 23 24  1  0
 23 25  1  0
 25 26  1  0
 25 27  2  0
 27 28  1  0
 27 29  1  0
 29 30  1  0
 30 31  2  0
 31 32  1  0
 32 33  1  0
 33 34  1  0
 33 35  2  0
 35 36  1  0
 35 37  1  0
 37 38  1  0
 37 39  2  0
 39 40  1  0
 40 41  1  0
 41 42  2  0
 41 43  2  0
 41 44  1  0
 44 45  2  0
 45 46  1  0
 45 47  1  0
 47 48  1  0
 47 49  2  0
 49 50  1  0
 50 51  1  0
 51 52  1  0
 51 53  1  0
 51 54  1  0
 49 55  1  0
 55 56  1  0
 55 57  2  0
 57 58  1  0
 29 59  2  0
 59 60  1  0
 20 11  1  0
 59 22  1  0
 39 31  1  0
 57 44  1  0
M  CHG  2  32  -1  40  -1
M  END
>  <UniqueID>  (2) 
2

>  <SMILES>  (2) 
COc1ccc(S(=O)(=O)[N-]c2ccc[n-]/c2=N/c2cccc(C=C(C)S(=O)(=O)c3ccccc3)c2)cc1

>  <Energy>  (2) 
81.42455979194305

>  <Genealogy>  (2) 
COc1ccc(S(=O)(=O)[N-]c2ccc[n-]c2=Nc2cccc(C=C(C)S(=O)(=O)c3ccccc3)c2)cc1 (protonated)
COc1ccc(S(=O)(=O)[N-]c2ccc[n-]/c2=N/c2cccc(C=C(C)S(=O)(=O)c3ccccc3)c2)cc1 (cis-trans isomerization)
COc1ccc(S(=O)(=O)[N-]c2ccc[n-]/c2=N/c2cccc(C=C(C)S(=O)(=O)c3ccccc3)c2)cc1 (3D coordinates assigned)
COc1ccc(S(=O)(=O)[N-]c2ccc[n-]/c2=N/c2cccc(C=C(C)S(=O)(=O)c3ccccc3)c2)cc1 (optimized conformer: 81.42455979194305 kcal/mol)

>  <smiles>  (2) 
COc1ccc(S(=O)(=O)Nc2ccc[nH]c2=Nc2cccc(C=C(C)S(=O)(=O)c3ccccc3)c2)cc1

>  <score_type>  (2) 
oracle

>  <origin>  (2) 
adg

>  <m_score__min__energy>  (2) 
-13.82

>  <m_primary>  (2) 
energy

$$$$
2:0
     RDKit          3D

 50 53  0  0  0  0  0  0  0  0999 V2000
   58.2780   30.6870   45.4180 C   0  0  0  0  0  0  0  0  0  0  0  0
   58.1370   29.3810   46.1530 C   0  0  0  0  0  0  0  0  0  0  0  0
   57.2380   28.4130   45.6700 C   0  0  0  0  0  0  0  0  0  0  0  0
   57.0810   27.1820   46.3290 C   0  0  0  0  0  0  0  0  0  0  0  0
   56.1360   26.1700   45.8070 C   0  0  0  0  0  0  0  0  0  0  0  0
   56.5610   25.1400   45.2170 O   0  0  0  0  0  0  0  0  0  0  0  0
   54.7660   26.3390   45.9610 O   0  0  0  0  0  0  0  0  0  0  0  0
   57.8290   26.9300   47.4900 C   0  0  0  0  0  0  0  0  0  0  0  0
   58.7140   27.8900   47.9830 C   0  0  0  0  0  0  0  0  0  0  0  0
   58.8850   29.1180   47.3220 C   0  0  0  0  0  0  0  0  0  0  0  0
   59.7780   30.1090   47.8650 N   0  0  0  0  0  0  0  0  0  0  0  0
   61.0410   30.4350   47.2630 C   0  0  0  0  0  0  0  0  0  0  0  0
   61.2350   30.1780   46.0430 O   0  0  0  0  0  0  0  0  0  0  0  0
   62.1130   31.0960   48.0480 C   0  0  0  0  0  0  0  0  0  0  0  0
   62.9260   32.0920   47.4730 C   0  0  0  0  0  0  0  0  0  0  0  0
   63.8940   32.7470   48.2400 C   0  0  0  0  0  0  0  0  0  0  0  0
   64.0520   32.4300   49.5930 C   0  0  0  0  0  0  0  0  0  0  0  0
   65.1950   33.3620   50.6190 S   0  0  0  0  0  0  0  0  0  0  0  0
   63.9760   34.6180   51.1580 C   0  0  0  0  0  0  0  0  0  0  0  0
   62.5890   34.2470   50.7450 C   0  0  0  0  0  0  0  0  0  0  0  0
   61.7220   33.5550   51.5070 N   0  0  0  0  0  0  0  0  0  0  0  0
   60.6440   33.3650   50.7610 N   0  0  0  0  0  0  0  0  0  0  0  0
   60.9000   33.9430   49.5700 C   0  0  0  0  0  0  0  0  0  0  0  0
   59.9860   33.9300   48.4120 C   0  0  0  0  0  0  0  0  0  0  0  0
   60.2710   34.6890   47.2640 C   0  0  0  0  0  0  0  0  0  0  0  0
   59.3860   34.6870   46.1810 C   0  0  0  0  0  0  0  0  0  0  0  0
   58.2110   33.9310   46.2360 C   0  0  0  0  0  0  0  0  0  0  0  0
   57.0990   33.9340   44.8780 Cl  0  0  0  0  0  0  0  0  0  0  0  0
   57.9210   33.1740   47.3740 C   0  0  0  0  0  0  0  0  0  0  0  0
   58.8040   33.1710   48.4580 C   0  0  0  0  0  0  0  0  0  0  0  0
   62.0890   34.4930   49.5590 O   0  0  0  0  0  0  0  0  0  0  0  0
   63.2700   31.4210   50.1650 C   0  0  0  0  0  0  0  0  0  0  0  0
   62.3010   30.7650   49.4020 C   0  0  0  0  0  0  0  0  0  0  0  0
   58.3667   31.5086   46.1440 H   0  0  0  0  0  0  0  0  0  0  0  0
   59.1781   30.6570   44.7864 H   0  0  0  0  0  0  0  0  0  0  0  0
   57.3922   30.8498   44.7864 H   0  0  0  0  0  0  0  0  0  0  0  0
   56.6500   28.6225   44.7643 H   0  0  0  0  0  0  0  0  0  0  0  0
   57.7168   25.9697   48.0145 H   0  0  0  0  0  0  0  0  0  0  0  0
   59.2846   27.6827   48.9003 H   0  0  0  0  0  0  0  0  0  0  0  0
   59.4630   30.6710   48.6860 H   0  0  0  0  0  0  0  0  0  0  0  0
   62.7984   32.3564   46.4129 H   0  0  0  0  0  0  0  0  0  0  0  0
   64.5332   33.5139   47.7781 H   0  0  0  0  0  0  0  0  0  0  0  0
   64.0118   34.7036   52.2541 H   0  0  0  0  0  0  0  0  0  0  0  0
   64.2335   35.5756   50.6819 H   0  0  0  0  0  0  0  0  0  0  0  0
   61.1933   35.2867   47.2171 H   0  0  0  0  0  0  0  0  0  0  0  0
   59.6148   35.2814   45.2841 H   0  0  0  0  0  0  0  0  0  0  0  0
   56.9965   32.5795   47.4171 H   0  0  0  0  0  0  0  0  0  0  0  0
   58.5725   32.5718   49.3510 H   0  0  0  0  0  0  0  0  0  0  0  0
   63.4186   31.1432   51.2189 H   0  0  0  0  0  0  0  0  0  0  0  0
   61.6800   29.9833   49.8639 H   0  0  0  0  0  0  0  0  0  0  0  0
  1  2  1  0
  2  3  2  0
  3  4  1  0
  4  5  1  0
  5  6  2  0
  5  7  1  0
  4  8  2  0
  8  9  1  0
  9 10  2  0
 10 11  1  0
 11 12  1  0
 12 13  2  0
 12 14  1  0
 14 15  2  0
 15 16  1  0
 16 17  2  0
 17 18  1  0
 18 19  1  0
 19 20  1  0
 20 21  2  0
 21 22  1  0
 22 23  2  0
 23 24  1  0
 24 25  2  0
 25 26  1  0
 26 27  2  0
 27 28  1  0
 27 29  1  0
 29 30  2  0
 23 31  1  0
 17 32  1  0
 32 33  2  0
 10  2  1  0
 33 14  1  0
 31 20  1  0
 30 24  1  0
  1 34  1  0
  1 35  1  0
  1 36  1  0
  3 37  1  0
  8 38  1  0
  9 39  1  0
 11 40  1  0
 15 41  1  0
 16 42  1  0
 19 43  1  0
 19 44  1  0
 25 45  1  0
 26 46  1  0
 29 47  1  0
 30 48  1  0
 32 49  1  0
 33 50  1  0
M  CHG  1   7  -1
M  END
>  <UniqueID>  (3) 
3

>  <SMILES>  (3) 
Cc1cc(C(=O)[O-])ccc1NC(=O)c1ccc(SCc2nnc(-c3ccc(Cl)cc3)o2)cc1

>  <Energy>  (3) 
89.01562785000404

>  <Genealogy>  (3) 
Cc1cc(C(=O)[O-])ccc1NC(=O)c1ccc(SCc2nnc(-c3ccc(Cl)cc3)o2)cc1 (protonated)
Cc1cc(C(=O)[O-])ccc1NC(=O)c1ccc(SCc2nnc(-c3ccc(Cl)cc3)o2)cc1 (3D coordinates assigned)
Cc1cc(C(=O)[O-])ccc1NC(=O)c1ccc(SCc2nnc(-c3ccc(Cl)cc3)o2)cc1 (optimized conformer: 89.01562785000404 kcal/mol)

>  <smiles>  (3) 
Cc1cc(C(=O)O)ccc1NC(=O)c1ccc(SCc2nnc(-c3ccc(Cl)cc3)o2)cc1

>  <score_type>  (3) 
oracle

>  <origin>  (3) 
adg

>  <m_score__min__energy>  (3) 
-11.550000000000001

>  <m_primary>  (3) 
energy

$$$$
3:0
     RDKit          3D

 47 49  0  0  0  0  0  0  0  0999 V2000
   55.4640   24.4900   45.2640 C   0  0  0  0  0  0  0  0  0  0  0  0
   55.8600   25.3120   46.4160 N   0  0  0  0  0  0  0  0  0  0  0  0
   56.9260   24.6350   47.1730 C   0  0  0  0  0  0  0  0  0  0  0  0
   56.2790   26.6700   45.9950 C   0  0  0  0  0  0  0  0  0  0  0  0
   57.7080   26.9350   46.4680 C   0  0  0  0  0  0  0  0  0  0  0  0
   58.6010   27.0440   45.2910 N   0  0  0  0  0  0  0  0  0  0  0  0
   59.9300   27.6010   45.6100 C   0  0  0  0  0  0  0  0  0  0  0  0
   59.9540   28.0940   47.0340 C   0  0  0  0  0  0  0  0  0  0  0  0
   60.3900   27.2630   48.0750 C   0  0  0  0  0  0  0  0  0  0  0  0
   60.4600   27.7660   49.3770 C   0  0  0  0  0  0  0  0  0  0  0  0
   60.1050   29.0550   49.6340 N   0  0  0  0  0  0  0  0  0  0  0  0
   59.6750   29.8810   48.6400 C   0  0  0  0  0  0  0  0  0  0  0  0
   59.5970   29.4190   47.3230 C   0  0  0  0  0  0  0  0  0  0  0  0
   57.9550   27.7020   44.1310 C   0  0  0  0  0  0  0  0  0  0  0  0
   57.5200   29.1160   44.4170 C   0  0  0  0  0  0  0  0  0  0  0  0
   56.2290   29.5920   44.4110 C   0  0  0  0  0  0  0  0  0  0  0  0
   56.2430   30.8970   44.7270 N   0  0  0  0  0  0  0  0  0  0  0  0
   57.5530   31.1730   44.9140 C   0  0  0  0  0  0  0  0  0  0  0  0
   58.0480   32.5080   45.2870 C   0  0  0  0  0  0  0  0  0  0  0  0
   58.4750   33.4640   44.3510 C   0  0  0  0  0  0  0  0  0  0  0  0
   58.9090   34.6500   44.9270 C   0  0  0  0  0  0  0  0  0  0  0  0
   58.7530   34.5100   46.5930 S   0  0  0  0  0  0  0  0  0  0  0  0
   58.1360   32.9480   46.6060 C   0  0  0  0  0  0  0  0  0  0  0  0
   58.3650   30.1100   44.7330 N   0  0  0  0  0  0  0  0  0  0  0  0
   55.0124   23.5525   45.6205 H   0  0  0  0  0  0  0  0  0  0  0  0
   54.7325   25.0409   44.6546 H   0  0  0  0  0  0  0  0  0  0  0  0
   56.3508   24.2613   44.6546 H   0  0  0  0  0  0  0  0  0  0  0  0
   56.7414   24.7523   48.2510 H   0  0  0  0  0  0  0  0  0  0  0  0
   56.9350   23.5653   46.9168 H   0  0  0  0  0  0  0  0  0  0  0  0
   57.8980   25.0816   46.9168 H   0  0  0  0  0  0  0  0  0  0  0  0
   56.2370   26.7426   44.8982 H   0  0  0  0  0  0  0  0  0  0  0  0
   55.6029   27.4152   46.4394 H   0  0  0  0  0  0  0  0  0  0  0  0
   57.7375   27.8742   47.0399 H   0  0  0  0  0  0  0  0  0  0  0  0
   58.0434   26.1068   47.1096 H   0  0  0  0  0  0  0  0  0  0  0  0
   60.6929   26.8189   45.4824 H   0  0  0  0  0  0  0  0  0  0  0  0
   60.1410   28.4420   44.9331 H   0  0  0  0  0  0  0  0  0  0  0  0
   60.6754   26.2210   47.8684 H   0  0  0  0  0  0  0  0  0  0  0  0
   60.8031   27.1181   50.1971 H   0  0  0  0  0  0  0  0  0  0  0  0
   60.1660   29.4160   50.6130 H   0  0  0  0  0  0  0  0  0  0  0  0
   59.3877   30.9166   48.8747 H   0  0  0  0  0  0  0  0  0  0  0  0
   59.2582   30.0896   46.5195 H   0  0  0  0  0  0  0  0  0  0  0  0
   58.6702   27.7185   43.2954 H   0  0  0  0  0  0  0  0  0  0  0  0
   57.0506   27.1243   43.8894 H   0  0  0  0  0  0  0  0  0  0  0  0
   55.3306   28.9992   44.1840 H   0  0  0  0  0  0  0  0  0  0  0  0
   58.4663   33.2895   43.2650 H   0  0  0  0  0  0  0  0  0  0  0  0
   59.2892   35.5291   44.3859 H   0  0  0  0  0  0  0  0  0  0  0  0
   57.8512   32.3730   47.4995 H   0  0  0  0  0  0  0  0  0  0  0  0
  1  2  1  0
  2  3  1  0
  2  4  1  0
  4  5  1  0
  5  6  1  0
  6  7  1  0
  7  8  1  0
  8  9  2  0
  9 10  1  0
 10 11  2  0
 11 12  1  0
 12 13  2  0
  6 14  1  0
 14 15  1  0
 15 16  2  0
 16 17  1  0
 17 18  1  0
 18 19  1  0
 19 20  1  0
 20 21  2  0
 21 22  1  0
 22 23  1  0
 18 24  2  0
 13  8  1  0
 24 15  1  0
 23 19  2  0
  1 25  1  0
  1 26  1  0
  1 27  1  0
  3 28  1  0
  3 29  1  0
  3 30  1  0
  4 31  1  0
  4 32  1  0
  5 33  1  0
  5 34  1  0
  7 35  1  0
  7 36  1  0
  9 37  1  0
 10 38  1  0
 11 39  1  0
 12 40  1  0
 13 41  1  0
 14 42  1  0
 14 43  1  0
 16 44  1  0
 20 45  1  0
 21 46  1  0
 23 47  1  0
M  CHG  2  11   1  17  -1
M  END
>  <UniqueID>  (4) 
4

>  <SMILES>  (4) 
CN(C)CCN(Cc1cc[nH+]cc1)Cc1c[n-]c(-c2ccsc2)n1

>  <Energy>  (4) 
102.38859567707394

>  <Genealogy>  (4) 
CN(C)CCN(Cc1cc[nH+]cc1)Cc1c[n-]c(-c2ccsc2)n1 (protonated)
CN(C)CCN(Cc1cc[nH+]cc1)Cc1c[n-]c(-c2ccsc2)n1 (3D coordinates assigned)
CN(C)CCN(Cc1cc[nH+]cc1)Cc1c[n-]c(-c2ccsc2)n1 (optimized conformer: 102.38859567707394 kcal/mol)

>  <smiles>  (4) 
CN(C)CCN(Cc1ccncc1)Cc1c[nH]c(-c2ccsc2)n1

>  <score_type>  (4) 
oracle

>  <origin>  (4) 
adg

>  <m_score__min__energy>  (4) 
-6.7699999999999996

>  <m_primary>  (4) 
energy

$$$$
4:0
     RDKit          3D

 60 63  0  0  0  0  0  0  0  0999 V2000
   56.6830   33.1180   44.2060 H   0  0  0  0  0  0  0  0  0  0  0  0
   57.4600   33.2980   44.8810 N   0  0  0  0  0  0  0  0  0  0  0  0
   58.2300   32.3470   45.3300 C   0  0  0  0  0  0  0  0  0  0  0  0
   57.8790   30.9990   45.1240 C   0  0  0  0  0  0  0  0  0  0  0  0
   56.6250   30.6700   44.4770 C   0  0  0  0  0  0  0  0  0  0  0  0
   55.6250   30.4060   43.9620 N   0  0  0  0  0  0  0  0  0  0  0  0
   58.7380   29.9850   45.5980 C   0  0  0  0  0  0  0  0  0  0  0  0
   58.4430   28.5460   45.3890 C   0  0  0  0  0  0  0  0  0  0  0  0
   58.4460   27.9940   44.0990 C   0  0  0  0  0  0  0  0  0  0  0  0
   58.6838   28.6288   43.2327 H   0  0  0  0  0  0  0  0  0  0  0  0
   58.1480   26.6400   43.9090 C   0  0  0  0  0  0  0  0  0  0  0  0
   58.1424   26.2174   42.8934 H   0  0  0  0  0  0  0  0  0  0  0  0
   57.8580   25.8240   45.0030 C   0  0  0  0  0  0  0  0  0  0  0  0
   57.6156   24.7621   44.8494 H   0  0  0  0  0  0  0  0  0  0  0  0
   57.8760   26.3580   46.2940 C   0  0  0  0  0  0  0  0  0  0  0  0
   57.6574   25.7138   47.1584 H   0  0  0  0  0  0  0  0  0  0  0  0
   58.1720   27.7120   46.4880 C   0  0  0  0  0  0  0  0  0  0  0  0
   58.1928   28.1264   47.5068 H   0  0  0  0  0  0  0  0  0  0  0  0
   59.9030   30.3460   46.2870 C   0  0  0  0  0  0  0  0  0  0  0  0
   60.5750   29.5656   46.6735 H   0  0  0  0  0  0  0  0  0  0  0  0
   60.2160   31.6990   46.4860 C   0  0  0  0  0  0  0  0  0  0  0  0
   61.4470   32.0880   47.2210 C   0  0  0  0  0  0  0  0  0  0  0  0
   62.2030   33.1980   46.8140 C   0  0  0  0  0  0  0  0  0  0  0  0
   61.8637   33.8068   45.9630 H   0  0  0  0  0  0  0  0  0  0  0  0
   63.3830   33.5360   47.4810 C   0  0  0  0  0  0  0  0  0  0  0  0
   63.9571   34.4172   47.1586 H   0  0  0  0  0  0  0  0  0  0  0  0
   63.8450   32.7610   48.5610 C   0  0  0  0  0  0  0  0  0  0  0  0
   65.0520   33.0520   49.2200 O   0  0  0  0  0  0  0  0  0  0  0  0
   65.2670   33.0110   50.6350 C   0  0  0  0  0  0  0  0  0  0  0  0
   64.8166   32.0934   51.0414 H   0  0  0  0  0  0  0  0  0  0  0  0
   66.3501   33.0244   50.8268 H   0  0  0  0  0  0  0  0  0  0  0  0
   64.6340   34.2250   51.3180 C   0  0  0  0  0  0  0  0  0  0  0  0
   64.5984   34.0585   52.4047 H   0  0  0  0  0  0  0  0  0  0  0  0
   65.2345   35.1221   51.1068 H   0  0  0  0  0  0  0  0  0  0  0  0
   63.3260   34.4050   50.8260 O   0  0  0  0  0  0  0  0  0  0  0  0
   62.3870   33.8260   51.7110 C   0  0  0  0  0  0  0  0  0  0  0  0
   62.8297   32.9450   52.1986 H   0  0  0  0  0  0  0  0  0  0  0  0
   62.0999   34.5514   52.4864 H   0  0  0  0  0  0  0  0  0  0  0  0
   61.1810   33.4140   50.9160 C   0  0  0  0  0  0  0  0  0  0  0  0
   60.7800   34.1750   49.8040 C   0  0  0  0  0  0  0  0  0  0  0  0
   61.3841   35.0361   49.4822 H   0  0  0  0  0  0  0  0  0  0  0  0
   59.6140   33.8400   49.1050 C   0  0  0  0  0  0  0  0  0  0  0  0
   59.3088   34.4336   48.2306 H   0  0  0  0  0  0  0  0  0  0  0  0
   58.8360   32.7520   49.5160 C   0  0  0  0  0  0  0  0  0  0  0  0
   57.9233   32.4879   48.9617 H   0  0  0  0  0  0  0  0  0  0  0  0
   59.2190   32.0000   50.6320 C   0  0  0  0  0  0  0  0  0  0  0  0
   58.6040   31.1483   50.9583 H   0  0  0  0  0  0  0  0  0  0  0  0
   60.3850   32.3310   51.3340 C   0  0  0  0  0  0  0  0  0  0  0  0
   60.6797   31.7424   52.2153 H   0  0  0  0  0  0  0  0  0  0  0  0
   63.0770   31.6610   49.0020 C   0  0  0  0  0  0  0  0  0  0  0  0
   63.5330   30.8740   50.1220 N   0  0  0  0  0  0  0  0  0  0  0  0
   64.5390   30.9040   50.3970 H   0  0  0  0  0  0  0  0  0  0  0  0
   62.6640   30.0110   50.9140 C   0  0  0  0  0  0  0  0  0  0  0  0
   62.8451   30.1909   51.9840 H   0  0  0  0  0  0  0  0  0  0  0  0
   61.6129   30.2329   50.6777 H   0  0  0  0  0  0  0  0  0  0  0  0
   62.8786   28.9583   50.6777 H   0  0  0  0  0  0  0  0  0  0  0  0
   61.8820   31.3380   48.3260 C   0  0  0  0  0  0  0  0  0  0  0  0
   61.2803   30.4839   48.6702 H   0  0  0  0  0  0  0  0  0  0  0  0
   59.3740   32.6610   46.0010 N   0  0  0  0  0  0  0  0  0  0  0  0
   59.6030   33.6690   46.1670 H   0  0  0  0  0  0  0  0  0  0  0  0
  1  2  1  0
  2  3  2  0
  3  4  1  0
  4  5  1  0
  5  6  3  0
  4  7  2  0
  7  8  1  0
  8  9  2  0
  9 10  1  0
  9 11  1  0
 11 12  1  0
 11 13  2  0
 13 14  1  0
 13 15  1  0
 15 16  1  0
 15 17  2  0
 17 18  1  0
  7 19  1  0
 19 20  1  0
 19 21  2  0
 21 22  1  0
 22 23  2  0
 23 24  1  0
 23 25  1  0
 25 26  1  0
 25 27  2  0
 27 28  1  0
 28 29  1  0
 29 30  1  0
 29 31  1  0
 29 32  1  0
 32 33  1  0
 32 34  1  0
 32 35  1  0
 35 36  1  0
 36 37  1  0
 36 38  1  0
 36 39  1  0
 39 40  2  0
 40 41  1  0
 40 42  1  0
 42 43  1  0
 42 44  2  0
 44 45  1  0
 44 46  1  0
 46 47  1  0
 46 48  2  0
 48 49  1  0
 27 50  1  0
 50 51  1  0
 51 52  1  0
 51 53  1  0
 53 54  1  0
 53 55  1  0
 53 56  1  0
 50 57  2  0
 57 58  1  0
 21 59  1  0
 59 60  1  0
 59  3  1  0
 17  8  1  0
 57 22  1  0
 48 39  1  0
M  END
>  <UniqueID>  (5) 
5

>  <SMILES>  (5) 
[H]/N=c1\[nH]c(-c2ccc(OCCOCc3ccccc3)c(NC)c2)cc(-c2ccccc2)c1C#N

>  <Energy>  (5) 
76.06628612049256

>  <Genealogy>  (5) 
[H]/N=c1\[nH]c(-c2ccc(OCCOCc3ccccc3)c(NC)c2)cc(-c2ccccc2)c1C#N (cis-trans isomerization)
[H]/N=c1\[nH]c(-c2ccc(OCCOCc3ccccc3)c(NC)c2)cc(-c2ccccc2)c1C#N (3D coordinates assigned)
[H]/N=c1\[nH]c(-c2ccc(OCCOCc3ccccc3)c(NC)c2)cc(-c2ccccc2)c1C#N (optimized conformer: 76.06628612049256 kcal/mol)

>  <smiles>  (5) 
CNc1cc(-c2cc(-c3ccccc3)c(C#N)c(=N)[nH]2)ccc1OCCOCc1ccccc1

>  <score_type>  (5) 
oracle

>  <origin>  (5) 
adg

>  <m_score__min__energy>  (5) 
-7.5999999999999996

>  <m_primary>  (5) 
energy

$$$$
5:0
     RDKit          3D

 40 41  0  0  0  0  0  0  0  0999 V2000
   60.1680   33.5160   46.8470 C   0  0  0  0  0  0  0  0  0  0  0  0
   59.3110   32.4980   46.1400 C   0  0  0  0  0  0  0  0  0  0  0  0
   59.6420   31.1370   46.2330 C   0  0  0  0  0  0  0  0  0  0  0  0
   58.8630   30.1520   45.6000 C   0  0  0  0  0  0  0  0  0  0  0  0
   59.1810   28.7570   45.7720 N   0  0  0  0  0  0  0  0  0  0  0  0
   60.4940   28.2010   45.5960 C   0  0  0  0  0  0  0  0  0  0  0  0
   61.3470   28.7870   44.8750 O   0  0  0  0  0  0  0  0  0  0  0  0
   60.8620   26.9200   46.2800 C   0  0  0  0  0  0  0  0  0  0  0  0
   59.9300   26.7210   47.8400 S   0  0  0  0  0  0  0  0  0  0  0  0
   58.5480   25.8590   47.0920 C   0  0  0  0  0  0  0  0  0  0  0  0
   58.6710   24.5530   46.7370 N   0  0  0  0  0  0  0  0  0  0  0  0
   57.6490   23.8980   46.1290 C   0  0  0  0  0  0  0  0  0  0  0  0
   57.7840   22.6880   45.8050 O   0  0  0  0  0  0  0  0  0  0  0  0
   56.4530   24.5670   45.8590 C   0  0  0  0  0  0  0  0  0  0  0  0
   56.3420   25.9080   46.2370 C   0  0  0  0  0  0  0  0  0  0  0  0
   55.1440   26.6390   45.9730 N   0  0  0  0  0  0  0  0  0  0  0  0
   57.3880   26.5240   46.8480 N   0  0  0  0  0  0  0  0  0  0  0  0
   57.7140   30.5430   44.8790 C   0  0  0  0  0  0  0  0  0  0  0  0
   56.6650   29.3520   44.0970 S   0  0  0  0  0  0  0  0  0  0  0  0
   55.1020   29.3890   44.8330 N   0  0  0  0  0  0  0  0  0  0  0  0
   57.2610   27.9800   44.2430 O   0  0  0  0  0  0  0  0  0  0  0  0
   56.5250   29.6580   42.6330 O   0  0  0  0  0  0  0  0  0  0  0  0
   57.3850   31.9030   44.7840 C   0  0  0  0  0  0  0  0  0  0  0  0
   58.1780   32.8860   45.3950 C   0  0  0  0  0  0  0  0  0  0  0  0
   57.7750   34.3340   45.2800 C   0  0  0  0  0  0  0  0  0  0  0  0
   60.0632   33.3915   47.9349 H   0  0  0  0  0  0  0  0  0  0  0  0
   61.2203   33.3714   46.5611 H   0  0  0  0  0  0  0  0  0  0  0  0
   59.8461   34.5283   46.5611 H   0  0  0  0  0  0  0  0  0  0  0  0
   60.5273   30.8353   46.8119 H   0  0  0  0  0  0  0  0  0  0  0  0
   58.4390   28.1160   46.1280 H   0  0  0  0  0  0  0  0  0  0  0  0
   60.6313   26.0765   45.6127 H   0  0  0  0  0  0  0  0  0  0  0  0
   61.9367   26.9429   46.5136 H   0  0  0  0  0  0  0  0  0  0  0  0
   55.6188   24.0511   45.3610 H   0  0  0  0  0  0  0  0  0  0  0  0
   55.1640   27.4710   45.3420 H   0  0  0  0  0  0  0  0  0  0  0  0
   54.2320   26.3440   46.3860 H   0  0  0  0  0  0  0  0  0  0  0  0
   55.1440   28.7690   45.6720 H   0  0  0  0  0  0  0  0  0  0  0  0
   56.4896   32.2043   44.2206 H   0  0  0  0  0  0  0  0  0  0  0  0
   57.6558   34.7624   46.2861 H   0  0  0  0  0  0  0  0  0  0  0  0
   58.5528   34.8889   44.7350 H   0  0  0  0  0  0  0  0  0  0  0  0
   56.8223   34.4073   44.7350 H   0  0  0  0  0  0  0  0  0  0  0  0
  1  2  1  0
  2  3  2  0
  3  4  1  0
  4  5  1  0
  5  6  1  0
  6  7  2  0
  6  8  1  0
  8  9  1  0
  9 10  1  0
 10 11  2  0
 11 12  1  0
 12 13  2  0
 12 14  1  0
 14 15  2  0
 15 16  1  0
 15 17  1  0
  4 18  2  0
 18 19  1  0
 19 20  1  0
 19 21  2  0
 19 22  2  0
 18 23  1  0
 23 24  2  0
 24 25  1  0
 24  2  1  0
 17 10  1  0
  1 26  1  0
  1 27  1  0
  1 28  1  0
  3 29  1  0
  5 30  1  0
  8 31  1  0
  8 32  1  0
 14 33  1  0
 16 34  1  0
 16 35  1  0
 20 36  1  0
 23 37  1  0
 25 38  1  0
 25 39  1  0
 25 40  1  0
M  CHG  2  17  -1  20  -1
M  END
>  <UniqueID>  (6) 
6

>  <SMILES>  (6) 
Cc1cc(NC(=O)CSc2nc(=O)cc(N)[n-]2)c(S([NH-])(=O)=O)cc1C

>  <Energy>  (6) 
36.916785096728404

>  <Genealogy>  (6) 
Cc1cc(NC(=O)CSc2nc(=O)cc(N)[n-]2)c(S([NH-])(=O)=O)cc1C (protonated)
Cc1cc(NC(=O)CSc2nc(=O)cc(N)[n-]2)c(S([NH-])(=O)=O)cc1C (3D coordinates assigned)
Cc1cc(NC(=O)CSc2nc(=O)cc(N)[n-]2)c(S([NH-])(=O)=O)cc1C (optimized conformer: 36.916785096728404 kcal/mol)

>  <smiles>  (6) 
Cc1cc(NC(=O)CSc2nc(=O)cc(N)[nH]2)c(S(N)(=O)=O)cc1C

>  <score_type>  (6) 
oracle

>  <origin>  (6) 
adg

>  <m_score__min__energy>  (6) 
-13.470000000000001

>  <m_primary>  (6) 
energy

$$$$
6:0
     RDKit          3D

 51 55  0  0  0  0  0  0  0  0999 V2000
   56.2160   30.3120   44.4590 S   0  0  0  0  0  0  0  0  0  0  0  0
   57.6250   31.0810   44.1110 C   0  0  0  0  0  0  0  0  0  0  0  0
   58.8540   30.3440   44.1260 N   0  0  0  0  0  0  0  0  0  0  0  0
   59.2830   29.5800   45.2650 C   0  0  0  0  0  0  0  0  0  0  0  0
   59.8000   28.2900   45.0860 C   0  0  0  0  0  0  0  0  0  0  0  0
   60.2710   27.5620   46.1850 C   0  0  0  0  0  0  0  0  0  0  0  0
   60.2550   28.1300   47.4630 C   0  0  0  0  0  0  0  0  0  0  0  0
   59.7420   29.4160   47.6580 C   0  0  0  0  0  0  0  0  0  0  0  0
   59.9010   30.0490   48.9380 N   0  0  0  0  0  0  0  0  0  0  0  0
   60.1610   31.2990   49.2420 C   0  0  0  0  0  0  0  0  0  0  0  0
   61.2720   32.0370   48.7270 C   0  0  0  0  0  0  0  0  0  0  0  0
   61.9730   31.6800   47.5510 C   0  0  0  0  0  0  0  0  0  0  0  0
   63.0780   32.4230   47.1210 C   0  0  0  0  0  0  0  0  0  0  0  0
   63.4820   33.5540   47.8290 C   0  0  0  0  0  0  0  0  0  0  0  0
   62.7450   33.9840   48.9330 C   0  0  0  0  0  0  0  0  0  0  0  0
   61.6250   33.2600   49.3580 C   0  0  0  0  0  0  0  0  0  0  0  0
   60.8540   33.7680   50.3500 N   0  0  0  0  0  0  0  0  0  0  0  0
   59.7150   33.1610   50.7640 C   0  0  0  0  0  0  0  0  0  0  0  0
   58.9400   33.7620   51.7640 C   0  0  0  0  0  0  0  0  0  0  0  0
   57.7680   33.1480   52.2080 C   0  0  0  0  0  0  0  0  0  0  0  0
   57.3650   31.9300   51.6610 C   0  0  0  0  0  0  0  0  0  0  0  0
   58.1370   31.3140   50.6690 C   0  0  0  0  0  0  0  0  0  0  0  0
   59.3220   31.9240   50.1990 C   0  0  0  0  0  0  0  0  0  0  0  0
   59.2710   30.1410   46.5510 C   0  0  0  0  0  0  0  0  0  0  0  0
   57.6430   32.5060   43.9170 N   0  0  0  0  0  0  0  0  0  0  0  0
   58.2250   33.1310   45.0800 C   0  0  0  0  0  0  0  0  0  0  0  0
   59.2480   34.0890   44.9370 C   0  0  0  0  0  0  0  0  0  0  0  0
   59.7290   34.7820   46.0530 C   0  0  0  0  0  0  0  0  0  0  0  0
   59.1930   34.5330   47.3190 C   0  0  0  0  0  0  0  0  0  0  0  0
   58.1830   33.5820   47.4730 C   0  0  0  0  0  0  0  0  0  0  0  0
   57.7000   32.8800   46.3620 C   0  0  0  0  0  0  0  0  0  0  0  0
   59.4880   30.4190   43.2990 H   0  0  0  0  0  0  0  0  0  0  0  0
   59.8358   27.8482   44.0793 H   0  0  0  0  0  0  0  0  0  0  0  0
   60.6546   26.5409   46.0431 H   0  0  0  0  0  0  0  0  0  0  0  0
   60.6480   27.5621   48.3191 H   0  0  0  0  0  0  0  0  0  0  0  0
   61.6451   30.8072   46.9673 H   0  0  0  0  0  0  0  0  0  0  0  0
   63.6299   32.1136   46.2211 H   0  0  0  0  0  0  0  0  0  0  0  0
   64.3807   34.1067   47.5177 H   0  0  0  0  0  0  0  0  0  0  0  0
   63.0452   34.8951   49.4712 H   0  0  0  0  0  0  0  0  0  0  0  0
   59.2561   34.7208   52.2007 H   0  0  0  0  0  0  0  0  0  0  0  0
   57.1608   33.6257   52.9910 H   0  0  0  0  0  0  0  0  0  0  0  0
   56.4378   31.4520   52.0101 H   0  0  0  0  0  0  0  0  0  0  0  0
   57.8187   30.3472   50.2519 H   0  0  0  0  0  0  0  0  0  0  0  0
   58.8877   31.1621   46.6942 H   0  0  0  0  0  0  0  0  0  0  0  0
   58.2010   32.7340   43.0620 H   0  0  0  0  0  0  0  0  0  0  0  0
   56.6700   32.8620   43.7650 H   0  0  0  0  0  0  0  0  0  0  0  0
   59.6709   34.2932   43.9423 H   0  0  0  0  0  0  0  0  0  0  0  0
   60.5313   35.5249   45.9335 H   0  0  0  0  0  0  0  0  0  0  0  0
   59.5666   35.0859   48.1935 H   0  0  0  0  0  0  0  0  0  0  0  0
   57.7649   33.3833   48.4709 H   0  0  0  0  0  0  0  0  0  0  0  0
   56.9068   32.1290   46.4914 H   0  0  0  0  0  0  0  0  0  0  0  0
  1  2  2  0
  2  3  1  0
  3  4  1  0
  4  5  2  0
  5  6  1  0
  6  7  2  0
  7  8  1  0
  8  9  1  0
  9 10  2  3
 10 11  1  0
 11 12  2  0
 12 13  1  0
 13 14  2  0
 14 15  1  0
 15 16  2  0
 16 17  1  0
 17 18  1  0
 18 19  2  0
 19 20  1  0
 20 21  2  0
 21 22  1  0
 22 23  2  0
  8 24  2  0
  2 25  1  0
 25 26  1  0
 26 27  2  0
 27 28  1  0
 28 29  2  0
 29 30  1  0
 30 31  2  0
 24  4  1  0
 31 26  1  0
 23 10  1  0
 16 11  1  0
 23 18  1  0
  3 32  1  0
  5 33  1  0
  6 34  1  0
  7 35  1  0
 12 36  1  0
 13 37  1  0
 14 38  1  0
 15 39  1  0
 19 40  1  0
 20 41  1  0
 21 42  1  0
 22 43  1  0
 24 44  1  0
 25 45  1  0
 25 46  1  0
 27 47  1  0
 28 48  1  0
 29 49  1  0
 30 50  1  0
 31 51  1  0
M  CHG  2  17  -1  25   1
M  END
>  <UniqueID>  (7) 
7

>  <SMILES>  (7) 
S=C(Nc1cccc(N=c2c3ccccc3[n-]c3ccccc23)c1)[NH2+]c1ccccc1

>  <Energy>  (7) 
88.14384257124262

>  <Genealogy>  (7) 
S=C(Nc1cccc(N=c2c3ccccc3[n-]c3ccccc23)c1)[NH2+]c1ccccc1 (protonated)
S=C(Nc1cccc(N=c2c3ccccc3[n-]c3ccccc23)c1)[NH2+]c1ccccc1 (3D coordinates assigned)
S=C(Nc1cccc(N=c2c3ccccc3[n-]c3ccccc23)c1)[NH2+]c1ccccc1 (optimized conformer: 88.14384257124262 kcal/mol)

>  <smiles>  (7) 
S=C(Nc1ccccc1)Nc1cccc(N=c2c3ccccc3[nH]c3ccccc23)c1

>  <score_type>  (7) 
oracle

>  <origin>  (7) 
adg

>  <m_score__min__energy>  (7) 
-9.8599999999999994

>  <m_primary>  (7) 
energy

$$$$
7:0
     RDKit          3D

 72 76  0  0  1  0  0  0  0  0999 V2000
   58.3290   31.7640   50.3750 C   0  0  0  0  0  0  0  0  0  0  0  0
   59.5150   30.8860   50.4430 C   0  0  0  0  0  0  0  0  0  0  0  0
   59.3430   29.5730   50.0170 C   0  0  0  0  0  0  0  0  0  0  0  0
   60.3870   28.7210   50.0450 C   0  0  0  0  0  0  0  0  0  0  0  0
   60.2310   27.3780   49.6400 N   0  0  0  0  0  0  0  0  0  0  0  0
   60.0800   27.1010   48.4000 C   0  0  0  0  0  0  0  0  0  0  0  0
   58.8950   27.2840   47.6970 C   0  0  0  0  0  0  0  0  0  0  0  0
   58.8580   26.9680   46.3400 C   0  0  0  0  0  0  0  0  0  0  0  0
   57.6620   27.1450   45.6490 N   0  0  0  0  0  0  0  0  0  0  0  0
   56.4590   26.4950   46.1510 C   0  0  0  0  0  0  0  0  0  0  0  0
   57.4890   27.9330   44.4400 C   0  0  0  0  0  0  0  0  0  0  0  0
   57.0300   29.3300   44.7260 C   0  0  1  0  0  0  0  0  0  0  0  0
   55.6940   29.4640   45.0270 O   0  0  0  0  0  0  0  0  0  0  0  0
   57.8440   30.0600   45.7600 C   0  0  0  0  0  0  0  0  0  0  0  0
   58.0970   31.4050   45.2080 N   0  0  0  0  0  0  0  0  0  0  0  0
   57.8390   31.7650   43.9190 C   0  0  0  0  0  0  0  0  0  0  0  0
   58.1860   33.0920   43.7740 C   0  0  0  0  0  0  0  0  0  0  0  0
   58.6650   33.5230   45.0130 C   0  0  0  0  0  0  0  0  0  0  0  0
   59.1500   34.7520   45.4260 C   0  0  0  0  0  0  0  0  0  0  0  0
   59.5650   34.8910   46.7290 C   0  0  0  0  0  0  0  0  0  0  0  0
   59.5050   33.8450   47.6100 C   0  0  0  0  0  0  0  0  0  0  0  0
   59.0170   32.6170   47.1840 C   0  0  0  0  0  0  0  0  0  0  0  0
   58.6000   32.4670   45.8820 C   0  0  0  0  0  0  0  0  0  0  0  0
   59.9880   26.4930   45.7580 N   0  0  0  0  0  0  0  0  0  0  0  0
   61.1260   26.3220   46.4560 C   0  0  0  0  0  0  0  0  0  0  0  0
   61.1630   26.6250   47.7580 N   0  0  0  0  0  0  0  0  0  0  0  0
   61.6410   29.1280   50.4920 C   0  0  0  0  0  0  0  0  0  0  0  0
   61.7870   30.4400   50.9100 C   0  0  0  0  0  0  0  0  0  0  0  0
   60.7340   31.3340   50.8940 C   0  0  0  0  0  0  0  0  0  0  0  0
   60.8670   32.6560   51.3130 O   0  0  0  0  0  0  0  0  0  0  0  0
   62.1550   33.2330   51.3220 C   0  0  0  0  0  0  0  0  0  0  0  0
   62.5970   33.8510   50.0820 C   0  0  0  0  0  0  0  0  0  0  0  0
   63.0320   35.0610   50.1550 O   0  0  0  0  0  0  0  0  0  0  0  0
   62.6180   33.2970   48.7730 N   0  0  0  0  0  0  0  0  0  0  0  0
   63.0210   34.0760   47.6150 C   0  0  0  0  0  0  0  0  0  0  0  0
   63.7590   33.1200   46.7390 C   0  0  0  0  0  0  0  0  0  0  0  0
   63.4000   31.7580   47.2120 C   0  0  0  0  0  0  0  0  0  0  0  0
   62.3290   31.9820   48.2840 C   0  0  0  0  0  0  0  0  0  0  0  0
   57.9962   32.0103   51.3941 H   0  0  0  0  0  0  0  0  0  0  0  0
   58.5882   32.6896   49.8401 H   0  0  0  0  0  0  0  0  0  0  0  0
   57.5194   31.2459   49.8401 H   0  0  0  0  0  0  0  0  0  0  0  0
   58.3603   29.2319   49.6592 H   0  0  0  0  0  0  0  0  0  0  0  0
   57.9995   27.6725   48.2042 H   0  0  0  0  0  0  0  0  0  0  0  0
   56.4706   26.5013   47.2509 H   0  0  0  0  0  0  0  0  0  0  0  0
   55.5720   27.0366   45.7906 H   0  0  0  0  0  0  0  0  0  0  0  0
   56.4259   25.4562   45.7906 H   0  0  0  0  0  0  0  0  0  0  0  0
   58.4511   27.9797   43.9088 H   0  0  0  0  0  0  0  0  0  0  0  0
   56.7138   27.4448   43.8311 H   0  0  0  0  0  0  0  0  0  0  0  0
   57.1988   29.8080   43.7498 H   0  0  0  0  0  0  0  0  0  0  0  0
   55.5300   29.6890   45.9840 H   0  0  0  0  0  0  0  0  0  0  0  0
   57.2841   30.1340   46.7039 H   0  0  0  0  0  0  0  0  0  0  0  0
   58.7841   29.5318   45.9773 H   0  0  0  0  0  0  0  0  0  0  0  0
   57.4274   31.1133   43.1342 H   0  0  0  0  0  0  0  0  0  0  0  0
   58.1016   33.6952   42.8580 H   0  0  0  0  0  0  0  0  0  0  0  0
   59.2022   35.5992   44.7264 H   0  0  0  0  0  0  0  0  0  0  0  0
   59.9530   35.8620   47.0706 H   0  0  0  0  0  0  0  0  0  0  0  0
   59.8413   33.9766   48.6490 H   0  0  0  0  0  0  0  0  0  0  0  0
   58.9642   31.7695   47.8833 H   0  0  0  0  0  0  0  0  0  0  0  0
   60.0190   26.2430   44.7460 H   0  0  0  0  0  0  0  0  0  0  0  0
   62.0252   25.9332   45.9557 H   0  0  0  0  0  0  0  0  0  0  0  0
   62.4899   28.4288   50.5125 H   0  0  0  0  0  0  0  0  0  0  0  0
   62.7707   30.7805   51.2654 H   0  0  0  0  0  0  0  0  0  0  0  0
   62.1697   34.0059   52.1046 H   0  0  0  0  0  0  0  0  0  0  0  0
   62.8480   32.3962   51.4939 H   0  0  0  0  0  0  0  0  0  0  0  0
   62.1391   34.4758   47.0930 H   0  0  0  0  0  0  0  0  0  0  0  0
   63.6415   34.9398   47.8959 H   0  0  0  0  0  0  0  0  0  0  0  0
   63.4543   33.2515   45.6902 H   0  0  0  0  0  0  0  0  0  0  0  0
   64.8449   33.2876   46.7904 H   0  0  0  0  0  0  0  0  0  0  0  0
   62.9989   31.1543   46.3846 H   0  0  0  0  0  0  0  0  0  0  0  0
   64.2712   31.2133   47.6048 H   0  0  0  0  0  0  0  0  0  0  0  0
   61.3202   31.9373   47.8478 H   0  0  0  0  0  0  0  0  0  0  0  0
   62.3459   31.2169   49.0741 H   0  0  0  0  0  0  0  0  0  0  0  0
  1  2  1  0
  2  3  2  0
  3  4  1  0
  4  5  1  0
  5  6  2  0
  6  7  1  0
  7  8  2  0
  8  9  1  0
  9 10  1  0
  9 11  1  0
 11 12  1  0
 12 13  1  0
 12 14  1  0
 14 15  1  0
 15 16  1  0
 16 17  2  0
 17 18  1  0
 18 19  2  0
 19 20  1  0
 20 21  2  0
 21 22  1  0
 22 23  2  0
  8 24  1  0
 24 25  1  0
 25 26  2  0
  4 27  2  0
 27 28  1  0
 28 29  2  0
 29 30  1  0
 30 31  1  0
 31 32  1  0
 32 33  2  0
 32 34  1  0
 34 35  1  0
 35 36  1  0
 36 37  1  0
 37 38  1  0
 29  2  1  0
 38 34  1  0
 26  6  1  0
 23 15  1  0
 23 18  1  0
  1 39  1  0
  1 40  1  0
  1 41  1  0
  3 42  1  0
  7 43  1  0
 10 44  1  0
 10 45  1  0
 10 46  1  0
 11 47  1  0
 11 48  1  0
 12 49  1  6
 13 50  1  0
 14 51  1  0
 14 52  1  0
 16 53  1  0
 17 54  1  0
 19 55  1  0
 20 56  1  0
 21 57  1  0
 22 58  1  0
 24 59  1  0
 25 60  1  0
 27 61  1  0
 28 62  1  0
 31 63  1  0
 31 64  1  0
 35 65  1  0
 35 66  1  0
 36 67  1  0
 36 68  1  0
 37 69  1  0
 37 70  1  0
 38 71  1  0
 38 72  1  0
M  END
>  <smiles>  (8) 
Cc1cc(N=c2cc(N(C)CC(O)Cn3ccc4ccccc43)[nH]cn2)ccc1OCC(=O)N1CCCC1

>  <score_type>  (8) 
oracle

>  <origin>  (8) 
adg

>  <m_score__min__energy>  (8) 
-10.1

>  <m_primary>  (8) 
energy

$$$$
8:0
     RDKit          3D

 53 56  0  0  0  0  0  0  0  0999 V2000
   56.2090   30.0730   54.8440 C   0  0  0  0  0  0  0  0  0  0  0  0
   55.8650   30.0440   53.4640 O   0  0  0  0  0  0  0  0  0  0  0  0
   56.7120   30.5300   52.4630 C   0  0  0  0  0  0  0  0  0  0  0  0
   56.9080   31.9060   52.3370 C   0  0  0  0  0  0  0  0  0  0  0  0
   57.7530   32.3920   51.3390 C   0  0  0  0  0  0  0  0  0  0  0  0
   58.4030   31.5030   50.4670 C   0  0  0  0  0  0  0  0  0  0  0  0
   59.3060   32.0040   49.3990 C   0  0  0  0  0  0  0  0  0  0  0  0
   60.6650   31.6610   49.3970 C   0  0  0  0  0  0  0  0  0  0  0  0
   61.5270   32.1270   48.3920 C   0  0  0  0  0  0  0  0  0  0  0  0
   61.0240   32.9850   47.3850 C   0  0  0  0  0  0  0  0  0  0  0  0
   59.6590   33.3100   47.3650 C   0  0  0  0  0  0  0  0  0  0  0  0
   59.1900   34.1390   46.3340 O   0  0  0  0  0  0  0  0  0  0  0  0
   58.0740   33.8410   45.5000 C   0  0  0  0  0  0  0  0  0  0  0  0
   58.8080   32.8190   48.3710 C   0  0  0  0  0  0  0  0  0  0  0  0
   61.8410   33.5670   46.3980 O   0  0  0  0  0  0  0  0  0  0  0  0
   63.2610   33.7190   46.4530 C   0  0  0  0  0  0  0  0  0  0  0  0
   63.7440   33.9610   47.8940 C   0  0  0  0  0  0  0  0  0  0  0  0
   63.9510   32.7040   48.6660 N   0  0  1  0  0  0  0  0  0  0  0  0
   63.9990   32.9750   50.1250 C   0  0  0  0  0  0  0  0  0  0  0  0
   65.3980   33.3050   50.5950 C   0  0  0  0  0  0  0  0  0  0  0  0
   65.6030   34.2410   51.6210 C   0  0  0  0  0  0  0  0  0  0  0  0
   66.9000   34.5600   52.0350 C   0  0  0  0  0  0  0  0  0  0  0  0
   68.0000   33.9480   51.4270 C   0  0  0  0  0  0  0  0  0  0  0  0
   67.8030   33.0180   50.4010 C   0  0  0  0  0  0  0  0  0  0  0  0
   66.5070   32.6970   49.9850 C   0  0  0  0  0  0  0  0  0  0  0  0
   62.9580   31.6390   48.3720 C   0  0  0  0  0  0  0  0  0  0  0  0
   58.1770   30.1250   50.6310 C   0  0  0  0  0  0  0  0  0  0  0  0
   57.3470   29.6780   51.6100 N   0  0  0  0  0  0  0  0  0  0  0  0
   55.2951   29.9960   55.4514 H   0  0  0  0  0  0  0  0  0  0  0  0
   56.8744   29.2278   55.0739 H   0  0  0  0  0  0  0  0  0  0  0  0
   56.7235   31.0177   55.0739 H   0  0  0  0  0  0  0  0  0  0  0  0
   56.3997   32.6026   53.0199 H   0  0  0  0  0  0  0  0  0  0  0  0
   57.9109   33.4756   51.2345 H   0  0  0  0  0  0  0  0  0  0  0  0
   61.0621   31.0167   50.1953 H   0  0  0  0  0  0  0  0  0  0  0  0
   57.2002   33.6077   46.1262 H   0  0  0  0  0  0  0  0  0  0  0  0
   57.8483   34.7104   44.8649 H   0  0  0  0  0  0  0  0  0  0  0  0
   58.3118   32.9749   44.8649 H   0  0  0  0  0  0  0  0  0  0  0  0
   57.7388   33.0769   48.3519 H   0  0  0  0  0  0  0  0  0  0  0  0
   63.7342   32.8046   46.0657 H   0  0  0  0  0  0  0  0  0  0  0  0
   63.5399   34.5910   45.8432 H   0  0  0  0  0  0  0  0  0  0  0  0
   64.6977   34.5077   47.8552 H   0  0  0  0  0  0  0  0  0  0  0  0
   62.9582   34.5333   48.4088 H   0  0  0  0  0  0  0  0  0  0  0  0
   64.8840   32.3140   48.3850 H   0  0  0  0  0  0  0  0  0  0  0  0
   63.3390   33.8258   50.3499 H   0  0  0  0  0  0  0  0  0  0  0  0
   63.6701   32.0661   50.6500 H   0  0  0  0  0  0  0  0  0  0  0  0
   64.7400   34.7254   52.1011 H   0  0  0  0  0  0  0  0  0  0  0  0
   67.0549   35.2934   52.8401 H   0  0  0  0  0  0  0  0  0  0  0  0
   69.0198   34.1976   51.7552 H   0  0  0  0  0  0  0  0  0  0  0  0
   68.6686   32.5385   49.9207 H   0  0  0  0  0  0  0  0  0  0  0  0
   66.3559   31.9658   49.1772 H   0  0  0  0  0  0  0  0  0  0  0  0
   63.1722   31.2290   47.3740 H   0  0  0  0  0  0  0  0  0  0  0  0
   63.0526   30.8808   49.1633 H   0  0  0  0  0  0  0  0  0  0  0  0
   58.6742   29.4054   49.9639 H   0  0  0  0  0  0  0  0  0  0  0  0
  1  2  1  0
  2  3  1  0
  3  4  2  0
  4  5  1  0
  5  6  2  0
  6  7  1  0
  7  8  2  0
  8  9  1  0
  9 10  2  0
 10 11  1  0
 11 12  1  0
 12 13  1  0
 11 14  2  0
 10 15  1  0
 15 16  1  0
 16 17  1  0
 17 18  1  0
 18 19  1  0
 19 20  1  0
 20 21  2  0
 21 22  1  0
 22 23  2  0
 23 24  1  0
 24 25  2  0
 18 26  1  0
  6 27  1  0
 27 28  2  0
 28  3  1  0
 14  7  1  0
 25 20  1  0
 26  9  1  0
  1 29  1  0
  1 30  1  0
  1 31  1  0
  4 32  1  0
  5 33  1  0
  8 34  1  0
 13 35  1  0
 13 36  1  0
 13 37  1  0
 14 38  1  0
 16 39  1  0
 16 40  1  0
 17 41  1  0
 17 42  1  0
 18 43  1  6
 19 44  1  0
 19 45  1  0
 21 46  1  0
 22 47  1  0
 23 48  1  0
 24 49  1  0
 25 50  1  0
 26 51  1  0
 26 52  1  0
 27 53  1  0
M  CHG  1  18   1
M  END
>  <UniqueID>  (9) 
8

>  <SMILES>  (9) 
COc1ccc(-c2cc3c(c(OC)c2)OCC[N@@H+](Cc2ccccc2)C3)cn1

>  <Energy>  (9) 
74.20324428661812

>  <Genealogy>  (9) 
COc1ccc(-c2cc3c(c(OC)c2)OCC[NH+](Cc2ccccc2)C3)cn1 (protonated)
COc1ccc(-c2cc3c(c(OC)c2)OCC[N@@H+](Cc2ccccc2)C3)cn1 (chirality)
COc1ccc(-c2cc3c(c(OC)c2)OCC[N@@H+](Cc2ccccc2)C3)cn1 (3D coordinates assigned)
COc1ccc(-c2cc3c(c(OC)c2)OCC[N@@H+](Cc2ccccc2)C3)cn1 (nonaromatic ring conformer: 74.20324428661812 kcal/mol)

>  <smiles>  (9) 
COc1ccc(-c2cc3c(c(OC)c2)OCCN(Cc2ccccc2)C3)cn1

>  <score_type>  (9) 
oracle

>  <origin>  (9) 
adg

>  <m_score__min__energy>  (9) 
-4.3499999999999996

>  <m_primary>  (9) 
energy

$$$$
9:0
     RDKit          3D

 29 29  0  0  0  0  0  0  0  0999 V2000
   54.9340   25.4180   45.1710 H   0  0  0  0  0  0  0  0  0  0  0  0
   55.3440   25.9020   46.0030 N   0  0  0  0  0  0  0  0  0  0  0  0
   56.3120   26.7590   45.9040 C   0  0  0  0  0  0  0  0  0  0  0  0
   57.5780   26.4690   46.4350 C   0  0  0  0  0  0  0  0  0  0  0  0
   57.7551   25.5146   46.9524 H   0  0  0  0  0  0  0  0  0  0  0  0
   58.6140   27.4000   46.3030 C   0  0  0  0  0  0  0  0  0  0  0  0
   59.9650   27.1200   46.8930 C   0  0  0  0  0  0  0  0  0  0  0  0
   59.8958   27.1343   47.9907 H   0  0  0  0  0  0  0  0  0  0  0  0
   60.3125   26.1308   46.5604 H   0  0  0  0  0  0  0  0  0  0  0  0
   60.6770   27.8897   46.5604 H   0  0  0  0  0  0  0  0  0  0  0  0
   58.3580   28.6250   45.6740 C   0  0  0  0  0  0  0  0  0  0  0  0
   59.1561   29.3764   45.5824 H   0  0  0  0  0  0  0  0  0  0  0  0
   57.0810   28.8890   45.1620 C   0  0  0  0  0  0  0  0  0  0  0  0
   56.8100   30.1870   44.4430 C   0  0  0  0  0  0  0  0  0  0  0  0
   56.7046   29.9818   43.3675 H   0  0  0  0  0  0  0  0  0  0  0  0
   55.8875   30.6189   44.8583 H   0  0  0  0  0  0  0  0  0  0  0  0
   57.9440   31.2060   44.6450 C   0  0  0  0  0  0  0  0  0  0  0  0
   57.9909   31.4667   45.7126 H   0  0  0  0  0  0  0  0  0  0  0  0
   58.8704   30.7320   44.2885 H   0  0  0  0  0  0  0  0  0  0  0  0
   57.7610   32.4980   43.8380 C   0  0  0  0  0  0  0  0  0  0  0  0
   58.5075   32.5251   43.0305 H   0  0  0  0  0  0  0  0  0  0  0  0
   56.7414   32.5086   43.4254 H   0  0  0  0  0  0  0  0  0  0  0  0
   57.9720   33.9750   44.8940 S   0  0  0  0  0  0  0  0  0  0  0  0
   57.7110   33.0780   46.4560 C   0  0  0  0  0  0  0  0  0  0  0  0
   57.9071   33.7519   47.3030 H   0  0  0  0  0  0  0  0  0  0  0  0
   56.6717   32.7209   46.5045 H   0  0  0  0  0  0  0  0  0  0  0  0
   58.3965   32.2191   46.5045 H   0  0  0  0  0  0  0  0  0  0  0  0
   56.0950   27.9520   45.2810 N   0  0  0  0  0  0  0  0  0  0  0  0
   55.1490   28.1510   44.8830 H   0  0  0  0  0  0  0  0  0  0  0  0
  1  2  1  0
  2  3  2  0
  3  4  1  0
  4  5  1  0
  4  6  2  0
  6  7  1  0
  7  8  1  0
  7  9  1  0
  7 10  1  0
  6 11  1  0
 11 12  1  0
 11 13  2  0
 13 14  1  0
 14 15  1  0
 14 16  1  0
 14 17  1  0
 17 18  1  0
 17 19  1  0
 17 20  1  0
 20 21  1  0
 20 22  1  0
 20 23  1  0
 23 24  1  0
 24 25  1  0
 24 26  1  0
 24 27  1  0
 13 28  1  0
 28 29  1  0
 28  3  1  0
M  END
>  <UniqueID>  (10) 
9

>  <SMILES>  (10) 
[H]/N=c1\cc(C)cc(CCCSC)[nH]1

>  <Energy>  (10) 
18.40226556260989

>  <Genealogy>  (10) 
[H]/N=c1\cc(C)cc(CCCSC)[nH]1 (cis-trans isomerization)
[H]/N=c1\cc(C)cc(CCCSC)[nH]1 (3D coordinates assigned)
[H]/N=c1\cc(C)cc(CCCSC)[nH]1 (optimized conformer: 18.40226556260989 kcal/mol)

>  <smiles>  (10) 
CSCCCc1cc(C)cc(=N)[nH]1

>  <score_type>  (10) 
oracle

>  <origin>  (10) 
adg

>  <m_score__min__energy>  (10) 
-6.1900000000000004

>  <m_primary>  (10) 
energy

$$$$
10:0
     RDKit          3D

 30 31  0  0  0  0  0  0  0  0999 V2000
   55.1480   26.4860   46.0240 N   0  0  0  0  0  0  0  0  0  0  0  0
   56.5950   27.3450   45.6350 S   0  0  0  0  0  0  0  0  0  0  0  0
   57.3570   27.6260   46.9000 O   0  0  0  0  0  0  0  0  0  0  0  0
   57.4310   26.5090   44.7080 O   0  0  0  0  0  0  0  0  0  0  0  0
   56.1730   28.8370   44.8600 N   0  0  0  0  0  0  0  0  0  0  0  0
   56.8830   30.0740   45.0080 C   0  0  0  0  0  0  0  0  0  0  0  0
   56.6900   31.1590   44.1360 C   0  0  0  0  0  0  0  0  0  0  0  0
   57.4030   32.3460   44.3180 C   0  0  0  0  0  0  0  0  0  0  0  0
   58.3130   32.4770   45.3820 C   0  0  0  0  0  0  0  0  0  0  0  0
   59.0740   33.7320   45.5830 C   0  0  0  0  0  0  0  0  0  0  0  0
   58.4480   34.8100   45.7720 O   0  0  0  0  0  0  0  0  0  0  0  0
   60.5080   33.7560   45.6210 N   0  0  0  0  0  0  0  0  0  0  0  0
   61.3230   33.8150   46.8000 C   0  0  0  0  0  0  0  0  0  0  0  0
   60.7820   34.1370   48.0580 C   0  0  0  0  0  0  0  0  0  0  0  0
   61.6040   34.1700   49.1890 C   0  0  0  0  0  0  0  0  0  0  0  0
   62.9630   33.8680   49.0760 C   0  0  0  0  0  0  0  0  0  0  0  0
   63.5010   33.5240   47.8330 C   0  0  0  0  0  0  0  0  0  0  0  0
   62.6820   33.4910   46.7000 C   0  0  0  0  0  0  0  0  0  0  0  0
   58.5160   31.3840   46.2410 C   0  0  0  0  0  0  0  0  0  0  0  0
   57.8030   30.1960   46.0570 C   0  0  0  0  0  0  0  0  0  0  0  0
   54.6180   27.0730   46.7060 H   0  0  0  0  0  0  0  0  0  0  0  0
   55.9736   31.0729   43.3057 H   0  0  0  0  0  0  0  0  0  0  0  0
   57.2515   33.1853   43.6233 H   0  0  0  0  0  0  0  0  0  0  0  0
   59.7097   34.3634   48.1524 H   0  0  0  0  0  0  0  0  0  0  0  0
   61.1797   34.4341   50.1689 H   0  0  0  0  0  0  0  0  0  0  0  0
   63.6097   33.9009   49.9652 H   0  0  0  0  0  0  0  0  0  0  0  0
   64.5698   33.2789   47.7457 H   0  0  0  0  0  0  0  0  0  0  0  0
   63.1072   33.2092   45.7254 H   0  0  0  0  0  0  0  0  0  0  0  0
   59.2412   31.4637   47.0642 H   0  0  0  0  0  0  0  0  0  0  0  0
   57.9657   29.3503   46.7413 H   0  0  0  0  0  0  0  0  0  0  0  0
  1  2  1  0
  2  3  2  0
  2  4  2  0
  2  5  1  0
  5  6  1  0
  6  7  2  0
  7  8  1  0
  8  9  2  0
  9 10  1  0
 10 11  2  0
 10 12  1  0
 12 13  1  0
 13 14  2  0
 14 15  1  0
 15 16  2  0
 16 17  1  0
 17 18  2  0
  9 19  1  0
 19 20  2  0
 20  6  1  0
 18 13  1  0
  1 21  1  0
  7 22  1  0
  8 23  1  0
 14 24  1  0
 15 25  1  0
 16 26  1  0
 17 27  1  0
 18 28  1  0
 19 29  1  0
 20 30  1  0
M  CHG  3   1  -1   5  -1  12  -1
M  END
>  <UniqueID>  (11) 
10

>  <SMILES>  (11) 
[NH-]S(=O)(=O)[N-]c1ccc(C(=O)[N-]c2ccccc2)cc1

>  <Energy>  (11) 
38.74599577560474

>  <Genealogy>  (11) 
[NH-]S(=O)(=O)[N-]c1ccc(C(=O)[N-]c2ccccc2)cc1 (protonated)
[NH-]S(=O)(=O)[N-]c1ccc(C(=O)[N-]c2ccccc2)cc1 (3D coordinates assigned)
[NH-]S(=O)(=O)[N-]c1ccc(C(=O)[N-]c2ccccc2)cc1 (optimized conformer: 38.74599577560474 kcal/mol)

>  <smiles>  (11) 
NS(=O)(=O)Nc1ccc(C(=O)Nc2ccccc2)cc1

>  <score_type>  (11) 
oracle

>  <origin>  (11) 
adg

>  <m_score__min__energy>  (11) 
-12.84

>  <m_primary>  (11) 
energy

$$$$
11:0
     RDKit          3D

 24 25  0  0  0  0  0  0  0  0999 V2000
   59.5420   29.8710   46.0320 C   0  0  0  0  0  0  0  0  0  0  0  0
   58.3010   30.4930   45.5730 N   0  0  0  0  0  0  0  0  0  0  0  0
   57.8060   31.7140   45.8700 C   0  0  0  0  0  0  0  0  0  0  0  0
   58.4620   32.7110   46.7470 C   0  0  0  0  0  0  0  0  0  0  0  0
   58.7590   32.3420   48.0690 C   0  0  0  0  0  0  0  0  0  0  0  0
   59.4170   33.2250   48.9240 C   0  0  0  0  0  0  0  0  0  0  0  0
   59.8000   34.4840   48.4650 C   0  0  0  0  0  0  0  0  0  0  0  0
   59.5150   34.8690   47.1550 C   0  0  0  0  0  0  0  0  0  0  0  0
   58.8260   34.0030   46.2810 C   0  0  0  0  0  0  0  0  0  0  0  0
   58.5230   34.4580   44.8650 C   0  0  0  0  0  0  0  0  0  0  0  0
   58.9090   33.4900   43.9550 F   0  0  0  0  0  0  0  0  0  0  0  0
   59.2040   35.6320   44.6030 F   0  0  0  0  0  0  0  0  0  0  0  0
   57.1690   34.6880   44.6870 F   0  0  0  0  0  0  0  0  0  0  0  0
   56.6440   31.9420   45.2250 N   0  0  0  0  0  0  0  0  0  0  0  0
   56.3840   30.8680   44.4950 N   0  0  0  0  0  0  0  0  0  0  0  0
   57.3910   30.0020   44.7060 C   0  0  0  0  0  0  0  0  0  0  0  0
   57.4860   28.5400   43.9740 S   0  0  0  0  0  0  0  0  0  0  0  0
   59.5622   29.8609   47.1318 H   0  0  0  0  0  0  0  0  0  0  0  0
   59.5963   28.8391   45.6548 H   0  0  0  0  0  0  0  0  0  0  0  0
   60.4012   30.4450   45.6548 H   0  0  0  0  0  0  0  0  0  0  0  0
   58.4693   31.3455   48.4339 H   0  0  0  0  0  0  0  0  0  0  0  0
   59.6339   32.9281   49.9607 H   0  0  0  0  0  0  0  0  0  0  0  0
   60.3284   35.1758   49.1375 H   0  0  0  0  0  0  0  0  0  0  0  0
   59.8317   35.8605   46.7992 H   0  0  0  0  0  0  0  0  0  0  0  0
  1  2  1  0
  2  3  1  0
  3  4  1  0
  4  5  2  0
  5  6  1  0
  6  7  2  0
  7  8  1  0
  8  9  2  0
  9 10  1  0
 10 11  1  0
 10 12  1  0
 10 13  1  0
  3 14  2  0
 14 15  1  0
 15 16  1  0
 16 17  2  0
 16  2  1  0
  9  4  1  0
  1 18  1  0
  1 19  1  0
  1 20  1  0
  5 21  1  0
  6 22  1  0
  7 23  1  0
  8 24  1  0
M  CHG  1  15  -1
M  END
>  <UniqueID>  (12) 
11

>  <SMILES>  (12) 
Cn1c(-c2ccccc2C(F)(F)F)n[n-]c1=S

>  <Energy>  (12) 
68.5735958649353

>  <Genealogy>  (12) 
Cn1c(-c2ccccc2C(F)(F)F)n[n-]c1=S (protonated)
Cn1c(-c2ccccc2C(F)(F)F)n[n-]c1=S (3D coordinates assigned)
Cn1c(-c2ccccc2C(F)(F)F)n[n-]c1=S (optimized conformer: 68.5735958649353 kcal/mol)

>  <smiles>  (12) 
Cn1c(-c2ccccc2C(F)(F)F)n[nH]c1=S

>  <score_type>  (12) 
oracle

>  <origin>  (12) 
adg

>  <m_score__min__energy>  (12) 
-7.3200000000000003

>  <m_primary>  (12) 
energy

$$$$
12:0
     RDKit          3D

 56 60  0  0  0  0  0  0  0  0999 V2000
   64.1090   32.4874   49.8347 H   0  0  0  0  0  0  0  0  0  0  0  0
   63.4380   32.8790   49.0560 C   0  0  0  0  0  0  0  0  0  0  0  0
   63.7950   32.7940   47.7480 N   0  0  0  0  0  0  0  0  0  0  0  0
   62.9910   33.2630   46.7580 C   0  0  0  0  0  0  0  0  0  0  0  0
   63.3076   33.1784   45.7079 H   0  0  0  0  0  0  0  0  0  0  0  0
   61.7640   33.8520   47.0700 C   0  0  0  0  0  0  0  0  0  0  0  0
   61.1047   34.2169   46.2686 H   0  0  0  0  0  0  0  0  0  0  0  0
   61.3780   33.9750   48.4150 C   0  0  0  0  0  0  0  0  0  0  0  0
   60.0440   34.5770   48.7830 C   0  0  0  0  0  0  0  0  0  0  0  0
   59.8128   35.3910   48.0802 H   0  0  0  0  0  0  0  0  0  0  0  0
   60.1084   34.9568   49.8133 H   0  0  0  0  0  0  0  0  0  0  0  0
   58.9730   33.5800   48.7260 N   0  0  0  0  0  0  0  0  0  0  0  0
   58.6750   32.7530   47.7600 C   0  0  0  0  0  0  0  0  0  0  0  0
   58.8760   31.4180   47.9630 N   0  0  0  0  0  0  0  0  0  0  0  0
   58.6140   30.4700   47.0110 C   0  0  0  0  0  0  0  0  0  0  0  0
   58.8720   29.0400   47.3130 C   0  0  0  0  0  0  0  0  0  0  0  0
   59.9140   28.6890   48.1900 C   0  0  0  0  0  0  0  0  0  0  0  0
   60.5159   29.4771   48.6659 H   0  0  0  0  0  0  0  0  0  0  0  0
   60.1900   27.3470   48.4610 C   0  0  0  0  0  0  0  0  0  0  0  0
   61.0075   27.0832   49.1481 H   0  0  0  0  0  0  0  0  0  0  0  0
   59.4320   26.3400   47.8630 C   0  0  0  0  0  0  0  0  0  0  0  0
   59.6596   25.2848   48.0746 H   0  0  0  0  0  0  0  0  0  0  0  0
   58.3820   26.6660   46.9940 C   0  0  0  0  0  0  0  0  0  0  0  0
   57.6430   25.6090   46.3600 N   0  0  0  0  0  0  0  0  0  0  0  0
   58.1470   24.7130   46.1850 H   0  0  0  0  0  0  0  0  0  0  0  0
   56.2290   25.6660   46.0990 C   0  0  0  0  0  0  0  0  0  0  0  0
   55.5780   26.7180   46.3320 O   0  0  0  0  0  0  0  0  0  0  0  0
   55.5390   24.5380   45.5470 N   0  0  0  0  0  0  0  0  0  0  0  0
   56.1370   23.4880   44.7760 C   0  0  0  0  0  0  0  0  0  0  0  0
   55.7270   23.3170   43.4470 C   0  0  0  0  0  0  0  0  0  0  0  0
   54.9663   23.9868   43.0196 H   0  0  0  0  0  0  0  0  0  0  0  0
   56.2770   22.3030   42.6620 C   0  0  0  0  0  0  0  0  0  0  0  0
   55.9584   22.1838   41.6159 H   0  0  0  0  0  0  0  0  0  0  0  0
   57.2310   21.4400   43.2030 C   0  0  0  0  0  0  0  0  0  0  0  0
   57.6734   20.6498   42.5787 H   0  0  0  0  0  0  0  0  0  0  0  0
   57.6250   21.5780   44.5360 C   0  0  0  0  0  0  0  0  0  0  0  0
   58.3734   20.8914   44.9585 H   0  0  0  0  0  0  0  0  0  0  0  0
   57.0700   22.5910   45.3430 C   0  0  0  0  0  0  0  0  0  0  0  0
   57.4050   22.7210   46.7000 O   0  0  0  0  0  0  0  0  0  0  0  0
   56.4700   22.6700   47.7730 C   0  0  0  0  0  0  0  0  0  0  0  0
   57.0095   22.6994   48.7312 H   0  0  0  0  0  0  0  0  0  0  0  0
   55.7902   23.5324   47.7083 H   0  0  0  0  0  0  0  0  0  0  0  0
   55.8881   21.7388   47.7083 H   0  0  0  0  0  0  0  0  0  0  0  0
   58.1190   28.0170   46.7070 C   0  0  0  0  0  0  0  0  0  0  0  0
   57.3162   28.2772   46.0014 H   0  0  0  0  0  0  0  0  0  0  0  0
   58.0960   30.8830   45.7690 C   0  0  0  0  0  0  0  0  0  0  0  0
   57.8626   30.1543   44.9788 H   0  0  0  0  0  0  0  0  0  0  0  0
   57.8950   32.2100   45.5810 N   0  0  0  0  0  0  0  0  0  0  0  0
   57.4170   32.8590   44.5110 C   0  0  0  0  0  0  0  0  0  0  0  0
   57.0959   32.4072   43.5609 H   0  0  0  0  0  0  0  0  0  0  0  0
   57.4040   34.2050   44.8280 C   0  0  0  0  0  0  0  0  0  0  0  0
   57.0652   35.0077   44.1565 H   0  0  0  0  0  0  0  0  0  0  0  0
   57.8690   34.3900   46.0850 N   0  0  0  0  0  0  0  0  0  0  0  0
   58.1610   33.1410   46.5090 C   0  0  0  0  0  0  0  0  0  0  0  0
   62.2200   33.4630   49.4140 C   0  0  0  0  0  0  0  0  0  0  0  0
   61.9233   33.5210   50.4716 H   0  0  0  0  0  0  0  0  0  0  0  0
  1  2  1  0
  2  3  2  0
  3  4  1  0
  4  5  1  0
  4  6  2  0
  6  7  1  0
  6  8  1  0
  8  9  1  0
  9 10  1  0
  9 11  1  0
  9 12  1  0
 12 13  2  0
 13 14  1  0
 14 15  1  0
 15 16  1  0
 16 17  2  0
 17 18  1  0
 17 19  1  0
 19 20  1  0
 19 21  2  0
 21 22  1  0
 21 23  1  0
 23 24  1  0
 24 25  1  0
 24 26  1  0
 26 27  2  0
 26 28  1  0
 28 29  1  0
 29 30  2  0
 30 31  1  0
 30 32  1  0
 32 33  1  0
 32 34  2  0
 34 35  1  0
 34 36  1  0
 36 37  1  0
 36 38  2  0
 38 39  1  0
 39 40  1  0
 40 41  1  0
 40 42  1  0
 40 43  1  0
 23 44  2  0
 44 45  1  0
 15 46  2  0
 46 47  1  0
 46 48  1  0
 48 49  1  0
 49 50  1  0
 49 51  2  0
 51 52  1  0
 51 53  1  0
 53 54  2  0
  8 55  2  0
 55 56  1  0
 55  2  1  0
 54 13  1  0
 44 16  1  0
 54 48  1  0
 38 29  1  0
M  CHG  2  14  -1  28  -1
M  END
>  <UniqueID>  (13) 
12

>  <SMILES>  (13) 
COc1ccccc1[N-]C(=O)Nc1cccc(-c2cn3ccnc3/c(=N\Cc3ccncc3)[n-]2)c1

>  <Energy>  (13) 
115.29594506073309

>  <Genealogy>  (13) 
COc1ccccc1[N-]C(=O)Nc1cccc(-c2cn3ccnc3c(=NCc3ccncc3)[n-]2)c1 (protonated)
COc1ccccc1[N-]C(=O)Nc1cccc(-c2cn3ccnc3/c(=N\Cc3ccncc3)[n-]2)c1 (cis-trans isomerization)
COc1ccccc1[N-]C(=O)Nc1cccc(-c2cn3ccnc3/c(=N\Cc3ccncc3)[n-]2)c1 (3D coordinates assigned)
COc1ccccc1[N-]C(=O)Nc1cccc(-c2cn3ccnc3/c(=N\Cc3ccncc3)[n-]2)c1 (optimized conformer: 115.29594506073309 kcal/mol)

>  <smiles>  (13) 
COc1ccccc1NC(=O)Nc1cccc(-c2cn3ccnc3c(=NCc3ccncc3)[nH]2)c1

>  <score_type>  (13) 
oracle

>  <origin>  (13) 
adg

>  <m_score__min__energy>  (13) 
-12.140000000000001

>  <m_primary>  (13) 
energy

$$$$
13:0
     RDKit          3D

 40 42  0  0  0  0  0  0  0  0999 V2000
   60.1410   29.5340   47.4340 C   0  0  0  0  0  0  0  0  0  0  0  0
   60.1370   30.0280   45.9910 C   0  0  0  0  0  0  0  0  0  0  0  0
   58.8170   29.8200   45.3840 N   0  0  0  0  0  0  0  0  0  0  0  0
   57.9260   30.9440   45.2540 C   0  0  0  0  0  0  0  0  0  0  0  0
   56.7380   30.7470   44.8780 O   0  0  0  0  0  0  0  0  0  0  0  0
   58.3710   32.3220   45.5770 C   0  0  0  0  0  0  0  0  0  0  0  0
   58.3970   33.3090   44.5770 C   0  0  0  0  0  0  0  0  0  0  0  0
   58.8280   34.6040   44.8740 C   0  0  0  0  0  0  0  0  0  0  0  0
   59.2240   34.9330   46.1720 C   0  0  0  0  0  0  0  0  0  0  0  0
   59.1740   33.9690   47.1900 C   0  0  0  0  0  0  0  0  0  0  0  0
   59.6300   34.3110   48.5780 C   0  0  0  0  0  0  0  0  0  0  0  0
   58.7570   32.6640   46.8870 C   0  0  0  0  0  0  0  0  0  0  0  0
   58.4400   28.5250   44.8720 C   0  0  0  0  0  0  0  0  0  0  0  0
   58.1070   28.2890   43.5820 N   0  0  0  0  0  0  0  0  0  0  0  0
   57.8070   27.0170   43.3260 N   0  0  0  0  0  0  0  0  0  0  0  0
   57.8960   26.2130   44.4120 C   0  0  0  0  0  0  0  0  0  0  0  0
   57.6160   24.7600   44.3800 C   0  0  0  0  0  0  0  0  0  0  0  0
   56.8490   24.1870   43.3510 C   0  0  0  0  0  0  0  0  0  0  0  0
   56.5970   22.8140   43.3450 C   0  0  0  0  0  0  0  0  0  0  0  0
   57.1140   22.0200   44.3680 C   0  0  0  0  0  0  0  0  0  0  0  0
   57.8540   22.5820   45.3590 N   0  0  0  0  0  0  0  0  0  0  0  0
   58.1140   23.9160   45.3890 C   0  0  0  0  0  0  0  0  0  0  0  0
   58.3650   27.1010   45.7720 S   0  0  0  0  0  0  0  0  0  0  0  0
   60.1340   30.3964   48.1168 H   0  0  0  0  0  0  0  0  0  0  0  0
   59.2478   28.9174   47.6129 H   0  0  0  0  0  0  0  0  0  0  0  0
   61.0440   28.9319   47.6129 H   0  0  0  0  0  0  0  0  0  0  0  0
   60.3789   31.1009   45.9743 H   0  0  0  0  0  0  0  0  0  0  0  0
   60.8869   29.4632   45.4178 H   0  0  0  0  0  0  0  0  0  0  0  0
   58.0761   33.0603   43.5546 H   0  0  0  0  0  0  0  0  0  0  0  0
   58.8556   35.3674   44.0825 H   0  0  0  0  0  0  0  0  0  0  0  0
   59.5760   35.9506   46.3969 H   0  0  0  0  0  0  0  0  0  0  0  0
   58.9740   33.8190   49.3111 H   0  0  0  0  0  0  0  0  0  0  0  0
   60.6641   33.9639   48.7202 H   0  0  0  0  0  0  0  0  0  0  0  0
   59.5863   35.4009   48.7202 H   0  0  0  0  0  0  0  0  0  0  0  0
   58.7315   31.9017   47.6797 H   0  0  0  0  0  0  0  0  0  0  0  0
   58.0690   29.0220   42.8400 H   0  0  0  0  0  0  0  0  0  0  0  0
   56.4462   24.8221   42.5483 H   0  0  0  0  0  0  0  0  0  0  0  0
   55.9966   22.3630   42.5412 H   0  0  0  0  0  0  0  0  0  0  0  0
   56.9224   20.9368   44.3726 H   0  0  0  0  0  0  0  0  0  0  0  0
   58.7170   24.3376   46.2067 H   0  0  0  0  0  0  0  0  0  0  0  0
  1  2  1  0
  2  3  1  0
  3  4  1  0
  4  5  2  0
  4  6  1  0
  6  7  2  0
  7  8  1  0
  8  9  2  0
  9 10  1  0
 10 11  1  0
 10 12  2  0
  3 13  1  0
 13 14  2  0
 14 15  1  0
 15 16  2  0
 16 17  1  0
 17 18  2  0
 18 19  1  0
 19 20  2  0
 20 21  1  0
 21 22  2  0
 16 23  1  0
 12  6  1  0
 23 13  1  0
 22 17  1  0
  1 24  1  0
  1 25  1  0
  1 26  1  0
  2 27  1  0
  2 28  1  0
  7 29  1  0
  8 30  1  0
  9 31  1  0
 11 32  1  0
 11 33  1  0
 11 34  1  0
 12 35  1  0
 14 36  1  0
 18 37  1  0
 19 38  1  0
 20 39  1  0
 22 40  1  0
M  CHG  1  14   1
M  END
>  <UniqueID>  (14) 
13

>  <SMILES>  (14) 
CCN(C(=O)c1cccc(C)c1)c1[nH+]nc(-c2cccnc2)s1

>  <Energy>  (14) 
79.8011915399306

>  <Genealogy>  (14) 
CCN(C(=O)c1cccc(C)c1)c1[nH+]nc(-c2cccnc2)s1 (protonated)
CCN(C(=O)c1cccc(C)c1)c1[nH+]nc(-c2cccnc2)s1 (3D coordinates assigned)
CCN(C(=O)c1cccc(C)c1)c1[nH+]nc(-c2cccnc2)s1 (optimized conformer: 79.8011915399306 kcal/mol)

>  <smiles>  (14) 
CCN(C(=O)c1cccc(C)c1)c1nnc(-c2cccnc2)s1

>  <score_type>  (14) 
oracle

>  <origin>  (14) 
adg

>  <m_score__min__energy>  (14) 
-7.71

>  <m_primary>  (14) 
energy

$$$$
14:0
     RDKit          3D

 39 41  0  0  1  0  0  0  0  0999 V2000
   63.9100   31.7270   47.0110 N   0  0  0  0  0  0  0  0  0  0  0  0
   62.7320   32.8930   47.4790 S   0  0  0  0  0  0  0  0  0  0  0  0
   62.4610   33.7720   46.2710 O   0  0  0  0  0  0  0  0  0  0  0  0
   63.2540   33.7050   48.6280 O   0  0  0  0  0  0  0  0  0  0  0  0
   61.2300   32.1610   47.9530 C   0  0  0  0  0  0  0  0  0  0  0  0
   60.1850   32.9790   48.3540 C   0  0  0  0  0  0  0  0  0  0  0  0
   58.9510   32.4410   48.7420 C   0  0  0  0  0  0  0  0  0  0  0  0
   58.8420   31.0570   48.7020 C   0  0  0  0  0  0  0  0  0  0  0  0
   59.8720   30.2370   48.3050 C   0  0  0  0  0  0  0  0  0  0  0  0
   59.6360   28.8400   48.3020 N   0  0  0  0  0  0  0  0  0  0  0  0
   58.9000   28.2410   47.4450 C   0  0  0  0  0  0  0  0  0  0  0  0
   58.2240   28.9350   46.4750 C   0  0  0  0  0  0  0  0  0  0  0  0
   57.4110   28.2990   45.5230 C   0  0  0  0  0  0  0  0  0  0  0  0
   56.7590   29.0600   44.5340 N   0  0  0  0  0  0  0  0  0  0  0  0
   57.1250   30.3100   44.0280 C   0  0  0  0  0  0  0  0  0  0  0  0
   56.9940   30.5120   42.6550 C   0  0  0  0  0  0  0  0  0  0  0  0
   57.3450   31.6920   42.0400 C   0  0  0  0  0  0  0  0  0  0  0  0
   57.8450   32.7150   42.8120 C   0  0  0  0  0  0  0  0  0  0  0  0
   57.9970   32.5750   44.1710 C   0  0  0  0  0  0  0  0  0  0  0  0
   58.6930   34.0200   45.1910 Br  0  0  0  0  0  0  0  0  0  0  0  0
   57.6300   31.3620   44.7510 C   0  0  0  0  0  0  0  0  0  0  0  0
   57.3470   26.9640   45.6330 N   0  0  0  0  0  0  0  0  0  0  0  0
   58.0070   26.2620   46.5830 C   0  0  0  0  0  0  0  0  0  0  0  0
   58.7780   26.9040   47.4800 N   0  0  0  0  0  0  0  0  0  0  0  0
   61.0810   30.7900   47.9270 C   0  0  0  0  0  0  0  0  0  0  0  0
   64.5410   32.1630   46.3070 H   0  0  0  0  0  0  0  0  0  0  0  0
   64.4460   31.3440   47.8210 H   0  0  0  0  0  0  0  0  0  0  0  0
   60.3272   34.0697   48.3678 H   0  0  0  0  0  0  0  0  0  0  0  0
   58.1142   33.0798   49.0609 H   0  0  0  0  0  0  0  0  0  0  0  0
   57.8891   30.5962   49.0013 H   0  0  0  0  0  0  0  0  0  0  0  0
   58.3221   30.0301   46.4412 H   0  0  0  0  0  0  0  0  0  0  0  0
   55.8770   28.6260   44.1230 H   0  0  0  0  0  0  0  0  0  0  0  0
   56.5935   29.6944   42.0376 H   0  0  0  0  0  0  0  0  0  0  0  0
   57.2281   31.8147   40.9531 H   0  0  0  0  0  0  0  0  0  0  0  0
   58.1287   33.6635   42.3325 H   0  0  0  0  0  0  0  0  0  0  0  0
   57.7505   31.2421   45.8378 H   0  0  0  0  0  0  0  0  0  0  0  0
   56.7830   26.4010   44.9670 H   0  0  0  0  0  0  0  0  0  0  0  0
   57.9134   25.1667   46.6221 H   0  0  0  0  0  0  0  0  0  0  0  0
   61.9136   30.1451   47.6095 H   0  0  0  0  0  0  0  0  0  0  0  0
  1  2  1  0
  2  3  2  0
  2  4  2  0
  2  5  1  0
  5  6  2  0
  6  7  1  0
  7  8  2  0
  8  9  1  0
  9 10  1  0
 10 11  2  0
 11 12  1  0
 12 13  2  0
 13 14  1  0
 14 15  1  0
 15 16  2  0
 16 17  1  0
 17 18  2  0
 18 19  1  0
 19 20  1  0
 19 21  2  0
 13 22  1  0
 22 23  1  0
 23 24  2  0
  9 25  2  0
 25  5  1  0
 24 11  1  0
 21 15  1  0
  1 26  1  0
  1 27  1  0
  6 28  1  0
  7 29  1  0
  8 30  1  0
 12 31  1  0
 14 32  1  0
 16 33  1  0
 17 34  1  0
 18 35  1  0
 21 36  1  0
 22 37  1  0
 23 38  1  0
 25 39  1  0
M  END
>  <smiles>  (15) 
NS(=O)(=O)c1cccc(N=c2cc(Nc3cccc(Br)c3)[nH]cn2)c1

>  <score_type>  (15) 
oracle

>  <origin>  (15) 
adg

>  <m_score__min__energy>  (15) 
-8.9800000000000004

>  <m_primary>  (15) 
energy

$$$$
15:0
     RDKit          3D

 41 43  0  0  0  0  0  0  0  0999 V2000
   57.4030   32.0310   41.9300 C   0  0  0  0  0  0  0  0  0  0  0  0
   57.9150   31.9650   43.3300 C   0  0  0  0  0  0  0  0  0  0  0  0
   58.2200   33.0530   44.0720 N   0  0  0  0  0  0  0  0  0  0  0  0
   58.7400   32.7290   45.2870 C   0  0  0  0  0  0  0  0  0  0  0  0
   59.2060   33.9620   46.4560 S   0  0  0  0  0  0  0  0  0  0  0  0
   58.2080   33.9930   47.5790 O   0  0  0  0  0  0  0  0  0  0  0  0
   59.2470   35.3130   45.7990 O   0  0  0  0  0  0  0  0  0  0  0  0
   60.8100   33.6010   47.0880 C   0  0  0  0  0  0  0  0  0  0  0  0
   61.9530   33.8310   46.3080 C   0  0  0  0  0  0  0  0  0  0  0  0
   63.2230   33.5620   46.8270 C   0  0  0  0  0  0  0  0  0  0  0  0
   63.3580   33.0680   48.1280 C   0  0  0  0  0  0  0  0  0  0  0  0
   62.2220   32.8440   48.9120 C   0  0  0  0  0  0  0  0  0  0  0  0
   60.9510   33.1130   48.3950 C   0  0  0  0  0  0  0  0  0  0  0  0
   58.8790   31.3570   45.5000 C   0  0  0  0  0  0  0  0  0  0  0  0
   59.5460   30.5400   46.9540 S   0  0  0  0  0  0  0  0  0  0  0  0
   58.1480   29.3760   47.1500 C   0  0  0  0  0  0  0  0  0  0  0  0
   58.5340   27.9660   46.7650 C   0  0  0  0  0  0  0  0  0  0  0  0
   59.8580   27.5490   47.0040 C   0  0  0  0  0  0  0  0  0  0  0  0
   60.2950   26.2900   46.5920 C   0  0  0  0  0  0  0  0  0  0  0  0
   59.4220   25.4290   45.9320 C   0  0  0  0  0  0  0  0  0  0  0  0
   58.1050   25.8210   45.6890 C   0  0  0  0  0  0  0  0  0  0  0  0
   57.6380   27.0790   46.1080 C   0  0  0  0  0  0  0  0  0  0  0  0
   56.2710   27.4360   45.8300 N   0  0  0  0  0  0  0  0  0  0  0  0
   55.3480   26.6160   46.0060 O   0  0  0  0  0  0  0  0  0  0  0  0
   55.9900   28.6180   45.1830 O   0  0  0  0  0  0  0  0  0  0  0  0
   58.3130   30.5450   44.1380 S   0  0  0  0  0  0  0  0  0  0  0  0
   56.3121   32.1716   41.9448 H   0  0  0  0  0  0  0  0  0  0  0  0
   57.8745   32.8758   41.4066 H   0  0  0  0  0  0  0  0  0  0  0  0
   57.6449   31.0942   41.4066 H   0  0  0  0  0  0  0  0  0  0  0  0
   58.0770   34.0320   43.7420 H   0  0  0  0  0  0  0  0  0  0  0  0
   61.8498   34.2239   45.2857 H   0  0  0  0  0  0  0  0  0  0  0  0
   64.1170   33.7392   46.2111 H   0  0  0  0  0  0  0  0  0  0  0  0
   64.3577   32.8556   48.5348 H   0  0  0  0  0  0  0  0  0  0  0  0
   62.3283   32.4560   49.9358 H   0  0  0  0  0  0  0  0  0  0  0  0
   60.0590   32.9413   49.0154 H   0  0  0  0  0  0  0  0  0  0  0  0
   57.8241   29.3822   48.2012 H   0  0  0  0  0  0  0  0  0  0  0  0
   57.3353   29.7021   46.4843 H   0  0  0  0  0  0  0  0  0  0  0  0
   60.5555   28.2240   47.5216 H   0  0  0  0  0  0  0  0  0  0  0  0
   61.3309   25.9768   46.7888 H   0  0  0  0  0  0  0  0  0  0  0  0
   59.7707   24.4393   45.6020 H   0  0  0  0  0  0  0  0  0  0  0  0
   57.4233   25.1367   45.1627 H   0  0  0  0  0  0  0  0  0  0  0  0
  1  2  1  0
  2  3  2  0
  3  4  1  0
  4  5  1  0
  5  6  2  0
  5  7  2  0
  5  8  1  0
  8  9  2  0
  9 10  1  0
 10 11  2  0
 11 12  1  0
 12 13  2  0
  4 14  2  0
 14 15  1  0
 15 16  1  0
 16 17  1  0
 17 18  2  0
 18 19  1  0
 19 20  2  0
 20 21  1  0
 21 22  2  0
 22 23  1  0
 23 24  2  0
 23 25  1  0
 14 26  1  0
 26  2  1  0
 13  8  1  0
 22 17  1  0
  1 27  1  0
  1 28  1  0
  1 29  1  0
  3 30  1  0
  9 31  1  0
 10 32  1  0
 11 33  1  0
 12 34  1  0
 13 35  1  0
 16 36  1  0
 16 37  1  0
 18 38  1  0
 19 39  1  0
 20 40  1  0
 21 41  1  0
M  CHG  3   3   1  23   1  25  -1
M  END
>  <UniqueID>  (16) 
14

>  <SMILES>  (16) 
Cc1[nH+]c(S(=O)(=O)c2ccccc2)c(SCc2ccccc2[N+](=O)[O-])s1

>  <Energy>  (16) 
74.51754122225105

>  <Genealogy>  (16) 
Cc1[nH+]c(S(=O)(=O)c2ccccc2)c(SCc2ccccc2[N+](=O)[O-])s1 (protonated)
Cc1[nH+]c(S(=O)(=O)c2ccccc2)c(SCc2ccccc2[N+](=O)[O-])s1 (3D coordinates assigned)
Cc1[nH+]c(S(=O)(=O)c2ccccc2)c(SCc2ccccc2[N+](=O)[O-])s1 (optimized conformer: 74.51754122225105 kcal/mol)

>  <smiles>  (16) 
Cc1nc(S(=O)(=O)c2ccccc2)c(SCc2ccccc2[N+](=O)[O-])s1

>  <score_type>  (16) 
oracle

>  <origin>  (16) 
adg

>  <m_score__min__energy>  (16) 
-7.9100000000000001

>  <m_primary>  (16) 
energy

$$$$
16:0
     RDKit          3D

 19 21  0  0  0  0  0  0  0  0999 V2000
   55.7850   25.5020   46.6940 O   0  0  0  0  0  0  0  0  0  0  0  0
   56.4560   26.5160   46.3670 C   0  0  0  0  0  0  0  0  0  0  0  0
   55.8940   27.5060   45.6170 N   0  0  0  0  0  0  0  0  0  0  0  0
   56.6000   28.6170   45.2480 C   0  0  0  0  0  0  0  0  0  0  0  0
   55.9940   29.6140   44.4780 C   0  0  0  0  0  0  0  0  0  0  0  0
   56.7230   30.7480   44.1040 C   0  0  0  0  0  0  0  0  0  0  0  0
   58.0580   30.8900   44.4990 C   0  0  0  0  0  0  0  0  0  0  0  0
   58.6770   29.9000   45.2690 C   0  0  0  0  0  0  0  0  0  0  0  0
   57.9560   28.7560   45.6510 C   0  0  0  0  0  0  0  0  0  0  0  0
   58.4880   27.7470   46.4020 N   0  0  0  0  0  0  0  0  0  0  0  0
   59.6930   27.5140   46.9590 C   0  0  0  0  0  0  0  0  0  0  0  0
   60.6840   28.2860   46.8820 O   0  0  0  0  0  0  0  0  0  0  0  0
   59.7180   26.3390   47.6230 N   0  0  0  0  0  0  0  0  0  0  0  0
   58.5110   25.7980   47.4960 N   0  0  0  0  0  0  0  0  0  0  0  0
   57.7850   26.6610   46.7580 C   0  0  0  0  0  0  0  0  0  0  0  0
   54.9445   29.5070   44.1663 H   0  0  0  0  0  0  0  0  0  0  0  0
   56.2450   31.5310   43.4971 H   0  0  0  0  0  0  0  0  0  0  0  0
   58.6238   31.7854   44.2022 H   0  0  0  0  0  0  0  0  0  0  0  0
   59.7270   30.0168   45.5752 H   0  0  0  0  0  0  0  0  0  0  0  0
  1  2  2  0
  2  3  1  0
  3  4  1  0
  4  5  2  0
  5  6  1  0
  6  7  2  0
  7  8  1  0
  8  9  2  0
  9 10  1  0
 10 11  1  0
 11 12  2  0
 11 13  1  0
 13 14  1  0
 14 15  2  0
 15  2  1  0
  9  4  1  0
 15 10  1  0
  5 16  1  0
  6 17  1  0
  7 18  1  0
  8 19  1  0
M  CHG  2   3  -1  13  -1
M  END
>  <UniqueID>  (17) 
15

>  <SMILES>  (17) 
O=c1[n-]c2ccccc2n2c(=O)[n-]nc12

>  <Energy>  (17) 
71.3531642051616

>  <Genealogy>  (17) 
O=c1[n-]c2ccccc2n2c(=O)[n-]nc12 (protonated)
O=c1[n-]c2ccccc2n2c(=O)[n-]nc12 (3D coordinates assigned)
O=c1[n-]c2ccccc2n2c(=O)[n-]nc12 (optimized conformer: 71.3531642051616 kcal/mol)

>  <smiles>  (17) 
O=c1[nH]c2ccccc2n2c(=O)[nH]nc12

>  <score_type>  (17) 
oracle

>  <origin>  (17) 
adg

>  <m_score__min__energy>  (17) 
-9.4000000000000004

>  <m_primary>  (17) 
energy

$$$$
17:0
     RDKit          3D

 26 27  0  0  0  0  0  0  0  0999 V2000
   54.6200   30.3610   55.6860 C   0  0  0  0  0  0  0  0  0  0  0  0
   54.7960   29.6980   54.4380 O   0  0  0  0  0  0  0  0  0  0  0  0
   54.2130   28.4660   54.0950 C   0  0  0  0  0  0  0  0  0  0  0  0
   54.8420   27.2470   54.4220 C   0  0  0  0  0  0  0  0  0  0  0  0
   54.2480   26.0290   54.0940 C   0  0  0  0  0  0  0  0  0  0  0  0
   53.0220   26.0050   53.4350 C   0  0  0  0  0  0  0  0  0  0  0  0
   52.3840   27.2000   53.0990 C   0  0  0  0  0  0  0  0  0  0  0  0
   52.9660   28.4440   53.4160 C   0  0  0  0  0  0  0  0  0  0  0  0
   52.2550   29.6960   53.0310 C   0  0  0  0  0  0  0  0  0  0  0  0
   52.0490   30.0060   51.7210 N   0  0  0  0  0  0  0  0  0  0  0  0
   51.3980   31.1370   51.3390 C   0  0  0  0  0  0  0  0  0  0  0  0
   51.2240   31.3940   49.8950 C   0  0  0  0  0  0  0  0  0  0  0  0
   51.2810   30.4600   49.0530 O   0  0  0  0  0  0  0  0  0  0  0  0
   50.9940   32.6910   49.4520 O   0  0  0  0  0  0  0  0  0  0  0  0
   50.9190   32.0140   52.3290 C   0  0  0  0  0  0  0  0  0  0  0  0
   50.2440   33.1860   52.0000 O   0  0  0  0  0  0  0  0  0  0  0  0
   51.1310   31.6830   53.6700 C   0  0  0  0  0  0  0  0  0  0  0  0
   50.7160   32.4410   54.5860 O   0  0  0  0  0  0  0  0  0  0  0  0
   51.7890   30.5410   53.9900 N   0  0  0  0  0  0  0  0  0  0  0  0
   54.8079   29.6533   56.5069 H   0  0  0  0  0  0  0  0  0  0  0  0
   55.3262   31.2014   55.7576 H   0  0  0  0  0  0  0  0  0  0  0  0
   53.5900   30.7405   55.7576 H   0  0  0  0  0  0  0  0  0  0  0  0
   55.8116   27.2572   54.9414 H   0  0  0  0  0  0  0  0  0  0  0  0
   54.7489   25.0855   54.3564 H   0  0  0  0  0  0  0  0  0  0  0  0
   52.5552   25.0425   53.1786 H   0  0  0  0  0  0  0  0  0  0  0  0
   51.4145   27.1706   52.5801 H   0  0  0  0  0  0  0  0  0  0  0  0
  1  2  1  0
  2  3  1  0
  3  4  2  0
  4  5  1  0
  5  6  2  0
  6  7  1  0
  7  8  2  0
  8  9  1  0
  9 10  2  0
 10 11  1  0
 11 12  1  0
 12 13  2  0
 12 14  1  0
 11 15  2  0
 15 16  1  0
 15 17  1  0
 17 18  2  0
 17 19  1  0
  8  3  1  0
 19  9  1  0
  1 20  1  0
  1 21  1  0
  1 22  1  0
  4 23  1  0
  5 24  1  0
  6 25  1  0
  7 26  1  0
M  CHG  3  14  -1  16  -1  19  -1
M  END
>  <UniqueID>  (18) 
16

>  <SMILES>  (18) 
COc1ccccc1-c1nc(C(=O)[O-])c([O-])c(=O)[n-]1

>  <Energy>  (18) 
32.29455673406593

>  <Genealogy>  (18) 
COc1ccccc1-c1nc(C(=O)[O-])c([O-])c(=O)[n-]1 (protonated)
COc1ccccc1-c1nc(C(=O)[O-])c([O-])c(=O)[n-]1 (3D coordinates assigned)
COc1ccccc1-c1nc(C(=O)[O-])c([O-])c(=O)[n-]1 (optimized conformer: 32.29455673406593 kcal/mol)

>  <smiles>  (18) 
COc1ccccc1-c1nc(C(=O)O)c(O)c(=O)[nH]1

>  <score_type>  (18) 
oracle

>  <origin>  (18) 
adg

>  <m_score__min__energy>  (18) 
-14.48

>  <m_primary>  (18) 
energy

$$$$
18:0
     RDKit          3D

 35 37  0  0  0  0  0  0  0  0999 V2000
   58.2420   21.4740   43.7160 C   0  0  0  0  0  0  0  0  0  0  0  0
   59.5980   21.8470   43.7910 O   0  0  0  0  0  0  0  0  0  0  0  0
   59.8050   22.6310   44.9480 C   0  0  0  0  0  0  0  0  0  0  0  0
   58.6210   22.6300   45.7390 O   0  0  0  0  0  0  0  0  0  0  0  0
   57.6970   23.6860   45.8050 C   0  0  0  0  0  0  0  0  0  0  0  0
   56.3370   23.3780   45.7080 C   0  0  0  0  0  0  0  0  0  0  0  0
   55.3750   24.3870   45.7660 C   0  0  0  0  0  0  0  0  0  0  0  0
   53.5240   23.9160   45.6290 Br  0  0  0  0  0  0  0  0  0  0  0  0
   55.7630   25.7250   45.9210 C   0  0  0  0  0  0  0  0  0  0  0  0
   54.7800   26.7080   45.9730 O   0  0  0  0  0  0  0  0  0  0  0  0
   57.1320   26.0600   46.0220 C   0  0  0  0  0  0  0  0  0  0  0  0
   57.5740   27.4710   46.1860 C   0  0  0  0  0  0  0  0  0  0  0  0
   58.3720   27.9070   47.1890 N   0  0  0  0  0  0  0  0  0  0  0  0
   58.6410   29.2110   47.1400 N   0  0  0  0  0  0  0  0  0  0  0  0
   58.0640   29.8470   46.0950 C   0  0  0  0  0  0  0  0  0  0  0  0
   58.2160   31.2960   45.8310 C   0  0  0  0  0  0  0  0  0  0  0  0
   57.6570   31.8660   44.6720 C   0  0  0  0  0  0  0  0  0  0  0  0
   57.7970   33.2340   44.4170 C   0  0  0  0  0  0  0  0  0  0  0  0
   58.4940   34.0460   45.3120 C   0  0  0  0  0  0  0  0  0  0  0  0
   59.0530   33.4930   46.4670 C   0  0  0  0  0  0  0  0  0  0  0  0
   58.9170   32.1260   46.7280 C   0  0  0  0  0  0  0  0  0  0  0  0
   57.1690   28.7590   45.1710 S   0  0  0  0  0  0  0  0  0  0  0  0
   58.0880   25.0270   45.9630 C   0  0  0  0  0  0  0  0  0  0  0  0
   57.8357   21.3622   44.7321 H   0  0  0  0  0  0  0  0  0  0  0  0
   57.6774   22.2502   43.1787 H   0  0  0  0  0  0  0  0  0  0  0  0
   58.1538   20.5182   43.1787 H   0  0  0  0  0  0  0  0  0  0  0  0
   60.6368   22.2104   45.5322 H   0  0  0  0  0  0  0  0  0  0  0  0
   60.0490   23.6624   44.6537 H   0  0  0  0  0  0  0  0  0  0  0  0
   56.0224   22.3311   45.5849 H   0  0  0  0  0  0  0  0  0  0  0  0
   57.1064   31.2314   43.9620 H   0  0  0  0  0  0  0  0  0  0  0  0
   57.3565   33.6707   43.5086 H   0  0  0  0  0  0  0  0  0  0  0  0
   58.6035   35.1214   45.1085 H   0  0  0  0  0  0  0  0  0  0  0  0
   59.6013   34.1345   47.1726 H   0  0  0  0  0  0  0  0  0  0  0  0
   59.3598   31.6963   47.6387 H   0  0  0  0  0  0  0  0  0  0  0  0
   59.1571   25.2736   46.0418 H   0  0  0  0  0  0  0  0  0  0  0  0
  1  2  1  0
  2  3  1  0
  3  4  1  0
  4  5  1  0
  5  6  2  0
  6  7  1  0
  7  8  1  0
  7  9  2  0
  9 10  1  0
  9 11  1  0
 11 12  1  0
 12 13  2  0
 13 14  1  0
 14 15  2  0
 15 16  1  0
 16 17  2  0
 17 18  1  0
 18 19  2  0
 19 20  1  0
 20 21  2  0
 15 22  1  0
 11 23  2  0
 23  5  1  0
 22 12  1  0
 21 16  1  0
  1 24  1  0
  1 25  1  0
  1 26  1  0
  3 27  1  0
  3 28  1  0
  6 29  1  0
 17 30  1  0
 18 31  1  0
 19 32  1  0
 20 33  1  0
 21 34  1  0
 23 35  1  0
M  CHG  1  10  -1
M  END
>  <UniqueID>  (19) 
17

>  <SMILES>  (19) 
COCOc1cc(Br)c([O-])c(-c2nnc(-c3ccccc3)s2)c1

>  <Energy>  (19) 
76.24914243118157

>  <Genealogy>  (19) 
COCOc1cc(Br)c([O-])c(-c2nnc(-c3ccccc3)s2)c1 (protonated)
COCOc1cc(Br)c([O-])c(-c2nnc(-c3ccccc3)s2)c1 (3D coordinates assigned)
COCOc1cc(Br)c([O-])c(-c2nnc(-c3ccccc3)s2)c1 (optimized conformer: 76.24914243118157 kcal/mol)

>  <smiles>  (19) 
COCOc1cc(Br)c(O)c(-c2nnc(-c3ccccc3)s2)c1

>  <score_type>  (19) 
oracle

>  <origin>  (19) 
adg

>  <m_score__min__energy>  (19) 
-12.34

>  <m_primary>  (19) 
energy

$$$$
19:0
     RDKit          3D

 64 67  0  0  0  0  0  0  0  0999 V2000
   60.1450   32.3330   53.2840 C   0  0  0  0  0  0  0  0  0  0  0  0
   59.9600   32.6880   51.8370 C   0  0  0  0  0  0  0  0  0  0  0  0
   58.8140   32.2800   51.1410 C   0  0  0  0  0  0  0  0  0  0  0  0
   58.6390   32.6380   49.8030 C   0  0  0  0  0  0  0  0  0  0  0  0
   59.6030   33.4070   49.1340 C   0  0  0  0  0  0  0  0  0  0  0  0
   59.3040   33.8480   47.4450 S   0  0  0  0  0  0  0  0  0  0  0  0
   58.9530   35.3080   47.3350 O   0  0  0  0  0  0  0  0  0  0  0  0
   60.5440   33.5660   46.6360 O   0  0  0  0  0  0  0  0  0  0  0  0
   57.9680   32.9240   46.8300 N   0  0  0  0  0  0  0  0  0  0  0  0
   57.9180   32.3620   45.5140 C   0  0  0  0  0  0  0  0  0  0  0  0
   57.3220   31.1020   45.3570 C   0  0  0  0  0  0  0  0  0  0  0  0
   57.1640   30.5370   44.0840 C   0  0  0  0  0  0  0  0  0  0  0  0
   56.5390   29.1640   43.9250 C   0  0  2  0  0  0  0  0  0  0  0  0
   55.3260   29.1370   44.6340 O   0  0  0  0  0  0  0  0  0  0  0  0
   57.4750   28.0490   44.4350 C   0  0  0  0  0  0  0  0  0  0  0  0
   57.0500   27.5560   45.7450 N   0  0  0  0  0  0  0  0  0  0  0  0
   57.8790   26.9530   46.7520 C   0  0  0  0  0  0  0  0  0  0  0  0
   57.8620   25.6980   46.8720 O   0  0  0  0  0  0  0  0  0  0  0  0
   58.7630   27.7470   47.6270 C   0  0  0  0  0  0  0  0  0  0  0  0
   58.5450   29.1200   47.8170 C   0  0  0  0  0  0  0  0  0  0  0  0
   59.4390   29.8760   48.5810 C   0  0  0  0  0  0  0  0  0  0  0  0
   60.5540   29.2740   49.1750 C   0  0  0  0  0  0  0  0  0  0  0  0
   61.4820   30.0980   49.8300 O   0  0  0  0  0  0  0  0  0  0  0  0
   62.3570   30.9860   49.1930 C   0  0  0  0  0  0  0  0  0  0  0  0
   62.1630   31.2800   47.8370 C   0  0  0  0  0  0  0  0  0  0  0  0
   63.0320   32.1520   47.1720 C   0  0  0  0  0  0  0  0  0  0  0  0
   64.0920   32.7470   47.8640 C   0  0  0  0  0  0  0  0  0  0  0  0
   64.2730   32.4820   49.2250 C   0  0  0  0  0  0  0  0  0  0  0  0
   63.4070   31.6060   49.8920 C   0  0  0  0  0  0  0  0  0  0  0  0
   60.7340   27.8840   49.0390 C   0  0  0  0  0  0  0  0  0  0  0  0
   59.8340   27.1260   48.2850 C   0  0  0  0  0  0  0  0  0  0  0  0
   57.6100   31.2520   42.9600 C   0  0  0  0  0  0  0  0  0  0  0  0
   58.1890   32.5150   43.1080 C   0  0  0  0  0  0  0  0  0  0  0  0
   58.3300   33.0870   44.3740 C   0  0  0  0  0  0  0  0  0  0  0  0
   58.8300   34.3880   44.4540 O   0  0  0  0  0  0  0  0  0  0  0  0
   60.7800   33.8010   49.8240 C   0  0  0  0  0  0  0  0  0  0  0  0
   61.8700   34.5900   49.1520 C   0  0  0  0  0  0  0  0  0  0  0  0
   60.9280   33.4600   51.1810 C   0  0  0  0  0  0  0  0  0  0  0  0
   59.7282   33.1327   53.9139 H   0  0  0  0  0  0  0  0  0  0  0  0
   59.6247   31.3880   53.4991 H   0  0  0  0  0  0  0  0  0  0  0  0
   61.2176   32.2182   53.4991 H   0  0  0  0  0  0  0  0  0  0  0  0
   58.0495   31.6754   51.6509 H   0  0  0  0  0  0  0  0  0  0  0  0
   57.7349   32.3134   49.2671 H   0  0  0  0  0  0  0  0  0  0  0  0
   56.9745   30.5508   46.2433 H   0  0  0  0  0  0  0  0  0  0  0  0
   56.3619   28.9784   42.8553 H   0  0  0  0  0  0  0  0  0  0  0  0
   55.1590   28.1950   44.8920 H   0  0  0  0  0  0  0  0  0  0  0  0
   57.4634   27.2154   43.7174 H   0  0  0  0  0  0  0  0  0  0  0  0
   58.4888   28.4645   44.5326 H   0  0  0  0  0  0  0  0  0  0  0  0
   57.6673   29.6034   47.3631 H   0  0  0  0  0  0  0  0  0  0  0  0
   59.2645   30.9536   48.7164 H   0  0  0  0  0  0  0  0  0  0  0  0
   61.3235   30.8231   47.2925 H   0  0  0  0  0  0  0  0  0  0  0  0
   62.8815   32.3697   46.1043 H   0  0  0  0  0  0  0  0  0  0  0  0
   64.7825   33.4227   47.3381 H   0  0  0  0  0  0  0  0  0  0  0  0
   65.0970   32.9624   49.7729 H   0  0  0  0  0  0  0  0  0  0  0  0
   63.5488   31.4032   50.9638 H   0  0  0  0  0  0  0  0  0  0  0  0
   61.5874   27.3923   49.5288 H   0  0  0  0  0  0  0  0  0  0  0  0
   59.9665   26.0368   48.2074 H   0  0  0  0  0  0  0  0  0  0  0  0
   57.5027   30.8145   41.9565 H   0  0  0  0  0  0  0  0  0  0  0  0
   58.5366   33.0632   42.2199 H   0  0  0  0  0  0  0  0  0  0  0  0
   59.2880   34.7490   45.2780 H   0  0  0  0  0  0  0  0  0  0  0  0
   62.5111   35.0540   49.9160 H   0  0  0  0  0  0  0  0  0  0  0  0
   62.4747   33.9190   48.5243 H   0  0  0  0  0  0  0  0  0  0  0  0
   61.4214   35.3740   48.5243 H   0  0  0  0  0  0  0  0  0  0  0  0
   61.8147   33.8037   51.7338 H   0  0  0  0  0  0  0  0  0  0  0  0
  1  2  1  0
  2  3  2  0
  3  4  1  0
  4  5  2  0
  5  6  1  0
  6  7  2  0
  6  8  2  0
  6  9  1  0
  9 10  1  0
 10 11  2  0
 11 12  1  0
 12 13  1  0
 13 14  1  0
 13 15  1  0
 15 16  1  0
 16 17  1  0
 17 18  2  0
 17 19  1  0
 19 20  2  0
 20 21  1  0
 21 22  2  0
 22 23  1  0
 23 24  1  0
 24 25  2  0
 25 26  1  0
 26 27  2  0
 27 28  1  0
 28 29  2  0
 22 30  1  0
 30 31  2  0
 12 32  2  0
 32 33  1  0
 33 34  2  0
 34 35  1  0
  5 36  1  0
 36 37  1  0
 36 38  2  0
 38  2  1  0
 34 10  1  0
 31 19  1  0
 29 24  1  0
  1 39  1  0
  1 40  1  0
  1 41  1  0
  3 42  1  0
  4 43  1  0
 11 44  1  0
 13 45  1  6
 14 46  1  0
 15 47  1  0
 15 48  1  0
 20 49  1  0
 21 50  1  0
 25 51  1  0
 26 52  1  0
 27 53  1  0
 28 54  1  0
 29 55  1  0
 30 56  1  0
 31 57  1  0
 32 58  1  0
 33 59  1  0
 35 60  1  0
 37 61  1  0
 37 62  1  0
 37 63  1  0
 38 64  1  0
M  CHG  2   9  -1  16  -1
M  END
>  <UniqueID>  (20) 
18

>  <SMILES>  (20) 
Cc1ccc(S(=O)(=O)[N-]c2cc([C@H](O)C[N-]C(=O)c3ccc(Oc4ccccc4)cc3)ccc2O)c(C)c1

>  <Energy>  (20) 
87.1525433946331

>  <Genealogy>  (20) 
Cc1ccc(S(=O)(=O)[N-]c2cc(C(O)C[N-]C(=O)c3ccc(Oc4ccccc4)cc3)ccc2O)c(C)c1 (protonated)
Cc1ccc(S(=O)(=O)[N-]c2cc([C@H](O)C[N-]C(=O)c3ccc(Oc4ccccc4)cc3)ccc2O)c(C)c1 (chirality)
Cc1ccc(S(=O)(=O)[N-]c2cc([C@H](O)C[N-]C(=O)c3ccc(Oc4ccccc4)cc3)ccc2O)c(C)c1 (3D coordinates assigned)
Cc1ccc(S(=O)(=O)[N-]c2cc([C@H](O)C[N-]C(=O)c3ccc(Oc4ccccc4)cc3)ccc2O)c(C)c1 (optimized conformer: 87.1525433946331 kcal/mol)

>  <smiles>  (20) 
Cc1ccc(S(=O)(=O)Nc2cc(C(O)CNC(=O)c3ccc(Oc4ccccc4)cc3)ccc2O)c(C)c1

>  <score_type>  (20) 
oracle

>  <origin>  (20) 
adg

>  <m_score__min__energy>  (20) 
-12.16

>  <m_primary>  (20) 
energy

$$$$
20:0
     RDKit          3D

 46 48  0  0  0  0  0  0  0  0999 V2000
   59.2270   30.2200   48.3340 C   0  0  0  0  0  0  0  0  0  0  0  0
   58.9120   31.7060   48.1870 C   0  0  0  0  0  0  0  0  0  0  0  0
   58.5490   32.0400   46.7570 C   0  0  0  0  0  0  0  0  0  0  0  0
   58.1870   30.9890   45.8960 C   0  0  0  0  0  0  0  0  0  0  0  0
   57.8190   31.2370   44.5650 C   0  0  0  0  0  0  0  0  0  0  0  0
   57.4900   30.1460   43.6840 N   0  0  0  0  0  0  0  0  0  0  0  0
   57.5530   28.9080   44.4130 C   0  0  0  0  0  0  0  0  0  0  0  0
   58.7780   28.2920   44.6730 C   0  0  0  0  0  0  0  0  0  0  0  0
   58.7960   27.1110   45.4160 C   0  0  0  0  0  0  0  0  0  0  0  0
   59.9060   26.5560   45.6440 O   0  0  0  0  0  0  0  0  0  0  0  0
   57.6260   26.5700   45.8910 N   0  0  0  0  0  0  0  0  0  0  0  0
   57.6400   25.3020   46.6480 C   0  0  0  0  0  0  0  0  0  0  0  0
   57.6860   24.1260   45.7060 C   0  0  0  0  0  0  0  0  0  0  0  0
   58.8700   23.3850   45.5510 C   0  0  0  0  0  0  0  0  0  0  0  0
   58.9020   22.2750   44.7010 C   0  0  0  0  0  0  0  0  0  0  0  0
   57.7520   21.8940   44.0040 C   0  0  0  0  0  0  0  0  0  0  0  0
   56.5700   22.6210   44.1560 C   0  0  0  0  0  0  0  0  0  0  0  0
   56.5340   23.7320   45.0040 C   0  0  0  0  0  0  0  0  0  0  0  0
   56.4360   27.2020   45.6240 C   0  0  0  0  0  0  0  0  0  0  0  0
   55.3460   26.7320   46.0450 O   0  0  0  0  0  0  0  0  0  0  0  0
   56.4150   28.3520   44.9020 N   0  0  0  0  0  0  0  0  0  0  0  0
   57.8270   32.5560   44.0890 C   0  0  0  0  0  0  0  0  0  0  0  0
   58.1700   33.6110   44.9340 C   0  0  0  0  0  0  0  0  0  0  0  0
   58.5190   33.3730   46.2740 C   0  0  0  0  0  0  0  0  0  0  0  0
   58.8940   34.5420   47.1480 C   0  0  0  0  0  0  0  0  0  0  0  0
   59.2820   29.9607   49.4016 H   0  0  0  0  0  0  0  0  0  0  0  0
   58.4344   29.6279   47.8532 H   0  0  0  0  0  0  0  0  0  0  0  0
   60.1917   30.0004   47.8532 H   0  0  0  0  0  0  0  0  0  0  0  0
   58.0667   31.9619   48.8427 H   0  0  0  0  0  0  0  0  0  0  0  0
   59.8041   32.2847   48.4683 H   0  0  0  0  0  0  0  0  0  0  0  0
   58.1924   29.9553   46.2721 H   0  0  0  0  0  0  0  0  0  0  0  0
   56.5250   30.2750   43.2990 H   0  0  0  0  0  0  0  0  0  0  0  0
   58.1460   30.1200   42.8680 H   0  0  0  0  0  0  0  0  0  0  0  0
   59.7146   28.7305   44.2981 H   0  0  0  0  0  0  0  0  0  0  0  0
   58.5260   25.2790   47.2995 H   0  0  0  0  0  0  0  0  0  0  0  0
   56.7233   25.2382   47.2527 H   0  0  0  0  0  0  0  0  0  0  0  0
   59.7760   23.6795   46.1009 H   0  0  0  0  0  0  0  0  0  0  0  0
   59.8329   21.7014   44.5809 H   0  0  0  0  0  0  0  0  0  0  0  0
   57.7783   21.0209   43.3354 H   0  0  0  0  0  0  0  0  0  0  0  0
   55.6654   22.3192   43.6077 H   0  0  0  0  0  0  0  0  0  0  0  0
   55.5997   24.3004   45.1223 H   0  0  0  0  0  0  0  0  0  0  0  0
   57.5608   32.7600   43.0414 H   0  0  0  0  0  0  0  0  0  0  0  0
   58.1673   34.6408   44.5472 H   0  0  0  0  0  0  0  0  0  0  0  0
   58.8015   34.2537   48.2055 H   0  0  0  0  0  0  0  0  0  0  0  0
   59.9323   34.8384   46.9382 H   0  0  0  0  0  0  0  0  0  0  0  0
   58.2219   35.3871   46.9382 H   0  0  0  0  0  0  0  0  0  0  0  0
  1  2  1  0
  2  3  1  0
  3  4  2  0
  4  5  1  0
  5  6  1  0
  6  7  1  0
  7  8  2  0
  8  9  1  0
  9 10  2  0
  9 11  1  0
 11 12  1  0
 12 13  1  0
 13 14  2  0
 14 15  1  0
 15 16  2  0
 16 17  1  0
 17 18  2  0
 11 19  1  0
 19 20  2  0
 19 21  1  0
  5 22  2  0
 22 23  1  0
 23 24  2  0
 24 25  1  0
 24  3  1  0
 21  7  1  0
 18 13  1  0
  1 26  1  0
  1 27  1  0
  1 28  1  0
  2 29  1  0
  2 30  1  0
  4 31  1  0
  6 32  1  0
  6 33  1  0
  8 34  1  0
 12 35  1  0
 12 36  1  0
 14 37  1  0
 15 38  1  0
 16 39  1  0
 17 40  1  0
 18 41  1  0
 22 42  1  0
 23 43  1  0
 25 44  1  0
 25 45  1  0
 25 46  1  0
M  CHG  2   6   1  21  -1
M  END
>  <UniqueID>  (21) 
19

>  <SMILES>  (21) 
CCc1cc([NH2+]c2cc(=O)n(Cc3ccccc3)c(=O)[n-]2)ccc1C

>  <Energy>  (21) 
51.324915148237054

>  <Genealogy>  (21) 
CCc1cc([NH2+]c2cc(=O)n(Cc3ccccc3)c(=O)[n-]2)ccc1C (protonated)
CCc1cc([NH2+]c2cc(=O)n(Cc3ccccc3)c(=O)[n-]2)ccc1C (3D coordinates assigned)
CCc1cc([NH2+]c2cc(=O)n(Cc3ccccc3)c(=O)[n-]2)ccc1C (optimized conformer: 51.324915148237054 kcal/mol)

>  <smiles>  (21) 
CCc1cc(Nc2cc(=O)n(Cc3ccccc3)c(=O)[nH]2)ccc1C

>  <score_type>  (21) 
oracle

>  <origin>  (21) 
adg

>  <m_score__min__energy>  (21) 
-8.3100000000000005

>  <m_primary>  (21) 
energy

$$$$
21:0
     RDKit          3D

 66 69  0  0  0  0  0  0  0  0999 V2000
   58.9150   35.4890   48.3650 H   0  0  0  0  0  0  0  0  0  0  0  0
   58.9450   34.5860   47.9550 O   0  0  0  0  0  0  0  0  0  0  0  0
   60.0870   34.5660   47.1460 C   0  0  0  0  0  0  0  0  0  0  0  0
   60.1796   33.5804   46.6664 H   0  0  0  0  0  0  0  0  0  0  0  0
   60.9772   34.7582   47.7629 H   0  0  0  0  0  0  0  0  0  0  0  0
   59.9680   35.6480   46.0700 C   0  0  0  0  0  0  0  0  0  0  0  0
   60.9765   35.9120   45.7189 H   0  0  0  0  0  0  0  0  0  0  0  0
   59.4618   36.5166   46.5164 H   0  0  0  0  0  0  0  0  0  0  0  0
   59.1340   35.1780   44.8720 C   0  0  0  0  0  0  0  0  0  0  0  0
   59.7969   35.0468   44.0041 H   0  0  0  0  0  0  0  0  0  0  0  0
   58.3660   35.9381   44.6659 H   0  0  0  0  0  0  0  0  0  0  0  0
   58.4620   33.9100   45.1530 N   0  0  0  0  0  0  0  0  0  0  0  0
   58.1370   33.7440   46.1310 H   0  0  0  0  0  0  0  0  0  0  0  0
   58.2380   32.9150   44.1400 C   0  0  0  0  0  0  0  0  0  0  0  0
   58.5360   33.1700   42.9410 O   0  0  0  0  0  0  0  0  0  0  0  0
   57.6450   31.5970   44.4740 C   0  0  0  0  0  0  0  0  0  0  0  0
   57.9630   30.9330   45.6720 C   0  0  0  0  0  0  0  0  0  0  0  0
   58.6601   31.3975   46.3850 H   0  0  0  0  0  0  0  0  0  0  0  0
   57.4000   29.6870   45.9640 C   0  0  0  0  0  0  0  0  0  0  0  0
   57.6395   29.1879   46.9146 H   0  0  0  0  0  0  0  0  0  0  0  0
   56.5290   29.0680   45.0490 C   0  0  0  0  0  0  0  0  0  0  0  0
   55.9110   27.7980   45.3220 N   0  0  0  0  0  0  0  0  0  0  0  0
   56.4120   26.8200   46.0180 C   0  0  0  0  0  0  0  0  0  0  0  0
   55.7370   25.6530   46.1840 N   0  0  0  0  0  0  0  0  0  0  0  0
   56.2590   24.6490   46.9370 C   0  0  0  0  0  0  0  0  0  0  0  0
   55.5340   23.4130   47.0960 N   0  0  0  0  0  0  0  0  0  0  0  0
   55.7200   22.5610   48.2780 C   0  0  0  0  0  0  0  0  0  0  0  0
   56.6452   22.8570   48.7941 H   0  0  0  0  0  0  0  0  0  0  0  0
   54.8536   22.6870   48.9439 H   0  0  0  0  0  0  0  0  0  0  0  0
   55.8200   21.0780   47.8720 C   0  0  0  0  0  0  0  0  0  0  0  0
   56.8619   20.8686   47.5881 H   0  0  0  0  0  0  0  0  0  0  0  0
   55.4860   20.4916   48.7406 H   0  0  0  0  0  0  0  0  0  0  0  0
   54.9410   20.6910   46.7350 N   0  0  0  0  0  0  0  0  0  0  0  0
   55.7210   20.3350   45.5360 C   0  0  0  0  0  0  0  0  0  0  0  0
   56.6825   19.8962   45.8410 H   0  0  0  0  0  0  0  0  0  0  0  0
   55.1584   19.6045   44.9361 H   0  0  0  0  0  0  0  0  0  0  0  0
   55.9042   21.2386   44.9361 H   0  0  0  0  0  0  0  0  0  0  0  0
   53.8880   21.6820   46.4300 C   0  0  0  0  0  0  0  0  0  0  0  0
   53.3206   21.3407   45.5516 H   0  0  0  0  0  0  0  0  0  0  0  0
   53.2346   21.7708   47.3104 H   0  0  0  0  0  0  0  0  0  0  0  0
   54.4820   23.0670   46.1320 C   0  0  0  0  0  0  0  0  0  0  0  0
   54.9110   23.0629   45.1191 H   0  0  0  0  0  0  0  0  0  0  0  0
   53.6787   23.8144   46.2104 H   0  0  0  0  0  0  0  0  0  0  0  0
   57.4680   24.8290   47.5340 N   0  0  0  0  0  0  0  0  0  0  0  0
   58.1520   25.9900   47.3760 C   0  0  0  0  0  0  0  0  0  0  0  0
   59.2930   26.1400   47.9840 N   0  0  0  0  0  0  0  0  0  0  0  0
   59.9110   27.3820   48.3610 C   0  0  0  0  0  0  0  0  0  0  0  0
   60.4340   27.5070   49.6540 C   0  0  0  0  0  0  0  0  0  0  0  0
   60.3457   26.6696   50.3617 H   0  0  0  0  0  0  0  0  0  0  0  0
   61.0670   28.6870   50.0520 C   0  0  0  0  0  0  0  0  0  0  0  0
   61.4570   28.7781   51.0765 H   0  0  0  0  0  0  0  0  0  0  0  0
   61.2090   29.7540   49.1580 C   0  0  0  0  0  0  0  0  0  0  0  0
   61.8480   30.9190   49.6070 O   0  0  0  0  0  0  0  0  0  0  0  0
   62.4450   31.8890   48.7510 C   0  0  0  0  0  0  0  0  0  0  0  0
   62.9252   32.6692   49.3598 H   0  0  0  0  0  0  0  0  0  0  0  0
   63.2002   31.4026   48.1162 H   0  0  0  0  0  0  0  0  0  0  0  0
   61.6705   32.3441   48.1162 H   0  0  0  0  0  0  0  0  0  0  0  0
   60.7140   29.6220   47.8470 C   0  0  0  0  0  0  0  0  0  0  0  0
   60.8260   30.4511   47.1328 H   0  0  0  0  0  0  0  0  0  0  0  0
   60.0800   28.4400   47.4490 C   0  0  0  0  0  0  0  0  0  0  0  0
   59.7117   28.3373   46.4176 H   0  0  0  0  0  0  0  0  0  0  0  0
   57.6120   26.9870   46.6260 N   0  0  0  0  0  0  0  0  0  0  0  0
   56.1960   29.7370   43.8670 C   0  0  0  0  0  0  0  0  0  0  0  0
   55.4864   29.2789   43.1623 H   0  0  0  0  0  0  0  0  0  0  0  0
   56.7570   30.9820   43.5740 C   0  0  0  0  0  0  0  0  0  0  0  0
   56.5017   31.4861   42.6302 H   0  0  0  0  0  0  0  0  0  0  0  0
  1  2  1  0
  2  3  1  0
  3  4  1  0
  3  5  1  0
  3  6  1  0
  6  7  1  0
  6  8  1  0
  6  9  1  0
  9 10  1  0
  9 11  1  0
  9 12  1  0
 12 13  1  0
 12 14  1  0
 14 15  2  0
 14 16  1  0
 16 17  2  0
 17 18  1  0
 17 19  1  0
 19 20  1  0
 19 21  2  0
 21 22  1  0
 22 23  2  3
 23 24  1  0
 24 25  1  0
 25 26  1  0
 26 27  1  0
 27 28  1  0
 27 29  1  0
 27 30  1  0
 30 31  1  0
 30 32  1  0
 30 33  1  0
 33 34  1  0
 34 35  1  0
 34 36  1  0
 34 37  1  0
 33 38  1  0
 38 39  1  0
 38 40  1  0
 38 41  1  0
 41 42  1  0
 41 43  1  0
 25 44  2  0
 44 45  1  0
 45 46  2  0
 46 47  1  0
 47 48  2  0
 48 49  1  0
 48 50  1  0
 50 51  1  0
 50 52  2  0
 52 53  1  0
 53 54  1  0
 54 55  1  0
 54 56  1  0
 54 57  1  0
 52 58  1  0
 58 59  1  0
 58 60  2  0
 60 61  1  0
 45 62  1  0
 21 63  1  0
 63 64  1  0
 63 65  2  0
 65 66  1  0
 65 16  1  0
 62 23  1  0
 41 26  1  0
 60 47  1  0
M  CHG  2  24  -1  62  -1
M  END
>  <UniqueID>  (22) 
20

>  <SMILES>  (22) 
COc1ccc(/N=c2/nc(N3CCN(C)CC3)[n-]c(=Nc3ccc(C(=O)NCCCO)cc3)[n-]2)cc1

>  <Energy>  (22) 
84.30485635918029

>  <Genealogy>  (22) 
COc1ccc(N=c2nc(N3CCN(C)CC3)[n-]c(=Nc3ccc(C(=O)NCCCO)cc3)[n-]2)cc1 (protonated)
COc1ccc(/N=c2/nc(N3CCN(C)CC3)[n-]c(=Nc3ccc(C(=O)NCCCO)cc3)[n-]2)cc1 (cis-trans isomerization)
COc1ccc(/N=c2/nc(N3CCN(C)CC3)[n-]c(=Nc3ccc(C(=O)NCCCO)cc3)[n-]2)cc1 (3D coordinates assigned)
COc1ccc(/N=c2/nc(N3CCN(C)CC3)[n-]c(=Nc3ccc(C(=O)NCCCO)cc3)[n-]2)cc1 (nonaromatic ring conformer: 84.30485635918029 kcal/mol)

>  <smiles>  (22) 
COc1ccc(N=c2nc(N3CCN(C)CC3)[nH]c(=Nc3ccc(C(=O)NCCCO)cc3)[nH]2)cc1

>  <score_type>  (22) 
oracle

>  <origin>  (22) 
adg

>  <m_score__min__energy>  (22) 
-11.02

>  <m_primary>  (22) 
energy

$$$$
22:0
     RDKit          3D

 36 38  0  0  0  0  0  0  0  0999 V2000
   59.8036   35.3864   47.8841 H   0  0  0  0  0  0  0  0  0  0  0  0
   60.0320   34.3240   48.0550 C   0  0  0  0  0  0  0  0  0  0  0  0
   59.0040   33.5000   48.3070 C   0  0  0  0  0  0  0  0  0  0  0  0
   58.2890   33.7919   49.0903 H   0  0  0  0  0  0  0  0  0  0  0  0
   58.7720   32.2230   47.5970 C   0  0  0  0  0  0  0  0  0  0  0  0
   57.9620   32.1420   46.4820 N   0  0  0  0  0  0  0  0  0  0  0  0
   57.1940   33.3130   46.0100 C   0  0  0  0  0  0  0  0  0  0  0  0
   56.7174   33.8065   46.8698 H   0  0  0  0  0  0  0  0  0  0  0  0
   56.4250   32.9772   45.2987 H   0  0  0  0  0  0  0  0  0  0  0  0
   58.0880   34.2630   45.3390 C   0  0  0  0  0  0  0  0  0  0  0  0
   58.7940   35.0120   44.8090 N   0  0  0  0  0  0  0  0  0  0  0  0
   57.7840   30.9280   45.8590 C   0  0  0  0  0  0  0  0  0  0  0  0
   57.0270   30.8360   44.8520 O   0  0  0  0  0  0  0  0  0  0  0  0
   58.4320   29.7790   46.3420 C   0  0  0  0  0  0  0  0  0  0  0  0
   58.2900   28.5230   45.7200 C   0  0  0  0  0  0  0  0  0  0  0  0
   57.6609   28.4228   44.8232 H   0  0  0  0  0  0  0  0  0  0  0  0
   58.9470   27.4030   46.2400 C   0  0  0  0  0  0  0  0  0  0  0  0
   58.8342   26.4242   45.7509 H   0  0  0  0  0  0  0  0  0  0  0  0
   59.7460   27.5250   47.3790 C   0  0  0  0  0  0  0  0  0  0  0  0
   60.2621   26.6423   47.7847 H   0  0  0  0  0  0  0  0  0  0  0  0
   59.8910   28.7660   48.0040 C   0  0  0  0  0  0  0  0  0  0  0  0
   60.5197   28.8575   48.9020 H   0  0  0  0  0  0  0  0  0  0  0  0
   59.2360   29.8980   47.4890 C   0  0  0  0  0  0  0  0  0  0  0  0
   59.3740   31.1060   48.0920 N   0  0  0  0  0  0  0  0  0  0  0  0
   59.9740   31.1890   48.9460 H   0  0  0  0  0  0  0  0  0  0  0  0
   61.4530   33.9080   47.9900 C   0  0  0  0  0  0  0  0  0  0  0  0
   62.0740   33.5710   46.7730 C   0  0  0  0  0  0  0  0  0  0  0  0
   61.5025   33.6202   45.8344 H   0  0  0  0  0  0  0  0  0  0  0  0
   63.4140   33.1740   46.7520 C   0  0  0  0  0  0  0  0  0  0  0  0
   63.8979   32.9263   45.7957 H   0  0  0  0  0  0  0  0  0  0  0  0
   64.1400   33.0910   47.9420 C   0  0  0  0  0  0  0  0  0  0  0  0
   65.1966   32.7859   47.9219 H   0  0  0  0  0  0  0  0  0  0  0  0
   63.5230   33.3960   49.1590 C   0  0  0  0  0  0  0  0  0  0  0  0
   64.0922   33.3228   50.0974 H   0  0  0  0  0  0  0  0  0  0  0  0
   62.1830   33.7940   49.1840 C   0  0  0  0  0  0  0  0  0  0  0  0
   61.6976   34.0192   50.1451 H   0  0  0  0  0  0  0  0  0  0  0  0
  1  2  1  0
  2  3  2  0
  3  4  1  0
  3  5  1  0
  5  6  1  0
  6  7  1  0
  7  8  1  0
  7  9  1  0
  7 10  1  0
 10 11  3  0
  6 12  1  0
 12 13  2  0
 12 14  1  0
 14 15  2  0
 15 16  1  0
 15 17  1  0
 17 18  1  0
 17 19  2  0
 19 20  1  0
 19 21  1  0
 21 22  1  0
 21 23  2  0
 23 24  1  0
 24 25  1  0
  2 26  1  0
 26 27  2  0
 27 28  1  0
 27 29  1  0
 29 30  1  0
 29 31  2  0
 31 32  1  0
 31 33  1  0
 33 34  1  0
 33 35  2  0
 35 36  1  0
 24  5  2  0
 35 26  1  0
 23 14  1  0
M  CHG  1  24   1
M  END
>  <UniqueID>  (23) 
21

>  <SMILES>  (23) 
N#CCn1c(/C=C\c2ccccc2)[nH+]c2ccccc2c1=O

>  <Energy>  (23) 
58.203606795311295

>  <Genealogy>  (23) 
N#CCn1c(C=Cc2ccccc2)[nH+]c2ccccc2c1=O (protonated)
N#CCn1c(/C=C\c2ccccc2)[nH+]c2ccccc2c1=O (cis-trans isomerization)
N#CCn1c(/C=C\c2ccccc2)[nH+]c2ccccc2c1=O (3D coordinates assigned)
N#CCn1c(/C=C\c2ccccc2)[nH+]c2ccccc2c1=O (optimized conformer: 58.203606795311295 kcal/mol)

>  <smiles>  (23) 
N#CCn1c(C=Cc2ccccc2)nc2ccccc2c1=O

>  <score_type>  (23) 
oracle

>  <origin>  (23) 
adg

>  <m_score__min__energy>  (23) 
-5.6200000000000001

>  <m_primary>  (23) 
energy

$$$$
23:0
     RDKit          3D

 61 64  0  0  1  0  0  0  0  0999 V2000
   56.6300   24.2520   44.0540 C   0  0  0  0  0  0  0  0  0  0  0  0
   57.7330   25.1380   43.7530 N   0  0  0  0  0  0  0  0  0  0  0  0
   57.9100   26.2740   44.2990 C   0  0  0  0  0  0  0  0  0  0  0  0
   57.5050   27.3630   43.6250 N   0  0  0  0  0  0  0  0  0  0  0  0
   57.7160   28.5470   44.2170 C   0  0  0  0  0  0  0  0  0  0  0  0
   57.3160   29.5910   43.5740 N   0  0  0  0  0  0  0  0  0  0  0  0
   57.6190   30.9360   43.9440 C   0  0  0  0  0  0  0  0  0  0  0  0
   58.1600   31.7640   42.9780 C   0  0  0  0  0  0  0  0  0  0  0  0
   58.5060   33.0830   43.3010 C   0  0  0  0  0  0  0  0  0  0  0  0
   58.2840   33.5030   44.5970 C   0  0  0  0  0  0  0  0  0  0  0  0
   58.6310   34.9010   45.0480 C   0  0  0  0  0  0  0  0  0  0  0  0
   59.3500   34.8440   46.3200 C   0  0  0  0  0  0  0  0  0  0  0  0
   60.6110   34.9500   46.3200 O   0  0  0  0  0  0  0  0  0  0  0  0
   58.7530   34.6810   47.5640 O   0  0  0  0  0  0  0  0  0  0  0  0
   57.7430   32.6610   45.5460 C   0  0  0  0  0  0  0  0  0  0  0  0
   57.3940   31.3450   45.2410 C   0  0  0  0  0  0  0  0  0  0  0  0
   58.3060   28.6800   45.4310 N   0  0  0  0  0  0  0  0  0  0  0  0
   58.7280   27.6170   46.1470 C   0  0  0  0  0  0  0  0  0  0  0  0
   59.3690   27.7790   47.4450 C   0  0  0  0  0  0  0  0  0  0  0  0
   60.1190   26.7300   47.9800 C   0  0  0  0  0  0  0  0  0  0  0  0
   60.7840   26.8920   49.1450 N   0  0  0  0  0  0  0  0  0  0  0  0
   60.7770   28.0230   49.8550 C   0  0  0  0  0  0  0  0  0  0  0  0
   61.4960   28.1870   51.1030 C   0  0  0  0  0  0  0  0  0  0  0  0
   62.1370   27.0370   51.6760 N   0  0  0  0  0  0  0  0  0  0  0  0
   61.6030   29.2570   51.7330 O   0  0  0  0  0  0  0  0  0  0  0  0
   60.0570   29.0870   49.3780 C   0  0  0  0  0  0  0  0  0  0  0  0
   60.0020   30.3550   49.9900 N   0  0  0  0  0  0  0  0  0  0  0  0
   59.9030   31.8660   49.1970 S   0  0  0  0  0  0  0  0  0  0  0  0
   59.3140   32.9460   50.0990 O   0  0  0  0  0  0  0  0  0  0  0  0
   58.8890   31.7400   48.0460 O   0  0  0  0  0  0  0  0  0  0  0  0
   61.4150   32.3850   48.5000 C   0  0  0  0  0  0  0  0  0  0  0  0
   61.8830   33.6390   48.9330 C   0  0  0  0  0  0  0  0  0  0  0  0
   63.0820   34.1700   48.4550 C   0  0  0  0  0  0  0  0  0  0  0  0
   63.8160   33.4520   47.5450 C   0  0  0  0  0  0  0  0  0  0  0  0
   63.3420   32.2130   47.1250 C   0  0  0  0  0  0  0  0  0  0  0  0
   62.1550   31.6720   47.5900 C   0  0  0  0  0  0  0  0  0  0  0  0
   59.3660   28.9390   48.1750 C   0  0  0  0  0  0  0  0  0  0  0  0
   58.5210   26.3780   45.5560 C   0  0  0  0  0  0  0  0  0  0  0  0
   58.8970   25.2370   46.1280 F   0  0  0  0  0  0  0  0  0  0  0  0
   56.5187   24.1626   45.1447 H   0  0  0  0  0  0  0  0  0  0  0  0
   55.7038   24.6600   43.6231 H   0  0  0  0  0  0  0  0  0  0  0  0
   56.8287   23.2596   43.6231 H   0  0  0  0  0  0  0  0  0  0  0  0
   57.0570   27.2370   42.7000 H   0  0  0  0  0  0  0  0  0  0  0  0
   58.3187   31.3877   41.9566 H   0  0  0  0  0  0  0  0  0  0  0  0
   58.9388   33.7591   42.5490 H   0  0  0  0  0  0  0  0  0  0  0  0
   59.2663   35.3827   44.2901 H   0  0  0  0  0  0  0  0  0  0  0  0
   57.7061   35.4821   45.1779 H   0  0  0  0  0  0  0  0  0  0  0  0
   59.0660   33.8880   48.1450 H   0  0  0  0  0  0  0  0  0  0  0  0
   57.5829   33.0359   46.5677 H   0  0  0  0  0  0  0  0  0  0  0  0
   56.9625   30.6702   45.9950 H   0  0  0  0  0  0  0  0  0  0  0  0
   58.4080   29.6560   45.7730 H   0  0  0  0  0  0  0  0  0  0  0  0
   60.1688   25.7671   47.4506 H   0  0  0  0  0  0  0  0  0  0  0  0
   61.9270   26.0610   51.3790 H   0  0  0  0  0  0  0  0  0  0  0  0
   62.8610   27.1220   52.4370 H   0  0  0  0  0  0  0  0  0  0  0  0
   60.0250   30.3570   51.0490 H   0  0  0  0  0  0  0  0  0  0  0  0
   61.2923   34.2123   49.6627 H   0  0  0  0  0  0  0  0  0  0  0  0
   63.4341   35.1521   48.8036 H   0  0  0  0  0  0  0  0  0  0  0  0
   64.7641   33.8495   47.1537 H   0  0  0  0  0  0  0  0  0  0  0  0
   63.9333   31.6408   46.3950 H   0  0  0  0  0  0  0  0  0  0  0  0
   61.8114   30.6887   47.2365 H   0  0  0  0  0  0  0  0  0  0  0  0
   58.7905   29.7954   47.7937 H   0  0  0  0  0  0  0  0  0  0  0  0
  1  2  1  0
  2  3  2  0
  3  4  1  0
  4  5  1  0
  5  6  2  0
  6  7  1  0
  7  8  2  0
  8  9  1  0
  9 10  2  0
 10 11  1  0
 11 12  1  0
 12 13  2  0
 12 14  1  0
 10 15  1  0
 15 16  2  0
  5 17  1  0
 17 18  1  0
 18 19  1  0
 19 20  2  0
 20 21  1  0
 21 22  2  0
 22 23  1  0
 23 24  1  0
 23 25  2  0
 22 26  1  0
 26 27  1  0
 27 28  1  0
 28 29  2  0
 28 30  2  0
 28 31  1  0
 31 32  2  0
 32 33  1  0
 33 34  2  0
 34 35  1  0
 35 36  2  0
 26 37  2  0
 18 38  2  0
 38 39  1  0
 38  3  1  0
 16  7  1  0
 37 19  1  0
 36 31  1  0
  1 40  1  0
  1 41  1  0
  1 42  1  0
  4 43  1  0
  8 44  1  0
  9 45  1  0
 11 46  1  0
 11 47  1  0
 14 48  1  0
 15 49  1  0
 16 50  1  0
 17 51  1  0
 20 52  1  0
 24 53  1  0
 24 54  1  0
 27 55  1  0
 32 56  1  0
 33 57  1  0
 34 58  1  0
 35 59  1  0
 36 60  1  0
 37 61  1  0
M  END
>  <smiles>  (24) 
CN=c1[nH]c(=Nc2ccc(CC(=O)O)cc2)[nH]c(-c2cnc(C(N)=O)c(NS(=O)(=O)c3ccccc3)c2)c1F

>  <score_type>  (24) 
oracle

>  <origin>  (24) 
adg

>  <m_score__min__energy>  (24) 
-11.44

>  <m_primary>  (24) 
energy

$$$$
24:0
     RDKit          3D

 65 70  0  0  0  0  0  0  0  0999 V2000
   57.6260   32.7600   48.5150 O   0  0  0  0  0  0  0  0  0  0  0  0
   58.4960   32.0040   49.0250 C   0  0  0  0  0  0  0  0  0  0  0  0
   59.2250   31.0590   48.1580 C   0  0  0  0  0  0  0  0  0  0  0  0
   59.9370   29.9990   48.7460 C   0  0  0  0  0  0  0  0  0  0  0  0
   60.6390   29.0920   47.9510 C   0  0  0  0  0  0  0  0  0  0  0  0
   60.6440   29.2340   46.5640 C   0  0  0  0  0  0  0  0  0  0  0  0
   59.9470   30.2850   45.9630 C   0  0  0  0  0  0  0  0  0  0  0  0
   59.2240   31.2050   46.7450 C   0  0  0  0  0  0  0  0  0  0  0  0
   58.5020   32.2820   46.0960 N   0  0  0  0  0  0  0  0  0  0  0  0
   59.4170   33.3510   45.6370 C   0  0  0  0  0  0  0  0  0  0  0  0
   60.4090   33.7220   46.7010 C   0  0  0  0  0  0  0  0  0  0  0  0
   60.1400   34.4380   47.8600 C   0  0  0  0  0  0  0  0  0  0  0  0
   61.1890   34.5460   48.7150 N   0  0  0  0  0  0  0  0  0  0  0  0
   62.2910   33.9250   48.2390 C   0  0  0  0  0  0  0  0  0  0  0  0
   63.4940   33.8840   48.9560 O   0  0  0  0  0  0  0  0  0  0  0  0
   63.9330   32.7980   49.7250 C   0  0  0  0  0  0  0  0  0  0  0  0
   62.9820   31.9130   50.2480 C   0  0  0  0  0  0  0  0  0  0  0  0
   63.3780   30.8290   51.0360 C   0  0  0  0  0  0  0  0  0  0  0  0
   64.7300   30.6290   51.3330 C   0  0  0  0  0  0  0  0  0  0  0  0
   65.6940   31.5240   50.8330 C   0  0  0  0  0  0  0  0  0  0  0  0
   65.2920   32.6020   50.0290 C   0  0  0  0  0  0  0  0  0  0  0  0
   67.1510   31.2970   51.1340 C   0  0  0  0  0  0  0  0  0  0  0  0
   67.3290   30.5430   52.4570 C   0  0  0  0  0  0  0  0  0  0  0  0
   66.4700   29.2620   52.4880 C   0  0  2  0  0  0  0  0  0  0  0  0
   67.0490   28.1730   51.6020 C   0  0  0  0  0  0  0  0  0  0  0  0
   66.2660   27.0400   51.3080 C   0  0  0  0  0  0  0  0  0  0  0  0
   66.7670   26.0190   50.4940 C   0  0  0  0  0  0  0  0  0  0  0  0
   68.0540   26.1200   49.9640 C   0  0  0  0  0  0  0  0  0  0  0  0
   68.8490   27.2340   50.2590 C   0  0  0  0  0  0  0  0  0  0  0  0
   68.3540   28.2520   51.0740 C   0  0  0  0  0  0  0  0  0  0  0  0
   65.1080   29.5530   52.1510 O   0  0  0  0  0  0  0  0  0  0  0  0
   62.0000   33.1820   46.7540 S   0  0  0  0  0  0  0  0  0  0  0  0
   58.7480   32.0640   50.4390 N   0  0  0  0  0  0  0  0  0  0  0  0
   59.8560   32.7530   51.0660 C   0  0  0  0  0  0  0  0  0  0  0  0
   59.8520   32.4520   52.4440 O   0  0  0  0  0  0  0  0  0  0  0  0
   58.8310   31.5020   52.6870 C   0  0  0  0  0  0  0  0  0  0  0  0
   58.0600   31.2520   51.4030 C   0  0  0  0  0  0  0  0  0  0  0  0
   56.7390   31.6550   51.5210 F   0  0  0  0  0  0  0  0  0  0  0  0
   58.1180   29.9150   51.0420 F   0  0  0  0  0  0  0  0  0  0  0  0
   59.9408   29.8838   49.8399 H   0  0  0  0  0  0  0  0  0  0  0  0
   61.1897   28.2631   48.4197 H   0  0  0  0  0  0  0  0  0  0  0  0
   61.1983   28.5165   45.9412 H   0  0  0  0  0  0  0  0  0  0  0  0
   59.9634   30.3945   44.8686 H   0  0  0  0  0  0  0  0  0  0  0  0
   57.9340   31.9060   45.3010 H   0  0  0  0  0  0  0  0  0  0  0  0
   57.8010   32.6840   46.7630 H   0  0  0  0  0  0  0  0  0  0  0  0
   59.9612   32.9983   44.7485 H   0  0  0  0  0  0  0  0  0  0  0  0
   58.8158   34.2414   45.4008 H   0  0  0  0  0  0  0  0  0  0  0  0
   59.1556   34.8822   48.0687 H   0  0  0  0  0  0  0  0  0  0  0  0
   61.9143   32.0725   50.0368 H   0  0  0  0  0  0  0  0  0  0  0  0
   62.6229   30.1298   51.4245 H   0  0  0  0  0  0  0  0  0  0  0  0
   66.0457   33.2989   49.6337 H   0  0  0  0  0  0  0  0  0  0  0  0
   67.5984   30.7066   50.3208 H   0  0  0  0  0  0  0  0  0  0  0  0
   67.6472   32.2750   51.2191 H   0  0  0  0  0  0  0  0  0  0  0  0
   68.3877   30.2682   52.5739 H   0  0  0  0  0  0  0  0  0  0  0  0
   67.0061   31.1993   53.2786 H   0  0  0  0  0  0  0  0  0  0  0  0
   66.4852   28.8738   53.5171 H   0  0  0  0  0  0  0  0  0  0  0  0
   65.2505   26.9572   51.7226 H   0  0  0  0  0  0  0  0  0  0  0  0
   66.1475   25.1376   50.2719 H   0  0  0  0  0  0  0  0  0  0  0  0
   68.4443   25.3233   49.3136 H   0  0  0  0  0  0  0  0  0  0  0  0
   69.8664   27.3066   49.8471 H   0  0  0  0  0  0  0  0  0  0  0  0
   68.9858   29.1220   51.3063 H   0  0  0  0  0  0  0  0  0  0  0  0
   60.8025   32.4184   50.6164 H   0  0  0  0  0  0  0  0  0  0  0  0
   59.7552   33.8384   50.9184 H   0  0  0  0  0  0  0  0  0  0  0  0
   59.2809   30.5602   53.0344 H   0  0  0  0  0  0  0  0  0  0  0  0
   58.1469   31.8863   53.4579 H   0  0  0  0  0  0  0  0  0  0  0  0
  1  2  2  0
  2  3  1  0
  3  4  2  0
  4  5  1  0
  5  6  2  0
  6  7  1  0
  7  8  2  0
  8  9  1  0
  9 10  1  0
 10 11  1  0
 11 12  2  0
 12 13  1  0
 13 14  2  0
 14 15  1  0
 15 16  1  0
 16 17  2  0
 17 18  1  0
 18 19  2  0
 19 20  1  0
 20 21  2  0
 20 22  1  0
 22 23  1  0
 23 24  1  0
 24 25  1  0
 25 26  2  0
 26 27  1  0
 27 28  2  0
 28 29  1  0
 29 30  2  0
 24 31  1  0
 14 32  1  0
  2 33  1  0
 33 34  1  0
 34 35  1  0
 35 36  1  0
 36 37  1  0
 37 38  1  0
 37 39  1  0
  8  3  1  0
 32 11  1  0
 37 33  1  0
 21 16  1  0
 30 25  1  0
 31 19  1  0
  4 40  1  0
  5 41  1  0
  6 42  1  0
  7 43  1  0
  9 44  1  0
  9 45  1  0
 10 46  1  0
 10 47  1  0
 12 48  1  0
 17 49  1  0
 18 50  1  0
 21 51  1  0
 22 52  1  0
 22 53  1  0
 23 54  1  0
 23 55  1  0
 24 56  1  1
 26 57  1  0
 27 58  1  0
 28 59  1  0
 29 60  1  0
 30 61  1  0
 34 62  1  0
 34 63  1  0
 36 64  1  0
 36 65  1  0
M  CHG  1   9   1
M  END
>  <UniqueID>  (25) 
22

>  <SMILES>  (25) 
O=C(c1ccccc1[NH2+]Cc1cnc(Oc2ccc3c(c2)CC[C@H](c2ccccc2)O3)s1)N1COCC1(F)F

>  <Energy>  (25) 
120.04928556442948

>  <Genealogy>  (25) 
O=C(c1ccccc1[NH2+]Cc1cnc(Oc2ccc3c(c2)CCC(c2ccccc2)O3)s1)N1COCC1(F)F (protonated)
O=C(c1ccccc1[NH2+]Cc1cnc(Oc2ccc3c(c2)CC[C@H](c2ccccc2)O3)s1)N1COCC1(F)F (chirality)
O=C(c1ccccc1[NH2+]Cc1cnc(Oc2ccc3c(c2)CC[C@H](c2ccccc2)O3)s1)N1COCC1(F)F (3D coordinates assigned)
O=C(c1ccccc1[NH2+]Cc1cnc(Oc2ccc3c(c2)CC[C@H](c2ccccc2)O3)s1)N1COCC1(F)F (nonaromatic ring conformer: 120.04928556442948 kcal/mol)

>  <smiles>  (25) 
O=C(c1ccccc1NCc1cnc(Oc2ccc3c(c2)CCC(c2ccccc2)O3)s1)N1COCC1(F)F

>  <score_type>  (25) 
oracle

>  <origin>  (25) 
adg

>  <m_score__min__energy>  (25) 
-9.7699999999999996

>  <m_primary>  (25) 
energy

$$$$
25:0
     RDKit          3D

 60 63  0  0  0  0  0  0  0  0999 V2000
   58.1380   26.9980   43.8240 C   0  0  0  0  0  0  0  0  0  0  0  0
   57.4170   27.6830   44.8430 O   0  0  0  0  0  0  0  0  0  0  0  0
   58.0030   28.2780   45.9720 C   0  0  0  0  0  0  0  0  0  0  0  0
   58.3880   27.5150   47.0930 C   0  0  0  0  0  0  0  0  0  0  0  0
   58.9390   28.1350   48.2160 C   0  0  0  0  0  0  0  0  0  0  0  0
   59.1110   29.5190   48.2390 C   0  0  0  0  0  0  0  0  0  0  0  0
   59.7940   30.2950   49.6560 Cl  0  0  0  0  0  0  0  0  0  0  0  0
   58.7350   30.2880   47.1350 C   0  0  0  0  0  0  0  0  0  0  0  0
   58.1880   29.6790   45.9950 C   0  0  0  0  0  0  0  0  0  0  0  0
   57.7010   30.6980   44.6350 S   0  0  0  0  0  0  0  0  0  0  0  0
   56.3250   31.2620   44.8550 O   0  0  0  0  0  0  0  0  0  0  0  0
   57.6620   29.8580   43.3890 O   0  0  0  0  0  0  0  0  0  0  0  0
   58.8260   31.9980   44.3990 N   0  0  0  0  0  0  0  0  0  0  0  0
   59.1100   32.9230   45.4560 C   0  0  0  0  0  0  0  0  0  0  0  0
   60.2740   32.7630   46.2190 C   0  0  0  0  0  0  0  0  0  0  0  0
   60.5510   33.6070   47.3090 C   0  0  0  0  0  0  0  0  0  0  0  0
   61.7340   33.3780   48.1780 C   0  0  0  0  0  0  0  0  0  0  0  0
   63.0260   33.2290   47.6520 C   0  0  0  0  0  0  0  0  0  0  0  0
   64.0900   32.9720   48.5110 C   0  0  0  0  0  0  0  0  0  0  0  0
   63.8570   32.8690   49.8900 C   0  0  0  0  0  0  0  0  0  0  0  0
   64.9280   32.5840   50.8190 N   0  0  0  0  0  0  0  0  0  0  0  0
   65.8160   33.6770   51.2680 C   0  0  0  0  0  0  0  0  0  0  0  0
   67.1640   33.7320   50.5230 C   0  0  0  0  0  0  0  0  0  0  0  0
   68.2410   32.7860   51.0920 C   0  0  0  0  0  0  0  0  0  0  0  0
   67.7190   31.4850   51.7270 C   0  0  0  0  0  0  0  0  0  0  0  0
   66.6460   30.7620   50.8920 C   0  0  0  0  0  0  0  0  0  0  0  0
   65.1950   31.1850   51.1980 C   0  0  0  0  0  0  0  0  0  0  0  0
   62.5870   33.0410   50.3470 N   0  0  0  0  0  0  0  0  0  0  0  0
   61.5660   33.2860   49.5240 N   0  0  0  0  0  0  0  0  0  0  0  0
   59.6540   34.6460   47.6020 C   0  0  0  0  0  0  0  0  0  0  0  0
   58.5140   34.8430   46.8200 C   0  0  0  0  0  0  0  0  0  0  0  0
   58.2260   33.9830   45.7480 C   0  0  0  0  0  0  0  0  0  0  0  0
   56.9770   34.1930   44.9360 C   0  0  0  0  0  0  0  0  0  0  0  0
   58.8617   26.3104   44.2860 H   0  0  0  0  0  0  0  0  0  0  0  0
   57.4360   26.4261   43.1994 H   0  0  0  0  0  0  0  0  0  0  0  0
   58.6733   27.7283   43.1994 H   0  0  0  0  0  0  0  0  0  0  0  0
   58.2533   26.4233   47.0829 H   0  0  0  0  0  0  0  0  0  0  0  0
   59.2383   27.5305   49.0849 H   0  0  0  0  0  0  0  0  0  0  0  0
   58.8687   31.3796   47.1594 H   0  0  0  0  0  0  0  0  0  0  0  0
   59.0480   32.2650   43.4150 H   0  0  0  0  0  0  0  0  0  0  0  0
   60.9836   31.9631   45.9609 H   0  0  0  0  0  0  0  0  0  0  0  0
   63.1966   33.3147   46.5687 H   0  0  0  0  0  0  0  0  0  0  0  0
   65.1074   32.8504   48.1110 H   0  0  0  0  0  0  0  0  0  0  0  0
   65.2948   34.6330   51.1120 H   0  0  0  0  0  0  0  0  0  0  0  0
   66.0440   33.4884   52.3275 H   0  0  0  0  0  0  0  0  0  0  0  0
   66.9881   33.4613   49.4714 H   0  0  0  0  0  0  0  0  0  0  0  0
   67.5486   34.7557   50.6415 H   0  0  0  0  0  0  0  0  0  0  0  0
   68.9189   32.5125   50.2700 H   0  0  0  0  0  0  0  0  0  0  0  0
   68.7285   33.3422   51.9062 H   0  0  0  0  0  0  0  0  0  0  0  0
   68.5700   30.8012   51.8619 H   0  0  0  0  0  0  0  0  0  0  0  0
   67.2434   31.7659   52.6783 H   0  0  0  0  0  0  0  0  0  0  0  0
   66.8449   30.9652   49.8294 H   0  0  0  0  0  0  0  0  0  0  0  0
   66.7188   29.6954   51.1508 H   0  0  0  0  0  0  0  0  0  0  0  0
   64.5104   30.5303   50.6389 H   0  0  0  0  0  0  0  0  0  0  0  0
   65.0403   31.0952   52.2834 H   0  0  0  0  0  0  0  0  0  0  0  0
   59.8509   35.3113   48.4556 H   0  0  0  0  0  0  0  0  0  0  0  0
   57.8357   35.6791   47.0457 H   0  0  0  0  0  0  0  0  0  0  0  0
   56.1206   34.3370   45.6112 H   0  0  0  0  0  0  0  0  0  0  0  0
   57.0975   35.0835   44.3016 H   0  0  0  0  0  0  0  0  0  0  0  0
   56.7997   33.3121   44.3016 H   0  0  0  0  0  0  0  0  0  0  0  0
  1  2  1  0
  2  3  1  0
  3  4  2  0
  4  5  1  0
  5  6  2  0
  6  7  1  0
  6  8  1  0
  8  9  2  0
  9 10  1  0
 10 11  2  0
 10 12  2  0
 10 13  1  0
 13 14  1  0
 14 15  2  0
 15 16  1  0
 16 17  1  0
 17 18  2  0
 18 19  1  0
 19 20  2  0
 20 21  1  0
 21 22  1  0
 22 23  1  0
 23 24  1  0
 24 25  1  0
 25 26  1  0
 26 27  1  0
 20 28  1  0
 28 29  2  0
 16 30  2  0
 30 31  1  0
 31 32  2  0
 32 33  1  0
  9  3  1  0
 32 14  1  0
 29 17  1  0
 27 21  1  0
  1 34  1  0
  1 35  1  0
  1 36  1  0
  4 37  1  0
  5 38  1  0
  8 39  1  0
 13 40  1  0
 15 41  1  0
 18 42  1  0
 19 43  1  0
 22 44  1  0
 22 45  1  0
 23 46  1  0
 23 47  1  0
 24 48  1  0
 24 49  1  0
 25 50  1  0
 25 51  1  0
 26 52  1  0
 26 53  1  0
 27 54  1  0
 27 55  1  0
 30 56  1  0
 31 57  1  0
 33 58  1  0
 33 59  1  0
 33 60  1  0
M  END
>  <UniqueID>  (26) 
23

>  <SMILES>  (26) 
COc1ccc(Cl)cc1S(=O)(=O)Nc1cc(-c2ccc(N3CCCCCC3)nn2)ccc1C

>  <Energy>  (26) 
79.05722714687413

>  <Genealogy>  (26) 
COc1ccc(Cl)cc1S(=O)(=O)Nc1cc(-c2ccc(N3CCCCCC3)nn2)ccc1C (3D coordinates assigned)
COc1ccc(Cl)cc1S(=O)(=O)Nc1cc(-c2ccc(N3CCCCCC3)nn2)ccc1C (nonaromatic ring conformer: 79.05722714687413 kcal/mol)

>  <smiles>  (26) 
COc1ccc(Cl)cc1S(=O)(=O)Nc1cc(-c2ccc(N3CCCCCC3)nn2)ccc1C

>  <score_type>  (26) 
oracle

>  <origin>  (26) 
adg

>  <m_score__min__energy>  (26) 
-7.8600000000000003

>  <m_primary>  (26) 
energy

$$$$
26:0
     RDKit          3D

 32 33  0  0  0  0  0  0  0  0999 V2000
   56.7412   28.9060   43.4833 H   0  0  0  0  0  0  0  0  0  0  0  0
   57.0160   29.4240   44.4140 C   0  0  0  0  0  0  0  0  0  0  0  0
   56.3070   30.4300   44.8270 N   0  0  0  0  0  0  0  0  0  0  0  0
   56.6300   31.7580   44.5970 O   0  0  0  0  0  0  0  0  0  0  0  0
   57.3620   32.5530   45.4890 C   0  0  0  0  0  0  0  0  0  0  0  0
   57.0670   33.7670   45.6540 O   0  0  0  0  0  0  0  0  0  0  0  0
   58.4610   31.9670   46.2010 N   0  0  0  0  0  0  0  0  0  0  0  0
   58.5180   30.9240   46.2120 H   0  0  0  0  0  0  0  0  0  0  0  0
   59.4000   32.7090   46.9960 C   0  0  0  0  0  0  0  0  0  0  0  0
   58.9700   33.6190   47.9780 C   0  0  0  0  0  0  0  0  0  0  0  0
   57.8949   33.7501   48.1704 H   0  0  0  0  0  0  0  0  0  0  0  0
   59.9030   34.3570   48.7100 C   0  0  0  0  0  0  0  0  0  0  0  0
   59.5598   35.0649   49.4788 H   0  0  0  0  0  0  0  0  0  0  0  0
   61.2690   34.2000   48.4700 C   0  0  0  0  0  0  0  0  0  0  0  0
   61.9971   34.7899   49.0461 H   0  0  0  0  0  0  0  0  0  0  0  0
   61.7190   33.2920   47.4960 C   0  0  0  0  0  0  0  0  0  0  0  0
   63.1920   33.1660   47.1920 C   0  0  0  0  0  0  0  0  0  0  0  0
   63.5530   31.8360   47.0560 F   0  0  0  0  0  0  0  0  0  0  0  0
   63.9190   33.7270   48.2260 F   0  0  0  0  0  0  0  0  0  0  0  0
   63.5040   33.8220   46.0140 F   0  0  0  0  0  0  0  0  0  0  0  0
   60.7740   32.5740   46.7430 C   0  0  0  0  0  0  0  0  0  0  0  0
   61.1155   31.8978   45.9454 H   0  0  0  0  0  0  0  0  0  0  0  0
   58.1840   28.9740   45.1840 C   0  0  0  0  0  0  0  0  0  0  0  0
   58.1050   28.8500   46.5390 N   0  0  0  0  0  0  0  0  0  0  0  0
   59.1640   28.4380   47.2860 C   0  0  0  0  0  0  0  0  0  0  0  0
   59.0649   28.3498   48.3780 H   0  0  0  0  0  0  0  0  0  0  0  0
   60.3760   28.1270   46.6690 C   0  0  0  0  0  0  0  0  0  0  0  0
   61.2356   27.7932   47.2687 H   0  0  0  0  0  0  0  0  0  0  0  0
   60.4860   28.2440   45.2820 C   0  0  0  0  0  0  0  0  0  0  0  0
   61.4352   28.0012   44.7819 H   0  0  0  0  0  0  0  0  0  0  0  0
   59.3880   28.6700   44.5310 C   0  0  0  0  0  0  0  0  0  0  0  0
   59.4665   28.7662   43.4380 H   0  0  0  0  0  0  0  0  0  0  0  0
  1  2  1  0
  2  3  2  0
  3  4  1  0
  4  5  1  0
  5  6  2  0
  5  7  1  0
  7  8  1  0
  7  9  1  0
  9 10  2  0
 10 11  1  0
 10 12  1  0
 12 13  1  0
 12 14  2  0
 14 15  1  0
 14 16  1  0
 16 17  1  0
 17 18  1  0
 17 19  1  0
 17 20  1  0
 16 21  2  0
 21 22  1  0
  2 23  1  0
 23 24  2  0
 24 25  1  0
 25 26  1  0
 25 27  2  0
 27 28  1  0
 27 29  1  0
 29 30  1  0
 29 31  2  0
 31 32  1  0
 21  9  1  0
 31 23  1  0
M  END
>  <UniqueID>  (27) 
24

>  <SMILES>  (27) 
O=C(Nc1cccc(C(F)(F)F)c1)O/N=C/c1ccccn1

>  <Energy>  (27) 
41.25710797437523

>  <Genealogy>  (27) 
O=C(Nc1cccc(C(F)(F)F)c1)O/N=C/c1ccccn1 (cis-trans isomerization)
O=C(Nc1cccc(C(F)(F)F)c1)O/N=C/c1ccccn1 (3D coordinates assigned)
O=C(Nc1cccc(C(F)(F)F)c1)O/N=C/c1ccccn1 (optimized conformer: 41.25710797437523 kcal/mol)

>  <smiles>  (27) 
O=C(Nc1cccc(C(F)(F)F)c1)ON=Cc1ccccn1

>  <score_type>  (27) 
oracle

>  <origin>  (27) 
adg

>  <m_score__min__energy>  (27) 
-6.5300000000000002

>  <m_primary>  (27) 
energy

$$$$
27:0
     RDKit          3D

 33 34  0  0  0  0  0  0  0  0999 V2000
   56.6600   34.1760   44.8680 O   0  0  0  0  0  0  0  0  0  0  0  0
   57.5780   32.9930   44.7410 S   0  0  0  0  0  0  0  0  0  0  0  0
   58.2600   33.0610   43.4020 O   0  0  0  0  0  0  0  0  0  0  0  0
   56.6490   31.5330   44.8770 N   0  0  0  0  0  0  0  0  0  0  0  0
   56.6030   30.8210   43.6000 C   0  0  0  0  0  0  0  0  0  0  0  0
   55.5430   29.7210   43.6470 C   0  0  0  0  0  0  0  0  0  0  0  0
   55.6200   28.9930   44.8750 O   0  0  0  0  0  0  0  0  0  0  0  0
   56.7040   28.2100   45.3060 C   0  0  0  0  0  0  0  0  0  0  0  0
   58.0440   28.6350   45.1980 C   0  0  0  0  0  0  0  0  0  0  0  0
   59.0820   27.8090   45.6390 C   0  0  0  0  0  0  0  0  0  0  0  0
   58.7970   26.5610   46.1990 C   0  0  0  0  0  0  0  0  0  0  0  0
   57.4710   26.1390   46.3230 C   0  0  0  0  0  0  0  0  0  0  0  0
   56.4300   26.9600   45.8780 C   0  0  0  0  0  0  0  0  0  0  0  0
   55.1470   26.5330   45.9920 F   0  0  0  0  0  0  0  0  0  0  0  0
   58.7700   33.0400   46.0380 C   0  0  0  0  0  0  0  0  0  0  0  0
   59.1440   34.2690   46.6000 C   0  0  0  0  0  0  0  0  0  0  0  0
   60.0710   34.3100   47.6450 C   0  0  0  0  0  0  0  0  0  0  0  0
   60.6160   33.1240   48.1450 C   0  0  0  0  0  0  0  0  0  0  0  0
   60.2400   31.8960   47.5940 C   0  0  0  0  0  0  0  0  0  0  0  0
   59.3210   31.8520   46.5400 C   0  0  0  0  0  0  0  0  0  0  0  0
   56.3549   31.5307   42.7970 H   0  0  0  0  0  0  0  0  0  0  0  0
   57.5853   30.3649   43.4077 H   0  0  0  0  0  0  0  0  0  0  0  0
   54.5459   30.1773   43.5603 H   0  0  0  0  0  0  0  0  0  0  0  0
   55.7199   29.0254   42.8134 H   0  0  0  0  0  0  0  0  0  0  0  0
   58.2735   29.6199   44.7652 H   0  0  0  0  0  0  0  0  0  0  0  0
   60.1260   28.1424   45.5449 H   0  0  0  0  0  0  0  0  0  0  0  0
   59.6159   25.9114   46.5419 H   0  0  0  0  0  0  0  0  0  0  0  0
   57.2455   25.1600   46.7711 H   0  0  0  0  0  0  0  0  0  0  0  0
   58.7067   35.2030   46.2174 H   0  0  0  0  0  0  0  0  0  0  0  0
   60.3721   35.2769   48.0746 H   0  0  0  0  0  0  0  0  0  0  0  0
   61.3406   33.1572   48.9719 H   0  0  0  0  0  0  0  0  0  0  0  0
   60.6672   30.9627   47.9895 H   0  0  0  0  0  0  0  0  0  0  0  0
   59.0303   30.8846   46.1046 H   0  0  0  0  0  0  0  0  0  0  0  0
  1  2  2  0
  2  3  2  0
  2  4  1  0
  4  5  1  0
  5  6  1  0
  6  7  1  0
  7  8  1  0
  8  9  2  0
  9 10  1  0
 10 11  2  0
 11 12  1  0
 12 13  2  0
 13 14  1  0
  2 15  1  0
 15 16  2  0
 16 17  1  0
 17 18  2  0
 18 19  1  0
 19 20  2  0
 13  8  1  0
 20 15  1  0
  5 21  1  0
  5 22  1  0
  6 23  1  0
  6 24  1  0
  9 25  1  0
 10 26  1  0
 11 27  1  0
 12 28  1  0
 16 29  1  0
 17 30  1  0
 18 31  1  0
 19 32  1  0
 20 33  1  0
M  CHG  1   4  -1
M  END
>  <UniqueID>  (28) 
25

>  <SMILES>  (28) 
O=S(=O)([N-]CCOc1ccccc1F)c1ccccc1

>  <Energy>  (28) 
28.965645747330324

>  <Genealogy>  (28) 
O=S(=O)([N-]CCOc1ccccc1F)c1ccccc1 (protonated)
O=S(=O)([N-]CCOc1ccccc1F)c1ccccc1 (3D coordinates assigned)
O=S(=O)([N-]CCOc1ccccc1F)c1ccccc1 (optimized conformer: 28.965645747330324 kcal/mol)

>  <smiles>  (28) 
O=S(=O)(NCCOc1ccccc1F)c1ccccc1

>  <score_type>  (28) 
oracle

>  <origin>  (28) 
adg

>  <m_score__min__energy>  (28) 
-8.6500000000000004

>  <m_primary>  (28) 
energy

$$$$
28:0
     RDKit          3D

 48 51  0  0  0  0  0  0  0  0999 V2000
   60.4310   30.0370   51.6630 C   0  0  0  0  0  0  0  0  0  0  0  0
   60.0920   29.5080   50.2900 C   0  0  0  0  0  0  0  0  0  0  0  0
   59.5210   30.3290   49.2830 C   0  0  0  0  0  0  0  0  0  0  0  0
   59.2490   31.8100   49.4930 C   0  0  0  0  0  0  0  0  0  0  0  0
   59.8730   32.6840   48.4170 C   0  0  0  0  0  0  0  0  0  0  0  0
   61.2460   32.9770   48.5150 C   0  0  0  0  0  0  0  0  0  0  0  0
   61.8970   33.7060   47.5220 C   0  0  0  0  0  0  0  0  0  0  0  0
   61.1950   34.1670   46.4140 C   0  0  0  0  0  0  0  0  0  0  0  0
   59.8180   33.9320   46.3010 C   0  0  0  0  0  0  0  0  0  0  0  0
   59.1160   34.4180   45.1880 C   0  0  0  0  0  0  0  0  0  0  0  0
   57.7410   34.2140   45.0800 C   0  0  0  0  0  0  0  0  0  0  0  0
   57.0520   33.5400   46.0870 C   0  0  0  0  0  0  0  0  0  0  0  0
   57.7370   33.0480   47.2010 C   0  0  0  0  0  0  0  0  0  0  0  0
   59.1340   33.2090   47.3180 C   0  0  0  0  0  0  0  0  0  0  0  0
   59.1870   29.7690   48.0830 N   0  0  0  0  0  0  0  0  0  0  0  0
   59.4820   28.4760   47.7990 C   0  0  0  0  0  0  0  0  0  0  0  0
   59.1440   27.8080   46.1690 S   0  0  0  0  0  0  0  0  0  0  0  0
   57.5130   28.6200   46.0160 C   0  0  0  0  0  0  0  0  0  0  0  0
   57.4680   29.5270   44.8160 C   0  0  0  0  0  0  0  0  0  0  0  0
   58.3930   30.5750   44.6870 C   0  0  0  0  0  0  0  0  0  0  0  0
   58.3340   31.4370   43.5880 C   0  0  0  0  0  0  0  0  0  0  0  0
   57.3450   31.2620   42.6100 C   0  0  0  0  0  0  0  0  0  0  0  0
   57.2850   32.1510   41.4790 C   0  0  0  0  0  0  0  0  0  0  0  0
   57.2340   32.8660   40.5710 N   0  0  0  0  0  0  0  0  0  0  0  0
   56.4150   30.2220   42.7370 C   0  0  0  0  0  0  0  0  0  0  0  0
   56.4750   29.3600   43.8350 C   0  0  0  0  0  0  0  0  0  0  0  0
   60.0770   27.6930   48.7300 N   0  0  0  0  0  0  0  0  0  0  0  0
   60.3850   28.1720   49.9590 C   0  0  0  0  0  0  0  0  0  0  0  0
   60.9420   27.4060   50.7910 O   0  0  0  0  0  0  0  0  0  0  0  0
   60.0045   29.3715   52.4280 H   0  0  0  0  0  0  0  0  0  0  0  0
   61.5239   30.0779   51.7806 H   0  0  0  0  0  0  0  0  0  0  0  0
   60.0115   31.0471   51.7806 H   0  0  0  0  0  0  0  0  0  0  0  0
   58.1609   31.9711   49.4889 H   0  0  0  0  0  0  0  0  0  0  0  0
   59.7013   32.0959   50.4541 H   0  0  0  0  0  0  0  0  0  0  0  0
   61.8139   32.6251   49.3889 H   0  0  0  0  0  0  0  0  0  0  0  0
   62.9724   33.9180   47.6152 H   0  0  0  0  0  0  0  0  0  0  0  0
   61.7229   34.7188   45.6223 H   0  0  0  0  0  0  0  0  0  0  0  0
   59.6527   34.9624   44.3970 H   0  0  0  0  0  0  0  0  0  0  0  0
   57.1987   34.5858   44.1981 H   0  0  0  0  0  0  0  0  0  0  0  0
   55.9648   33.3949   46.0043 H   0  0  0  0  0  0  0  0  0  0  0  0
   57.1810   32.5293   47.9958 H   0  0  0  0  0  0  0  0  0  0  0  0
   58.7200   30.3440   47.3460 H   0  0  0  0  0  0  0  0  0  0  0  0
   56.7361   27.8482   45.9120 H   0  0  0  0  0  0  0  0  0  0  0  0
   57.3391   29.2257   46.9176 H   0  0  0  0  0  0  0  0  0  0  0  0
   59.1680   30.7186   45.4543 H   0  0  0  0  0  0  0  0  0  0  0  0
   59.0645   32.2536   43.4905 H   0  0  0  0  0  0  0  0  0  0  0  0
   55.6370   30.0839   41.9717 H   0  0  0  0  0  0  0  0  0  0  0  0
   55.7413   28.5463   43.9324 H   0  0  0  0  0  0  0  0  0  0  0  0
  1  2  1  0
  2  3  2  0
  3  4  1  0
  4  5  1  0
  5  6  2  0
  6  7  1  0
  7  8  2  0
  8  9  1  0
  9 10  2  0
 10 11  1  0
 11 12  2  0
 12 13  1  0
 13 14  2  0
  3 15  1  0
 15 16  1  0
 16 17  1  0
 17 18  1  0
 18 19  1  0
 19 20  2  0
 20 21  1  0
 21 22  2  0
 22 23  1  0
 23 24  3  0
 22 25  1  0
 25 26  2  0
 16 27  2  0
 27 28  1  0
 28 29  2  0
 28  2  1  0
 14  5  1  0
 26 19  1  0
 14  9  1  0
  1 30  1  0
  1 31  1  0
  1 32  1  0
  4 33  1  0
  4 34  1  0
  6 35  1  0
  7 36  1  0
  8 37  1  0
 10 38  1  0
 11 39  1  0
 12 40  1  0
 13 41  1  0
 15 42  1  0
 18 43  1  0
 18 44  1  0
 20 45  1  0
 21 46  1  0
 25 47  1  0
 26 48  1  0
M  END
>  <UniqueID>  (29) 
26

>  <SMILES>  (29) 
Cc1c(Cc2cccc3ccccc23)[nH]c(SCc2ccc(C#N)cc2)nc1=O

>  <Energy>  (29) 
53.297778032721446

>  <Genealogy>  (29) 
Cc1c(Cc2cccc3ccccc23)[nH]c(SCc2ccc(C#N)cc2)nc1=O (3D coordinates assigned)
Cc1c(Cc2cccc3ccccc23)[nH]c(SCc2ccc(C#N)cc2)nc1=O (optimized conformer: 53.297778032721446 kcal/mol)

>  <smiles>  (29) 
Cc1c(Cc2cccc3ccccc23)[nH]c(SCc2ccc(C#N)cc2)nc1=O

>  <score_type>  (29) 
oracle

>  <origin>  (29) 
adg

>  <m_score__min__energy>  (29) 
-9.4800000000000004

>  <m_primary>  (29) 
energy

$$$$
29:0
     RDKit          3D

 56 59  0  0  0  0  0  0  0  0999 V2000
   64.5660   33.0220   49.9460 C   0  0  0  0  0  0  0  0  0  0  0  0
   64.2480   33.0350   48.5030 N   0  0  0  0  0  0  0  0  0  0  0  0
   63.6700   31.7230   48.1500 C   0  0  0  0  0  0  0  0  0  0  0  0
   63.3490   34.1860   48.1880 C   0  0  2  0  0  0  0  0  0  0  0  0
   62.4000   34.5950   49.3360 C   0  0  0  0  0  0  0  0  0  0  0  0
   61.1580   33.7430   49.1580 C   0  0  0  0  0  0  0  0  0  0  0  0
   61.1200   33.4190   47.7410 N   0  0  0  0  0  0  0  0  0  0  0  0
   59.9890   32.8230   47.0590 C   0  0  0  0  0  0  0  0  0  0  0  0
   59.6020   33.2960   45.7880 C   0  0  0  0  0  0  0  0  0  0  0  0
   58.5270   32.7210   45.1060 C   0  0  0  0  0  0  0  0  0  0  0  0
   57.8240   31.6520   45.6650 C   0  0  0  0  0  0  0  0  0  0  0  0
   56.7440   31.0650   44.9250 N   0  0  0  0  0  0  0  0  0  0  0  0
   56.3800   29.6770   44.9220 C   0  0  0  0  0  0  0  0  0  0  0  0
   55.1670   29.3740   44.7660 O   0  0  0  0  0  0  0  0  0  0  0  0
   57.3880   28.5970   45.0550 C   0  0  0  0  0  0  0  0  0  0  0  0
   58.7480   28.9160   45.1900 C   0  0  0  0  0  0  0  0  0  0  0  0
   59.7040   27.9030   45.2840 C   0  0  0  0  0  0  0  0  0  0  0  0
   59.3160   26.5630   45.2460 C   0  0  0  0  0  0  0  0  0  0  0  0
   57.9580   26.2190   45.1320 C   0  0  0  0  0  0  0  0  0  0  0  0
   57.5400   24.7950   45.0790 C   0  0  0  0  0  0  0  0  0  0  0  0
   57.7450   23.9470   46.1820 C   0  0  0  0  0  0  0  0  0  0  0  0
   57.3380   22.6110   46.1340 C   0  0  0  0  0  0  0  0  0  0  0  0
   56.7220   22.1080   44.9870 C   0  0  0  0  0  0  0  0  0  0  0  0
   56.5110   22.9360   43.8810 C   0  0  0  0  0  0  0  0  0  0  0  0
   55.8910   22.4210   42.7450 O   0  0  0  0  0  0  0  0  0  0  0  0
   56.9200   24.2760   43.9270 C   0  0  0  0  0  0  0  0  0  0  0  0
   56.9990   27.2450   45.0530 C   0  0  0  0  0  0  0  0  0  0  0  0
   58.1760   31.1930   46.9440 C   0  0  0  0  0  0  0  0  0  0  0  0
   59.2510   31.7630   47.6330 C   0  0  0  0  0  0  0  0  0  0  0  0
   59.5690   31.2510   48.8470 F   0  0  0  0  0  0  0  0  0  0  0  0
   62.3620   33.7910   47.0730 C   0  0  0  0  0  0  0  0  0  0  0  0
   63.6330   33.0601   50.5274 H   0  0  0  0  0  0  0  0  0  0  0  0
   65.1142   32.1007   50.1924 H   0  0  0  0  0  0  0  0  0  0  0  0
   65.1875   33.8955   50.1924 H   0  0  0  0  0  0  0  0  0  0  0  0
   63.4265   31.1703   49.0694 H   0  0  0  0  0  0  0  0  0  0  0  0
   62.7545   31.8727   47.5588 H   0  0  0  0  0  0  0  0  0  0  0  0
   64.3984   31.1485   47.5588 H   0  0  0  0  0  0  0  0  0  0  0  0
   64.0469   34.9999   47.9420 H   0  0  0  0  0  0  0  0  0  0  0  0
   62.8675   34.3941   50.3113 H   0  0  0  0  0  0  0  0  0  0  0  0
   62.1653   35.6693   49.3083 H   0  0  0  0  0  0  0  0  0  0  0  0
   61.2289   32.8263   49.7619 H   0  0  0  0  0  0  0  0  0  0  0  0
   60.2482   34.2677   49.4851 H   0  0  0  0  0  0  0  0  0  0  0  0
   60.1539   34.1287   45.3276 H   0  0  0  0  0  0  0  0  0  0  0  0
   58.2322   33.1132   44.1215 H   0  0  0  0  0  0  0  0  0  0  0  0
   59.0623   29.9697   45.2219 H   0  0  0  0  0  0  0  0  0  0  0  0
   60.7679   28.1622   45.3885 H   0  0  0  0  0  0  0  0  0  0  0  0
   60.0774   25.7714   45.3056 H   0  0  0  0  0  0  0  0  0  0  0  0
   58.2292   24.3381   47.0890 H   0  0  0  0  0  0  0  0  0  0  0  0
   57.5033   21.9549   47.0013 H   0  0  0  0  0  0  0  0  0  0  0  0
   56.4015   21.0563   44.9534 H   0  0  0  0  0  0  0  0  0  0  0  0
   56.2100   22.6620   41.8130 H   0  0  0  0  0  0  0  0  0  0  0  0
   56.7551   24.9270   43.0558 H   0  0  0  0  0  0  0  0  0  0  0  0
   55.9316   26.9870   44.9889 H   0  0  0  0  0  0  0  0  0  0  0  0
   57.6013   30.3780   47.4082 H   0  0  0  0  0  0  0  0  0  0  0  0
   62.7561   32.9393   46.4992 H   0  0  0  0  0  0  0  0  0  0  0  0
   62.2042   34.6188   46.3660 H   0  0  0  0  0  0  0  0  0  0  0  0
  1  2  1  0
  2  3  1  0
  2  4  1  0
  4  5  1  0
  5  6  1  0
  6  7  1  0
  7  8  1  0
  8  9  2  0
  9 10  1  0
 10 11  2  0
 11 12  1  0
 12 13  1  0
 13 14  2  0
 13 15  1  0
 15 16  2  0
 16 17  1  0
 17 18  2  0
 18 19  1  0
 19 20  1  0
 20 21  2  0
 21 22  1  0
 22 23  2  0
 23 24  1  0
 24 25  1  0
 24 26  2  0
 19 27  2  0
 11 28  1  0
 28 29  2  0
 29 30  1  0
  7 31  1  0
 31  4  1  0
 29  8  1  0
 27 15  1  0
 26 20  1  0
  1 32  1  0
  1 33  1  0
  1 34  1  0
  3 35  1  0
  3 36  1  0
  3 37  1  0
  4 38  1  6
  5 39  1  0
  5 40  1  0
  6 41  1  0
  6 42  1  0
  9 43  1  0
 10 44  1  0
 16 45  1  0
 17 46  1  0
 18 47  1  0
 21 48  1  0
 22 49  1  0
 23 50  1  0
 25 51  1  0
 26 52  1  0
 27 53  1  0
 28 54  1  0
 31 55  1  0
 31 56  1  0
M  CHG  1  12  -1
M  END
>  <UniqueID>  (30) 
27

>  <SMILES>  (30) 
CN(C)[C@@H]1CCN(c2ccc([N-]C(=O)c3cccc(-c4cccc(O)c4)c3)cc2F)C1

>  <Energy>  (30) 
82.85594309902446

>  <Genealogy>  (30) 
CN(C)C1CCN(c2ccc([N-]C(=O)c3cccc(-c4cccc(O)c4)c3)cc2F)C1 (protonated)
CN(C)[C@@H]1CCN(c2ccc([N-]C(=O)c3cccc(-c4cccc(O)c4)c3)cc2F)C1 (chirality)
CN(C)[C@@H]1CCN(c2ccc([N-]C(=O)c3cccc(-c4cccc(O)c4)c3)cc2F)C1 (3D coordinates assigned)
CN(C)[C@@H]1CCN(c2ccc([N-]C(=O)c3cccc(-c4cccc(O)c4)c3)cc2F)C1 (nonaromatic ring conformer: 82.85594309902446 kcal/mol)

>  <smiles>  (30) 
CN(C)C1CCN(c2ccc(NC(=O)c3cccc(-c4cccc(O)c4)c3)cc2F)C1

>  <score_type>  (30) 
oracle

>  <origin>  (30) 
adg

>  <m_score__min__energy>  (30) 
-11.039999999999999

>  <m_primary>  (30) 
energy

$$$$
30:0
     RDKit          3D

 35 36  0  0  0  0  0  0  0  0999 V2000
   63.2630   33.4620   50.4920 C   0  0  0  0  0  0  0  0  0  0  0  0
   62.8620   33.5800   49.0830 N   0  0  0  0  0  0  0  0  0  0  0  0
   63.7410   33.2160   48.1020 C   0  0  0  0  0  0  0  0  0  0  0  0
   63.3890   33.3220   46.7600 C   0  0  0  0  0  0  0  0  0  0  0  0
   62.1310   33.8070   46.4150 C   0  0  0  0  0  0  0  0  0  0  0  0
   61.2250   34.1950   47.4140 C   0  0  0  0  0  0  0  0  0  0  0  0
   59.9160   34.7080   47.0870 N   0  0  0  0  0  0  0  0  0  0  0  0
   59.3440   34.7140   45.7390 C   0  0  0  0  0  0  0  0  0  0  0  0
   58.6770   33.3970   45.4380 C   0  0  0  0  0  0  0  0  0  0  0  0
   58.6750   32.3630   46.3880 C   0  0  0  0  0  0  0  0  0  0  0  0
   58.0530   31.1440   46.1020 C   0  0  0  0  0  0  0  0  0  0  0  0
   57.4240   30.9440   44.8660 C   0  0  0  0  0  0  0  0  0  0  0  0
   56.6320   29.4130   44.5160 S   0  0  0  0  0  0  0  0  0  0  0  0
   56.8330   29.0320   42.8410 N   0  0  0  0  0  0  0  0  0  0  0  0
   57.2370   28.3220   45.3540 O   0  0  0  0  0  0  0  0  0  0  0  0
   55.1670   29.5130   44.8400 O   0  0  0  0  0  0  0  0  0  0  0  0
   57.4080   31.9810   43.9240 C   0  0  0  0  0  0  0  0  0  0  0  0
   58.0300   33.2010   44.2080 C   0  0  0  0  0  0  0  0  0  0  0  0
   61.6190   34.0690   48.7640 C   0  0  0  0  0  0  0  0  0  0  0  0
   60.8220   34.4130   49.6790 O   0  0  0  0  0  0  0  0  0  0  0  0
   62.4092   33.7132   51.1385 H   0  0  0  0  0  0  0  0  0  0  0  0
   63.5864   32.4306   50.6960 H   0  0  0  0  0  0  0  0  0  0  0  0
   64.0935   34.1538   50.6960 H   0  0  0  0  0  0  0  0  0  0  0  0
   64.7362   32.8356   48.3758 H   0  0  0  0  0  0  0  0  0  0  0  0
   64.1010   33.0241   45.9762 H   0  0  0  0  0  0  0  0  0  0  0  0
   61.8458   33.8865   45.3556 H   0  0  0  0  0  0  0  0  0  0  0  0
   59.3420   35.1510   47.8390 H   0  0  0  0  0  0  0  0  0  0  0  0
   58.5998   35.5207   45.6661 H   0  0  0  0  0  0  0  0  0  0  0  0
   60.1536   34.8749   45.0119 H   0  0  0  0  0  0  0  0  0  0  0  0
   59.1649   32.5127   47.3614 H   0  0  0  0  0  0  0  0  0  0  0  0
   58.0574   30.3382   46.8508 H   0  0  0  0  0  0  0  0  0  0  0  0
   57.8390   29.1860   42.6120 H   0  0  0  0  0  0  0  0  0  0  0  0
   56.6530   28.0080   42.7380 H   0  0  0  0  0  0  0  0  0  0  0  0
   56.9042   31.8350   42.9571 H   0  0  0  0  0  0  0  0  0  0  0  0
   58.0121   34.0108   43.4638 H   0  0  0  0  0  0  0  0  0  0  0  0
  1  2  1  0
  2  3  1  0
  3  4  2  0
  4  5  1  0
  5  6  2  0
  6  7  1  0
  7  8  1  0
  8  9  1  0
  9 10  2  0
 10 11  1  0
 11 12  2  0
 12 13  1  0
 13 14  1  0
 13 15  2  0
 13 16  2  0
 12 17  1  0
 17 18  2  0
  6 19  1  0
 19 20  2  0
 19  2  1  0
 18  9  1  0
  1 21  1  0
  1 22  1  0
  1 23  1  0
  3 24  1  0
  4 25  1  0
  5 26  1  0
  7 27  1  0
  8 28  1  0
  8 29  1  0
 10 30  1  0
 11 31  1  0
 14 32  1  0
 14 33  1  0
 17 34  1  0
 18 35  1  0
M  END
>  <UniqueID>  (31) 
28

>  <SMILES>  (31) 
Cn1cccc(NCc2ccc(S(N)(=O)=O)cc2)c1=O

>  <Energy>  (31) 
36.09856005837316

>  <Genealogy>  (31) 
Cn1cccc(NCc2ccc(S(N)(=O)=O)cc2)c1=O (3D coordinates assigned)
Cn1cccc(NCc2ccc(S(N)(=O)=O)cc2)c1=O (optimized conformer: 36.09856005837316 kcal/mol)

>  <smiles>  (31) 
Cn1cccc(NCc2ccc(S(N)(=O)=O)cc2)c1=O

>  <score_type>  (31) 
oracle

>  <origin>  (31) 
adg

>  <m_score__min__energy>  (31) 
-7.9500000000000002

>  <m_primary>  (31) 
energy

$$$$
31:0
     RDKit          3D

 50 52  0  0  0  0  0  0  0  0999 V2000
   58.4380   34.6020   44.9140 C   0  0  0  0  0  0  0  0  0  0  0  0
   58.2780   33.1360   45.1950 C   0  0  0  0  0  0  0  0  0  0  0  0
   57.3210   32.3630   44.5660 C   0  0  0  0  0  0  0  0  0  0  0  0
   57.4600   31.0880   45.0580 C   0  0  0  0  0  0  0  0  0  0  0  0
   56.6550   29.9160   44.6510 C   0  0  0  0  0  0  0  0  0  0  0  0
   55.6900   30.0960   43.8590 O   0  0  0  0  0  0  0  0  0  0  0  0
   56.9320   28.5500   45.1560 C   0  0  0  0  0  0  0  0  0  0  0  0
   58.2420   28.0380   45.1560 C   0  0  0  0  0  0  0  0  0  0  0  0
   58.4810   26.7250   45.6160 C   0  0  0  0  0  0  0  0  0  0  0  0
   59.6690   26.1860   45.6590 N   0  0  0  0  0  0  0  0  0  0  0  0
   60.7660   26.4730   46.5440 C   0  0  0  0  0  0  0  0  0  0  0  0
   61.9090   25.9860   46.3230 O   0  0  0  0  0  0  0  0  0  0  0  0
   60.5330   27.2690   47.7730 C   0  0  0  0  0  0  0  0  0  0  0  0
   60.8420   26.7360   49.0390 C   0  0  0  0  0  0  0  0  0  0  0  0
   60.6230   27.4880   50.1970 C   0  0  0  0  0  0  0  0  0  0  0  0
   60.0970   28.7790   50.1100 C   0  0  0  0  0  0  0  0  0  0  0  0
   59.8850   29.5180   51.2720 O   0  0  0  0  0  0  0  0  0  0  0  0
   59.7870   29.3190   48.8540 C   0  0  0  0  0  0  0  0  0  0  0  0
   60.0040   28.5700   47.6940 C   0  0  0  0  0  0  0  0  0  0  0  0
   57.3990   25.9720   46.0870 C   0  0  0  0  0  0  0  0  0  0  0  0
   56.1130   26.5090   46.0600 C   0  0  0  0  0  0  0  0  0  0  0  0
   55.9090   27.7670   45.5950 N   0  0  0  0  0  0  0  0  0  0  0  0
   58.5140   31.1220   45.9510 C   0  0  0  0  0  0  0  0  0  0  0  0
   59.0390   32.3720   46.0330 N   0  0  0  0  0  0  0  0  0  0  0  0
   60.1320   32.7910   46.9590 C   0  0  0  0  0  0  0  0  0  0  0  0
   60.9160   34.0020   46.3880 C   0  0  0  0  0  0  0  0  0  0  0  0
   61.1240   31.6270   47.1400 C   0  0  0  0  0  0  0  0  0  0  0  0
   59.5690   33.2260   48.3330 C   0  0  0  0  0  0  0  0  0  0  0  0
   58.4981   35.1530   45.8641 H   0  0  0  0  0  0  0  0  0  0  0  0
   59.3594   34.7661   44.3360 H   0  0  0  0  0  0  0  0  0  0  0  0
   57.5737   34.9610   44.3360 H   0  0  0  0  0  0  0  0  0  0  0  0
   56.5902   32.7024   43.8172 H   0  0  0  0  0  0  0  0  0  0  0  0
   59.0772   28.6584   44.7989 H   0  0  0  0  0  0  0  0  0  0  0  0
   61.2586   25.7210   49.1175 H   0  0  0  0  0  0  0  0  0  0  0  0
   60.8660   27.0610   51.1812 H   0  0  0  0  0  0  0  0  0  0  0  0
   60.5870   29.5720   52.0000 H   0  0  0  0  0  0  0  0  0  0  0  0
   59.3718   30.3350   48.7812 H   0  0  0  0  0  0  0  0  0  0  0  0
   59.7593   29.0011   46.7120 H   0  0  0  0  0  0  0  0  0  0  0  0
   57.5635   24.9572   46.4782 H   0  0  0  0  0  0  0  0  0  0  0  0
   55.2613   25.9112   46.4167 H   0  0  0  0  0  0  0  0  0  0  0  0
   58.8788   30.2535   46.5191 H   0  0  0  0  0  0  0  0  0  0  0  0
   61.3087   34.6086   47.2174 H   0  0  0  0  0  0  0  0  0  0  0  0
   61.7515   33.6399   45.7709 H   0  0  0  0  0  0  0  0  0  0  0  0
   60.2436   34.6161   45.7709 H   0  0  0  0  0  0  0  0  0  0  0  0
   61.2811   31.4426   48.2130 H   0  0  0  0  0  0  0  0  0  0  0  0
   60.7161   30.7209   46.6681 H   0  0  0  0  0  0  0  0  0  0  0  0
   62.0833   31.8860   46.6681 H   0  0  0  0  0  0  0  0  0  0  0  0
   60.1643   32.7660   49.1355 H   0  0  0  0  0  0  0  0  0  0  0  0
   59.6203   34.3213   48.4202 H   0  0  0  0  0  0  0  0  0  0  0  0
   58.5221   32.8999   48.4202 H   0  0  0  0  0  0  0  0  0  0  0  0
  1  2  1  0
  2  3  2  0
  3  4  1  0
  4  5  1  0
  5  6  2  0
  5  7  1  0
  7  8  2  0
  8  9  1  0
  9 10  2  3
 10 11  1  0
 11 12  2  0
 11 13  1  0
 13 14  2  0
 14 15  1  0
 15 16  2  0
 16 17  1  0
 16 18  1  0
 18 19  2  0
  9 20  1  0
 20 21  2  0
 21 22  1  0
  4 23  2  0
 23 24  1  0
 24 25  1  0
 25 26  1  0
 25 27  1  0
 25 28  1  0
 24  2  1  0
 22  7  1  0
 19 13  1  0
  1 29  1  0
  1 30  1  0
  1 31  1  0
  3 32  1  0
  8 33  1  0
 14 34  1  0
 15 35  1  0
 17 36  1  0
 18 37  1  0
 19 38  1  0
 20 39  1  0
 21 40  1  0
 23 41  1  0
 26 42  1  0
 26 43  1  0
 26 44  1  0
 27 45  1  0
 27 46  1  0
 27 47  1  0
 28 48  1  0
 28 49  1  0
 28 50  1  0
M  CHG  1  22  -1
M  END
>  <UniqueID>  (32) 
29

>  <SMILES>  (32) 
Cc1cc(C(=O)c2cc(=NC(=O)c3ccc(O)cc3)cc[n-]2)cn1C(C)(C)C

>  <Energy>  (32) 
91.76783931683104

>  <Genealogy>  (32) 
Cc1cc(C(=O)c2cc(=NC(=O)c3ccc(O)cc3)cc[n-]2)cn1C(C)(C)C (protonated)
Cc1cc(C(=O)c2cc(=NC(=O)c3ccc(O)cc3)cc[n-]2)cn1C(C)(C)C (3D coordinates assigned)
Cc1cc(C(=O)c2cc(=NC(=O)c3ccc(O)cc3)cc[n-]2)cn1C(C)(C)C (optimized conformer: 91.76783931683104 kcal/mol)

>  <smiles>  (32) 
Cc1cc(C(=O)c2cc(=NC(=O)c3ccc(O)cc3)cc[nH]2)cn1C(C)(C)C

>  <score_type>  (32) 
oracle

>  <origin>  (32) 
adg

>  <m_score__min__energy>  (32) 
-10.359999999999999

>  <m_primary>  (32) 
energy

$$$$
32:0
     RDKit          3D

 51 53  0  0  0  0  0  0  0  0999 V2000
   57.3500   33.6300   44.8970 C   0  0  0  0  0  0  0  0  0  0  0  0
   58.4970   32.9690   45.6020 C   0  0  0  0  0  0  0  0  0  0  0  0
   58.8550   31.6370   45.5040 C   0  0  0  0  0  0  0  0  0  0  0  0
   58.2460   30.6650   44.6430 N   0  0  0  0  0  0  0  0  0  0  0  0
   57.3050   29.6550   45.0270 C   0  0  0  0  0  0  0  0  0  0  0  0
   56.0710   29.9160   45.0170 O   0  0  0  0  0  0  0  0  0  0  0  0
   57.7660   28.2840   45.3790 C   0  0  0  0  0  0  0  0  0  0  0  0
   59.1450   28.0100   45.4200 C   0  0  0  0  0  0  0  0  0  0  0  0
   59.6090   26.7380   45.7460 C   0  0  0  0  0  0  0  0  0  0  0  0
   58.7090   25.7170   46.0420 C   0  0  0  0  0  0  0  0  0  0  0  0
   59.1830   24.4870   46.3610 F   0  0  0  0  0  0  0  0  0  0  0  0
   57.3290   25.9530   46.0140 C   0  0  0  0  0  0  0  0  0  0  0  0
   56.4630   24.8510   46.3320 N   0  0  0  0  0  0  0  0  0  0  0  0
   54.9380   24.4510   45.6090 S   0  0  0  0  0  0  0  0  0  0  0  0
   55.1590   24.0090   44.1890 O   0  0  0  0  0  0  0  0  0  0  0  0
   54.0320   25.6520   45.6360 O   0  0  0  0  0  0  0  0  0  0  0  0
   54.2100   23.1430   46.5060 N   0  0  0  0  0  0  0  0  0  0  0  0
   52.8520   22.9030   46.0000 C   0  0  0  0  0  0  0  0  0  0  0  0
   55.0260   21.9320   46.3520 C   0  0  0  0  0  0  0  0  0  0  0  0
   56.8540   27.2430   45.6750 C   0  0  0  0  0  0  0  0  0  0  0  0
   55.5230   27.4870   45.6210 F   0  0  0  0  0  0  0  0  0  0  0  0
   59.9770   31.5120   46.3020 C   0  0  0  0  0  0  0  0  0  0  0  0
   60.6900   30.4800   46.4320 O   0  0  0  0  0  0  0  0  0  0  0  0
   60.2510   32.7010   46.8760 N   0  0  0  0  0  0  0  0  0  0  0  0
   61.3620   32.9750   47.7480 C   0  0  0  0  0  0  0  0  0  0  0  0
   61.1390   33.2840   49.0990 C   0  0  0  0  0  0  0  0  0  0  0  0
   62.2180   33.5410   49.9510 C   0  0  0  0  0  0  0  0  0  0  0  0
   63.5260   33.4860   49.4610 C   0  0  0  0  0  0  0  0  0  0  0  0
   63.7560   33.1700   48.1190 C   0  0  0  0  0  0  0  0  0  0  0  0
   62.6790   32.9110   47.2650 C   0  0  0  0  0  0  0  0  0  0  0  0
   59.3420   33.5840   46.4650 N   0  0  0  0  0  0  0  0  0  0  0  0
   59.2840   34.9920   46.8660 C   0  0  0  0  0  0  0  0  0  0  0  0
   56.6472   34.0350   45.6400 H   0  0  0  0  0  0  0  0  0  0  0  0
   57.7292   34.4481   44.2670 H   0  0  0  0  0  0  0  0  0  0  0  0
   56.8323   32.8917   44.2670 H   0  0  0  0  0  0  0  0  0  0  0  0
   59.8652   28.8096   45.1920 H   0  0  0  0  0  0  0  0  0  0  0  0
   60.6906   26.5389   45.7698 H   0  0  0  0  0  0  0  0  0  0  0  0
   52.1612   22.7809   46.8473 H   0  0  0  0  0  0  0  0  0  0  0  0
   52.5326   23.7586   45.3869 H   0  0  0  0  0  0  0  0  0  0  0  0
   52.8452   21.9897   45.3869 H   0  0  0  0  0  0  0  0  0  0  0  0
   55.2905   21.5394   47.3449 H   0  0  0  0  0  0  0  0  0  0  0  0
   54.4545   21.1728   45.7979 H   0  0  0  0  0  0  0  0  0  0  0  0
   55.9442   22.1766   45.7979 H   0  0  0  0  0  0  0  0  0  0  0  0
   60.1113   33.3242   49.4892 H   0  0  0  0  0  0  0  0  0  0  0  0
   62.0371   33.7867   51.0078 H   0  0  0  0  0  0  0  0  0  0  0  0
   64.3738   33.6913   50.1311 H   0  0  0  0  0  0  0  0  0  0  0  0
   64.7854   33.1249   47.7340 H   0  0  0  0  0  0  0  0  0  0  0  0
   62.8643   32.6562   46.2111 H   0  0  0  0  0  0  0  0  0  0  0  0
   59.2812   35.0608   47.9638 H   0  0  0  0  0  0  0  0  0  0  0  0
   60.1610   35.5231   46.4676 H   0  0  0  0  0  0  0  0  0  0  0  0
   58.3663   35.4492   46.4676 H   0  0  0  0  0  0  0  0  0  0  0  0
  1  2  1  0
  2  3  2  0
  3  4  1  0
  4  5  1  0
  5  6  2  0
  5  7  1  0
  7  8  2  0
  8  9  1  0
  9 10  2  0
 10 11  1  0
 10 12  1  0
 12 13  1  0
 13 14  1  0
 14 15  2  0
 14 16  2  0
 14 17  1  0
 17 18  1  0
 17 19  1  0
 12 20  2  0
 20 21  1  0
  3 22  1  0
 22 23  2  0
 22 24  1  0
 24 25  1  0
 25 26  2  0
 26 27  1  0
 27 28  2  0
 28 29  1  0
 29 30  2  0
 24 31  1  0
 31 32  1  0
 31  2  1  0
 20  7  1  0
 30 25  1  0
  1 33  1  0
  1 34  1  0
  1 35  1  0
  8 36  1  0
  9 37  1  0
 18 38  1  0
 18 39  1  0
 18 40  1  0
 19 41  1  0
 19 42  1  0
 19 43  1  0
 26 44  1  0
 27 45  1  0
 28 46  1  0
 29 47  1  0
 30 48  1  0
 32 49  1  0
 32 50  1  0
 32 51  1  0
M  CHG  2   4  -1  13  -1
M  END
>  <UniqueID>  (33) 
30

>  <SMILES>  (33) 
Cc1c([N-]C(=O)c2ccc(F)c([N-]S(=O)(=O)N(C)C)c2F)c(=O)n(-c2ccccc2)n1C

>  <Energy>  (33) 
101.78421071679773

>  <Genealogy>  (33) 
Cc1c([N-]C(=O)c2ccc(F)c([N-]S(=O)(=O)N(C)C)c2F)c(=O)n(-c2ccccc2)n1C (protonated)
Cc1c([N-]C(=O)c2ccc(F)c([N-]S(=O)(=O)N(C)C)c2F)c(=O)n(-c2ccccc2)n1C (3D coordinates assigned)
Cc1c([N-]C(=O)c2ccc(F)c([N-]S(=O)(=O)N(C)C)c2F)c(=O)n(-c2ccccc2)n1C (optimized conformer: 101.78421071679773 kcal/mol)

>  <smiles>  (33) 
Cc1c(NC(=O)c2ccc(F)c(NS(=O)(=O)N(C)C)c2F)c(=O)n(-c2ccccc2)n1C

>  <score_type>  (33) 
oracle

>  <origin>  (33) 
adg

>  <m_score__min__energy>  (33) 
-12.630000000000001

>  <m_primary>  (33) 
energy

$$$$
33:0
     RDKit          3D

 50 53  0  0  0  0  0  0  0  0999 V2000
   51.3880   32.0030   50.4990 C   0  0  0  0  0  0  0  0  0  0  0  0
   51.7200   31.6100   51.8610 N   0  0  0  0  0  0  0  0  0  0  0  0
   52.3690   30.3860   52.2280 C   0  0  0  0  0  0  0  0  0  0  0  0
   51.6600   29.3690   52.4480 O   0  0  0  0  0  0  0  0  0  0  0  0
   53.8380   30.2660   52.3180 C   0  0  0  0  0  0  0  0  0  0  0  0
   54.4320   29.1760   52.9730 C   0  0  0  0  0  0  0  0  0  0  0  0
   55.8230   29.0620   53.0300 C   0  0  0  0  0  0  0  0  0  0  0  0
   56.6410   30.0140   52.3970 C   0  0  0  0  0  0  0  0  0  0  0  0
   58.1140   29.8930   52.4270 C   0  0  0  0  0  0  0  0  0  0  0  0
   58.8680   29.5570   51.3690 C   0  0  0  0  0  0  0  0  0  0  0  0
   59.3800   30.5190   50.3750 C   0  0  0  0  0  0  0  0  0  0  0  0
   60.5910   30.4590   50.0310 O   0  0  0  0  0  0  0  0  0  0  0  0
   58.5400   31.5680   49.8680 N   0  0  0  0  0  0  0  0  0  0  0  0
   58.6830   32.1460   48.5610 C   0  0  0  0  0  0  0  0  0  0  0  0
   59.2930   33.4110   48.4310 C   0  0  0  0  0  0  0  0  0  0  0  0
   59.4090   34.0230   47.1780 C   0  0  0  0  0  0  0  0  0  0  0  0
   58.8890   33.3660   46.0680 C   0  0  0  0  0  0  0  0  0  0  0  0
   58.8940   33.9120   44.4760 S   0  0  0  0  0  0  0  0  0  0  0  0
   58.0750   32.5670   43.8840 C   0  0  0  0  0  0  0  0  0  0  0  0
   57.7090   32.3340   42.5630 C   0  0  0  0  0  0  0  0  0  0  0  0
   57.0160   31.1590   42.2600 C   0  0  0  0  0  0  0  0  0  0  0  0
   56.6940   30.2410   43.2740 C   0  0  0  0  0  0  0  0  0  0  0  0
   57.0660   30.4820   44.6180 C   0  0  0  0  0  0  0  0  0  0  0  0
   56.7410   29.5870   45.6450 O   0  0  0  0  0  0  0  0  0  0  0  0
   57.3510   27.9980   45.8040 S   0  0  0  0  0  0  0  0  0  0  0  0
   56.0270   26.9040   45.9860 N   0  0  0  0  0  0  0  0  0  0  0  0
   58.2370   27.9090   47.0150 O   0  0  0  0  0  0  0  0  0  0  0  0
   58.1330   27.6250   44.5760 O   0  0  0  0  0  0  0  0  0  0  0  0
   57.7760   31.6680   44.9120 C   0  0  0  0  0  0  0  0  0  0  0  0
   58.2540   32.1280   46.1630 C   0  0  0  0  0  0  0  0  0  0  0  0
   58.1540   31.5050   47.4190 C   0  0  0  0  0  0  0  0  0  0  0  0
   56.0480   31.1090   51.7550 C   0  0  0  0  0  0  0  0  0  0  0  0
   54.6570   31.2260   51.7030 C   0  0  0  0  0  0  0  0  0  0  0  0
   50.6783   32.8431   50.5225 H   0  0  0  0  0  0  0  0  0  0  0  0
   52.3035   32.3110   49.9728 H   0  0  0  0  0  0  0  0  0  0  0  0
   50.9313   31.1518   49.9728 H   0  0  0  0  0  0  0  0  0  0  0  0
   53.7997   28.4085   53.4433 H   0  0  0  0  0  0  0  0  0  0  0  0
   56.2810   28.2224   53.5734 H   0  0  0  0  0  0  0  0  0  0  0  0
   58.6261   30.0916   53.3800 H   0  0  0  0  0  0  0  0  0  0  0  0
   59.1207   28.4949   51.2342 H   0  0  0  0  0  0  0  0  0  0  0  0
   57.7800   31.9290   50.4900 H   0  0  0  0  0  0  0  0  0  0  0  0
   59.6817   33.9220   49.3242 H   0  0  0  0  0  0  0  0  0  0  0  0
   59.9004   35.0016   47.0733 H   0  0  0  0  0  0  0  0  0  0  0  0
   57.9594   33.0585   41.7740 H   0  0  0  0  0  0  0  0  0  0  0  0
   56.7206   30.9513   41.2210 H   0  0  0  0  0  0  0  0  0  0  0  0
   56.1452   29.3223   43.0196 H   0  0  0  0  0  0  0  0  0  0  0  0
   55.1620   27.4840   46.0650 H   0  0  0  0  0  0  0  0  0  0  0  0
   57.6663   30.5234   47.5120 H   0  0  0  0  0  0  0  0  0  0  0  0
   56.6803   31.8797   51.2900 H   0  0  0  0  0  0  0  0  0  0  0  0
   54.2000   32.0767   51.1762 H   0  0  0  0  0  0  0  0  0  0  0  0
  1  2  1  0
  2  3  1  0
  3  4  2  0
  3  5  1  0
  5  6  2  0
  6  7  1  0
  7  8  2  0
  8  9  1  0
  9 10  2  3
 10 11  1  0
 11 12  2  0
 11 13  1  0
 13 14  1  0
 14 15  2  0
 15 16  1  0
 16 17  2  0
 17 18  1  0
 18 19  1  0
 19 20  2  0
 20 21  1  0
 21 22  2  0
 22 23  1  0
 23 24  1  0
 24 25  1  0
 25 26  1  0
 25 27  2  0
 25 28  2  0
 23 29  2  0
 29 30  1  0
 30 31  2  0
  8 32  1  0
 32 33  2  0
 33  5  1  0
 31 14  1  0
 30 17  1  0
 29 19  1  0
  1 34  1  0
  1 35  1  0
  1 36  1  0
  6 37  1  0
  7 38  1  0
  9 39  1  0
 10 40  1  0
 13 41  1  0
 15 42  1  0
 16 43  1  0
 20 44  1  0
 21 45  1  0
 22 46  1  0
 26 47  1  0
 31 48  1  0
 32 49  1  0
 33 50  1  0
M  CHG  2   2  -1  26  -1
M  END
>  <UniqueID>  (34) 
31

>  <SMILES>  (34) 
C[N-]C(=O)c1ccc(C=CC(=O)Nc2ccc3sc4cccc(OS([NH-])(=O)=O)c4c3c2)cc1

>  <Energy>  (34) 
102.98631793441191

>  <Genealogy>  (34) 
C[N-]C(=O)c1ccc(C=CC(=O)Nc2ccc3sc4cccc(OS([NH-])(=O)=O)c4c3c2)cc1 (protonated)
C[N-]C(=O)c1ccc(C=CC(=O)Nc2ccc3sc4cccc(OS([NH-])(=O)=O)c4c3c2)cc1 (3D coordinates assigned)
C[N-]C(=O)c1ccc(C=CC(=O)Nc2ccc3sc4cccc(OS([NH-])(=O)=O)c4c3c2)cc1 (optimized conformer: 102.98631793441191 kcal/mol)

>  <smiles>  (34) 
CNC(=O)c1ccc(C=CC(=O)Nc2ccc3sc4cccc(OS(N)(=O)=O)c4c3c2)cc1

>  <score_type>  (34) 
oracle

>  <origin>  (34) 
adg

>  <m_score__min__energy>  (34) 
-15.08

>  <m_primary>  (34) 
energy

$$$$
34:0
     RDKit          3D

 55 58  0  0  0  0  0  0  0  0999 V2000
   57.6888   31.8729   42.2746 H   0  0  0  0  0  0  0  0  0  0  0  0
   57.4260   31.5950   43.3060 C   0  0  0  0  0  0  0  0  0  0  0  0
   57.0260   30.3660   43.7860 C   0  0  0  0  0  0  0  0  0  0  0  0
   56.7950   29.1410   42.9670 C   0  0  0  0  0  0  0  0  0  0  0  0
   56.6327   28.2803   43.6324 H   0  0  0  0  0  0  0  0  0  0  0  0
   55.9084   29.2861   42.3323 H   0  0  0  0  0  0  0  0  0  0  0  0
   57.6736   28.9532   42.3323 H   0  0  0  0  0  0  0  0  0  0  0  0
   56.7820   30.4470   45.1090 N   0  0  0  0  0  0  0  0  0  0  0  0
   57.0360   31.6730   45.4620 O   0  0  0  0  0  0  0  0  0  0  0  0
   57.4170   32.3920   44.4320 C   0  0  0  0  0  0  0  0  0  0  0  0
   57.7980   33.8380   44.5000 C   0  0  0  0  0  0  0  0  0  0  0  0
   58.4482   34.0764   43.6453 H   0  0  0  0  0  0  0  0  0  0  0  0
   56.8765   34.4381   44.4722 H   0  0  0  0  0  0  0  0  0  0  0  0
   58.5440   34.1650   45.7990 C   0  0  0  0  0  0  0  0  0  0  0  0
   58.4510   35.2428   45.9981 H   0  0  0  0  0  0  0  0  0  0  0  0
   58.0937   33.5662   46.6044 H   0  0  0  0  0  0  0  0  0  0  0  0
   60.0390   33.8030   45.7240 C   0  0  0  0  0  0  0  0  0  0  0  0
   60.2591   33.4162   44.7180 H   0  0  0  0  0  0  0  0  0  0  0  0
   60.6166   34.7139   45.9399 H   0  0  0  0  0  0  0  0  0  0  0  0
   60.4360   32.7370   46.7620 C   0  0  0  0  0  0  0  0  0  0  0  0
   59.8859   31.8114   46.5370 H   0  0  0  0  0  0  0  0  0  0  0  0
   61.5257   32.6061   46.6879 H   0  0  0  0  0  0  0  0  0  0  0  0
   60.1300   33.1430   48.2120 C   0  0  0  0  0  0  0  0  0  0  0  0
   61.0746   33.3831   48.7221 H   0  0  0  0  0  0  0  0  0  0  0  0
   59.4614   34.0162   48.1903 H   0  0  0  0  0  0  0  0  0  0  0  0
   59.4730   32.0970   48.9240 O   0  0  0  0  0  0  0  0  0  0  0  0
   59.3520   30.7760   48.4710 C   0  0  0  0  0  0  0  0  0  0  0  0
   60.1240   29.7250   48.9450 C   0  0  0  0  0  0  0  0  0  0  0  0
   61.3810   29.8050   50.1650 Cl  0  0  0  0  0  0  0  0  0  0  0  0
   59.7270   28.6230   48.2210 C   0  0  0  0  0  0  0  0  0  0  0  0
   60.1630   27.3010   48.2540 C   0  0  0  0  0  0  0  0  0  0  0  0
   60.9534   26.9810   48.9489 H   0  0  0  0  0  0  0  0  0  0  0  0
   59.5600   26.3880   47.3700 C   0  0  0  0  0  0  0  0  0  0  0  0
   59.8729   25.3335   47.3801 H   0  0  0  0  0  0  0  0  0  0  0  0
   58.5510   26.8130   46.4640 C   0  0  0  0  0  0  0  0  0  0  0  0
   57.9040   25.8860   45.5760 N   0  0  0  0  0  0  0  0  0  0  0  0
   58.5100   25.3750   44.8980 H   0  0  0  0  0  0  0  0  0  0  0  0
   56.5010   25.5690   45.6200 C   0  0  0  0  0  0  0  0  0  0  0  0
   55.7340   26.1750   46.4140 O   0  0  0  0  0  0  0  0  0  0  0  0
   55.9400   24.5940   44.7340 N   0  0  0  0  0  0  0  0  0  0  0  0
   54.8740   23.8850   44.9620 C   0  0  0  0  0  0  0  0  0  0  0  0
   54.7780   22.2980   45.4740 S   0  0  0  0  0  0  0  0  0  0  0  0
   53.1270   22.1530   45.6180 N   0  0  0  0  0  0  0  0  0  0  0  0
   52.6280   23.3700   45.2700 C   0  0  0  0  0  0  0  0  0  0  0  0
   51.1600   23.6450   45.2800 C   0  0  0  0  0  0  0  0  0  0  0  0
   50.8064   23.7112   46.3195 H   0  0  0  0  0  0  0  0  0  0  0  0
   50.9616   24.5959   44.7639 H   0  0  0  0  0  0  0  0  0  0  0  0
   50.6308   22.8304   44.7639 H   0  0  0  0  0  0  0  0  0  0  0  0
   53.5740   24.3570   44.9090 C   0  0  0  0  0  0  0  0  0  0  0  0
   53.3069   25.3839   44.6188 H   0  0  0  0  0  0  0  0  0  0  0  0
   58.1240   28.1580   46.4790 C   0  0  0  0  0  0  0  0  0  0  0  0
   57.3238   28.5028   45.8076 H   0  0  0  0  0  0  0  0  0  0  0  0
   58.7410   29.0380   47.3650 C   0  0  0  0  0  0  0  0  0  0  0  0
   58.4940   30.3530   47.5090 N   0  0  0  0  0  0  0  0  0  0  0  0
   57.7900   30.9090   46.9770 H   0  0  0  0  0  0  0  0  0  0  0  0
  1  2  1  0
  2  3  1  0
  3  4  1  0
  4  5  1  0
  4  6  1  0
  4  7  1  0
  3  8  2  0
  8  9  1  0
  9 10  1  0
 10 11  1  0
 11 12  1  0
 11 13  1  0
 11 14  1  0
 14 15  1  0
 14 16  1  0
 14 17  1  0
 17 18  1  0
 17 19  1  0
 17 20  1  0
 20 21  1  0
 20 22  1  0
 20 23  1  0
 23 24  1  0
 23 25  1  0
 23 26  1  0
 26 27  1  0
 27 28  2  0
 28 29  1  0
 28 30  1  0
 30 31  2  0
 31 32  1  0
 31 33  1  0
 33 34  1  0
 33 35  2  0
 35 36  1  0
 36 37  1  0
 36 38  1  0
 38 39  2  0
 38 40  1  0
 40 41  2  0
 41 42  1  0
 42 43  1  0
 43 44  1  0
 44 45  1  0
 45 46  1  0
 45 47  1  0
 45 48  1  0
 44 49  2  0
 49 50  1  0
 35 51  1  0
 51 52  1  0
 51 53  2  0
 53 54  1  0
 54 55  1  0
 10  2  2  0
 54 27  1  0
 53 30  1  0
 49 41  1  0
M  CHG  1  43  -1
M  END
>  <UniqueID>  (35) 
32

>  <SMILES>  (35) 
Cc1cc(CCCCCOc2[nH]c3cc(NC(=O)/N=c4/cc(C)[n-]s4)ccc3c2Cl)on1

>  <Energy>  (35) 
155.49253192410174

>  <Genealogy>  (35) 
Cc1cc(CCCCCOc2[nH]c3cc(NC(=O)N=c4cc(C)[n-]s4)ccc3c2Cl)on1 (protonated)
Cc1cc(CCCCCOc2[nH]c3cc(NC(=O)/N=c4/cc(C)[n-]s4)ccc3c2Cl)on1 (cis-trans isomerization)
Cc1cc(CCCCCOc2[nH]c3cc(NC(=O)/N=c4/cc(C)[n-]s4)ccc3c2Cl)on1 (3D coordinates assigned)
Cc1cc(CCCCCOc2[nH]c3cc(NC(=O)/N=c4/cc(C)[n-]s4)ccc3c2Cl)on1 (optimized conformer: 155.49253192410174 kcal/mol)

>  <smiles>  (35) 
Cc1cc(CCCCCOc2[nH]c3cc(NC(=O)N=c4cc(C)[nH]s4)ccc3c2Cl)on1

>  <score_type>  (35) 
oracle

>  <origin>  (35) 
adg

>  <m_score__min__energy>  (35) 
-11.779999999999999

>  <m_primary>  (35) 
energy

$$$$
35:0
     RDKit          3D

 50 52  0  0  0  0  0  0  0  0999 V2000
   62.3240   33.8190   46.8510 C   0  0  0  0  0  0  0  0  0  0  0  0
   60.8590   33.5180   46.9670 C   0  0  0  0  0  0  0  0  0  0  0  0
   59.9210   34.3210   46.3010 C   0  0  0  0  0  0  0  0  0  0  0  0
   58.5550   34.0560   46.4250 C   0  0  0  0  0  0  0  0  0  0  0  0
   58.1160   33.0010   47.2270 C   0  0  0  0  0  0  0  0  0  0  0  0
   59.0420   32.2040   47.9220 C   0  0  0  0  0  0  0  0  0  0  0  0
   58.5760   31.0210   48.7310 C   0  0  0  0  0  0  0  0  0  0  0  0
   58.4070   31.3710   50.1050 O   0  0  0  0  0  0  0  0  0  0  0  0
   59.3920   31.9220   50.9410 C   0  0  0  0  0  0  0  0  0  0  0  0
   59.3210   33.2670   51.3590 C   0  0  0  0  0  0  0  0  0  0  0  0
   60.2830   33.7920   52.2190 C   0  0  0  0  0  0  0  0  0  0  0  0
   61.3130   32.9740   52.6710 C   0  0  0  0  0  0  0  0  0  0  0  0
   61.3770   31.6800   52.2660 N   0  0  0  0  0  0  0  0  0  0  0  0
   60.4730   31.1250   51.4110 C   0  0  0  0  0  0  0  0  0  0  0  0
   60.6270   29.8630   51.1150 N   0  0  0  0  0  0  0  0  0  0  0  0
   60.9320   29.2610   49.8500 C   0  0  0  0  0  0  0  0  0  0  0  0
   61.5990   29.8990   48.9880 O   0  0  0  0  0  0  0  0  0  0  0  0
   60.5630   27.8980   49.6130 N   0  0  0  0  0  0  0  0  0  0  0  0
   60.6880   27.2660   48.3020 C   0  0  0  0  0  0  0  0  0  0  0  0
   59.7280   27.8990   47.3310 C   0  0  0  0  0  0  0  0  0  0  0  0
   60.1050   29.0280   46.5880 C   0  0  0  0  0  0  0  0  0  0  0  0
   59.1920   29.6380   45.7200 C   0  0  0  0  0  0  0  0  0  0  0  0
   57.8920   29.1350   45.5960 C   0  0  0  0  0  0  0  0  0  0  0  0
   56.7430   29.9440   44.5370 S   0  0  0  0  0  0  0  0  0  0  0  0
   55.1490   29.3590   44.8670 N   0  0  0  0  0  0  0  0  0  0  0  0
   57.0780   29.6660   43.0960 O   0  0  0  0  0  0  0  0  0  0  0  0
   56.7970   31.4270   44.7800 O   0  0  0  0  0  0  0  0  0  0  0  0
   57.5130   28.0040   46.3330 C   0  0  0  0  0  0  0  0  0  0  0  0
   58.4250   27.3930   47.2000 C   0  0  0  0  0  0  0  0  0  0  0  0
   60.4140   32.4670   47.7850 C   0  0  0  0  0  0  0  0  0  0  0  0
   62.7606   33.9087   47.8566 H   0  0  0  0  0  0  0  0  0  0  0  0
   62.8236   33.0047   46.3057 H   0  0  0  0  0  0  0  0  0  0  0  0
   62.4621   34.7643   46.3057 H   0  0  0  0  0  0  0  0  0  0  0  0
   60.2622   35.1619   45.6793 H   0  0  0  0  0  0  0  0  0  0  0  0
   57.8240   34.6798   45.8897 H   0  0  0  0  0  0  0  0  0  0  0  0
   57.0396   32.7923   47.3155 H   0  0  0  0  0  0  0  0  0  0  0  0
   57.6147   30.6678   48.3296 H   0  0  0  0  0  0  0  0  0  0  0  0
   59.3378   30.2303   48.6635 H   0  0  0  0  0  0  0  0  0  0  0  0
   58.4997   33.9065   51.0032 H   0  0  0  0  0  0  0  0  0  0  0  0
   60.2285   34.8435   52.5375 H   0  0  0  0  0  0  0  0  0  0  0  0
   62.0747   33.3751   53.3558 H   0  0  0  0  0  0  0  0  0  0  0  0
   60.1240   27.3550   50.3900 H   0  0  0  0  0  0  0  0  0  0  0  0
   61.7163   27.3935   47.9328 H   0  0  0  0  0  0  0  0  0  0  0  0
   60.4544   26.1950   48.3940 H   0  0  0  0  0  0  0  0  0  0  0  0
   61.1219   29.4352   46.6881 H   0  0  0  0  0  0  0  0  0  0  0  0
   59.4976   30.5165   45.1328 H   0  0  0  0  0  0  0  0  0  0  0  0
   55.2370   28.6480   45.6280 H   0  0  0  0  0  0  0  0  0  0  0  0
   56.4966   27.5964   46.2292 H   0  0  0  0  0  0  0  0  0  0  0  0
   58.1196   26.5112   47.7824 H   0  0  0  0  0  0  0  0  0  0  0  0
   61.1456   31.8455   48.3221 H   0  0  0  0  0  0  0  0  0  0  0  0
  1  2  1  0
  2  3  2  0
  3  4  1  0
  4  5  2  0
  5  6  1  0
  6  7  1  0
  7  8  1  0
  8  9  1  0
  9 10  2  0
 10 11  1  0
 11 12  2  0
 12 13  1  0
 13 14  1  0
 14 15  2  3
 15 16  1  0
 16 17  2  0
 16 18  1  0
 18 19  1  0
 19 20  1  0
 20 21  2  0
 21 22  1  0
 22 23  2  0
 23 24  1  0
 24 25  1  0
 24 26  2  0
 24 27  2  0
 23 28  1  0
 28 29  2  0
  6 30  2  0
 30  2  1  0
 14  9  1  0
 29 20  1  0
  1 31  1  0
  1 32  1  0
  1 33  1  0
  3 34  1  0
  4 35  1  0
  5 36  1  0
  7 37  1  0
  7 38  1  0
 10 39  1  0
 11 40  1  0
 12 41  1  0
 18 42  1  0
 19 43  1  0
 19 44  1  0
 21 45  1  0
 22 46  1  0
 25 47  1  0
 28 48  1  0
 29 49  1  0
 30 50  1  0
M  CHG  2  13  -1  25  -1
M  END
>  <UniqueID>  (36) 
33

>  <SMILES>  (36) 
Cc1cccc(COc2ccc[n-]c2=NC(=O)NCc2ccc(S([NH-])(=O)=O)cc2)c1

>  <Energy>  (36) 
54.76456349935921

>  <Genealogy>  (36) 
Cc1cccc(COc2ccc[n-]c2=NC(=O)NCc2ccc(S([NH-])(=O)=O)cc2)c1 (protonated)
Cc1cccc(COc2ccc[n-]c2=NC(=O)NCc2ccc(S([NH-])(=O)=O)cc2)c1 (3D coordinates assigned)
Cc1cccc(COc2ccc[n-]c2=NC(=O)NCc2ccc(S([NH-])(=O)=O)cc2)c1 (optimized conformer: 54.76456349935921 kcal/mol)

>  <smiles>  (36) 
Cc1cccc(COc2ccc[nH]c2=NC(=O)NCc2ccc(S(N)(=O)=O)cc2)c1

>  <score_type>  (36) 
oracle

>  <origin>  (36) 
adg

>  <m_score__min__energy>  (36) 
-11.98

>  <m_primary>  (36) 
energy

$$$$
36:0
     RDKit          3D

 49 51  0  0  0  0  0  0  0  0999 V2000
   59.4990   28.3470   48.3090 C   0  0  0  0  0  0  0  0  0  0  0  0
   58.5360   28.9760   49.1630 O   0  0  0  0  0  0  0  0  0  0  0  0
   58.6370   30.3040   49.5930 C   0  0  0  0  0  0  0  0  0  0  0  0
   59.0950   31.2960   48.7090 C   0  0  0  0  0  0  0  0  0  0  0  0
   59.2430   32.6250   49.1260 C   0  0  0  0  0  0  0  0  0  0  0  0
   59.7770   33.6570   48.2080 C   0  0  0  0  0  0  0  0  0  0  0  0
   60.5470   34.5460   48.6680 O   0  0  0  0  0  0  0  0  0  0  0  0
   59.4740   33.6550   46.7600 C   0  0  0  0  0  0  0  0  0  0  0  0
   59.6320   34.7080   45.8710 C   0  0  0  0  0  0  0  0  0  0  0  0
   59.1290   34.2770   44.6620 C   0  0  0  0  0  0  0  0  0  0  0  0
   58.6670   33.0160   44.7810 N   0  0  0  0  0  0  0  0  0  0  0  0
   57.9770   32.2470   43.7440 C   0  0  0  0  0  0  0  0  0  0  0  0
   57.5890   30.8900   44.2650 C   0  0  0  0  0  0  0  0  0  0  0  0
   56.2390   30.5290   44.3650 C   0  0  0  0  0  0  0  0  0  0  0  0
   55.8790   29.2740   44.8550 C   0  0  0  0  0  0  0  0  0  0  0  0
   56.8650   28.3540   45.2520 C   0  0  0  0  0  0  0  0  0  0  0  0
   56.4910   27.0370   45.7980 C   0  0  0  0  0  0  0  0  0  0  0  0
   57.3750   26.1820   46.0640 O   0  0  0  0  0  0  0  0  0  0  0  0
   55.1560   26.7170   46.0190 O   0  0  0  0  0  0  0  0  0  0  0  0
   58.2160   28.7080   45.1250 C   0  0  0  0  0  0  0  0  0  0  0  0
   58.5750   29.9610   44.6240 C   0  0  0  0  0  0  0  0  0  0  0  0
   58.8710   32.6280   46.0570 C   0  0  0  0  0  0  0  0  0  0  0  0
   58.8680   32.9760   50.4290 C   0  0  0  0  0  0  0  0  0  0  0  0
   58.4020   32.0010   51.3300 C   0  0  0  0  0  0  0  0  0  0  0  0
   58.0310   32.3260   52.6470 O   0  0  0  0  0  0  0  0  0  0  0  0
   58.5570   33.4190   53.3950 C   0  0  0  0  0  0  0  0  0  0  0  0
   58.3070   30.6590   50.9260 C   0  0  0  0  0  0  0  0  0  0  0  0
   57.8660   29.7340   51.8930 O   0  0  0  0  0  0  0  0  0  0  0  0
   56.6330   29.7740   52.5960 C   0  0  0  0  0  0  0  0  0  0  0  0
   60.2631   27.8479   48.9231 H   0  0  0  0  0  0  0  0  0  0  0  0
   58.9955   27.6031   47.6741 H   0  0  0  0  0  0  0  0  0  0  0  0
   59.9778   29.1070   47.6741 H   0  0  0  0  0  0  0  0  0  0  0  0
   59.3414   31.0241   47.6720 H   0  0  0  0  0  0  0  0  0  0  0  0
   60.0718   35.6926   46.0879 H   0  0  0  0  0  0  0  0  0  0  0  0
   59.1077   34.8732   43.7378 H   0  0  0  0  0  0  0  0  0  0  0  0
   57.0710   32.7885   43.4342 H   0  0  0  0  0  0  0  0  0  0  0  0
   58.6538   32.1188   42.8864 H   0  0  0  0  0  0  0  0  0  0  0  0
   55.4585   31.2396   44.0552 H   0  0  0  0  0  0  0  0  0  0  0  0
   54.8159   29.0020   44.9314 H   0  0  0  0  0  0  0  0  0  0  0  0
   58.9981   27.9938   45.4220 H   0  0  0  0  0  0  0  0  0  0  0  0
   59.6379   30.2204   44.5105 H   0  0  0  0  0  0  0  0  0  0  0  0
   58.5997   31.6468   46.4736 H   0  0  0  0  0  0  0  0  0  0  0  0
   58.9386   34.0253   50.7514 H   0  0  0  0  0  0  0  0  0  0  0  0
   58.4563   33.2097   54.4702 H   0  0  0  0  0  0  0  0  0  0  0  0
   59.6197   33.5560   53.1461 H   0  0  0  0  0  0  0  0  0  0  0  0
   58.0011   34.3350   53.1461 H   0  0  0  0  0  0  0  0  0  0  0  0
   56.8278   29.7677   53.6786 H   0  0  0  0  0  0  0  0  0  0  0  0
   56.0871   30.6903   52.3270 H   0  0  0  0  0  0  0  0  0  0  0  0
   56.0289   28.8950   52.3270 H   0  0  0  0  0  0  0  0  0  0  0  0
  1  2  1  0
  2  3  1  0
  3  4  2  0
  4  5  1  0
  5  6  1  0
  6  7  2  0
  6  8  1  0
  8  9  1  0
  9 10  2  0
 10 11  1  0
 11 12  1  0
 12 13  1  0
 13 14  2  0
 14 15  1  0
 15 16  2  0
 16 17  1  0
 17 18  2  0
 17 19  1  0
 16 20  1  0
 20 21  2  0
 11 22  1  0
  5 23  2  0
 23 24  1  0
 24 25  1  0
 25 26  1  0
 24 27  2  0
 27 28  1  0
 28 29  1  0
 27  3  1  0
 22  8  2  0
 21 13  1  0
  1 30  1  0
  1 31  1  0
  1 32  1  0
  4 33  1  0
  9 34  1  0
 10 35  1  0
 12 36  1  0
 12 37  1  0
 14 38  1  0
 15 39  1  0
 20 40  1  0
 21 41  1  0
 22 42  1  0
 23 43  1  0
 26 44  1  0
 26 45  1  0
 26 46  1  0
 29 47  1  0
 29 48  1  0
 29 49  1  0
M  CHG  1  19  -1
M  END
>  <UniqueID>  (37) 
34

>  <SMILES>  (37) 
COc1cc(C(=O)c2ccn(Cc3ccc(C(=O)[O-])cc3)c2)cc(OC)c1OC

>  <Energy>  (37) 
86.4914852567262

>  <Genealogy>  (37) 
COc1cc(C(=O)c2ccn(Cc3ccc(C(=O)[O-])cc3)c2)cc(OC)c1OC (protonated)
COc1cc(C(=O)c2ccn(Cc3ccc(C(=O)[O-])cc3)c2)cc(OC)c1OC (3D coordinates assigned)
COc1cc(C(=O)c2ccn(Cc3ccc(C(=O)[O-])cc3)c2)cc(OC)c1OC (optimized conformer: 86.4914852567262 kcal/mol)

>  <smiles>  (37) 
COc1cc(C(=O)c2ccn(Cc3ccc(C(=O)O)cc3)c2)cc(OC)c1OC

>  <score_type>  (37) 
oracle

>  <origin>  (37) 
adg

>  <m_score__min__energy>  (37) 
-10.18

>  <m_primary>  (37) 
energy

$$$$
37:0
     RDKit          3D

 27 28  0  0  0  0  0  0  0  0999 V2000
   59.5950   34.5800   48.0850 C   0  0  0  0  0  0  0  0  0  0  0  0
   59.9300   34.1590   46.7670 O   0  0  0  0  0  0  0  0  0  0  0  0
   59.1560   33.2850   45.9880 C   0  0  0  0  0  0  0  0  0  0  0  0
   58.4940   33.7130   44.8260 C   0  0  0  0  0  0  0  0  0  0  0  0
   57.7630   32.8110   44.0600 C   0  0  0  0  0  0  0  0  0  0  0  0
   57.6250   31.4770   44.4630 C   0  0  0  0  0  0  0  0  0  0  0  0
   58.2540   31.0320   45.6530 C   0  0  0  0  0  0  0  0  0  0  0  0
   59.0660   31.9410   46.3850 C   0  0  0  0  0  0  0  0  0  0  0  0
   59.8290   31.5490   47.4880 O   0  0  0  0  0  0  0  0  0  0  0  0
   57.9720   29.6460   46.1210 C   0  0  0  0  0  0  0  0  0  0  0  0
   58.1590   29.3110   47.3210 O   0  0  0  0  0  0  0  0  0  0  0  0
   57.3750   28.6410   45.1810 C   0  0  2  0  0  0  0  0  0  0  0  0
   58.7840   27.8230   44.1200 Br  0  0  0  0  0  0  0  0  0  0  0  0
   56.3100   29.3020   44.2950 C   0  0  1  0  0  0  0  0  0  0  0  0
   55.2210   29.6920   45.0940 O   0  0  0  0  0  0  0  0  0  0  0  0
   56.8820   30.5230   43.5540 C   0  0  0  0  0  0  0  0  0  0  0  0
   60.1066   33.9371   48.8164 H   0  0  0  0  0  0  0  0  0  0  0  0
   59.9126   35.6233   48.2285 H   0  0  0  0  0  0  0  0  0  0  0  0
   58.5070   34.5049   48.2285 H   0  0  0  0  0  0  0  0  0  0  0  0
   58.5538   34.7678   44.5197 H   0  0  0  0  0  0  0  0  0  0  0  0
   57.2880   33.1493   43.1273 H   0  0  0  0  0  0  0  0  0  0  0  0
   59.7150   30.6660   47.9660 H   0  0  0  0  0  0  0  0  0  0  0  0
   56.8756   27.8493   45.7588 H   0  0  0  0  0  0  0  0  0  0  0  0
   55.9791   28.5737   43.5400 H   0  0  0  0  0  0  0  0  0  0  0  0
   55.5470   29.7230   46.0320 H   0  0  0  0  0  0  0  0  0  0  0  0
   57.5758   30.1676   42.7779 H   0  0  0  0  0  0  0  0  0  0  0  0
   56.0314   31.0742   43.1265 H   0  0  0  0  0  0  0  0  0  0  0  0
  1  2  1  0
  2  3  1  0
  3  4  2  0
  4  5  1  0
  5  6  2  0
  6  7  1  0
  7  8  2  0
  8  9  1  0
  7 10  1  0
 10 11  2  0
 10 12  1  0
 12 13  1  0
 12 14  1  0
 14 15  1  0
 14 16  1  0
  8  3  1  0
 16  6  1  0
  1 17  1  0
  1 18  1  0
  1 19  1  0
  4 20  1  0
  5 21  1  0
  9 22  1  0
 12 23  1  1
 14 24  1  6
 15 25  1  0
 16 26  1  0
 16 27  1  0
M  END
>  <UniqueID>  (38) 
35

>  <SMILES>  (38) 
COc1ccc2c(c1O)C(=O)[C@H](Br)[C@@H](O)C2

>  <Energy>  (38) 
33.54502254975568

>  <Genealogy>  (38) 
COc1ccc2c(c1O)C(=O)[C@H](Br)[C@@H](O)C2 (chirality)
COc1ccc2c(c1O)C(=O)[C@H](Br)[C@@H](O)C2 (3D coordinates assigned)
COc1ccc2c(c1O)C(=O)[C@H](Br)[C@@H](O)C2 (nonaromatic ring conformer: 33.54502254975568 kcal/mol)

>  <smiles>  (38) 
COc1ccc2c(c1O)C(=O)C(Br)C(O)C2

>  <score_type>  (38) 
oracle

>  <origin>  (38) 
adg

>  <m_score__min__energy>  (38) 
-6.2800000000000002

>  <m_primary>  (38) 
energy

$$$$
38:0
     RDKit          3D

 56 57  0  0  0  0  0  0  0  0999 V2000
   60.4863   35.5527   47.8933 H   0  0  0  0  0  0  0  0  0  0  0  0
   59.9380   34.6010   47.8340 C   0  0  0  0  0  0  0  0  0  0  0  0
   59.1330   34.3920   46.7680 C   0  0  0  0  0  0  0  0  0  0  0  0
   59.6450   34.7560   45.3970 C   0  0  0  0  0  0  0  0  0  0  0  0
   60.5379   35.3908   45.4957 H   0  0  0  0  0  0  0  0  0  0  0  0
   59.9057   33.8393   44.8477 H   0  0  0  0  0  0  0  0  0  0  0  0
   58.8649   35.3034   44.8477 H   0  0  0  0  0  0  0  0  0  0  0  0
   57.7300   33.8300   46.9100 C   0  0  0  0  0  0  0  0  0  0  0  0
   57.7409   33.0355   47.6707 H   0  0  0  0  0  0  0  0  0  0  0  0
   57.0623   34.6532   47.2041 H   0  0  0  0  0  0  0  0  0  0  0  0
   57.2060   33.2420   45.5830 C   0  0  0  0  0  0  0  0  0  0  0  0
   56.1101   33.1639   45.6370 H   0  0  0  0  0  0  0  0  0  0  0  0
   57.5167   33.9118   44.7676 H   0  0  0  0  0  0  0  0  0  0  0  0
   57.7800   31.8720   45.3070 C   0  0  0  0  0  0  0  0  0  0  0  0
   58.4743   31.4497   46.0483 H   0  0  0  0  0  0  0  0  0  0  0  0
   57.5000   31.1280   44.2120 C   0  0  0  0  0  0  0  0  0  0  0  0
   57.7160   31.6480   42.8140 C   0  0  0  0  0  0  0  0  0  0  0  0
   58.1376   32.6629   42.8614 H   0  0  0  0  0  0  0  0  0  0  0  0
   58.4135   30.9858   42.2801 H   0  0  0  0  0  0  0  0  0  0  0  0
   56.7546   31.6748   42.2801 H   0  0  0  0  0  0  0  0  0  0  0  0
   56.9590   29.7310   44.3710 C   0  0  0  0  0  0  0  0  0  0  0  0
   56.8669   29.4931   45.4410 H   0  0  0  0  0  0  0  0  0  0  0  0
   55.9700   29.6643   43.8940 H   0  0  0  0  0  0  0  0  0  0  0  0
   57.6451   29.0156   43.8940 H   0  0  0  0  0  0  0  0  0  0  0  0
   60.1250   33.5980   48.9480 C   0  0  0  0  0  0  0  0  0  0  0  0
   59.3547   33.7632   49.7157 H   0  0  0  0  0  0  0  0  0  0  0  0
   61.1282   33.7312   49.3791 H   0  0  0  0  0  0  0  0  0  0  0  0
   60.0060   32.1880   48.4220 C   0  0  0  0  0  0  0  0  0  0  0  0
   59.1010   31.2780   49.0060 C   0  0  0  0  0  0  0  0  0  0  0  0
   58.2700   31.6720   50.0520 O   0  0  0  0  0  0  0  0  0  0  0  0
   59.0260   29.9630   48.5390 C   0  0  0  0  0  0  0  0  0  0  0  0
   58.2957   29.2683   48.9797 H   0  0  0  0  0  0  0  0  0  0  0  0
   59.8760   29.5210   47.5110 C   0  0  0  0  0  0  0  0  0  0  0  0
   59.8160   28.1310   47.0080 C   0  0  0  0  0  0  0  0  0  0  0  0
   60.4764   27.8660   46.1692 H   0  0  0  0  0  0  0  0  0  0  0  0
   59.0180   27.1680   47.4960 C   0  0  0  0  0  0  0  0  0  0  0  0
   59.0807   26.9527   48.5729 H   0  0  0  0  0  0  0  0  0  0  0  0
   58.0600   26.3740   46.6940 C   0  0  0  0  0  0  0  0  0  0  0  0
   56.7030   26.7270   46.6990 C   0  0  0  0  0  0  0  0  0  0  0  0
   56.3642   27.5901   47.2909 H   0  0  0  0  0  0  0  0  0  0  0  0
   55.7790   25.9880   45.9560 C   0  0  0  0  0  0  0  0  0  0  0  0
   54.4330   26.3310   45.9860 O   0  0  0  0  0  0  0  0  0  0  0  0
   56.2080   24.9020   45.1870 C   0  0  0  0  0  0  0  0  0  0  0  0
   55.4763   24.3164   44.6110 H   0  0  0  0  0  0  0  0  0  0  0  0
   57.5720   24.5540   45.1460 C   0  0  0  0  0  0  0  0  0  0  0  0
   58.0540   23.4810   44.3830 O   0  0  0  0  0  0  0  0  0  0  0  0
   58.8920   22.4460   44.8890 C   0  0  0  0  0  0  0  0  0  0  0  0
   58.8759   22.4659   45.9887 H   0  0  0  0  0  0  0  0  0  0  0  0
   58.5255   21.4713   44.5345 H   0  0  0  0  0  0  0  0  0  0  0  0
   59.9216   22.6016   44.5345 H   0  0  0  0  0  0  0  0  0  0  0  0
   58.4910   25.3030   45.8910 C   0  0  0  0  0  0  0  0  0  0  0  0
   59.5609   25.0511   45.8477 H   0  0  0  0  0  0  0  0  0  0  0  0
   60.7620   30.4280   46.9160 C   0  0  0  0  0  0  0  0  0  0  0  0
   61.3995   30.1010   46.0814 H   0  0  0  0  0  0  0  0  0  0  0  0
   60.8420   31.7480   47.3760 C   0  0  0  0  0  0  0  0  0  0  0  0
   61.7610   32.6130   46.7900 O   0  0  0  0  0  0  0  0  0  0  0  0
  1  2  1  0
  2  3  2  3
  3  4  1  0
  4  5  1  0
  4  6  1  0
  4  7  1  0
  3  8  1  0
  8  9  1  0
  8 10  1  0
  8 11  1  0
 11 12  1  0
 11 13  1  0
 11 14  1  0
 14 15  1  0
 14 16  2  3
 16 17  1  0
 17 18  1  0
 17 19  1  0
 17 20  1  0
 16 21  1  0
 21 22  1  0
 21 23  1  0
 21 24  1  0
  2 25  1  0
 25 26  1  0
 25 27  1  0
 25 28  1  0
 28 29  2  0
 29 30  1  0
 29 31  1  0
 31 32  1  0
 31 33  2  0
 33 34  1  0
 34 35  1  0
 34 36  2  0
 36 37  1  0
 36 38  1  0
 38 39  2  0
 39 40  1  0
 39 41  1  0
 41 42  1  0
 41 43  2  0
 43 44  1  0
 43 45  1  0
 45 46  1  0
 46 47  1  0
 47 48  1  0
 47 49  1  0
 47 50  1  0
 45 51  2  0
 51 52  1  0
 33 53  1  0
 53 54  1  0
 53 55  2  0
 55 56  1  0
 55 28  1  0
 51 38  1  0
M  CHG  3  30  -1  42  -1  56  -1
M  END
>  <UniqueID>  (39) 
36

>  <SMILES>  (39) 
COc1cc([O-])cc(/C=C\c2cc([O-])c(CC=C(C)CCC=C(C)C)c([O-])c2)c1

>  <Energy>  (39) 
58.41258786023822

>  <Genealogy>  (39) 
COc1cc([O-])cc(C=Cc2cc([O-])c(CC=C(C)CCC=C(C)C)c([O-])c2)c1 (protonated)
COc1cc([O-])cc(/C=C\c2cc([O-])c(CC=C(C)CCC=C(C)C)c([O-])c2)c1 (cis-trans isomerization)
COc1cc([O-])cc(/C=C\c2cc([O-])c(CC=C(C)CCC=C(C)C)c([O-])c2)c1 (3D coordinates assigned)
COc1cc([O-])cc(/C=C\c2cc([O-])c(CC=C(C)CCC=C(C)C)c([O-])c2)c1 (optimized conformer: 58.41258786023822 kcal/mol)

>  <smiles>  (39) 
COc1cc(O)cc(C=Cc2cc(O)c(CC=C(C)CCC=C(C)C)c(O)c2)c1

>  <score_type>  (39) 
oracle

>  <origin>  (39) 
adg

>  <m_score__min__energy>  (39) 
-13.970000000000001

>  <m_primary>  (39) 
energy

$$$$
39:0
     RDKit          3D

 25 26  0  0  0  0  0  0  0  0999 V2000
   55.6470   30.8490   44.4150 O   0  0  0  0  0  0  0  0  0  0  0  0
   56.7980   30.4320   44.7140 C   0  0  0  0  0  0  0  0  0  0  0  0
   57.1410   28.9900   44.4690 C   0  0  0  0  0  0  0  0  0  0  0  0
   56.4050   28.1370   45.3480 O   0  0  0  0  0  0  0  0  0  0  0  0
   56.7530   26.8190   45.6830 C   0  0  0  0  0  0  0  0  0  0  0  0
   58.0900   26.3720   45.7180 C   0  0  0  0  0  0  0  0  0  0  0  0
   58.3810   25.0470   46.0550 C   0  0  0  0  0  0  0  0  0  0  0  0
   57.3490   24.1580   46.3640 C   0  0  0  0  0  0  0  0  0  0  0  0
   56.0210   24.5940   46.3360 C   0  0  0  0  0  0  0  0  0  0  0  0
   55.7240   25.9180   45.9990 C   0  0  0  0  0  0  0  0  0  0  0  0
   54.3990   26.3380   45.9730 O   0  0  0  0  0  0  0  0  0  0  0  0
   57.7790   31.3700   45.2890 C   0  0  0  0  0  0  0  0  0  0  0  0
   58.9770   31.0370   45.9210 C   0  0  0  0  0  0  0  0  0  0  0  0
   59.6950   32.1530   46.3670 C   0  0  0  0  0  0  0  0  0  0  0  0
   59.0670   33.3570   46.0870 C   0  0  0  0  0  0  0  0  0  0  0  0
   59.7260   35.0900   46.5300 Br  0  0  0  0  0  0  0  0  0  0  0  0
   57.6240   33.0470   45.2870 S   0  0  0  0  0  0  0  0  0  0  0  0
   56.8959   28.7328   43.4279 H   0  0  0  0  0  0  0  0  0  0  0  0
   58.2154   28.8464   44.6561 H   0  0  0  0  0  0  0  0  0  0  0  0
   58.9071   27.0687   45.4792 H   0  0  0  0  0  0  0  0  0  0  0  0
   59.4257   24.7035   46.0769 H   0  0  0  0  0  0  0  0  0  0  0  0
   57.5809   23.1159   46.6291 H   0  0  0  0  0  0  0  0  0  0  0  0
   55.2082   23.8940   46.5796 H   0  0  0  0  0  0  0  0  0  0  0  0
   59.3229   30.0015   46.0555 H   0  0  0  0  0  0  0  0  0  0  0  0
   60.6613   32.0818   46.8878 H   0  0  0  0  0  0  0  0  0  0  0  0
  1  2  2  0
  2  3  1  0
  3  4  1  0
  4  5  1  0
  5  6  2  0
  6  7  1  0
  7  8  2  0
  8  9  1  0
  9 10  2  0
 10 11  1  0
  2 12  1  0
 12 13  2  0
 13 14  1  0
 14 15  2  0
 15 16  1  0
 15 17  1  0
 10  5  1  0
 17 12  1  0
  3 18  1  0
  3 19  1  0
  6 20  1  0
  7 21  1  0
  8 22  1  0
  9 23  1  0
 13 24  1  0
 14 25  1  0
M  CHG  1  11  -1
M  END
>  <UniqueID>  (40) 
37

>  <SMILES>  (40) 
O=C(COc1ccccc1[O-])c1ccc(Br)s1

>  <Energy>  (40) 
50.90977510396934

>  <Genealogy>  (40) 
O=C(COc1ccccc1[O-])c1ccc(Br)s1 (protonated)
O=C(COc1ccccc1[O-])c1ccc(Br)s1 (3D coordinates assigned)
O=C(COc1ccccc1[O-])c1ccc(Br)s1 (optimized conformer: 50.90977510396934 kcal/mol)

>  <smiles>  (40) 
O=C(COc1ccccc1O)c1ccc(Br)s1

>  <score_type>  (40) 
oracle

>  <origin>  (40) 
adg

>  <m_score__min__energy>  (40) 
-11.470000000000001

>  <m_primary>  (40) 
energy

$$$$
40:0
     RDKit          3D

 85 86  0  0  0  0  0  0  0  0999 V2000
   54.3020   23.8630   45.8970 C   0  0  0  0  0  0  0  0  0  0  0  0
   55.4610   24.4740   46.5330 N   0  0  0  0  0  0  0  0  0  0  0  0
   55.9680   25.7780   46.2250 C   0  0  0  0  0  0  0  0  0  0  0  0
   55.1520   26.7130   46.0160 O   0  0  0  0  0  0  0  0  0  0  0  0
   57.4060   26.0510   46.1040 C   0  0  0  0  0  0  0  0  0  0  0  0
   57.9070   27.2470   45.8950 O   0  0  0  0  0  0  0  0  0  0  0  0
   59.2190   27.1570   45.8450 C   0  0  0  0  0  0  0  0  0  0  0  0
   60.1410   28.2870   45.6120 C   0  0  0  0  0  0  0  0  0  0  0  0
   60.6480   28.4270   44.4660 O   0  0  0  0  0  0  0  0  0  0  0  0
   60.4820   29.2440   46.6250 N   0  0  0  0  0  0  0  0  0  0  0  0
   59.6380   30.3070   47.1720 C   0  0  1  0  0  0  0  0  0  0  0  0
   58.1440   29.9940   46.8990 C   0  0  0  0  0  0  0  0  0  0  0  0
   57.7290   30.3000   45.4810 C   0  0  0  0  0  0  0  0  0  0  0  0
   58.5010   31.1620   44.6840 C   0  0  0  0  0  0  0  0  0  0  0  0
   58.1320   31.4170   43.3590 C   0  0  0  0  0  0  0  0  0  0  0  0
   56.9910   30.8150   42.8220 C   0  0  0  0  0  0  0  0  0  0  0  0
   56.2160   29.9590   43.6080 C   0  0  0  0  0  0  0  0  0  0  0  0
   56.5830   29.7020   44.9330 C   0  0  0  0  0  0  0  0  0  0  0  0
   59.9780   30.5270   48.6800 C   0  0  2  0  0  0  0  0  0  0  0  0
   59.1520   31.5360   49.2060 O   0  0  0  0  0  0  0  0  0  0  0  0
   61.4550   30.8600   48.9870 C   0  0  0  0  0  0  0  0  0  0  0  0
   62.1140   31.4650   47.8160 N   0  0  0  0  0  0  0  0  0  0  0  0
   62.2320   32.9450   47.8200 C   0  0  0  0  0  0  0  0  0  0  0  0
   62.8050   33.4160   49.1780 C   0  0  0  0  0  0  0  0  0  0  0  0
   63.2540   33.3180   46.7200 C   0  0  0  0  0  0  0  0  0  0  0  0
   60.8480   33.6100   47.5200 C   0  0  0  0  0  0  0  0  0  0  0  0
   60.6960   34.1780   46.0950 C   0  0  0  0  0  0  0  0  0  0  0  0
   59.3480   34.8980   45.9280 C   0  0  0  0  0  0  0  0  0  0  0  0
   58.1660   33.9220   45.7280 C   0  0  0  0  0  0  0  0  0  0  0  0
   57.0420   34.5420   44.8820 C   0  0  0  0  0  0  0  0  0  0  0  0
   57.6100   33.4840   47.0900 C   0  0  0  0  0  0  0  0  0  0  0  0
   59.6100   25.8410   46.0360 C   0  0  0  0  0  0  0  0  0  0  0  0
   58.4350   25.1380   46.2140 C   0  0  0  0  0  0  0  0  0  0  0  0
   58.2900   23.7780   46.5090 O   0  0  0  0  0  0  0  0  0  0  0  0
   57.9920   22.7790   45.5350 C   0  0  0  0  0  0  0  0  0  0  0  0
   57.5750   23.4270   44.2110 C   0  0  0  0  0  0  0  0  0  0  0  0
   56.9020   22.4340   43.3440 N   0  0  0  0  0  0  0  0  0  0  0  0
   56.5720   21.2130   44.1000 C   0  0  0  0  0  0  0  0  0  0  0  0
   55.6710   23.0030   42.7720 C   0  0  0  0  0  0  0  0  0  0  0  0
   53.6096   23.4980   46.6699 H   0  0  0  0  0  0  0  0  0  0  0  0
   53.7917   24.6093   45.2704 H   0  0  0  0  0  0  0  0  0  0  0  0
   54.6294   23.0203   45.2704 H   0  0  0  0  0  0  0  0  0  0  0  0
   59.8431   31.2626   46.6672 H   0  0  0  0  0  0  0  0  0  0  0  0
   57.9681   28.9257   47.0933 H   0  0  0  0  0  0  0  0  0  0  0  0
   57.5459   30.6351   47.5633 H   0  0  0  0  0  0  0  0  0  0  0  0
   59.3993   31.6383   45.1037 H   0  0  0  0  0  0  0  0  0  0  0  0
   58.7405   32.0920   42.7393 H   0  0  0  0  0  0  0  0  0  0  0  0
   56.7029   31.0154   41.7795 H   0  0  0  0  0  0  0  0  0  0  0  0
   55.3170   29.4870   43.1849 H   0  0  0  0  0  0  0  0  0  0  0  0
   55.9703   29.0275   45.5492 H   0  0  0  0  0  0  0  0  0  0  0  0
   59.7930   29.5556   49.1618 H   0  0  0  0  0  0  0  0  0  0  0  0
   59.7260   32.3240   49.3950 H   0  0  0  0  0  0  0  0  0  0  0  0
   61.4970   31.5670   49.8287 H   0  0  0  0  0  0  0  0  0  0  0  0
   61.9792   29.9270   49.2412 H   0  0  0  0  0  0  0  0  0  0  0  0
   61.5730   31.1710   46.9670 H   0  0  0  0  0  0  0  0  0  0  0  0
   62.2377   32.9497   49.9969 H   0  0  0  0  0  0  0  0  0  0  0  0
   63.8627   33.1228   49.2512 H   0  0  0  0  0  0  0  0  0  0  0  0
   62.7220   34.5104   49.2512 H   0  0  0  0  0  0  0  0  0  0  0  0
   64.1889   33.6592   47.1886 H   0  0  0  0  0  0  0  0  0  0  0  0
   63.4578   32.4363   46.0947 H   0  0  0  0  0  0  0  0  0  0  0  0
   62.8420   34.1237   46.0947 H   0  0  0  0  0  0  0  0  0  0  0  0
   60.0650   32.8524   47.6712 H   0  0  0  0  0  0  0  0  0  0  0  0
   60.7627   34.4670   48.2044 H   0  0  0  0  0  0  0  0  0  0  0  0
   61.5108   34.8918   45.9038 H   0  0  0  0  0  0  0  0  0  0  0  0
   60.7378   33.3435   45.3796 H   0  0  0  0  0  0  0  0  0  0  0  0
   59.1576   35.5001   46.8287 H   0  0  0  0  0  0  0  0  0  0  0  0
   59.4168   35.5228   45.0253 H   0  0  0  0  0  0  0  0  0  0  0  0
   58.5499   33.0469   45.1833 H   0  0  0  0  0  0  0  0  0  0  0  0
   56.2742   34.9655   45.5462 H   0  0  0  0  0  0  0  0  0  0  0  0
   57.4576   35.3385   44.2473 H   0  0  0  0  0  0  0  0  0  0  0  0
   56.5900   33.7656   44.2473 H   0  0  0  0  0  0  0  0  0  0  0  0
   58.2001   33.9488   47.8936 H   0  0  0  0  0  0  0  0  0  0  0  0
   56.5600   33.8002   47.1762 H   0  0  0  0  0  0  0  0  0  0  0  0
   57.6715   32.3891   47.1762 H   0  0  0  0  0  0  0  0  0  0  0  0
   60.6353   25.4426   46.0440 H   0  0  0  0  0  0  0  0  0  0  0  0
   58.8847   22.1581   45.3687 H   0  0  0  0  0  0  0  0  0  0  0  0
   57.1618   22.1590   45.9043 H   0  0  0  0  0  0  0  0  0  0  0  0
   56.8840   24.2581   44.4153 H   0  0  0  0  0  0  0  0  0  0  0  0
   58.4725   23.8016   43.6970 H   0  0  0  0  0  0  0  0  0  0  0  0
   56.6287   21.4228   45.1783 H   0  0  0  0  0  0  0  0  0  0  0  0
   55.5534   20.8867   43.8430 H   0  0  0  0  0  0  0  0  0  0  0  0
   57.2875   20.4180   43.8430 H   0  0  0  0  0  0  0  0  0  0  0  0
   54.9985   23.3139   43.5851 H   0  0  0  0  0  0  0  0  0  0  0  0
   55.9241   23.8755   42.1517 H   0  0  0  0  0  0  0  0  0  0  0  0
   55.1704   22.2449   42.1517 H   0  0  0  0  0  0  0  0  0  0  0  0
  1  2  1  0
  2  3  1  0
  3  4  2  0
  3  5  1  0
  5  6  1  0
  6  7  1  0
  7  8  1  0
  8  9  2  0
  8 10  1  0
 10 11  1  0
 11 12  1  0
 12 13  1  0
 13 14  2  0
 14 15  1  0
 15 16  2  0
 16 17  1  0
 17 18  2  0
 11 19  1  0
 19 20  1  0
 19 21  1  0
 21 22  1  0
 22 23  1  0
 23 24  1  0
 23 25  1  0
 23 26  1  0
 26 27  1  0
 27 28  1  0
 28 29  1  0
 29 30  1  0
 29 31  1  0
  7 32  2  0
 32 33  1  0
 33 34  1  0
 34 35  1  0
 35 36  1  0
 36 37  1  0
 37 38  1  0
 37 39  1  0
 33  5  2  0
 18 13  1  0
  1 40  1  0
  1 41  1  0
  1 42  1  0
 11 43  1  6
 12 44  1  0
 12 45  1  0
 14 46  1  0
 15 47  1  0
 16 48  1  0
 17 49  1  0
 18 50  1  0
 19 51  1  1
 20 52  1  0
 21 53  1  0
 21 54  1  0
 22 55  1  0
 24 56  1  0
 24 57  1  0
 24 58  1  0
 25 59  1  0
 25 60  1  0
 25 61  1  0
 26 62  1  0
 26 63  1  0
 27 64  1  0
 27 65  1  0
 28 66  1  0
 28 67  1  0
 29 68  1  0
 30 69  1  0
 30 70  1  0
 30 71  1  0
 31 72  1  0
 31 73  1  0
 31 74  1  0
 32 75  1  0
 35 76  1  0
 35 77  1  0
 36 78  1  0
 36 79  1  0
 38 80  1  0
 38 81  1  0
 38 82  1  0
 39 83  1  0
 39 84  1  0
 39 85  1  0
M  CHG  2   2  -1  10  -1
M  END
>  <UniqueID>  (41) 
38

>  <SMILES>  (41) 
C[N-]C(=O)c1oc(C(=O)[N-][C@@H](Cc2ccccc2)[C@H](O)CNC(C)(C)CCCC(C)C)cc1OCCN(C)C

>  <Energy>  (41) 
104.15140776850004

>  <Genealogy>  (41) 
C[N-]C(=O)c1oc(C(=O)[N-]C(Cc2ccccc2)C(O)CNC(C)(C)CCCC(C)C)cc1OCCN(C)C (protonated)
C[N-]C(=O)c1oc(C(=O)[N-][C@@H](Cc2ccccc2)[C@H](O)CNC(C)(C)CCCC(C)C)cc1OCCN(C)C (chirality)
C[N-]C(=O)c1oc(C(=O)[N-][C@@H](Cc2ccccc2)[C@H](O)CNC(C)(C)CCCC(C)C)cc1OCCN(C)C (3D coordinates assigned)
C[N-]C(=O)c1oc(C(=O)[N-][C@@H](Cc2ccccc2)[C@H](O)CNC(C)(C)CCCC(C)C)cc1OCCN(C)C (optimized conformer: 104.15140776850004 kcal/mol)

>  <smiles>  (41) 
CNC(=O)c1oc(C(=O)NC(Cc2ccccc2)C(O)CNC(C)(C)CCCC(C)C)cc1OCCN(C)C

>  <score_type>  (41) 
oracle

>  <origin>  (41) 
adg

>  <m_score__min__energy>  (41) 
-12.529999999999999

>  <m_primary>  (41) 
energy

$$$$
41:0
     RDKit          3D

 53 55  0  0  0  0  0  0  0  0999 V2000
   58.1600   32.5450   41.2200 C   0  0  0  0  0  0  0  0  0  0  0  0
   57.5220   31.9360   42.3380 O   0  0  0  0  0  0  0  0  0  0  0  0
   57.7710   32.2680   43.6810 C   0  0  0  0  0  0  0  0  0  0  0  0
   57.8030   33.6070   44.1120 C   0  0  0  0  0  0  0  0  0  0  0  0
   58.0580   33.9140   45.4470 C   0  0  0  0  0  0  0  0  0  0  0  0
   58.2970   32.8990   46.3750 C   0  0  0  0  0  0  0  0  0  0  0  0
   58.5390   33.2650   47.7430 N   0  0  0  0  0  0  0  0  0  0  0  0
   59.7390   33.8180   48.3040 C   0  0  0  0  0  0  0  0  0  0  0  0
   59.6380   34.8640   48.9970 O   0  0  0  0  0  0  0  0  0  0  0  0
   61.0840   33.2530   48.0150 C   0  0  0  0  0  0  0  0  0  0  0  0
   62.1910   34.1220   47.9500 C   0  0  0  0  0  0  0  0  0  0  0  0
   63.4630   33.6360   47.6480 C   0  0  0  0  0  0  0  0  0  0  0  0
   63.6560   32.2740   47.4200 C   0  0  0  0  0  0  0  0  0  0  0  0
   62.5780   31.3930   47.5030 C   0  0  0  0  0  0  0  0  0  0  0  0
   61.2870   31.8660   47.7950 C   0  0  0  0  0  0  0  0  0  0  0  0
   60.2050   30.9250   47.9090 N   0  0  0  0  0  0  0  0  0  0  0  0
   60.3650   29.4990   47.7970 C   0  0  0  0  0  0  0  0  0  0  0  0
   60.3500   28.8530   46.5470 C   0  0  0  0  0  0  0  0  0  0  0  0
   60.4990   27.4660   46.4660 C   0  0  0  0  0  0  0  0  0  0  0  0
   60.6490   26.7070   47.6290 C   0  0  0  0  0  0  0  0  0  0  0  0
   60.6510   27.3350   48.8780 C   0  0  0  0  0  0  0  0  0  0  0  0
   60.8270   26.3590   50.3730 S   0  0  0  0  0  0  0  0  0  0  0  0
   61.4290   27.7610   51.3640 C   0  0  0  0  0  0  0  0  0  0  0  0
   60.5030   28.7260   48.9620 C   0  0  0  0  0  0  0  0  0  0  0  0
   58.2390   31.5590   45.9610 C   0  0  0  0  0  0  0  0  0  0  0  0
   57.9890   31.2300   44.6130 C   0  0  0  0  0  0  0  0  0  0  0  0
   57.9420   29.8580   44.1670 N   0  0  0  0  0  0  0  0  0  0  0  0
   57.1660   28.5620   45.0210 S   0  0  0  0  0  0  0  0  0  0  0  0
   57.7500   26.9910   44.4140 C   0  0  0  0  0  0  0  0  0  0  0  0
   57.5120   28.6670   46.4790 O   0  0  0  0  0  0  0  0  0  0  0  0
   55.6750   28.6700   44.8750 O   0  0  0  0  0  0  0  0  0  0  0  0
   58.9132   33.2640   41.5745 H   0  0  0  0  0  0  0  0  0  0  0  0
   58.6499   31.7710   40.6110 H   0  0  0  0  0  0  0  0  0  0  0  0
   57.4096   33.0704   40.6110 H   0  0  0  0  0  0  0  0  0  0  0  0
   57.6254   34.4174   43.3897 H   0  0  0  0  0  0  0  0  0  0  0  0
   58.0711   34.9647   45.7723 H   0  0  0  0  0  0  0  0  0  0  0  0
   62.0505   35.1964   48.1397 H   0  0  0  0  0  0  0  0  0  0  0  0
   64.3156   34.3286   47.5896 H   0  0  0  0  0  0  0  0  0  0  0  0
   64.6588   31.8943   47.1746 H   0  0  0  0  0  0  0  0  0  0  0  0
   62.7397   30.3175   47.3383 H   0  0  0  0  0  0  0  0  0  0  0  0
   59.2830   31.2900   48.2340 H   0  0  0  0  0  0  0  0  0  0  0  0
   60.2202   29.4435   45.6280 H   0  0  0  0  0  0  0  0  0  0  0  0
   60.4982   26.9706   45.4839 H   0  0  0  0  0  0  0  0  0  0  0  0
   60.7655   25.6152   47.5621 H   0  0  0  0  0  0  0  0  0  0  0  0
   61.3274   27.5245   52.4335 H   0  0  0  0  0  0  0  0  0  0  0  0
   62.4870   27.9487   51.1289 H   0  0  0  0  0  0  0  0  0  0  0  0
   60.8365   28.6575   51.1289 H   0  0  0  0  0  0  0  0  0  0  0  0
   60.4948   29.2160   49.9468 H   0  0  0  0  0  0  0  0  0  0  0  0
   58.3904   30.7558   46.6972 H   0  0  0  0  0  0  0  0  0  0  0  0
   58.4020   29.5940   43.2680 H   0  0  0  0  0  0  0  0  0  0  0  0
   57.9932   26.3368   45.2643 H   0  0  0  0  0  0  0  0  0  0  0  0
   56.9667   26.5204   43.8016 H   0  0  0  0  0  0  0  0  0  0  0  0
   58.6505   27.1463   43.8016 H   0  0  0  0  0  0  0  0  0  0  0  0
  1  2  1  0
  2  3  1  0
  3  4  2  0
  4  5  1  0
  5  6  2  0
  6  7  1  0
  7  8  1  0
  8  9  2  0
  8 10  1  0
 10 11  2  0
 11 12  1  0
 12 13  2  0
 13 14  1  0
 14 15  2  0
 15 16  1  0
 16 17  1  0
 17 18  2  0
 18 19  1  0
 19 20  2  0
 20 21  1  0
 21 22  1  0
 22 23  1  0
 21 24  2  0
  6 25  1  0
 25 26  2  0
 26 27  1  0
 27 28  1  0
 28 29  1  0
 28 30  2  0
 28 31  2  0
 26  3  1  0
 15 10  1  0
 24 17  1  0
  1 32  1  0
  1 33  1  0
  1 34  1  0
  4 35  1  0
  5 36  1  0
 11 37  1  0
 12 38  1  0
 13 39  1  0
 14 40  1  0
 16 41  1  0
 18 42  1  0
 19 43  1  0
 20 44  1  0
 23 45  1  0
 23 46  1  0
 23 47  1  0
 24 48  1  0
 25 49  1  0
 27 50  1  0
 29 51  1  0
 29 52  1  0
 29 53  1  0
M  CHG  1   7  -1
M  END
>  <UniqueID>  (42) 
39

>  <SMILES>  (42) 
COc1ccc([N-]C(=O)c2ccccc2Nc2cccc(SC)c2)cc1NS(C)(=O)=O

>  <Energy>  (42) 
62.58691237356414

>  <Genealogy>  (42) 
COc1ccc([N-]C(=O)c2ccccc2Nc2cccc(SC)c2)cc1NS(C)(=O)=O (protonated)
COc1ccc([N-]C(=O)c2ccccc2Nc2cccc(SC)c2)cc1NS(C)(=O)=O (3D coordinates assigned)
COc1ccc([N-]C(=O)c2ccccc2Nc2cccc(SC)c2)cc1NS(C)(=O)=O (optimized conformer: 62.58691237356414 kcal/mol)

>  <smiles>  (42) 
COc1ccc(NC(=O)c2ccccc2Nc2cccc(SC)c2)cc1NS(C)(=O)=O

>  <score_type>  (42) 
oracle

>  <origin>  (42) 
adg

>  <m_score__min__energy>  (42) 
-11.029999999999999

>  <m_primary>  (42) 
energy

$$$$
42:0
     RDKit          3D

 39 41  0  0  1  0  0  0  0  0999 V2000
   57.5530   28.5980   43.7000 N   0  0  0  0  0  0  0  0  0  0  0  0
   56.6440   30.0110   44.1010 S   0  0  0  0  0  0  0  0  0  0  0  0
   56.2710   30.7980   42.8650 O   0  0  0  0  0  0  0  0  0  0  0  0
   55.4170   29.6590   44.8760 O   0  0  0  0  0  0  0  0  0  0  0  0
   57.6470   31.0520   45.1050 C   0  0  0  0  0  0  0  0  0  0  0  0
   58.4970   30.4360   46.0050 C   0  0  0  0  0  0  0  0  0  0  0  0
   59.2950   31.2410   46.8060 C   0  0  0  0  0  0  0  0  0  0  0  0
   59.2330   32.6270   46.6960 C   0  0  0  0  0  0  0  0  0  0  0  0
   64.1560   31.9520   49.2950 N   0  0  0  0  0  0  0  0  0  0  0  0
   63.4200   32.5540   48.4210 C   0  0  0  0  0  0  0  0  0  0  0  0
   62.0070   33.8860   46.4520 C   0  0  0  0  0  0  0  0  0  0  0  0
   63.3920   33.7890   46.4150 C   0  0  0  0  0  0  0  0  0  0  0  0
   64.0550   33.1340   47.3870 N   0  0  0  0  0  0  0  0  0  0  0  0
   61.3790   33.2790   47.5280 C   0  0  0  0  0  0  0  0  0  0  0  0
   60.0910   33.3700   47.5610 N   0  0  0  0  0  0  0  0  0  0  0  0
   64.9640   32.7720   50.1310 C   0  0  0  0  0  0  0  0  0  0  0  0
   66.3600   32.6840   50.0910 C   0  0  0  0  0  0  0  0  0  0  0  0
   67.1700   33.4520   50.8770 C   0  0  0  0  0  0  0  0  0  0  0  0
   66.6170   34.3670   51.7600 C   0  0  0  0  0  0  0  0  0  0  0  0
   65.2300   34.4860   51.8300 C   0  0  0  0  0  0  0  0  0  0  0  0
   64.4400   33.6920   51.0190 C   0  0  0  0  0  0  0  0  0  0  0  0
   62.0820   32.6250   48.4930 N   0  0  0  0  0  0  0  0  0  0  0  0
   58.3810   33.2490   45.7940 C   0  0  0  0  0  0  0  0  0  0  0  0
   57.5970   32.4280   45.0080 C   0  0  0  0  0  0  0  0  0  0  0  0
   58.2550   28.8670   42.9830 H   0  0  0  0  0  0  0  0  0  0  0  0
   56.9180   27.8270   43.4250 H   0  0  0  0  0  0  0  0  0  0  0  0
   58.5395   29.3397   46.0839 H   0  0  0  0  0  0  0  0  0  0  0  0
   59.9808   30.7806   47.5324 H   0  0  0  0  0  0  0  0  0  0  0  0
   61.4405   34.4148   45.6713 H   0  0  0  0  0  0  0  0  0  0  0  0
   63.9505   34.2499   45.5870 H   0  0  0  0  0  0  0  0  0  0  0  0
   65.1080   33.1090   47.2800 H   0  0  0  0  0  0  0  0  0  0  0  0
   66.8237   31.9667   49.3979 H   0  0  0  0  0  0  0  0  0  0  0  0
   68.2627   33.3448   50.8098 H   0  0  0  0  0  0  0  0  0  0  0  0
   67.2634   34.9898   52.3959 H   0  0  0  0  0  0  0  0  0  0  0  0
   64.7684   35.2044   52.5235 H   0  0  0  0  0  0  0  0  0  0  0  0
   63.3470   33.7973   51.0836 H   0  0  0  0  0  0  0  0  0  0  0  0
   61.5850   32.1860   49.2750 H   0  0  0  0  0  0  0  0  0  0  0  0
   58.3326   34.3447   45.7093 H   0  0  0  0  0  0  0  0  0  0  0  0
   56.9101   32.8855   44.2807 H   0  0  0  0  0  0  0  0  0  0  0  0
  1  2  1  0
  2  3  2  0
  2  4  2  0
  2  5  1  0
  5  6  2  0
  6  7  1  0
  7  8  2  0
  8  9  1  0
  9 10  2  0
 10 11  1  0
 11 12  2  0
 12 13  1  0
 13 14  1  0
 14 15  2  0
 15 16  1  0
 16 17  2  0
 17 18  1  0
 18 19  2  0
 19 20  1  0
 20 21  2  0
 14 22  1  0
  8 23  1  0
 23 24  2  0
 24  5  1  0
 22 10  1  0
 21 16  1  0
  1 25  1  0
  1 26  1  0
  6 27  1  0
  7 28  1  0
 11 29  1  0
 12 30  1  0
 13 31  1  0
 17 32  1  0
 18 33  1  0
 19 34  1  0
 20 35  1  0
 21 36  1  0
 22 37  1  0
 23 38  1  0
 24 39  1  0
M  END
>  <smiles>  (43) 
NS(=O)(=O)c1ccc(N=c2cc[nH]c(=Nc3ccccc3)[nH]2)cc1

>  <score_type>  (43) 
oracle

>  <origin>  (43) 
adg

>  <m_score__min__energy>  (43) 
-8.7200000000000006

>  <m_primary>  (43) 
energy

$$$$
43:0
     RDKit          3D

 58 60  0  0  0  0  0  0  0  0999 V2000
   58.8760   34.8490   46.9060 C   0  0  0  0  0  0  0  0  0  0  0  0
   58.3830   34.5850   45.5440 N   0  0  0  0  0  0  0  0  0  0  0  0
   59.5230   34.2870   44.6590 C   0  0  0  0  0  0  0  0  0  0  0  0
   57.4090   33.4720   45.5520 C   0  0  0  0  0  0  0  0  0  0  0  0
   57.8470   32.3450   44.6060 C   0  0  0  0  0  0  0  0  0  0  0  0
   57.5450   31.0250   45.1750 N   0  0  0  0  0  0  0  0  0  0  0  0
   56.5790   30.1850   44.7470 C   0  0  0  0  0  0  0  0  0  0  0  0
   55.6920   30.4770   43.7140 O   0  0  0  0  0  0  0  0  0  0  0  0
   56.6250   29.0050   45.4510 C   0  0  0  0  0  0  0  0  0  0  0  0
   55.7860   27.9110   45.2710 O   0  0  0  0  0  0  0  0  0  0  0  0
   57.6600   29.1050   46.3580 C   0  0  0  0  0  0  0  0  0  0  0  0
   58.1060   28.0420   47.2870 C   0  0  0  0  0  0  0  0  0  0  0  0
   58.3990   28.3480   48.4740 O   0  0  0  0  0  0  0  0  0  0  0  0
   58.2100   26.6310   46.8640 C   0  0  0  0  0  0  0  0  0  0  0  0
   57.1700   25.7320   47.1530 C   0  0  0  0  0  0  0  0  0  0  0  0
   57.2330   24.4130   46.6980 C   0  0  0  0  0  0  0  0  0  0  0  0
   58.3410   23.9700   45.9620 C   0  0  0  0  0  0  0  0  0  0  0  0
   58.4090   22.3110   45.3660 S   0  0  0  0  0  0  0  0  0  0  0  0
   59.8460   21.8800   45.2660 O   0  0  0  0  0  0  0  0  0  0  0  0
   57.7220   21.4060   46.3510 O   0  0  0  0  0  0  0  0  0  0  0  0
   57.6450   22.1570   43.8040 N   0  0  0  0  0  0  0  0  0  0  0  0
   56.7750   20.9730   43.7890 C   0  0  0  0  0  0  0  0  0  0  0  0
   56.8630   23.3640   43.5090 C   0  0  0  0  0  0  0  0  0  0  0  0
   59.3960   24.8560   45.7030 C   0  0  0  0  0  0  0  0  0  0  0  0
   59.3340   26.1750   46.1570 C   0  0  0  0  0  0  0  0  0  0  0  0
   58.2180   30.3720   46.1590 C   0  0  0  0  0  0  0  0  0  0  0  0
   59.4600   30.8650   46.7880 C   0  0  0  0  0  0  0  0  0  0  0  0
   60.7100   30.3790   46.3760 C   0  0  0  0  0  0  0  0  0  0  0  0
   61.8850   30.8990   46.9280 C   0  0  0  0  0  0  0  0  0  0  0  0
   61.8180   31.9060   47.8950 C   0  0  0  0  0  0  0  0  0  0  0  0
   60.5770   32.3930   48.3110 C   0  0  0  0  0  0  0  0  0  0  0  0
   60.5130   33.3770   49.2430 F   0  0  0  0  0  0  0  0  0  0  0  0
   59.4000   31.8750   47.7620 C   0  0  0  0  0  0  0  0  0  0  0  0
   58.1530   34.4619   47.6391 H   0  0  0  0  0  0  0  0  0  0  0  0
   59.8456   34.3494   47.0482 H   0  0  0  0  0  0  0  0  0  0  0  0
   58.9977   35.9330   47.0482 H   0  0  0  0  0  0  0  0  0  0  0  0
   60.4092   34.0553   45.2680 H   0  0  0  0  0  0  0  0  0  0  0  0
   59.2782   33.4227   44.0242 H   0  0  0  0  0  0  0  0  0  0  0  0
   59.7325   35.1606   44.0242 H   0  0  0  0  0  0  0  0  0  0  0  0
   57.3291   33.0723   46.5737 H   0  0  0  0  0  0  0  0  0  0  0  0
   56.4371   33.8568   45.2093 H   0  0  0  0  0  0  0  0  0  0  0  0
   57.3154   32.4532   43.6491 H   0  0  0  0  0  0  0  0  0  0  0  0
   58.9343   32.4190   44.4568 H   0  0  0  0  0  0  0  0  0  0  0  0
   55.3140   29.7430   43.1270 H   0  0  0  0  0  0  0  0  0  0  0  0
   56.3026   26.0682   47.7400 H   0  0  0  0  0  0  0  0  0  0  0  0
   56.4091   23.7182   46.9182 H   0  0  0  0  0  0  0  0  0  0  0  0
   56.5516   20.6690   44.8223 H   0  0  0  0  0  0  0  0  0  0  0  0
   55.8373   21.2136   43.2667 H   0  0  0  0  0  0  0  0  0  0  0  0
   57.2848   20.1500   43.2667 H   0  0  0  0  0  0  0  0  0  0  0  0
   56.5544   23.8403   44.4513 H   0  0  0  0  0  0  0  0  0  0  0  0
   57.4781   24.0664   42.9274 H   0  0  0  0  0  0  0  0  0  0  0  0
   55.9706   23.0896   42.9274 H   0  0  0  0  0  0  0  0  0  0  0  0
   60.2758   24.5109   45.1401 H   0  0  0  0  0  0  0  0  0  0  0  0
   60.1709   26.8610   45.9595 H   0  0  0  0  0  0  0  0  0  0  0  0
   60.7660   29.5859   45.6159 H   0  0  0  0  0  0  0  0  0  0  0  0
   62.8626   30.5152   46.6009 H   0  0  0  0  0  0  0  0  0  0  0  0
   62.7427   32.3149   48.3283 H   0  0  0  0  0  0  0  0  0  0  0  0
   58.4243   32.2596   48.0939 H   0  0  0  0  0  0  0  0  0  0  0  0
  1  2  1  0
  2  3  1  0
  2  4  1  0
  4  5  1  0
  5  6  1  0
  6  7  1  0
  7  8  1  0
  7  9  2  0
  9 10  1  0
  9 11  1  0
 11 12  1  0
 12 13  2  0
 12 14  1  0
 14 15  2  0
 15 16  1  0
 16 17  2  0
 17 18  1  0
 18 19  2  0
 18 20  2  0
 18 21  1  0
 21 22  1  0
 21 23  1  0
 17 24  1  0
 24 25  2  0
 11 26  2  0
 26 27  1  0
 27 28  2  0
 28 29  1  0
 29 30  2  0
 30 31  1  0
 31 32  1  0
 31 33  2  0
 26  6  1  0
 33 27  1  0
 25 14  1  0
  1 34  1  0
  1 35  1  0
  1 36  1  0
  3 37  1  0
  3 38  1  0
  3 39  1  0
  4 40  1  0
  4 41  1  0
  5 42  1  0
  5 43  1  0
  8 44  1  0
 15 45  1  0
 16 46  1  0
 22 47  1  0
 22 48  1  0
 22 49  1  0
 23 50  1  0
 23 51  1  0
 23 52  1  0
 24 53  1  0
 25 54  1  0
 28 55  1  0
 29 56  1  0
 30 57  1  0
 33 58  1  0
M  CHG  1  10  -1
M  END
>  <UniqueID>  (44) 
40

>  <SMILES>  (44) 
CN(C)CCn1c(O)c([O-])c(C(=O)c2ccc(S(=O)(=O)N(C)C)cc2)c1-c1cccc(F)c1

>  <Energy>  (44) 
93.61723486244567

>  <Genealogy>  (44) 
CN(C)CCn1c(O)c([O-])c(C(=O)c2ccc(S(=O)(=O)N(C)C)cc2)c1-c1cccc(F)c1 (protonated)
CN(C)CCn1c(O)c([O-])c(C(=O)c2ccc(S(=O)(=O)N(C)C)cc2)c1-c1cccc(F)c1 (3D coordinates assigned)
CN(C)CCn1c(O)c([O-])c(C(=O)c2ccc(S(=O)(=O)N(C)C)cc2)c1-c1cccc(F)c1 (optimized conformer: 93.61723486244567 kcal/mol)

>  <smiles>  (44) 
CN(C)CCn1c(O)c(O)c(C(=O)c2ccc(S(=O)(=O)N(C)C)cc2)c1-c1cccc(F)c1

>  <score_type>  (44) 
oracle

>  <origin>  (44) 
adg

>  <m_score__min__energy>  (44) 
-10.4

>  <m_primary>  (44) 
energy

$$$$
44:0
     RDKit          3D

 43 44  0  0  1  0  0  0  0  0999 V2000
   57.3150   34.4020   45.0560 C   0  0  0  0  0  0  0  0  0  0  0  0
   57.3040   33.9750   46.3930 O   0  0  0  0  0  0  0  0  0  0  0  0
   58.5350   33.4410   46.7610 C   0  0  2  0  0  0  0  0  0  0  0  0
   59.6660   34.1080   46.0050 C   0  0  0  0  0  0  0  0  0  0  0  0
   60.8620   34.0150   46.8960 C   0  0  0  0  0  0  0  0  0  0  0  0
   60.6530   34.1630   48.2500 C   0  0  0  0  0  0  0  0  0  0  0  0
   61.7220   34.0870   49.1270 C   0  0  0  0  0  0  0  0  0  0  0  0
   63.0080   33.8620   48.6420 C   0  0  0  0  0  0  0  0  0  0  0  0
   63.2210   33.7140   47.2880 C   0  0  0  0  0  0  0  0  0  0  0  0
   62.1300   33.7930   46.4180 C   0  0  0  0  0  0  0  0  0  0  0  0
   58.5780   31.9640   46.6220 C   0  0  0  0  0  0  0  0  0  0  0  0
   59.0150   31.1310   47.6500 C   0  0  0  0  0  0  0  0  0  0  0  0
   59.0360   29.7480   47.4690 C   0  0  0  0  0  0  0  0  0  0  0  0
   58.6110   29.2210   46.2480 C   0  0  0  0  0  0  0  0  0  0  0  0
   58.6290   27.7980   46.0540 C   0  0  0  0  0  0  0  0  0  0  0  0
   58.6340   26.6050   45.8710 C   0  0  0  0  0  0  0  0  0  0  0  0
   58.6290   25.1700   45.6690 C   0  0  0  0  0  0  0  0  0  0  0  0
   57.5370   24.4430   45.7730 C   0  0  0  0  0  0  0  0  0  0  0  0
   56.2340   24.9140   46.1800 C   0  0  0  0  0  0  0  0  0  0  0  0
   55.5180   24.1950   47.1620 O   0  0  0  0  0  0  0  0  0  0  0  0
   55.6330   25.9530   45.7290 N   0  0  0  0  0  0  0  0  0  0  0  0
   54.3610   26.3270   45.9450 O   0  0  0  0  0  0  0  0  0  0  0  0
   58.1790   30.0500   45.2350 C   0  0  0  0  0  0  0  0  0  0  0  0
   58.1620   31.4300   45.4210 C   0  0  0  0  0  0  0  0  0  0  0  0
   57.3433   35.5011   45.0223 H   0  0  0  0  0  0  0  0  0  0  0  0
   58.2030   33.9966   44.5489 H   0  0  0  0  0  0  0  0  0  0  0  0
   56.4073   34.0429   44.5489 H   0  0  0  0  0  0  0  0  0  0  0  0
   58.6715   33.6548   47.8314 H   0  0  0  0  0  0  0  0  0  0  0  0
   59.8537   33.5843   45.0561 H   0  0  0  0  0  0  0  0  0  0  0  0
   59.4264   35.1525   45.7568 H   0  0  0  0  0  0  0  0  0  0  0  0
   59.6377   34.3414   48.6339 H   0  0  0  0  0  0  0  0  0  0  0  0
   61.5552   34.2045   50.2079 H   0  0  0  0  0  0  0  0  0  0  0  0
   63.8555   33.8023   49.3407 H   0  0  0  0  0  0  0  0  0  0  0  0
   64.2342   33.5364   46.8983 H   0  0  0  0  0  0  0  0  0  0  0  0
   62.2892   33.6758   45.3359 H   0  0  0  0  0  0  0  0  0  0  0  0
   59.3440   31.5647   48.6059 H   0  0  0  0  0  0  0  0  0  0  0  0
   59.3816   29.0838   48.2748 H   0  0  0  0  0  0  0  0  0  0  0  0
   59.5755   24.6685   45.4188 H   0  0  0  0  0  0  0  0  0  0  0  0
   57.6252   23.3746   45.5264 H   0  0  0  0  0  0  0  0  0  0  0  0
   54.5620   24.4690   47.3980 H   0  0  0  0  0  0  0  0  0  0  0  0
   53.6610   25.7250   46.3910 H   0  0  0  0  0  0  0  0  0  0  0  0
   57.8471   29.6208   44.2781 H   0  0  0  0  0  0  0  0  0  0  0  0
   57.8178   32.0917   44.6125 H   0  0  0  0  0  0  0  0  0  0  0  0
  1  2  1  0
  2  3  1  0
  3  4  1  0
  4  5  1  0
  5  6  2  0
  6  7  1  0
  7  8  2  0
  8  9  1  0
  9 10  2  0
  3 11  1  0
 11 12  2  0
 12 13  1  0
 13 14  2  0
 14 15  1  0
 15 16  3  0
 16 17  1  0
 17 18  2  0
 18 19  1  0
 19 20  1  0
 19 21  2  0
 21 22  1  0
 14 23  1  0
 23 24  2  0
 10  5  1  0
 24 11  1  0
  1 25  1  0
  1 26  1  0
  1 27  1  0
  3 28  1  1
  4 29  1  0
  4 30  1  0
  6 31  1  0
  7 32  1  0
  8 33  1  0
  9 34  1  0
 10 35  1  0
 12 36  1  0
 13 37  1  0
 17 38  1  0
 18 39  1  0
 20 40  1  0
 22 41  1  0
 23 42  1  0
 24 43  1  0
M  END
>  <smiles>  (45) 
COC(Cc1ccccc1)c1ccc(C#CC=CC(O)=NO)cc1

>  <score_type>  (45) 
oracle

>  <origin>  (45) 
adg

>  <m_score__min__energy>  (45) 
-8.8300000000000001

>  <m_primary>  (45) 
energy

$$$$
45:0
     RDKit          3D

 61 65  0  0  0  0  0  0  0  0999 V2000
   58.5040   29.7090   43.2120 H   0  0  0  0  0  0  0  0  0  0  0  0
   57.9650   29.7720   44.1040 N   0  0  0  0  0  0  0  0  0  0  0  0
   57.9030   30.8740   44.7800 C   0  0  0  0  0  0  0  0  0  0  0  0
   57.4150   32.0100   44.2010 N   0  0  0  0  0  0  0  0  0  0  0  0
   57.3890   33.2020   44.8670 C   0  0  0  0  0  0  0  0  0  0  0  0
   56.9676   34.0958   44.3838 H   0  0  0  0  0  0  0  0  0  0  0  0
   57.9010   33.2810   46.1670 C   0  0  0  0  0  0  0  0  0  0  0  0
   57.9071   34.2328   46.7185 H   0  0  0  0  0  0  0  0  0  0  0  0
   58.3900   32.1440   46.7250 N   0  0  0  0  0  0  0  0  0  0  0  0
   58.9590   31.9240   47.9300 C   0  0  0  0  0  0  0  0  0  0  0  0
   59.2260   32.9790   48.9750 C   0  0  0  0  0  0  0  0  0  0  0  0
   60.0578   33.6113   48.6310 H   0  0  0  0  0  0  0  0  0  0  0  0
   58.2993   33.5572   49.1050 H   0  0  0  0  0  0  0  0  0  0  0  0
   59.5830   32.4040   50.2990 N   0  0  2  0  0  0  0  0  0  0  0  0
   59.9500   31.4310   50.1720 H   0  0  0  0  0  0  0  0  0  0  0  0
   58.3850   32.3090   51.1620 C   0  0  0  0  0  0  0  0  0  0  0  0
   58.6911   32.3333   52.2183 H   0  0  0  0  0  0  0  0  0  0  0  0
   57.7156   33.1569   50.9547 H   0  0  0  0  0  0  0  0  0  0  0  0
   57.8576   31.3662   50.9547 H   0  0  0  0  0  0  0  0  0  0  0  0
   60.6180   33.2350   50.9780 C   0  0  0  0  0  0  0  0  0  0  0  0
   60.5776   34.2510   50.5585 H   0  0  0  0  0  0  0  0  0  0  0  0
   60.3904   33.2156   52.0540 H   0  0  0  0  0  0  0  0  0  0  0  0
   62.0570   32.6950   50.8110 C   0  0  0  0  0  0  0  0  0  0  0  0
   62.7318   33.3038   51.4307 H   0  0  0  0  0  0  0  0  0  0  0  0
   62.0453   31.6397   51.1213 H   0  0  0  0  0  0  0  0  0  0  0  0
   62.5510   32.7340   49.3870 C   0  0  0  0  0  0  0  0  0  0  0  0
   62.5370   31.5700   48.5960 C   0  0  0  0  0  0  0  0  0  0  0  0
   62.1493   30.6289   49.0131 H   0  0  0  0  0  0  0  0  0  0  0  0
   63.0140   31.6050   47.2820 C   0  0  0  0  0  0  0  0  0  0  0  0
   62.9985   30.6925   46.6679 H   0  0  0  0  0  0  0  0  0  0  0  0
   63.5100   32.7960   46.7480 C   0  0  0  0  0  0  0  0  0  0  0  0
   63.9039   32.8162   45.7212 H   0  0  0  0  0  0  0  0  0  0  0  0
   63.5060   33.9640   47.5190 C   0  0  0  0  0  0  0  0  0  0  0  0
   63.8874   34.9040   47.0937 H   0  0  0  0  0  0  0  0  0  0  0  0
   63.0180   33.9380   48.8290 C   0  0  0  0  0  0  0  0  0  0  0  0
   62.9992   34.8621   49.4253 H   0  0  0  0  0  0  0  0  0  0  0  0
   59.2890   30.6240   48.1060 N   0  0  0  0  0  0  0  0  0  0  0  0
   58.9080   30.0070   46.9610 C   0  0  0  0  0  0  0  0  0  0  0  0
   58.9610   28.5410   46.7980 C   0  0  0  0  0  0  0  0  0  0  0  0
   60.1150   27.9180   46.2970 C   0  0  0  0  0  0  0  0  0  0  0  0
   61.0176   28.5152   46.1002 H   0  0  0  0  0  0  0  0  0  0  0  0
   60.1230   26.5430   46.0470 C   0  0  0  0  0  0  0  0  0  0  0  0
   61.0429   26.0572   45.6895 H   0  0  0  0  0  0  0  0  0  0  0  0
   58.9680   25.7820   46.2490 C   0  0  0  0  0  0  0  0  0  0  0  0
   59.0030   24.4140   45.9510 O   0  0  0  0  0  0  0  0  0  0  0  0
   58.1880   23.7730   45.0040 C   0  0  0  0  0  0  0  0  0  0  0  0
   57.1730   24.4590   44.3100 C   0  0  0  0  0  0  0  0  0  0  0  0
   56.9866   25.5224   44.5210 H   0  0  0  0  0  0  0  0  0  0  0  0
   56.4010   23.7920   43.3530 C   0  0  0  0  0  0  0  0  0  0  0  0
   55.6010   24.3287   42.8220 H   0  0  0  0  0  0  0  0  0  0  0  0
   56.6440   22.4450   43.0700 C   0  0  0  0  0  0  0  0  0  0  0  0
   56.0327   21.9212   42.3203 H   0  0  0  0  0  0  0  0  0  0  0  0
   57.6640   21.7640   43.7400 C   0  0  0  0  0  0  0  0  0  0  0  0
   57.8618   20.7066   43.5102 H   0  0  0  0  0  0  0  0  0  0  0  0
   58.4340   22.4260   44.7030 C   0  0  0  0  0  0  0  0  0  0  0  0
   59.2368   21.8864   45.2267 H   0  0  0  0  0  0  0  0  0  0  0  0
   57.8140   26.3990   46.7600 C   0  0  0  0  0  0  0  0  0  0  0  0
   56.9127   25.7997   46.9563 H   0  0  0  0  0  0  0  0  0  0  0  0
   57.8080   27.7740   47.0200 C   0  0  0  0  0  0  0  0  0  0  0  0
   56.8949   28.2554   47.4002 H   0  0  0  0  0  0  0  0  0  0  0  0
   58.3700   30.9570   46.1000 C   0  0  0  0  0  0  0  0  0  0  0  0
  1  2  1  0
  2  3  2  0
  3  4  1  0
  4  5  1  0
  5  6  1  0
  5  7  2  0
  7  8  1  0
  7  9  1  0
  9 10  1  0
 10 11  1  0
 11 12  1  0
 11 13  1  0
 11 14  1  0
 14 15  1  6
 14 16  1  0
 16 17  1  0
 16 18  1  0
 16 19  1  0
 14 20  1  0
 20 21  1  0
 20 22  1  0
 20 23  1  0
 23 24  1  0
 23 25  1  0
 23 26  1  0
 26 27  2  0
 27 28  1  0
 27 29  1  0
 29 30  1  0
 29 31  2  0
 31 32  1  0
 31 33  1  0
 33 34  1  0
 33 35  2  0
 35 36  1  0
 10 37  2  0
 37 38  1  0
 38 39  1  0
 39 40  2  0
 40 41  1  0
 40 42  1  0
 42 43  1  0
 42 44  2  0
 44 45  1  0
 45 46  1  0
 46 47  2  0
 47 48  1  0
 47 49  1  0
 49 50  1  0
 49 51  2  0
 51 52  1  0
 51 53  1  0
 53 54  1  0
 53 55  2  0
 55 56  1  0
 44 57  1  0
 57 58  1  0
 57 59  2  0
 59 60  1  0
 38 61  2  0
 61  3  1  0
 61  9  1  0
 35 26  1  0
 59 39  1  0
 55 46  1  0
M  CHG  2   4  -1  14   1
M  END
>  <UniqueID>  (46) 
41

>  <SMILES>  (46) 
[H]/N=c1\[n-]ccn2c(C[N@H+](C)CCc3ccccc3)nc(-c3ccc(Oc4ccccc4)cc3)c12

>  <Energy>  (46) 
121.08029697419663

>  <Genealogy>  (46) 
C[NH+](CCc1ccccc1)Cc1nc(-c2ccc(Oc3ccccc3)cc2)c2c(=N)[n-]ccn12 (protonated)
C[N@H+](CCc1ccccc1)Cc1nc(-c2ccc(Oc3ccccc3)cc2)c2c(=N)[n-]ccn12 (chirality)
[H]/N=c1\[n-]ccn2c(C[N@H+](C)CCc3ccccc3)nc(-c3ccc(Oc4ccccc4)cc3)c12 (cis-trans isomerization)
[H]/N=c1\[n-]ccn2c(C[N@H+](C)CCc3ccccc3)nc(-c3ccc(Oc4ccccc4)cc3)c12 (3D coordinates assigned)
[H]/N=c1\[n-]ccn2c(C[N@H+](C)CCc3ccccc3)nc(-c3ccc(Oc4ccccc4)cc3)c12 (optimized conformer: 121.08029697419663 kcal/mol)

>  <smiles>  (46) 
CN(CCc1ccccc1)Cc1nc(-c2ccc(Oc3ccccc3)cc2)c2c(=N)[nH]ccn12

>  <score_type>  (46) 
oracle

>  <origin>  (46) 
adg

>  <m_score__min__energy>  (46) 
-8.8699999999999992

>  <m_primary>  (46) 
energy

$$$$
46:0
     RDKit          3D

 56 59  0  0  0  0  0  0  0  0999 V2000
   58.1180   31.1950   43.6230 C   0  0  0  0  0  0  0  0  0  0  0  0
   56.7400   30.0650   43.7010 S   0  0  0  0  0  0  0  0  0  0  0  0
   55.6330   30.6930   44.5030 O   0  0  0  0  0  0  0  0  0  0  0  0
   56.2290   29.7890   42.3110 O   0  0  0  0  0  0  0  0  0  0  0  0
   57.2220   28.5830   44.4750 N   0  0  0  0  0  0  0  0  0  0  0  0
   58.0110   28.5210   45.6790 C   0  0  0  0  0  0  0  0  0  0  0  0
   58.9910   29.4910   45.9580 C   0  0  0  0  0  0  0  0  0  0  0  0
   59.7590   29.4260   47.1350 C   0  0  0  0  0  0  0  0  0  0  0  0
   60.7900   30.4530   47.4190 C   0  0  0  0  0  0  0  0  0  0  0  0
   61.8250   30.5140   46.7000 O   0  0  0  0  0  0  0  0  0  0  0  0
   60.5770   31.4070   48.4760 N   0  0  0  0  0  0  0  0  0  0  0  0
   59.6270   32.2960   48.5910 C   0  0  0  0  0  0  0  0  0  0  0  0
   59.0550   32.5600   49.9420 C   0  0  0  0  0  0  0  0  0  0  0  0
   58.0620   31.7110   50.4740 C   0  0  0  0  0  0  0  0  0  0  0  0
   57.5170   31.9590   51.7380 C   0  0  0  0  0  0  0  0  0  0  0  0
   57.9570   33.0500   52.4890 C   0  0  0  0  0  0  0  0  0  0  0  0
   58.9460   33.8930   51.9810 C   0  0  0  0  0  0  0  0  0  0  0  0
   59.4950   33.6520   50.7180 C   0  0  0  0  0  0  0  0  0  0  0  0
   59.1180   33.0440   47.4190 C   0  0  0  0  0  0  0  0  0  0  0  0
   59.9590   33.9340   46.7340 C   0  0  0  0  0  0  0  0  0  0  0  0
   59.4800   34.6400   45.6260 C   0  0  0  0  0  0  0  0  0  0  0  0
   58.1620   34.4540   45.1930 C   0  0  0  0  0  0  0  0  0  0  0  0
   57.3250   33.5580   45.8640 C   0  0  0  0  0  0  0  0  0  0  0  0
   57.8000   32.8510   46.9720 C   0  0  0  0  0  0  0  0  0  0  0  0
   59.5360   28.3690   48.0370 C   0  0  0  0  0  0  0  0  0  0  0  0
   58.5530   27.4140   47.7750 C   0  0  0  0  0  0  0  0  0  0  0  0
   57.7750   27.4910   46.6080 C   0  0  0  0  0  0  0  0  0  0  0  0
   56.8020   26.5200   46.3260 O   0  0  0  0  0  0  0  0  0  0  0  0
   57.0400   25.2860   45.7030 C   0  0  0  0  0  0  0  0  0  0  0  0
   58.2950   24.6830   45.8610 C   0  0  0  0  0  0  0  0  0  0  0  0
   58.5770   23.4620   45.2400 C   0  0  0  0  0  0  0  0  0  0  0  0
   57.6110   22.8450   44.4420 C   0  0  0  0  0  0  0  0  0  0  0  0
   56.3640   23.4470   44.2600 C   0  0  0  0  0  0  0  0  0  0  0  0
   56.0760   24.6650   44.8870 C   0  0  0  0  0  0  0  0  0  0  0  0
   58.4363   31.4560   44.6431 H   0  0  0  0  0  0  0  0  0  0  0  0
   58.9532   30.7184   43.0889 H   0  0  0  0  0  0  0  0  0  0  0  0
   57.8142   32.1074   43.0889 H   0  0  0  0  0  0  0  0  0  0  0  0
   56.9760   27.6990   43.9760 H   0  0  0  0  0  0  0  0  0  0  0  0
   59.1592   30.3121   45.2456 H   0  0  0  0  0  0  0  0  0  0  0  0
   57.7133   30.8466   49.8898 H   0  0  0  0  0  0  0  0  0  0  0  0
   56.7400   31.2928   52.1410 H   0  0  0  0  0  0  0  0  0  0  0  0
   57.5242   33.2452   53.4812 H   0  0  0  0  0  0  0  0  0  0  0  0
   59.2948   34.7499   52.5761 H   0  0  0  0  0  0  0  0  0  0  0  0
   60.2766   34.3197   50.3265 H   0  0  0  0  0  0  0  0  0  0  0  0
   60.9970   34.0767   47.0691 H   0  0  0  0  0  0  0  0  0  0  0  0
   60.1394   35.3419   45.0944 H   0  0  0  0  0  0  0  0  0  0  0  0
   57.7847   35.0133   44.3242 H   0  0  0  0  0  0  0  0  0  0  0  0
   56.2910   33.4091   45.5195 H   0  0  0  0  0  0  0  0  0  0  0  0
   57.1410   32.1423   47.4950 H   0  0  0  0  0  0  0  0  0  0  0  0
   60.1399   28.2953   48.9535 H   0  0  0  0  0  0  0  0  0  0  0  0
   58.3859   26.5937   48.4886 H   0  0  0  0  0  0  0  0  0  0  0  0
   59.0631   25.1730   46.4773 H   0  0  0  0  0  0  0  0  0  0  0  0
   59.5595   22.9876   45.3801 H   0  0  0  0  0  0  0  0  0  0  0  0
   57.8327   21.8834   43.9561 H   0  0  0  0  0  0  0  0  0  0  0  0
   55.6079   22.9639   43.6237 H   0  0  0  0  0  0  0  0  0  0  0  0
   55.0936   25.1380   44.7415 H   0  0  0  0  0  0  0  0  0  0  0  0
  1  2  1  0
  2  3  2  0
  2  4  2  0
  2  5  1  0
  5  6  1  0
  6  7  2  0
  7  8  1  0
  8  9  1  0
  9 10  2  0
  9 11  1  0
 11 12  2  3
 12 13  1  0
 13 14  2  0
 14 15  1  0
 15 16  2  0
 16 17  1  0
 17 18  2  0
 12 19  1  0
 19 20  2  0
 20 21  1  0
 21 22  2  0
 22 23  1  0
 23 24  2  0
  8 25  2  0
 25 26  1  0
 26 27  2  0
 27 28  1  0
 28 29  1  0
 29 30  2  0
 30 31  1  0
 31 32  2  0
 32 33  1  0
 33 34  2  0
 27  6  1  0
 34 29  1  0
 18 13  1  0
 24 19  1  0
  1 35  1  0
  1 36  1  0
  1 37  1  0
  5 38  1  0
  7 39  1  0
 14 40  1  0
 15 41  1  0
 16 42  1  0
 17 43  1  0
 18 44  1  0
 20 45  1  0
 21 46  1  0
 22 47  1  0
 23 48  1  0
 24 49  1  0
 25 50  1  0
 26 51  1  0
 30 52  1  0
 31 53  1  0
 32 54  1  0
 33 55  1  0
 34 56  1  0
M  END
>  <UniqueID>  (47) 
42

>  <SMILES>  (47) 
CS(=O)(=O)Nc1cc(C(=O)N=C(c2ccccc2)c2ccccc2)ccc1Oc1ccccc1

>  <Energy>  (47) 
80.35128583299998

>  <Genealogy>  (47) 
CS(=O)(=O)Nc1cc(C(=O)N=C(c2ccccc2)c2ccccc2)ccc1Oc1ccccc1 (3D coordinates assigned)
CS(=O)(=O)Nc1cc(C(=O)N=C(c2ccccc2)c2ccccc2)ccc1Oc1ccccc1 (optimized conformer: 80.35128583299998 kcal/mol)

>  <smiles>  (47) 
CS(=O)(=O)Nc1cc(C(=O)N=C(c2ccccc2)c2ccccc2)ccc1Oc1ccccc1

>  <score_type>  (47) 
oracle

>  <origin>  (47) 
adg

>  <m_score__min__energy>  (47) 
-10.880000000000001

>  <m_primary>  (47) 
energy

$$$$
47:0
     RDKit          3D

 48 50  0  0  0  0  0  0  0  0999 V2000
   63.4550   33.8320   49.7860 C   0  0  0  0  0  0  0  0  0  0  0  0
   63.0720   33.0890   48.2100 S   0  0  0  0  0  0  0  0  0  0  0  0
   64.0710   33.5680   47.1930 O   0  0  0  0  0  0  0  0  0  0  0  0
   63.1500   31.5900   48.3150 O   0  0  0  0  0  0  0  0  0  0  0  0
   61.4400   33.5440   47.7140 C   0  0  0  0  0  0  0  0  0  0  0  0
   60.5630   34.1730   48.6060 C   0  0  0  0  0  0  0  0  0  0  0  0
   59.2960   34.5940   48.1710 C   0  0  0  0  0  0  0  0  0  0  0  0
   58.8930   34.3670   46.8540 C   0  0  0  0  0  0  0  0  0  0  0  0
   59.7480   33.7130   45.9580 C   0  0  0  0  0  0  0  0  0  0  0  0
   59.3000   33.4910   44.6130 N   0  0  0  0  0  0  0  0  0  0  0  0
   57.7230   32.9280   44.1600 S   0  0  0  0  0  0  0  0  0  0  0  0
   57.5250   33.0840   42.6770 O   0  0  0  0  0  0  0  0  0  0  0  0
   56.6890   33.7610   44.8660 O   0  0  0  0  0  0  0  0  0  0  0  0
   57.5270   31.2450   44.6490 C   0  0  0  0  0  0  0  0  0  0  0  0
   56.4340   30.4890   44.2060 C   0  0  0  0  0  0  0  0  0  0  0  0
   56.3350   29.1370   44.5390 C   0  0  0  0  0  0  0  0  0  0  0  0
   57.3020   28.5350   45.3550 C   0  0  0  0  0  0  0  0  0  0  0  0
   57.1940   27.1390   45.6660 N   0  0  0  0  0  0  0  0  0  0  0  0
   57.6890   26.5600   46.8830 C   0  0  0  0  0  0  0  0  0  0  0  0
   58.1110   27.3000   47.8140 O   0  0  0  0  0  0  0  0  0  0  0  0
   57.5920   25.0750   47.1060 C   0  0  0  0  0  0  0  0  0  0  0  0
   57.1180   24.4090   45.8790 N   0  0  0  0  0  0  0  0  0  0  0  0
   57.9660   23.5570   45.2290 C   0  0  0  0  0  0  0  0  0  0  0  0
   57.5420   22.8600   44.1030 C   0  0  0  0  0  0  0  0  0  0  0  0
   56.2340   23.0430   43.6600 C   0  0  0  0  0  0  0  0  0  0  0  0
   55.8090   22.4150   42.6580 O   0  0  0  0  0  0  0  0  0  0  0  0
   55.4140   23.8990   44.3160 N   0  0  0  0  0  0  0  0  0  0  0  0
   55.8400   24.5810   45.4110 C   0  0  0  0  0  0  0  0  0  0  0  0
   55.0430   25.3660   45.9870 O   0  0  0  0  0  0  0  0  0  0  0  0
   58.3900   29.2970   45.8100 C   0  0  0  0  0  0  0  0  0  0  0  0
   58.5030   30.6430   45.4530 C   0  0  0  0  0  0  0  0  0  0  0  0
   61.0300   33.3200   46.3950 C   0  0  0  0  0  0  0  0  0  0  0  0
   63.1139   33.1703   50.5959 H   0  0  0  0  0  0  0  0  0  0  0  0
   64.5419   33.9804   49.8670 H   0  0  0  0  0  0  0  0  0  0  0  0
   62.9453   34.8034   49.8670 H   0  0  0  0  0  0  0  0  0  0  0  0
   60.8673   34.3378   49.6502 H   0  0  0  0  0  0  0  0  0  0  0  0
   58.6183   35.1048   48.8709 H   0  0  0  0  0  0  0  0  0  0  0  0
   57.9006   34.7029   46.5188 H   0  0  0  0  0  0  0  0  0  0  0  0
   55.6517   30.9620   43.5942 H   0  0  0  0  0  0  0  0  0  0  0  0
   55.4927   28.5406   44.1585 H   0  0  0  0  0  0  0  0  0  0  0  0
   56.6100   26.5460   45.0440 H   0  0  0  0  0  0  0  0  0  0  0  0
   58.5838   24.6816   47.3737 H   0  0  0  0  0  0  0  0  0  0  0  0
   56.8795   24.8788   47.9207 H   0  0  0  0  0  0  0  0  0  0  0  0
   58.9927   23.4214   45.5997 H   0  0  0  0  0  0  0  0  0  0  0  0
   58.2245   22.1789   43.5736 H   0  0  0  0  0  0  0  0  0  0  0  0
   59.1555   28.8330   46.4493 H   0  0  0  0  0  0  0  0  0  0  0  0
   59.3624   31.2326   45.8050 H   0  0  0  0  0  0  0  0  0  0  0  0
   61.7172   32.8306   45.6891 H   0  0  0  0  0  0  0  0  0  0  0  0
  1  2  1  0
  2  3  2  0
  2  4  2  0
  2  5  1  0
  5  6  2  0
  6  7  1  0
  7  8  2  0
  8  9  1  0
  9 10  1  0
 10 11  1  0
 11 12  2  0
 11 13  2  0
 11 14  1  0
 14 15  2  0
 15 16  1  0
 16 17  2  0
 17 18  1  0
 18 19  1  0
 19 20  2  0
 19 21  1  0
 21 22  1  0
 22 23  1  0
 23 24  2  0
 24 25  1  0
 25 26  2  0
 25 27  1  0
 27 28  1  0
 28 29  2  0
 17 30  1  0
 30 31  2  0
  9 32  2  0
 32  5  1  0
 31 14  1  0
 28 22  1  0
  1 33  1  0
  1 34  1  0
  1 35  1  0
  6 36  1  0
  7 37  1  0
  8 38  1  0
 15 39  1  0
 16 40  1  0
 18 41  1  0
 21 42  1  0
 21 43  1  0
 23 44  1  0
 24 45  1  0
 30 46  1  0
 31 47  1  0
 32 48  1  0
M  CHG  2  10  -1  27  -1
M  END
>  <UniqueID>  (48) 
43

>  <SMILES>  (48) 
CS(=O)(=O)c1cccc([N-]S(=O)(=O)c2ccc(NC(=O)Cn3ccc(=O)[n-]c3=O)cc2)c1

>  <Energy>  (48) 
56.23560310038497

>  <Genealogy>  (48) 
CS(=O)(=O)c1cccc([N-]S(=O)(=O)c2ccc(NC(=O)Cn3ccc(=O)[n-]c3=O)cc2)c1 (protonated)
CS(=O)(=O)c1cccc([N-]S(=O)(=O)c2ccc(NC(=O)Cn3ccc(=O)[n-]c3=O)cc2)c1 (3D coordinates assigned)
CS(=O)(=O)c1cccc([N-]S(=O)(=O)c2ccc(NC(=O)Cn3ccc(=O)[n-]c3=O)cc2)c1 (optimized conformer: 56.23560310038497 kcal/mol)

>  <smiles>  (48) 
CS(=O)(=O)c1cccc(NS(=O)(=O)c2ccc(NC(=O)Cn3ccc(=O)[nH]c3=O)cc2)c1

>  <score_type>  (48) 
oracle

>  <origin>  (48) 
adg

>  <m_score__min__energy>  (48) 
-12.9

>  <m_primary>  (48) 
energy

$$$$
48:0
     RDKit          3D

 50 53  0  0  0  0  0  0  0  0999 V2000
   56.6220   30.9280   44.6740 O   0  0  0  0  0  0  0  0  0  0  0  0
   57.6900   31.0180   45.3390 C   0  0  0  0  0  0  0  0  0  0  0  0
   58.2750   29.8350   45.9100 N   0  0  0  0  0  0  0  0  0  0  0  0
   58.0490   28.5060   45.4050 C   0  0  0  0  0  0  0  0  0  0  0  0
   58.7320   28.0270   44.2760 C   0  0  0  0  0  0  0  0  0  0  0  0
   58.5120   26.7290   43.8190 C   0  0  0  0  0  0  0  0  0  0  0  0
   57.6180   25.8780   44.4840 C   0  0  0  0  0  0  0  0  0  0  0  0
   57.4700   24.5300   44.0180 N   0  0  0  0  0  0  0  0  0  0  0  0
   56.3180   24.0710   43.2620 C   0  0  0  0  0  0  0  0  0  0  0  0
   56.4590   22.5410   43.1680 C   0  0  0  0  0  0  0  0  0  0  0  0
   57.5270   22.1260   44.1930 C   0  0  0  0  0  0  0  0  0  0  0  0
   58.1210   23.4150   44.5950 C   0  0  0  0  0  0  0  0  0  0  0  0
   59.1050   23.5200   45.3770 O   0  0  0  0  0  0  0  0  0  0  0  0
   56.9320   26.3390   45.6330 C   0  0  0  0  0  0  0  0  0  0  0  0
   55.9470   25.4950   46.3570 C   0  0  0  0  0  0  0  0  0  0  0  0
   56.2850   24.8790   47.4040 O   0  0  0  0  0  0  0  0  0  0  0  0
   54.5990   25.4040   45.8760 N   0  0  0  0  0  0  0  0  0  0  0  0
   53.7620   24.2370   45.8830 C   0  0  0  0  0  0  0  0  0  0  0  0
   52.5300   24.1950   45.2000 C   0  0  0  0  0  0  0  0  0  0  0  0
   51.7380   23.0430   45.2510 C   0  0  0  0  0  0  0  0  0  0  0  0
   52.1600   21.9340   45.9900 C   0  0  0  0  0  0  0  0  0  0  0  0
   53.3710   21.9770   46.6880 C   0  0  0  0  0  0  0  0  0  0  0  0
   53.7730   20.9060   47.4160 F   0  0  0  0  0  0  0  0  0  0  0  0
   54.1630   23.1280   46.6410 C   0  0  0  0  0  0  0  0  0  0  0  0
   57.1680   27.6520   46.0830 C   0  0  0  0  0  0  0  0  0  0  0  0
   58.3010   32.3520   45.5590 C   0  0  0  0  0  0  0  0  0  0  0  0
   58.0880   33.4060   44.6500 C   0  0  0  0  0  0  0  0  0  0  0  0
   58.6630   34.6620   44.8720 C   0  0  0  0  0  0  0  0  0  0  0  0
   59.4510   34.8820   46.0030 C   0  0  0  0  0  0  0  0  0  0  0  0
   59.6620   33.8480   46.9170 C   0  0  0  0  0  0  0  0  0  0  0  0
   59.0910   32.5910   46.7000 C   0  0  0  0  0  0  0  0  0  0  0  0
   58.7940   29.9330   46.8120 H   0  0  0  0  0  0  0  0  0  0  0  0
   59.4442   28.6793   43.7495 H   0  0  0  0  0  0  0  0  0  0  0  0
   59.0454   26.3683   42.9271 H   0  0  0  0  0  0  0  0  0  0  0  0
   55.3869   24.3383   43.7831 H   0  0  0  0  0  0  0  0  0  0  0  0
   56.2771   24.5353   42.2656 H   0  0  0  0  0  0  0  0  0  0  0  0
   55.4997   22.0577   43.4048 H   0  0  0  0  0  0  0  0  0  0  0  0
   56.7488   22.2344   42.1521 H   0  0  0  0  0  0  0  0  0  0  0  0
   57.0711   21.6153   45.0540 H   0  0  0  0  0  0  0  0  0  0  0  0
   58.2640   21.4171   43.7877 H   0  0  0  0  0  0  0  0  0  0  0  0
   52.1905   25.0696   44.6258 H   0  0  0  0  0  0  0  0  0  0  0  0
   50.7816   23.0098   44.7087 H   0  0  0  0  0  0  0  0  0  0  0  0
   51.5389   21.0267   46.0225 H   0  0  0  0  0  0  0  0  0  0  0  0
   55.1079   23.1638   47.2030 H   0  0  0  0  0  0  0  0  0  0  0  0
   56.6512   28.0147   46.9838 H   0  0  0  0  0  0  0  0  0  0  0  0
   57.4649   33.2407   43.7587 H   0  0  0  0  0  0  0  0  0  0  0  0
   58.4938   35.4778   44.1538 H   0  0  0  0  0  0  0  0  0  0  0  0
   59.9053   35.8691   46.1739 H   0  0  0  0  0  0  0  0  0  0  0  0
   60.2794   34.0231   47.8104 H   0  0  0  0  0  0  0  0  0  0  0  0
   59.2600   31.7821   47.4260 H   0  0  0  0  0  0  0  0  0  0  0  0
  1  2  2  0
  2  3  1  0
  3  4  1  0
  4  5  2  0
  5  6  1  0
  6  7  2  0
  7  8  1  0
  8  9  1  0
  9 10  1  0
 10 11  1  0
 11 12  1  0
 12 13  2  0
  7 14  1  0
 14 15  1  0
 15 16  2  0
 15 17  1  0
 17 18  1  0
 18 19  2  0
 19 20  1  0
 20 21  2  0
 21 22  1  0
 22 23  1  0
 22 24  2  0
 14 25  2  0
  2 26  1  0
 26 27  2  0
 27 28  1  0
 28 29  2  0
 29 30  1  0
 30 31  2  0
 25  4  1  0
 31 26  1  0
 12  8  1  0
 24 18  1  0
  3 32  1  0
  5 33  1  0
  6 34  1  0
  9 35  1  0
  9 36  1  0
 10 37  1  0
 10 38  1  0
 11 39  1  0
 11 40  1  0
 19 41  1  0
 20 42  1  0
 21 43  1  0
 24 44  1  0
 25 45  1  0
 27 46  1  0
 28 47  1  0
 29 48  1  0
 30 49  1  0
 31 50  1  0
M  CHG  1  17  -1
M  END
>  <UniqueID>  (49) 
44

>  <SMILES>  (49) 
O=C(Nc1ccc(N2CCCC2=O)c(C(=O)[N-]c2cccc(F)c2)c1)c1ccccc1

>  <Energy>  (49) 
78.81827898010917

>  <Genealogy>  (49) 
O=C(Nc1ccc(N2CCCC2=O)c(C(=O)[N-]c2cccc(F)c2)c1)c1ccccc1 (protonated)
O=C(Nc1ccc(N2CCCC2=O)c(C(=O)[N-]c2cccc(F)c2)c1)c1ccccc1 (3D coordinates assigned)
O=C(Nc1ccc(N2CCCC2=O)c(C(=O)[N-]c2cccc(F)c2)c1)c1ccccc1 (nonaromatic ring conformer: 78.81827898010917 kcal/mol)

>  <smiles>  (49) 
O=C(Nc1ccc(N2CCCC2=O)c(C(=O)Nc2cccc(F)c2)c1)c1ccccc1

>  <score_type>  (49) 
oracle

>  <origin>  (49) 
adg

>  <m_score__min__energy>  (49) 
-10.83

>  <m_primary>  (49) 
energy

$$$$
49:0
     RDKit          3D

 56 58  0  0  0  0  0  0  0  0999 V2000
   56.9750   23.0260   43.1760 C   0  0  0  0  0  0  0  0  0  0  0  0
   57.2250   24.5180   43.3930 C   0  0  0  0  0  0  0  0  0  0  0  0
   56.9830   24.9090   44.7930 N   0  0  0  0  0  0  0  0  0  0  0  0
   57.9300   25.7650   45.4590 C   0  0  0  0  0  0  0  0  0  0  0  0
   58.8180   25.2530   46.1930 O   0  0  0  0  0  0  0  0  0  0  0  0
   57.8710   27.2330   45.3210 C   0  0  0  0  0  0  0  0  0  0  0  0
   58.2500   28.1420   46.3070 C   0  0  0  0  0  0  0  0  0  0  0  0
   57.9920   29.3820   45.7660 C   0  0  0  0  0  0  0  0  0  0  0  0
   58.1700   30.6560   46.2990 C   0  0  0  0  0  0  0  0  0  0  0  0
   57.7980   31.7670   45.5010 C   0  0  0  0  0  0  0  0  0  0  0  0
   57.9390   33.0890   45.9490 O   0  0  0  0  0  0  0  0  0  0  0  0
   58.3910   34.1700   45.1360 C   0  0  0  0  0  0  0  0  0  0  0  0
   59.6390   34.7950   45.7710 C   0  0  0  0  0  0  0  0  0  0  0  0
   60.1900   33.9740   46.8750 N   0  0  0  0  0  0  0  0  0  0  0  0
   61.6550   33.8290   46.7680 C   0  0  0  0  0  0  0  0  0  0  0  0
   59.8490   34.5850   48.1730 C   0  0  0  0  0  0  0  0  0  0  0  0
   57.2620   31.5540   44.2090 C   0  0  0  0  0  0  0  0  0  0  0  0
   57.0950   30.2520   43.7030 C   0  0  0  0  0  0  0  0  0  0  0  0
   57.4750   29.1850   44.5140 C   0  0  0  0  0  0  0  0  0  0  0  0
   57.3910   27.8760   44.2290 N   0  0  0  0  0  0  0  0  0  0  0  0
   55.9760   24.2490   45.5910 C   0  0  0  0  0  0  0  0  0  0  0  0
   56.2100   23.9290   46.9390 C   0  0  0  0  0  0  0  0  0  0  0  0
   55.2230   23.2910   47.6940 C   0  0  0  0  0  0  0  0  0  0  0  0
   53.9960   22.9670   47.1130 C   0  0  0  0  0  0  0  0  0  0  0  0
   53.7390   23.2790   45.7750 C   0  0  0  0  0  0  0  0  0  0  0  0
   52.4890   22.9330   45.2390 O   0  0  0  0  0  0  0  0  0  0  0  0
   51.5190   23.8740   44.7900 C   0  0  0  0  0  0  0  0  0  0  0  0
   54.7340   23.9250   45.0160 C   0  0  0  0  0  0  0  0  0  0  0  0
   56.8907   22.5228   44.1505 H   0  0  0  0  0  0  0  0  0  0  0  0
   56.0414   22.8891   42.6106 H   0  0  0  0  0  0  0  0  0  0  0  0
   57.8130   22.5922   42.6106 H   0  0  0  0  0  0  0  0  0  0  0  0
   58.2692   24.7467   43.1336 H   0  0  0  0  0  0  0  0  0  0  0  0
   56.5297   25.0807   42.7528 H   0  0  0  0  0  0  0  0  0  0  0  0
   58.6648   27.9179   47.3008 H   0  0  0  0  0  0  0  0  0  0  0  0
   58.5862   30.7959   47.3076 H   0  0  0  0  0  0  0  0  0  0  0  0
   58.6381   33.7959   44.1315 H   0  0  0  0  0  0  0  0  0  0  0  0
   57.5983   34.9286   45.0580 H   0  0  0  0  0  0  0  0  0  0  0  0
   60.4110   34.9055   44.9952 H   0  0  0  0  0  0  0  0  0  0  0  0
   59.3457   35.7672   46.1938 H   0  0  0  0  0  0  0  0  0  0  0  0
   59.7570   33.0190   46.8510 H   0  0  0  0  0  0  0  0  0  0  0  0
   62.0937   33.7856   47.7758 H   0  0  0  0  0  0  0  0  0  0  0  0
   61.8931   32.9029   46.2242 H   0  0  0  0  0  0  0  0  0  0  0  0
   62.0700   34.6905   46.2242 H   0  0  0  0  0  0  0  0  0  0  0  0
   60.2091   33.9398   48.9879 H   0  0  0  0  0  0  0  0  0  0  0  0
   60.3260   35.5732   48.2497 H   0  0  0  0  0  0  0  0  0  0  0  0
   58.7575   34.6978   48.2497 H   0  0  0  0  0  0  0  0  0  0  0  0
   56.9722   32.4175   43.5923 H   0  0  0  0  0  0  0  0  0  0  0  0
   56.6779   30.0820   42.6995 H   0  0  0  0  0  0  0  0  0  0  0  0
   57.0060   27.4510   43.3570 H   0  0  0  0  0  0  0  0  0  0  0  0
   57.1752   24.1821   47.4020 H   0  0  0  0  0  0  0  0  0  0  0  0
   55.4132   23.0434   48.7488 H   0  0  0  0  0  0  0  0  0  0  0  0
   53.2248   22.4619   47.7131 H   0  0  0  0  0  0  0  0  0  0  0  0
   51.0346   24.3440   45.6586 H   0  0  0  0  0  0  0  0  0  0  0  0
   52.0120   24.6471   44.1823 H   0  0  0  0  0  0  0  0  0  0  0  0
   50.7612   23.3578   44.1823 H   0  0  0  0  0  0  0  0  0  0  0  0
   54.5380   24.1785   43.9637 H   0  0  0  0  0  0  0  0  0  0  0  0
  1  2  1  0
  2  3  1  0
  3  4  1  0
  4  5  2  0
  4  6  1  0
  6  7  2  0
  7  8  1  0
  8  9  2  0
  9 10  1  0
 10 11  1  0
 11 12  1  0
 12 13  1  0
 13 14  1  0
 14 15  1  0
 14 16  1  0
 10 17  2  0
 17 18  1  0
 18 19  2  0
 19 20  1  0
  3 21  1  0
 21 22  2  0
 22 23  1  0
 23 24  2  0
 24 25  1  0
 25 26  1  0
 26 27  1  0
 25 28  2  0
 20  6  1  0
 28 21  1  0
 19  8  1  0
  1 29  1  0
  1 30  1  0
  1 31  1  0
  2 32  1  0
  2 33  1  0
  7 34  1  0
  9 35  1  0
 12 36  1  0
 12 37  1  0
 13 38  1  0
 13 39  1  0
 14 40  1  0
 15 41  1  0
 15 42  1  0
 15 43  1  0
 16 44  1  0
 16 45  1  0
 16 46  1  0
 17 47  1  0
 18 48  1  0
 20 49  1  0
 22 50  1  0
 23 51  1  0
 24 52  1  0
 27 53  1  0
 27 54  1  0
 27 55  1  0
 28 56  1  0
M  CHG  1  14   1
M  END
>  <UniqueID>  (50) 
45

>  <SMILES>  (50) 
CCN(C(=O)c1cc2cc(OCC[NH+](C)C)ccc2[nH]1)c1cccc(OC)c1

>  <Energy>  (50) 
94.18902415387184

>  <Genealogy>  (50) 
CCN(C(=O)c1cc2cc(OCC[NH+](C)C)ccc2[nH]1)c1cccc(OC)c1 (protonated)
CCN(C(=O)c1cc2cc(OCC[NH+](C)C)ccc2[nH]1)c1cccc(OC)c1 (3D coordinates assigned)
CCN(C(=O)c1cc2cc(OCC[NH+](C)C)ccc2[nH]1)c1cccc(OC)c1 (optimized conformer: 94.18902415387184 kcal/mol)

>  <smiles>  (50) 
CCN(C(=O)c1cc2cc(OCCN(C)C)ccc2[nH]1)c1cccc(OC)c1

>  <score_type>  (50) 
oracle

>  <origin>  (50) 
adg

>  <m_score__min__energy>  (50) 
-6.0300000000000002

>  <m_primary>  (50) 
energy

$$$$
50:0
     RDKit          3D

 42 45  0  0  0  0  0  0  0  0999 V2000
   57.6246   32.1812   53.3011 H   0  0  0  0  0  0  0  0  0  0  0  0
   58.0840   32.3870   52.3230 C   0  0  0  0  0  0  0  0  0  0  0  0
   58.7420   33.6000   52.1010 C   0  0  0  0  0  0  0  0  0  0  0  0
   58.8036   34.3466   52.9064 H   0  0  0  0  0  0  0  0  0  0  0  0
   59.3220   33.8660   50.8570 C   0  0  0  0  0  0  0  0  0  0  0  0
   59.8487   34.8173   50.6905 H   0  0  0  0  0  0  0  0  0  0  0  0
   59.2350   32.9230   49.8180 C   0  0  0  0  0  0  0  0  0  0  0  0
   59.8840   33.1830   48.5160 C   0  0  0  0  0  0  0  0  0  0  0  0
   59.0860   33.3210   47.4260 N   0  0  0  0  0  0  0  0  0  0  0  0
   59.5870   33.5170   46.1790 C   0  0  0  0  0  0  0  0  0  0  0  0
   58.7950   33.6670   45.1540 N   0  0  0  0  0  0  0  0  0  0  0  0
   58.1480   32.6240   44.4040 C   0  0  0  0  0  0  0  0  0  0  0  0
   58.0470   32.6690   43.0010 C   0  0  0  0  0  0  0  0  0  0  0  0
   58.4919   33.5077   42.4455 H   0  0  0  0  0  0  0  0  0  0  0  0
   57.3830   31.6510   42.3120 C   0  0  0  0  0  0  0  0  0  0  0  0
   57.3209   31.6814   41.2142 H   0  0  0  0  0  0  0  0  0  0  0  0
   56.7980   30.5950   43.0140 C   0  0  0  0  0  0  0  0  0  0  0  0
   56.2851   29.7921   42.4642 H   0  0  0  0  0  0  0  0  0  0  0  0
   56.8590   30.5500   44.4110 C   0  0  0  0  0  0  0  0  0  0  0  0
   56.2440   29.4760   45.0710 O   0  0  0  0  0  0  0  0  0  0  0  0
   56.8850   28.2400   45.3680 C   0  0  0  0  0  0  0  0  0  0  0  0
   56.9505   28.1137   46.4588 H   0  0  0  0  0  0  0  0  0  0  0  0
   56.3026   27.4121   44.9374 H   0  0  0  0  0  0  0  0  0  0  0  0
   57.8972   28.2391   44.9374 H   0  0  0  0  0  0  0  0  0  0  0  0
   57.5300   31.5790   45.1030 C   0  0  0  0  0  0  0  0  0  0  0  0
   57.5686   31.5611   46.2022 H   0  0  0  0  0  0  0  0  0  0  0  0
   60.9330   33.5950   45.9980 N   0  0  0  0  0  0  0  0  0  0  0  0
   61.3090   33.7530   45.0350 H   0  0  0  0  0  0  0  0  0  0  0  0
   61.7910   33.4820   47.0510 C   0  0  0  0  0  0  0  0  0  0  0  0
   63.1760   33.5810   46.8470 C   0  0  0  0  0  0  0  0  0  0  0  0
   63.5707   33.7270   45.8307 H   0  0  0  0  0  0  0  0  0  0  0  0
   64.0550   33.4950   47.9280 C   0  0  0  0  0  0  0  0  0  0  0  0
   65.1398   33.5653   47.7598 H   0  0  0  0  0  0  0  0  0  0  0  0
   63.5610   33.3200   49.2220 C   0  0  0  0  0  0  0  0  0  0  0  0
   64.2576   33.2614   50.0713 H   0  0  0  0  0  0  0  0  0  0  0  0
   62.1850   33.2190   49.4420 C   0  0  0  0  0  0  0  0  0  0  0  0
   61.8022   33.0920   50.4654 H   0  0  0  0  0  0  0  0  0  0  0  0
   61.2850   33.2790   48.3590 C   0  0  0  0  0  0  0  0  0  0  0  0
   58.5890   31.6960   50.0540 C   0  0  0  0  0  0  0  0  0  0  0  0
   58.5060   30.7590   49.0750 F   0  0  0  0  0  0  0  0  0  0  0  0
   58.0100   31.4360   51.3020 C   0  0  0  0  0  0  0  0  0  0  0  0
   57.4953   30.4801   51.4792 H   0  0  0  0  0  0  0  0  0  0  0  0
  1  2  1  0
  2  3  2  0
  3  4  1  0
  3  5  1  0
  5  6  1  0
  5  7  2  0
  7  8  1  0
  8  9  2  0
  9 10  1  0
 10 11  2  0
 11 12  1  0
 12 13  2  0
 13 14  1  0
 13 15  1  0
 15 16  1  0
 15 17  2  0
 17 18  1  0
 17 19  1  0
 19 20  1  0
 20 21  1  0
 21 22  1  0
 21 23  1  0
 21 24  1  0
 19 25  2  0
 25 26  1  0
 10 27  1  0
 27 28  1  0
 27 29  1  0
 29 30  2  0
 30 31  1  0
 30 32  1  0
 32 33  1  0
 32 34  2  0
 34 35  1  0
 34 36  1  0
 36 37  1  0
 36 38  2  0
  7 39  1  0
 39 40  1  0
 39 41  2  0
 41 42  1  0
 41  2  1  0
 38  8  1  0
 25 12  1  0
 38 29  1  0
M  END
>  <UniqueID>  (51) 
46

>  <SMILES>  (51) 
COc1cccc(/N=c2\nc(-c3ccccc3F)c3ccccc3[nH]2)c1

>  <Energy>  (51) 
64.29830918508608

>  <Genealogy>  (51) 
COc1cccc(/N=c2\nc(-c3ccccc3F)c3ccccc3[nH]2)c1 (cis-trans isomerization)
COc1cccc(/N=c2\nc(-c3ccccc3F)c3ccccc3[nH]2)c1 (3D coordinates assigned)
COc1cccc(/N=c2\nc(-c3ccccc3F)c3ccccc3[nH]2)c1 (optimized conformer: 64.29830918508608 kcal/mol)

>  <smiles>  (51) 
COc1cccc(N=c2nc(-c3ccccc3F)c3ccccc3[nH]2)c1

>  <score_type>  (51) 
oracle

>  <origin>  (51) 
adg

>  <m_score__min__energy>  (51) 
-8.2799999999999994

>  <m_primary>  (51) 
energy

$$$$
51:0
     RDKit          3D

 61 64  0  0  1  0  0  0  0  0999 V2000
   61.7910   28.8300   51.2540 C   0  0  0  0  0  0  0  0  0  0  0  0
   62.2490   30.2030   50.9860 C   0  0  0  0  0  0  0  0  0  0  0  0
   61.4360   31.1380   51.0630 O   0  0  0  0  0  0  0  0  0  0  0  0
   63.6020   30.4810   50.6410 N   0  0  0  0  0  0  0  0  0  0  0  0
   64.0300   31.8620   50.3780 C   0  0  2  0  0  0  0  0  0  0  0  0
   64.0140   32.6740   51.6520 C   0  0  0  0  0  0  0  0  0  0  0  0
   63.1740   32.4840   49.3350 C   0  0  0  0  0  0  0  0  0  0  0  0
   62.4870   33.6170   49.6500 C   0  0  0  0  0  0  0  0  0  0  0  0
   61.6750   34.2420   48.7290 C   0  0  0  0  0  0  0  0  0  0  0  0
   61.5140   33.7480   47.4280 C   0  0  0  0  0  0  0  0  0  0  0  0
   60.6900   34.4420   46.6020 O   0  0  0  0  0  0  0  0  0  0  0  0
   59.3500   34.1750   46.4170 C   0  0  1  0  0  0  0  0  0  0  0  0
   58.7910   34.9170   45.2060 C   0  0  0  0  0  0  0  0  0  0  0  0
   57.5010   34.1720   44.9700 C   0  0  0  0  0  0  0  0  0  0  0  0
   57.9690   32.7880   45.0970 N   0  0  0  0  0  0  0  0  0  0  0  0
   57.4410   31.6430   44.4410 C   0  0  0  0  0  0  0  0  0  0  0  0
   57.2330   31.5890   43.0720 C   0  0  0  0  0  0  0  0  0  0  0  0
   56.7180   30.4510   42.4860 C   0  0  0  0  0  0  0  0  0  0  0  0
   56.4330   29.4160   43.2970 N   0  0  0  0  0  0  0  0  0  0  0  0
   56.6260   29.4470   44.6180 C   0  0  0  0  0  0  0  0  0  0  0  0
   56.3210   28.4010   45.3090 N   0  0  0  0  0  0  0  0  0  0  0  0
   57.3720   27.3990   45.5130 C   0  0  0  0  0  0  0  0  0  0  0  0
   58.5410   28.1810   46.0400 C   0  0  0  0  0  0  0  0  0  0  0  0
   59.6210   28.4470   45.2060 C   0  0  0  0  0  0  0  0  0  0  0  0
   60.7250   29.1630   45.6360 C   0  0  0  0  0  0  0  0  0  0  0  0
   60.7630   29.6360   46.9430 C   0  0  0  0  0  0  0  0  0  0  0  0
   59.6790   29.3730   47.7860 C   0  0  0  0  0  0  0  0  0  0  0  0
   59.6880   29.8250   49.0800 F   0  0  0  0  0  0  0  0  0  0  0  0
   58.5790   28.6510   47.3360 C   0  0  0  0  0  0  0  0  0  0  0  0
   57.1290   30.5610   45.1780 N   0  0  0  0  0  0  0  0  0  0  0  0
   59.0820   32.7330   46.0110 C   0  0  0  0  0  0  0  0  0  0  0  0
   62.2130   32.6070   47.1350 C   0  0  0  0  0  0  0  0  0  0  0  0
   63.0360   31.9720   48.0620 C   0  0  0  0  0  0  0  0  0  0  0  0
   61.7367   28.6671   52.3405 H   0  0  0  0  0  0  0  0  0  0  0  0
   60.7950   28.6826   50.8109 H   0  0  0  0  0  0  0  0  0  0  0  0
   62.4990   28.1142   50.8109 H   0  0  0  0  0  0  0  0  0  0  0  0
   64.3170   29.7240   50.5650 H   0  0  0  0  0  0  0  0  0  0  0  0
   65.0633   31.8428   50.0012 H   0  0  0  0  0  0  0  0  0  0  0  0
   64.0273   31.9967   52.5187 H   0  0  0  0  0  0  0  0  0  0  0  0
   64.8995   33.3259   51.6824 H   0  0  0  0  0  0  0  0  0  0  0  0
   63.1035   33.2905   51.6824 H   0  0  0  0  0  0  0  0  0  0  0  0
   62.5824   34.0417   50.6602 H   0  0  0  0  0  0  0  0  0  0  0  0
   61.1375   35.1554   49.0238 H   0  0  0  0  0  0  0  0  0  0  0  0
   58.9023   34.4541   47.3822 H   0  0  0  0  0  0  0  0  0  0  0  0
   58.6074   35.9775   45.4334 H   0  0  0  0  0  0  0  0  0  0  0  0
   59.4661   34.9335   44.3377 H   0  0  0  0  0  0  0  0  0  0  0  0
   56.7448   34.4171   45.7304 H   0  0  0  0  0  0  0  0  0  0  0  0
   57.0040   34.4037   44.0164 H   0  0  0  0  0  0  0  0  0  0  0  0
   57.4804   32.4602   42.4476 H   0  0  0  0  0  0  0  0  0  0  0  0
   56.5475   30.3924   41.4009 H   0  0  0  0  0  0  0  0  0  0  0  0
   56.0430   28.5550   42.8510 H   0  0  0  0  0  0  0  0  0  0  0  0
   57.0504   26.6414   46.2428 H   0  0  0  0  0  0  0  0  0  0  0  0
   57.6157   26.8548   44.5886 H   0  0  0  0  0  0  0  0  0  0  0  0
   59.5975   28.0764   44.1706 H   0  0  0  0  0  0  0  0  0  0  0  0
   61.5636   29.3558   44.9507 H   0  0  0  0  0  0  0  0  0  0  0  0
   61.6300   30.2067   47.3071 H   0  0  0  0  0  0  0  0  0  0  0  0
   57.7368   28.4542   48.0157 H   0  0  0  0  0  0  0  0  0  0  0  0
   58.8253   32.1273   46.8926 H   0  0  0  0  0  0  0  0  0  0  0  0
   59.9659   32.2695   45.5485 H   0  0  0  0  0  0  0  0  0  0  0  0
   62.1207   32.1751   46.1276 H   0  0  0  0  0  0  0  0  0  0  0  0
   63.5782   31.0582   47.7775 H   0  0  0  0  0  0  0  0  0  0  0  0
  1  2  1  0
  2  3  2  0
  2  4  1  0
  4  5  1  0
  5  6  1  0
  5  7  1  0
  7  8  2  0
  8  9  1  0
  9 10  2  0
 10 11  1  0
 11 12  1  0
 12 13  1  0
 13 14  1  0
 14 15  1  0
 15 16  1  0
 16 17  1  0
 17 18  2  0
 18 19  1  0
 19 20  1  0
 20 21  2  0
 21 22  1  0
 22 23  1  0
 23 24  2  0
 24 25  1  0
 25 26  2  0
 26 27  1  0
 27 28  1  0
 27 29  2  0
 20 30  1  0
 15 31  1  0
 10 32  1  0
 32 33  2  0
 33  7  1  0
 31 12  1  0
 30 16  2  0
 29 23  1  0
  1 34  1  0
  1 35  1  0
  1 36  1  0
  4 37  1  0
  5 38  1  6
  6 39  1  0
  6 40  1  0
  6 41  1  0
  8 42  1  0
  9 43  1  0
 12 44  1  1
 13 45  1  0
 13 46  1  0
 14 47  1  0
 14 48  1  0
 17 49  1  0
 18 50  1  0
 19 51  1  0
 22 52  1  0
 22 53  1  0
 24 54  1  0
 25 55  1  0
 26 56  1  0
 29 57  1  0
 31 58  1  0
 31 59  1  0
 32 60  1  0
 33 61  1  0
M  END
>  <smiles>  (52) 
CC(=O)NC(C)c1ccc(OC2CCN(c3cc[nH]c(=NCc4cccc(F)c4)n3)C2)cc1

>  <score_type>  (52) 
oracle

>  <origin>  (52) 
adg

>  <m_score__min__energy>  (52) 
-9.6999999999999993

>  <m_primary>  (52) 
energy

$$$$
52:0
     RDKit          3D

 49 51  0  0  0  0  0  0  0  0999 V2000
   63.4760   33.8810   50.2050 C   0  0  0  0  0  0  0  0  0  0  0  0
   63.2310   33.2740   48.9390 O   0  0  0  0  0  0  0  0  0  0  0  0
   62.0860   33.5020   48.1610 C   0  0  0  0  0  0  0  0  0  0  0  0
   62.1380   33.6380   46.7590 C   0  0  0  0  0  0  0  0  0  0  0  0
   60.9670   33.8630   46.0290 C   0  0  0  0  0  0  0  0  0  0  0  0
   59.7280   33.9480   46.6830 C   0  0  0  0  0  0  0  0  0  0  0  0
   58.4690   34.2040   45.8980 C   0  0  0  0  0  0  0  0  0  0  0  0
   58.0910   32.9930   45.0750 C   0  0  0  0  0  0  0  0  0  0  0  0
   57.9860   33.1050   43.6880 C   0  0  0  0  0  0  0  0  0  0  0  0
   57.6510   32.0290   42.9240 N   0  0  0  0  0  0  0  0  0  0  0  0
   57.5220   32.1960   41.4730 C   0  0  0  0  0  0  0  0  0  0  0  0
   57.3480   30.8320   43.5180 C   0  0  0  0  0  0  0  0  0  0  0  0
   56.9620   29.8600   42.8050 O   0  0  0  0  0  0  0  0  0  0  0  0
   57.4420   30.6850   44.8820 N   0  0  0  0  0  0  0  0  0  0  0  0
   57.1160   29.4170   45.4910 C   0  0  0  0  0  0  0  0  0  0  0  0
   56.0160   28.8590   45.2230 O   0  0  0  0  0  0  0  0  0  0  0  0
   58.0290   28.8000   46.4120 N   0  0  0  0  0  0  0  0  0  0  0  0
   57.7600   27.5050   47.0370 C   0  0  0  0  0  0  0  0  0  0  0  0
   57.3850   26.4910   45.9910 C   0  0  0  0  0  0  0  0  0  0  0  0
   58.0900   26.4430   44.7750 C   0  0  0  0  0  0  0  0  0  0  0  0
   57.7610   25.4860   43.8060 C   0  0  0  0  0  0  0  0  0  0  0  0
   56.7320   24.5710   44.0470 C   0  0  0  0  0  0  0  0  0  0  0  0
   56.0310   24.6090   45.2570 C   0  0  0  0  0  0  0  0  0  0  0  0
   56.3560   25.5640   46.2270 C   0  0  0  0  0  0  0  0  0  0  0  0
   57.8360   31.7420   45.6610 C   0  0  0  0  0  0  0  0  0  0  0  0
   57.9800   31.5960   46.9050 O   0  0  0  0  0  0  0  0  0  0  0  0
   59.6780   33.8220   48.0800 C   0  0  0  0  0  0  0  0  0  0  0  0
   60.8500   33.5990   48.8100 C   0  0  0  0  0  0  0  0  0  0  0  0
   63.1942   33.1829   51.0070 H   0  0  0  0  0  0  0  0  0  0  0  0
   64.5443   34.1281   50.2925 H   0  0  0  0  0  0  0  0  0  0  0  0
   62.8786   34.8005   50.2925 H   0  0  0  0  0  0  0  0  0  0  0  0
   63.1037   33.5668   46.2372 H   0  0  0  0  0  0  0  0  0  0  0  0
   61.0170   33.9740   44.9358 H   0  0  0  0  0  0  0  0  0  0  0  0
   57.6504   34.4353   46.5954 H   0  0  0  0  0  0  0  0  0  0  0  0
   58.6448   35.0504   45.2178 H   0  0  0  0  0  0  0  0  0  0  0  0
   58.1763   34.0751   43.2057 H   0  0  0  0  0  0  0  0  0  0  0  0
   56.8623   33.0500   41.2594 H   0  0  0  0  0  0  0  0  0  0  0  0
   58.5142   32.3807   41.0355 H   0  0  0  0  0  0  0  0  0  0  0  0
   57.0927   31.2826   41.0355 H   0  0  0  0  0  0  0  0  0  0  0  0
   58.9100   29.2990   46.6670 H   0  0  0  0  0  0  0  0  0  0  0  0
   58.6610   27.1635   47.5675 H   0  0  0  0  0  0  0  0  0  0  0  0
   56.9258   27.6149   47.7456 H   0  0  0  0  0  0  0  0  0  0  0  0
   58.9026   27.1594   44.5840 H   0  0  0  0  0  0  0  0  0  0  0  0
   58.3128   25.4546   42.8549 H   0  0  0  0  0  0  0  0  0  0  0  0
   56.4735   23.8210   43.2850 H   0  0  0  0  0  0  0  0  0  0  0  0
   55.2230   23.8870   45.4463 H   0  0  0  0  0  0  0  0  0  0  0  0
   55.8036   25.5889   47.1779 H   0  0  0  0  0  0  0  0  0  0  0  0
   58.7132   33.8989   48.6028 H   0  0  0  0  0  0  0  0  0  0  0  0
   60.7997   33.4989   49.9043 H   0  0  0  0  0  0  0  0  0  0  0  0
  1  2  1  0
  2  3  1  0
  3  4  2  0
  4  5  1  0
  5  6  2  0
  6  7  1  0
  7  8  1  0
  8  9  2  0
  9 10  1  0
 10 11  1  0
 10 12  1  0
 12 13  2  0
 12 14  1  0
 14 15  1  0
 15 16  2  0
 15 17  1  0
 17 18  1  0
 18 19  1  0
 19 20  2  0
 20 21  1  0
 21 22  2  0
 22 23  1  0
 23 24  2  0
 14 25  1  0
 25 26  2  0
  6 27  1  0
 27 28  2  0
 28  3  1  0
 25  8  1  0
 24 19  1  0
  1 29  1  0
  1 30  1  0
  1 31  1  0
  4 32  1  0
  5 33  1  0
  7 34  1  0
  7 35  1  0
  9 36  1  0
 11 37  1  0
 11 38  1  0
 11 39  1  0
 17 40  1  0
 18 41  1  0
 18 42  1  0
 20 43  1  0
 21 44  1  0
 22 45  1  0
 23 46  1  0
 24 47  1  0
 27 48  1  0
 28 49  1  0
M  END
>  <UniqueID>  (53) 
47

>  <SMILES>  (53) 
COc1ccc(Cc2cn(C)c(=O)n(C(=O)NCc3ccccc3)c2=O)cc1

>  <Energy>  (53) 
58.64677372977

>  <Genealogy>  (53) 
COc1ccc(Cc2cn(C)c(=O)n(C(=O)NCc3ccccc3)c2=O)cc1 (3D coordinates assigned)
COc1ccc(Cc2cn(C)c(=O)n(C(=O)NCc3ccccc3)c2=O)cc1 (optimized conformer: 58.64677372977 kcal/mol)

>  <smiles>  (53) 
COc1ccc(Cc2cn(C)c(=O)n(C(=O)NCc3ccccc3)c2=O)cc1

>  <score_type>  (53) 
oracle

>  <origin>  (53) 
adg

>  <m_score__min__energy>  (53) 
-7.9299999999999997

>  <m_primary>  (53) 
energy

$$$$
53:0
     RDKit          3D

 51 54  0  0  0  0  0  0  0  0999 V2000
   63.7870   33.4090   46.6200 O   0  0  0  0  0  0  0  0  0  0  0  0
   62.5710   33.3010   46.9340 C   0  0  0  0  0  0  0  0  0  0  0  0
   61.6190   34.2330   46.4040 N   0  0  0  0  0  0  0  0  0  0  0  0
   60.3880   34.6080   47.0900 C   0  0  0  0  0  0  0  0  0  0  0  0
   59.2010   34.0850   46.3440 C   0  0  0  0  0  0  0  0  0  0  0  0
   58.9180   34.3040   45.0020 C   0  0  0  0  0  0  0  0  0  0  0  0
   57.7040   33.7370   44.5970 C   0  0  0  0  0  0  0  0  0  0  0  0
   57.0260   33.0820   45.6180 C   0  0  0  0  0  0  0  0  0  0  0  0
   57.9380   33.2100   47.0260 S   0  0  0  0  0  0  0  0  0  0  0  0
   62.1130   32.2030   47.8240 C   0  0  0  0  0  0  0  0  0  0  0  0
   61.1870   31.2670   47.3240 C   0  0  0  0  0  0  0  0  0  0  0  0
   60.7260   30.2040   48.1200 C   0  0  0  0  0  0  0  0  0  0  0  0
   59.7530   29.2220   47.5780 C   0  0  0  0  0  0  0  0  0  0  0  0
   58.7650   29.6280   46.6620 C   0  0  0  0  0  0  0  0  0  0  0  0
   57.8530   28.7030   46.1470 C   0  0  0  0  0  0  0  0  0  0  0  0
   57.9130   27.3590   46.5390 C   0  0  0  0  0  0  0  0  0  0  0  0
   56.7900   26.1740   45.8760 S   0  0  0  0  0  0  0  0  0  0  0  0
   57.0710   25.9490   44.4160 O   0  0  0  0  0  0  0  0  0  0  0  0
   55.3930   26.7080   46.0130 O   0  0  0  0  0  0  0  0  0  0  0  0
   56.9010   24.6580   46.7270 N   0  0  0  0  0  0  0  0  0  0  0  0
   57.9330   23.7920   46.1530 C   0  0  0  0  0  0  0  0  0  0  0  0
   57.3510   22.8450   45.1370 C   0  0  0  0  0  0  0  0  0  0  0  0
   57.0110   21.5350   45.5060 C   0  0  0  0  0  0  0  0  0  0  0  0
   56.4610   20.6730   44.5550 C   0  0  0  0  0  0  0  0  0  0  0  0
   56.2590   21.1020   43.2810 N   0  0  0  0  0  0  0  0  0  0  0  0
   56.5810   22.3650   42.8950 C   0  0  0  0  0  0  0  0  0  0  0  0
   57.1350   23.2600   43.8140 C   0  0  0  0  0  0  0  0  0  0  0  0
   58.8920   26.9490   47.4520 C   0  0  0  0  0  0  0  0  0  0  0  0
   59.8060   27.8720   47.9680 C   0  0  0  0  0  0  0  0  0  0  0  0
   61.2000   30.0840   49.4350 C   0  0  0  0  0  0  0  0  0  0  0  0
   62.1110   31.0070   49.9460 C   0  0  0  0  0  0  0  0  0  0  0  0
   62.5710   32.0660   49.1570 C   0  0  0  0  0  0  0  0  0  0  0  0
   63.6700   33.2170   49.9140 Cl  0  0  0  0  0  0  0  0  0  0  0  0
   60.3944   34.1848   48.1053 H   0  0  0  0  0  0  0  0  0  0  0  0
   60.3252   35.7050   47.1408 H   0  0  0  0  0  0  0  0  0  0  0  0
   59.5801   34.8656   44.3265 H   0  0  0  0  0  0  0  0  0  0  0  0
   57.3225   33.8036   43.5674 H   0  0  0  0  0  0  0  0  0  0  0  0
   56.0584   32.5677   45.5220 H   0  0  0  0  0  0  0  0  0  0  0  0
   60.8181   31.3695   46.2928 H   0  0  0  0  0  0  0  0  0  0  0  0
   58.7102   30.6811   46.3491 H   0  0  0  0  0  0  0  0  0  0  0  0
   57.0850   29.0311   45.4311 H   0  0  0  0  0  0  0  0  0  0  0  0
   58.6945   24.4177   45.6645 H   0  0  0  0  0  0  0  0  0  0  0  0
   58.3786   23.1985   46.9649 H   0  0  0  0  0  0  0  0  0  0  0  0
   57.1765   21.1893   46.5371 H   0  0  0  0  0  0  0  0  0  0  0  0
   56.1907   19.6448   44.8373 H   0  0  0  0  0  0  0  0  0  0  0  0
   56.4050   22.6832   41.8568 H   0  0  0  0  0  0  0  0  0  0  0  0
   57.3996   24.2814   43.5030 H   0  0  0  0  0  0  0  0  0  0  0  0
   58.9421   25.8956   47.7647 H   0  0  0  0  0  0  0  0  0  0  0  0
   60.5721   27.5401   48.6842 H   0  0  0  0  0  0  0  0  0  0  0  0
   60.8500   29.2551   50.0677 H   0  0  0  0  0  0  0  0  0  0  0  0
   62.4716   30.9014   50.9798 H   0  0  0  0  0  0  0  0  0  0  0  0
  1  2  2  0
  2  3  1  0
  3  4  1  0
  4  5  1  0
  5  6  2  0
  6  7  1  0
  7  8  2  0
  8  9  1  0
  2 10  1  0
 10 11  2  0
 11 12  1  0
 12 13  1  0
 13 14  2  0
 14 15  1  0
 15 16  2  0
 16 17  1  0
 17 18  2  0
 17 19  2  0
 17 20  1  0
 20 21  1  0
 21 22  1  0
 22 23  2  0
 23 24  1  0
 24 25  2  0
 25 26  1  0
 26 27  2  0
 16 28  1  0
 28 29  2  0
 12 30  2  0
 30 31  1  0
 31 32  2  0
 32 33  1  0
  9  5  1  0
 32 10  1  0
 29 13  1  0
 27 22  1  0
  4 34  1  0
  4 35  1  0
  6 36  1  0
  7 37  1  0
  8 38  1  0
 11 39  1  0
 14 40  1  0
 15 41  1  0
 21 42  1  0
 21 43  1  0
 23 44  1  0
 24 45  1  0
 26 46  1  0
 27 47  1  0
 28 48  1  0
 29 49  1  0
 30 50  1  0
 31 51  1  0
M  CHG  2   3  -1  20  -1
M  END
>  <UniqueID>  (54) 
48

>  <SMILES>  (54) 
O=C([N-]Cc1cccs1)c1cc(-c2ccc(S(=O)(=O)[N-]Cc3ccncc3)cc2)ccc1Cl

>  <Energy>  (54) 
87.46509382494929

>  <Genealogy>  (54) 
O=C([N-]Cc1cccs1)c1cc(-c2ccc(S(=O)(=O)[N-]Cc3ccncc3)cc2)ccc1Cl (protonated)
O=C([N-]Cc1cccs1)c1cc(-c2ccc(S(=O)(=O)[N-]Cc3ccncc3)cc2)ccc1Cl (3D coordinates assigned)
O=C([N-]Cc1cccs1)c1cc(-c2ccc(S(=O)(=O)[N-]Cc3ccncc3)cc2)ccc1Cl (optimized conformer: 87.46509382494929 kcal/mol)

>  <smiles>  (54) 
O=C(NCc1cccs1)c1cc(-c2ccc(S(=O)(=O)NCc3ccncc3)cc2)ccc1Cl

>  <score_type>  (54) 
oracle

>  <origin>  (54) 
adg

>  <m_score__min__energy>  (54) 
-11.93

>  <m_primary>  (54) 
energy

$$$$
54:0
     RDKit          3D

 33 35  0  0  0  0  0  0  0  0999 V2000
   56.8159   27.0225   46.0442 H   0  0  0  0  0  0  0  0  0  0  0  0
   57.2000   28.0290   45.8220 C   0  0  0  0  0  0  0  0  0  0  0  0
   58.4500   28.4640   46.0720 N   0  0  0  0  0  0  0  0  0  0  0  0
   58.4640   29.7400   45.6250 C   0  0  0  0  0  0  0  0  0  0  0  0
   59.5400   30.4680   45.7400 N   0  0  0  0  0  0  0  0  0  0  0  0
   60.0210   31.1870   46.8780 C   0  0  0  0  0  0  0  0  0  0  0  0
   59.5210   30.8790   48.1510 C   0  0  0  0  0  0  0  0  0  0  0  0
   58.7125   30.1411   48.2592 H   0  0  0  0  0  0  0  0  0  0  0  0
   60.0480   31.5080   49.2840 C   0  0  0  0  0  0  0  0  0  0  0  0
   59.6384   31.2809   50.2793 H   0  0  0  0  0  0  0  0  0  0  0  0
   61.0950   32.4250   49.1520 C   0  0  0  0  0  0  0  0  0  0  0  0
   61.4993   32.9298   50.0418 H   0  0  0  0  0  0  0  0  0  0  0  0
   61.6290   32.7010   47.8880 C   0  0  0  0  0  0  0  0  0  0  0  0
   62.6580   33.5720   47.7640 F   0  0  0  0  0  0  0  0  0  0  0  0
   61.1060   32.0690   46.7550 C   0  0  0  0  0  0  0  0  0  0  0  0
   61.5458   32.2636   45.7657 H   0  0  0  0  0  0  0  0  0  0  0  0
   57.2630   30.1380   45.1110 N   0  0  0  0  0  0  0  0  0  0  0  0
   56.7860   31.4430   44.6270 C   0  0  0  0  0  0  0  0  0  0  0  0
   56.8445   31.4557   43.5286 H   0  0  0  0  0  0  0  0  0  0  0  0
   55.7510   31.5733   44.9760 H   0  0  0  0  0  0  0  0  0  0  0  0
   57.6040   32.5900   45.1700 C   0  0  0  0  0  0  0  0  0  0  0  0
   58.5020   33.2610   44.3210 C   0  0  0  0  0  0  0  0  0  0  0  0
   58.6169   32.9327   43.2774 H   0  0  0  0  0  0  0  0  0  0  0  0
   59.2490   34.3420   44.7950 C   0  0  0  0  0  0  0  0  0  0  0  0
   59.9628   34.8494   44.1294 H   0  0  0  0  0  0  0  0  0  0  0  0
   59.0920   34.7800   46.1110 C   0  0  0  0  0  0  0  0  0  0  0  0
   59.6883   35.6253   46.4850 H   0  0  0  0  0  0  0  0  0  0  0  0
   58.1760   34.1430   46.9530 C   0  0  0  0  0  0  0  0  0  0  0  0
   58.0457   34.4939   47.9873 H   0  0  0  0  0  0  0  0  0  0  0  0
   57.4250   33.0610   46.4840 C   0  0  0  0  0  0  0  0  0  0  0  0
   56.6913   32.5760   47.1447 H   0  0  0  0  0  0  0  0  0  0  0  0
   56.4860   29.0450   45.2460 C   0  0  0  0  0  0  0  0  0  0  0  0
   55.1480   28.9740   44.8740 O   0  0  0  0  0  0  0  0  0  0  0  0
  1  2  1  0
  2  3  1  0
  3  4  1  0
  4  5  2  0
  5  6  1  0
  6  7  2  0
  7  8  1  0
  7  9  1  0
  9 10  1  0
  9 11  2  0
 11 12  1  0
 11 13  1  0
 13 14  1  0
 13 15  2  0
 15 16  1  0
  4 17  1  0
 17 18  1  0
 18 19  1  0
 18 20  1  0
 18 21  1  0
 21 22  2  0
 22 23  1  0
 22 24  1  0
 24 25  1  0
 24 26  2  0
 26 27  1  0
 26 28  1  0
 28 29  1  0
 28 30  2  0
 30 31  1  0
 17 32  1  0
 32 33  1  0
 32  2  2  0
 15  6  1  0
 30 21  1  0
M  CHG  2   3  -1  33  -1
M  END
>  <UniqueID>  (55) 
49

>  <SMILES>  (55) 
[O-]c1c[n-]/c(=N/c2cccc(F)c2)n1Cc1ccccc1

>  <Energy>  (55) 
79.07497030608756

>  <Genealogy>  (55) 
[O-]c1c[n-]c(=Nc2cccc(F)c2)n1Cc1ccccc1 (protonated)
[O-]c1c[n-]/c(=N/c2cccc(F)c2)n1Cc1ccccc1 (cis-trans isomerization)
[O-]c1c[n-]/c(=N/c2cccc(F)c2)n1Cc1ccccc1 (3D coordinates assigned)
[O-]c1c[n-]/c(=N/c2cccc(F)c2)n1Cc1ccccc1 (optimized conformer: 79.07497030608756 kcal/mol)

>  <smiles>  (55) 
Oc1c[nH]c(=Nc2cccc(F)c2)n1Cc1ccccc1

>  <score_type>  (55) 
oracle

>  <origin>  (55) 
adg

>  <m_score__min__energy>  (55) 
-11.07

>  <m_primary>  (55) 
energy

$$$$
55:0
     RDKit          3D

 39 41  0  0  0  0  0  0  0  0999 V2000
   55.5220   28.8120   44.9240 N   0  0  0  0  0  0  0  0  0  0  0  0
   56.7230   29.9600   44.4530 S   0  0  0  0  0  0  0  0  0  0  0  0
   57.0100   29.8070   42.9840 O   0  0  0  0  0  0  0  0  0  0  0  0
   56.2150   31.3520   44.7010 O   0  0  0  0  0  0  0  0  0  0  0  0
   58.1940   29.6880   45.3820 C   0  0  0  0  0  0  0  0  0  0  0  0
   59.4130   29.4680   44.7270 C   0  0  0  0  0  0  0  0  0  0  0  0
   60.5770   29.2550   45.4670 C   0  0  0  0  0  0  0  0  0  0  0  0
   60.5310   29.2440   46.8640 C   0  0  0  0  0  0  0  0  0  0  0  0
   59.3060   29.4320   47.5310 C   0  0  0  0  0  0  0  0  0  0  0  0
   59.2200   29.4530   48.9620 N   0  0  0  0  0  0  0  0  0  0  0  0
   60.3090   29.6760   49.8660 C   0  0  0  0  0  0  0  0  0  0  0  0
   61.3280   28.9340   49.8400 O   0  0  0  0  0  0  0  0  0  0  0  0
   60.2040   30.7490   50.9040 C   0  0  0  0  0  0  0  0  0  0  0  0
   60.5980   32.0140   50.3700 O   0  0  0  0  0  0  0  0  0  0  0  0
   60.3000   32.4780   49.0780 C   0  0  0  0  0  0  0  0  0  0  0  0
   61.3650   32.7370   48.2080 C   0  0  0  0  0  0  0  0  0  0  0  0
   61.1320   33.2160   46.9160 C   0  0  0  0  0  0  0  0  0  0  0  0
   59.8210   33.4430   46.4730 C   0  0  0  0  0  0  0  0  0  0  0  0
   59.5760   33.9270   45.1790 C   0  0  0  0  0  0  0  0  0  0  0  0
   58.2630   34.1490   44.7500 C   0  0  0  0  0  0  0  0  0  0  0  0
   57.1900   33.8890   45.6080 C   0  0  0  0  0  0  0  0  0  0  0  0
   57.4220   33.4060   46.8980 C   0  0  0  0  0  0  0  0  0  0  0  0
   58.7350   33.1780   47.3410 C   0  0  0  0  0  0  0  0  0  0  0  0
   58.9780   32.6940   48.6350 C   0  0  0  0  0  0  0  0  0  0  0  0
   58.1470   29.6700   46.7820 C   0  0  0  0  0  0  0  0  0  0  0  0
   54.6880   29.3560   45.2430 H   0  0  0  0  0  0  0  0  0  0  0  0
   59.4526   29.4632   43.6277 H   0  0  0  0  0  0  0  0  0  0  0  0
   61.5341   29.0952   44.9490 H   0  0  0  0  0  0  0  0  0  0  0  0
   61.4534   29.0882   47.4428 H   0  0  0  0  0  0  0  0  0  0  0  0
   59.1624   30.8133   51.2516 H   0  0  0  0  0  0  0  0  0  0  0  0
   60.8727   30.4964   51.7401 H   0  0  0  0  0  0  0  0  0  0  0  0
   62.3973   32.5616   48.5449 H   0  0  0  0  0  0  0  0  0  0  0  0
   61.9799   33.4157   46.2442 H   0  0  0  0  0  0  0  0  0  0  0  0
   60.4175   34.1322   44.5009 H   0  0  0  0  0  0  0  0  0  0  0  0
   58.0743   34.5291   43.7351 H   0  0  0  0  0  0  0  0  0  0  0  0
   56.1595   34.0654   45.2659 H   0  0  0  0  0  0  0  0  0  0  0  0
   56.5739   33.2037   47.5687 H   0  0  0  0  0  0  0  0  0  0  0  0
   58.1338   32.4818   49.3075 H   0  0  0  0  0  0  0  0  0  0  0  0
   57.1911   29.8444   47.2976 H   0  0  0  0  0  0  0  0  0  0  0  0
  1  2  1  0
  2  3  2  0
  2  4  2  0
  2  5  1  0
  5  6  2  0
  6  7  1  0
  7  8  2  0
  8  9  1  0
  9 10  1  0
 10 11  1  0
 11 12  2  0
 11 13  1  0
 13 14  1  0
 14 15  1  0
 15 16  2  0
 16 17  1  0
 17 18  2  0
 18 19  1  0
 19 20  2  0
 20 21  1  0
 21 22  2  0
 22 23  1  0
 23 24  2  0
  9 25  2  0
 25  5  1  0
 24 15  1  0
 23 18  1  0
  1 26  1  0
  6 27  1  0
  7 28  1  0
  8 29  1  0
 13 30  1  0
 13 31  1  0
 16 32  1  0
 17 33  1  0
 19 34  1  0
 20 35  1  0
 21 36  1  0
 22 37  1  0
 24 38  1  0
 25 39  1  0
M  CHG  2   1  -1  10  -1
M  END
>  <UniqueID>  (56) 
50

>  <SMILES>  (56) 
[NH-]S(=O)(=O)c1cccc([N-]C(=O)COc2ccc3ccccc3c2)c1

>  <Energy>  (56) 
46.36838097650845

>  <Genealogy>  (56) 
[NH-]S(=O)(=O)c1cccc([N-]C(=O)COc2ccc3ccccc3c2)c1 (protonated)
[NH-]S(=O)(=O)c1cccc([N-]C(=O)COc2ccc3ccccc3c2)c1 (3D coordinates assigned)
[NH-]S(=O)(=O)c1cccc([N-]C(=O)COc2ccc3ccccc3c2)c1 (optimized conformer: 46.36838097650845 kcal/mol)

>  <smiles>  (56) 
NS(=O)(=O)c1cccc(NC(=O)COc2ccc3ccccc3c2)c1

>  <score_type>  (56) 
oracle

>  <origin>  (56) 
adg

>  <m_score__min__energy>  (56) 
-13.27

>  <m_primary>  (56) 
energy

$$$$
56:0
     RDKit          3D

 56 59  0  0  0  0  0  0  0  0999 V2000
   59.6430   35.3350   46.8340 C   0  0  0  0  0  0  0  0  0  0  0  0
   60.4730   34.2770   47.3000 O   0  0  0  0  0  0  0  0  0  0  0  0
   60.3430   32.9330   46.9120 C   0  0  0  0  0  0  0  0  0  0  0  0
   59.3550   32.5190   45.9960 C   0  0  0  0  0  0  0  0  0  0  0  0
   59.2290   31.1720   45.6240 C   0  0  0  0  0  0  0  0  0  0  0  0
   58.1470   30.7410   44.7020 C   0  0  0  0  0  0  0  0  0  0  0  0
   57.8760   31.5120   43.5550 C   0  0  0  0  0  0  0  0  0  0  0  0
   56.8220   31.1790   42.7060 C   0  0  0  0  0  0  0  0  0  0  0  0
   56.0110   30.0830   43.0000 C   0  0  0  0  0  0  0  0  0  0  0  0
   56.2700   29.2990   44.1270 C   0  0  0  0  0  0  0  0  0  0  0  0
   57.3520   29.5940   44.9630 C   0  0  0  0  0  0  0  0  0  0  0  0
   57.6050   28.7360   46.0440 O   0  0  0  0  0  0  0  0  0  0  0  0
   57.7750   27.3480   45.9380 C   0  0  0  0  0  0  0  0  0  0  0  0
   56.6790   26.4700   45.8180 C   0  0  0  0  0  0  0  0  0  0  0  0
   56.8910   25.0960   45.6860 C   0  0  0  0  0  0  0  0  0  0  0  0
   58.1930   24.5780   45.6930 C   0  0  0  0  0  0  0  0  0  0  0  0
   58.4570   22.8400   45.5610 S   0  0  0  0  0  0  0  0  0  0  0  0
   57.7760   22.1490   46.7120 O   0  0  0  0  0  0  0  0  0  0  0  0
   59.9280   22.5300   45.6200 O   0  0  0  0  0  0  0  0  0  0  0  0
   57.8000   22.2480   44.0700 N   0  0  0  0  0  0  0  0  0  0  0  0
   56.3950   22.1450   43.8280 C   0  0  0  0  0  0  0  0  0  0  0  0
   55.4790   22.3350   44.9020 N   0  0  0  0  0  0  0  0  0  0  0  0
   55.9600   21.8700   42.6780 O   0  0  0  0  0  0  0  0  0  0  0  0
   59.2840   25.4480   45.8330 C   0  0  0  0  0  0  0  0  0  0  0  0
   59.0730   26.8250   45.9600 C   0  0  0  0  0  0  0  0  0  0  0  0
   60.1380   30.2360   46.1390 C   0  0  0  0  0  0  0  0  0  0  0  0
   61.1340   30.6360   47.0330 C   0  0  0  0  0  0  0  0  0  0  0  0
   61.2350   31.9780   47.4400 C   0  0  0  0  0  0  0  0  0  0  0  0
   62.2970   32.3710   48.3960 C   0  0  0  0  0  0  0  0  0  0  0  0
   62.0010   32.5290   49.7590 C   0  0  0  0  0  0  0  0  0  0  0  0
   63.0050   32.8820   50.6600 C   0  0  0  0  0  0  0  0  0  0  0  0
   64.3060   33.0830   50.1920 C   0  0  0  0  0  0  0  0  0  0  0  0
   65.2400   33.4020   51.0290 N   0  0  0  0  0  0  0  0  0  0  0  0
   64.5800   32.9400   48.8590 N   0  0  0  0  0  0  0  0  0  0  0  0
   63.6130   32.5980   47.9650 C   0  0  0  0  0  0  0  0  0  0  0  0
   59.2196   35.8748   47.6939 H   0  0  0  0  0  0  0  0  0  0  0  0
   60.2406   36.0284   46.2240 H   0  0  0  0  0  0  0  0  0  0  0  0
   58.8273   34.9196   46.2240 H   0  0  0  0  0  0  0  0  0  0  0  0
   58.6708   33.2649   45.5653 H   0  0  0  0  0  0  0  0  0  0  0  0
   58.5030   32.3865   43.3267 H   0  0  0  0  0  0  0  0  0  0  0  0
   56.6299   31.7800   41.8049 H   0  0  0  0  0  0  0  0  0  0  0  0
   55.1648   29.8351   42.3424 H   0  0  0  0  0  0  0  0  0  0  0  0
   55.6184   28.4436   44.3586 H   0  0  0  0  0  0  0  0  0  0  0  0
   55.6537   26.8682   45.8284 H   0  0  0  0  0  0  0  0  0  0  0  0
   56.0322   24.4174   45.5761 H   0  0  0  0  0  0  0  0  0  0  0  0
   55.8280   22.5270   45.8700 H   0  0  0  0  0  0  0  0  0  0  0  0
   54.4480   22.2950   44.7290 H   0  0  0  0  0  0  0  0  0  0  0  0
   60.3081   25.0466   45.8430 H   0  0  0  0  0  0  0  0  0  0  0  0
   59.9327   27.5010   46.0779 H   0  0  0  0  0  0  0  0  0  0  0  0
   60.0661   29.1807   45.8371 H   0  0  0  0  0  0  0  0  0  0  0  0
   61.8463   29.8937   47.4224 H   0  0  0  0  0  0  0  0  0  0  0  0
   60.9728   32.3737   50.1178 H   0  0  0  0  0  0  0  0  0  0  0  0
   62.7749   33.0011   51.7291 H   0  0  0  0  0  0  0  0  0  0  0  0
   65.1430   33.2340   52.0500 H   0  0  0  0  0  0  0  0  0  0  0  0
   65.5480   33.0910   48.5050 H   0  0  0  0  0  0  0  0  0  0  0  0
   63.8642   32.4989   46.8987 H   0  0  0  0  0  0  0  0  0  0  0  0
  1  2  1  0
  2  3  1  0
  3  4  2  0
  4  5  1  0
  5  6  1  0
  6  7  2  0
  7  8  1  0
  8  9  2  0
  9 10  1  0
 10 11  2  0
 11 12  1  0
 12 13  1  0
 13 14  2  0
 14 15  1  0
 15 16  2  0
 16 17  1  0
 17 18  2  0
 17 19  2  0
 17 20  1  0
 20 21  1  0
 21 22  1  0
 21 23  2  0
 16 24  1  0
 24 25  2  0
  5 26  2  0
 26 27  1  0
 27 28  2  0
 28 29  1  0
 29 30  1  0
 30 31  2  0
 31 32  1  0
 32 33  2  3
 32 34  1  0
 34 35  1  0
 28  3  1  0
 35 29  2  0
 11  6  1  0
 25 13  1  0
  1 36  1  0
  1 37  1  0
  1 38  1  0
  4 39  1  0
  7 40  1  0
  8 41  1  0
  9 42  1  0
 10 43  1  0
 14 44  1  0
 15 45  1  0
 22 46  1  0
 22 47  1  0
 24 48  1  0
 25 49  1  0
 26 50  1  0
 27 51  1  0
 30 52  1  0
 31 53  1  0
 33 54  1  0
 34 55  1  0
 35 56  1  0
M  CHG  1  20  -1
M  END
>  <UniqueID>  (57) 
51

>  <SMILES>  (57) 
COc1cc(-c2ccccc2Oc2ccc(S(=O)(=O)[N-]C(N)=O)cc2)ccc1-c1ccc(=N)[nH]c1

>  <Energy>  (57) 
78.46490615689297

>  <Genealogy>  (57) 
COc1cc(-c2ccccc2Oc2ccc(S(=O)(=O)[N-]C(N)=O)cc2)ccc1-c1ccc(=N)[nH]c1 (protonated)
COc1cc(-c2ccccc2Oc2ccc(S(=O)(=O)[N-]C(N)=O)cc2)ccc1-c1ccc(=N)[nH]c1 (3D coordinates assigned)
COc1cc(-c2ccccc2Oc2ccc(S(=O)(=O)[N-]C(N)=O)cc2)ccc1-c1ccc(=N)[nH]c1 (optimized conformer: 78.46490615689297 kcal/mol)

>  <smiles>  (57) 
COc1cc(-c2ccccc2Oc2ccc(S(=O)(=O)NC(N)=O)cc2)ccc1-c1ccc(=N)[nH]c1

>  <score_type>  (57) 
oracle

>  <origin>  (57) 
adg

>  <m_score__min__energy>  (57) 
-11.32

>  <m_primary>  (57) 
energy

$$$$
57:0
     RDKit          3D

 61 65  0  0  0  0  0  0  0  0999 V2000
   56.6600   23.9610   43.2880 C   0  0  0  0  0  0  0  0  0  0  0  0
   57.5170   24.4780   44.3020 O   0  0  0  0  0  0  0  0  0  0  0  0
   57.6840   25.8430   44.5770 C   0  0  0  0  0  0  0  0  0  0  0  0
   58.1550   26.7560   43.6140 C   0  0  0  0  0  0  0  0  0  0  0  0
   58.2850   28.1100   43.9320 C   0  0  0  0  0  0  0  0  0  0  0  0
   57.9730   28.5740   45.2200 C   0  0  0  0  0  0  0  0  0  0  0  0
   58.0890   30.0130   45.5360 C   0  0  0  0  0  0  0  0  0  0  0  0
   57.6210   31.0520   44.7540 C   0  0  0  0  0  0  0  0  0  0  0  0
   57.7930   32.2000   45.4350 N   0  0  0  0  0  0  0  0  0  0  0  0
   57.4570   33.5380   44.9570 C   0  0  0  0  0  0  0  0  0  0  0  0
   58.7220   34.2660   44.4950 C   0  0  0  0  0  0  0  0  0  0  0  0
   59.2990   35.0440   45.5930 N   0  0  0  0  0  0  0  0  0  0  0  0
   59.9830   34.4750   46.7280 C   0  0  0  0  0  0  0  0  0  0  0  0
   59.4620   34.5660   48.0360 C   0  0  0  0  0  0  0  0  0  0  0  0
   60.1490   34.0030   49.1160 C   0  0  0  0  0  0  0  0  0  0  0  0
   61.3650   33.3390   48.9110 C   0  0  0  0  0  0  0  0  0  0  0  0
   62.0430   32.7920   49.9640 N   0  0  0  0  0  0  0  0  0  0  0  0
   63.2260   32.1430   49.7840 C   0  0  0  0  0  0  0  0  0  0  0  0
   63.7790   32.0200   48.5070 C   0  0  0  0  0  0  0  0  0  0  0  0
   63.1110   32.5700   47.4130 C   0  0  0  0  0  0  0  0  0  0  0  0
   61.8930   33.2370   47.6040 C   0  0  0  0  0  0  0  0  0  0  0  0
   61.1990   33.8000   46.5240 C   0  0  0  0  0  0  0  0  0  0  0  0
   58.3690   31.9590   46.6020 N   0  0  0  0  0  0  0  0  0  0  0  0
   58.5620   30.6270   46.6960 C   0  0  0  0  0  0  0  0  0  0  0  0
   59.2420   30.0000   47.8480 C   0  0  0  0  0  0  0  0  0  0  0  0
   58.9790   30.4220   49.1640 C   0  0  0  0  0  0  0  0  0  0  0  0
   59.6130   29.8010   50.2440 C   0  0  0  0  0  0  0  0  0  0  0  0
   60.5040   28.7450   50.0230 C   0  0  0  0  0  0  0  0  0  0  0  0
   61.2990   27.9350   51.4120 S   0  0  0  0  0  0  0  0  0  0  0  0
   62.5590   29.2360   51.6080 C   0  0  0  0  0  0  0  0  0  0  0  0
   60.7510   28.3030   48.7190 C   0  0  0  0  0  0  0  0  0  0  0  0
   60.1200   28.9250   47.6380 C   0  0  0  0  0  0  0  0  0  0  0  0
   57.4990   27.6630   46.1770 C   0  0  0  0  0  0  0  0  0  0  0  0
   57.3630   26.3090   45.8580 C   0  0  0  0  0  0  0  0  0  0  0  0
   55.8074   23.4467   43.7556 H   0  0  0  0  0  0  0  0  0  0  0  0
   56.2915   24.7876   42.6628 H   0  0  0  0  0  0  0  0  0  0  0  0
   57.2194   23.2495   42.6628 H   0  0  0  0  0  0  0  0  0  0  0  0
   58.4216   26.4016   42.6074 H   0  0  0  0  0  0  0  0  0  0  0  0
   58.6348   28.8187   43.1669 H   0  0  0  0  0  0  0  0  0  0  0  0
   57.1837   30.9571   43.7491 H   0  0  0  0  0  0  0  0  0  0  0  0
   56.7554   33.4573   44.1136 H   0  0  0  0  0  0  0  0  0  0  0  0
   56.9939   34.1069   45.7767 H   0  0  0  0  0  0  0  0  0  0  0  0
   59.4592   33.5261   44.1498 H   0  0  0  0  0  0  0  0  0  0  0  0
   58.4578   34.9508   43.6757 H   0  0  0  0  0  0  0  0  0  0  0  0
   59.1950   36.0830   45.5450 H   0  0  0  0  0  0  0  0  0  0  0  0
   58.5071   35.0843   48.2077 H   0  0  0  0  0  0  0  0  0  0  0  0
   59.7325   34.0820   50.1311 H   0  0  0  0  0  0  0  0  0  0  0  0
   61.6560   32.8650   50.9340 H   0  0  0  0  0  0  0  0  0  0  0  0
   63.7501   31.7125   50.6500 H   0  0  0  0  0  0  0  0  0  0  0  0
   64.7342   31.4933   48.3653 H   0  0  0  0  0  0  0  0  0  0  0  0
   63.5387   32.4806   46.4035 H   0  0  0  0  0  0  0  0  0  0  0  0
   61.6098   33.7128   45.5073 H   0  0  0  0  0  0  0  0  0  0  0  0
   58.2711   31.2445   49.3440 H   0  0  0  0  0  0  0  0  0  0  0  0
   59.4110   30.1432   51.2697 H   0  0  0  0  0  0  0  0  0  0  0  0
   62.7350   29.4177   52.6785 H   0  0  0  0  0  0  0  0  0  0  0  0
   63.4966   28.9131   51.1319 H   0  0  0  0  0  0  0  0  0  0  0  0
   62.2063   30.1628   51.1319 H   0  0  0  0  0  0  0  0  0  0  0  0
   61.4423   27.4654   48.5442 H   0  0  0  0  0  0  0  0  0  0  0  0
   60.3128   28.5695   46.6151 H   0  0  0  0  0  0  0  0  0  0  0  0
   57.2330   28.0168   47.1840 H   0  0  0  0  0  0  0  0  0  0  0  0
   57.0006   25.6032   46.6199 H   0  0  0  0  0  0  0  0  0  0  0  0
  1  2  1  0
  2  3  1  0
  3  4  2  0
  4  5  1  0
  5  6  2  0
  6  7  1  0
  7  8  2  0
  8  9  1  0
  9 10  1  0
 10 11  1  0
 11 12  1  0
 12 13  1  0
 13 14  2  0
 14 15  1  0
 15 16  2  0
 16 17  1  0
 17 18  2  0
 18 19  1  0
 19 20  2  0
 20 21  1  0
 21 22  2  0
  9 23  1  0
 23 24  2  0
 24 25  1  0
 25 26  2  0
 26 27  1  0
 27 28  2  0
 28 29  1  0
 29 30  1  0
 28 31  1  0
 31 32  2  0
  6 33  1  0
 33 34  2  0
 34  3  1  0
 24  7  1  0
 32 25  1  0
 22 13  1  0
 21 16  1  0
  1 35  1  0
  1 36  1  0
  1 37  1  0
  4 38  1  0
  5 39  1  0
  8 40  1  0
 10 41  1  0
 10 42  1  0
 11 43  1  0
 11 44  1  0
 12 45  1  0
 14 46  1  0
 15 47  1  0
 17 48  1  0
 18 49  1  0
 19 50  1  0
 20 51  1  0
 22 52  1  0
 26 53  1  0
 27 54  1  0
 30 55  1  0
 30 56  1  0
 30 57  1  0
 31 58  1  0
 32 59  1  0
 33 60  1  0
 34 61  1  0
M  CHG  1  17   1
M  END
>  <UniqueID>  (58) 
52

>  <SMILES>  (58) 
COc1ccc(-c2cn(CCNc3ccc4[nH+]cccc4c3)nc2-c2ccc(SC)cc2)cc1

>  <Energy>  (58) 
99.80420975542583

>  <Genealogy>  (58) 
COc1ccc(-c2cn(CCNc3ccc4[nH+]cccc4c3)nc2-c2ccc(SC)cc2)cc1 (protonated)
COc1ccc(-c2cn(CCNc3ccc4[nH+]cccc4c3)nc2-c2ccc(SC)cc2)cc1 (3D coordinates assigned)
COc1ccc(-c2cn(CCNc3ccc4[nH+]cccc4c3)nc2-c2ccc(SC)cc2)cc1 (optimized conformer: 99.80420975542583 kcal/mol)

>  <smiles>  (58) 
COc1ccc(-c2cn(CCNc3ccc4ncccc4c3)nc2-c2ccc(SC)cc2)cc1

>  <score_type>  (58) 
oracle

>  <origin>  (58) 
adg

>  <m_score__min__energy>  (58) 
-8.0500000000000007

>  <m_primary>  (58) 
energy

$$$$
58:0
     RDKit          3D

 43 44  0  0  0  0  0  0  0  0999 V2000
   57.9470   32.2670   42.7740 C   0  0  0  0  0  0  0  0  0  0  0  0
   57.0170   31.0540   42.7740 C   0  0  0  0  0  0  0  0  0  0  0  0
   56.2600   30.8910   44.1010 C   0  0  0  0  0  0  0  0  0  0  0  0
   56.0040   29.4190   44.4540 C   0  0  0  0  0  0  0  0  0  0  0  0
   57.1340   28.8720   45.2840 C   0  0  0  0  0  0  0  0  0  0  0  0
   58.2720   29.5600   45.3280 O   0  0  0  0  0  0  0  0  0  0  0  0
   59.3280   29.1740   46.0400 C   0  0  0  0  0  0  0  0  0  0  0  0
   60.5070   29.9280   46.0510 O   0  0  0  0  0  0  0  0  0  0  0  0
   60.6990   31.1070   46.7860 C   0  0  0  0  0  0  0  0  0  0  0  0
   61.6060   31.1800   47.6590 O   0  0  0  0  0  0  0  0  0  0  0  0
   59.8340   32.2800   46.5220 C   0  0  0  0  0  0  0  0  0  0  0  0
   58.4400   32.1820   46.6760 C   0  0  0  0  0  0  0  0  0  0  0  0
   57.6200   33.2870   46.4230 C   0  0  0  0  0  0  0  0  0  0  0  0
   58.1840   34.4990   46.0180 C   0  0  0  0  0  0  0  0  0  0  0  0
   59.5670   34.6070   45.8590 C   0  0  0  0  0  0  0  0  0  0  0  0
   60.3910   33.5040   46.1100 C   0  0  0  0  0  0  0  0  0  0  0  0
   59.2680   28.0030   46.7940 C   0  0  0  0  0  0  0  0  0  0  0  0
   58.0920   27.2520   46.7960 C   0  0  0  0  0  0  0  0  0  0  0  0
   58.0270   26.2270   47.5220 O   0  0  0  0  0  0  0  0  0  0  0  0
   56.9980   27.6730   46.0150 C   0  0  0  0  0  0  0  0  0  0  0  0
   55.7470   26.9630   45.9670 N   0  0  0  0  0  0  0  0  0  0  0  0
   55.5180   25.2450   45.8900 S   0  0  0  0  0  0  0  0  0  0  0  0
   56.4740   24.5510   44.5570 C   0  0  0  0  0  0  0  0  0  0  0  0
   55.8930   24.6090   47.1990 O   0  0  0  0  0  0  0  0  0  0  0  0
   54.0660   24.9700   45.6180 O   0  0  0  0  0  0  0  0  0  0  0  0
   58.1701   32.5580   43.8111 H   0  0  0  0  0  0  0  0  0  0  0  0
   58.8829   32.0115   42.2555 H   0  0  0  0  0  0  0  0  0  0  0  0
   57.4573   33.1045   42.2555 H   0  0  0  0  0  0  0  0  0  0  0  0
   56.2840   31.1718   41.9623 H   0  0  0  0  0  0  0  0  0  0  0  0
   57.6383   30.1574   42.6321 H   0  0  0  0  0  0  0  0  0  0  0  0
   56.8550   31.3484   44.9052 H   0  0  0  0  0  0  0  0  0  0  0  0
   55.2826   31.3836   43.9913 H   0  0  0  0  0  0  0  0  0  0  0  0
   55.0660   29.3411   45.0232 H   0  0  0  0  0  0  0  0  0  0  0  0
   55.9321   28.8372   43.5232 H   0  0  0  0  0  0  0  0  0  0  0  0
   57.9912   31.2305   46.9974 H   0  0  0  0  0  0  0  0  0  0  0  0
   56.5300   33.2012   46.5432 H   0  0  0  0  0  0  0  0  0  0  0  0
   57.5386   35.3684   45.8243 H   0  0  0  0  0  0  0  0  0  0  0  0
   60.0097   35.5607   45.5359 H   0  0  0  0  0  0  0  0  0  0  0  0
   61.4800   33.5948   45.9844 H   0  0  0  0  0  0  0  0  0  0  0  0
   60.1384   27.6746   47.3810 H   0  0  0  0  0  0  0  0  0  0  0  0
   57.2989   23.9522   44.9704 H   0  0  0  0  0  0  0  0  0  0  0  0
   55.8291   23.9093   43.9387 H   0  0  0  0  0  0  0  0  0  0  0  0
   56.8844   25.3629   43.9387 H   0  0  0  0  0  0  0  0  0  0  0  0
  1  2  1  0
  2  3  1  0
  3  4  1  0
  4  5  1  0
  5  6  1  0
  6  7  1  0
  7  8  1  0
  8  9  1  0
  9 10  2  0
  9 11  1  0
 11 12  2  0
 12 13  1  0
 13 14  2  0
 14 15  1  0
 15 16  2  0
  7 17  2  0
 17 18  1  0
 18 19  2  0
 18 20  1  0
 20 21  1  0
 21 22  1  0
 22 23  1  0
 22 24  2  0
 22 25  2  0
 20  5  2  0
 16 11  1  0
  1 26  1  0
  1 27  1  0
  1 28  1  0
  2 29  1  0
  2 30  1  0
  3 31  1  0
  3 32  1  0
  4 33  1  0
  4 34  1  0
 12 35  1  0
 13 36  1  0
 14 37  1  0
 15 38  1  0
 16 39  1  0
 17 40  1  0
 23 41  1  0
 23 42  1  0
 23 43  1  0
M  CHG  1  21  -1
M  END
>  <UniqueID>  (59) 
53

>  <SMILES>  (59) 
CCCCc1oc(OC(=O)c2ccccc2)cc(=O)c1[N-]S(C)(=O)=O

>  <Energy>  (59) 
41.99514190365826

>  <Genealogy>  (59) 
CCCCc1oc(OC(=O)c2ccccc2)cc(=O)c1[N-]S(C)(=O)=O (protonated)
CCCCc1oc(OC(=O)c2ccccc2)cc(=O)c1[N-]S(C)(=O)=O (3D coordinates assigned)
CCCCc1oc(OC(=O)c2ccccc2)cc(=O)c1[N-]S(C)(=O)=O (optimized conformer: 41.99514190365826 kcal/mol)

>  <smiles>  (59) 
CCCCc1oc(OC(=O)c2ccccc2)cc(=O)c1NS(C)(=O)=O

>  <score_type>  (59) 
oracle

>  <origin>  (59) 
adg

>  <m_score__min__energy>  (59) 
-9.8900000000000006

>  <m_primary>  (59) 
energy

$$$$
59:0
     RDKit          3D

 43 46  0  0  0  0  0  0  0  0999 V2000
   59.6600   33.5990   51.4370 C   0  0  0  0  0  0  0  0  0  0  0  0
   59.7710   33.7200   49.9900 N   0  0  0  0  0  0  0  0  0  0  0  0
   59.0270   33.0560   49.0860 C   0  0  0  0  0  0  0  0  0  0  0  0
   59.3800   33.5050   47.8240 C   0  0  0  0  0  0  0  0  0  0  0  0
   58.8310   33.0610   46.5160 C   0  0  0  0  0  0  0  0  0  0  0  0
   58.4720   34.0080   45.5170 C   0  0  0  0  0  0  0  0  0  0  0  0
   57.9530   33.6010   44.3210 N   0  0  0  0  0  0  0  0  0  0  0  0
   57.7990   32.2780   44.0800 C   0  0  0  0  0  0  0  0  0  0  0  0
   57.2680   31.7340   42.9740 N   0  0  0  0  0  0  0  0  0  0  0  0
   57.2720   30.3980   43.1870 C   0  0  0  0  0  0  0  0  0  0  0  0
   57.8240   30.1020   44.4320 C   0  0  0  0  0  0  0  0  0  0  0  0
   57.9820   28.7570   45.0220 C   0  0  0  0  0  0  0  0  0  0  0  0
   59.2700   28.2520   45.2510 C   0  0  0  0  0  0  0  0  0  0  0  0
   59.4400   26.9820   45.8020 C   0  0  0  0  0  0  0  0  0  0  0  0
   60.6900   26.4990   46.0140 F   0  0  0  0  0  0  0  0  0  0  0  0
   58.3290   26.2070   46.1360 C   0  0  0  0  0  0  0  0  0  0  0  0
   57.0260   26.6970   45.9290 C   0  0  0  0  0  0  0  0  0  0  0  0
   55.8630   25.9270   46.2880 N   0  0  0  0  0  0  0  0  0  0  0  0
   55.4880   24.3640   45.6320 S   0  0  0  0  0  0  0  0  0  0  0  0
   56.3440   24.1220   44.0900 C   0  0  0  0  0  0  0  0  0  0  0  0
   54.0090   24.2900   45.3720 O   0  0  0  0  0  0  0  0  0  0  0  0
   55.8600   23.2890   46.6140 O   0  0  0  0  0  0  0  0  0  0  0  0
   56.8620   27.9850   45.3830 C   0  0  0  0  0  0  0  0  0  0  0  0
   55.6120   28.4980   45.2410 F   0  0  0  0  0  0  0  0  0  0  0  0
   58.1460   31.3270   44.9940 C   0  0  0  0  0  0  0  0  0  0  0  0
   58.6490   31.6840   46.2420 C   0  0  0  0  0  0  0  0  0  0  0  0
   60.3550   34.4670   48.0560 C   0  0  0  0  0  0  0  0  0  0  0  0
   60.5660   34.5830   49.3810 N   0  0  0  0  0  0  0  0  0  0  0  0
   60.3286   34.3279   51.9183 H   0  0  0  0  0  0  0  0  0  0  0  0
   58.6219   33.7960   51.7429 H   0  0  0  0  0  0  0  0  0  0  0  0
   59.9456   32.5817   51.7429 H   0  0  0  0  0  0  0  0  0  0  0  0
   58.2702   32.2899   49.3104 H   0  0  0  0  0  0  0  0  0  0  0  0
   58.6142   35.0815   45.7102 H   0  0  0  0  0  0  0  0  0  0  0  0
   56.9100   32.2360   42.1310 H   0  0  0  0  0  0  0  0  0  0  0  0
   56.8923   29.6493   42.4762 H   0  0  0  0  0  0  0  0  0  0  0  0
   60.1501   28.8601   44.9950 H   0  0  0  0  0  0  0  0  0  0  0  0
   58.4727   25.2043   46.5649 H   0  0  0  0  0  0  0  0  0  0  0  0
   55.1370   26.3570   46.9020 H   0  0  0  0  0  0  0  0  0  0  0  0
   57.3848   23.8278   44.2906 H   0  0  0  0  0  0  0  0  0  0  0  0
   55.8438   23.3301   43.5133 H   0  0  0  0  0  0  0  0  0  0  0  0
   56.3324   25.0586   43.5133 H   0  0  0  0  0  0  0  0  0  0  0  0
   58.8975   30.9193   46.9926 H   0  0  0  0  0  0  0  0  0  0  0  0
   60.8746   35.0449   47.2775 H   0  0  0  0  0  0  0  0  0  0  0  0
  1  2  1  0
  2  3  1  0
  3  4  2  0
  4  5  1  0
  5  6  2  0
  6  7  1  0
  7  8  2  0
  8  9  1  0
  9 10  1  0
 10 11  2  0
 11 12  1  0
 12 13  2  0
 13 14  1  0
 14 15  1  0
 14 16  2  0
 16 17  1  0
 17 18  1  0
 18 19  1  0
 19 20  1  0
 19 21  2  0
 19 22  2  0
 17 23  2  0
 23 24  1  0
 11 25  1  0
 25 26  2  0
  4 27  1  0
 27 28  2  0
 28  2  1  0
 26  5  1  0
 25  8  1  0
 23 12  1  0
  1 29  1  0
  1 30  1  0
  1 31  1  0
  3 32  1  0
  6 33  1  0
  9 34  1  0
 10 35  1  0
 13 36  1  0
 16 37  1  0
 18 38  1  0
 20 39  1  0
 20 40  1  0
 20 41  1  0
 26 42  1  0
 27 43  1  0
M  END
>  <UniqueID>  (60) 
54

>  <SMILES>  (60) 
Cn1cc(-c2cnc3[nH]cc(-c4cc(F)cc(NS(C)(=O)=O)c4F)c3c2)cn1

>  <Energy>  (60) 
117.91802191340525

>  <Genealogy>  (60) 
Cn1cc(-c2cnc3[nH]cc(-c4cc(F)cc(NS(C)(=O)=O)c4F)c3c2)cn1 (3D coordinates assigned)
Cn1cc(-c2cnc3[nH]cc(-c4cc(F)cc(NS(C)(=O)=O)c4F)c3c2)cn1 (optimized conformer: 117.91802191340525 kcal/mol)

>  <smiles>  (60) 
Cn1cc(-c2cnc3[nH]cc(-c4cc(F)cc(NS(C)(=O)=O)c4F)c3c2)cn1

>  <score_type>  (60) 
oracle

>  <origin>  (60) 
adg

>  <m_score__min__energy>  (60) 
-9.4600000000000009

>  <m_primary>  (60) 
energy

$$$$
60:0
     RDKit          3D

 38 40  0  0  0  0  0  0  0  0999 V2000
   60.6710   25.2253   45.7145 H   0  0  0  0  0  0  0  0  0  0  0  0
   60.0100   25.9700   46.1820 C   0  0  0  0  0  0  0  0  0  0  0  0
   60.5140   26.8340   47.1570 C   0  0  0  0  0  0  0  0  0  0  0  0
   61.5706   26.7694   47.4562 H   0  0  0  0  0  0  0  0  0  0  0  0
   59.6760   27.7800   47.7520 C   0  0  0  0  0  0  0  0  0  0  0  0
   60.1660   28.6180   48.6980 F   0  0  0  0  0  0  0  0  0  0  0  0
   58.3320   27.8640   47.3720 C   0  0  0  0  0  0  0  0  0  0  0  0
   57.6765   28.6109   47.8437 H   0  0  0  0  0  0  0  0  0  0  0  0
   57.8130   26.9990   46.3900 C   0  0  0  0  0  0  0  0  0  0  0  0
   56.3900   27.0830   45.9860 C   0  0  0  0  0  0  0  0  0  0  0  0
   55.5860   26.1650   46.3050 O   0  0  0  0  0  0  0  0  0  0  0  0
   55.9200   28.2060   45.2330 N   0  0  0  0  0  0  0  0  0  0  0  0
   56.5880   29.5010   45.2440 C   0  0  0  0  0  0  0  0  0  0  0  0
   55.8365   30.3013   45.1748 H   0  0  0  0  0  0  0  0  0  0  0  0
   57.1573   29.6108   46.1788 H   0  0  0  0  0  0  0  0  0  0  0  0
   57.5440   29.5950   44.0520 C   0  0  0  0  0  0  0  0  0  0  0  0
   58.1041   28.6523   43.9647 H   0  0  0  0  0  0  0  0  0  0  0  0
   56.9534   29.7775   43.1421 H   0  0  0  0  0  0  0  0  0  0  0  0
   58.4870   30.6970   44.2240 N   0  0  0  0  0  0  0  0  0  0  0  0
   58.4830   31.8270   44.8860 C   0  0  0  0  0  0  0  0  0  0  0  0
   57.6240   32.8030   44.3630 C   0  0  0  0  0  0  0  0  0  0  0  0
   57.0391   32.5781   43.4590 H   0  0  0  0  0  0  0  0  0  0  0  0
   57.4970   34.0470   44.9630 C   0  0  0  0  0  0  0  0  0  0  0  0
   56.8141   34.7948   44.5335 H   0  0  0  0  0  0  0  0  0  0  0  0
   58.2090   34.3450   46.0740 N   0  0  0  0  0  0  0  0  0  0  0  0
   58.0830   35.2940   46.4950 H   0  0  0  0  0  0  0  0  0  0  0  0
   59.0710   33.4510   46.6350 C   0  0  0  0  0  0  0  0  0  0  0  0
   59.7850   33.8330   47.7830 C   0  0  0  0  0  0  0  0  0  0  0  0
   59.6333   34.8351   48.2106 H   0  0  0  0  0  0  0  0  0  0  0  0
   60.6820   32.9560   48.3840 C   0  0  0  0  0  0  0  0  0  0  0  0
   61.5650   33.4450   49.8180 Cl  0  0  0  0  0  0  0  0  0  0  0  0
   60.8790   31.6920   47.8420 C   0  0  0  0  0  0  0  0  0  0  0  0
   61.5911   31.0004   48.3160 H   0  0  0  0  0  0  0  0  0  0  0  0
   60.1810   31.2920   46.7010 C   0  0  0  0  0  0  0  0  0  0  0  0
   60.3570   30.2880   46.2875 H   0  0  0  0  0  0  0  0  0  0  0  0
   59.2500   32.1510   46.0630 C   0  0  0  0  0  0  0  0  0  0  0  0
   58.6690   26.0490   45.7990 C   0  0  0  0  0  0  0  0  0  0  0  0
   58.2789   25.3650   45.0309 H   0  0  0  0  0  0  0  0  0  0  0  0
  1  2  1  0
  2  3  2  0
  3  4  1  0
  3  5  1  0
  5  6  1  0
  5  7  2  0
  7  8  1  0
  7  9  1  0
  9 10  1  0
 10 11  2  0
 10 12  1  0
 12 13  1  0
 13 14  1  0
 13 15  1  0
 13 16  1  0
 16 17  1  0
 16 18  1  0
 16 19  1  0
 19 20  2  0
 20 21  1  0
 21 22  1  0
 21 23  2  0
 23 24  1  0
 23 25  1  0
 25 26  1  0
 25 27  1  0
 27 28  2  0
 28 29  1  0
 28 30  1  0
 30 31  1  0
 30 32  2  0
 32 33  1  0
 32 34  1  0
 34 35  1  0
 34 36  2  0
  9 37  2  0
 37 38  1  0
 37  2  1  0
 36 20  1  0
 36 27  1  0
M  CHG  1  12  -1
M  END
>  <UniqueID>  (61) 
55

>  <SMILES>  (61) 
O=C([N-]CC/N=c1/cc[nH]c2cc(Cl)ccc12)c1cccc(F)c1

>  <Energy>  (61) 
58.24526755881048

>  <Genealogy>  (61) 
O=C([N-]CCN=c1cc[nH]c2cc(Cl)ccc12)c1cccc(F)c1 (protonated)
O=C([N-]CC/N=c1/cc[nH]c2cc(Cl)ccc12)c1cccc(F)c1 (cis-trans isomerization)
O=C([N-]CC/N=c1/cc[nH]c2cc(Cl)ccc12)c1cccc(F)c1 (3D coordinates assigned)
O=C([N-]CC/N=c1/cc[nH]c2cc(Cl)ccc12)c1cccc(F)c1 (optimized conformer: 58.24526755881048 kcal/mol)

>  <smiles>  (61) 
O=C(NCCN=c1cc[nH]c2cc(Cl)ccc12)c1cccc(F)c1

>  <score_type>  (61) 
oracle

>  <origin>  (61) 
adg

>  <m_score__min__energy>  (61) 
-10.24

>  <m_primary>  (61) 
energy

$$$$
61:0
     RDKit          3D

 56 59  0  0  0  0  0  0  0  0999 V2000
   66.7340   30.6160   51.0630 C   0  0  0  0  0  0  0  0  0  0  0  0
   66.4550   31.6850   50.1640 O   0  0  0  0  0  0  0  0  0  0  0  0
   65.3090   32.4970   50.2160 C   0  0  0  0  0  0  0  0  0  0  0  0
   64.2340   32.3190   49.3280 C   0  0  0  0  0  0  0  0  0  0  0  0
   63.0970   33.1380   49.3940 C   0  0  0  0  0  0  0  0  0  0  0  0
   61.9730   32.9180   48.4390 C   0  0  0  0  0  0  0  0  0  0  0  0
   61.2420   33.9360   47.8160 C   0  0  0  0  0  0  0  0  0  0  0  0
   60.0810   33.2180   46.8370 S   0  0  0  0  0  0  0  0  0  0  0  0
   60.5390   31.6480   47.2290 C   0  0  0  0  0  0  0  0  0  0  0  0
   59.9160   30.4050   46.7160 C   0  0  0  0  0  0  0  0  0  0  0  0
   58.9180   30.4760   45.7340 C   0  0  0  0  0  0  0  0  0  0  0  0
   58.3330   29.3150   45.2330 C   0  0  0  0  0  0  0  0  0  0  0  0
   58.7280   28.0520   45.7000 C   0  0  0  0  0  0  0  0  0  0  0  0
   58.1370   26.8570   45.0560 C   0  0  0  0  0  0  0  0  0  0  0  0
   57.4870   25.8810   45.8240 C   0  0  0  0  0  0  0  0  0  0  0  0
   56.9150   24.7710   45.2020 C   0  0  0  0  0  0  0  0  0  0  0  0
   56.9860   24.6520   43.8110 C   0  0  0  0  0  0  0  0  0  0  0  0
   56.2560   23.2280   42.9980 S   0  0  0  0  0  0  0  0  0  0  0  0
   57.3670   22.0430   43.8170 C   0  0  0  0  0  0  0  0  0  0  0  0
   57.6100   25.6120   43.0750 N   0  0  0  0  0  0  0  0  0  0  0  0
   58.1750   26.7030   43.6610 C   0  0  0  0  0  0  0  0  0  0  0  0
   59.7140   27.9630   46.7180 C   0  0  0  0  0  0  0  0  0  0  0  0
   60.1210   26.6720   47.3300 C   0  0  0  0  0  0  0  0  0  0  0  0
   60.4370   25.6860   46.6140 O   0  0  0  0  0  0  0  0  0  0  0  0
   60.1160   26.5230   48.7120 O   0  0  0  0  0  0  0  0  0  0  0  0
   60.3050   29.1450   47.2010 C   0  0  0  0  0  0  0  0  0  0  0  0
   61.5710   31.6590   48.1010 N   0  0  0  0  0  0  0  0  0  0  0  0
   63.0530   34.1500   50.3690 C   0  0  0  0  0  0  0  0  0  0  0  0
   64.1190   34.3460   51.2700 C   0  0  0  0  0  0  0  0  0  0  0  0
   64.0650   35.3570   52.2420 O   0  0  0  0  0  0  0  0  0  0  0  0
   64.0710   35.1430   53.6510 C   0  0  0  0  0  0  0  0  0  0  0  0
   65.2580   33.5070   51.1880 C   0  0  0  0  0  0  0  0  0  0  0  0
   66.3750   33.6180   52.0390 O   0  0  0  0  0  0  0  0  0  0  0  0
   66.5370   33.0040   53.3130 C   0  0  0  0  0  0  0  0  0  0  0  0
   66.6405   30.9742   52.0988 H   0  0  0  0  0  0  0  0  0  0  0  0
   66.0194   29.7973   50.8922 H   0  0  0  0  0  0  0  0  0  0  0  0
   67.7575   30.2509   50.8922 H   0  0  0  0  0  0  0  0  0  0  0  0
   64.2852   31.5245   48.5689 H   0  0  0  0  0  0  0  0  0  0  0  0
   61.4000   35.0169   47.9449 H   0  0  0  0  0  0  0  0  0  0  0  0
   58.5940   31.4568   45.3558 H   0  0  0  0  0  0  0  0  0  0  0  0
   57.5520   29.3893   44.4620 H   0  0  0  0  0  0  0  0  0  0  0  0
   57.4280   25.9903   46.9170 H   0  0  0  0  0  0  0  0  0  0  0  0
   56.4128   23.9967   45.8005 H   0  0  0  0  0  0  0  0  0  0  0  0
   57.2716   22.1448   44.9081 H   0  0  0  0  0  0  0  0  0  0  0  0
   57.0954   21.0195   43.5191 H   0  0  0  0  0  0  0  0  0  0  0  0
   58.4058   22.2481   43.5191 H   0  0  0  0  0  0  0  0  0  0  0  0
   57.6550   25.5180   42.0350 H   0  0  0  0  0  0  0  0  0  0  0  0
   58.6635   27.4674   43.0388 H   0  0  0  0  0  0  0  0  0  0  0  0
   61.0862   29.0814   47.9728 H   0  0  0  0  0  0  0  0  0  0  0  0
   62.1690   34.8018   50.4299 H   0  0  0  0  0  0  0  0  0  0  0  0
   64.0438   36.1129   54.1693 H   0  0  0  0  0  0  0  0  0  0  0  0
   63.1891   34.5503   53.9356 H   0  0  0  0  0  0  0  0  0  0  0  0
   64.9847   34.6006   53.9356 H   0  0  0  0  0  0  0  0  0  0  0  0
   66.3419   33.7433   54.1038 H   0  0  0  0  0  0  0  0  0  0  0  0
   65.8287   32.1680   53.4098 H   0  0  0  0  0  0  0  0  0  0  0  0
   67.5656   32.6262   53.4098 H   0  0  0  0  0  0  0  0  0  0  0  0
  1  2  1  0
  2  3  1  0
  3  4  2  0
  4  5  1  0
  5  6  1  0
  6  7  2  0
  7  8  1  0
  8  9  1  0
  9 10  1  0
 10 11  2  0
 11 12  1  0
 12 13  2  0
 13 14  1  0
 14 15  2  0
 15 16  1  0
 16 17  2  0
 17 18  1  0
 18 19  1  0
 17 20  1  0
 20 21  2  0
 13 22  1  0
 22 23  1  0
 23 24  2  0
 23 25  1  0
 22 26  2  0
  9 27  2  0
  5 28  2  0
 28 29  1  0
 29 30  1  0
 30 31  1  0
 29 32  2  0
 32 33  1  0
 33 34  1  0
 32  3  1  0
 27  6  1  0
 26 10  1  0
 21 14  1  0
  1 35  1  0
  1 36  1  0
  1 37  1  0
  4 38  1  0
  7 39  1  0
 11 40  1  0
 12 41  1  0
 15 42  1  0
 16 43  1  0
 19 44  1  0
 19 45  1  0
 19 46  1  0
 20 47  1  0
 21 48  1  0
 26 49  1  0
 28 50  1  0
 31 51  1  0
 31 52  1  0
 31 53  1  0
 34 54  1  0
 34 55  1  0
 34 56  1  0
M  CHG  2  20   1  25  -1
M  END
>  <UniqueID>  (62) 
56

>  <SMILES>  (62) 
COc1cc(-c2csc(-c3ccc(-c4ccc(SC)[nH+]c4)c(C(=O)[O-])c3)n2)cc(OC)c1OC

>  <Energy>  (62) 
101.82439935288106

>  <Genealogy>  (62) 
COc1cc(-c2csc(-c3ccc(-c4ccc(SC)[nH+]c4)c(C(=O)[O-])c3)n2)cc(OC)c1OC (protonated)
COc1cc(-c2csc(-c3ccc(-c4ccc(SC)[nH+]c4)c(C(=O)[O-])c3)n2)cc(OC)c1OC (3D coordinates assigned)
COc1cc(-c2csc(-c3ccc(-c4ccc(SC)[nH+]c4)c(C(=O)[O-])c3)n2)cc(OC)c1OC (optimized conformer: 101.82439935288106 kcal/mol)

>  <smiles>  (62) 
COc1cc(-c2csc(-c3ccc(-c4ccc(SC)nc4)c(C(=O)O)c3)n2)cc(OC)c1OC

>  <score_type>  (62) 
oracle

>  <origin>  (62) 
adg

>  <m_score__min__energy>  (62) 
-9.7400000000000002

>  <m_primary>  (62) 
energy

$$$$
62:0
     RDKit          3D

 63 66  0  0  0  0  0  0  0  0999 V2000
   55.6460   29.7240   43.1740 C   0  0  0  0  0  0  0  0  0  0  0  0
   56.5170   30.2850   44.2490 C   0  0  0  0  0  0  0  0  0  0  0  0
   56.5880   29.6900   45.3640 O   0  0  0  0  0  0  0  0  0  0  0  0
   57.3000   31.4620   43.9900 N   0  0  0  0  0  0  0  0  0  0  0  0
   57.9960   32.1990   45.0090 C   0  0  0  0  0  0  0  0  0  0  0  0
   57.9050   31.7820   46.3440 C   0  0  0  0  0  0  0  0  0  0  0  0
   58.5830   32.4730   47.3520 C   0  0  0  0  0  0  0  0  0  0  0  0
   59.3890   33.5740   47.0430 C   0  0  0  0  0  0  0  0  0  0  0  0
   60.0590   34.2240   48.0960 O   0  0  0  0  0  0  0  0  0  0  0  0
   61.4580   34.1170   48.3710 C   0  0  1  0  0  0  0  0  0  0  0  0
   61.7160   34.2880   49.8330 C   0  0  0  0  0  0  0  0  0  0  0  0
   62.9110   33.9140   50.2850 C   0  0  0  0  0  0  0  0  0  0  0  0
   63.9520   33.4270   49.2910 C   0  0  1  0  0  0  0  0  0  0  0  0
   65.0320   32.6510   50.0050 C   0  0  0  0  0  0  0  0  0  0  0  0
   64.7320   31.4300   50.6380 C   0  0  0  0  0  0  0  0  0  0  0  0
   65.7360   30.7020   51.2840 C   0  0  0  0  0  0  0  0  0  0  0  0
   67.0480   31.1830   51.3010 C   0  0  0  0  0  0  0  0  0  0  0  0
   67.3560   32.3950   50.6770 C   0  0  0  0  0  0  0  0  0  0  0  0
   66.3540   33.1290   50.0330 C   0  0  0  0  0  0  0  0  0  0  0  0
   63.4460   32.6320   48.2150 O   0  0  0  0  0  0  0  0  0  0  0  0
   62.0470   32.7410   47.9450 C   0  0  1  0  0  0  0  0  0  0  0  0
   61.3400   31.5290   48.5880 C   0  0  0  0  0  0  0  0  0  0  0  0
   61.6450   30.3360   47.8880 O   0  0  0  0  0  0  0  0  0  0  0  0
   61.0190   30.3280   46.6180 C   0  0  0  0  0  0  0  0  0  0  0  0
   60.0720   29.1600   46.5100 C   0  0  0  0  0  0  0  0  0  0  0  0
   59.8950   28.5130   45.2780 C   0  0  0  0  0  0  0  0  0  0  0  0
   58.9340   27.5100   45.1380 C   0  0  0  0  0  0  0  0  0  0  0  0
   58.1360   27.1410   46.2300 C   0  0  0  0  0  0  0  0  0  0  0  0
   56.8710   25.9320   46.0370 S   0  0  0  0  0  0  0  0  0  0  0  0
   55.3310   26.7130   45.9910 N   0  0  0  0  0  0  0  0  0  0  0  0
   56.9120   24.9670   47.1920 O   0  0  0  0  0  0  0  0  0  0  0  0
   57.0860   25.1680   44.7590 O   0  0  0  0  0  0  0  0  0  0  0  0
   58.3220   27.7710   47.4670 C   0  0  0  0  0  0  0  0  0  0  0  0
   59.2880   28.7710   47.6090 C   0  0  0  0  0  0  0  0  0  0  0  0
   59.4960   33.9860   45.7010 C   0  0  0  0  0  0  0  0  0  0  0  0
   58.8120   33.2980   44.6910 C   0  0  0  0  0  0  0  0  0  0  0  0
   54.8043   29.1819   43.6297 H   0  0  0  0  0  0  0  0  0  0  0  0
   55.2596   30.5435   42.5501 H   0  0  0  0  0  0  0  0  0  0  0  0
   56.2323   29.0333   42.5501 H   0  0  0  0  0  0  0  0  0  0  0  0
   57.4250   31.7590   42.9910 H   0  0  0  0  0  0  0  0  0  0  0  0
   57.2948   30.9035   46.6005 H   0  0  0  0  0  0  0  0  0  0  0  0
   58.4820   32.1482   48.3981 H   0  0  0  0  0  0  0  0  0  0  0  0
   61.9460   34.9106   47.7861 H   0  0  0  0  0  0  0  0  0  0  0  0
   60.9521   34.7046   50.5060 H   0  0  0  0  0  0  0  0  0  0  0  0
   63.1409   33.9568   51.3598 H   0  0  0  0  0  0  0  0  0  0  0  0
   64.3480   34.3448   48.8318 H   0  0  0  0  0  0  0  0  0  0  0  0
   63.7012   31.0461   50.6244 H   0  0  0  0  0  0  0  0  0  0  0  0
   65.4930   29.7502   51.7790 H   0  0  0  0  0  0  0  0  0  0  0  0
   67.8382   30.6077   51.8055 H   0  0  0  0  0  0  0  0  0  0  0  0
   68.3890   32.7729   50.6922 H   0  0  0  0  0  0  0  0  0  0  0  0
   66.6015   34.0840   49.5465 H   0  0  0  0  0  0  0  0  0  0  0  0
   61.8711   32.7130   46.8595 H   0  0  0  0  0  0  0  0  0  0  0  0
   61.6734   31.4295   49.6315 H   0  0  0  0  0  0  0  0  0  0  0  0
   60.2531   31.6931   48.5459 H   0  0  0  0  0  0  0  0  0  0  0  0
   60.4574   31.2643   46.4841 H   0  0  0  0  0  0  0  0  0  0  0  0
   61.7903   30.2371   45.8390 H   0  0  0  0  0  0  0  0  0  0  0  0
   60.5173   28.7977   44.4168 H   0  0  0  0  0  0  0  0  0  0  0  0
   58.8026   27.0079   44.1682 H   0  0  0  0  0  0  0  0  0  0  0  0
   55.5060   27.7330   45.8310 H   0  0  0  0  0  0  0  0  0  0  0  0
   57.7057   27.4777   48.3297 H   0  0  0  0  0  0  0  0  0  0  0  0
   59.4351   29.2556   48.5855 H   0  0  0  0  0  0  0  0  0  0  0  0
   60.1210   34.8540   45.4441 H   0  0  0  0  0  0  0  0  0  0  0  0
   58.9140   33.6194   43.6439 H   0  0  0  0  0  0  0  0  0  0  0  0
  1  2  1  0
  2  3  2  0
  2  4  1  0
  4  5  1  0
  5  6  2  0
  6  7  1  0
  7  8  2  0
  8  9  1  0
  9 10  1  0
 10 11  1  0
 11 12  2  0
 12 13  1  0
 13 14  1  0
 14 15  2  0
 15 16  1  0
 16 17  2  0
 17 18  1  0
 18 19  2  0
 13 20  1  0
 20 21  1  0
 21 22  1  0
 22 23  1  0
 23 24  1  0
 24 25  1  0
 25 26  2  0
 26 27  1  0
 27 28  2  0
 28 29  1  0
 29 30  1  0
 29 31  2  0
 29 32  2  0
 28 33  1  0
 33 34  2  0
  8 35  1  0
 35 36  2  0
 36  5  1  0
 21 10  1  0
 34 25  1  0
 19 14  1  0
  1 37  1  0
  1 38  1  0
  1 39  1  0
  4 40  1  0
  6 41  1  0
  7 42  1  0
 10 43  1  6
 11 44  1  0
 12 45  1  0
 13 46  1  6
 15 47  1  0
 16 48  1  0
 17 49  1  0
 18 50  1  0
 19 51  1  0
 21 52  1  6
 22 53  1  0
 22 54  1  0
 24 55  1  0
 24 56  1  0
 26 57  1  0
 27 58  1  0
 30 59  1  0
 33 60  1  0
 34 61  1  0
 35 62  1  0
 36 63  1  0
M  CHG  1  30  -1
M  END
>  <UniqueID>  (63) 
57

>  <SMILES>  (63) 
CC(=O)Nc1ccc(O[C@H]2C=C[C@@H](c3ccccc3)OC2COCc2ccc(S([NH-])(=O)=O)cc2)cc1

>  <Energy>  (63) 
79.61218515832121

>  <Genealogy>  (63) 
CC(=O)Nc1ccc(OC2C=CC(c3ccccc3)OC2COCc2ccc(S([NH-])(=O)=O)cc2)cc1 (protonated)
CC(=O)Nc1ccc(O[C@H]2C=C[C@@H](c3ccccc3)OC2COCc2ccc(S([NH-])(=O)=O)cc2)cc1 (chirality)
CC(=O)Nc1ccc(O[C@H]2C=C[C@@H](c3ccccc3)OC2COCc2ccc(S([NH-])(=O)=O)cc2)cc1 (3D coordinates assigned)
CC(=O)Nc1ccc(O[C@H]2C=C[C@@H](c3ccccc3)OC2COCc2ccc(S([NH-])(=O)=O)cc2)cc1 (nonaromatic ring conformer: 79.61218515832121 kcal/mol)

>  <smiles>  (63) 
CC(=O)Nc1ccc(OC2C=CC(c3ccccc3)OC2COCc2ccc(S(N)(=O)=O)cc2)cc1

>  <score_type>  (63) 
oracle

>  <origin>  (63) 
adg

>  <m_score__min__energy>  (63) 
-14.4

>  <m_primary>  (63) 
energy

$$$$
63:0
     RDKit          3D

 78 83  0  0  1  0  0  0  0  0999 V2000
   55.8580   22.6900   42.6250 C   0  0  0  0  0  0  0  0  0  0  0  0
   56.3050   21.7190   43.5880 N   0  0  0  0  0  0  0  0  0  0  0  0
   55.7450   21.8650   44.8980 C   0  0  0  0  0  0  0  0  0  0  0  0
   56.4370   22.8070   45.8120 C   0  0  0  0  0  0  0  0  0  0  0  0
   57.6660   23.2710   45.1630 N   0  0  0  0  0  0  0  0  0  0  0  0
   58.0050   24.6470   45.0700 C   0  0  0  0  0  0  0  0  0  0  0  0
   58.9750   25.2150   45.9070 C   0  0  0  0  0  0  0  0  0  0  0  0
   64.1170   33.0740   49.9370 C   0  0  0  0  0  0  0  0  0  0  0  0
   64.5660   33.9980   50.8710 C   0  0  0  0  0  0  0  0  0  0  0  0
   65.7540   34.2180   51.3140 N   0  0  0  0  0  0  0  0  0  0  0  0
   59.6540   29.3250   45.6720 C   0  0  0  0  0  0  0  0  0  0  0  0
   60.8430   29.0030   45.9370 O   0  0  0  0  0  0  0  0  0  0  0  0
   59.1430   30.4700   46.3470 N   0  0  0  0  0  0  0  0  0  0  0  0
   60.0590   31.1050   47.2540 C   0  0  0  0  0  0  0  0  0  0  0  0
   60.1770   30.7020   48.5790 C   0  0  0  0  0  0  0  0  0  0  0  0
   61.0730   31.3760   49.4210 C   0  0  0  0  0  0  0  0  0  0  0  0
   61.8380   32.4470   48.9170 C   0  0  0  0  0  0  0  0  0  0  0  0
   62.7630   33.1860   49.7600 C   0  0  0  0  0  0  0  0  0  0  0  0
   59.3220   26.5490   45.8190 C   0  0  0  0  0  0  0  0  0  0  0  0
   58.6660   27.3010   44.8630 C   0  0  0  0  0  0  0  0  0  0  0  0
   58.9490   28.5390   44.7530 N   0  0  0  0  0  0  0  0  0  0  0  0
   66.3570   33.4550   52.3440 C   0  0  0  0  0  0  0  0  0  0  0  0
   66.7380   33.8840   53.4500 O   0  0  0  0  0  0  0  0  0  0  0  0
   66.5800   32.0030   52.1310 C   0  0  0  0  0  0  0  0  0  0  0  0
   65.5610   31.1460   51.8110 C   0  0  0  0  0  0  0  0  0  0  0  0
   65.8910   29.8220   51.6200 C   0  0  0  0  0  0  0  0  0  0  0  0
   67.1680   29.3250   51.7330 C   0  0  0  0  0  0  0  0  0  0  0  0
   67.5150   27.9710   51.5170 N   0  0  0  0  0  0  0  0  0  0  0  0
   68.8530   27.5220   51.1650 C   0  0  0  0  0  0  0  0  0  0  0  0
   68.7770   26.8880   49.8160 C   0  0  0  0  0  0  0  0  0  0  0  0
   67.4680   26.7070   49.4140 O   0  0  0  0  0  0  0  0  0  0  0  0
   66.6650   26.0690   50.3540 C   0  0  0  0  0  0  0  0  0  0  0  0
   66.5130   26.8840   51.6160 C   0  0  0  0  0  0  0  0  0  0  0  0
   68.1630   30.2220   52.0570 C   0  0  0  0  0  0  0  0  0  0  0  0
   67.9080   31.5820   52.2670 C   0  0  0  0  0  0  0  0  0  0  0  0
   63.4510   34.6590   51.2420 N   0  0  0  0  0  0  0  0  0  0  0  0
   62.3870   34.1920   50.5980 N   0  0  0  0  0  0  0  0  0  0  0  0
   61.6650   32.7820   47.5960 C   0  0  0  0  0  0  0  0  0  0  0  0
   60.7930   32.1400   46.7450 C   0  0  0  0  0  0  0  0  0  0  0  0
   57.7290   26.8010   44.0360 N   0  0  0  0  0  0  0  0  0  0  0  0
   57.4330   25.5040   44.1660 C   0  0  0  0  0  0  0  0  0  0  0  0
   58.5060   22.2120   44.6040 C   0  0  0  0  0  0  0  0  0  0  0  0
   57.7030   21.4670   43.5580 C   0  0  0  0  0  0  0  0  0  0  0  0
   55.4538   23.5680   43.1501 H   0  0  0  0  0  0  0  0  0  0  0  0
   56.7051   22.9978   41.9943 H   0  0  0  0  0  0  0  0  0  0  0  0
   55.0734   22.2466   41.9943 H   0  0  0  0  0  0  0  0  0  0  0  0
   54.7081   22.2132   44.7814 H   0  0  0  0  0  0  0  0  0  0  0  0
   55.8442   20.8760   45.3692 H   0  0  0  0  0  0  0  0  0  0  0  0
   55.7829   23.6657   46.0237 H   0  0  0  0  0  0  0  0  0  0  0  0
   56.6798   22.3019   46.7585 H   0  0  0  0  0  0  0  0  0  0  0  0
   59.4738   24.5809   46.6547 H   0  0  0  0  0  0  0  0  0  0  0  0
   64.7595   32.3519   49.4118 H   0  0  0  0  0  0  0  0  0  0  0  0
   58.1740   30.8000   46.1830 H   0  0  0  0  0  0  0  0  0  0  0  0
   59.5751   29.8649   48.9622 H   0  0  0  0  0  0  0  0  0  0  0  0
   61.1786   31.0696   50.4722 H   0  0  0  0  0  0  0  0  0  0  0  0
   60.0836   26.9914   46.4780 H   0  0  0  0  0  0  0  0  0  0  0  0
   64.5241   31.4993   51.7108 H   0  0  0  0  0  0  0  0  0  0  0  0
   65.0843   29.1203   51.3615 H   0  0  0  0  0  0  0  0  0  0  0  0
   69.5413   28.3796   51.1379 H   0  0  0  0  0  0  0  0  0  0  0  0
   69.2269   26.8030   51.9088 H   0  0  0  0  0  0  0  0  0  0  0  0
   69.2882   27.5349   49.0879 H   0  0  0  0  0  0  0  0  0  0  0  0
   69.2604   25.9014   49.8710 H   0  0  0  0  0  0  0  0  0  0  0  0
   65.6695   25.9033   49.9164 H   0  0  0  0  0  0  0  0  0  0  0  0
   67.1464   25.1166   50.6210 H   0  0  0  0  0  0  0  0  0  0  0  0
   65.4981   27.3032   51.6815 H   0  0  0  0  0  0  0  0  0  0  0  0
   66.6685   26.2704   52.5157 H   0  0  0  0  0  0  0  0  0  0  0  0
   69.1956   29.8555   52.1541 H   0  0  0  0  0  0  0  0  0  0  0  0
   68.7123   32.2861   52.5264 H   0  0  0  0  0  0  0  0  0  0  0  0
   63.3450   35.4420   51.9400 H   0  0  0  0  0  0  0  0  0  0  0  0
   61.3930   34.5570   50.7220 H   0  0  0  0  0  0  0  0  0  0  0  0
   62.2599   33.6148   47.1929 H   0  0  0  0  0  0  0  0  0  0  0  0
   60.6908   32.4487   45.6942 H   0  0  0  0  0  0  0  0  0  0  0  0
   57.2720   27.4400   43.3300 H   0  0  0  0  0  0  0  0  0  0  0  0
   56.6678   25.0906   43.4925 H   0  0  0  0  0  0  0  0  0  0  0  0
   59.4009   22.6532   44.1408 H   0  0  0  0  0  0  0  0  0  0  0  0
   58.8232   21.5216   45.3995 H   0  0  0  0  0  0  0  0  0  0  0  0
   58.0814   21.7559   42.5664 H   0  0  0  0  0  0  0  0  0  0  0  0
   57.8290   20.3962   43.7760 H   0  0  0  0  0  0  0  0  0  0  0  0
  1  2  1  0
  2  3  1  0
  3  4  1  0
  4  5  1  0
  5  6  1  0
  6  7  1  0
  7  8  2  0
  8  9  1  0
  9 10  2  0
 10 11  1  0
 11 12  2  0
 11 13  1  0
 13 14  1  0
 14 15  2  0
 15 16  1  0
 16 17  2  0
 17 18  1  0
 18 19  2  0
 19 20  1  0
 20 21  2  0
 21 22  1  0
 22 23  2  0
 22 24  1  0
 24 25  2  0
 25 26  1  0
 26 27  2  0
 27 28  1  0
 28 29  1  0
 29 30  1  0
 30 31  1  0
 31 32  1  0
 32 33  1  0
 27 34  1  0
 34 35  2  0
 20 36  1  0
 36 37  1  0
 17 38  1  0
 38 39  2  0
  9 40  1  0
 40 41  1  0
  5 42  1  0
 42 43  1  0
 43  2  1  0
 41  6  2  0
 39 14  1  0
 37 18  1  0
 35 24  1  0
 33 28  1  0
  1 44  1  0
  1 45  1  0
  1 46  1  0
  3 47  1  0
  3 48  1  0
  4 49  1  0
  4 50  1  0
  7 51  1  0
  8 52  1  0
 13 53  1  0
 15 54  1  0
 16 55  1  0
 19 56  1  0
 25 57  1  0
 26 58  1  0
 29 59  1  0
 29 60  1  0
 30 61  1  0
 30 62  1  0
 32 63  1  0
 32 64  1  0
 33 65  1  0
 33 66  1  0
 34 67  1  0
 35 68  1  0
 36 69  1  0
 37 70  1  0
 38 71  1  0
 39 72  1  0
 40 73  1  0
 41 74  1  0
 42 75  1  0
 42 76  1  0
 43 77  1  0
 43 78  1  0
M  END
>  <smiles>  (64) 
CN1CCN(c2ccc(=NC(=O)Nc3ccc(-c4cc(=NC(=O)c5ccc(N6CCOCC6)cc5)[nH][nH]4)cc3)[nH]c2)CC1

>  <score_type>  (64) 
oracle

>  <origin>  (64) 
adg

>  <m_score__min__energy>  (64) 
-9.5899999999999999

>  <m_primary>  (64) 
energy

$$$$
64:0
     RDKit          3D

 34 35  0  0  0  0  0  0  0  0999 V2000
   56.7490   21.5610   42.9950 C   0  0  0  0  0  0  0  0  0  0  0  0
   55.8900   22.0890   43.9990 O   0  0  0  0  0  0  0  0  0  0  0  0
   56.1500   23.2570   44.7340 C   0  0  0  0  0  0  0  0  0  0  0  0
   55.1590   24.2250   44.9830 C   0  0  0  0  0  0  0  0  0  0  0  0
   55.4590   25.3740   45.7210 C   0  0  0  0  0  0  0  0  0  0  0  0
   54.4590   26.3140   45.9460 O   0  0  0  0  0  0  0  0  0  0  0  0
   56.7600   25.5750   46.2240 C   0  0  0  0  0  0  0  0  0  0  0  0
   57.0950   26.7910   47.0520 C   0  0  0  0  0  0  0  0  0  0  0  0
   57.7900   27.8370   46.2110 C   0  0  0  0  0  0  0  0  0  0  0  0
   59.1850   27.9720   46.2860 C   0  0  0  0  0  0  0  0  0  0  0  0
   59.8480   28.9100   45.4950 C   0  0  0  0  0  0  0  0  0  0  0  0
   59.1300   29.7220   44.6180 C   0  0  0  0  0  0  0  0  0  0  0  0
   57.7300   29.6050   44.5240 C   0  0  0  0  0  0  0  0  0  0  0  0
   56.9770   30.4080   43.6510 O   0  0  0  0  0  0  0  0  0  0  0  0
   56.1920   29.9120   42.5710 C   0  0  0  0  0  0  0  0  0  0  0  0
   57.0610   28.6580   45.3240 C   0  0  0  0  0  0  0  0  0  0  0  0
   55.6730   28.5280   45.2490 O   0  0  0  0  0  0  0  0  0  0  0  0
   57.7440   24.6060   45.9740 C   0  0  0  0  0  0  0  0  0  0  0  0
   57.4420   23.4580   45.2350 C   0  0  0  0  0  0  0  0  0  0  0  0
   58.4340   22.5140   45.0000 O   0  0  0  0  0  0  0  0  0  0  0  0
   57.5938   21.0418   43.4712 H   0  0  0  0  0  0  0  0  0  0  0  0
   56.1883   20.8514   42.3688 H   0  0  0  0  0  0  0  0  0  0  0  0
   57.1290   22.3817   42.3688 H   0  0  0  0  0  0  0  0  0  0  0  0
   54.1408   24.0764   44.5941 H   0  0  0  0  0  0  0  0  0  0  0  0
   56.1665   27.2157   47.4614 H   0  0  0  0  0  0  0  0  0  0  0  0
   57.7690   26.4884   47.8669 H   0  0  0  0  0  0  0  0  0  0  0  0
   59.7594   27.3336   46.9734 H   0  0  0  0  0  0  0  0  0  0  0  0
   60.9414   29.0096   45.5633 H   0  0  0  0  0  0  0  0  0  0  0  0
   59.6603   30.4582   43.9960 H   0  0  0  0  0  0  0  0  0  0  0  0
   55.3251   29.3643   42.9691 H   0  0  0  0  0  0  0  0  0  0  0  0
   55.8426   30.7536   41.9549 H   0  0  0  0  0  0  0  0  0  0  0  0
   56.8021   29.2351   41.9549 H   0  0  0  0  0  0  0  0  0  0  0  0
   55.1450   27.9470   45.8880 H   0  0  0  0  0  0  0  0  0  0  0  0
   58.7626   24.7510   46.3631 H   0  0  0  0  0  0  0  0  0  0  0  0
  1  2  1  0
  2  3  1  0
  3  4  2  0
  4  5  1  0
  5  6  1  0
  5  7  2  0
  7  8  1  0
  8  9  1  0
  9 10  2  0
 10 11  1  0
 11 12  2  0
 12 13  1  0
 13 14  1  0
 14 15  1  0
 13 16  2  0
 16 17  1  0
  7 18  1  0
 18 19  2  0
 19 20  1  0
 19  3  1  0
 16  9  1  0
  1 21  1  0
  1 22  1  0
  1 23  1  0
  4 24  1  0
  8 25  1  0
  8 26  1  0
 10 27  1  0
 11 28  1  0
 12 29  1  0
 15 30  1  0
 15 31  1  0
 15 32  1  0
 17 33  1  0
 18 34  1  0
M  CHG  2   6  -1  20  -1
M  END
>  <UniqueID>  (65) 
58

>  <SMILES>  (65) 
COc1cc([O-])c(Cc2cccc(OC)c2O)cc1[O-]

>  <Energy>  (65) 
34.05930584526648

>  <Genealogy>  (65) 
COc1cc([O-])c(Cc2cccc(OC)c2O)cc1[O-] (protonated)
COc1cc([O-])c(Cc2cccc(OC)c2O)cc1[O-] (3D coordinates assigned)
COc1cc([O-])c(Cc2cccc(OC)c2O)cc1[O-] (optimized conformer: 34.05930584526648 kcal/mol)

>  <smiles>  (65) 
COc1cc(O)c(Cc2cccc(OC)c2O)cc1O

>  <score_type>  (65) 
oracle

>  <origin>  (65) 
adg

>  <m_score__min__energy>  (65) 
-12.1

>  <m_primary>  (65) 
energy

$$$$
65:0
     RDKit          3D

 80 83  0  0  0  0  0  0  0  0999 V2000
   64.5760   31.7710   50.7270 C   0  0  0  0  0  0  0  0  0  0  0  0
   63.3730   32.6490   50.5750 C   0  0  0  0  0  0  0  0  0  0  0  0
   63.1910   33.5940   51.3890 O   0  0  0  0  0  0  0  0  0  0  0  0
   62.4240   32.4190   49.5130 N   0  0  0  0  0  0  0  0  0  0  0  0
   61.4050   31.4130   49.7000 C   0  0  0  0  0  0  0  0  0  0  0  0
   61.4750   30.6370   50.6910 O   0  0  0  0  0  0  0  0  0  0  0  0
   60.2740   31.2980   48.7260 C   0  0  0  0  0  0  0  0  0  0  0  0
   58.8970   30.7430   49.1280 C   0  0  1  0  0  0  0  0  0  0  0  0
   58.8770   29.2950   49.6630 C   0  0  0  0  0  0  0  0  0  0  0  0
   59.2050   28.2890   48.5840 C   0  0  0  0  0  0  0  0  0  0  0  0
   60.4740   27.6880   48.5380 C   0  0  0  0  0  0  0  0  0  0  0  0
   60.7620   26.7140   47.5800 C   0  0  0  0  0  0  0  0  0  0  0  0
   59.7800   26.3290   46.6500 C   0  0  0  0  0  0  0  0  0  0  0  0
   60.0250   25.3030   45.6760 N   0  0  0  0  0  0  0  0  0  0  0  0
   59.3680   24.0290   45.6220 C   0  0  0  0  0  0  0  0  0  0  0  0
   60.0510   22.9690   45.5590 O   0  0  0  0  0  0  0  0  0  0  0  0
   57.8910   23.9470   45.7270 C   0  0  0  0  0  0  0  0  0  0  0  0
   57.0700   24.5110   44.7360 C   0  0  0  0  0  0  0  0  0  0  0  0
   55.6800   24.4640   44.8620 C   0  0  0  0  0  0  0  0  0  0  0  0
   55.0920   23.8630   45.9780 C   0  0  0  0  0  0  0  0  0  0  0  0
   55.8840   23.2930   46.9980 C   0  0  0  0  0  0  0  0  0  0  0  0
   55.2750   22.6980   48.1810 N   0  0  0  0  0  0  0  0  0  0  0  0
   53.8100   22.5950   48.3000 C   0  0  0  0  0  0  0  0  0  0  0  0
   56.1080   22.1730   49.2750 C   0  0  0  0  0  0  0  0  0  0  0  0
   57.2910   23.3320   46.8430 C   0  0  0  0  0  0  0  0  0  0  0  0
   58.5370   26.9730   46.6560 C   0  0  0  0  0  0  0  0  0  0  0  0
   58.2450   27.9360   47.6230 C   0  0  0  0  0  0  0  0  0  0  0  0
   58.2570   31.6580   50.0780 N   0  0  0  0  0  0  0  0  0  0  0  0
   57.7870   31.3010   51.3860 C   0  0  0  0  0  0  0  0  0  0  0  0
   56.7350   30.6210   51.5300 O   0  0  0  0  0  0  0  0  0  0  0  0
   58.5130   31.7960   52.5990 C   0  0  0  0  0  0  0  0  0  0  0  0
   59.9160   32.0530   52.2900 N   0  0  0  0  0  0  0  0  0  0  0  0
   60.4300   31.8920   47.5160 C   0  0  0  0  0  0  0  0  0  0  0  0
   59.3520   31.8940   46.5020 C   0  0  0  0  0  0  0  0  0  0  0  0
   58.7040   33.0920   46.1720 C   0  0  0  0  0  0  0  0  0  0  0  0
   57.6830   33.0960   45.2190 C   0  0  0  0  0  0  0  0  0  0  0  0
   57.3080   31.9060   44.5870 C   0  0  0  0  0  0  0  0  0  0  0  0
   57.9570   30.7080   44.9060 C   0  0  0  0  0  0  0  0  0  0  0  0
   57.4890   29.2100   44.1130 Cl  0  0  0  0  0  0  0  0  0  0  0  0
   58.9840   30.7040   45.8570 C   0  0  0  0  0  0  0  0  0  0  0  0
   61.7470   32.5420   47.1470 C   0  0  0  0  0  0  0  0  0  0  0  0
   62.6230   31.5360   46.7760 F   0  0  0  0  0  0  0  0  0  0  0  0
   61.5780   33.3910   46.0610 F   0  0  0  0  0  0  0  0  0  0  0  0
   62.3380   33.3310   48.3500 C   0  0  0  0  0  0  0  0  0  0  0  0
   63.7370   33.8630   47.9530 C   0  0  0  0  0  0  0  0  0  0  0  0
   61.4320   34.5310   48.7070 C   0  0  0  0  0  0  0  0  0  0  0  0
   64.7856   31.6180   51.7960 H   0  0  0  0  0  0  0  0  0  0  0  0
   64.3837   30.7994   50.2484 H   0  0  0  0  0  0  0  0  0  0  0  0
   65.4427   32.2504   50.2484 H   0  0  0  0  0  0  0  0  0  0  0  0
   58.3264   30.6828   48.1895 H   0  0  0  0  0  0  0  0  0  0  0  0
   59.6184   29.2043   50.4705 H   0  0  0  0  0  0  0  0  0  0  0  0
   57.8620   29.0818   50.0295 H   0  0  0  0  0  0  0  0  0  0  0  0
   61.2463   27.9870   49.2620 H   0  0  0  0  0  0  0  0  0  0  0  0
   61.7578   26.2475   47.5527 H   0  0  0  0  0  0  0  0  0  0  0  0
   57.5242   24.9917   43.8570 H   0  0  0  0  0  0  0  0  0  0  0  0
   55.0446   24.9025   44.0784 H   0  0  0  0  0  0  0  0  0  0  0  0
   53.9957   23.8336   46.0630 H   0  0  0  0  0  0  0  0  0  0  0  0
   53.5290   22.5752   49.3633 H   0  0  0  0  0  0  0  0  0  0  0  0
   53.3407   23.4624   47.8128 H   0  0  0  0  0  0  0  0  0  0  0  0
   53.4666   21.6705   47.8128 H   0  0  0  0  0  0  0  0  0  0  0  0
   55.6634   22.4532   50.2413 H   0  0  0  0  0  0  0  0  0  0  0  0
   56.1627   21.0769   49.2006 H   0  0  0  0  0  0  0  0  0  0  0  0
   57.1205   22.5965   49.2006 H   0  0  0  0  0  0  0  0  0  0  0  0
   57.9296   22.8717   47.6113 H   0  0  0  0  0  0  0  0  0  0  0  0
   57.7858   26.7184   45.8938 H   0  0  0  0  0  0  0  0  0  0  0  0
   57.2576   28.4207   47.6320 H   0  0  0  0  0  0  0  0  0  0  0  0
   58.0429   32.7279   52.9462 H   0  0  0  0  0  0  0  0  0  0  0  0
   58.4583   31.0265   53.3831 H   0  0  0  0  0  0  0  0  0  0  0  0
   60.0060   32.1680   51.2520 H   0  0  0  0  0  0  0  0  0  0  0  0
   60.4520   31.1880   52.5370 H   0  0  0  0  0  0  0  0  0  0  0  0
   58.9998   34.0302   46.6641 H   0  0  0  0  0  0  0  0  0  0  0  0
   57.1728   34.0369   44.9650 H   0  0  0  0  0  0  0  0  0  0  0  0
   56.5020   31.9118   43.8384 H   0  0  0  0  0  0  0  0  0  0  0  0
   59.5038   29.7653   46.0992 H   0  0  0  0  0  0  0  0  0  0  0  0
   64.3168   34.0835   48.8614 H   0  0  0  0  0  0  0  0  0  0  0  0
   64.2632   33.1022   47.3578 H   0  0  0  0  0  0  0  0  0  0  0  0
   63.6248   34.7812   47.3578 H   0  0  0  0  0  0  0  0  0  0  0  0
   61.3614   34.6245   49.8007 H   0  0  0  0  0  0  0  0  0  0  0  0
   61.8616   35.4525   48.2872 H   0  0  0  0  0  0  0  0  0  0  0  0
   60.4281   34.3701   48.2872 H   0  0  0  0  0  0  0  0  0  0  0  0
  1  2  1  0
  2  3  2  0
  2  4  1  0
  4  5  1  0
  5  6  2  0
  5  7  1  0
  7  8  1  0
  8  9  1  0
  9 10  1  0
 10 11  2  0
 11 12  1  0
 12 13  2  0
 13 14  1  0
 14 15  1  0
 15 16  2  0
 15 17  1  0
 17 18  2  0
 18 19  1  0
 19 20  2  0
 20 21  1  0
 21 22  1  0
 22 23  1  0
 22 24  1  0
 21 25  2  0
 13 26  1  0
 26 27  2  0
  8 28  1  0
 28 29  1  0
 29 30  2  0
 29 31  1  0
 31 32  1  0
  7 33  2  0
 33 34  1  0
 34 35  2  0
 35 36  1  0
 36 37  2  0
 37 38  1  0
 38 39  1  0
 38 40  2  0
 33 41  1  0
 41 42  1  0
 41 43  1  0
 41 44  1  0
 44 45  1  0
 44 46  1  0
 44  4  1  0
 27 10  1  0
 40 34  1  0
 25 17  1  0
  1 47  1  0
  1 48  1  0
  1 49  1  0
  8 50  1  6
  9 51  1  0
  9 52  1  0
 11 53  1  0
 12 54  1  0
 18 55  1  0
 19 56  1  0
 20 57  1  0
 23 58  1  0
 23 59  1  0
 23 60  1  0
 24 61  1  0
 24 62  1  0
 24 63  1  0
 25 64  1  0
 26 65  1  0
 27 66  1  0
 31 67  1  0
 31 68  1  0
 32 69  1  0
 32 70  1  0
 35 71  1  0
 36 72  1  0
 37 73  1  0
 40 74  1  0
 45 75  1  0
 45 76  1  0
 45 77  1  0
 46 78  1  0
 46 79  1  0
 46 80  1  0
M  CHG  2  14  -1  28  -1
M  END
>  <UniqueID>  (66) 
59

>  <SMILES>  (66) 
CC(=O)N1C(=O)C([C@@H](Cc2ccc([N-]C(=O)c3cccc(N(C)C)c3)cc2)[N-]C(=O)CN)=C(c2cccc(Cl)c2)C(F)(F)C1(C)C

>  <Energy>  (66) 
103.66506315530725

>  <Genealogy>  (66) 
CC(=O)N1C(=O)C(C(Cc2ccc([N-]C(=O)c3cccc(N(C)C)c3)cc2)[N-]C(=O)CN)=C(c2cccc(Cl)c2)C(F)(F)C1(C)C (protonated)
CC(=O)N1C(=O)C([C@@H](Cc2ccc([N-]C(=O)c3cccc(N(C)C)c3)cc2)[N-]C(=O)CN)=C(c2cccc(Cl)c2)C(F)(F)C1(C)C (chirality)
CC(=O)N1C(=O)C([C@@H](Cc2ccc([N-]C(=O)c3cccc(N(C)C)c3)cc2)[N-]C(=O)CN)=C(c2cccc(Cl)c2)C(F)(F)C1(C)C (3D coordinates assigned)
CC(=O)N1C(=O)C([C@@H](Cc2ccc([N-]C(=O)c3cccc(N(C)C)c3)cc2)[N-]C(=O)CN)=C(c2cccc(Cl)c2)C(F)(F)C1(C)C (nonaromatic ring conformer: 103.66506315530725 kcal/mol)

>  <smiles>  (66) 
CC(=O)N1C(=O)C(C(Cc2ccc(NC(=O)c3cccc(N(C)C)c3)cc2)NC(=O)CN)=C(c2cccc(Cl)c2)C(F)(F)C1(C)C

>  <score_type>  (66) 
oracle

>  <origin>  (66) 
adg

>  <m_score__min__energy>  (66) 
-12.279999999999999

>  <m_primary>  (66) 
energy

$$$$
66:0
     RDKit          3D

 41 44  0  0  1  0  0  0  0  0999 V2000
   57.7200   28.6930   43.8410 N   0  0  0  0  0  0  0  0  0  0  0  0
   56.7840   30.1350   44.0180 S   0  0  0  0  0  0  0  0  0  0  0  0
   55.5930   29.7630   44.8770 O   0  0  0  0  0  0  0  0  0  0  0  0
   56.2880   30.5440   42.6770 O   0  0  0  0  0  0  0  0  0  0  0  0
   57.7350   31.3840   44.7970 C   0  0  0  0  0  0  0  0  0  0  0  0
   57.5410   32.7260   44.5200 C   0  0  0  0  0  0  0  0  0  0  0  0
   58.2930   33.7230   45.1360 C   0  0  0  0  0  0  0  0  0  0  0  0
   59.2560   33.3450   46.0480 C   0  0  0  0  0  0  0  0  0  0  0  0
   60.0800   34.2970   46.7330 N   0  0  0  0  0  0  0  0  0  0  0  0
   61.2360   34.0160   47.2020 C   0  0  0  0  0  0  0  0  0  0  0  0
   62.1980   33.6110   46.3520 N   0  0  0  0  0  0  0  0  0  0  0  0
   63.4100   33.3140   46.8310 C   0  0  0  0  0  0  0  0  0  0  0  0
   63.6960   33.4120   48.1500 N   0  0  0  0  0  0  0  0  0  0  0  0
   62.7510   33.8190   49.0450 C   0  0  0  0  0  0  0  0  0  0  0  0
   61.4920   34.1300   48.5720 C   0  0  0  0  0  0  0  0  0  0  0  0
   60.4410   34.5690   49.4650 N   0  0  0  0  0  0  0  0  0  0  0  0
   59.7420   33.7410   50.0930 C   0  0  0  0  0  0  0  0  0  0  0  0
   58.9280   33.8250   51.1630 N   0  0  0  0  0  0  0  0  0  0  0  0
   58.3120   32.7890   51.6180 C   0  0  0  0  0  0  0  0  0  0  0  0
   57.4280   32.7320   52.7320 C   0  0  0  0  0  0  0  0  0  0  0  0
   56.8440   31.5510   53.1010 C   0  0  0  0  0  0  0  0  0  0  0  0
   57.0500   30.3590   52.4510 C   0  0  0  0  0  0  0  0  0  0  0  0
   57.9050   30.3910   51.3650 C   0  0  0  0  0  0  0  0  0  0  0  0
   58.4700   31.5520   51.0160 C   0  0  0  0  0  0  0  0  0  0  0  0
   59.6480   31.9240   49.6260 S   0  0  0  0  0  0  0  0  0  0  0  0
   59.4800   31.9990   46.3510 C   0  0  0  0  0  0  0  0  0  0  0  0
   58.7110   31.0240   45.7190 C   0  0  0  0  0  0  0  0  0  0  0  0
   57.0780   27.8950   43.7120 H   0  0  0  0  0  0  0  0  0  0  0  0
   58.4450   28.8120   43.1170 H   0  0  0  0  0  0  0  0  0  0  0  0
   56.7692   33.0138   43.7910 H   0  0  0  0  0  0  0  0  0  0  0  0
   58.1234   34.7842   44.9014 H   0  0  0  0  0  0  0  0  0  0  0  0
   62.0370   33.5150   45.3200 H   0  0  0  0  0  0  0  0  0  0  0  0
   64.1947   32.9815   46.1355 H   0  0  0  0  0  0  0  0  0  0  0  0
   62.9860   33.8975   50.1167 H   0  0  0  0  0  0  0  0  0  0  0  0
   58.8340   34.8140   51.6030 H   0  0  0  0  0  0  0  0  0  0  0  0
   57.2120   33.6474   53.3025 H   0  0  0  0  0  0  0  0  0  0  0  0
   56.1695   31.5567   53.9699 H   0  0  0  0  0  0  0  0  0  0  0  0
   56.5612   29.4290   52.7768 H   0  0  0  0  0  0  0  0  0  0  0  0
   58.1177   29.4741   50.7957 H   0  0  0  0  0  0  0  0  0  0  0  0
   60.2534   31.7131   47.0790 H   0  0  0  0  0  0  0  0  0  0  0  0
   58.8774   29.9618   45.9513 H   0  0  0  0  0  0  0  0  0  0  0  0
  1  2  1  0
  2  3  2  0
  2  4  2  0
  2  5  1  0
  5  6  2  0
  6  7  1  0
  7  8  2  0
  8  9  1  0
  9 10  2  0
 10 11  1  0
 11 12  1  0
 12 13  2  0
 13 14  1  0
 14 15  2  0
 15 16  1  0
 16 17  2  0
 17 18  1  0
 18 19  1  0
 19 20  2  0
 20 21  1  0
 21 22  2  0
 22 23  1  0
 23 24  2  0
 24 25  1  0
  8 26  1  0
 26 27  2  0
 27  5  1  0
 15 10  1  0
 25 17  1  0
 24 19  1  0
  1 28  1  0
  1 29  1  0
  6 30  1  0
  7 31  1  0
 11 32  1  0
 12 33  1  0
 14 34  1  0
 18 35  1  0
 20 36  1  0
 21 37  1  0
 22 38  1  0
 23 39  1  0
 26 40  1  0
 27 41  1  0
M  END
>  <smiles>  (67) 
NS(=O)(=O)c1ccc(N=c2[nH]cncc2N=c2[nH]c3ccccc3s2)cc1

>  <score_type>  (67) 
oracle

>  <origin>  (67) 
adg

>  <m_score__min__energy>  (67) 
-9.3800000000000008

>  <m_primary>  (67) 
energy

$$$$
67:0
     RDKit          3D

 34 35  0  0  0  0  0  0  0  0999 V2000
   65.8750   33.4300   50.4130 C   0  0  0  0  0  0  0  0  0  0  0  0
   65.0660   32.8290   49.3600 N   0  0  0  0  0  0  0  0  0  0  0  0
   63.9760   31.9500   49.6520 C   0  0  0  0  0  0  0  0  0  0  0  0
   63.6680   31.7000   50.8490 O   0  0  0  0  0  0  0  0  0  0  0  0
   63.2290   31.4160   48.5960 O   0  0  0  0  0  0  0  0  0  0  0  0
   62.2610   32.1210   47.8660 C   0  0  0  0  0  0  0  0  0  0  0  0
   60.9210   31.7340   47.9700 C   0  0  0  0  0  0  0  0  0  0  0  0
   59.9720   32.3830   47.3030 O   0  0  0  0  0  0  0  0  0  0  0  0
   60.2310   33.4230   46.5130 C   0  0  0  0  0  0  0  0  0  0  0  0
   59.0970   34.1180   45.8210 C   0  0  0  0  0  0  0  0  0  0  0  0
   57.4920   33.4540   46.3880 S   0  0  0  0  0  0  0  0  0  0  0  0
   57.2790   32.3670   44.9810 C   0  0  0  0  0  0  0  0  0  0  0  0
   56.7160   31.1420   45.1460 N   0  0  0  0  0  0  0  0  0  0  0  0
   56.5770   30.2930   44.0940 C   0  0  0  0  0  0  0  0  0  0  0  0
   57.0160   30.6760   42.8270 C   0  0  0  0  0  0  0  0  0  0  0  0
   57.5800   31.9460   42.6710 C   0  0  0  0  0  0  0  0  0  0  0  0
   58.1060   32.3880   41.3440 C   0  0  0  0  0  0  0  0  0  0  0  0
   57.7040   32.7620   43.7530 N   0  0  0  0  0  0  0  0  0  0  0  0
   61.5480   33.8810   46.3680 C   0  0  0  0  0  0  0  0  0  0  0  0
   62.5700   33.2360   47.0660 C   0  0  0  0  0  0  0  0  0  0  0  0
   63.7470   33.6790   46.9960 O   0  0  0  0  0  0  0  0  0  0  0  0
   65.4771   33.1344   51.3950 H   0  0  0  0  0  0  0  0  0  0  0  0
   66.9148   33.0836   50.3194 H   0  0  0  0  0  0  0  0  0  0  0  0
   65.8436   34.5256   50.3194 H   0  0  0  0  0  0  0  0  0  0  0  0
   65.2910   33.0400   48.3620 H   0  0  0  0  0  0  0  0  0  0  0  0
   60.6493   30.8826   48.6113 H   0  0  0  0  0  0  0  0  0  0  0  0
   59.1422   35.1940   46.0448 H   0  0  0  0  0  0  0  0  0  0  0  0
   59.1869   33.9500   44.7376 H   0  0  0  0  0  0  0  0  0  0  0  0
   56.1184   29.3041   44.2418 H   0  0  0  0  0  0  0  0  0  0  0  0
   56.9207   29.9941   41.9692 H   0  0  0  0  0  0  0  0  0  0  0  0
   58.9401   33.0889   41.4952 H   0  0  0  0  0  0  0  0  0  0  0  0
   58.4603   31.5126   40.7800 H   0  0  0  0  0  0  0  0  0  0  0  0
   57.3047   32.8878   40.7800 H   0  0  0  0  0  0  0  0  0  0  0  0
   61.7726   34.7362   45.7137 H   0  0  0  0  0  0  0  0  0  0  0  0
  1  2  1  0
  2  3  1  0
  3  4  2  0
  3  5  1  0
  5  6  1  0
  6  7  2  0
  7  8  1  0
  8  9  1  0
  9 10  1  0
 10 11  1  0
 11 12  1  0
 12 13  2  0
 13 14  1  0
 14 15  2  0
 15 16  1  0
 16 17  1  0
 16 18  2  0
  9 19  2  0
 19 20  1  0
 20 21  2  0
 20  6  1  0
 18 12  1  0
  1 22  1  0
  1 23  1  0
  1 24  1  0
  2 25  1  0
  7 26  1  0
 10 27  1  0
 10 28  1  0
 14 29  1  0
 15 30  1  0
 17 31  1  0
 17 32  1  0
 17 33  1  0
 19 34  1  0
M  END
>  <UniqueID>  (68) 
60

>  <SMILES>  (68) 
CNC(=O)Oc1coc(CSc2nccc(C)n2)cc1=O

>  <Energy>  (68) 
32.859431851208164

>  <Genealogy>  (68) 
CNC(=O)Oc1coc(CSc2nccc(C)n2)cc1=O (3D coordinates assigned)
CNC(=O)Oc1coc(CSc2nccc(C)n2)cc1=O (optimized conformer: 32.859431851208164 kcal/mol)

>  <smiles>  (68) 
CNC(=O)Oc1coc(CSc2nccc(C)n2)cc1=O

>  <score_type>  (68) 
oracle

>  <origin>  (68) 
adg

>  <m_score__min__energy>  (68) 
-7.0899999999999999

>  <m_primary>  (68) 
energy

$$$$
68:0
     RDKit          3D

 62 67  0  0  0  0  0  0  0  0999 V2000
   55.1990   28.9960   44.3220 O   0  0  0  0  0  0  0  0  0  0  0  0
   56.2800   29.6870   44.8580 C   0  0  0  0  0  0  0  0  0  0  0  0
   56.4100   31.0650   44.8450 C   0  0  0  0  0  0  0  0  0  0  0  0
   57.6280   31.3190   45.4510 C   0  0  0  0  0  0  0  0  0  0  0  0
   58.1530   32.6120   45.7890 N   0  0  0  0  0  0  0  0  0  0  0  0
   59.4800   33.0190   45.2970 C   0  0  0  0  0  0  0  0  0  0  0  0
   60.0780   34.1240   46.1780 C   0  0  0  0  0  0  0  0  0  0  0  0
   59.7930   33.8360   47.5910 N   0  0  0  0  0  0  0  0  0  0  0  0
   60.8730   33.7280   48.5340 C   0  0  0  0  0  0  0  0  0  0  0  0
   60.6500   33.9720   49.8990 C   0  0  0  0  0  0  0  0  0  0  0  0
   61.7040   33.8950   50.8160 C   0  0  0  0  0  0  0  0  0  0  0  0
   62.9920   33.5680   50.3760 C   0  0  0  0  0  0  0  0  0  0  0  0
   64.0220   33.4920   51.2600 N   0  0  0  0  0  0  0  0  0  0  0  0
   65.2890   33.1580   50.8770 C   0  0  0  0  0  0  0  0  0  0  0  0
   66.3480   33.1340   51.8550 N   0  0  0  0  0  0  0  0  0  0  0  0
   67.7160   33.5480   51.4850 C   0  0  0  0  0  0  0  0  0  0  0  0
   68.5800   33.9220   52.7110 C   0  0  0  0  0  0  0  0  0  0  0  0
   67.8260   34.0190   53.9020 O   0  0  0  0  0  0  0  0  0  0  0  0
   67.2070   32.7780   54.1570 C   0  0  0  0  0  0  0  0  0  0  0  0
   66.0510   32.5670   53.1790 C   0  0  0  0  0  0  0  0  0  0  0  0
   65.5530   32.9070   49.5180 C   0  0  0  0  0  0  0  0  0  0  0  0
   64.5160   32.9810   48.5870 C   0  0  0  0  0  0  0  0  0  0  0  0
   63.2210   33.3110   49.0080 C   0  0  0  0  0  0  0  0  0  0  0  0
   62.1650   33.3990   48.0930 C   0  0  0  0  0  0  0  0  0  0  0  0
   58.4070   33.5690   48.0190 C   0  0  0  0  0  0  0  0  0  0  0  0
   57.4760   33.4180   46.8120 C   0  0  0  0  0  0  0  0  0  0  0  0
   58.1610   30.1020   45.8350 C   0  0  0  0  0  0  0  0  0  0  0  0
   59.3280   29.9290   46.5860 O   0  0  0  0  0  0  0  0  0  0  0  0
   57.3420   29.0950   45.4570 N   0  0  0  0  0  0  0  0  0  0  0  0
   57.5370   27.6890   45.7100 C   0  0  0  0  0  0  0  0  0  0  0  0
   56.4340   26.8510   45.9450 C   0  0  0  0  0  0  0  0  0  0  0  0
   56.6200   25.4830   46.1720 C   0  0  0  0  0  0  0  0  0  0  0  0
   57.9070   24.9390   46.1650 C   0  0  0  0  0  0  0  0  0  0  0  0
   58.0870   23.6120   46.3840 F   0  0  0  0  0  0  0  0  0  0  0  0
   59.0110   25.7630   45.9350 C   0  0  0  0  0  0  0  0  0  0  0  0
   58.8300   27.1330   45.7070 C   0  0  0  0  0  0  0  0  0  0  0  0
   55.6985   31.7998   44.4402 H   0  0  0  0  0  0  0  0  0  0  0  0
   60.1508   32.1473   45.3085 H   0  0  0  0  0  0  0  0  0  0  0  0
   59.3704   33.4075   44.2737 H   0  0  0  0  0  0  0  0  0  0  0  0
   61.1665   34.1653   46.0251 H   0  0  0  0  0  0  0  0  0  0  0  0
   59.6310   35.0912   45.9048 H   0  0  0  0  0  0  0  0  0  0  0  0
   59.6388   34.2256   50.2499 H   0  0  0  0  0  0  0  0  0  0  0  0
   61.5205   34.0914   51.8827 H   0  0  0  0  0  0  0  0  0  0  0  0
   68.2026   32.7178   50.9521 H   0  0  0  0  0  0  0  0  0  0  0  0
   67.6316   34.4444   50.8530 H   0  0  0  0  0  0  0  0  0  0  0  0
   69.3522   33.1503   52.8456 H   0  0  0  0  0  0  0  0  0  0  0  0
   69.0213   34.9106   52.5165 H   0  0  0  0  0  0  0  0  0  0  0  0
   67.9430   31.9701   54.0326 H   0  0  0  0  0  0  0  0  0  0  0  0
   66.8190   32.7696   55.1863 H   0  0  0  0  0  0  0  0  0  0  0  0
   65.8675   31.4878   53.0716 H   0  0  0  0  0  0  0  0  0  0  0  0
   65.1644   33.0797   53.5804 H   0  0  0  0  0  0  0  0  0  0  0  0
   66.5722   32.6536   49.1908 H   0  0  0  0  0  0  0  0  0  0  0  0
   64.7151   32.7805   47.5239 H   0  0  0  0  0  0  0  0  0  0  0  0
   62.3480   33.2098   47.0250 H   0  0  0  0  0  0  0  0  0  0  0  0
   58.3855   32.6400   48.6076 H   0  0  0  0  0  0  0  0  0  0  0  0
   58.0587   34.4188   48.6245 H   0  0  0  0  0  0  0  0  0  0  0  0
   56.5471   32.9170   47.1222 H   0  0  0  0  0  0  0  0  0  0  0  0
   57.2302   34.4094   46.4038 H   0  0  0  0  0  0  0  0  0  0  0  0
   55.4182   27.2730   45.9505 H   0  0  0  0  0  0  0  0  0  0  0  0
   55.7510   24.8342   46.3564 H   0  0  0  0  0  0  0  0  0  0  0  0
   60.0244   25.3352   45.9329 H   0  0  0  0  0  0  0  0  0  0  0  0
   59.7026   27.7775   45.5247 H   0  0  0  0  0  0  0  0  0  0  0  0
  1  2  1  0
  2  3  2  0
  3  4  1  0
  4  5  1  0
  5  6  1  0
  6  7  1  0
  7  8  1  0
  8  9  1  0
  9 10  2  0
 10 11  1  0
 11 12  2  0
 12 13  1  0
 13 14  2  0
 14 15  1  0
 15 16  1  0
 16 17  1  0
 17 18  1  0
 18 19  1  0
 19 20  1  0
 14 21  1  0
 21 22  2  0
 22 23  1  0
 23 24  2  0
  8 25  1  0
 25 26  1  0
  4 27  2  0
 27 28  1  0
 27 29  1  0
 29 30  1  0
 30 31  2  0
 31 32  1  0
 32 33  2  0
 33 34  1  0
 33 35  1  0
 35 36  2  0
 29  2  1  0
 36 30  1  0
 26  5  1  0
 24  9  1  0
 23 12  1  0
 20 15  1  0
  3 37  1  0
  6 38  1  0
  6 39  1  0
  7 40  1  0
  7 41  1  0
 10 42  1  0
 11 43  1  0
 16 44  1  0
 16 45  1  0
 17 46  1  0
 17 47  1  0
 19 48  1  0
 19 49  1  0
 20 50  1  0
 20 51  1  0
 21 52  1  0
 22 53  1  0
 24 54  1  0
 25 55  1  0
 25 56  1  0
 26 57  1  0
 26 58  1  0
 31 59  1  0
 32 60  1  0
 35 61  1  0
 36 62  1  0
M  CHG  2   1  -1  28  -1
M  END
>  <UniqueID>  (69) 
61

>  <SMILES>  (69) 
[O-]c1cc(N2CCN(c3ccc4nc(N5CCOCC5)ccc4c3)CC2)c([O-])n1-c1ccc(F)cc1

>  <Energy>  (69) 
127.21450876146704

>  <Genealogy>  (69) 
[O-]c1cc(N2CCN(c3ccc4nc(N5CCOCC5)ccc4c3)CC2)c([O-])n1-c1ccc(F)cc1 (protonated)
[O-]c1cc(N2CCN(c3ccc4nc(N5CCOCC5)ccc4c3)CC2)c([O-])n1-c1ccc(F)cc1 (3D coordinates assigned)
[O-]c1cc(N2CCN(c3ccc4nc(N5CCOCC5)ccc4c3)CC2)c([O-])n1-c1ccc(F)cc1 (nonaromatic ring conformer: 127.21450876146704 kcal/mol)

>  <smiles>  (69) 
Oc1cc(N2CCN(c3ccc4nc(N5CCOCC5)ccc4c3)CC2)c(O)n1-c1ccc(F)cc1

>  <score_type>  (69) 
oracle

>  <origin>  (69) 
adg

>  <m_score__min__energy>  (69) 
-13.4

>  <m_primary>  (69) 
energy

$$$$
69:0
     RDKit          3D

 37 38  0  0  0  0  0  0  0  0999 V2000
   56.7970   23.7370   42.6490 N   0  0  0  0  0  0  0  0  0  0  0  0
   56.5840   22.5880   43.4690 C   0  0  0  0  0  0  0  0  0  0  0  0
   56.1750   21.5160   42.9490 O   0  0  0  0  0  0  0  0  0  0  0  0
   56.8010   22.6620   44.9500 C   0  0  0  0  0  0  0  0  0  0  0  0
   57.2630   24.0390   45.3380 C   0  0  0  0  0  0  0  0  0  0  0  0
   58.6090   24.2700   45.6600 C   0  0  0  0  0  0  0  0  0  0  0  0
   59.0470   25.5590   45.9690 C   0  0  0  0  0  0  0  0  0  0  0  0
   58.1470   26.6280   45.9600 C   0  0  0  0  0  0  0  0  0  0  0  0
   56.7970   26.4150   45.6510 C   0  0  0  0  0  0  0  0  0  0  0  0
   55.9130   27.5440   45.6230 N   0  0  0  0  0  0  0  0  0  0  0  0
   56.1080   28.7640   44.8970 C   0  0  0  0  0  0  0  0  0  0  0  0
   55.1200   29.4550   44.5340 O   0  0  0  0  0  0  0  0  0  0  0  0
   57.4280   29.2720   44.6730 N   0  0  0  0  0  0  0  0  0  0  0  0
   57.9680   30.4840   45.2160 C   0  0  0  0  0  0  0  0  0  0  0  0
   57.3530   31.7010   44.8930 C   0  0  0  0  0  0  0  0  0  0  0  0
   57.8650   32.9060   45.3870 C   0  0  0  0  0  0  0  0  0  0  0  0
   59.0100   32.9050   46.1900 C   0  0  0  0  0  0  0  0  0  0  0  0
   59.6600   34.4510   46.8340 S   0  0  0  0  0  0  0  0  0  0  0  0
   59.7370   33.8870   48.5660 C   0  0  0  0  0  0  0  0  0  0  0  0
   60.9300   33.2290   48.8000 F   0  0  0  0  0  0  0  0  0  0  0  0
   59.6270   34.9660   49.4240 F   0  0  0  0  0  0  0  0  0  0  0  0
   58.6910   33.0160   48.8010 F   0  0  0  0  0  0  0  0  0  0  0  0
   59.6410   31.6960   46.5020 C   0  0  0  0  0  0  0  0  0  0  0  0
   59.1310   30.4900   46.0090 C   0  0  0  0  0  0  0  0  0  0  0  0
   56.3630   25.1190   45.3160 C   0  0  0  0  0  0  0  0  0  0  0  0
   56.6280   23.6880   41.6210 H   0  0  0  0  0  0  0  0  0  0  0  0
   57.1170   24.6380   43.0680 H   0  0  0  0  0  0  0  0  0  0  0  0
   55.8570   22.4361   45.4674 H   0  0  0  0  0  0  0  0  0  0  0  0
   57.5707   21.9305   45.2373 H   0  0  0  0  0  0  0  0  0  0  0  0
   59.3218   23.4322   45.6690 H   0  0  0  0  0  0  0  0  0  0  0  0
   60.1036   25.7337   46.2203 H   0  0  0  0  0  0  0  0  0  0  0  0
   58.5004   27.6424   46.1968 H   0  0  0  0  0  0  0  0  0  0  0  0
   56.4625   31.7092   44.2473 H   0  0  0  0  0  0  0  0  0  0  0  0
   57.3661   33.8556   45.1433 H   0  0  0  0  0  0  0  0  0  0  0  0
   60.5398   31.6935   47.1361 H   0  0  0  0  0  0  0  0  0  0  0  0
   59.6406   29.5434   46.2419 H   0  0  0  0  0  0  0  0  0  0  0  0
   55.3130   24.9498   45.0352 H   0  0  0  0  0  0  0  0  0  0  0  0
  1  2  1  0
  2  3  2  0
  2  4  1  0
  4  5  1  0
  5  6  2  0
  6  7  1  0
  7  8  2  0
  8  9  1  0
  9 10  1  0
 10 11  1  0
 11 12  2  0
 11 13  1  0
 13 14  1  0
 14 15  2  0
 15 16  1  0
 16 17  2  0
 17 18  1  0
 18 19  1  0
 19 20  1  0
 19 21  1  0
 19 22  1  0
 17 23  1  0
 23 24  2  0
  9 25  2  0
 25  5  1  0
 24 14  1  0
  1 26  1  0
  1 27  1  0
  4 28  1  0
  4 29  1  0
  6 30  1  0
  7 31  1  0
  8 32  1  0
 15 33  1  0
 16 34  1  0
 23 35  1  0
 24 36  1  0
 25 37  1  0
M  CHG  2  10  -1  13  -1
M  END
>  <UniqueID>  (70) 
62

>  <SMILES>  (70) 
NC(=O)Cc1cccc([N-]C(=O)[N-]c2ccc(SC(F)(F)F)cc2)c1

>  <Energy>  (70) 
36.79746573176231

>  <Genealogy>  (70) 
NC(=O)Cc1cccc([N-]C(=O)[N-]c2ccc(SC(F)(F)F)cc2)c1 (protonated)
NC(=O)Cc1cccc([N-]C(=O)[N-]c2ccc(SC(F)(F)F)cc2)c1 (3D coordinates assigned)
NC(=O)Cc1cccc([N-]C(=O)[N-]c2ccc(SC(F)(F)F)cc2)c1 (optimized conformer: 36.79746573176231 kcal/mol)

>  <smiles>  (70) 
NC(=O)Cc1cccc(NC(=O)Nc2ccc(SC(F)(F)F)cc2)c1

>  <score_type>  (70) 
oracle

>  <origin>  (70) 
adg

>  <m_score__min__energy>  (70) 
-10.550000000000001

>  <m_primary>  (70) 
energy

$$$$
70:0
     RDKit          3D

 60 64  0  0  0  0  0  0  0  0999 V2000
   58.7330   27.2950   43.7440 C   0  0  0  0  0  0  0  0  0  0  0  0
   58.2510   27.3570   45.2080 C   0  0  2  0  0  0  0  0  0  0  0  0
   59.1730   28.1410   46.1460 C   0  0  0  0  0  0  0  0  0  0  0  0
   60.1990   28.9350   45.5920 C   0  0  0  0  0  0  0  0  0  0  0  0
   61.0400   29.6950   46.4070 C   0  0  0  0  0  0  0  0  0  0  0  0
   60.8660   29.6950   47.7990 C   0  0  0  0  0  0  0  0  0  0  0  0
   61.6980   30.4430   48.6440 O   0  0  0  0  0  0  0  0  0  0  0  0
   62.4400   31.5680   48.2510 C   0  0  0  0  0  0  0  0  0  0  0  0
   62.0070   32.3090   47.1450 C   0  0  0  0  0  0  0  0  0  0  0  0
   62.7370   33.4170   46.7060 C   0  0  0  0  0  0  0  0  0  0  0  0
   63.9110   33.7890   47.3650 C   0  0  0  0  0  0  0  0  0  0  0  0
   64.3590   33.0480   48.4610 C   0  0  0  0  0  0  0  0  0  0  0  0
   63.6320   31.9390   48.9030 C   0  0  0  0  0  0  0  0  0  0  0  0
   59.8610   28.9050   48.3630 C   0  0  0  0  0  0  0  0  0  0  0  0
   59.0070   28.1540   47.5500 C   0  0  0  0  0  0  0  0  0  0  0  0
   58.2370   26.0170   45.6790 O   0  0  0  0  0  0  0  0  0  0  0  0
   56.6100   25.5890   45.9670 S   0  0  0  0  0  0  0  0  0  0  0  0
   56.5340   25.5410   47.4880 O   0  0  0  0  0  0  0  0  0  0  0  0
   55.9130   27.1150   45.5900 N   0  0  0  0  0  0  0  0  0  0  0  0
   56.8330   27.9390   45.2370 C   0  0  0  0  0  0  0  0  0  0  0  0
   56.4730   29.3000   44.9030 N   0  0  0  0  0  0  0  0  0  0  0  0
   55.1830   29.6790   45.0950 O   0  0  0  0  0  0  0  0  0  0  0  0
   57.3850   30.2570   44.2610 C   0  0  0  0  0  0  0  0  0  0  0  0
   57.8500   31.3090   45.2360 C   0  0  0  0  0  0  0  0  0  0  0  0
   57.9640   31.0050   46.6020 C   0  0  0  0  0  0  0  0  0  0  0  0
   58.4270   31.9680   47.5050 C   0  0  0  0  0  0  0  0  0  0  0  0
   58.8010   33.2440   47.0460 C   0  0  0  0  0  0  0  0  0  0  0  0
   59.2950   34.2260   47.9140 O   0  0  0  0  0  0  0  0  0  0  0  0
   59.9410   33.9820   49.1340 C   0  0  0  0  0  0  0  0  0  0  0  0
   61.2590   34.4140   49.3790 C   0  0  0  0  0  0  0  0  0  0  0  0
   61.8820   34.1150   50.5950 C   0  0  0  0  0  0  0  0  0  0  0  0
   61.2020   33.3800   51.5690 C   0  0  0  0  0  0  0  0  0  0  0  0
   59.8960   32.9420   51.3300 C   0  0  0  0  0  0  0  0  0  0  0  0
   59.2710   33.2370   50.1150 C   0  0  0  0  0  0  0  0  0  0  0  0
   58.7280   33.5310   45.6780 C   0  0  0  0  0  0  0  0  0  0  0  0
   58.2540   32.5720   44.7780 C   0  0  0  0  0  0  0  0  0  0  0  0
   59.8238   27.1547   43.7227 H   0  0  0  0  0  0  0  0  0  0  0  0
   58.2449   26.4522   43.2326 H   0  0  0  0  0  0  0  0  0  0  0  0
   58.4740   28.2339   43.2326 H   0  0  0  0  0  0  0  0  0  0  0  0
   60.3386   28.9556   44.5011 H   0  0  0  0  0  0  0  0  0  0  0  0
   61.8427   30.2965   45.9556 H   0  0  0  0  0  0  0  0  0  0  0  0
   61.0865   32.0173   46.6182 H   0  0  0  0  0  0  0  0  0  0  0  0
   62.3863   33.9972   45.8398 H   0  0  0  0  0  0  0  0  0  0  0  0
   64.4819   34.6642   47.0214 H   0  0  0  0  0  0  0  0  0  0  0  0
   65.2860   33.3378   48.9774 H   0  0  0  0  0  0  0  0  0  0  0  0
   63.9919   31.3544   49.7625 H   0  0  0  0  0  0  0  0  0  0  0  0
   59.7408   28.8737   49.4560 H   0  0  0  0  0  0  0  0  0  0  0  0
   58.1971   27.5668   48.0076 H   0  0  0  0  0  0  0  0  0  0  0  0
   54.7650   28.9340   45.6000 H   0  0  0  0  0  0  0  0  0  0  0  0
   58.2604   29.7141   43.8750 H   0  0  0  0  0  0  0  0  0  0  0  0
   56.8449   30.7561   43.4430 H   0  0  0  0  0  0  0  0  0  0  0  0
   57.6877   30.0038   46.9643 H   0  0  0  0  0  0  0  0  0  0  0  0
   58.4987   31.7269   48.5759 H   0  0  0  0  0  0  0  0  0  0  0  0
   61.7997   34.9880   48.6121 H   0  0  0  0  0  0  0  0  0  0  0  0
   62.9094   34.4593   50.7847 H   0  0  0  0  0  0  0  0  0  0  0  0
   61.6943   33.1457   52.5244 H   0  0  0  0  0  0  0  0  0  0  0  0
   59.3602   32.3651   52.0982 H   0  0  0  0  0  0  0  0  0  0  0  0
   58.2468   32.8824   49.9272 H   0  0  0  0  0  0  0  0  0  0  0  0
   59.0456   34.5173   45.3088 H   0  0  0  0  0  0  0  0  0  0  0  0
   58.1975   32.8089   43.7053 H   0  0  0  0  0  0  0  0  0  0  0  0
  2  1  1  6
  2  3  1  0
  3  4  2  0
  4  5  1  0
  5  6  2  0
  6  7  1  0
  7  8  1  0
  8  9  2  0
  9 10  1  0
 10 11  2  0
 11 12  1  0
 12 13  2  0
  6 14  1  0
 14 15  2  0
  2 16  1  0
 17 16  1  1
 17 18  2  0
 17 19  1  0
 19 20  2  0
 20 21  1  0
 21 22  1  0
 21 23  1  0
 23 24  1  0
 24 25  2  0
 25 26  1  0
 26 27  2  0
 27 28  1  0
 28 29  1  0
 29 30  2  0
 30 31  1  0
 31 32  2  0
 32 33  1  0
 33 34  2  0
 27 35  1  0
 35 36  2  0
 20  2  1  0
 36 24  1  0
 15  3  1  0
 34 29  1  0
 13  8  1  0
  1 37  1  0
  1 38  1  0
  1 39  1  0
  4 40  1  0
  5 41  1  0
  9 42  1  0
 10 43  1  0
 11 44  1  0
 12 45  1  0
 13 46  1  0
 14 47  1  0
 15 48  1  0
 22 49  1  0
 23 50  1  0
 23 51  1  0
 25 52  1  0
 26 53  1  0
 30 54  1  0
 31 55  1  0
 32 56  1  0
 33 57  1  0
 34 58  1  0
 35 59  1  0
 36 60  1  0
M  END
>  <UniqueID>  (71) 
63

>  <SMILES>  (71) 
C[C@]1(c2ccc(Oc3ccccc3)cc2)O[S@@](=O)N=C1N(O)Cc1ccc(Oc2ccccc2)cc1

>  <Energy>  (71) 
91.41699456687338

>  <Genealogy>  (71) 
C[C@]1(c2ccc(Oc3ccccc3)cc2)O[S@@](=O)N=C1N(O)Cc1ccc(Oc2ccccc2)cc1 (chirality)
C[C@]1(c2ccc(Oc3ccccc3)cc2)O[S@@](=O)N=C1N(O)Cc1ccc(Oc2ccccc2)cc1 (3D coordinates assigned)
C[C@]1(c2ccc(Oc3ccccc3)cc2)O[S@@](=O)N=C1N(O)Cc1ccc(Oc2ccccc2)cc1 (nonaromatic ring conformer: 91.41699456687338 kcal/mol)

>  <smiles>  (71) 
CC1(c2ccc(Oc3ccccc3)cc2)OS(=O)N=C1N(O)Cc1ccc(Oc2ccccc2)cc1

>  <score_type>  (71) 
oracle

>  <origin>  (71) 
adg

>  <m_score__min__energy>  (71) 
-10.09

>  <m_primary>  (71) 
energy

$$$$
71:0
     RDKit          3D

 41 43  0  0  0  0  0  0  0  0999 V2000
   55.5090   29.2460   45.1740 O   0  0  0  0  0  0  0  0  0  0  0  0
   56.6910   28.8580   44.8750 C   0  0  0  0  0  0  0  0  0  0  0  0
   57.2340   29.5180   43.7460 N   0  0  0  0  0  0  0  0  0  0  0  0
   56.5110   30.5440   42.9930 C   0  0  0  0  0  0  0  0  0  0  0  0
   57.4850   31.5940   42.5450 C   0  0  0  0  0  0  0  0  0  0  0  0
   58.7530   31.2730   43.0380 F   0  0  0  0  0  0  0  0  0  0  0  0
   57.3780   27.8300   45.6450 C   0  0  0  0  0  0  0  0  0  0  0  0
   56.7110   26.7820   46.2390 C   0  0  0  0  0  0  0  0  0  0  0  0
   55.3260   26.6290   46.1930 O   0  0  0  0  0  0  0  0  0  0  0  0
   57.3650   25.7670   46.9450 C   0  0  0  0  0  0  0  0  0  0  0  0
   58.7250   25.7740   47.0770 C   0  0  0  0  0  0  0  0  0  0  0  0
   59.4150   26.8130   46.4910 C   0  0  0  0  0  0  0  0  0  0  0  0
   58.7620   27.8370   45.7810 C   0  0  0  0  0  0  0  0  0  0  0  0
   59.6070   28.8210   45.2360 N   0  0  0  0  0  0  0  0  0  0  0  0
   59.8950   30.0670   45.9050 C   0  0  0  0  0  0  0  0  0  0  0  0
   61.0460   30.2770   46.6270 C   0  0  0  0  0  0  0  0  0  0  0  0
   61.3050   31.4750   47.2690 C   0  0  0  0  0  0  0  0  0  0  0  0
   60.3470   32.4780   47.1590 C   0  0  0  0  0  0  0  0  0  0  0  0
   60.5940   33.6690   47.7920 C   0  0  0  0  0  0  0  0  0  0  0  0
   61.6460   33.8560   48.4500 O   0  0  0  0  0  0  0  0  0  0  0  0
   59.6740   34.6460   47.6930 N   0  0  0  0  0  0  0  0  0  0  0  0
   58.5430   34.5090   47.0130 N   0  0  0  0  0  0  0  0  0  0  0  0
   58.2850   33.3460   46.3870 C   0  0  0  0  0  0  0  0  0  0  0  0
   57.2160   33.2200   45.7450 O   0  0  0  0  0  0  0  0  0  0  0  0
   59.1750   32.2930   46.4370 C   0  0  0  0  0  0  0  0  0  0  0  0
   58.9560   31.0830   45.8120 C   0  0  0  0  0  0  0  0  0  0  0  0
   58.1800   29.3000   43.3830 H   0  0  0  0  0  0  0  0  0  0  0  0
   56.0300   30.0878   42.1152 H   0  0  0  0  0  0  0  0  0  0  0  0
   55.7385   30.9994   43.6301 H   0  0  0  0  0  0  0  0  0  0  0  0
   57.5133   31.6269   41.4459 H   0  0  0  0  0  0  0  0  0  0  0  0
   57.1745   32.5782   42.9258 H   0  0  0  0  0  0  0  0  0  0  0  0
   54.7680   27.4610   46.3660 H   0  0  0  0  0  0  0  0  0  0  0  0
   56.7783   24.9546   47.3987 H   0  0  0  0  0  0  0  0  0  0  0  0
   59.2491   24.9805   47.6299 H   0  0  0  0  0  0  0  0  0  0  0  0
   60.5109   26.8426   46.5812 H   0  0  0  0  0  0  0  0  0  0  0  0
   60.0940   28.7640   44.3030 H   0  0  0  0  0  0  0  0  0  0  0  0
   61.7855   29.4657   46.6966 H   0  0  0  0  0  0  0  0  0  0  0  0
   62.2307   31.6282   47.8431 H   0  0  0  0  0  0  0  0  0  0  0  0
   59.8930   35.5470   48.1900 H   0  0  0  0  0  0  0  0  0  0  0  0
   57.9010   35.3320   47.0030 H   0  0  0  0  0  0  0  0  0  0  0  0
   58.0319   30.9233   45.2370 H   0  0  0  0  0  0  0  0  0  0  0  0
  1  2  2  0
  2  3  1  0
  3  4  1  0
  4  5  1  0
  5  6  1  0
  2  7  1  0
  7  8  2  0
  8  9  1  0
  8 10  1  0
 10 11  2  0
 11 12  1  0
 12 13  2  0
 13 14  1  0
 14 15  1  0
 15 16  2  0
 16 17  1  0
 17 18  2  0
 18 19  1  0
 19 20  2  0
 19 21  1  0
 21 22  1  0
 22 23  1  0
 23 24  2  0
 23 25  1  0
 25 26  2  0
 13  7  1  0
 26 15  1  0
 25 18  1  0
  3 27  1  0
  4 28  1  0
  4 29  1  0
  5 30  1  0
  5 31  1  0
  9 32  1  0
 10 33  1  0
 11 34  1  0
 12 35  1  0
 14 36  1  0
 16 37  1  0
 17 38  1  0
 21 39  1  0
 22 40  1  0
 26 41  1  0
M  END
>  <smiles>  (72) 
O=C(NCCF)c1c(O)cccc1Nc1ccc2c(=O)[nH][nH]c(=O)c2c1

>  <score_type>  (72) 
oracle

>  <origin>  (72) 
adg

>  <m_score__min__energy>  (72) 
-9.4700000000000006

>  <m_primary>  (72) 
energy

$$$$
72:0
     RDKit          3D

 26 27  0  0  0  0  0  0  0  0999 V2000
   59.9310   25.1320   46.0010 N   0  0  0  0  0  0  0  0  0  0  0  0
   59.0170   26.2130   45.7600 C   0  0  0  0  0  0  0  0  0  0  0  0
   59.5360   27.4630   45.3960 C   0  0  0  0  0  0  0  0  0  0  0  0
   58.6880   28.5440   45.1500 C   0  0  0  0  0  0  0  0  0  0  0  0
   57.2970   28.3970   45.2620 C   0  0  0  0  0  0  0  0  0  0  0  0
   56.4270   29.5150   45.0070 N   0  0  0  0  0  0  0  0  0  0  0  0
   55.1990   29.3440   44.8510 O   0  0  0  0  0  0  0  0  0  0  0  0
   56.9320   30.7930   44.9280 O   0  0  0  0  0  0  0  0  0  0  0  0
   56.7730   27.1450   45.6260 C   0  0  0  0  0  0  0  0  0  0  0  0
   57.6160   26.0500   45.8770 C   0  0  0  0  0  0  0  0  0  0  0  0
   56.8920   24.4960   46.3140 S   0  0  0  0  0  0  0  0  0  0  0  0
   55.5270   24.6930   46.9120 O   0  0  0  0  0  0  0  0  0  0  0  0
   57.7690   23.8150   47.3270 O   0  0  0  0  0  0  0  0  0  0  0  0
   56.7420   23.5070   44.9010 N   0  0  0  0  0  0  0  0  0  0  0  0
   57.6310   22.6100   44.4520 C   0  0  0  0  0  0  0  0  0  0  0  0
   57.1180   22.0530   43.3020 C   0  0  0  0  0  0  0  0  0  0  0  0
   55.9130   22.6010   43.0320 N   0  0  0  0  0  0  0  0  0  0  0  0
   55.7170   23.4870   44.0310 C   0  0  0  0  0  0  0  0  0  0  0  0
   60.9650   25.2550   45.9820 H   0  0  0  0  0  0  0  0  0  0  0  0
   59.5710   24.1720   46.1980 H   0  0  0  0  0  0  0  0  0  0  0  0
   60.6243   27.5936   45.3031 H   0  0  0  0  0  0  0  0  0  0  0  0
   59.1131   29.5181   44.8663 H   0  0  0  0  0  0  0  0  0  0  0  0
   55.6838   27.0204   45.7159 H   0  0  0  0  0  0  0  0  0  0  0  0
   58.5963   22.3633   44.9182 H   0  0  0  0  0  0  0  0  0  0  0  0
   57.6134   21.2802   42.6959 H   0  0  0  0  0  0  0  0  0  0  0  0
   54.8219   24.1198   44.1229 H   0  0  0  0  0  0  0  0  0  0  0  0
  1  2  1  0
  2  3  2  0
  3  4  1  0
  4  5  2  0
  5  6  1  0
  6  7  2  0
  6  8  1  0
  5  9  1  0
  9 10  2  0
 10 11  1  0
 11 12  2  0
 11 13  2  0
 11 14  1  0
 14 15  1  0
 15 16  2  0
 16 17  1  0
 17 18  2  0
 10  2  1  0
 18 14  1  0
  1 19  1  0
  1 20  1  0
  3 21  1  0
  4 22  1  0
  9 23  1  0
 15 24  1  0
 16 25  1  0
 18 26  1  0
M  CHG  2   6   1   8  -1
M  END
>  <UniqueID>  (73) 
64

>  <SMILES>  (73) 
Nc1ccc([N+](=O)[O-])cc1S(=O)(=O)n1ccnc1

>  <Energy>  (73) 
60.1752429197118

>  <Genealogy>  (73) 
Nc1ccc([N+](=O)[O-])cc1S(=O)(=O)n1ccnc1 (3D coordinates assigned)
Nc1ccc([N+](=O)[O-])cc1S(=O)(=O)n1ccnc1 (optimized conformer: 60.1752429197118 kcal/mol)

>  <smiles>  (73) 
Nc1ccc([N+](=O)[O-])cc1S(=O)(=O)n1ccnc1

>  <score_type>  (73) 
oracle

>  <origin>  (73) 
adg

>  <m_score__min__energy>  (73) 
-6.3399999999999999

>  <m_primary>  (73) 
energy

$$$$
73:0
     RDKit          3D

 60 62  0  0  0  0  0  0  0  0999 V2000
   59.4060   33.7430   54.1520 C   0  0  0  0  0  0  0  0  0  0  0  0
   59.7670   32.4960   53.5670 O   0  0  0  0  0  0  0  0  0  0  0  0
   59.6770   32.2120   52.1970 C   0  0  0  0  0  0  0  0  0  0  0  0
   60.7120   31.5730   51.4870 C   0  0  0  0  0  0  0  0  0  0  0  0
   60.5760   31.3200   50.1170 C   0  0  0  0  0  0  0  0  0  0  0  0
   59.4110   31.7040   49.4410 C   0  0  0  0  0  0  0  0  0  0  0  0
   59.2560   31.4340   47.7080 S   0  0  0  0  0  0  0  0  0  0  0  0
   60.5500   30.8780   47.1790 O   0  0  0  0  0  0  0  0  0  0  0  0
   58.1670   30.4210   47.4780 O   0  0  0  0  0  0  0  0  0  0  0  0
   58.8520   32.9340   46.8950 N   0  0  0  0  0  0  0  0  0  0  0  0
   57.3940   33.1090   46.7350 C   0  0  0  0  0  0  0  0  0  0  0  0
   57.0750   33.7890   45.3990 C   0  0  0  0  0  0  0  0  0  0  0  0
   57.8790   33.2210   44.3210 N   0  0  0  0  0  0  0  0  0  0  0  0
   57.9260   31.8430   43.9310 C   0  0  0  0  0  0  0  0  0  0  0  0
   57.3250   31.4930   42.8800 O   0  0  0  0  0  0  0  0  0  0  0  0
   58.6180   30.8620   44.7180 N   0  0  0  0  0  0  0  0  0  0  0  0
   58.7390   29.4770   44.2600 C   0  0  0  0  0  0  0  0  0  0  0  0
   58.4490   28.4750   45.3870 C   0  0  0  0  0  0  0  0  0  0  0  0
   56.9420   28.2840   45.6110 C   0  0  0  0  0  0  0  0  0  0  0  0
   56.6300   26.8510   45.9180 C   0  0  0  0  0  0  0  0  0  0  0  0
   57.5470   25.8530   46.1500 C   0  0  0  0  0  0  0  0  0  0  0  0
   56.8890   24.7050   46.3840 N   0  0  0  0  0  0  0  0  0  0  0  0
   55.5850   25.0450   46.2870 C   0  0  0  0  0  0  0  0  0  0  0  0
   55.3850   26.3490   46.0020 N   0  0  0  0  0  0  0  0  0  0  0  0
   59.5440   34.1080   47.4740 C   0  0  0  0  0  0  0  0  0  0  0  0
   61.0370   33.9210   47.6690 C   0  0  0  0  0  0  0  0  0  0  0  0
   61.6170   34.1180   48.9360 C   0  0  0  0  0  0  0  0  0  0  0  0
   62.9920   33.9460   49.1220 C   0  0  0  0  0  0  0  0  0  0  0  0
   63.7990   33.5590   48.0500 C   0  0  0  0  0  0  0  0  0  0  0  0
   63.2310   33.3310   46.7950 C   0  0  0  0  0  0  0  0  0  0  0  0
   61.8560   33.5020   46.6050 C   0  0  0  0  0  0  0  0  0  0  0  0
   58.3770   32.3300   50.1480 C   0  0  0  0  0  0  0  0  0  0  0  0
   58.5110   32.5820   51.5160 C   0  0  0  0  0  0  0  0  0  0  0  0
   59.4315   33.6548   55.2482 H   0  0  0  0  0  0  0  0  0  0  0  0
   60.1165   34.5185   53.8299 H   0  0  0  0  0  0  0  0  0  0  0  0
   58.3911   34.0190   53.8299 H   0  0  0  0  0  0  0  0  0  0  0  0
   61.6309   31.2715   52.0112 H   0  0  0  0  0  0  0  0  0  0  0  0
   61.3871   30.8178   49.5693 H   0  0  0  0  0  0  0  0  0  0  0  0
   56.9064   32.1234   46.7644 H   0  0  0  0  0  0  0  0  0  0  0  0
   57.0213   33.7429   47.5531 H   0  0  0  0  0  0  0  0  0  0  0  0
   56.0092   33.6459   45.1674 H   0  0  0  0  0  0  0  0  0  0  0  0
   57.3087   34.8604   45.4850 H   0  0  0  0  0  0  0  0  0  0  0  0
   59.0360   31.1360   45.6320 H   0  0  0  0  0  0  0  0  0  0  0  0
   58.0234   29.3090   43.4417 H   0  0  0  0  0  0  0  0  0  0  0  0
   59.7732   29.3189   43.9203 H   0  0  0  0  0  0  0  0  0  0  0  0
   58.8949   27.5046   45.1233 H   0  0  0  0  0  0  0  0  0  0  0  0
   58.8836   28.8724   46.3161 H   0  0  0  0  0  0  0  0  0  0  0  0
   56.6197   28.9125   46.4543 H   0  0  0  0  0  0  0  0  0  0  0  0
   56.4085   28.5736   44.6937 H   0  0  0  0  0  0  0  0  0  0  0  0
   58.6403   25.9745   46.1449 H   0  0  0  0  0  0  0  0  0  0  0  0
   54.7637   24.3267   46.4271 H   0  0  0  0  0  0  0  0  0  0  0  0
   59.3893   34.9649   46.8018 H   0  0  0  0  0  0  0  0  0  0  0  0
   59.1136   34.2650   48.4740 H   0  0  0  0  0  0  0  0  0  0  0  0
   60.9836   34.4096   49.7867 H   0  0  0  0  0  0  0  0  0  0  0  0
   63.4383   34.1156   50.1130 H   0  0  0  0  0  0  0  0  0  0  0  0
   64.8823   33.4338   48.1943 H   0  0  0  0  0  0  0  0  0  0  0  0
   63.8663   33.0162   45.9540 H   0  0  0  0  0  0  0  0  0  0  0  0
   61.4123   33.3076   45.6174 H   0  0  0  0  0  0  0  0  0  0  0  0
   57.4555   32.6246   49.6244 H   0  0  0  0  0  0  0  0  0  0  0  0
   57.6935   33.0752   52.0624 H   0  0  0  0  0  0  0  0  0  0  0  0
  1  2  1  0
  2  3  1  0
  3  4  2  0
  4  5  1  0
  5  6  2  0
  6  7  1  0
  7  8  2  0
  7  9  2  0
  7 10  1  0
 10 11  1  0
 11 12  1  0
 12 13  1  0
 13 14  1  0
 14 15  2  0
 14 16  1  0
 16 17  1  0
 17 18  1  0
 18 19  1  0
 19 20  1  0
 20 21  2  0
 21 22  1  0
 22 23  1  0
 23 24  2  0
 10 25  1  0
 25 26  1  0
 26 27  2  0
 27 28  1  0
 28 29  2  0
 29 30  1  0
 30 31  2  0
  6 32  1  0
 32 33  2  0
 33  3  1  0
 24 20  1  0
 31 26  1  0
  1 34  1  0
  1 35  1  0
  1 36  1  0
  4 37  1  0
  5 38  1  0
 11 39  1  0
 11 40  1  0
 12 41  1  0
 12 42  1  0
 16 43  1  0
 17 44  1  0
 17 45  1  0
 18 46  1  0
 18 47  1  0
 19 48  1  0
 19 49  1  0
 21 50  1  0
 23 51  1  0
 25 52  1  0
 25 53  1  0
 27 54  1  0
 28 55  1  0
 29 56  1  0
 30 57  1  0
 31 58  1  0
 32 59  1  0
 33 60  1  0
M  CHG  2  13  -1  22  -1
M  END
>  <UniqueID>  (74) 
65

>  <SMILES>  (74) 
COc1ccc(S(=O)(=O)N(CC[N-]C(=O)NCCCc2c[n-]cn2)Cc2ccccc2)cc1

>  <Energy>  (74) 
79.47893671666324

>  <Genealogy>  (74) 
COc1ccc(S(=O)(=O)N(CC[N-]C(=O)NCCCc2c[n-]cn2)Cc2ccccc2)cc1 (protonated)
COc1ccc(S(=O)(=O)N(CC[N-]C(=O)NCCCc2c[n-]cn2)Cc2ccccc2)cc1 (3D coordinates assigned)
COc1ccc(S(=O)(=O)N(CC[N-]C(=O)NCCCc2c[n-]cn2)Cc2ccccc2)cc1 (optimized conformer: 79.47893671666324 kcal/mol)

>  <smiles>  (74) 
COc1ccc(S(=O)(=O)N(CCNC(=O)NCCCc2c[nH]cn2)Cc2ccccc2)cc1

>  <score_type>  (74) 
oracle

>  <origin>  (74) 
adg

>  <m_score__min__energy>  (74) 
-13.06

>  <m_primary>  (74) 
energy

$$$$
74:0
     RDKit          3D

 69 73  0  0  1  0  0  0  0  0999 V2000
   55.2150   22.6450   45.7550 C   0  0  0  0  0  0  0  0  0  0  0  0
   55.7460   22.4850   44.4160 N   0  0  0  0  0  0  0  0  0  0  0  0
   57.0440   21.8570   44.3940 C   0  0  0  0  0  0  0  0  0  0  0  0
   58.1380   22.7330   44.9780 C   0  0  0  0  0  0  0  0  0  0  0  0
   57.7670   24.1140   44.6260 N   0  0  0  0  0  0  0  0  0  0  0  0
   58.1290   25.2180   45.4450 C   0  0  0  0  0  0  0  0  0  0  0  0
   59.4320   25.5020   45.8010 C   0  0  0  0  0  0  0  0  0  0  0  0
   59.7810   26.5760   46.5980 C   0  0  0  0  0  0  0  0  0  0  0  0
   58.7880   27.4100   47.0660 C   0  0  0  0  0  0  0  0  0  0  0  0
   59.0460   28.5710   47.9100 C   0  0  0  0  0  0  0  0  0  0  0  0
   58.5660   29.8800   47.7300 C   0  0  0  0  0  0  0  0  0  0  0  0
   59.0830   30.5820   48.7640 C   0  0  0  0  0  0  0  0  0  0  0  0
   58.9790   31.8840   49.1280 C   0  0  0  0  0  0  0  0  0  0  0  0
   58.2950   32.6850   48.4530 N   0  0  0  0  0  0  0  0  0  0  0  0
   58.3880   33.0580   47.1340 C   0  0  0  0  0  0  0  0  0  0  0  0
   59.1540   34.1910   46.8150 C   0  0  0  0  0  0  0  0  0  0  0  0
   59.2750   34.5270   45.4850 C   0  0  0  0  0  0  0  0  0  0  0  0
   58.6660   33.7790   44.5030 C   0  0  0  0  0  0  0  0  0  0  0  0
   57.8950   32.6420   44.8070 C   0  0  0  0  0  0  0  0  0  0  0  0
   57.3470   31.9740   43.6940 N   0  0  0  0  0  0  0  0  0  0  0  0
   56.7570   30.3750   43.6380 S   0  0  0  0  0  0  0  0  0  0  0  0
   55.4950   30.2660   44.4970 O   0  0  0  0  0  0  0  0  0  0  0  0
   56.2780   30.0300   42.2410 O   0  0  0  0  0  0  0  0  0  0  0  0
   57.8160   29.1630   44.1910 N   0  0  0  0  0  0  0  0  0  0  0  0
   57.8030   27.9870   43.3920 C   0  0  0  0  0  0  0  0  0  0  0  0
   59.1480   29.5870   44.4780 C   0  0  0  0  0  0  0  0  0  0  0  0
   57.7790   32.3170   46.1090 C   0  0  0  0  0  0  0  0  0  0  0  0
   59.6150   32.3250   50.2290 N   0  0  0  0  0  0  0  0  0  0  0  0
   60.3610   31.4870   50.9850 C   0  0  0  0  0  0  0  0  0  0  0  0
   60.4940   30.1800   50.6610 N   0  0  0  0  0  0  0  0  0  0  0  0
   59.8470   29.7480   49.5460 C   0  0  0  0  0  0  0  0  0  0  0  0
   59.8150   28.5160   49.0100 N   0  0  0  0  0  0  0  0  0  0  0  0
   60.4990   27.3470   49.5420 C   0  0  0  0  0  0  0  0  0  0  0  0
   57.4760   27.1550   46.7290 C   0  0  0  0  0  0  0  0  0  0  0  0
   57.1460   26.0610   45.9190 C   0  0  0  0  0  0  0  0  0  0  0  0
   57.0120   24.2590   43.3980 C   0  0  0  0  0  0  0  0  0  0  0  0
   55.6520   23.6920   43.6370 C   0  0  0  0  0  0  0  0  0  0  0  0
   55.9981   22.4090   46.4906 H   0  0  0  0  0  0  0  0  0  0  0  0
   54.8811   23.6837   45.8953 H   0  0  0  0  0  0  0  0  0  0  0  0
   54.3628   21.9637   45.8953 H   0  0  0  0  0  0  0  0  0  0  0  0
   56.9925   20.9256   44.9769 H   0  0  0  0  0  0  0  0  0  0  0  0
   57.3004   21.6694   43.3409 H   0  0  0  0  0  0  0  0  0  0  0  0
   58.1835   22.6139   46.0706 H   0  0  0  0  0  0  0  0  0  0  0  0
   59.1294   22.4641   44.5845 H   0  0  0  0  0  0  0  0  0  0  0  0
   60.2311   24.8419   45.4327 H   0  0  0  0  0  0  0  0  0  0  0  0
   60.8343   26.7623   46.8548 H   0  0  0  0  0  0  0  0  0  0  0  0
   57.9139   30.2513   46.9257 H   0  0  0  0  0  0  0  0  0  0  0  0
   59.6402   34.7890   47.5999 H   0  0  0  0  0  0  0  0  0  0  0  0
   59.8688   35.4087   45.2024 H   0  0  0  0  0  0  0  0  0  0  0  0
   58.7854   34.0785   43.4513 H   0  0  0  0  0  0  0  0  0  0  0  0
   57.3030   32.5360   42.8030 H   0  0  0  0  0  0  0  0  0  0  0  0
   57.7932   27.1010   44.0438 H   0  0  0  0  0  0  0  0  0  0  0  0
   56.9048   27.9850   42.7570 H   0  0  0  0  0  0  0  0  0  0  0  0
   58.7010   27.9652   42.7570 H   0  0  0  0  0  0  0  0  0  0  0  0
   59.2915   29.6327   45.5676 H   0  0  0  0  0  0  0  0  0  0  0  0
   59.8621   28.8717   44.0438 H   0  0  0  0  0  0  0  0  0  0  0  0
   59.3172   30.5834   44.0438 H   0  0  0  0  0  0  0  0  0  0  0  0
   57.1820   31.4339   46.3805 H   0  0  0  0  0  0  0  0  0  0  0  0
   59.5580   33.3030   50.5340 H   0  0  0  0  0  0  0  0  0  0  0  0
   60.8690   31.8755   51.8800 H   0  0  0  0  0  0  0  0  0  0  0  0
   60.4799   27.3797   50.6413 H   0  0  0  0  0  0  0  0  0  0  0  0
   59.9919   26.4352   49.1934 H   0  0  0  0  0  0  0  0  0  0  0  0
   61.5423   27.3424   49.1934 H   0  0  0  0  0  0  0  0  0  0  0  0
   56.6800   27.8174   47.1000 H   0  0  0  0  0  0  0  0  0  0  0  0
   56.0939   25.8727   45.6588 H   0  0  0  0  0  0  0  0  0  0  0  0
   56.9333   25.3227   43.1290 H   0  0  0  0  0  0  0  0  0  0  0  0
   57.5115   23.7318   42.5719 H   0  0  0  0  0  0  0  0  0  0  0  0
   55.0417   24.4284   44.1803 H   0  0  0  0  0  0  0  0  0  0  0  0
   55.1854   23.4586   42.6686 H   0  0  0  0  0  0  0  0  0  0  0  0
  1  2  1  0
  2  3  1  0
  3  4  1  0
  4  5  1  0
  5  6  1  0
  6  7  2  0
  7  8  1  0
  8  9  2  0
  9 10  1  0
 10 11  2  0
 11 12  1  0
 12 13  1  0
 13 14  2  0
 14 15  1  0
 15 16  2  0
 16 17  1  0
 17 18  2  0
 18 19  1  0
 19 20  1  0
 20 21  1  0
 21 22  2  0
 21 23  2  0
 21 24  1  0
 24 25  1  0
 24 26  1  0
 19 27  2  0
 13 28  1  0
 28 29  1  0
 29 30  2  0
 30 31  1  0
 31 32  1  0
 32 33  1  0
  9 34  1  0
 34 35  2  0
  5 36  1  0
 36 37  1  0
 37  2  1  0
 35  6  1  0
 32 10  1  0
 31 12  2  0
 27 15  1  0
  1 38  1  0
  1 39  1  0
  1 40  1  0
  3 41  1  0
  3 42  1  0
  4 43  1  0
  4 44  1  0
  7 45  1  0
  8 46  1  0
 11 47  1  0
 16 48  1  0
 17 49  1  0
 18 50  1  0
 20 51  1  0
 25 52  1  0
 25 53  1  0
 25 54  1  0
 26 55  1  0
 26 56  1  0
 26 57  1  0
 27 58  1  0
 28 59  1  0
 29 60  1  0
 33 61  1  0
 33 62  1  0
 33 63  1  0
 34 64  1  0
 35 65  1  0
 36 66  1  0
 36 67  1  0
 37 68  1  0
 37 69  1  0
M  END
>  <smiles>  (75) 
CN1CCN(c2ccc(-c3cc4c(=Nc5cccc(NS(=O)(=O)N(C)C)c5)[nH]cnc4n3C)cc2)CC1

>  <score_type>  (75) 
oracle

>  <origin>  (75) 
adg

>  <m_score__min__energy>  (75) 
-9.9199999999999999

>  <m_primary>  (75) 
energy

$$$$
75:0
     RDKit          3D

 31 32  0  0  0  0  0  0  0  0999 V2000
   55.1390   30.1400   44.4980 N   0  0  0  0  0  0  0  0  0  0  0  0
   56.8560   30.3080   44.3990 S   0  0  0  0  0  0  0  0  0  0  0  0
   57.2420   30.6730   42.9930 O   0  0  0  0  0  0  0  0  0  0  0  0
   57.3080   31.4040   45.3240 O   0  0  0  0  0  0  0  0  0  0  0  0
   57.6220   28.7900   44.8540 C   0  0  0  0  0  0  0  0  0  0  0  0
   57.9700   28.5500   46.1900 C   0  0  0  0  0  0  0  0  0  0  0  0
   58.5650   27.3380   46.5560 C   0  0  0  0  0  0  0  0  0  0  0  0
   58.8210   26.3550   45.5880 C   0  0  0  0  0  0  0  0  0  0  0  0
   59.4250   25.0370   45.9940 C   0  0  0  0  0  0  0  0  0  0  0  0
   58.3980   24.0010   46.0440 N   0  0  0  0  0  0  0  0  0  0  0  0
   57.6730   23.6770   45.0180 C   0  0  0  0  0  0  0  0  0  0  0  0
   56.2030   23.8440   45.0390 C   0  0  0  0  0  0  0  0  0  0  0  0
   55.5420   24.7730   45.8790 C   0  0  0  0  0  0  0  0  0  0  0  0
   56.2140   25.5270   46.8410 O   0  0  0  0  0  0  0  0  0  0  0  0
   54.1950   24.9240   45.7790 N   0  0  0  0  0  0  0  0  0  0  0  0
   53.4600   24.1820   44.9140 C   0  0  0  0  0  0  0  0  0  0  0  0
   51.8430   24.3900   44.8310 S   0  0  0  0  0  0  0  0  0  0  0  0
   54.0650   23.2570   44.1300 N   0  0  0  0  0  0  0  0  0  0  0  0
   55.4080   23.0680   44.1730 C   0  0  0  0  0  0  0  0  0  0  0  0
   55.9310   22.2070   43.4160 O   0  0  0  0  0  0  0  0  0  0  0  0
   58.4550   26.5910   44.2540 C   0  0  0  0  0  0  0  0  0  0  0  0
   57.8600   27.8020   43.8890 C   0  0  0  0  0  0  0  0  0  0  0  0
   54.9450   29.4210   45.2290 H   0  0  0  0  0  0  0  0  0  0  0  0
   57.7746   29.3173   46.9536 H   0  0  0  0  0  0  0  0  0  0  0  0
   58.8333   27.1548   47.6069 H   0  0  0  0  0  0  0  0  0  0  0  0
   60.1942   24.7499   45.2620 H   0  0  0  0  0  0  0  0  0  0  0  0
   59.8744   25.1427   46.9924 H   0  0  0  0  0  0  0  0  0  0  0  0
   58.1589   23.2717   44.1182 H   0  0  0  0  0  0  0  0  0  0  0  0
   57.1150   25.2710   47.2220 H   0  0  0  0  0  0  0  0  0  0  0  0
   58.6373   25.8191   43.4918 H   0  0  0  0  0  0  0  0  0  0  0  0
   57.5776   27.9801   42.8409 H   0  0  0  0  0  0  0  0  0  0  0  0
  1  2  1  0
  2  3  2  0
  2  4  2  0
  2  5  1  0
  5  6  2  0
  6  7  1  0
  7  8  2  0
  8  9  1  0
  9 10  1  0
 10 11  2  3
 11 12  1  0
 12 13  2  0
 13 14  1  0
 13 15  1  0
 15 16  1  0
 16 17  2  0
 16 18  1  0
 18 19  1  0
 19 20  2  0
  8 21  1  0
 21 22  2  0
 22  5  1  0
 19 12  1  0
  1 23  1  0
  6 24  1  0
  7 25  1  0
  9 26  1  0
  9 27  1  0
 11 28  1  0
 14 29  1  0
 21 30  1  0
 22 31  1  0
M  CHG  3   1  -1  15  -1  18  -1
M  END
>  <UniqueID>  (76) 
66

>  <SMILES>  (76) 
[NH-]S(=O)(=O)c1ccc(CN=Cc2c(O)[n-]c(=S)[n-]c2=O)cc1

>  <Energy>  (76) 
35.9952412168969

>  <Genealogy>  (76) 
[NH-]S(=O)(=O)c1ccc(CN=Cc2c(O)[n-]c(=S)[n-]c2=O)cc1 (protonated)
[NH-]S(=O)(=O)c1ccc(CN=Cc2c(O)[n-]c(=S)[n-]c2=O)cc1 (3D coordinates assigned)
[NH-]S(=O)(=O)c1ccc(CN=Cc2c(O)[n-]c(=S)[n-]c2=O)cc1 (optimized conformer: 35.9952412168969 kcal/mol)

>  <smiles>  (76) 
NS(=O)(=O)c1ccc(CN=Cc2c(O)[nH]c(=S)[nH]c2=O)cc1

>  <score_type>  (76) 
oracle

>  <origin>  (76) 
adg

>  <m_score__min__energy>  (76) 
-12.43

>  <m_primary>  (76) 
energy

$$$$
76:0
     RDKit          3D

 81 84  0  0  0  0  0  0  0  0999 V2000
   59.5570   25.5560   46.3790 C   0  0  0  0  0  0  0  0  0  0  0  0
   58.5620   24.7080   45.6180 C   0  0  0  0  0  0  0  0  0  0  0  0
   58.9540   23.4300   45.1340 C   0  0  0  0  0  0  0  0  0  0  0  0
   60.2520   22.8800   45.4110 N   0  0  0  0  0  0  0  0  0  0  0  0
   58.0570   22.6700   44.3720 C   0  0  0  0  0  0  0  0  0  0  0  0
   56.7720   23.1360   44.1140 C   0  0  0  0  0  0  0  0  0  0  0  0
   56.3600   24.3640   44.6230 C   0  0  0  0  0  0  0  0  0  0  0  0
   57.2280   25.1520   45.3930 C   0  0  0  0  0  0  0  0  0  0  0  0
   56.6090   26.6800   46.0500 S   0  0  0  0  0  0  0  0  0  0  0  0
   57.3620   27.0200   47.3040 O   0  0  0  0  0  0  0  0  0  0  0  0
   55.1450   26.5570   46.3680 O   0  0  0  0  0  0  0  0  0  0  0  0
   56.8210   27.9740   44.9170 N   0  0  0  0  0  0  0  0  0  0  0  0
   57.3780   29.2350   45.2890 C   0  0  0  0  0  0  0  0  0  0  0  0
   56.8510   30.3060   44.8820 O   0  0  0  0  0  0  0  0  0  0  0  0
   58.5540   29.2660   46.1100 N   0  0  0  0  0  0  0  0  0  0  0  0
   59.3170   30.4970   46.3440 C   0  0  1  0  0  0  0  0  0  0  0  0
   58.3980   31.6100   46.9020 C   0  0  0  0  0  0  0  0  0  0  0  0
   59.0710   32.5100   47.9110 C   0  0  0  0  0  0  0  0  0  0  0  0
   60.1100   33.3680   47.5190 C   0  0  0  0  0  0  0  0  0  0  0  0
   60.7170   34.2110   48.4520 C   0  0  0  0  0  0  0  0  0  0  0  0
   60.2900   34.2080   49.7830 C   0  0  0  0  0  0  0  0  0  0  0  0
   59.2490   33.3600   50.1950 C   0  0  0  0  0  0  0  0  0  0  0  0
   58.7850   33.3750   51.6060 C   0  0  0  0  0  0  0  0  0  0  0  0
   58.2580   32.1800   52.1960 N   0  0  0  0  0  0  0  0  0  0  0  0
   58.8660   34.4590   52.3180 N   0  0  0  0  0  0  0  0  0  0  0  0
   58.6550   32.5010   49.2530 C   0  0  0  0  0  0  0  0  0  0  0  0
   60.4930   30.2080   47.2560 C   0  0  0  0  0  0  0  0  0  0  0  0
   61.6570   30.3990   46.8080 O   0  0  0  0  0  0  0  0  0  0  0  0
   60.3330   29.7290   48.6110 N   0  0  0  0  0  0  0  0  0  0  0  0
   61.4750   29.8610   49.5320 C   0  0  0  0  0  0  0  0  0  0  0  0
   61.1790   29.2560   50.9120 C   0  0  0  0  0  0  0  0  0  0  0  0
   59.8220   29.7510   51.4490 C   0  0  0  0  0  0  0  0  0  0  0  0
   59.4920   29.0800   52.7080 N   0  0  0  0  0  0  0  0  0  0  0  0
   58.5310   29.5440   53.6620 C   0  0  0  0  0  0  0  0  0  0  0  0
   58.7950   29.4580   54.8920 O   0  0  0  0  0  0  0  0  0  0  0  0
   57.3200   30.0960   53.2310 O   0  0  0  0  0  0  0  0  0  0  0  0
   56.1460   30.1420   54.0370 C   0  0  0  0  0  0  0  0  0  0  0  0
   54.9190   30.1110   53.1680 C   0  0  0  0  0  0  0  0  0  0  0  0
   54.7970   30.9780   52.0690 C   0  0  0  0  0  0  0  0  0  0  0  0
   53.6430   30.9560   51.2810 C   0  0  0  0  0  0  0  0  0  0  0  0
   52.6040   30.0720   51.5850 C   0  0  0  0  0  0  0  0  0  0  0  0
   52.7130   29.2130   52.6820 C   0  0  0  0  0  0  0  0  0  0  0  0
   53.8660   29.2340   53.4750 C   0  0  0  0  0  0  0  0  0  0  0  0
   58.6650   29.6290   50.4200 C   0  0  0  0  0  0  0  0  0  0  0  0
   59.1170   29.0420   49.0780 C   0  0  0  0  0  0  0  0  0  0  0  0
   59.4011   25.4231   47.4598 H   0  0  0  0  0  0  0  0  0  0  0  0
   60.5793   25.2472   46.1153 H   0  0  0  0  0  0  0  0  0  0  0  0
   59.4141   26.6143   46.1153 H   0  0  0  0  0  0  0  0  0  0  0  0
   60.6660   22.9630   46.3640 H   0  0  0  0  0  0  0  0  0  0  0  0
   60.8530   22.4620   44.6670 H   0  0  0  0  0  0  0  0  0  0  0  0
   58.3722   21.6944   43.9735 H   0  0  0  0  0  0  0  0  0  0  0  0
   56.0806   22.5331   43.5069 H   0  0  0  0  0  0  0  0  0  0  0  0
   55.3399   24.7214   44.4187 H   0  0  0  0  0  0  0  0  0  0  0  0
   58.9820   28.3460   46.3610 H   0  0  0  0  0  0  0  0  0  0  0  0
   59.7193   30.8663   45.3892 H   0  0  0  0  0  0  0  0  0  0  0  0
   58.0538   32.2293   46.0606 H   0  0  0  0  0  0  0  0  0  0  0  0
   57.5694   31.1086   47.4236 H   0  0  0  0  0  0  0  0  0  0  0  0
   60.4477   33.3765   46.4722 H   0  0  0  0  0  0  0  0  0  0  0  0
   61.5330   34.8789   48.1389 H   0  0  0  0  0  0  0  0  0  0  0  0
   60.7727   34.8745   50.5129 H   0  0  0  0  0  0  0  0  0  0  0  0
   57.9970   32.1550   53.2060 H   0  0  0  0  0  0  0  0  0  0  0  0
   58.0710   31.3320   51.6180 H   0  0  0  0  0  0  0  0  0  0  0  0
   58.4490   35.3530   51.9770 H   0  0  0  0  0  0  0  0  0  0  0  0
   59.3220   34.4670   53.2590 H   0  0  0  0  0  0  0  0  0  0  0  0
   57.8561   31.8147   49.5703 H   0  0  0  0  0  0  0  0  0  0  0  0
   62.3428   29.3437   49.0970 H   0  0  0  0  0  0  0  0  0  0  0  0
   61.6764   30.9337   49.6693 H   0  0  0  0  0  0  0  0  0  0  0  0
   61.1546   28.1596   50.8270 H   0  0  0  0  0  0  0  0  0  0  0  0
   61.9691   29.5693   51.6103 H   0  0  0  0  0  0  0  0  0  0  0  0
   59.9347   30.8286   51.6389 H   0  0  0  0  0  0  0  0  0  0  0  0
   56.1348   29.2742   54.7128 H   0  0  0  0  0  0  0  0  0  0  0  0
   56.1483   31.0733   54.6224 H   0  0  0  0  0  0  0  0  0  0  0  0
   55.6122   31.6761   51.8282 H   0  0  0  0  0  0  0  0  0  0  0  0
   53.5523   31.6352   50.4205 H   0  0  0  0  0  0  0  0  0  0  0  0
   51.6991   30.0523   50.9599 H   0  0  0  0  0  0  0  0  0  0  0  0
   51.8927   28.5205   52.9221 H   0  0  0  0  0  0  0  0  0  0  0  0
   53.9477   28.5614   54.3416 H   0  0  0  0  0  0  0  0  0  0  0  0
   57.8865   28.9773   50.8434 H   0  0  0  0  0  0  0  0  0  0  0  0
   58.2891   30.6443   50.2254 H   0  0  0  0  0  0  0  0  0  0  0  0
   59.3295   27.9699   49.2025 H   0  0  0  0  0  0  0  0  0  0  0  0
   58.3169   29.1803   48.3359 H   0  0  0  0  0  0  0  0  0  0  0  0
  1  2  1  0
  2  3  2  0
  3  4  1  0
  3  5  1  0
  5  6  2  0
  6  7  1  0
  7  8  2  0
  8  9  1  0
  9 10  2  0
  9 11  2  0
  9 12  1  0
 12 13  1  0
 13 14  2  0
 13 15  1  0
 15 16  1  0
 16 17  1  0
 17 18  1  0
 18 19  2  0
 19 20  1  0
 20 21  2  0
 21 22  1  0
 22 23  1  0
 23 24  1  0
 23 25  2  0
 22 26  2  0
 16 27  1  0
 27 28  2  0
 27 29  1  0
 29 30  1  0
 30 31  1  0
 31 32  1  0
 32 33  1  0
 33 34  1  0
 34 35  2  0
 34 36  1  0
 36 37  1  0
 37 38  1  0
 38 39  2  0
 39 40  1  0
 40 41  2  0
 41 42  1  0
 42 43  2  0
 32 44  1  0
 44 45  1  0
  8  2  1  0
 26 18  1  0
 45 29  1  0
 43 38  1  0
  1 46  1  0
  1 47  1  0
  1 48  1  0
  4 49  1  0
  4 50  1  0
  5 51  1  0
  6 52  1  0
  7 53  1  0
 15 54  1  0
 16 55  1  6
 17 56  1  0
 17 57  1  0
 19 58  1  0
 20 59  1  0
 21 60  1  0
 24 61  1  0
 24 62  1  0
 25 63  1  0
 25 64  1  0
 26 65  1  0
 30 66  1  0
 30 67  1  0
 31 68  1  0
 31 69  1  0
 32 70  1  0
 37 71  1  0
 37 72  1  0
 39 73  1  0
 40 74  1  0
 41 75  1  0
 42 76  1  0
 43 77  1  0
 44 78  1  0
 44 79  1  0
 45 80  1  0
 45 81  1  0
M  CHG  3  12  -1  25   1  33  -1
M  END
>  <UniqueID>  (77) 
67

>  <SMILES>  (77) 
Cc1c(N)cccc1S(=O)(=O)[N-]C(=O)N[C@@H](Cc1cccc(C(N)=[NH2+])c1)C(=O)N1CCC([N-]C(=O)OCc2ccccc2)CC1

>  <Energy>  (77) 
88.82870144732584

>  <Genealogy>  (77) 
Cc1c(N)cccc1S(=O)(=O)[N-]C(=O)NC(Cc1cccc(C(N)=[NH2+])c1)C(=O)N1CCC([N-]C(=O)OCc2ccccc2)CC1 (protonated)
Cc1c(N)cccc1S(=O)(=O)[N-]C(=O)N[C@@H](Cc1cccc(C(N)=[NH2+])c1)C(=O)N1CCC([N-]C(=O)OCc2ccccc2)CC1 (chirality)
Cc1c(N)cccc1S(=O)(=O)[N-]C(=O)N[C@@H](Cc1cccc(C(N)=[NH2+])c1)C(=O)N1CCC([N-]C(=O)OCc2ccccc2)CC1 (3D coordinates assigned)
Cc1c(N)cccc1S(=O)(=O)[N-]C(=O)N[C@@H](Cc1cccc(C(N)=[NH2+])c1)C(=O)N1CCC([N-]C(=O)OCc2ccccc2)CC1 (nonaromatic ring conformer: 88.82870144732584 kcal/mol)

>  <smiles>  (77) 
Cc1c(N)cccc1S(=O)(=O)NC(=O)NC(Cc1cccc(C(=N)N)c1)C(=O)N1CCC(NC(=O)OCc2ccccc2)CC1

>  <score_type>  (77) 
oracle

>  <origin>  (77) 
adg

>  <m_score__min__energy>  (77) 
-11.41

>  <m_primary>  (77) 
energy

$$$$
77:0
     RDKit          3D

 57 59  0  0  0  0  0  0  0  0999 V2000
   56.2750   29.4280   42.3130 C   0  0  0  0  0  0  0  0  0  0  0  0
   57.2470   30.2440   43.0300 N   0  0  0  0  0  0  0  0  0  0  0  0
   57.1060   30.5290   44.4290 C   0  0  0  0  0  0  0  0  0  0  0  0
   56.1450   30.0330   45.0750 O   0  0  0  0  0  0  0  0  0  0  0  0
   58.0640   31.4290   45.1120 C   0  0  0  0  0  0  0  0  0  0  0  0
   58.4990   32.5860   44.4510 C   0  0  0  0  0  0  0  0  0  0  0  0
   59.3240   33.4680   45.0700 N   0  0  0  0  0  0  0  0  0  0  0  0
   59.7700   33.2810   46.3380 C   0  0  0  0  0  0  0  0  0  0  0  0
   60.5690   34.1710   46.8560 N   0  0  0  0  0  0  0  0  0  0  0  0
   61.7160   33.9210   47.6860 C   0  0  0  0  0  0  0  0  0  0  0  0
   62.9570   33.7090   47.0750 C   0  0  0  0  0  0  0  0  0  0  0  0
   64.0930   33.4660   47.8500 C   0  0  0  0  0  0  0  0  0  0  0  0
   63.9980   33.4500   49.2420 C   0  0  0  0  0  0  0  0  0  0  0  0
   62.7710   33.6910   49.8650 C   0  0  0  0  0  0  0  0  0  0  0  0
   61.6190   33.9460   49.0940 C   0  0  0  0  0  0  0  0  0  0  0  0
   60.3790   34.2360   49.6860 O   0  0  0  0  0  0  0  0  0  0  0  0
   59.6360   33.3230   50.4880 C   0  0  0  0  0  0  0  0  0  0  0  0
   59.3850   32.1180   47.0320 C   0  0  0  0  0  0  0  0  0  0  0  0
   58.5210   31.1860   46.4290 C   0  0  0  0  0  0  0  0  0  0  0  0
   58.1460   29.9850   47.1370 N   0  0  0  0  0  0  0  0  0  0  0  0
   59.0840   29.2250   47.9110 C   0  0  0  0  0  0  0  0  0  0  0  0
   59.8450   29.8830   48.8870 C   0  0  0  0  0  0  0  0  0  0  0  0
   60.7240   29.1660   49.7000 C   0  0  0  0  0  0  0  0  0  0  0  0
   60.8570   27.7860   49.5380 C   0  0  0  0  0  0  0  0  0  0  0  0
   60.1200   27.1230   48.5540 C   0  0  0  0  0  0  0  0  0  0  0  0
   59.2290   27.8310   47.7310 C   0  0  0  0  0  0  0  0  0  0  0  0
   58.3930   26.9760   46.4270 S   0  0  0  0  0  0  0  0  0  0  0  0
   56.9770   27.4650   46.3150 O   0  0  0  0  0  0  0  0  0  0  0  0
   58.3590   25.5010   46.7180 O   0  0  0  0  0  0  0  0  0  0  0  0
   59.2640   27.2490   44.8830 C   0  0  0  0  0  0  0  0  0  0  0  0
   58.2800   27.2760   43.7110 C   0  0  0  0  0  0  0  0  0  0  0  0
   60.0680   28.5480   44.9480 C   0  0  0  0  0  0  0  0  0  0  0  0
   55.6398   28.8947   43.0356 H   0  0  0  0  0  0  0  0  0  0  0  0
   55.6484   30.0746   41.6812 H   0  0  0  0  0  0  0  0  0  0  0  0
   56.8033   28.6989   41.6812 H   0  0  0  0  0  0  0  0  0  0  0  0
   58.0790   30.6030   42.5090 H   0  0  0  0  0  0  0  0  0  0  0  0
   58.1683   32.7810   43.4202 H   0  0  0  0  0  0  0  0  0  0  0  0
   63.0381   33.7339   45.9783 H   0  0  0  0  0  0  0  0  0  0  0  0
   65.0630   33.2872   47.3630 H   0  0  0  0  0  0  0  0  0  0  0  0
   64.8916   33.2471   49.8505 H   0  0  0  0  0  0  0  0  0  0  0  0
   62.7036   33.6817   50.9629 H   0  0  0  0  0  0  0  0  0  0  0  0
   59.8133   33.5409   51.5515 H   0  0  0  0  0  0  0  0  0  0  0  0
   58.5638   33.4284   50.2659 H   0  0  0  0  0  0  0  0  0  0  0  0
   59.9571   32.2946   50.2659 H   0  0  0  0  0  0  0  0  0  0  0  0
   59.7613   31.9375   48.0497 H   0  0  0  0  0  0  0  0  0  0  0  0
   57.2340   29.5260   46.9190 H   0  0  0  0  0  0  0  0  0  0  0  0
   59.7488   30.9715   49.0130 H   0  0  0  0  0  0  0  0  0  0  0  0
   61.3122   29.6886   50.4687 H   0  0  0  0  0  0  0  0  0  0  0  0
   61.5427   27.2202   50.1858 H   0  0  0  0  0  0  0  0  0  0  0  0
   60.2384   26.0373   48.4226 H   0  0  0  0  0  0  0  0  0  0  0  0
   59.9654   26.4169   44.7229 H   0  0  0  0  0  0  0  0  0  0  0  0
   57.2504   27.3042   44.0972 H   0  0  0  0  0  0  0  0  0  0  0  0
   58.4658   28.1694   43.0967 H   0  0  0  0  0  0  0  0  0  0  0  0
   58.4166   26.3738   43.0967 H   0  0  0  0  0  0  0  0  0  0  0  0
   60.2376   28.8220   45.9997 H   0  0  0  0  0  0  0  0  0  0  0  0
   61.0361   28.4056   44.4455 H   0  0  0  0  0  0  0  0  0  0  0  0
   59.5087   29.3509   44.4455 H   0  0  0  0  0  0  0  0  0  0  0  0
  1  2  1  0
  2  3  1  0
  3  4  2  0
  3  5  1  0
  5  6  2  0
  6  7  1  0
  7  8  1  0
  8  9  2  3
  9 10  1  0
 10 11  2  0
 11 12  1  0
 12 13  2  0
 13 14  1  0
 14 15  2  0
 15 16  1  0
 16 17  1  0
  8 18  1  0
 18 19  2  0
 19 20  1  0
 20 21  1  0
 21 22  2  0
 22 23  1  0
 23 24  2  0
 24 25  1  0
 25 26  2  0
 26 27  1  0
 27 28  2  0
 27 29  2  0
 27 30  1  0
 30 31  1  0
 30 32  1  0
 19  5  1  0
 26 21  1  0
 15 10  1  0
  1 33  1  0
  1 34  1  0
  1 35  1  0
  2 36  1  0
  6 37  1  0
 11 38  1  0
 12 39  1  0
 13 40  1  0
 14 41  1  0
 17 42  1  0
 17 43  1  0
 17 44  1  0
 18 45  1  0
 20 46  1  0
 22 47  1  0
 23 48  1  0
 24 49  1  0
 25 50  1  0
 30 51  1  0
 31 52  1  0
 31 53  1  0
 31 54  1  0
 32 55  1  0
 32 56  1  0
 32 57  1  0
M  CHG  1   7  -1
M  END
>  <UniqueID>  (78) 
68

>  <SMILES>  (78) 
CNC(=O)c1c[n-]c(=Nc2ccccc2OC)cc1Nc1ccccc1S(=O)(=O)C(C)C

>  <Energy>  (78) 
69.50304064206291

>  <Genealogy>  (78) 
CNC(=O)c1c[n-]c(=Nc2ccccc2OC)cc1Nc1ccccc1S(=O)(=O)C(C)C (protonated)
CNC(=O)c1c[n-]c(=Nc2ccccc2OC)cc1Nc1ccccc1S(=O)(=O)C(C)C (3D coordinates assigned)
CNC(=O)c1c[n-]c(=Nc2ccccc2OC)cc1Nc1ccccc1S(=O)(=O)C(C)C (optimized conformer: 69.50304064206291 kcal/mol)

>  <smiles>  (78) 
CNC(=O)c1c[nH]c(=Nc2ccccc2OC)cc1Nc1ccccc1S(=O)(=O)C(C)C

>  <score_type>  (78) 
oracle

>  <origin>  (78) 
adg

>  <m_score__min__energy>  (78) 
-10.640000000000001

>  <m_primary>  (78) 
energy

$$$$
78:0
     RDKit          3D

 31 33  0  0  0  0  0  0  0  0999 V2000
   55.8014   25.4650   46.3327 H   0  0  0  0  0  0  0  0  0  0  0  0
   56.4380   26.2620   45.9210 C   0  0  0  0  0  0  0  0  0  0  0  0
   55.8980   27.4730   45.6170 N   0  0  0  0  0  0  0  0  0  0  0  0
   56.6410   28.4990   45.1220 C   0  0  0  0  0  0  0  0  0  0  0  0
   56.0420   29.6240   44.8490 N   0  0  0  0  0  0  0  0  0  0  0  0
   56.5780   30.7290   44.1060 C   0  0  0  0  0  0  0  0  0  0  0  0
   56.3370   30.8070   42.8730 O   0  0  0  0  0  0  0  0  0  0  0  0
   57.3280   31.8140   44.7680 C   0  0  0  0  0  0  0  0  0  0  0  0
   57.7650   32.9890   44.1560 C   0  0  0  0  0  0  0  0  0  0  0  0
   57.6152   33.2954   43.1102 H   0  0  0  0  0  0  0  0  0  0  0  0
   58.4250   33.6820   45.1470 C   0  0  0  0  0  0  0  0  0  0  0  0
   59.0650   34.9180   45.1160 C   0  0  0  0  0  0  0  0  0  0  0  0
   59.1014   35.5165   44.1938 H   0  0  0  0  0  0  0  0  0  0  0  0
   59.6640   35.3760   46.3050 C   0  0  0  0  0  0  0  0  0  0  0  0
   60.1766   36.3492   46.3189 H   0  0  0  0  0  0  0  0  0  0  0  0
   59.6110   34.5940   47.4800 C   0  0  0  0  0  0  0  0  0  0  0  0
   60.0849   34.9612   48.4023 H   0  0  0  0  0  0  0  0  0  0  0  0
   58.9560   33.3480   47.4790 C   0  0  0  0  0  0  0  0  0  0  0  0
   58.9066   32.7311   48.3884 H   0  0  0  0  0  0  0  0  0  0  0  0
   58.3720   32.9220   46.2870 C   0  0  0  0  0  0  0  0  0  0  0  0
   57.7080   31.7750   46.0680 N   0  0  0  0  0  0  0  0  0  0  0  0
   57.5210   31.0160   46.7610 H   0  0  0  0  0  0  0  0  0  0  0  0
   58.0190   28.2990   44.8950 C   0  0  0  0  0  0  0  0  0  0  0  0
   58.6354   29.1086   44.4772 H   0  0  0  0  0  0  0  0  0  0  0  0
   58.5940   27.0650   45.2050 C   0  0  0  0  0  0  0  0  0  0  0  0
   59.6718   26.9076   45.0512 H   0  0  0  0  0  0  0  0  0  0  0  0
   57.8020   26.0280   45.7110 C   0  0  0  0  0  0  0  0  0  0  0  0
   58.4160   24.7100   46.0830 C   0  0  0  0  0  0  0  0  0  0  0  0
   58.4575   24.6210   47.1786 H   0  0  0  0  0  0  0  0  0  0  0  0
   57.8061   23.8922   45.6715 H   0  0  0  0  0  0  0  0  0  0  0  0
   59.4344   24.6508   45.6715 H   0  0  0  0  0  0  0  0  0  0  0  0
  1  2  1  0
  2  3  1  0
  3  4  1  0
  4  5  2  0
  5  6  1  0
  6  7  2  0
  6  8  1  0
  8  9  2  0
  9 10  1  0
  9 11  1  0
 11 12  2  0
 12 13  1  0
 12 14  1  0
 14 15  1  0
 14 16  2  0
 16 17  1  0
 16 18  1  0
 18 19  1  0
 18 20  2  0
 20 21  1  0
 21 22  1  0
  4 23  1  0
 23 24  1  0
 23 25  2  0
 25 26  1  0
 25 27  1  0
 27 28  1  0
 28 29  1  0
 28 30  1  0
 28 31  1  0
 27  2  2  0
 21  8  1  0
 20 11  1  0
M  CHG  1   3  -1
M  END
>  <UniqueID>  (79) 
69

>  <SMILES>  (79) 
Cc1cc/c(=N\C(=O)c2cc3ccccc3[nH]2)[n-]c1

>  <Energy>  (79) 
74.85036819049326

>  <Genealogy>  (79) 
Cc1ccc(=NC(=O)c2cc3ccccc3[nH]2)[n-]c1 (protonated)
Cc1cc/c(=N\C(=O)c2cc3ccccc3[nH]2)[n-]c1 (cis-trans isomerization)
Cc1cc/c(=N\C(=O)c2cc3ccccc3[nH]2)[n-]c1 (3D coordinates assigned)
Cc1cc/c(=N\C(=O)c2cc3ccccc3[nH]2)[n-]c1 (optimized conformer: 74.85036819049326 kcal/mol)

>  <smiles>  (79) 
Cc1ccc(=NC(=O)c2cc3ccccc3[nH]2)[nH]c1

>  <score_type>  (79) 
oracle

>  <origin>  (79) 
adg

>  <m_score__min__energy>  (79) 
-9.3800000000000008

>  <m_primary>  (79) 
energy

$$$$
79:0
     RDKit          3D

 46 48  0  0  0  0  0  0  0  0999 V2000
   56.3400   24.6870   45.5240 O   0  0  0  0  0  0  0  0  0  0  0  0
   56.1150   25.8320   46.0000 C   0  0  0  0  0  0  0  0  0  0  0  0
   54.8180   26.3310   45.9690 O   0  0  0  0  0  0  0  0  0  0  0  0
   57.2130   26.6320   46.5840 C   0  0  0  0  0  0  0  0  0  0  0  0
   58.1110   26.0480   47.4940 C   0  0  0  0  0  0  0  0  0  0  0  0
   59.1520   26.8010   48.0480 C   0  0  0  0  0  0  0  0  0  0  0  0
   59.3180   28.1490   47.6890 C   0  0  0  0  0  0  0  0  0  0  0  0
   60.3580   28.9610   48.2480 N   0  0  0  0  0  0  0  0  0  0  0  0
   60.1960   30.0430   49.1750 C   0  0  0  0  0  0  0  0  0  0  0  0
   60.7510   30.0100   50.3070 O   0  0  0  0  0  0  0  0  0  0  0  0
   59.4490   31.2800   48.7540 C   0  0  1  0  0  0  0  0  0  0  0  0
   60.1940   32.5670   49.1810 C   0  0  0  0  0  0  0  0  0  0  0  0
   61.4180   32.8760   48.3450 C   0  0  0  0  0  0  0  0  0  0  0  0
   62.6840   32.4170   48.7480 C   0  0  0  0  0  0  0  0  0  0  0  0
   63.8120   32.6760   47.9620 C   0  0  0  0  0  0  0  0  0  0  0  0
   63.6870   33.4040   46.7760 C   0  0  0  0  0  0  0  0  0  0  0  0
   62.4350   33.8800   46.3770 C   0  0  0  0  0  0  0  0  0  0  0  0
   61.3050   33.6220   47.1580 C   0  0  0  0  0  0  0  0  0  0  0  0
   59.1880   31.2560   47.3080 N   0  0  0  0  0  0  0  0  0  0  0  0
   58.1610   32.0640   46.7070 C   0  0  0  0  0  0  0  0  0  0  0  0
   57.4980   32.8660   47.4210 O   0  0  0  0  0  0  0  0  0  0  0  0
   57.8730   31.9600   45.2590 C   0  0  0  0  0  0  0  0  0  0  0  0
   58.4450   32.8550   44.3390 C   0  0  0  0  0  0  0  0  0  0  0  0
   58.1470   32.7290   42.9810 C   0  0  0  0  0  0  0  0  0  0  0  0
   57.2850   31.7210   42.5480 C   0  0  0  0  0  0  0  0  0  0  0  0
   56.7320   30.8480   43.4870 C   0  0  0  0  0  0  0  0  0  0  0  0
   57.0340   30.9850   44.8050 N   0  0  0  0  0  0  0  0  0  0  0  0
   58.4130   28.7380   46.8010 C   0  0  0  0  0  0  0  0  0  0  0  0
   57.3730   27.9870   46.2450 C   0  0  0  0  0  0  0  0  0  0  0  0
   57.9944   24.9903   47.7729 H   0  0  0  0  0  0  0  0  0  0  0  0
   59.8426   26.3360   48.7669 H   0  0  0  0  0  0  0  0  0  0  0  0
   58.4792   31.2877   49.2730 H   0  0  0  0  0  0  0  0  0  0  0  0
   59.4965   33.4137   49.0993 H   0  0  0  0  0  0  0  0  0  0  0  0
   60.5446   32.4050   50.2110 H   0  0  0  0  0  0  0  0  0  0  0  0
   62.7883   31.8515   49.6857 H   0  0  0  0  0  0  0  0  0  0  0  0
   64.7985   32.3060   48.2781 H   0  0  0  0  0  0  0  0  0  0  0  0
   64.5739   33.6025   46.1564 H   0  0  0  0  0  0  0  0  0  0  0  0
   62.3388   34.4588   45.4465 H   0  0  0  0  0  0  0  0  0  0  0  0
   60.3228   34.0041   46.8429 H   0  0  0  0  0  0  0  0  0  0  0  0
   59.7840   30.6670   46.6890 H   0  0  0  0  0  0  0  0  0  0  0  0
   59.1225   33.6490   44.6863 H   0  0  0  0  0  0  0  0  0  0  0  0
   58.5914   33.4237   42.2531 H   0  0  0  0  0  0  0  0  0  0  0  0
   57.0440   31.6153   41.4799 H   0  0  0  0  0  0  0  0  0  0  0  0
   56.0511   30.0485   43.1596 H   0  0  0  0  0  0  0  0  0  0  0  0
   58.5200   29.8006   46.5377 H   0  0  0  0  0  0  0  0  0  0  0  0
   56.6754   28.4594   45.5377 H   0  0  0  0  0  0  0  0  0  0  0  0
  1  2  2  0
  2  3  1  0
  2  4  1  0
  4  5  2  0
  5  6  1  0
  6  7  2  0
  7  8  1  0
  8  9  1  0
  9 10  2  0
  9 11  1  0
 11 12  1  0
 12 13  1  0
 13 14  2  0
 14 15  1  0
 15 16  2  0
 16 17  1  0
 17 18  2  0
 11 19  1  0
 19 20  1  0
 20 21  2  0
 20 22  1  0
 22 23  2  0
 23 24  1  0
 24 25  2  0
 25 26  1  0
 26 27  2  0
  7 28  1  0
 28 29  2  0
 29  4  1  0
 18 13  1  0
 27 22  1  0
  5 30  1  0
  6 31  1  0
 11 32  1  1
 12 33  1  0
 12 34  1  0
 14 35  1  0
 15 36  1  0
 16 37  1  0
 17 38  1  0
 18 39  1  0
 19 40  1  0
 23 41  1  0
 24 42  1  0
 25 43  1  0
 26 44  1  0
 28 45  1  0
 29 46  1  0
M  CHG  2   3  -1   8  -1
M  END
>  <UniqueID>  (80) 
70

>  <SMILES>  (80) 
O=C([O-])c1ccc([N-]C(=O)[C@@H](Cc2ccccc2)NC(=O)c2ccccn2)cc1

>  <Energy>  (80) 
50.03266564403499

>  <Genealogy>  (80) 
O=C([O-])c1ccc([N-]C(=O)C(Cc2ccccc2)NC(=O)c2ccccn2)cc1 (protonated)
O=C([O-])c1ccc([N-]C(=O)[C@@H](Cc2ccccc2)NC(=O)c2ccccn2)cc1 (chirality)
O=C([O-])c1ccc([N-]C(=O)[C@@H](Cc2ccccc2)NC(=O)c2ccccn2)cc1 (3D coordinates assigned)
O=C([O-])c1ccc([N-]C(=O)[C@@H](Cc2ccccc2)NC(=O)c2ccccn2)cc1 (optimized conformer: 50.03266564403499 kcal/mol)

>  <smiles>  (80) 
O=C(O)c1ccc(NC(=O)C(Cc2ccccc2)NC(=O)c2ccccn2)cc1

>  <score_type>  (80) 
oracle

>  <origin>  (80) 
adg

>  <m_score__min__energy>  (80) 
-11.5

>  <m_primary>  (80) 
energy

$$$$
80:0
     RDKit          3D

 33 34  0  0  0  0  0  0  0  0999 V2000
   55.7670   28.2460   44.1050 H   0  0  0  0  0  0  0  0  0  0  0  0
   55.1970   28.9670   44.5270 O   0  0  0  0  0  0  0  0  0  0  0  0
   55.6430   30.2640   44.7000 N   0  0  0  0  0  0  0  0  0  0  0  0
   56.7740   30.7250   44.2480 C   0  0  0  0  0  0  0  0  0  0  0  0
   57.5170   31.8030   44.9360 C   0  0  0  0  0  0  0  0  0  0  0  0
   58.6990   31.5060   45.6300 C   0  0  0  0  0  0  0  0  0  0  0  0
   59.0623   30.4686   45.6725 H   0  0  0  0  0  0  0  0  0  0  0  0
   59.4180   32.5210   46.2680 C   0  0  0  0  0  0  0  0  0  0  0  0
   60.3356   32.2765   46.8232 H   0  0  0  0  0  0  0  0  0  0  0  0
   58.9740   33.8500   46.2030 C   0  0  0  0  0  0  0  0  0  0  0  0
   59.7140   34.9360   46.9480 C   0  0  0  0  0  0  0  0  0  0  0  0
   60.6296   35.1881   46.3929 H   0  0  0  0  0  0  0  0  0  0  0  0
   59.0488   35.8082   47.0305 H   0  0  0  0  0  0  0  0  0  0  0  0
   60.0830   34.5120   48.3080 N   0  0  0  0  0  0  0  0  0  0  0  0
   59.4390   33.7410   48.6040 H   0  0  0  0  0  0  0  0  0  0  0  0
   59.9470   35.3030   48.9790 H   0  0  0  0  0  0  0  0  0  0  0  0
   61.4450   34.0310   48.3590 C   0  0  0  0  0  0  0  0  0  0  0  0
   62.1800   33.8330   47.1790 C   0  0  0  0  0  0  0  0  0  0  0  0
   61.7082   34.0150   46.2022 H   0  0  0  0  0  0  0  0  0  0  0  0
   63.4730   33.4170   47.2400 N   0  0  0  0  0  0  0  0  0  0  0  0
   64.0950   33.1860   48.4260 C   0  0  0  0  0  0  0  0  0  0  0  0
   65.1417   32.8481   48.4407 H   0  0  0  0  0  0  0  0  0  0  0  0
   63.4070   33.3770   49.6260 C   0  0  0  0  0  0  0  0  0  0  0  0
   63.9077   33.1953   50.5884 H   0  0  0  0  0  0  0  0  0  0  0  0
   62.0770   33.8010   49.5920 C   0  0  0  0  0  0  0  0  0  0  0  0
   61.5244   33.9548   50.5306 H   0  0  0  0  0  0  0  0  0  0  0  0
   57.8010   34.1510   45.4930 C   0  0  0  0  0  0  0  0  0  0  0  0
   57.4459   35.1906   45.4374 H   0  0  0  0  0  0  0  0  0  0  0  0
   57.0830   33.1360   44.8570 C   0  0  0  0  0  0  0  0  0  0  0  0
   56.1725   33.3822   44.2910 H   0  0  0  0  0  0  0  0  0  0  0  0
   57.3110   30.1730   43.0450 N   0  0  0  0  0  0  0  0  0  0  0  0
   58.2030   30.5370   42.6410 H   0  0  0  0  0  0  0  0  0  0  0  0
   56.8100   29.4050   42.5450 H   0  0  0  0  0  0  0  0  0  0  0  0
  1  2  1  0
  2  3  1  0
  3  4  2  0
  4  5  1  0
  5  6  2  0
  6  7  1  0
  6  8  1  0
  8  9  1  0
  8 10  2  0
 10 11  1  0
 11 12  1  0
 11 13  1  0
 11 14  1  0
 14 15  1  0
 14 16  1  0
 14 17  1  0
 17 18  2  0
 18 19  1  0
 18 20  1  0
 20 21  2  0
 21 22  1  0
 21 23  1  0
 23 24  1  0
 23 25  2  0
 25 26  1  0
 10 27  1  0
 27 28  1  0
 27 29  2  0
 29 30  1  0
  4 31  1  0
 31 32  1  0
 31 33  1  0
 29  5  1  0
 25 17  1  0
M  CHG  1  14   1
M  END
>  <UniqueID>  (81) 
71

>  <SMILES>  (81) 
N/C(=N/O)c1ccc(C[NH2+]c2cccnc2)cc1

>  <Energy>  (81) 
40.30998415171564

>  <Genealogy>  (81) 
NC(=NO)c1ccc(C[NH2+]c2cccnc2)cc1 (protonated)
N/C(=N/O)c1ccc(C[NH2+]c2cccnc2)cc1 (cis-trans isomerization)
N/C(=N/O)c1ccc(C[NH2+]c2cccnc2)cc1 (3D coordinates assigned)
N/C(=N/O)c1ccc(C[NH2+]c2cccnc2)cc1 (optimized conformer: 40.30998415171564 kcal/mol)

>  <smiles>  (81) 
NC(=NO)c1ccc(CNc2cccnc2)cc1

>  <score_type>  (81) 
oracle

>  <origin>  (81) 
adg

>  <m_score__min__energy>  (81) 
-6.6900000000000004

>  <m_primary>  (81) 
energy

$$$$
81:0
     RDKit          3D

 45 47  0  0  0  0  0  0  0  0999 V2000
   54.2774   24.7381   46.1491 H   0  0  0  0  0  0  0  0  0  0  0  0
   55.2450   25.1610   45.8410 C   0  0  0  0  0  0  0  0  0  0  0  0
   55.4860   26.4880   46.0000 N   0  0  0  0  0  0  0  0  0  0  0  0
   56.6640   27.0600   45.6190 C   0  0  0  0  0  0  0  0  0  0  0  0
   56.8750   28.3350   45.7740 N   0  0  0  0  0  0  0  0  0  0  0  0
   56.3870   29.3880   44.9270 C   0  0  0  0  0  0  0  0  0  0  0  0
   55.1660   29.4050   44.6280 O   0  0  0  0  0  0  0  0  0  0  0  0
   57.2380   30.4250   44.4140 N   0  0  0  0  0  0  0  0  0  0  0  0
   57.5850   31.6660   45.0480 C   0  0  0  0  0  0  0  0  0  0  0  0
   57.4910   32.8490   44.3070 C   0  0  0  0  0  0  0  0  0  0  0  0
   57.1594   32.8116   43.2588 H   0  0  0  0  0  0  0  0  0  0  0  0
   57.8150   34.0770   44.8880 C   0  0  0  0  0  0  0  0  0  0  0  0
   57.7441   35.0008   44.2950 H   0  0  0  0  0  0  0  0  0  0  0  0
   58.2290   34.1340   46.2210 C   0  0  0  0  0  0  0  0  0  0  0  0
   58.5008   35.1015   46.6682 H   0  0  0  0  0  0  0  0  0  0  0  0
   58.3000   32.9670   46.9910 C   0  0  0  0  0  0  0  0  0  0  0  0
   58.7780   33.0610   48.3420 N   0  0  0  0  0  0  0  0  0  0  0  0
   59.9380   33.7730   48.7970 C   0  0  0  0  0  0  0  0  0  0  0  0
   59.8120   34.5870   49.7500 O   0  0  0  0  0  0  0  0  0  0  0  0
   61.2780   33.5320   48.2200 C   0  0  0  0  0  0  0  0  0  0  0  0
   61.5660   33.9890   46.9230 C   0  0  0  0  0  0  0  0  0  0  0  0
   60.7897   34.5076   46.3413 H   0  0  0  0  0  0  0  0  0  0  0  0
   62.8310   33.7890   46.3680 C   0  0  0  0  0  0  0  0  0  0  0  0
   63.0480   34.1485   45.3513 H   0  0  0  0  0  0  0  0  0  0  0  0
   63.8200   33.1340   47.1010 C   0  0  0  0  0  0  0  0  0  0  0  0
   64.8153   32.9754   46.6602 H   0  0  0  0  0  0  0  0  0  0  0  0
   63.5500   32.6790   48.3930 C   0  0  0  0  0  0  0  0  0  0  0  0
   64.3343   32.1620   48.9654 H   0  0  0  0  0  0  0  0  0  0  0  0
   62.2780   32.8780   48.9690 C   0  0  0  0  0  0  0  0  0  0  0  0
   61.9880   32.4650   50.2810 O   0  0  0  0  0  0  0  0  0  0  0  0
   62.1140   33.2900   51.4340 C   0  0  0  0  0  0  0  0  0  0  0  0
   62.0196   32.6720   52.3391 H   0  0  0  0  0  0  0  0  0  0  0  0
   63.0977   33.7822   51.4270 H   0  0  0  0  0  0  0  0  0  0  0  0
   61.3220   34.0534   51.4270 H   0  0  0  0  0  0  0  0  0  0  0  0
   57.9780   31.7320   46.3980 C   0  0  0  0  0  0  0  0  0  0  0  0
   58.0340   30.8098   46.9950 H   0  0  0  0  0  0  0  0  0  0  0  0
   57.6670   26.2630   45.0590 C   0  0  0  0  0  0  0  0  0  0  0  0
   58.6270   26.7095   44.7607 H   0  0  0  0  0  0  0  0  0  0  0  0
   57.4420   24.8970   44.8810 C   0  0  0  0  0  0  0  0  0  0  0  0
   58.2187   24.2666   44.4235 H   0  0  0  0  0  0  0  0  0  0  0  0
   56.2270   24.3290   45.2850 C   0  0  0  0  0  0  0  0  0  0  0  0
   55.9540   22.8720   45.0600 C   0  0  0  0  0  0  0  0  0  0  0  0
   55.8586   22.3627   46.0303 H   0  0  0  0  0  0  0  0  0  0  0  0
   55.0188   22.7576   44.4923 H   0  0  0  0  0  0  0  0  0  0  0  0
   56.7843   22.4268   44.4923 H   0  0  0  0  0  0  0  0  0  0  0  0
  1  2  1  0
  2  3  1  0
  3  4  1  0
  4  5  2  0
  5  6  1  0
  6  7  2  0
  6  8  1  0
  8  9  1  0
  9 10  2  0
 10 11  1  0
 10 12  1  0
 12 13  1  0
 12 14  2  0
 14 15  1  0
 14 16  1  0
 16 17  1  0
 17 18  1  0
 18 19  2  0
 18 20  1  0
 20 21  2  0
 21 22  1  0
 21 23  1  0
 23 24  1  0
 23 25  2  0
 25 26  1  0
 25 27  1  0
 27 28  1  0
 27 29  2  0
 29 30  1  0
 30 31  1  0
 31 32  1  0
 31 33  1  0
 31 34  1  0
 16 35  2  0
 35 36  1  0
  4 37  1  0
 37 38  1  0
 37 39  2  0
 39 40  1  0
 39 41  1  0
 41 42  1  0
 42 43  1  0
 42 44  1  0
 42 45  1  0
 41  2  2  0
 35  9  1  0
 29 20  1  0
M  CHG  3   3  -1   8  -1  17  -1
M  END
>  <UniqueID>  (82) 
72

>  <SMILES>  (82) 
COc1ccccc1C(=O)[N-]c1cccc([N-]C(=O)/N=c2/ccc(C)c[n-]2)c1

>  <Energy>  (82) 
61.94173578701418

>  <Genealogy>  (82) 
COc1ccccc1C(=O)[N-]c1cccc([N-]C(=O)N=c2ccc(C)c[n-]2)c1 (protonated)
COc1ccccc1C(=O)[N-]c1cccc([N-]C(=O)/N=c2/ccc(C)c[n-]2)c1 (cis-trans isomerization)
COc1ccccc1C(=O)[N-]c1cccc([N-]C(=O)/N=c2/ccc(C)c[n-]2)c1 (3D coordinates assigned)
COc1ccccc1C(=O)[N-]c1cccc([N-]C(=O)/N=c2/ccc(C)c[n-]2)c1 (optimized conformer: 61.94173578701418 kcal/mol)

>  <smiles>  (82) 
COc1ccccc1C(=O)Nc1cccc(NC(=O)N=c2ccc(C)c[nH]2)c1

>  <score_type>  (82) 
oracle

>  <origin>  (82) 
adg

>  <m_score__min__energy>  (82) 
-12.710000000000001

>  <m_primary>  (82) 
energy

$$$$
82:0
     RDKit          3D

 51 53  0  0  0  0  0  0  0  0999 V2000
   63.6100   32.5180   47.4740 C   0  0  0  0  0  0  0  0  0  0  0  0
   63.0620   33.7970   46.8510 C   0  0  0  0  0  0  0  0  0  0  0  0
   61.5750   33.8950   47.0580 C   0  0  0  0  0  0  0  0  0  0  0  0
   61.0540   34.1850   48.3290 C   0  0  0  0  0  0  0  0  0  0  0  0
   59.6730   34.2320   48.5290 C   0  0  0  0  0  0  0  0  0  0  0  0
   58.8000   33.9850   47.4670 C   0  0  0  0  0  0  0  0  0  0  0  0
   59.3050   33.6920   46.1900 C   0  0  0  0  0  0  0  0  0  0  0  0
   58.3650   33.3740   45.0610 C   0  0  0  0  0  0  0  0  0  0  0  0
   57.8410   31.9780   45.2060 C   0  0  0  0  0  0  0  0  0  0  0  0
   56.6480   31.7320   44.8860 O   0  0  0  0  0  0  0  0  0  0  0  0
   58.6680   30.9590   45.7940 N   0  0  0  0  0  0  0  0  0  0  0  0
   58.3080   29.5700   45.8610 C   0  0  0  0  0  0  0  0  0  0  0  0
   58.4200   28.8390   47.0580 C   0  0  0  0  0  0  0  0  0  0  0  0
   58.0380   27.4950   47.1020 C   0  0  0  0  0  0  0  0  0  0  0  0
   57.5220   26.8680   45.9590 C   0  0  0  0  0  0  0  0  0  0  0  0
   57.0210   25.1790   46.0220 S   0  0  0  0  0  0  0  0  0  0  0  0
   57.4780   24.5880   47.3270 O   0  0  0  0  0  0  0  0  0  0  0  0
   55.5200   25.1070   45.9890 O   0  0  0  0  0  0  0  0  0  0  0  0
   57.6760   24.2310   44.7020 N   0  0  0  0  0  0  0  0  0  0  0  0
   56.9700   24.4630   43.4230 C   0  0  0  0  0  0  0  0  0  0  0  0
   55.9870   23.3360   43.0690 C   0  0  0  0  0  0  0  0  0  0  0  0
   55.4790   22.7410   44.2390 O   0  0  0  0  0  0  0  0  0  0  0  0
   56.5020   22.0060   44.8830 C   0  0  0  0  0  0  0  0  0  0  0  0
   57.8180   22.8040   45.0450 C   0  0  0  0  0  0  0  0  0  0  0  0
   57.3990   27.5970   44.7690 C   0  0  0  0  0  0  0  0  0  0  0  0
   57.7800   28.9410   44.7240 C   0  0  0  0  0  0  0  0  0  0  0  0
   60.6940   33.6370   45.9950 C   0  0  0  0  0  0  0  0  0  0  0  0
   63.5749   32.5999   48.5704 H   0  0  0  0  0  0  0  0  0  0  0  0
   62.9997   31.6619   47.1506 H   0  0  0  0  0  0  0  0  0  0  0  0
   64.6508   32.3693   47.1506 H   0  0  0  0  0  0  0  0  0  0  0  0
   63.5497   34.6645   47.3196 H   0  0  0  0  0  0  0  0  0  0  0  0
   63.2682   33.7805   45.7706 H   0  0  0  0  0  0  0  0  0  0  0  0
   61.7363   34.3759   49.1704 H   0  0  0  0  0  0  0  0  0  0  0  0
   59.2711   34.4643   49.5263 H   0  0  0  0  0  0  0  0  0  0  0  0
   57.7130   34.0201   47.6316 H   0  0  0  0  0  0  0  0  0  0  0  0
   57.5235   34.0822   45.0776 H   0  0  0  0  0  0  0  0  0  0  0  0
   58.9060   33.4585   44.1070 H   0  0  0  0  0  0  0  0  0  0  0  0
   59.5390   31.2640   46.2840 H   0  0  0  0  0  0  0  0  0  0  0  0
   58.8099   29.3273   47.9633 H   0  0  0  0  0  0  0  0  0  0  0  0
   58.1427   26.9266   48.0379 H   0  0  0  0  0  0  0  0  0  0  0  0
   56.4098   25.4067   43.4976 H   0  0  0  0  0  0  0  0  0  0  0  0
   57.7300   24.4995   42.6286 H   0  0  0  0  0  0  0  0  0  0  0  0
   55.1541   23.7525   42.4834 H   0  0  0  0  0  0  0  0  0  0  0  0
   56.5175   22.5718   42.4821 H   0  0  0  0  0  0  0  0  0  0  0  0
   56.1459   21.7129   45.8817 H   0  0  0  0  0  0  0  0  0  0  0  0
   56.7248   21.1339   44.2507 H   0  0  0  0  0  0  0  0  0  0  0  0
   58.1475   22.7268   46.0916 H   0  0  0  0  0  0  0  0  0  0  0  0
   58.5515   22.3711   44.3489 H   0  0  0  0  0  0  0  0  0  0  0  0
   57.0011   27.1098   43.8666 H   0  0  0  0  0  0  0  0  0  0  0  0
   57.6649   29.5099   43.7896 H   0  0  0  0  0  0  0  0  0  0  0  0
   61.0959   33.3898   45.0013 H   0  0  0  0  0  0  0  0  0  0  0  0
  1  2  1  0
  2  3  1  0
  3  4  2  0
  4  5  1  0
  5  6  2  0
  6  7  1  0
  7  8  1  0
  8  9  1  0
  9 10  2  0
  9 11  1  0
 11 12  1  0
 12 13  2  0
 13 14  1  0
 14 15  2  0
 15 16  1  0
 16 17  2  0
 16 18  2  0
 16 19  1  0
 19 20  1  0
 20 21  1  0
 21 22  1  0
 22 23  1  0
 23 24  1  0
 15 25  1  0
 25 26  2  0
  7 27  2  0
 27  3  1  0
 26 12  1  0
 24 19  1  0
  1 28  1  0
  1 29  1  0
  1 30  1  0
  2 31  1  0
  2 32  1  0
  4 33  1  0
  5 34  1  0
  6 35  1  0
  8 36  1  0
  8 37  1  0
 11 38  1  0
 13 39  1  0
 14 40  1  0
 20 41  1  0
 20 42  1  0
 21 43  1  0
 21 44  1  0
 23 45  1  0
 23 46  1  0
 24 47  1  0
 24 48  1  0
 25 49  1  0
 26 50  1  0
 27 51  1  0
M  END
>  <UniqueID>  (83) 
73

>  <SMILES>  (83) 
CCc1cccc(CC(=O)Nc2ccc(S(=O)(=O)N3CCOCC3)cc2)c1

>  <Energy>  (83) 
60.07190188767614

>  <Genealogy>  (83) 
CCc1cccc(CC(=O)Nc2ccc(S(=O)(=O)N3CCOCC3)cc2)c1 (3D coordinates assigned)
CCc1cccc(CC(=O)Nc2ccc(S(=O)(=O)N3CCOCC3)cc2)c1 (nonaromatic ring conformer: 60.07190188767614 kcal/mol)

>  <smiles>  (83) 
CCc1cccc(CC(=O)Nc2ccc(S(=O)(=O)N3CCOCC3)cc2)c1

>  <score_type>  (83) 
oracle

>  <origin>  (83) 
adg

>  <m_score__min__energy>  (83) 
-9.3399999999999999

>  <m_primary>  (83) 
energy

$$$$
83:0
     RDKit          3D

 16 16  0  0  0  0  0  0  0  0999 V2000
   54.0960   29.5380   52.3070 C   0  0  0  0  0  0  0  0  0  0  0  0
   53.0420   30.2470   51.5090 C   0  0  0  0  0  0  0  0  0  0  0  0
   52.5100   31.4640   51.9650 C   0  0  0  0  0  0  0  0  0  0  0  0
   51.5540   32.1450   51.2040 C   0  0  0  0  0  0  0  0  0  0  0  0
   51.0240   33.3430   51.6640 O   0  0  0  0  0  0  0  0  0  0  0  0
   51.1340   31.6200   49.9770 C   0  0  0  0  0  0  0  0  0  0  0  0
   51.6700   30.4170   49.5060 C   0  0  0  0  0  0  0  0  0  0  0  0
   51.2480   29.9100   48.2790 O   0  0  0  0  0  0  0  0  0  0  0  0
   52.6290   29.7350   50.2690 C   0  0  0  0  0  0  0  0  0  0  0  0
   53.8959   29.6726   53.3802 H   0  0  0  0  0  0  0  0  0  0  0  0
   54.0812   28.4655   52.0630 H   0  0  0  0  0  0  0  0  0  0  0  0
   55.0838   29.9560   52.0630 H   0  0  0  0  0  0  0  0  0  0  0  0
   52.8464   31.8835   52.9246 H   0  0  0  0  0  0  0  0  0  0  0  0
   50.3800   32.1550   49.3809 H   0  0  0  0  0  0  0  0  0  0  0  0
   50.2960   30.0350   47.9540 H   0  0  0  0  0  0  0  0  0  0  0  0
   53.0594   28.7947   49.8940 H   0  0  0  0  0  0  0  0  0  0  0  0
  1  2  1  0
  2  3  2  0
  3  4  1  0
  4  5  1  0
  4  6  2  0
  6  7  1  0
  7  8  1  0
  7  9  2  0
  9  2  1  0
  1 10  1  0
  1 11  1  0
  1 12  1  0
  3 13  1  0
  6 14  1  0
  8 15  1  0
  9 16  1  0
M  CHG  1   5  -1
M  END
>  <UniqueID>  (84) 
74

>  <SMILES>  (84) 
Cc1cc([O-])cc(O)c1

>  <Energy>  (84) 
13.359514596729875

>  <Genealogy>  (84) 
Cc1cc([O-])cc(O)c1 (protonated)
Cc1cc([O-])cc(O)c1 (3D coordinates assigned)
Cc1cc([O-])cc(O)c1 (optimized conformer: 13.359514596729875 kcal/mol)

>  <smiles>  (84) 
Cc1cc(O)cc(O)c1

>  <score_type>  (84) 
oracle

>  <origin>  (84) 
adg

>  <m_score__min__energy>  (84) 
-8.5299999999999994

>  <m_primary>  (84) 
energy

$$$$
84:0
     RDKit          3D

 57 61  0  0  0  0  0  0  0  0999 V2000
   57.0060   22.0693   47.2657 H   0  0  0  0  0  0  0  0  0  0  0  0
   57.1520   22.8730   46.5290 C   0  0  0  0  0  0  0  0  0  0  0  0
   57.4920   24.0860   46.9860 C   0  0  0  0  0  0  0  0  0  0  0  0
   58.2738   24.1626   47.7560 H   0  0  0  0  0  0  0  0  0  0  0  0
   56.8560   25.3210   46.4940 C   0  0  0  0  0  0  0  0  0  0  0  0
   55.5180   25.5210   46.5250 N   0  0  0  0  0  0  0  0  0  0  0  0
   55.2420   26.7110   46.0010 N   0  0  0  0  0  0  0  0  0  0  0  0
   56.4070   27.2640   45.6260 C   0  0  0  0  0  0  0  0  0  0  0  0
   56.5980   28.4910   44.9960 C   0  0  0  0  0  0  0  0  0  0  0  0
   55.7497   29.1627   44.7977 H   0  0  0  0  0  0  0  0  0  0  0  0
   57.9100   28.8490   44.6190 C   0  0  0  0  0  0  0  0  0  0  0  0
   58.1380   30.1200   43.9880 N   0  0  0  0  0  0  0  0  0  0  0  0
   58.1330   30.1530   42.9420 H   0  0  0  0  0  0  0  0  0  0  0  0
   58.3750   31.3470   44.6980 C   0  0  0  0  0  0  0  0  0  0  0  0
   57.7380   32.5220   44.2750 C   0  0  0  0  0  0  0  0  0  0  0  0
   57.0441   32.4909   43.4220 H   0  0  0  0  0  0  0  0  0  0  0  0
   57.9790   33.7320   44.9300 C   0  0  0  0  0  0  0  0  0  0  0  0
   57.4721   34.6485   44.5936 H   0  0  0  0  0  0  0  0  0  0  0  0
   58.8620   33.7810   46.0110 C   0  0  0  0  0  0  0  0  0  0  0  0
   59.0491   34.7369   46.5222 H   0  0  0  0  0  0  0  0  0  0  0  0
   59.5130   32.6140   46.4490 C   0  0  0  0  0  0  0  0  0  0  0  0
   60.4570   32.6460   47.5330 N   0  0  0  0  0  0  0  0  0  0  0  0
   60.6080   31.7660   48.0770 H   0  0  0  0  0  0  0  0  0  0  0  0
   61.0980   33.8440   48.0020 C   0  0  0  0  0  0  0  0  0  0  0  0
   60.6450   34.9720   47.6690 O   0  0  0  0  0  0  0  0  0  0  0  0
   62.2860   33.7550   48.8890 C   0  0  0  0  0  0  0  0  0  0  0  0
   62.1650   34.2030   50.2170 C   0  0  0  0  0  0  0  0  0  0  0  0
   61.2126   34.6321   50.5617 H   0  0  0  0  0  0  0  0  0  0  0  0
   63.2400   34.1090   51.1020 C   0  0  0  0  0  0  0  0  0  0  0  0
   63.1314   34.4636   52.1376 H   0  0  0  0  0  0  0  0  0  0  0  0
   64.4500   33.5670   50.6760 C   0  0  0  0  0  0  0  0  0  0  0  0
   65.2933   33.4880   51.3778 H   0  0  0  0  0  0  0  0  0  0  0  0
   64.5950   33.1240   49.3610 C   0  0  0  0  0  0  0  0  0  0  0  0
   65.5530   32.6941   49.0333 H   0  0  0  0  0  0  0  0  0  0  0  0
   63.5270   33.2220   48.4500 C   0  0  0  0  0  0  0  0  0  0  0  0
   63.7430   32.7570   47.0330 C   0  0  0  0  0  0  0  0  0  0  0  0
   64.2064   31.7594   47.0411 H   0  0  0  0  0  0  0  0  0  0  0  0
   62.7756   32.7077   46.5118 H   0  0  0  0  0  0  0  0  0  0  0  0
   64.4047   33.4645   46.5118 H   0  0  0  0  0  0  0  0  0  0  0  0
   59.2850   31.4070   45.7690 C   0  0  0  0  0  0  0  0  0  0  0  0
   59.8236   30.4987   46.0770 H   0  0  0  0  0  0  0  0  0  0  0  0
   58.9880   27.9690   44.9090 C   0  0  0  0  0  0  0  0  0  0  0  0
   60.0135   28.2570   44.6345 H   0  0  0  0  0  0  0  0  0  0  0  0
   58.7590   26.7340   45.5430 C   0  0  0  0  0  0  0  0  0  0  0  0
   59.5853   26.0367   45.7455 H   0  0  0  0  0  0  0  0  0  0  0  0
   57.4480   26.4240   45.9060 C   0  0  0  0  0  0  0  0  0  0  0  0
   56.9590   22.5410   45.0930 C   0  0  0  0  0  0  0  0  0  0  0  0
   56.0550   23.3150   44.3450 C   0  0  0  0  0  0  0  0  0  0  0  0
   55.5121   24.1391   44.8308 H   0  0  0  0  0  0  0  0  0  0  0  0
   55.8390   23.0480   42.9900 C   0  0  0  0  0  0  0  0  0  0  0  0
   55.1231   23.6564   42.4178 H   0  0  0  0  0  0  0  0  0  0  0  0
   56.5300   22.0110   42.3620 C   0  0  0  0  0  0  0  0  0  0  0  0
   56.3562   21.7997   41.2966 H   0  0  0  0  0  0  0  0  0  0  0  0
   57.4420   21.2420   43.0870 C   0  0  0  0  0  0  0  0  0  0  0  0
   57.9902   20.4282   42.5898 H   0  0  0  0  0  0  0  0  0  0  0  0
   57.6610   21.5030   44.4440 C   0  0  0  0  0  0  0  0  0  0  0  0
   58.3843   20.8958   45.0081 H   0  0  0  0  0  0  0  0  0  0  0  0
  1  2  1  0
  2  3  2  0
  3  4  1  0
  3  5  1  0
  5  6  1  0
  6  7  1  0
  7  8  2  0
  8  9  1  0
  9 10  1  0
  9 11  2  0
 11 12  1  0
 12 13  1  0
 12 14  1  0
 14 15  2  0
 15 16  1  0
 15 17  1  0
 17 18  1  0
 17 19  2  0
 19 20  1  0
 19 21  1  0
 21 22  1  0
 22 23  1  0
 22 24  1  0
 24 25  2  0
 24 26  1  0
 26 27  2  0
 27 28  1  0
 27 29  1  0
 29 30  1  0
 29 31  2  0
 31 32  1  0
 31 33  1  0
 33 34  1  0
 33 35  2  0
 35 36  1  0
 36 37  1  0
 36 38  1  0
 36 39  1  0
 21 40  2  0
 40 41  1  0
 11 42  1  0
 42 43  1  0
 42 44  2  0
 44 45  1  0
 44 46  1  0
  2 47  1  0
 47 48  2  0
 48 49  1  0
 48 50  1  0
 50 51  1  0
 50 52  2  0
 52 53  1  0
 52 54  1  0
 54 55  1  0
 54 56  2  0
 56 57  1  0
 46  5  2  0
 56 47  1  0
 46  8  1  0
 40 14  1  0
 35 26  1  0
M  CHG  1   6  -1
M  END
>  <UniqueID>  (85) 
75

>  <SMILES>  (85) 
Cc1ccccc1C(=O)Nc1cccc(Nc2ccc3c(/C=C/c4ccccc4)[n-]nc3c2)c1

>  <Energy>  (85) 
120.98045157731796

>  <Genealogy>  (85) 
Cc1ccccc1C(=O)Nc1cccc(Nc2ccc3c(C=Cc4ccccc4)[n-]nc3c2)c1 (protonated)
Cc1ccccc1C(=O)Nc1cccc(Nc2ccc3c(/C=C/c4ccccc4)[n-]nc3c2)c1 (cis-trans isomerization)
Cc1ccccc1C(=O)Nc1cccc(Nc2ccc3c(/C=C/c4ccccc4)[n-]nc3c2)c1 (3D coordinates assigned)
Cc1ccccc1C(=O)Nc1cccc(Nc2ccc3c(/C=C/c4ccccc4)[n-]nc3c2)c1 (optimized conformer: 120.98045157731796 kcal/mol)

>  <smiles>  (85) 
Cc1ccccc1C(=O)Nc1cccc(Nc2ccc3c(C=Cc4ccccc4)[nH]nc3c2)c1

>  <score_type>  (85) 
oracle

>  <origin>  (85) 
adg

>  <m_score__min__energy>  (85) 
-12.83

>  <m_primary>  (85) 
energy

$$$$
85:0
     RDKit          3D

 33 35  0  0  0  0  0  0  0  0999 V2000
   58.5550   32.5460   48.2990 C   0  0  0  0  0  0  0  0  0  0  0  0
   58.7420   33.2110   46.9580 C   0  0  0  0  0  0  0  0  0  0  0  0
   59.3730   34.4680   46.9560 C   0  0  0  0  0  0  0  0  0  0  0  0
   59.6260   35.1430   45.7630 C   0  0  0  0  0  0  0  0  0  0  0  0
   59.2650   34.5690   44.5490 C   0  0  0  0  0  0  0  0  0  0  0  0
   58.6510   33.3170   44.5210 C   0  0  0  0  0  0  0  0  0  0  0  0
   58.3790   32.6120   45.7120 C   0  0  0  0  0  0  0  0  0  0  0  0
   57.7050   31.2440   45.5840 C   0  0  1  0  0  0  0  0  0  0  0  0
   56.7110   31.2390   44.4020 C   0  0  0  0  0  0  0  0  0  0  0  0
   56.1720   29.8670   44.1490 C   0  0  0  0  0  0  0  0  0  0  0  0
   55.0040   29.7200   43.7030 O   0  0  0  0  0  0  0  0  0  0  0  0
   57.0160   28.7270   44.3310 N   0  0  0  0  0  0  0  0  0  0  0  0
   58.2990   28.8540   44.9570 C   0  0  0  0  0  0  0  0  0  0  0  0
   59.1650   27.7510   44.9950 C   0  0  0  0  0  0  0  0  0  0  0  0
   60.3970   27.8430   45.6420 C   0  0  0  0  0  0  0  0  0  0  0  0
   60.7660   29.0300   46.2760 C   0  0  0  0  0  0  0  0  0  0  0  0
   59.9100   30.1330   46.2520 C   0  0  0  0  0  0  0  0  0  0  0  0
   58.6830   30.0740   45.5600 C   0  0  0  0  0  0  0  0  0  0  0  0
   58.7591   33.2719   49.0999 H   0  0  0  0  0  0  0  0  0  0  0  0
   57.5201   32.1837   48.3875 H   0  0  0  0  0  0  0  0  0  0  0  0
   59.2494   31.6975   48.3875 H   0  0  0  0  0  0  0  0  0  0  0  0
   59.6715   34.9255   47.9108 H   0  0  0  0  0  0  0  0  0  0  0  0
   60.1113   36.1300   45.7819 H   0  0  0  0  0  0  0  0  0  0  0  0
   59.4641   35.1036   43.6085 H   0  0  0  0  0  0  0  0  0  0  0  0
   58.3742   32.8719   43.5539 H   0  0  0  0  0  0  0  0  0  0  0  0
   57.1264   31.0809   46.5052 H   0  0  0  0  0  0  0  0  0  0  0  0
   55.8749   31.9149   44.6345 H   0  0  0  0  0  0  0  0  0  0  0  0
   57.2438   31.5738   43.4998 H   0  0  0  0  0  0  0  0  0  0  0  0
   56.6800   27.7910   44.0080 H   0  0  0  0  0  0  0  0  0  0  0  0
   58.8705   26.8078   44.5115 H   0  0  0  0  0  0  0  0  0  0  0  0
   61.0782   26.9794   45.6525 H   0  0  0  0  0  0  0  0  0  0  0  0
   61.7331   29.0970   46.7958 H   0  0  0  0  0  0  0  0  0  0  0  0
   60.1955   31.0561   46.7777 H   0  0  0  0  0  0  0  0  0  0  0  0
  1  2  1  0
  2  3  2  0
  3  4  1  0
  4  5  2  0
  5  6  1  0
  6  7  2  0
  7  8  1  0
  8  9  1  0
  9 10  1  0
 10 11  2  0
 10 12  1  0
 12 13  1  0
 13 14  2  0
 14 15  1  0
 15 16  2  0
 16 17  1  0
 17 18  2  0
  7  2  1  0
 18  8  1  0
 18 13  1  0
  1 19  1  0
  1 20  1  0
  1 21  1  0
  3 22  1  0
  4 23  1  0
  5 24  1  0
  6 25  1  0
  8 26  1  1
  9 27  1  0
  9 28  1  0
 12 29  1  0
 14 30  1  0
 15 31  1  0
 16 32  1  0
 17 33  1  0
M  END
>  <UniqueID>  (86) 
76

>  <SMILES>  (86) 
Cc1ccccc1[C@H]1CC(=O)Nc2ccccc21

>  <Energy>  (86) 
41.89633227345103

>  <Genealogy>  (86) 
Cc1ccccc1[C@H]1CC(=O)Nc2ccccc21 (chirality)
Cc1ccccc1[C@H]1CC(=O)Nc2ccccc21 (3D coordinates assigned)
Cc1ccccc1[C@H]1CC(=O)Nc2ccccc21 (nonaromatic ring conformer: 41.89633227345103 kcal/mol)

>  <smiles>  (86) 
Cc1ccccc1C1CC(=O)Nc2ccccc21

>  <score_type>  (86) 
oracle

>  <origin>  (86) 
adg

>  <m_score__min__energy>  (86) 
-7.6100000000000003

>  <m_primary>  (86) 
energy

$$$$
86:0
     RDKit          3D

 35 37  0  0  0  0  0  0  0  0999 V2000
   55.0359   22.6200   45.9514 H   0  0  0  0  0  0  0  0  0  0  0  0
   55.2260   23.7030   45.9200 C   0  0  0  0  0  0  0  0  0  0  0  0
   56.6840   24.4630   46.2740 S   0  0  0  0  0  0  0  0  0  0  0  0
   56.0690   26.0100   45.9910 C   0  0  0  0  0  0  0  0  0  0  0  0
   56.7150   27.1350   46.0930 N   0  0  0  0  0  0  0  0  0  0  0  0
   56.6160   28.2830   45.2350 C   0  0  0  0  0  0  0  0  0  0  0  0
   55.5440   28.9360   45.1300 O   0  0  0  0  0  0  0  0  0  0  0  0
   57.8280   28.7330   44.4820 C   0  0  0  0  0  0  0  0  0  0  0  0
   58.5789   27.9292   44.4862 H   0  0  0  0  0  0  0  0  0  0  0  0
   57.5425   28.9709   43.4467 H   0  0  0  0  0  0  0  0  0  0  0  0
   58.3940   29.9300   45.1130 N   0  0  0  0  0  0  0  0  0  0  0  0
   59.5520   29.8040   45.7680 N   0  0  0  0  0  0  0  0  0  0  0  0
   60.1500   30.8400   46.4120 C   0  0  0  0  0  0  0  0  0  0  0  0
   61.4520   30.5830   47.1140 C   0  0  0  0  0  0  0  0  0  0  0  0
   61.2942   30.6141   48.2022 H   0  0  0  0  0  0  0  0  0  0  0  0
   61.8339   29.5921   46.8271 H   0  0  0  0  0  0  0  0  0  0  0  0
   62.1818   31.3544   46.8271 H   0  0  0  0  0  0  0  0  0  0  0  0
   59.5290   32.1040   46.4020 C   0  0  0  0  0  0  0  0  0  0  0  0
   60.0930   33.2240   47.0490 C   0  0  0  0  0  0  0  0  0  0  0  0
   61.0506   33.1227   47.5807 H   0  0  0  0  0  0  0  0  0  0  0  0
   59.4440   34.4600   47.0190 C   0  0  0  0  0  0  0  0  0  0  0  0
   59.8922   35.3269   47.5265 H   0  0  0  0  0  0  0  0  0  0  0  0
   58.2300   34.5990   46.3480 C   0  0  0  0  0  0  0  0  0  0  0  0
   57.7225   35.5747   46.3284 H   0  0  0  0  0  0  0  0  0  0  0  0
   57.6570   33.5030   45.7010 C   0  0  0  0  0  0  0  0  0  0  0  0
   56.6994   33.6195   45.1723 H   0  0  0  0  0  0  0  0  0  0  0  0
   58.2980   32.2480   45.7210 C   0  0  0  0  0  0  0  0  0  0  0  0
   57.7380   31.1300   45.0780 C   0  0  0  0  0  0  0  0  0  0  0  0
   56.6340   31.2330   44.4730 O   0  0  0  0  0  0  0  0  0  0  0  0
   54.7690   25.9650   45.6310 N   0  0  0  0  0  0  0  0  0  0  0  0
   54.3020   24.6880   45.5800 C   0  0  0  0  0  0  0  0  0  0  0  0
   52.8800   24.3820   45.2460 C   0  0  0  0  0  0  0  0  0  0  0  0
   52.3037   24.2580   46.1747 H   0  0  0  0  0  0  0  0  0  0  0  0
   52.4551   25.2093   44.6585 H   0  0  0  0  0  0  0  0  0  0  0  0
   52.8330   23.4532   44.6585 H   0  0  0  0  0  0  0  0  0  0  0  0
  1  2  1  0
  2  3  1  0
  3  4  1  0
  4  5  2  0
  5  6  1  0
  6  7  2  0
  6  8  1  0
  8  9  1  0
  8 10  1  0
  8 11  1  0
 11 12  1  0
 12 13  2  0
 13 14  1  0
 14 15  1  0
 14 16  1  0
 14 17  1  0
 13 18  1  0
 18 19  2  0
 19 20  1  0
 19 21  1  0
 21 22  1  0
 21 23  2  0
 23 24  1  0
 23 25  1  0
 25 26  1  0
 25 27  2  0
 27 28  1  0
 28 29  2  0
  4 30  1  0
 30 31  1  0
 31 32  1  0
 32 33  1  0
 32 34  1  0
 32 35  1  0
 31  2  2  0
 28 11  1  0
 27 18  1  0
M  CHG  1  30  -1
M  END
>  <UniqueID>  (87) 
77

>  <SMILES>  (87) 
Cc1cs/c(=N\C(=O)Cn2nc(C)c3ccccc3c2=O)[n-]1

>  <Energy>  (87) 
74.30741634946367

>  <Genealogy>  (87) 
Cc1csc(=NC(=O)Cn2nc(C)c3ccccc3c2=O)[n-]1 (protonated)
Cc1cs/c(=N\C(=O)Cn2nc(C)c3ccccc3c2=O)[n-]1 (cis-trans isomerization)
Cc1cs/c(=N\C(=O)Cn2nc(C)c3ccccc3c2=O)[n-]1 (3D coordinates assigned)
Cc1cs/c(=N\C(=O)Cn2nc(C)c3ccccc3c2=O)[n-]1 (optimized conformer: 74.30741634946367 kcal/mol)

>  <smiles>  (87) 
Cc1csc(=NC(=O)Cn2nc(C)c3ccccc3c2=O)[nH]1

>  <score_type>  (87) 
oracle

>  <origin>  (87) 
adg

>  <m_score__min__energy>  (87) 
-10.119999999999999

>  <m_primary>  (87) 
energy

$$$$
87:0
     RDKit          3D

 47 48  0  0  0  0  0  0  0  0999 V2000
   58.8970   33.4610   44.5800 C   0  0  0  0  0  0  0  0  0  0  0  0
   58.4180   33.3140   46.2880 S   0  0  0  0  0  0  0  0  0  0  0  0
   56.9380   33.0590   46.3590 O   0  0  0  0  0  0  0  0  0  0  0  0
   58.7340   34.6000   46.9970 O   0  0  0  0  0  0  0  0  0  0  0  0
   59.3000   31.9400   47.0330 C   0  0  1  0  0  0  0  0  0  0  0  0
   59.2830   32.0550   48.5440 C   0  0  0  0  0  0  0  0  0  0  0  0
   58.1900   31.9450   49.1590 O   0  0  0  0  0  0  0  0  0  0  0  0
   60.4620   32.3410   49.3120 N   0  0  0  0  0  0  0  0  0  0  0  0
   61.7390   31.6380   49.2410 C   0  0  0  0  0  0  0  0  0  0  0  0
   62.3920   31.8520   47.8740 C   0  0  0  0  0  0  0  0  0  0  0  0
   62.6180   33.5900   47.5420 S   0  0  0  0  0  0  0  0  0  0  0  0
   61.4710   34.5060   48.4550 N   0  0  0  0  0  0  0  0  0  0  0  0
   62.4160   33.8580   46.0780 O   0  0  0  0  0  0  0  0  0  0  0  0
   64.0080   34.0040   47.9380 O   0  0  0  0  0  0  0  0  0  0  0  0
   58.7550   30.6030   46.5630 C   0  0  0  0  0  0  0  0  0  0  0  0
   58.0690   30.4750   45.3410 C   0  0  0  0  0  0  0  0  0  0  0  0
   57.5710   29.2360   44.9300 C   0  0  0  0  0  0  0  0  0  0  0  0
   57.7450   28.0940   45.7300 C   0  0  0  0  0  0  0  0  0  0  0  0
   57.2150   26.7780   45.2940 C   0  0  0  0  0  0  0  0  0  0  0  0
   57.7730   26.1130   44.1870 C   0  0  0  0  0  0  0  0  0  0  0  0
   57.2730   24.8740   43.7760 C   0  0  0  0  0  0  0  0  0  0  0  0
   56.2070   24.2720   44.4630 C   0  0  0  0  0  0  0  0  0  0  0  0
   55.6750   22.9600   44.0320 C   0  0  0  0  0  0  0  0  0  0  0  0
   55.0760   22.2120   44.8490 O   0  0  0  0  0  0  0  0  0  0  0  0
   55.8310   22.5340   42.7180 O   0  0  0  0  0  0  0  0  0  0  0  0
   55.6490   24.9330   45.5700 C   0  0  0  0  0  0  0  0  0  0  0  0
   56.1480   26.1730   45.9800 C   0  0  0  0  0  0  0  0  0  0  0  0
   58.4300   28.2200   46.9510 C   0  0  0  0  0  0  0  0  0  0  0  0
   58.9280   29.4590   47.3620 C   0  0  0  0  0  0  0  0  0  0  0  0
   59.9470   33.7832   44.5201 H   0  0  0  0  0  0  0  0  0  0  0  0
   58.7835   32.4867   44.0822 H   0  0  0  0  0  0  0  0  0  0  0  0
   58.2565   34.2039   44.0822 H   0  0  0  0  0  0  0  0  0  0  0  0
   60.3479   31.9875   46.7017 H   0  0  0  0  0  0  0  0  0  0  0  0
   62.4076   32.0214   50.0258 H   0  0  0  0  0  0  0  0  0  0  0  0
   61.5619   30.5622   49.3867 H   0  0  0  0  0  0  0  0  0  0  0  0
   63.3719   31.3523   47.8607 H   0  0  0  0  0  0  0  0  0  0  0  0
   61.7346   31.4288   47.1002 H   0  0  0  0  0  0  0  0  0  0  0  0
   60.5210   34.1910   48.1540 H   0  0  0  0  0  0  0  0  0  0  0  0
   61.5810   34.2230   49.4550 H   0  0  0  0  0  0  0  0  0  0  0  0
   57.9234   31.3592   44.7030 H   0  0  0  0  0  0  0  0  0  0  0  0
   57.0378   29.1538   43.9714 H   0  0  0  0  0  0  0  0  0  0  0  0
   58.6099   26.5719   43.6402 H   0  0  0  0  0  0  0  0  0  0  0  0
   57.7183   24.3667   42.9075 H   0  0  0  0  0  0  0  0  0  0  0  0
   54.8140   24.4719   46.1178 H   0  0  0  0  0  0  0  0  0  0  0  0
   55.7011   26.6800   46.8479 H   0  0  0  0  0  0  0  0  0  0  0  0
   58.5752   27.3354   47.5885 H   0  0  0  0  0  0  0  0  0  0  0  0
   59.4610   29.5404   48.3208 H   0  0  0  0  0  0  0  0  0  0  0  0
  1  2  1  0
  2  3  2  0
  2  4  2  0
  2  5  1  0
  5  6  1  0
  6  7  2  0
  6  8  1  0
  8  9  1  0
  9 10  1  0
 10 11  1  0
 11 12  1  0
 11 13  2  0
 11 14  2  0
  5 15  1  0
 15 16  2  0
 16 17  1  0
 17 18  2  0
 18 19  1  0
 19 20  2  0
 20 21  1  0
 21 22  2  0
 22 23  1  0
 23 24  2  0
 23 25  1  0
 22 26  1  0
 26 27  2  0
 18 28  1  0
 28 29  2  0
 29 15  1  0
 27 19  1  0
  1 30  1  0
  1 31  1  0
  1 32  1  0
  5 33  1  6
  9 34  1  0
  9 35  1  0
 10 36  1  0
 10 37  1  0
 12 38  1  0
 12 39  1  0
 16 40  1  0
 17 41  1  0
 20 42  1  0
 21 43  1  0
 26 44  1  0
 27 45  1  0
 28 46  1  0
 29 47  1  0
M  CHG  2   8  -1  25  -1
M  END
>  <UniqueID>  (88) 
78

>  <SMILES>  (88) 
CS(=O)(=O)[C@@H](C(=O)[N-]CCS(N)(=O)=O)c1ccc(-c2ccc(C(=O)[O-])cc2)cc1

>  <Energy>  (88) 
37.47448754153634

>  <Genealogy>  (88) 
CS(=O)(=O)C(C(=O)[N-]CCS(N)(=O)=O)c1ccc(-c2ccc(C(=O)[O-])cc2)cc1 (protonated)
CS(=O)(=O)[C@@H](C(=O)[N-]CCS(N)(=O)=O)c1ccc(-c2ccc(C(=O)[O-])cc2)cc1 (chirality)
CS(=O)(=O)[C@@H](C(=O)[N-]CCS(N)(=O)=O)c1ccc(-c2ccc(C(=O)[O-])cc2)cc1 (3D coordinates assigned)
CS(=O)(=O)[C@@H](C(=O)[N-]CCS(N)(=O)=O)c1ccc(-c2ccc(C(=O)[O-])cc2)cc1 (optimized conformer: 37.47448754153634 kcal/mol)

>  <smiles>  (88) 
CS(=O)(=O)C(C(=O)NCCS(N)(=O)=O)c1ccc(-c2ccc(C(=O)O)cc2)cc1

>  <score_type>  (88) 
oracle

>  <origin>  (88) 
adg

>  <m_score__min__energy>  (88) 
-10.449999999999999

>  <m_primary>  (88) 
energy

$$$$
88:0
     RDKit          3D

 41 42  0  0  0  0  0  0  0  0999 V2000
   61.7740   30.7690   47.5390 O   0  0  0  0  0  0  0  0  0  0  0  0
   60.6660   30.2090   47.7530 C   0  0  0  0  0  0  0  0  0  0  0  0
   59.4850   31.0610   48.1650 C   0  0  0  0  0  0  0  0  0  0  0  0
   59.0290   32.0350   47.0390 C   0  0  0  0  0  0  0  0  0  0  0  0
   58.5950   31.2980   45.7450 C   0  0  0  0  0  0  0  0  0  0  0  0
   58.4000   32.1640   44.4920 C   0  0  0  0  0  0  0  0  0  0  0  0
   57.4910   33.3870   44.7040 C   0  0  0  0  0  0  0  0  0  0  0  0
   58.0590   34.5160   45.5940 C   0  0  0  0  0  0  0  0  0  0  0  0
   59.5540   34.4120   45.9160 C   0  0  0  0  0  0  0  0  0  0  0  0
   59.9970   33.2300   46.8200 C   0  0  0  0  0  0  0  0  0  0  0  0
   60.5650   28.7960   47.5210 N   0  0  0  0  0  0  0  0  0  0  0  0
   60.2980   28.1340   46.2470 C   0  0  0  0  0  0  0  0  0  0  0  0
   58.8620   27.6900   46.1570 C   0  0  0  0  0  0  0  0  0  0  0  0
   58.4530   26.4940   46.7670 C   0  0  0  0  0  0  0  0  0  0  0  0
   57.1200   26.0820   46.6900 C   0  0  0  0  0  0  0  0  0  0  0  0
   56.1790   26.8700   46.0200 C   0  0  0  0  0  0  0  0  0  0  0  0
   54.8570   26.4490   45.9420 O   0  0  0  0  0  0  0  0  0  0  0  0
   56.5680   28.0800   45.4330 C   0  0  0  0  0  0  0  0  0  0  0  0
   55.6230   28.8650   44.7750 O   0  0  0  0  0  0  0  0  0  0  0  0
   57.9070   28.4940   45.5110 C   0  0  0  0  0  0  0  0  0  0  0  0
   58.6445   30.3988   48.4200 H   0  0  0  0  0  0  0  0  0  0  0  0
   59.7971   31.6696   49.0265 H   0  0  0  0  0  0  0  0  0  0  0  0
   58.1086   32.5144   47.4037 H   0  0  0  0  0  0  0  0  0  0  0  0
   59.3649   30.5468   45.5148 H   0  0  0  0  0  0  0  0  0  0  0  0
   57.6010   30.8828   45.9677 H   0  0  0  0  0  0  0  0  0  0  0  0
   59.3870   32.5211   44.1628 H   0  0  0  0  0  0  0  0  0  0  0  0
   57.9043   31.5285   43.7434 H   0  0  0  0  0  0  0  0  0  0  0  0
   57.2721   33.8173   43.7156 H   0  0  0  0  0  0  0  0  0  0  0  0
   56.6083   33.0073   45.2394 H   0  0  0  0  0  0  0  0  0  0  0  0
   57.8890   35.4725   45.0781 H   0  0  0  0  0  0  0  0  0  0  0  0
   57.5355   34.4336   46.5579 H   0  0  0  0  0  0  0  0  0  0  0  0
   60.0939   34.3213   44.9619 H   0  0  0  0  0  0  0  0  0  0  0  0
   59.7866   35.3183   46.4943 H   0  0  0  0  0  0  0  0  0  0  0  0
   60.9191   32.8198   46.3826 H   0  0  0  0  0  0  0  0  0  0  0  0
   60.0805   33.6835   47.8187 H   0  0  0  0  0  0  0  0  0  0  0  0
   60.5092   28.8355   45.4265 H   0  0  0  0  0  0  0  0  0  0  0  0
   60.9434   27.2463   46.1727 H   0  0  0  0  0  0  0  0  0  0  0  0
   59.1857   25.8777   47.3086 H   0  0  0  0  0  0  0  0  0  0  0  0
   56.8102   25.1357   47.1575 H   0  0  0  0  0  0  0  0  0  0  0  0
   54.7260   28.4890   44.4930 H   0  0  0  0  0  0  0  0  0  0  0  0
   58.2104   29.4524   45.0644 H   0  0  0  0  0  0  0  0  0  0  0  0
  1  2  2  0
  2  3  1  0
  3  4  1  0
  4  5  1  0
  5  6  1  0
  6  7  1  0
  7  8  1  0
  8  9  1  0
  9 10  1  0
  2 11  1  0
 11 12  1  0
 12 13  1  0
 13 14  2  0
 14 15  1  0
 15 16  2  0
 16 17  1  0
 16 18  1  0
 18 19  1  0
 18 20  2  0
 10  4  1  0
 20 13  1  0
  3 21  1  0
  3 22  1  0
  4 23  1  0
  5 24  1  0
  5 25  1  0
  6 26  1  0
  6 27  1  0
  7 28  1  0
  7 29  1  0
  8 30  1  0
  8 31  1  0
  9 32  1  0
  9 33  1  0
 10 34  1  0
 10 35  1  0
 12 36  1  0
 12 37  1  0
 14 38  1  0
 15 39  1  0
 19 40  1  0
 20 41  1  0
M  CHG  2  11  -1  17  -1
M  END
>  <UniqueID>  (89) 
79

>  <SMILES>  (89) 
O=C(CC1CCCCCC1)[N-]Cc1ccc([O-])c(O)c1

>  <Energy>  (89) 
50.39882190276717

>  <Genealogy>  (89) 
O=C(CC1CCCCCC1)[N-]Cc1ccc([O-])c(O)c1 (protonated)
O=C(CC1CCCCCC1)[N-]Cc1ccc([O-])c(O)c1 (3D coordinates assigned)
O=C(CC1CCCCCC1)[N-]Cc1ccc([O-])c(O)c1 (nonaromatic ring conformer: 50.39882190276717 kcal/mol)

>  <smiles>  (89) 
O=C(CC1CCCCCC1)NCc1ccc(O)c(O)c1

>  <score_type>  (89) 
oracle

>  <origin>  (89) 
adg

>  <m_score__min__energy>  (89) 
-10

>  <m_primary>  (89) 
energy

$$$$
89:0
     RDKit          3D

 37 39  0  0  0  0  0  0  0  0999 V2000
   57.4593   32.5236   40.9814 H   0  0  0  0  0  0  0  0  0  0  0  0
   57.7810   31.9670   41.8740 C   0  0  0  0  0  0  0  0  0  0  0  0
   58.7860   32.1291   42.2907 H   0  0  0  0  0  0  0  0  0  0  0  0
   56.9510   31.0940   42.4520 C   0  0  0  0  0  0  0  0  0  0  0  0
   55.9487   30.9414   42.0252 H   0  0  0  0  0  0  0  0  0  0  0  0
   57.3550   30.3180   43.6690 C   0  0  0  0  0  0  0  0  0  0  0  0
   56.8320   29.3503   43.6763 H   0  0  0  0  0  0  0  0  0  0  0  0
   58.4419   30.1495   43.6502 H   0  0  0  0  0  0  0  0  0  0  0  0
   57.0020   31.0700   44.8700 N   0  0  0  0  0  0  0  0  0  0  0  0
   57.5310   32.2010   45.2420 C   0  0  0  0  0  0  0  0  0  0  0  0
   58.2710   32.2660   46.4240 C   0  0  0  0  0  0  0  0  0  0  0  0
   58.5800   31.2940   47.3530 C   0  0  0  0  0  0  0  0  0  0  0  0
   58.2831   30.2350   47.3349 H   0  0  0  0  0  0  0  0  0  0  0  0
   59.3460   31.9380   48.3160 C   0  0  0  0  0  0  0  0  0  0  0  0
   59.7664   31.4526   49.2091 H   0  0  0  0  0  0  0  0  0  0  0  0
   59.5040   33.2480   48.0030 N   0  0  0  0  0  0  0  0  0  0  0  0
   60.2960   34.2130   48.7690 C   0  0  0  0  0  0  0  0  0  0  0  0
   60.1581   35.2171   48.3415 H   0  0  0  0  0  0  0  0  0  0  0  0
   59.9606   34.2017   49.8166 H   0  0  0  0  0  0  0  0  0  0  0  0
   61.7590   33.8450   48.7160 C   0  0  0  0  0  0  0  0  0  0  0  0
   62.3920   33.6150   47.4790 C   0  0  0  0  0  0  0  0  0  0  0  0
   61.7130   33.7590   46.3140 F   0  0  0  0  0  0  0  0  0  0  0  0
   63.7390   33.2380   47.4360 C   0  0  0  0  0  0  0  0  0  0  0  0
   64.2302   33.0665   46.4668 H   0  0  0  0  0  0  0  0  0  0  0  0
   64.4610   33.0790   48.6210 C   0  0  0  0  0  0  0  0  0  0  0  0
   65.5194   32.7816   48.5839 H   0  0  0  0  0  0  0  0  0  0  0  0
   63.8410   33.2970   49.8520 C   0  0  0  0  0  0  0  0  0  0  0  0
   64.4128   33.1719   50.7833 H   0  0  0  0  0  0  0  0  0  0  0  0
   62.4950   33.6740   49.9060 C   0  0  0  0  0  0  0  0  0  0  0  0
   61.9140   33.8740   51.1150 F   0  0  0  0  0  0  0  0  0  0  0  0
   58.8440   33.4370   46.8410 C   0  0  0  0  0  0  0  0  0  0  0  0
   58.6990   34.6110   46.1020 C   0  0  0  0  0  0  0  0  0  0  0  0
   59.1509   35.5564   46.4367 H   0  0  0  0  0  0  0  0  0  0  0  0
   57.9530   34.5390   44.9130 C   0  0  0  0  0  0  0  0  0  0  0  0
   57.8183   35.4428   44.3006 H   0  0  0  0  0  0  0  0  0  0  0  0
   57.3910   33.3560   44.5070 N   0  0  0  0  0  0  0  0  0  0  0  0
   56.8480   33.3650   43.6170 H   0  0  0  0  0  0  0  0  0  0  0  0
  1  2  1  0
  2  3  1  0
  2  4  2  0
  4  5  1  0
  4  6  1  0
  6  7  1  0
  6  8  1  0
  6  9  1  0
  9 10  2  0
 10 11  1  0
 11 12  1  0
 12 13  1  0
 12 14  2  0
 14 15  1  0
 14 16  1  0
 16 17  1  0
 17 18  1  0
 17 19  1  0
 17 20  1  0
 20 21  2  0
 21 22  1  0
 21 23  1  0
 23 24  1  0
 23 25  2  0
 25 26  1  0
 25 27  1  0
 27 28  1  0
 27 29  2  0
 29 30  1  0
 16 31  1  0
 31 32  1  0
 32 33  1  0
 32 34  2  0
 34 35  1  0
 34 36  1  0
 36 37  1  0
 36 10  1  0
 31 11  2  0
 29 20  1  0
M  END
>  <UniqueID>  (90) 
80

>  <SMILES>  (90) 
C=CC/N=c1\[nH]ccc2c1ccn2Cc1c(F)cccc1F

>  <Energy>  (90) 
71.26710239645736

>  <Genealogy>  (90) 
C=CC/N=c1\[nH]ccc2c1ccn2Cc1c(F)cccc1F (cis-trans isomerization)
C=CC/N=c1\[nH]ccc2c1ccn2Cc1c(F)cccc1F (3D coordinates assigned)
C=CC/N=c1\[nH]ccc2c1ccn2Cc1c(F)cccc1F (optimized conformer: 71.26710239645736 kcal/mol)

>  <smiles>  (90) 
C=CCN=c1[nH]ccc2c1ccn2Cc1c(F)cccc1F

>  <score_type>  (90) 
oracle

>  <origin>  (90) 
adg

>  <m_score__min__energy>  (90) 
-6.9100000000000001

>  <m_primary>  (90) 
energy

$$$$
90:0
     RDKit          3D

 64 68  0  0  0  0  0  0  0  0999 V2000
   51.4496   31.5406   53.9936 H   0  0  0  0  0  0  0  0  0  0  0  0
   51.5190   31.7040   52.9080 C   0  0  0  0  0  0  0  0  0  0  0  0
   50.5960   32.3270   52.1520 N   0  0  0  0  0  0  0  0  0  0  0  0
   51.0160   32.3390   50.8950 N   0  0  0  0  0  0  0  0  0  0  0  0
   52.2120   31.7220   50.8350 C   0  0  0  0  0  0  0  0  0  0  0  0
   52.8102   31.5753   49.9236 H   0  0  0  0  0  0  0  0  0  0  0  0
   52.5660   31.3030   52.1040 C   0  0  0  0  0  0  0  0  0  0  0  0
   53.7840   30.5860   52.5320 C   0  0  0  0  0  0  0  0  0  0  0  0
   54.9640   30.8510   51.9100 N   0  0  0  0  0  0  0  0  0  0  0  0
   56.1140   30.2220   52.2650 C   0  0  0  0  0  0  0  0  0  0  0  0
   57.3120   30.5150   51.6070 C   0  0  0  0  0  0  0  0  0  0  0  0
   57.3276   31.2724   50.8094 H   0  0  0  0  0  0  0  0  0  0  0  0
   58.4970   29.8460   51.9600 C   0  0  0  0  0  0  0  0  0  0  0  0
   59.7290   30.1540   51.2700 N   0  0  0  0  0  0  0  0  0  0  0  0
   59.6840   31.1990   50.2330 C   0  0  0  0  0  0  0  0  0  0  0  0
   58.8182   31.8506   50.4221 H   0  0  0  0  0  0  0  0  0  0  0  0
   60.6252   31.7664   50.2798 H   0  0  0  0  0  0  0  0  0  0  0  0
   59.5600   30.6130   48.8490 C   0  0  0  0  0  0  0  0  0  0  0  0
   60.0420   31.3180   47.7350 C   0  0  0  0  0  0  0  0  0  0  0  0
   60.5312   32.2934   47.8738 H   0  0  0  0  0  0  0  0  0  0  0  0
   59.9030   30.7860   46.4510 C   0  0  0  0  0  0  0  0  0  0  0  0
   60.2886   31.3407   45.5829 H   0  0  0  0  0  0  0  0  0  0  0  0
   59.2760   29.5520   46.2660 C   0  0  0  0  0  0  0  0  0  0  0  0
   59.1579   29.1451   45.2509 H   0  0  0  0  0  0  0  0  0  0  0  0
   58.7950   28.8270   47.3700 C   0  0  0  0  0  0  0  0  0  0  0  0
   58.1330   27.5190   47.1730 C   0  0  0  0  0  0  0  0  0  0  0  0
   58.6320   26.4730   47.6690 O   0  0  0  0  0  0  0  0  0  0  0  0
   56.9210   27.4220   46.4160 N   0  0  0  0  0  0  0  0  0  0  0  0
   56.4420   26.3200   45.9130 C   0  0  0  0  0  0  0  0  0  0  0  0
   55.1080   26.0770   46.0260 N   0  0  0  0  0  0  0  0  0  0  0  0
   54.5280   24.9580   45.5120 C   0  0  0  0  0  0  0  0  0  0  0  0
   53.4463   24.7966   45.6295 H   0  0  0  0  0  0  0  0  0  0  0  0
   55.3040   24.0150   44.8360 C   0  0  0  0  0  0  0  0  0  0  0  0
   54.8392   23.1115   44.4145 H   0  0  0  0  0  0  0  0  0  0  0  0
   56.6750   24.2310   44.7010 C   0  0  0  0  0  0  0  0  0  0  0  0
   57.2982   23.4972   44.1690 H   0  0  0  0  0  0  0  0  0  0  0  0
   57.2560   25.3800   45.2420 C   0  0  0  0  0  0  0  0  0  0  0  0
   58.3383   25.5518   45.1465 H   0  0  0  0  0  0  0  0  0  0  0  0
   58.9440   29.3650   48.6610 C   0  0  0  0  0  0  0  0  0  0  0  0
   58.5746   28.8030   49.5315 H   0  0  0  0  0  0  0  0  0  0  0  0
   61.0320   29.8270   51.8810 C   0  0  0  0  0  0  0  0  0  0  0  0
   60.8854   29.7049   52.9643 H   0  0  0  0  0  0  0  0  0  0  0  0
   61.7149   30.6541   51.6371 H   0  0  0  0  0  0  0  0  0  0  0  0
   61.6790   28.5330   51.3280 C   0  0  0  0  0  0  0  0  0  0  0  0
   62.4459   28.2069   52.0460 H   0  0  0  0  0  0  0  0  0  0  0  0
   62.0744   28.7996   50.3368 H   0  0  0  0  0  0  0  0  0  0  0  0
   60.7600   27.3940   51.0980 N   0  0  0  0  0  0  0  0  0  0  0  0
   60.7800   26.8900   49.7190 C   0  0  0  0  0  0  0  0  0  0  0  0
   60.8236   25.7909   49.7309 H   0  0  0  0  0  0  0  0  0  0  0  0
   59.8682   27.2151   49.1965 H   0  0  0  0  0  0  0  0  0  0  0  0
   61.6631   27.2864   49.1965 H   0  0  0  0  0  0  0  0  0  0  0  0
   60.8980   26.3040   52.0760 C   0  0  0  0  0  0  0  0  0  0  0  0
   60.8458   26.7164   53.0944 H   0  0  0  0  0  0  0  0  0  0  0  0
   60.0847   25.5774   51.9325 H   0  0  0  0  0  0  0  0  0  0  0  0
   61.8667   25.8031   51.9325 H   0  0  0  0  0  0  0  0  0  0  0  0
   58.4670   28.9020   53.0040 C   0  0  0  0  0  0  0  0  0  0  0  0
   59.3928   28.3874   53.3007 H   0  0  0  0  0  0  0  0  0  0  0  0
   57.2700   28.6130   53.6670 C   0  0  0  0  0  0  0  0  0  0  0  0
   57.2570   27.8700   54.4780 H   0  0  0  0  0  0  0  0  0  0  0  0
   56.0880   29.2680   53.3000 C   0  0  0  0  0  0  0  0  0  0  0  0
   54.9090   29.0020   53.9300 N   0  0  0  0  0  0  0  0  0  0  0  0
   54.8720   28.3010   54.7030 H   0  0  0  0  0  0  0  0  0  0  0  0
   53.7610   29.6380   53.5670 C   0  0  0  0  0  0  0  0  0  0  0  0
   52.8173   29.4093   54.0839 H   0  0  0  0  0  0  0  0  0  0  0  0
  1  2  1  0
  2  3  2  0
  3  4  1  0
  4  5  1  0
  5  6  1  0
  5  7  2  0
  7  8  1  0
  8  9  2  0
  9 10  1  0
 10 11  2  0
 11 12  1  0
 11 13  1  0
 13 14  1  0
 14 15  1  0
 15 16  1  0
 15 17  1  0
 15 18  1  0
 18 19  2  0
 19 20  1  0
 19 21  1  0
 21 22  1  0
 21 23  2  0
 23 24  1  0
 23 25  1  0
 25 26  1  0
 26 27  2  0
 26 28  1  0
 28 29  2  0
 29 30  1  0
 30 31  1  0
 31 32  1  0
 31 33  2  0
 33 34  1  0
 33 35  1  0
 35 36  1  0
 35 37  2  0
 37 38  1  0
 25 39  2  0
 39 40  1  0
 14 41  1  0
 41 42  1  0
 41 43  1  0
 41 44  1  0
 44 45  1  0
 44 46  1  0
 44 47  1  0
 47 48  1  0
 48 49  1  0
 48 50  1  0
 48 51  1  0
 47 52  1  0
 52 53  1  0
 52 54  1  0
 52 55  1  0
 13 56  2  0
 56 57  1  0
 56 58  1  0
 58 59  1  0
 58 60  2  0
 60 61  1  0
 61 62  1  0
 61 63  2  0
 63 64  1  0
  7  2  1  0
 63  8  1  0
 60 10  1  0
 39 18  1  0
 37 29  1  0
M  CHG  3   4  -1  30  -1  61   1
M  END
>  <UniqueID>  (91) 
81

>  <SMILES>  (91) 
CN(C)CCN(Cc1cccc(C(=O)/N=c2\cccc[n-]2)c1)c1ccc2[nH+]cc(-c3cn[n-]c3)nc2c1

>  <Energy>  (91) 
118.93258202643138

>  <Genealogy>  (91) 
CN(C)CCN(Cc1cccc(C(=O)N=c2cccc[n-]2)c1)c1ccc2[nH+]cc(-c3cn[n-]c3)nc2c1 (protonated)
CN(C)CCN(Cc1cccc(C(=O)/N=c2\cccc[n-]2)c1)c1ccc2[nH+]cc(-c3cn[n-]c3)nc2c1 (cis-trans isomerization)
CN(C)CCN(Cc1cccc(C(=O)/N=c2\cccc[n-]2)c1)c1ccc2[nH+]cc(-c3cn[n-]c3)nc2c1 (3D coordinates assigned)
CN(C)CCN(Cc1cccc(C(=O)/N=c2\cccc[n-]2)c1)c1ccc2[nH+]cc(-c3cn[n-]c3)nc2c1 (optimized conformer: 118.93258202643138 kcal/mol)

>  <smiles>  (91) 
CN(C)CCN(Cc1cccc(C(=O)N=c2cccc[nH]2)c1)c1ccc2ncc(-c3cn[nH]c3)nc2c1

>  <score_type>  (91) 
oracle

>  <origin>  (91) 
adg

>  <m_score__min__energy>  (91) 
-13.029999999999999

>  <m_primary>  (91) 
energy

$$$$
91:0
     RDKit          3D

 30 30  0  0  0  0  0  0  0  0999 V2000
   59.5700   27.9300   45.4330 C   0  0  0  0  0  0  0  0  0  0  0  0
   58.8330   28.2350   44.1340 C   0  0  0  0  0  0  0  0  0  0  0  0
   57.3950   28.0330   44.3120 N   0  0  0  0  0  0  0  0  0  0  0  0
   56.6060   29.5710   44.4750 S   0  0  0  0  0  0  0  0  0  0  0  0
   56.6730   30.3130   43.1690 O   0  0  0  0  0  0  0  0  0  0  0  0
   55.1710   29.3430   44.8550 O   0  0  0  0  0  0  0  0  0  0  0  0
   57.3940   30.4930   45.7160 N   0  0  0  0  0  0  0  0  0  0  0  0
   57.8350   31.8550   45.5990 C   0  0  0  0  0  0  0  0  0  0  0  0
   57.0270   32.8260   44.9810 C   0  0  0  0  0  0  0  0  0  0  0  0
   57.4530   34.1490   44.8910 C   0  0  0  0  0  0  0  0  0  0  0  0
   58.6810   34.5270   45.4260 C   0  0  0  0  0  0  0  0  0  0  0  0
   59.5060   33.5860   46.0590 C   0  0  0  0  0  0  0  0  0  0  0  0
   60.8230   34.0420   46.6310 C   0  0  0  0  0  0  0  0  0  0  0  0
   59.0980   32.2270   46.1180 C   0  0  0  0  0  0  0  0  0  0  0  0
   59.9750   31.1940   46.7930 C   0  0  0  0  0  0  0  0  0  0  0  0
   58.9307   28.1946   46.2881 H   0  0  0  0  0  0  0  0  0  0  0  0
   59.8121   26.8578   45.4741 H   0  0  0  0  0  0  0  0  0  0  0  0
   60.4990   28.5175   45.4741 H   0  0  0  0  0  0  0  0  0  0  0  0
   59.0206   29.2799   43.8460 H   0  0  0  0  0  0  0  0  0  0  0  0
   59.1967   27.5585   43.3466 H   0  0  0  0  0  0  0  0  0  0  0  0
   57.0170   27.5910   43.4420 H   0  0  0  0  0  0  0  0  0  0  0  0
   56.0502   32.5382   44.5651 H   0  0  0  0  0  0  0  0  0  0  0  0
   56.8170   34.8974   44.3956 H   0  0  0  0  0  0  0  0  0  0  0  0
   59.0078   35.5747   45.3516 H   0  0  0  0  0  0  0  0  0  0  0  0
   60.7714   34.0241   47.7296 H   0  0  0  0  0  0  0  0  0  0  0  0
   61.6234   33.3687   46.2905 H   0  0  0  0  0  0  0  0  0  0  0  0
   61.0357   35.0661   46.2905 H   0  0  0  0  0  0  0  0  0  0  0  0
   59.8881   31.2963   47.8848 H   0  0  0  0  0  0  0  0  0  0  0  0
   59.6524   30.1863   46.4923 H   0  0  0  0  0  0  0  0  0  0  0  0
   61.0217   31.3488   46.4923 H   0  0  0  0  0  0  0  0  0  0  0  0
  1  2  1  0
  2  3  1  0
  3  4  1  0
  4  5  2  0
  4  6  2  0
  4  7  1  0
  7  8  1  0
  8  9  2  0
  9 10  1  0
 10 11  2  0
 11 12  1  0
 12 13  1  0
 12 14  2  0
 14 15  1  0
 14  8  1  0
  1 16  1  0
  1 17  1  0
  1 18  1  0
  2 19  1  0
  2 20  1  0
  3 21  1  0
  9 22  1  0
 10 23  1  0
 11 24  1  0
 13 25  1  0
 13 26  1  0
 13 27  1  0
 15 28  1  0
 15 29  1  0
 15 30  1  0
M  CHG  1   7  -1
M  END
>  <UniqueID>  (92) 
82

>  <SMILES>  (92) 
CCNS(=O)(=O)[N-]c1cccc(C)c1C

>  <Energy>  (92) 
26.170925553368054

>  <Genealogy>  (92) 
CCNS(=O)(=O)[N-]c1cccc(C)c1C (protonated)
CCNS(=O)(=O)[N-]c1cccc(C)c1C (3D coordinates assigned)
CCNS(=O)(=O)[N-]c1cccc(C)c1C (optimized conformer: 26.170925553368054 kcal/mol)

>  <smiles>  (92) 
CCNS(=O)(=O)Nc1cccc(C)c1C

>  <score_type>  (92) 
oracle

>  <origin>  (92) 
adg

>  <m_score__min__energy>  (92) 
-8.1600000000000001

>  <m_primary>  (92) 
energy

$$$$
92:0
     RDKit          3D

 32 33  0  0  0  0  0  0  0  0999 V2000
   62.0560   33.8680   48.2010 C   0  0  0  0  0  0  0  0  0  0  0  0
   60.8250   34.5100   47.8870 O   0  0  0  0  0  0  0  0  0  0  0  0
   59.7870   33.9270   47.1390 C   0  0  0  0  0  0  0  0  0  0  0  0
   59.5990   34.2300   45.7780 C   0  0  0  0  0  0  0  0  0  0  0  0
   58.5640   33.6360   45.0550 C   0  0  0  0  0  0  0  0  0  0  0  0
   57.6970   32.7290   45.6680 C   0  0  0  0  0  0  0  0  0  0  0  0
   56.6790   32.1570   44.8870 O   0  0  0  0  0  0  0  0  0  0  0  0
   56.8700   31.1760   43.8670 C   0  0  0  0  0  0  0  0  0  0  0  0
   57.5180   29.9360   44.4270 C   0  0  0  0  0  0  0  0  0  0  0  0
   58.9190   29.8380   44.4960 C   0  0  0  0  0  0  0  0  0  0  0  0
   59.5200   28.6890   45.0140 C   0  0  0  0  0  0  0  0  0  0  0  0
   58.7320   27.6330   45.4780 C   0  0  0  0  0  0  0  0  0  0  0  0
   57.3380   27.7240   45.4280 C   0  0  0  0  0  0  0  0  0  0  0  0
   56.3580   26.3930   46.0220 Cl  0  0  0  0  0  0  0  0  0  0  0  0
   56.7290   28.8750   44.9090 C   0  0  0  0  0  0  0  0  0  0  0  0
   55.3740   28.9590   44.8720 F   0  0  0  0  0  0  0  0  0  0  0  0
   57.8720   32.4260   47.0300 C   0  0  0  0  0  0  0  0  0  0  0  0
   58.9130   33.0170   47.7700 C   0  0  0  0  0  0  0  0  0  0  0  0
   59.0900   32.6830   49.2010 C   0  0  0  0  0  0  0  0  0  0  0  0
   58.1850   32.0930   49.8480 O   0  0  0  0  0  0  0  0  0  0  0  0
   62.1702   33.8084   49.2934 H   0  0  0  0  0  0  0  0  0  0  0  0
   62.0592   32.8534   47.7761 H   0  0  0  0  0  0  0  0  0  0  0  0
   62.8898   34.4461   47.7761 H   0  0  0  0  0  0  0  0  0  0  0  0
   60.2739   34.9414   45.2796 H   0  0  0  0  0  0  0  0  0  0  0  0
   58.4297   33.8846   43.9919 H   0  0  0  0  0  0  0  0  0  0  0  0
   55.8934   30.9090   43.4369 H   0  0  0  0  0  0  0  0  0  0  0  0
   57.5286   31.5975   43.0933 H   0  0  0  0  0  0  0  0  0  0  0  0
   59.5443   30.6702   44.1403 H   0  0  0  0  0  0  0  0  0  0  0  0
   60.6167   28.6152   45.0568 H   0  0  0  0  0  0  0  0  0  0  0  0
   59.2091   26.7285   45.8833 H   0  0  0  0  0  0  0  0  0  0  0  0
   57.1878   31.7193   47.5224 H   0  0  0  0  0  0  0  0  0  0  0  0
   60.0277   32.9547   49.7078 H   0  0  0  0  0  0  0  0  0  0  0  0
  1  2  1  0
  2  3  1  0
  3  4  2  0
  4  5  1  0
  5  6  2  0
  6  7  1  0
  7  8  1  0
  8  9  1  0
  9 10  2  0
 10 11  1  0
 11 12  2  0
 12 13  1  0
 13 14  1  0
 13 15  2  0
 15 16  1  0
  6 17  1  0
 17 18  2  0
 18 19  1  0
 19 20  2  0
 18  3  1  0
 15  9  1  0
  1 21  1  0
  1 22  1  0
  1 23  1  0
  4 24  1  0
  5 25  1  0
  8 26  1  0
  8 27  1  0
 10 28  1  0
 11 29  1  0
 12 30  1  0
 17 31  1  0
 19 32  1  0
M  END
>  <UniqueID>  (93) 
83

>  <SMILES>  (93) 
COc1ccc(OCc2cccc(Cl)c2F)cc1C=O

>  <Energy>  (93) 
33.107733641816026

>  <Genealogy>  (93) 
COc1ccc(OCc2cccc(Cl)c2F)cc1C=O (3D coordinates assigned)
COc1ccc(OCc2cccc(Cl)c2F)cc1C=O (optimized conformer: 33.107733641816026 kcal/mol)

>  <smiles>  (93) 
COc1ccc(OCc2cccc(Cl)c2F)cc1C=O

>  <score_type>  (93) 
oracle

>  <origin>  (93) 
adg

>  <m_score__min__energy>  (93) 
-6.7199999999999998

>  <m_primary>  (93) 
energy

$$$$
93:0
     RDKit          3D

 45 47  0  0  0  0  0  0  0  0999 V2000
   58.1800   34.0260   46.7240 C   0  0  0  0  0  0  0  0  0  0  0  0
   58.7620   32.6160   46.7040 C   0  0  0  0  0  0  0  0  0  0  0  0
   57.8460   31.6990   46.1070 O   0  0  0  0  0  0  0  0  0  0  0  0
   57.5890   31.5730   44.7300 C   0  0  0  0  0  0  0  0  0  0  0  0
   58.0230   32.5300   43.7900 C   0  0  0  0  0  0  0  0  0  0  0  0
   57.7530   32.3570   42.4310 C   0  0  0  0  0  0  0  0  0  0  0  0
   57.0640   31.2280   41.9920 C   0  0  0  0  0  0  0  0  0  0  0  0
   56.6310   30.2700   42.9120 C   0  0  0  0  0  0  0  0  0  0  0  0
   56.8740   30.4460   44.2870 C   0  0  0  0  0  0  0  0  0  0  0  0
   56.4620   29.4670   45.2530 N   0  0  0  0  0  0  0  0  0  0  0  0
   57.2980   28.4970   45.9010 C   0  0  0  0  0  0  0  0  0  0  0  0
   57.7860   28.7440   47.0370 O   0  0  0  0  0  0  0  0  0  0  0  0
   57.6040   27.2520   45.2370 N   0  0  0  0  0  0  0  0  0  0  0  0
   58.2060   27.2740   43.9020 C   0  0  0  0  0  0  0  0  0  0  0  0
   57.2040   25.9940   45.8180 C   0  0  0  0  0  0  0  0  0  0  0  0
   58.0400   24.9370   46.1300 C   0  0  0  0  0  0  0  0  0  0  0  0
   57.2130   23.9460   46.6220 C   0  0  0  0  0  0  0  0  0  0  0  0
   57.6530   22.7080   47.0790 O   0  0  0  0  0  0  0  0  0  0  0  0
   55.9200   24.3410   46.6250 N   0  0  0  0  0  0  0  0  0  0  0  0
   54.7810   23.5780   47.0680 C   0  0  0  0  0  0  0  0  0  0  0  0
   54.7600   23.0130   48.3550 C   0  0  0  0  0  0  0  0  0  0  0  0
   53.6530   22.2730   48.7830 C   0  0  0  0  0  0  0  0  0  0  0  0
   52.5600   22.0920   47.9330 C   0  0  0  0  0  0  0  0  0  0  0  0
   52.5700   22.6510   46.6520 C   0  0  0  0  0  0  0  0  0  0  0  0
   53.6760   23.3900   46.2190 C   0  0  0  0  0  0  0  0  0  0  0  0
   55.9160   25.5960   46.1300 C   0  0  0  0  0  0  0  0  0  0  0  0
   54.7690   26.3640   45.9580 O   0  0  0  0  0  0  0  0  0  0  0  0
   58.0453   34.3523   47.7658 H   0  0  0  0  0  0  0  0  0  0  0  0
   58.8677   34.7139   46.2103 H   0  0  0  0  0  0  0  0  0  0  0  0
   57.2073   34.0285   46.2103 H   0  0  0  0  0  0  0  0  0  0  0  0
   59.6974   32.6200   46.1252 H   0  0  0  0  0  0  0  0  0  0  0  0
   58.9544   32.2989   47.7396 H   0  0  0  0  0  0  0  0  0  0  0  0
   58.5772   33.4176   44.1290 H   0  0  0  0  0  0  0  0  0  0  0  0
   58.0850   33.1138   41.7050 H   0  0  0  0  0  0  0  0  0  0  0  0
   56.8608   31.0910   40.9196 H   0  0  0  0  0  0  0  0  0  0  0  0
   56.0979   29.3744   42.5602 H   0  0  0  0  0  0  0  0  0  0  0  0
   59.3014   27.3140   43.9943 H   0  0  0  0  0  0  0  0  0  0  0  0
   57.9172   26.3647   43.3545 H   0  0  0  0  0  0  0  0  0  0  0  0
   57.8516   28.1598   43.3545 H   0  0  0  0  0  0  0  0  0  0  0  0
   59.1328   24.8946   46.0113 H   0  0  0  0  0  0  0  0  0  0  0  0
   55.6182   23.1535   49.0286 H   0  0  0  0  0  0  0  0  0  0  0  0
   53.6434   21.8328   49.7910 H   0  0  0  0  0  0  0  0  0  0  0  0
   51.6907   21.5092   48.2717 H   0  0  0  0  0  0  0  0  0  0  0  0
   51.7076   22.5097   45.9839 H   0  0  0  0  0  0  0  0  0  0  0  0
   53.6813   23.8263   45.2092 H   0  0  0  0  0  0  0  0  0  0  0  0
  1  2  1  0
  2  3  1  0
  3  4  1  0
  4  5  2  0
  5  6  1  0
  6  7  2  0
  7  8  1  0
  8  9  2  0
  9 10  1  0
 10 11  1  0
 11 12  2  0
 11 13  1  0
 13 14  1  0
 13 15  1  0
 15 16  1  0
 16 17  2  0
 17 18  1  0
 17 19  1  0
 19 20  1  0
 20 21  2  0
 21 22  1  0
 22 23  2  0
 23 24  1  0
 24 25  2  0
 19 26  1  0
 26 27  1  0
  9  4  1  0
 26 15  2  0
 25 20  1  0
  1 28  1  0
  1 29  1  0
  1 30  1  0
  2 31  1  0
  2 32  1  0
  5 33  1  0
  6 34  1  0
  7 35  1  0
  8 36  1  0
 14 37  1  0
 14 38  1  0
 14 39  1  0
 16 40  1  0
 21 41  1  0
 22 42  1  0
 23 43  1  0
 24 44  1  0
 25 45  1  0
M  CHG  3  10  -1  18  -1  27  -1
M  END
>  <UniqueID>  (94) 
84

>  <SMILES>  (94) 
CCOc1ccccc1[N-]C(=O)N(C)c1cc([O-])n(-c2ccccc2)c1[O-]

>  <Energy>  (94) 
87.84048123796876

>  <Genealogy>  (94) 
CCOc1ccccc1[N-]C(=O)N(C)c1cc([O-])n(-c2ccccc2)c1[O-] (protonated)
CCOc1ccccc1[N-]C(=O)N(C)c1cc([O-])n(-c2ccccc2)c1[O-] (3D coordinates assigned)
CCOc1ccccc1[N-]C(=O)N(C)c1cc([O-])n(-c2ccccc2)c1[O-] (optimized conformer: 87.84048123796876 kcal/mol)

>  <smiles>  (94) 
CCOc1ccccc1NC(=O)N(C)c1cc(O)n(-c2ccccc2)c1O

>  <score_type>  (94) 
oracle

>  <origin>  (94) 
adg

>  <m_score__min__energy>  (94) 
-14.289999999999999

>  <m_primary>  (94) 
energy

$$$$
94:0
     RDKit          3D

 40 42  0  0  0  0  0  0  0  0999 V2000
   58.9100   31.4090   49.0000 C   0  0  0  0  0  0  0  0  0  0  0  0
   58.1610   32.4800   48.4330 O   0  0  0  0  0  0  0  0  0  0  0  0
   58.3240   32.9560   47.1230 C   0  0  0  0  0  0  0  0  0  0  0  0
   58.9880   34.1740   46.9380 C   0  0  0  0  0  0  0  0  0  0  0  0
   59.1770   34.6880   45.6540 C   0  0  0  0  0  0  0  0  0  0  0  0
   58.6970   33.9940   44.5410 C   0  0  0  0  0  0  0  0  0  0  0  0
   58.0170   32.7730   44.7040 C   0  0  0  0  0  0  0  0  0  0  0  0
   57.5140   32.0310   43.5810 N   0  0  0  0  0  0  0  0  0  0  0  0
   56.7860   30.4590   43.7140 S   0  0  0  0  0  0  0  0  0  0  0  0
   56.4960   29.9370   42.3340 O   0  0  0  0  0  0  0  0  0  0  0  0
   55.5100   30.5480   44.5020 O   0  0  0  0  0  0  0  0  0  0  0  0
   57.8830   29.3640   44.5510 C   0  0  0  0  0  0  0  0  0  0  0  0
   59.2650   29.5800   44.4950 C   0  0  0  0  0  0  0  0  0  0  0  0
   60.1360   28.7220   45.1660 C   0  0  0  0  0  0  0  0  0  0  0  0
   59.6350   27.6520   45.9110 C   0  0  0  0  0  0  0  0  0  0  0  0
   58.2490   27.4280   45.9920 C   0  0  0  0  0  0  0  0  0  0  0  0
   57.7120   26.3020   46.7940 C   0  0  0  0  0  0  0  0  0  0  0  0
   58.4900   25.6150   47.5110 O   0  0  0  0  0  0  0  0  0  0  0  0
   56.3060   26.0010   46.7510 N   0  0  0  0  0  0  0  0  0  0  0  0
   55.7240   25.1590   45.9490 C   0  0  0  0  0  0  0  0  0  0  0  0
   54.3920   25.1150   45.7190 N   0  0  0  0  0  0  0  0  0  0  0  0
   54.0730   24.1290   44.8390 C   0  0  0  0  0  0  0  0  0  0  0  0
   55.1500   23.3870   44.3670 C   0  0  0  0  0  0  0  0  0  0  0  0
   56.5520   23.9870   45.0790 S   0  0  0  0  0  0  0  0  0  0  0  0
   57.3770   28.2950   45.3040 C   0  0  0  0  0  0  0  0  0  0  0  0
   57.8440   32.2560   45.9990 C   0  0  0  0  0  0  0  0  0  0  0  0
   58.8662   31.4716   50.0973 H   0  0  0  0  0  0  0  0  0  0  0  0
   58.4850   30.4495   48.6702 H   0  0  0  0  0  0  0  0  0  0  0  0
   59.9571   31.4789   48.6702 H   0  0  0  0  0  0  0  0  0  0  0  0
   59.3633   34.7298   47.8099 H   0  0  0  0  0  0  0  0  0  0  0  0
   59.7058   35.6430   45.5183 H   0  0  0  0  0  0  0  0  0  0  0  0
   58.8513   34.4040   43.5320 H   0  0  0  0  0  0  0  0  0  0  0  0
   57.6450   32.4180   42.6200 H   0  0  0  0  0  0  0  0  0  0  0  0
   59.6649   30.4285   43.9204 H   0  0  0  0  0  0  0  0  0  0  0  0
   61.2218   28.8886   45.1083 H   0  0  0  0  0  0  0  0  0  0  0  0
   60.3289   26.9803   46.4377 H   0  0  0  0  0  0  0  0  0  0  0  0
   53.0378   23.9325   44.5233 H   0  0  0  0  0  0  0  0  0  0  0  0
   55.0952   22.5526   43.6523 H   0  0  0  0  0  0  0  0  0  0  0  0
   56.2905   28.1318   45.3581 H   0  0  0  0  0  0  0  0  0  0  0  0
   57.3282   31.2942   46.1365 H   0  0  0  0  0  0  0  0  0  0  0  0
  1  2  1  0
  2  3  1  0
  3  4  2  0
  4  5  1  0
  5  6  2  0
  6  7  1  0
  7  8  1  0
  8  9  1  0
  9 10  2  0
  9 11  2  0
  9 12  1  0
 12 13  2  0
 13 14  1  0
 14 15  2  0
 15 16  1  0
 16 17  1  0
 17 18  2  0
 17 19  1  0
 19 20  2  3
 20 21  1  0
 21 22  1  0
 22 23  2  0
 23 24  1  0
 16 25  2  0
  7 26  2  0
 26  3  1  0
 25 12  1  0
 24 20  1  0
  1 27  1  0
  1 28  1  0
  1 29  1  0
  4 30  1  0
  5 31  1  0
  6 32  1  0
  8 33  1  0
 13 34  1  0
 14 35  1  0
 15 36  1  0
 22 37  1  0
 23 38  1  0
 25 39  1  0
 26 40  1  0
M  CHG  1  21  -1
M  END
>  <UniqueID>  (95) 
85

>  <SMILES>  (95) 
COc1cccc(NS(=O)(=O)c2cccc(C(=O)N=c3[n-]ccs3)c2)c1

>  <Energy>  (95) 
78.90836963321917

>  <Genealogy>  (95) 
COc1cccc(NS(=O)(=O)c2cccc(C(=O)N=c3[n-]ccs3)c2)c1 (protonated)
COc1cccc(NS(=O)(=O)c2cccc(C(=O)N=c3[n-]ccs3)c2)c1 (3D coordinates assigned)
COc1cccc(NS(=O)(=O)c2cccc(C(=O)N=c3[n-]ccs3)c2)c1 (optimized conformer: 78.90836963321917 kcal/mol)

>  <smiles>  (95) 
COc1cccc(NS(=O)(=O)c2cccc(C(=O)N=c3[nH]ccs3)c2)c1

>  <score_type>  (95) 
oracle

>  <origin>  (95) 
adg

>  <m_score__min__energy>  (95) 
-10.52

>  <m_primary>  (95) 
energy

$$$$
95:0
     RDKit          3D

 45 47  0  0  0  0  0  0  0  0999 V2000
   59.0440   29.0610   48.1310 C   0  0  0  0  0  0  0  0  0  0  0  0
   58.1790   28.8770   47.0140 O   0  0  0  0  0  0  0  0  0  0  0  0
   57.9730   27.6590   46.3520 C   0  0  0  0  0  0  0  0  0  0  0  0
   57.8320   26.4510   47.0660 C   0  0  0  0  0  0  0  0  0  0  0  0
   57.6970   25.2390   46.3890 C   0  0  0  0  0  0  0  0  0  0  0  0
   57.7000   25.2130   44.9970 C   0  0  0  0  0  0  0  0  0  0  0  0
   57.8250   26.4010   44.2770 C   0  0  0  0  0  0  0  0  0  0  0  0
   57.9360   27.6300   44.9390 C   0  0  0  0  0  0  0  0  0  0  0  0
   58.0530   28.8120   44.1350 N   0  0  0  0  0  0  0  0  0  0  0  0
   56.7430   29.8040   43.5800 S   0  0  0  0  0  0  0  0  0  0  0  0
   56.2590   29.3210   42.2410 O   0  0  0  0  0  0  0  0  0  0  0  0
   55.6170   29.6990   44.5690 O   0  0  0  0  0  0  0  0  0  0  0  0
   57.2540   31.5120   43.4890 C   0  0  0  0  0  0  0  0  0  0  0  0
   57.7730   31.9590   44.8140 C   0  0  0  0  0  0  0  0  0  0  0  0
   58.0800   31.1410   45.8340 N   0  0  0  0  0  0  0  0  0  0  0  0
   58.5310   31.8920   46.8250 N   0  0  0  0  0  0  0  0  0  0  0  0
   58.4880   33.1580   46.3600 C   0  0  0  0  0  0  0  0  0  0  0  0
   58.9010   34.3550   47.1500 C   0  0  0  0  0  0  0  0  0  0  0  0
   59.6570   33.8490   48.6830 S   0  0  0  0  0  0  0  0  0  0  0  0
   59.5750   34.9650   49.6880 O   0  0  0  0  0  0  0  0  0  0  0  0
   58.9370   32.6480   49.2340 O   0  0  0  0  0  0  0  0  0  0  0  0
   61.3440   33.4500   48.3830 C   0  0  0  0  0  0  0  0  0  0  0  0
   61.6850   32.4980   47.4110 C   0  0  0  0  0  0  0  0  0  0  0  0
   63.0280   32.1990   47.1620 C   0  0  0  0  0  0  0  0  0  0  0  0
   64.0350   32.8540   47.8770 C   0  0  0  0  0  0  0  0  0  0  0  0
   63.7000   33.8100   48.8400 C   0  0  0  0  0  0  0  0  0  0  0  0
   62.3580   34.1090   49.0920 C   0  0  0  0  0  0  0  0  0  0  0  0
   58.0250   33.2080   45.1320 O   0  0  0  0  0  0  0  0  0  0  0  0
   58.4713   28.9392   49.0622 H   0  0  0  0  0  0  0  0  0  0  0  0
   59.8511   28.3145   48.0966 H   0  0  0  0  0  0  0  0  0  0  0  0
   59.4774   30.0714   48.0966 H   0  0  0  0  0  0  0  0  0  0  0  0
   57.8285   26.4647   48.1659 H   0  0  0  0  0  0  0  0  0  0  0  0
   57.5880   24.3025   46.9556 H   0  0  0  0  0  0  0  0  0  0  0  0
   57.6038   24.2551   44.4648 H   0  0  0  0  0  0  0  0  0  0  0  0
   57.8365   26.3722   43.1774 H   0  0  0  0  0  0  0  0  0  0  0  0
   58.0465   31.6156   42.7332 H   0  0  0  0  0  0  0  0  0  0  0  0
   56.3903   32.1336   43.2104 H   0  0  0  0  0  0  0  0  0  0  0  0
   57.9890   30.1010   45.8630 H   0  0  0  0  0  0  0  0  0  0  0  0
   59.6230   34.9446   46.5659 H   0  0  0  0  0  0  0  0  0  0  0  0
   58.0118   34.9634   47.3716 H   0  0  0  0  0  0  0  0  0  0  0  0
   60.8942   31.9856   46.8434 H   0  0  0  0  0  0  0  0  0  0  0  0
   63.2923   31.4479   46.4030 H   0  0  0  0  0  0  0  0  0  0  0  0
   65.0912   32.6170   47.6817 H   0  0  0  0  0  0  0  0  0  0  0  0
   64.4929   34.3274   49.3999 H   0  0  0  0  0  0  0  0  0  0  0  0
   62.0969   34.8635   49.8487 H   0  0  0  0  0  0  0  0  0  0  0  0
  1  2  1  0
  2  3  1  0
  3  4  2  0
  4  5  1  0
  5  6  2  0
  6  7  1  0
  7  8  2  0
  8  9  1  0
  9 10  1  0
 10 11  2  0
 10 12  2  0
 10 13  1  0
 13 14  1  0
 14 15  2  0
 15 16  1  0
 16 17  2  0
 17 18  1  0
 18 19  1  0
 19 20  2  0
 19 21  2  0
 19 22  1  0
 22 23  2  0
 23 24  1  0
 24 25  2  0
 25 26  1  0
 26 27  2  0
 17 28  1  0
  8  3  1  0
 28 14  1  0
 27 22  1  0
  1 29  1  0
  1 30  1  0
  1 31  1  0
  4 32  1  0
  5 33  1  0
  6 34  1  0
  7 35  1  0
 13 36  1  0
 13 37  1  0
 15 38  1  0
 18 39  1  0
 18 40  1  0
 23 41  1  0
 24 42  1  0
 25 43  1  0
 26 44  1  0
 27 45  1  0
M  CHG  2   9  -1  15   1
M  END
>  <UniqueID>  (96) 
86

>  <SMILES>  (96) 
COc1ccccc1[N-]S(=O)(=O)Cc1[nH+]nc(CS(=O)(=O)c2ccccc2)o1

>  <Energy>  (96) 
79.50194938248332

>  <Genealogy>  (96) 
COc1ccccc1[N-]S(=O)(=O)Cc1[nH+]nc(CS(=O)(=O)c2ccccc2)o1 (protonated)
COc1ccccc1[N-]S(=O)(=O)Cc1[nH+]nc(CS(=O)(=O)c2ccccc2)o1 (3D coordinates assigned)
COc1ccccc1[N-]S(=O)(=O)Cc1[nH+]nc(CS(=O)(=O)c2ccccc2)o1 (optimized conformer: 79.50194938248332 kcal/mol)

>  <smiles>  (96) 
COc1ccccc1NS(=O)(=O)Cc1nnc(CS(=O)(=O)c2ccccc2)o1

>  <score_type>  (96) 
oracle

>  <origin>  (96) 
adg

>  <m_score__min__energy>  (96) 
-10.16

>  <m_primary>  (96) 
energy

$$$$
