0:0
     RDKit          3D

 36 38  0  0  0  0  0  0  0  0999 V2000
   60.0850   29.8950   46.5770 C   0  0  0  0  0  0  0  0  0  0  0  0
   59.2960   30.7710   45.9320 C   0  0  0  0  0  0  0  0  0  0  0  0
   58.2950   30.4840   44.9880 C   0  0  0  0  0  0  0  0  0  0  0  0
   57.9690   29.3350   44.3630 C   0  0  0  0  0  0  0  0  0  0  0  0
   57.3960   28.1390   45.0100 C   0  0  0  0  0  0  0  0  0  0  0  0
   56.0150   28.0270   45.2470 C   0  0  0  0  0  0  0  0  0  0  0  0
   55.1420   29.0300   44.8400 O   0  0  0  0  0  0  0  0  0  0  0  0
   55.5240   26.9320   45.8820 N   0  0  0  0  0  0  0  0  0  0  0  0
   56.3480   25.9440   46.3150 C   0  0  0  0  0  0  0  0  0  0  0  0
   55.8690   24.9380   46.9000 O   0  0  0  0  0  0  0  0  0  0  0  0
   57.6880   26.0430   46.1240 N   0  0  0  0  0  0  0  0  0  0  0  0
   58.2300   27.1170   45.4920 C   0  0  0  0  0  0  0  0  0  0  0  0
   59.4790   27.1800   45.3380 O   0  0  0  0  0  0  0  0  0  0  0  0
   57.6270   31.6760   44.7570 C   0  0  0  0  0  0  0  0  0  0  0  0
   58.2640   32.6450   45.5050 C   0  0  0  0  0  0  0  0  0  0  0  0
   57.8640   34.0870   45.5510 C   0  0  0  0  0  0  0  0  0  0  0  0
   59.2760   32.0990   46.2160 N   0  0  0  0  0  0  0  0  0  0  0  0
   60.1300   32.8060   47.1320 C   0  0  0  0  0  0  0  0  0  0  0  0
   61.4310   33.1620   46.7460 C   0  0  0  0  0  0  0  0  0  0  0  0
   62.2670   33.8450   47.6330 C   0  0  0  0  0  0  0  0  0  0  0  0
   61.8110   34.1800   48.9120 C   0  0  0  0  0  0  0  0  0  0  0  0
   62.6550   34.8640   49.7860 O   0  0  0  0  0  0  0  0  0  0  0  0
   60.5140   33.8240   49.3040 C   0  0  0  0  0  0  0  0  0  0  0  0
   59.6750   33.1370   48.4210 C   0  0  0  0  0  0  0  0  0  0  0  0
   58.3950   32.7780   48.8260 O   0  0  0  0  0  0  0  0  0  0  0  0
   60.8343   30.2561   47.2968 H   0  0  0  0  0  0  0  0  0  0  0  0
   59.9815   28.8168   46.3852 H   0  0  0  0  0  0  0  0  0  0  0  0
   58.1451   29.2847   43.2784 H   0  0  0  0  0  0  0  0  0  0  0  0
   56.7552   31.8219   44.1022 H   0  0  0  0  0  0  0  0  0  0  0  0
   57.7746   34.4095   46.5989 H   0  0  0  0  0  0  0  0  0  0  0  0
   58.6272   34.6956   45.0440 H   0  0  0  0  0  0  0  0  0  0  0  0
   56.8963   34.2154   45.0440 H   0  0  0  0  0  0  0  0  0  0  0  0
   61.7944   32.9023   45.7408 H   0  0  0  0  0  0  0  0  0  0  0  0
   63.2864   34.1199   47.3246 H   0  0  0  0  0  0  0  0  0  0  0  0
   63.0560   34.4100   50.5980 H   0  0  0  0  0  0  0  0  0  0  0  0
   60.1543   34.0858   50.3100 H   0  0  0  0  0  0  0  0  0  0  0  0
  1  2  2  0
  2  3  1  0
  3  4  2  3
  4  5  1  0
  5  6  2  0
  6  7  1  0
  6  8  1  0
  8  9  1  0
  9 10  2  0
  9 11  1  0
 11 12  1  0
 12 13  2  0
  3 14  1  0
 14 15  2  0
 15 16  1  0
 15 17  1  0
 17 18  1  0
 18 19  2  0
 19 20  1  0
 20 21  2  0
 21 22  1  0
 21 23  1  0
 23 24  2  0
 24 25  1  0
 17  2  1  0
 24 18  1  0
 12  5  1  0
  1 26  1  0
  1 27  1  0
  4 28  1  0
 14 29  1  0
 16 30  1  0
 16 31  1  0
 16 32  1  0
 19 33  1  0
 20 34  1  0
 22 35  1  0
 23 36  1  0
M  CHG  4   7  -1   8  -1  11  -1  25  -1
M  END
>  <UniqueID>  (1) 
1

>  <SMILES>  (1) 
C=c1c(=Cc2c([O-])[n-]c(=O)[n-]c2=O)cc(C)n1-c1ccc(O)cc1[O-]

>  <Energy>  (1) 
87.89219087418938

>  <Genealogy>  (1) 
C=c1c(=Cc2c([O-])[n-]c(=O)[n-]c2=O)cc(C)n1-c1ccc(O)cc1[O-] (protonated)
C=c1c(=Cc2c([O-])[n-]c(=O)[n-]c2=O)cc(C)n1-c1ccc(O)cc1[O-] (3D coordinates assigned)
C=c1c(=Cc2c([O-])[n-]c(=O)[n-]c2=O)cc(C)n1-c1ccc(O)cc1[O-] (optimized conformer: 87.89219087418938 kcal/mol)

>  <smiles>  (1) 
C=c1c(=Cc2c(O)[nH]c(=O)[nH]c2=O)cc(C)n1-c1ccc(O)cc1O

>  <score_type>  (1) 
oracle

>  <origin>  (1) 
adg

>  <m_score__min__energy>  (1) 
-16.149999999999999

>  <m_primary>  (1) 
energy

$$$$
1:0
     RDKit          3D

 44 47  0  0  1  0  0  0  0  0999 V2000
   56.6640   21.2070   43.0090 N   0  0  0  0  0  0  0  0  0  0  0  0
   56.8760   22.2150   43.7850 C   0  0  0  0  0  0  0  0  0  0  0  0
   55.9930   23.2710   43.7100 C   0  0  0  0  0  0  0  0  0  0  0  0
   56.2400   24.3420   44.5530 C   0  0  0  0  0  0  0  0  0  0  0  0
   57.3320   24.3410   45.4280 C   0  0  0  0  0  0  0  0  0  0  0  0
   57.4930   25.5340   46.2760 C   0  0  1  0  0  0  0  0  0  0  0  0
   58.8770   25.7830   46.7720 C   0  0  0  0  0  0  0  0  0  0  0  0
   59.5980   26.4830   45.6330 C   0  0  0  0  0  0  0  0  0  0  0  0
   58.5190   26.6050   44.5790 C   0  0  0  0  0  0  0  0  0  0  0  0
   57.3130   26.6820   45.3800 N   0  0  0  0  0  0  0  0  0  0  0  0
   57.3020   27.9370   46.0640 C   0  0  0  0  0  0  0  0  0  0  0  0
   57.2150   29.1240   45.1740 C   0  0  0  0  0  0  0  0  0  0  0  0
   57.6100   30.3250   45.6320 N   0  0  0  0  0  0  0  0  0  0  0  0
   57.5880   31.4690   44.9540 C   0  0  0  0  0  0  0  0  0  0  0  0
   58.0310   32.7440   45.5060 C   0  0  0  0  0  0  0  0  0  0  0  0
   58.5190   33.8240   44.8220 C   0  0  0  0  0  0  0  0  0  0  0  0
   58.7940   34.7610   45.7370 N   0  0  0  0  0  0  0  0  0  0  0  0
   58.5180   34.3610   46.9640 N   0  0  0  0  0  0  0  0  0  0  0  0
   58.0400   33.1020   46.8380 C   0  0  0  0  0  0  0  0  0  0  0  0
   57.1150   31.4290   43.6510 C   0  0  0  0  0  0  0  0  0  0  0  0
   56.7100   30.1980   43.1800 C   0  0  0  0  0  0  0  0  0  0  0  0
   56.2640   30.0800   41.9970 O   0  0  0  0  0  0  0  0  0  0  0  0
   56.7550   29.0720   43.9130 N   0  0  0  0  0  0  0  0  0  0  0  0
   58.1630   23.2480   45.4370 C   0  0  0  0  0  0  0  0  0  0  0  0
   57.9320   22.1910   44.6170 N   0  0  0  0  0  0  0  0  0  0  0  0
   57.1440   20.3000   43.1160 H   0  0  0  0  0  0  0  0  0  0  0  0
   55.1381   23.2635   43.0178 H   0  0  0  0  0  0  0  0  0  0  0  0
   55.5647   25.2101   44.5343 H   0  0  0  0  0  0  0  0  0  0  0  0
   56.8034   25.3961   47.1218 H   0  0  0  0  0  0  0  0  0  0  0  0
   58.8554   26.4248   47.6651 H   0  0  0  0  0  0  0  0  0  0  0  0
   59.3809   24.8486   47.0602 H   0  0  0  0  0  0  0  0  0  0  0  0
   59.9624   27.4733   45.9437 H   0  0  0  0  0  0  0  0  0  0  0  0
   60.4895   25.9417   45.2834 H   0  0  0  0  0  0  0  0  0  0  0  0
   58.6541   27.5135   43.9738 H   0  0  0  0  0  0  0  0  0  0  0  0
   58.5149   25.7772   43.8546 H   0  0  0  0  0  0  0  0  0  0  0  0
   56.4354   27.9514   46.7413 H   0  0  0  0  0  0  0  0  0  0  0  0
   58.2634   28.0129   46.5932 H   0  0  0  0  0  0  0  0  0  0  0  0
   58.6579   33.9059   43.7339 H   0  0  0  0  0  0  0  0  0  0  0  0
   58.6540   34.9280   47.8360 H   0  0  0  0  0  0  0  0  0  0  0  0
   57.7094   32.4623   47.6695 H   0  0  0  0  0  0  0  0  0  0  0  0
   57.0655   32.3325   43.0256 H   0  0  0  0  0  0  0  0  0  0  0  0
   56.4360   28.1650   43.5120 H   0  0  0  0  0  0  0  0  0  0  0  0
   59.0271   23.2286   46.1174 H   0  0  0  0  0  0  0  0  0  0  0  0
   58.5480   21.3460   44.6030 H   0  0  0  0  0  0  0  0  0  0  0  0
  1  2  2  3
  2  3  1  0
  3  4  2  0
  4  5  1  0
  5  6  1  0
  6  7  1  0
  7  8  1  0
  8  9  1  0
  9 10  1  0
 10 11  1  0
 11 12  1  0
 12 13  2  0
 13 14  1  0
 14 15  1  0
 15 16  1  0
 16 17  2  0
 17 18  1  0
 18 19  1  0
 14 20  2  0
 20 21  1  0
 21 22  2  0
 21 23  1  0
  5 24  2  0
 24 25  1  0
 25  2  1  0
 10  6  1  0
 23 12  1  0
 19 15  2  0
  1 26  1  0
  3 27  1  0
  4 28  1  0
  6 29  1  1
  7 30  1  0
  7 31  1  0
  8 32  1  0
  8 33  1  0
  9 34  1  0
  9 35  1  0
 11 36  1  0
 11 37  1  0
 16 38  1  0
 18 39  1  0
 19 40  1  0
 20 41  1  0
 23 42  1  0
 24 43  1  0
 25 44  1  0
M  END
>  <smiles>  (2) 
N=c1ccc(C2CCCN2Cc2nc(-c3cn[nH]c3)cc(=O)[nH]2)c[nH]1

>  <score_type>  (2) 
oracle

>  <origin>  (2) 
adg

>  <m_score__min__energy>  (2) 
-8.4499999999999993

>  <m_primary>  (2) 
energy

$$$$
2:0
     RDKit          3D

 45 48  0  0  0  0  0  0  0  0999 V2000
   59.9820   29.8270   45.1640 O   0  0  0  0  0  0  0  0  0  0  0  0
   58.9860   30.5650   45.4830 C   0  0  0  0  0  0  0  0  0  0  0  0
   57.6560   30.0850   45.1710 C   0  0  0  0  0  0  0  0  0  0  0  0
   56.6810   30.9090   44.6190 C   0  0  0  0  0  0  0  0  0  0  0  0
   55.6080   30.1180   44.4790 N   0  0  0  0  0  0  0  0  0  0  0  0
   55.8680   28.8980   44.9030 N   0  0  0  0  0  0  0  0  0  0  0  0
   57.1550   28.8200   45.3520 C   0  0  0  0  0  0  0  0  0  0  0  0
   57.7770   27.6220   45.8900 C   0  0  0  0  0  0  0  0  0  0  0  0
   58.5460   27.5880   47.0280 C   0  0  0  0  0  0  0  0  0  0  0  0
   59.1250   26.4140   47.5110 C   0  0  0  0  0  0  0  0  0  0  0  0
   58.9140   25.2460   46.8130 C   0  0  0  0  0  0  0  0  0  0  0  0
   58.1440   25.2450   45.6600 C   0  0  0  0  0  0  0  0  0  0  0  0
   57.9760   23.9650   44.9890 C   0  0  0  0  0  0  0  0  0  0  0  0
   56.9030   23.6160   44.2600 N   0  0  0  0  0  0  0  0  0  0  0  0
   57.0940   22.3550   43.7880 C   0  0  0  0  0  0  0  0  0  0  0  0
   56.3050   21.6900   43.0660 O   0  0  0  0  0  0  0  0  0  0  0  0
   58.2730   21.9000   44.2060 N   0  0  0  0  0  0  0  0  0  0  0  0
   58.8180   22.8730   44.9400 C   0  0  0  0  0  0  0  0  0  0  0  0
   60.0580   22.7650   45.5480 O   0  0  0  0  0  0  0  0  0  0  0  0
   57.5990   26.4200   45.2300 C   0  0  0  0  0  0  0  0  0  0  0  0
   59.1960   31.8330   46.1330 N   0  0  0  0  0  0  0  0  0  0  0  0
   58.1250   32.7050   46.5160 C   0  0  0  0  0  0  0  0  0  0  0  0
   58.6260   34.1330   46.4700 C   0  0  0  0  0  0  0  0  0  0  0  0
   59.6680   34.2850   47.5580 C   0  0  0  0  0  0  0  0  0  0  0  0
   60.5340   33.0740   47.6900 C   0  0  0  0  0  0  0  0  0  0  0  0
   60.5590   32.2430   46.4130 C   0  0  0  0  0  0  0  0  0  0  0  0
   56.7705   31.9733   44.3558 H   0  0  0  0  0  0  0  0  0  0  0  0
   55.1470   28.1390   44.8720 H   0  0  0  0  0  0  0  0  0  0  0  0
   58.7120   28.5244   47.5808 H   0  0  0  0  0  0  0  0  0  0  0  0
   59.7348   26.4214   48.4265 H   0  0  0  0  0  0  0  0  0  0  0  0
   59.3596   24.3068   47.1728 H   0  0  0  0  0  0  0  0  0  0  0  0
   56.0320   24.1410   44.0370 H   0  0  0  0  0  0  0  0  0  0  0  0
   58.6840   20.9650   44.0000 H   0  0  0  0  0  0  0  0  0  0  0  0
   60.8120   22.4020   45.0100 H   0  0  0  0  0  0  0  0  0  0  0  0
   56.9890   26.4104   44.3147 H   0  0  0  0  0  0  0  0  0  0  0  0
   57.2822   32.5852   45.8194 H   0  0  0  0  0  0  0  0  0  0  0  0
   57.7844   32.4584   47.5324 H   0  0  0  0  0  0  0  0  0  0  0  0
   59.0752   34.3420   45.4879 H   0  0  0  0  0  0  0  0  0  0  0  0
   57.7974   34.8395   46.6257 H   0  0  0  0  0  0  0  0  0  0  0  0
   60.3042   35.1501   47.3196 H   0  0  0  0  0  0  0  0  0  0  0  0
   59.1389   34.4249   48.5122 H   0  0  0  0  0  0  0  0  0  0  0  0
   61.5597   33.3956   47.9236 H   0  0  0  0  0  0  0  0  0  0  0  0
   60.1186   32.4473   48.4929 H   0  0  0  0  0  0  0  0  0  0  0  0
   60.9484   32.8464   45.5798 H   0  0  0  0  0  0  0  0  0  0  0  0
   61.2105   31.3651   46.5347 H   0  0  0  0  0  0  0  0  0  0  0  0
  1  2  2  0
  2  3  1  0
  3  4  1  0
  4  5  2  0
  5  6  1  0
  6  7  1  0
  7  8  1  0
  8  9  2  0
  9 10  1  0
 10 11  2  0
 11 12  1  0
 12 13  1  0
 13 14  1  0
 14 15  1  0
 15 16  2  0
 15 17  1  0
 17 18  1  0
 18 19  1  0
 12 20  2  0
  2 21  1  0
 21 22  1  0
 22 23  1  0
 23 24  1  0
 24 25  1  0
 25 26  1  0
  7  3  2  0
 20  8  1  0
 26 21  1  0
 18 13  2  0
  4 27  1  0
  6 28  1  0
  9 29  1  0
 10 30  1  0
 11 31  1  0
 14 32  1  0
 17 33  1  0
 19 34  1  0
 20 35  1  0
 22 36  1  0
 22 37  1  0
 23 38  1  0
 23 39  1  0
 24 40  1  0
 24 41  1  0
 25 42  1  0
 25 43  1  0
 26 44  1  0
 26 45  1  0
M  END
>  <smiles>  (3) 
O=C(c1cn[nH]c1-c1cccc(-c2[nH]c(=O)[nH]c2O)c1)N1CCCCC1

>  <score_type>  (3) 
oracle

>  <origin>  (3) 
adg

>  <m_score__min__energy>  (3) 
-10.07

>  <m_primary>  (3) 
energy

$$$$
3:0
     RDKit          3D

 59 61  0  0  0  0  0  0  0  0999 V2000
   59.2240   30.7150   49.7790 C   0  0  0  0  0  0  0  0  0  0  0  0
   59.5390   29.8170   48.6570 N   0  0  0  0  0  0  0  0  0  0  0  0
   60.0030   28.5230   49.1870 C   0  0  0  0  0  0  0  0  0  0  0  0
   60.5640   30.4430   47.7930 C   0  0  0  0  0  0  0  0  0  0  0  0
   60.0020   30.8390   46.4170 C   0  0  0  0  0  0  0  0  0  0  0  0
   58.5110   31.2130   46.4520 C   0  0  0  0  0  0  0  0  0  0  0  0
   57.8930   31.1990   45.1140 N   0  0  0  0  0  0  0  0  0  0  0  0
   57.6730   32.4350   44.4000 C   0  0  0  0  0  0  0  0  0  0  0  0
   57.7400   32.4520   43.1400 O   0  0  0  0  0  0  0  0  0  0  0  0
   57.4380   33.7290   45.1470 C   0  0  0  0  0  0  0  0  0  0  0  0
   58.6480   34.6740   45.1470 C   0  0  0  0  0  0  0  0  0  0  0  0
   59.6020   34.3620   46.2610 C   0  0  0  0  0  0  0  0  0  0  0  0
   59.1740   34.3940   47.5520 N   0  0  0  0  0  0  0  0  0  0  0  0
   60.0140   34.1190   48.5840 C   0  0  0  0  0  0  0  0  0  0  0  0
   59.5750   34.1600   49.7640 O   0  0  0  0  0  0  0  0  0  0  0  0
   61.3550   33.7980   48.3210 C   0  0  0  0  0  0  0  0  0  0  0  0
   62.2780   33.5130   49.3440 C   0  0  0  0  0  0  0  0  0  0  0  0
   63.6080   33.2180   49.0230 C   0  0  0  0  0  0  0  0  0  0  0  0
   64.0240   33.2040   47.6880 C   0  0  0  0  0  0  0  0  0  0  0  0
   63.1130   33.4830   46.6650 C   0  0  0  0  0  0  0  0  0  0  0  0
   61.7810   33.7810   46.9750 C   0  0  0  0  0  0  0  0  0  0  0  0
   60.8980   34.0630   45.9830 N   0  0  0  0  0  0  0  0  0  0  0  0
   57.2190   30.0040   44.6830 C   0  0  0  0  0  0  0  0  0  0  0  0
   55.9770   29.8840   44.8570 O   0  0  0  0  0  0  0  0  0  0  0  0
   57.9830   28.8990   44.0110 C   0  0  0  0  0  0  0  0  0  0  0  0
   57.4550   27.5900   44.3950 N   0  0  0  0  0  0  0  0  0  0  0  0
   57.5910   27.1010   45.7370 C   0  0  0  0  0  0  0  0  0  0  0  0
   58.2880   27.7430   46.5690 O   0  0  0  0  0  0  0  0  0  0  0  0
   56.9290   25.8560   46.1690 C   0  0  0  0  0  0  0  0  0  0  0  0
   55.8170   25.2510   45.5890 C   0  0  0  0  0  0  0  0  0  0  0  0
   55.4170   24.0820   46.2480 C   0  0  0  0  0  0  0  0  0  0  0  0
   56.2040   23.7610   47.3470 C   0  0  0  0  0  0  0  0  0  0  0  0
   57.3940   24.9360   47.5000 S   0  0  0  0  0  0  0  0  0  0  0  0
   59.4073   30.1925   50.7295 H   0  0  0  0  0  0  0  0  0  0  0  0
   59.8621   31.6093   49.7232 H   0  0  0  0  0  0  0  0  0  0  0  0
   58.1671   31.0147   49.7232 H   0  0  0  0  0  0  0  0  0  0  0  0
   59.9925   28.5521   50.2866 H   0  0  0  0  0  0  0  0  0  0  0  0
   59.3360   27.7222   48.8351 H   0  0  0  0  0  0  0  0  0  0  0  0
   61.0269   28.3285   48.8351 H   0  0  0  0  0  0  0  0  0  0  0  0
   60.9453   31.3456   48.2929 H   0  0  0  0  0  0  0  0  0  0  0  0
   61.3646   29.7062   47.6311 H   0  0  0  0  0  0  0  0  0  0  0  0
   60.5700   31.7040   46.0440 H   0  0  0  0  0  0  0  0  0  0  0  0
   60.1019   29.9621   45.7604 H   0  0  0  0  0  0  0  0  0  0  0  0
   57.9816   30.4921   47.0924 H   0  0  0  0  0  0  0  0  0  0  0  0
   58.4330   32.2374   46.8450 H   0  0  0  0  0  0  0  0  0  0  0  0
   56.5906   34.2508   44.6784 H   0  0  0  0  0  0  0  0  0  0  0  0
   57.2406   33.4618   46.1956 H   0  0  0  0  0  0  0  0  0  0  0  0
   59.1769   34.5743   44.1877 H   0  0  0  0  0  0  0  0  0  0  0  0
   58.2789   35.7000   45.2920 H   0  0  0  0  0  0  0  0  0  0  0  0
   61.9545   33.5220   50.3953 H   0  0  0  0  0  0  0  0  0  0  0  0
   64.3287   32.9963   49.8239 H   0  0  0  0  0  0  0  0  0  0  0  0
   65.0710   32.9728   47.4421 H   0  0  0  0  0  0  0  0  0  0  0  0
   63.4432   33.4683   45.6158 H   0  0  0  0  0  0  0  0  0  0  0  0
   57.8994   29.0151   42.9203 H   0  0  0  0  0  0  0  0  0  0  0  0
   59.0357   28.9588   44.3245 H   0  0  0  0  0  0  0  0  0  0  0  0
   56.9710   27.0030   43.6800 H   0  0  0  0  0  0  0  0  0  0  0  0
   55.3042   25.6513   44.7020 H   0  0  0  0  0  0  0  0  0  0  0  0
   54.5589   23.4740   45.9253 H   0  0  0  0  0  0  0  0  0  0  0  0
   56.0707   22.8883   48.0033 H   0  0  0  0  0  0  0  0  0  0  0  0
  1  2  1  0
  2  3  1  0
  2  4  1  0
  4  5  1  0
  5  6  1  0
  6  7  1  0
  7  8  1  0
  8  9  2  0
  8 10  1  0
 10 11  1  0
 11 12  1  0
 12 13  2  0
 13 14  1  0
 14 15  2  0
 14 16  1  0
 16 17  2  0
 17 18  1  0
 18 19  2  0
 19 20  1  0
 20 21  2  0
 21 22  1  0
  7 23  1  0
 23 24  2  0
 23 25  1  0
 25 26  1  0
 26 27  1  0
 27 28  2  0
 27 29  1  0
 29 30  2  0
 30 31  1  0
 31 32  2  0
 32 33  1  0
 22 12  1  0
 33 29  1  0
 21 16  1  0
  1 34  1  0
  1 35  1  0
  1 36  1  0
  3 37  1  0
  3 38  1  0
  3 39  1  0
  4 40  1  0
  4 41  1  0
  5 42  1  0
  5 43  1  0
  6 44  1  0
  6 45  1  0
 10 46  1  0
 10 47  1  0
 11 48  1  0
 11 49  1  0
 17 50  1  0
 18 51  1  0
 19 52  1  0
 20 53  1  0
 25 54  1  0
 25 55  1  0
 26 56  1  0
 30 57  1  0
 31 58  1  0
 32 59  1  0
M  CHG  1  22  -1
M  END
>  <UniqueID>  (4) 
2

>  <SMILES>  (4) 
CN(C)CCCN(C(=O)CCc1nc(=O)c2ccccc2[n-]1)C(=O)CNC(=O)c1cccs1

>  <Energy>  (4) 
87.15468921703679

>  <Genealogy>  (4) 
CN(C)CCCN(C(=O)CCc1nc(=O)c2ccccc2[n-]1)C(=O)CNC(=O)c1cccs1 (protonated)
CN(C)CCCN(C(=O)CCc1nc(=O)c2ccccc2[n-]1)C(=O)CNC(=O)c1cccs1 (3D coordinates assigned)
CN(C)CCCN(C(=O)CCc1nc(=O)c2ccccc2[n-]1)C(=O)CNC(=O)c1cccs1 (optimized conformer: 87.15468921703679 kcal/mol)

>  <smiles>  (4) 
CN(C)CCCN(C(=O)CCc1nc(=O)c2ccccc2[nH]1)C(=O)CNC(=O)c1cccs1

>  <score_type>  (4) 
oracle

>  <origin>  (4) 
adg

>  <m_score__min__energy>  (4) 
-10.039999999999999

>  <m_primary>  (4) 
energy

$$$$
4:0
     RDKit          3D

 73 77  0  0  0  0  0  0  0  0999 V2000
   60.0050   28.9940   46.0540 C   0  0  0  0  0  0  0  0  0  0  0  0
   58.9420   28.8750   45.2420 C   0  0  0  0  0  0  0  0  0  0  0  0
   58.3480   27.6850   44.7880 C   0  0  0  0  0  0  0  0  0  0  0  0
   58.5630   26.4000   45.1290 C   0  0  0  0  0  0  0  0  0  0  0  0
   57.7850   25.6600   46.1280 C   0  0  0  0  0  0  0  0  0  0  0  0
   58.0910   25.4860   47.4710 C   0  0  0  0  0  0  0  0  0  0  0  0
   59.1970   26.0380   48.1090 O   0  0  0  0  0  0  0  0  0  0  0  0
   57.1930   24.6950   48.1020 N   0  0  0  0  0  0  0  0  0  0  0  0
   56.3080   24.3740   47.1350 C   0  0  0  0  0  0  0  0  0  0  0  0
   55.2260   23.5060   47.2600 C   0  0  0  0  0  0  0  0  0  0  0  0
   54.4720   23.2070   46.1090 C   0  0  0  0  0  0  0  0  0  0  0  0
   53.4560   22.2440   46.2230 O   0  0  0  0  0  0  0  0  0  0  0  0
   53.6590   20.8520   46.4730 C   0  0  0  0  0  0  0  0  0  0  0  0
   54.7670   20.2430   45.6330 C   0  0  0  0  0  0  0  0  0  0  0  0
   54.5440   19.1620   45.0970 O   0  0  0  0  0  0  0  0  0  0  0  0
   56.0710   20.8700   45.4790 N   0  0  0  0  0  0  0  0  0  0  0  0
   56.5420   20.7330   44.0850 C   0  0  0  0  0  0  0  0  0  0  0  0
   57.9010   21.4410   43.8770 C   0  0  0  0  0  0  0  0  0  0  0  0
   58.4950   21.8670   45.1620 N   0  0  0  0  0  0  0  0  0  0  0  0
   59.8640   22.3610   44.9510 C   0  0  0  0  0  0  0  0  0  0  0  0
   58.4920   20.7480   46.1240 C   0  0  0  0  0  0  0  0  0  0  0  0
   57.0500   20.2770   46.4190 C   0  0  0  0  0  0  0  0  0  0  0  0
   54.7860   23.8400   44.8740 C   0  0  0  0  0  0  0  0  0  0  0  0
   55.8820   24.7130   44.7780 C   0  0  0  0  0  0  0  0  0  0  0  0
   56.6270   24.9500   45.9310 C   0  0  0  0  0  0  0  0  0  0  0  0
   57.3840   28.0580   43.8670 C   0  0  0  0  0  0  0  0  0  0  0  0
   57.3790   29.4350   43.8260 C   0  0  0  0  0  0  0  0  0  0  0  0
   56.4590   30.2530   42.9700 C   0  0  0  0  0  0  0  0  0  0  0  0
   58.3220   29.9370   44.6590 N   0  0  0  0  0  0  0  0  0  0  0  0
   58.5850   31.3660   44.8970 C   0  0  0  0  0  0  0  0  0  0  0  0
   58.7980   31.6520   46.3860 C   0  0  0  0  0  0  0  0  0  0  0  0
   57.9970   32.8310   46.8000 N   0  0  0  0  0  0  0  0  0  0  0  0
   57.6750   33.7190   45.6670 C   0  0  0  0  0  0  0  0  0  0  0  0
   58.9290   34.4700   45.1600 C   0  0  0  0  0  0  0  0  0  0  0  0
   60.0230   34.3790   46.0590 O   0  0  0  0  0  0  0  0  0  0  0  0
   59.5930   34.6840   47.3700 C   0  0  0  0  0  0  0  0  0  0  0  0
   58.6320   33.5990   47.8980 C   0  0  0  0  0  0  0  0  0  0  0  0
   60.3732   29.9916   46.3355 H   0  0  0  0  0  0  0  0  0  0  0  0
   60.5075   28.0939   46.4377 H   0  0  0  0  0  0  0  0  0  0  0  0
   59.3809   25.8672   44.6218 H   0  0  0  0  0  0  0  0  0  0  0  0
   54.9669   23.0649   48.2338 H   0  0  0  0  0  0  0  0  0  0  0  0
   53.9153   20.7224   47.5348 H   0  0  0  0  0  0  0  0  0  0  0  0
   52.7263   20.3347   46.2038 H   0  0  0  0  0  0  0  0  0  0  0  0
   56.0070   21.8880   45.7050 H   0  0  0  0  0  0  0  0  0  0  0  0
   56.6551   19.6646   43.8487 H   0  0  0  0  0  0  0  0  0  0  0  0
   55.8013   21.2031   43.4213 H   0  0  0  0  0  0  0  0  0  0  0  0
   58.5923   20.7468   43.3769 H   0  0  0  0  0  0  0  0  0  0  0  0
   57.7314   22.3374   43.2624 H   0  0  0  0  0  0  0  0  0  0  0  0
   60.3453   22.5347   45.9248 H   0  0  0  0  0  0  0  0  0  0  0  0
   60.4402   21.6141   44.3852 H   0  0  0  0  0  0  0  0  0  0  0  0
   59.8305   23.3037   44.3852 H   0  0  0  0  0  0  0  0  0  0  0  0
   59.0655   19.9093   45.7024 H   0  0  0  0  0  0  0  0  0  0  0  0
   58.9482   21.0919   47.0640 H   0  0  0  0  0  0  0  0  0  0  0  0
   57.0089   19.1813   46.3306 H   0  0  0  0  0  0  0  0  0  0  0  0
   56.7865   20.6035   47.4358 H   0  0  0  0  0  0  0  0  0  0  0  0
   54.1653   23.6440   43.9872 H   0  0  0  0  0  0  0  0  0  0  0  0
   56.1435   25.1938   43.8238 H   0  0  0  0  0  0  0  0  0  0  0  0
   56.7438   27.3832   43.2797 H   0  0  0  0  0  0  0  0  0  0  0  0
   55.7916   30.8464   43.6122 H   0  0  0  0  0  0  0  0  0  0  0  0
   57.0520   30.9275   42.3349 H   0  0  0  0  0  0  0  0  0  0  0  0
   55.8585   29.5851   42.3349 H   0  0  0  0  0  0  0  0  0  0  0  0
   59.4880   31.6613   44.3426 H   0  0  0  0  0  0  0  0  0  0  0  0
   57.7124   31.9414   44.5543 H   0  0  0  0  0  0  0  0  0  0  0  0
   58.4853   30.7758   46.9729 H   0  0  0  0  0  0  0  0  0  0  0  0
   59.8633   31.8611   46.5630 H   0  0  0  0  0  0  0  0  0  0  0  0
   57.2638   33.1146   44.8450 H   0  0  0  0  0  0  0  0  0  0  0  0
   56.9422   34.4641   46.0103 H   0  0  0  0  0  0  0  0  0  0  0  0
   59.2307   34.0390   44.1940 H   0  0  0  0  0  0  0  0  0  0  0  0
   58.6639   35.5334   45.0661 H   0  0  0  0  0  0  0  0  0  0  0  0
   60.4693   34.7428   48.0323 H   0  0  0  0  0  0  0  0  0  0  0  0
   59.0614   35.6469   47.3515 H   0  0  0  0  0  0  0  0  0  0  0  0
   59.1983   32.9038   48.5352 H   0  0  0  0  0  0  0  0  0  0  0  0
   57.8339   34.1013   48.4644 H   0  0  0  0  0  0  0  0  0  0  0  0
  1  2  2  0
  2  3  1  0
  3  4  2  3
  4  5  1  0
  5  6  2  0
  6  7  1  0
  6  8  1  0
  8  9  1  0
  9 10  2  0
 10 11  1  0
 11 12  1  0
 12 13  1  0
 13 14  1  0
 14 15  2  0
 14 16  1  0
 16 17  1  0
 17 18  1  0
 18 19  1  0
 19 20  1  0
 19 21  1  0
 21 22  1  0
 11 23  2  0
 23 24  1  0
 24 25  2  0
  3 26  1  0
 26 27  2  0
 27 28  1  0
 27 29  1  0
 29 30  1  0
 30 31  1  0
 31 32  1  0
 32 33  1  0
 33 34  1  0
 34 35  1  0
 35 36  1  0
 36 37  1  0
 29  2  1  0
 37 32  1  0
 25  5  1  0
 25  9  1  0
 22 16  1  0
  1 38  1  0
  1 39  1  0
  4 40  1  0
 10 41  1  0
 13 42  1  0
 13 43  1  0
 16 44  1  0
 17 45  1  0
 17 46  1  0
 18 47  1  0
 18 48  1  0
 20 49  1  0
 20 50  1  0
 20 51  1  0
 21 52  1  0
 21 53  1  0
 22 54  1  0
 22 55  1  0
 23 56  1  0
 24 57  1  0
 26 58  1  0
 28 59  1  0
 28 60  1  0
 28 61  1  0
 30 62  1  0
 30 63  1  0
 31 64  1  0
 31 65  1  0
 33 66  1  0
 33 67  1  0
 34 68  1  0
 34 69  1  0
 36 70  1  0
 36 71  1  0
 37 72  1  0
 37 73  1  0
M  CHG  3   7  -1   8  -1  16   1
M  END
>  <UniqueID>  (5) 
3

>  <SMILES>  (5) 
C=c1c(=Cc2c([O-])[n-]c3cc(OCC(=O)[NH+]4CCN(C)CC4)ccc23)cc(C)n1CCN1CCOCC1

>  <Energy>  (5) 
167.80079036446918

>  <Genealogy>  (5) 
C=c1c(=Cc2c([O-])[n-]c3cc(OCC(=O)[NH+]4CCN(C)CC4)ccc23)cc(C)n1CCN1CCOCC1 (protonated)
C=c1c(=Cc2c([O-])[n-]c3cc(OCC(=O)[NH+]4CCN(C)CC4)ccc23)cc(C)n1CCN1CCOCC1 (3D coordinates assigned)
C=c1c(=Cc2c([O-])[n-]c3cc(OCC(=O)[NH+]4CCN(C)CC4)ccc23)cc(C)n1CCN1CCOCC1 (nonaromatic ring conformer: 167.80079036446918 kcal/mol)

>  <smiles>  (5) 
C=c1c(=Cc2c(O)[nH]c3cc(OCC(=O)N4CCN(C)CC4)ccc23)cc(C)n1CCN1CCOCC1

>  <score_type>  (5) 
oracle

>  <origin>  (5) 
adg

>  <m_score__min__energy>  (5) 
-12.890000000000001

>  <m_primary>  (5) 
energy

$$$$
5:0
     RDKit          3D

 47 50  0  0  0  0  0  0  0  0999 V2000
   63.2540   35.0360   48.5640 H   0  0  0  0  0  0  0  0  0  0  0  0
   62.9680   34.9280   49.5290 O   0  0  0  0  0  0  0  0  0  0  0  0
   62.9150   33.6840   50.1580 C   0  0  0  0  0  0  0  0  0  0  0  0
   62.5390   33.6170   51.5030 C   0  0  0  0  0  0  0  0  0  0  0  0
   62.2973   34.5388   52.0525 H   0  0  0  0  0  0  0  0  0  0  0  0
   62.4700   32.3820   52.1490 C   0  0  0  0  0  0  0  0  0  0  0  0
   62.1750   32.3240   53.2071 H   0  0  0  0  0  0  0  0  0  0  0  0
   62.7790   31.2220   51.4390 C   0  0  0  0  0  0  0  0  0  0  0  0
   62.7191   30.2420   51.9350 H   0  0  0  0  0  0  0  0  0  0  0  0
   63.1540   31.3010   50.1350 N   0  0  0  0  0  0  0  0  0  0  0  0
   63.2320   32.4930   49.4760 C   0  0  0  0  0  0  0  0  0  0  0  0
   63.5600   32.5330   48.2170 N   0  0  0  0  0  0  0  0  0  0  0  0
   62.8710   33.2940   47.2160 C   0  0  0  0  0  0  0  0  0  0  0  0
   63.5100   34.1770   46.5830 O   0  0  0  0  0  0  0  0  0  0  0  0
   61.4580   33.0130   46.8610 C   0  0  0  0  0  0  0  0  0  0  0  0
   60.8410   31.8170   47.2660 C   0  0  0  0  0  0  0  0  0  0  0  0
   61.3856   31.1130   47.9124 H   0  0  0  0  0  0  0  0  0  0  0  0
   59.5400   31.5160   46.8530 C   0  0  0  0  0  0  0  0  0  0  0  0
   59.0757   30.5673   47.1603 H   0  0  0  0  0  0  0  0  0  0  0  0
   58.8210   32.4150   46.0490 C   0  0  0  0  0  0  0  0  0  0  0  0
   57.4460   32.0590   45.5340 C   0  0  0  0  0  0  0  0  0  0  0  0
   56.8622   31.6450   46.3694 H   0  0  0  0  0  0  0  0  0  0  0  0
   57.0139   32.9848   45.1263 H   0  0  0  0  0  0  0  0  0  0  0  0
   57.4430   31.0710   44.4330 N   0  0  0  0  0  0  0  0  0  0  0  0
   58.5260   30.0740   44.4440 C   0  0  0  0  0  0  0  0  0  0  0  0
   59.3897   30.5007   44.9750 H   0  0  0  0  0  0  0  0  0  0  0  0
   58.7639   29.8357   43.3968 H   0  0  0  0  0  0  0  0  0  0  0  0
   58.1350   28.7860   45.1210 C   0  0  0  0  0  0  0  0  0  0  0  0
   59.1460   27.9050   45.5370 C   0  0  0  0  0  0  0  0  0  0  0  0
   60.2017   28.1917   45.4216 H   0  0  0  0  0  0  0  0  0  0  0  0
   58.8210   26.6680   46.0960 C   0  0  0  0  0  0  0  0  0  0  0  0
   59.6191   25.9888   46.4301 H   0  0  0  0  0  0  0  0  0  0  0  0
   57.4840   26.2930   46.2310 C   0  0  0  0  0  0  0  0  0  0  0  0
   57.2298   25.3145   46.6645 H   0  0  0  0  0  0  0  0  0  0  0  0
   56.4670   27.1570   45.8170 C   0  0  0  0  0  0  0  0  0  0  0  0
   55.1400   26.7680   45.9750 O   0  0  0  0  0  0  0  0  0  0  0  0
   56.7820   28.4060   45.2480 C   0  0  0  0  0  0  0  0  0  0  0  0
   55.6680   29.3490   44.8670 C   0  0  0  0  0  0  0  0  0  0  0  0
   55.2098   29.7356   45.7893 H   0  0  0  0  0  0  0  0  0  0  0  0
   54.9576   28.7756   44.2534 H   0  0  0  0  0  0  0  0  0  0  0  0
   56.1310   30.5410   44.0200 C   0  0  0  0  0  0  0  0  0  0  0  0
   55.3852   31.3445   44.1098 H   0  0  0  0  0  0  0  0  0  0  0  0
   56.2328   30.1862   42.9838 H   0  0  0  0  0  0  0  0  0  0  0  0
   59.4340   33.6140   45.6510 C   0  0  0  0  0  0  0  0  0  0  0  0
   58.8829   34.3253   45.0182 H   0  0  0  0  0  0  0  0  0  0  0  0
   60.7390   33.9100   46.0530 C   0  0  0  0  0  0  0  0  0  0  0  0
   61.2073   34.8529   45.7344 H   0  0  0  0  0  0  0  0  0  0  0  0
  1  2  1  0
  2  3  1  0
  3  4  2  0
  4  5  1  0
  4  6  1  0
  6  7  1  0
  6  8  2  0
  8  9  1  0
  8 10  1  0
 10 11  1  0
 11 12  2  0
 12 13  1  0
 13 14  2  0
 13 15  1  0
 15 16  2  0
 16 17  1  0
 16 18  1  0
 18 19  1  0
 18 20  2  0
 20 21  1  0
 21 22  1  0
 21 23  1  0
 21 24  1  0
 24 25  1  0
 25 26  1  0
 25 27  1  0
 25 28  1  0
 28 29  2  0
 29 30  1  0
 29 31  1  0
 31 32  1  0
 31 33  2  0
 33 34  1  0
 33 35  1  0
 35 36  1  0
 35 37  2  0
 37 38  1  0
 38 39  1  0
 38 40  1  0
 38 41  1  0
 41 42  1  0
 41 43  1  0
 20 44  1  0
 44 45  1  0
 44 46  2  0
 46 47  1  0
 11  3  1  0
 46 15  1  0
 41 24  1  0
 37 28  1  0
M  CHG  2  10  -1  36  -1
M  END
>  <UniqueID>  (6) 
4

>  <SMILES>  (6) 
O=C(/N=c1\[n-]cccc1O)c1ccc(CN2CCc3c([O-])cccc3C2)cc1

>  <Energy>  (6) 
69.36737376346699

>  <Genealogy>  (6) 
O=C(N=c1[n-]cccc1O)c1ccc(CN2CCc3c([O-])cccc3C2)cc1 (protonated)
O=C(/N=c1\[n-]cccc1O)c1ccc(CN2CCc3c([O-])cccc3C2)cc1 (cis-trans isomerization)
O=C(/N=c1\[n-]cccc1O)c1ccc(CN2CCc3c([O-])cccc3C2)cc1 (3D coordinates assigned)
O=C(/N=c1\[n-]cccc1O)c1ccc(CN2CCc3c([O-])cccc3C2)cc1 (nonaromatic ring conformer: 69.36737376346699 kcal/mol)

>  <smiles>  (6) 
O=C(N=c1[nH]cccc1O)c1ccc(CN2CCc3c(O)cccc3C2)cc1

>  <score_type>  (6) 
oracle

>  <origin>  (6) 
adg

>  <m_score__min__energy>  (6) 
-12.93

>  <m_primary>  (6) 
energy

$$$$
6:0
     RDKit          3D

 46 48  0  0  0  0  0  0  0  0999 V2000
   59.6390   34.8020   45.2560 C   0  0  0  0  0  0  0  0  0  0  0  0
   58.1270   33.9860   45.7120 S   0  0  0  0  0  0  0  0  0  0  0  0
   57.0000   34.5440   44.8900 O   0  0  0  0  0  0  0  0  0  0  0  0
   57.8390   34.2260   47.1680 O   0  0  0  0  0  0  0  0  0  0  0  0
   58.2690   32.2610   45.4190 C   0  0  0  0  0  0  0  0  0  0  0  0
   59.0780   31.4700   46.2410 C   0  0  0  0  0  0  0  0  0  0  0  0
   59.1780   30.1010   45.9880 C   0  0  0  0  0  0  0  0  0  0  0  0
   58.4720   29.5300   44.9190 C   0  0  0  0  0  0  0  0  0  0  0  0
   58.5590   28.0530   44.6570 C   0  0  0  0  0  0  0  0  0  0  0  0
   57.6840   27.3310   45.5720 N   0  0  0  0  0  0  0  0  0  0  0  0
   56.2660   27.5050   45.6200 C   0  0  0  0  0  0  0  0  0  0  0  0
   55.7490   28.5860   45.2340 O   0  0  0  0  0  0  0  0  0  0  0  0
   55.4150   26.4600   46.1040 N   0  0  0  0  0  0  0  0  0  0  0  0
   55.6790   25.0200   46.0620 C   0  0  0  0  0  0  0  0  0  0  0  0
   55.4520   24.4200   44.6480 C   0  0  0  0  0  0  0  0  0  0  0  0
   56.7420   23.9230   43.9640 C   0  0  0  0  0  0  0  0  0  0  0  0
   57.5990   23.0820   44.8360 N   0  0  0  0  0  0  0  0  0  0  0  0
   57.8180   21.7200   44.2890 C   0  0  0  0  0  0  0  0  0  0  0  0
   56.6540   20.7280   44.2290 C   0  0  0  0  0  0  0  0  0  0  0  0
   57.1090   21.4510   42.9670 C   0  0  0  0  0  0  0  0  0  0  0  0
   57.4100   23.2340   46.2960 C   0  0  0  0  0  0  0  0  0  0  0  0
   57.0580   24.6800   46.6490 C   0  0  0  0  0  0  0  0  0  0  0  0
   57.6660   30.3590   44.1250 C   0  0  0  0  0  0  0  0  0  0  0  0
   57.5870   31.6910   44.3890 N   0  0  0  0  0  0  0  0  0  0  0  0
   60.1850   35.0967   46.1643 H   0  0  0  0  0  0  0  0  0  0  0  0
   60.2604   34.1168   44.6607 H   0  0  0  0  0  0  0  0  0  0  0  0
   59.4073   35.6975   44.6607 H   0  0  0  0  0  0  0  0  0  0  0  0
   59.6298   31.9221   47.0783 H   0  0  0  0  0  0  0  0  0  0  0  0
   59.8114   29.4690   46.6279 H   0  0  0  0  0  0  0  0  0  0  0  0
   58.2510   27.8482   43.6210 H   0  0  0  0  0  0  0  0  0  0  0  0
   59.5959   27.7198   44.8113 H   0  0  0  0  0  0  0  0  0  0  0  0
   54.9374   24.5321   46.7116 H   0  0  0  0  0  0  0  0  0  0  0  0
   54.7595   23.5703   44.7397 H   0  0  0  0  0  0  0  0  0  0  0  0
   55.0492   25.2282   44.0198 H   0  0  0  0  0  0  0  0  0  0  0  0
   56.4598   23.3310   43.0809 H   0  0  0  0  0  0  0  0  0  0  0  0
   57.3298   24.8156   43.7037 H   0  0  0  0  0  0  0  0  0  0  0  0
   58.8402   21.6507   44.6895 H   0  0  0  0  0  0  0  0  0  0  0  0
   56.8427   19.6505   44.3443 H   0  0  0  0  0  0  0  0  0  0  0  0
   55.6975   20.6169   44.7607 H   0  0  0  0  0  0  0  0  0  0  0  0
   57.6245   20.8942   42.1707 H   0  0  0  0  0  0  0  0  0  0  0  0
   56.6141   22.0774   42.2102 H   0  0  0  0  0  0  0  0  0  0  0  0
   56.5943   22.5734   46.6250 H   0  0  0  0  0  0  0  0  0  0  0  0
   58.3481   22.9649   46.8035 H   0  0  0  0  0  0  0  0  0  0  0  0
   57.0316   24.7961   47.7425 H   0  0  0  0  0  0  0  0  0  0  0  0
   57.8161   25.3585   46.2307 H   0  0  0  0  0  0  0  0  0  0  0  0
   57.0965   29.9310   43.2869 H   0  0  0  0  0  0  0  0  0  0  0  0
  1  2  1  0
  2  3  2  0
  2  4  2  0
  2  5  1  0
  5  6  2  0
  6  7  1  0
  7  8  2  0
  8  9  1  0
  9 10  1  0
 10 11  1  0
 11 12  2  0
 11 13  1  0
 13 14  1  0
 14 15  1  0
 15 16  1  0
 16 17  1  0
 17 18  1  0
 18 19  1  0
 19 20  1  0
 17 21  1  0
 21 22  1  0
  8 23  1  0
 23 24  2  0
 24  5  1  0
 22 14  1  0
 20 18  1  0
  1 25  1  0
  1 26  1  0
  1 27  1  0
  6 28  1  0
  7 29  1  0
  9 30  1  0
  9 31  1  0
 14 32  1  0
 15 33  1  0
 15 34  1  0
 16 35  1  0
 16 36  1  0
 18 37  1  0
 19 38  1  0
 19 39  1  0
 20 40  1  0
 20 41  1  0
 21 42  1  0
 21 43  1  0
 22 44  1  0
 22 45  1  0
 23 46  1  0
M  CHG  2  10  -1  13  -1
M  END
>  <UniqueID>  (7) 
5

>  <SMILES>  (7) 
CS(=O)(=O)c1ccc(C[N-]C(=O)[N-]C2CCN(C3CC3)CC2)cn1

>  <Energy>  (7) 
323.3296947352443

>  <Genealogy>  (7) 
CS(=O)(=O)c1ccc(C[N-]C(=O)[N-]C2CCN(C3CC3)CC2)cn1 (protonated)
CS(=O)(=O)c1ccc(C[N-]C(=O)[N-]C2CCN(C3CC3)CC2)cn1 (3D coordinates assigned)
CS(=O)(=O)c1ccc(C[N-]C(=O)[N-]C2CCN(C3CC3)CC2)cn1 (nonaromatic ring conformer: 323.3296947352443 kcal/mol)

>  <smiles>  (7) 
CS(=O)(=O)c1ccc(CNC(=O)NC2CCN(C3CC3)CC2)cn1

>  <score_type>  (7) 
oracle

>  <origin>  (7) 
adg

>  <m_score__min__energy>  (7) 
-11.779999999999999

>  <m_primary>  (7) 
energy

$$$$
8:0
     RDKit          3D

 28 30  0  0  0  0  0  0  0  0999 V2000
   59.5480   29.9830   43.7870 H   0  0  0  0  0  0  0  0  0  0  0  0
   59.5060   29.5670   44.7390 N   0  0  0  0  0  0  0  0  0  0  0  0
   58.5640   28.8050   45.2070 C   0  0  0  0  0  0  0  0  0  0  0  0
   58.8890   27.5140   45.4860 N   0  0  0  0  0  0  0  0  0  0  0  0
   57.9500   26.5790   45.7730 C   0  0  0  0  0  0  0  0  0  0  0  0
   58.3210   25.2570   46.0440 C   0  0  0  0  0  0  0  0  0  0  0  0
   59.3839   24.9744   46.0604 H   0  0  0  0  0  0  0  0  0  0  0  0
   57.3350   24.2960   46.2940 C   0  0  0  0  0  0  0  0  0  0  0  0
   57.6238   23.2568   46.5099 H   0  0  0  0  0  0  0  0  0  0  0  0
   55.9830   24.6540   46.2700 C   0  0  0  0  0  0  0  0  0  0  0  0
   55.2115   23.8945   46.4647 H   0  0  0  0  0  0  0  0  0  0  0  0
   55.6080   25.9760   45.9990 C   0  0  0  0  0  0  0  0  0  0  0  0
   54.2620   26.3230   45.9840 O   0  0  0  0  0  0  0  0  0  0  0  0
   56.5940   26.9400   45.7510 C   0  0  0  0  0  0  0  0  0  0  0  0
   56.2600   28.2350   45.5180 N   0  0  0  0  0  0  0  0  0  0  0  0
   57.1910   29.2030   45.2990 C   0  0  0  0  0  0  0  0  0  0  0  0
   56.7560   30.4330   45.2330 N   0  0  0  0  0  0  0  0  0  0  0  0
   57.4530   31.6460   44.9200 C   0  0  0  0  0  0  0  0  0  0  0  0
   57.7770   31.9680   43.5910 C   0  0  0  0  0  0  0  0  0  0  0  0
   57.4500   31.3105   42.7720 H   0  0  0  0  0  0  0  0  0  0  0  0
   58.5140   33.1220   43.3070 C   0  0  0  0  0  0  0  0  0  0  0  0
   58.7468   33.3830   42.2641 H   0  0  0  0  0  0  0  0  0  0  0  0
   58.9550   33.9440   44.3480 C   0  0  0  0  0  0  0  0  0  0  0  0
   59.5277   34.8559   44.1236 H   0  0  0  0  0  0  0  0  0  0  0  0
   58.6680   33.6070   45.6760 C   0  0  0  0  0  0  0  0  0  0  0  0
   59.2920   34.7180   47.0990 Br  0  0  0  0  0  0  0  0  0  0  0  0
   57.9310   32.4530   45.9610 C   0  0  0  0  0  0  0  0  0  0  0  0
   57.7259   32.1779   47.0061 H   0  0  0  0  0  0  0  0  0  0  0  0
  1  2  1  0
  2  3  2  0
  3  4  1  0
  4  5  1  0
  5  6  2  0
  6  7  1  0
  6  8  1  0
  8  9  1  0
  8 10  2  0
 10 11  1  0
 10 12  1  0
 12 13  1  0
 12 14  2  0
 14 15  1  0
 15 16  1  0
 16 17  2  0
 17 18  1  0
 18 19  2  0
 19 20  1  0
 19 21  1  0
 21 22  1  0
 21 23  2  0
 23 24  1  0
 23 25  1  0
 25 26  1  0
 25 27  2  0
 27 28  1  0
 16  3  1  0
 27 18  1  0
 14  5  1  0
M  CHG  3   4  -1  13  -1  15  -1
M  END
>  <UniqueID>  (8) 
6

>  <SMILES>  (8) 
[H]/N=c1/[n-]c2cccc([O-])c2[n-]/c1=N/c1cccc(Br)c1

>  <Energy>  (8) 
55.4915178674819

>  <Genealogy>  (8) 
N=c1[n-]c2cccc([O-])c2[n-]c1=Nc1cccc(Br)c1 (protonated)
[H]/N=c1/[n-]c2cccc([O-])c2[n-]/c1=N/c1cccc(Br)c1 (cis-trans isomerization)
[H]/N=c1/[n-]c2cccc([O-])c2[n-]/c1=N/c1cccc(Br)c1 (3D coordinates assigned)
[H]/N=c1/[n-]c2cccc([O-])c2[n-]/c1=N/c1cccc(Br)c1 (optimized conformer: 55.4915178674819 kcal/mol)

>  <smiles>  (8) 
N=c1[nH]c2cccc(O)c2[nH]c1=Nc1cccc(Br)c1

>  <score_type>  (8) 
oracle

>  <origin>  (8) 
adg

>  <m_score__min__energy>  (8) 
-14.369999999999999

>  <m_primary>  (8) 
energy

$$$$
9:0
     RDKit          3D

 47 49  0  0  0  0  0  0  0  0999 V2000
   51.7210   20.8380   52.3170 C   0  0  0  0  0  0  0  0  0  0  0  0
   51.6150   21.1030   50.9220 O   0  0  0  0  0  0  0  0  0  0  0  0
   52.6710   21.5660   50.1230 C   0  0  0  0  0  0  0  0  0  0  0  0
   52.4700   22.0600   48.8200 C   0  0  0  0  0  0  0  0  0  0  0  0
   53.5530   22.5350   48.0730 C   0  0  0  0  0  0  0  0  0  0  0  0
   54.8460   22.5170   48.6120 C   0  0  0  0  0  0  0  0  0  0  0  0
   56.1840   23.1960   47.6920 S   0  0  0  0  0  0  0  0  0  0  0  0
   57.0300   22.0770   47.1540 O   0  0  0  0  0  0  0  0  0  0  0  0
   57.0400   24.0650   48.5720 O   0  0  0  0  0  0  0  0  0  0  0  0
   55.5520   24.1230   46.3660 N   0  0  0  0  0  0  0  0  0  0  0  0
   56.5650   25.0530   45.8700 C   0  0  0  0  0  0  0  0  0  0  0  0
   56.0780   26.4660   46.0230 C   0  0  0  0  0  0  0  0  0  0  0  0
   54.8730   26.6550   46.3480 O   0  0  0  0  0  0  0  0  0  0  0  0
   56.9690   27.6410   45.8110 C   0  0  0  0  0  0  0  0  0  0  0  0
   56.5030   28.8330   45.2210 C   0  0  0  0  0  0  0  0  0  0  0  0
   55.1570   28.9620   44.8960 O   0  0  0  0  0  0  0  0  0  0  0  0
   57.3610   29.8800   44.9910 N   0  0  0  0  0  0  0  0  0  0  0  0
   56.8540   31.1080   44.3470 C   0  0  0  0  0  0  0  0  0  0  0  0
   57.5030   32.3300   44.9430 C   0  0  0  0  0  0  0  0  0  0  0  0
   58.2540   33.1990   44.1340 C   0  0  0  0  0  0  0  0  0  0  0  0
   58.8680   34.3260   44.6890 C   0  0  0  0  0  0  0  0  0  0  0  0
   58.7390   34.5930   46.0550 C   0  0  0  0  0  0  0  0  0  0  0  0
   57.9960   33.7330   46.8670 C   0  0  0  0  0  0  0  0  0  0  0  0
   57.3810   32.6050   46.3170 C   0  0  0  0  0  0  0  0  0  0  0  0
   58.6710   29.7840   45.3840 C   0  0  0  0  0  0  0  0  0  0  0  0
   59.4750   30.7370   45.2010 O   0  0  0  0  0  0  0  0  0  0  0  0
   59.1250   28.6530   45.9780 N   0  0  0  0  0  0  0  0  0  0  0  0
   58.3180   27.5880   46.1970 C   0  0  0  0  0  0  0  0  0  0  0  0
   58.7970   26.5550   46.7350 O   0  0  0  0  0  0  0  0  0  0  0  0
   55.0490   22.0170   49.9050 C   0  0  0  0  0  0  0  0  0  0  0  0
   53.9670   21.5430   50.6530 C   0  0  0  0  0  0  0  0  0  0  0  0
   51.3710   21.7131   52.8841 H   0  0  0  0  0  0  0  0  0  0  0  0
   51.1031   19.9645   52.5723 H   0  0  0  0  0  0  0  0  0  0  0  0
   52.7709   20.6316   52.5723 H   0  0  0  0  0  0  0  0  0  0  0  0
   51.4584   22.0724   48.3882 H   0  0  0  0  0  0  0  0  0  0  0  0
   53.3887   22.9245   47.0575 H   0  0  0  0  0  0  0  0  0  0  0  0
   57.4934   24.9225   46.4454 H   0  0  0  0  0  0  0  0  0  0  0  0
   56.7560   24.8481   44.8063 H   0  0  0  0  0  0  0  0  0  0  0  0
   57.0772   31.0695   43.2706 H   0  0  0  0  0  0  0  0  0  0  0  0
   55.7679   31.1698   44.5101 H   0  0  0  0  0  0  0  0  0  0  0  0
   58.3595   32.9918   43.0588 H   0  0  0  0  0  0  0  0  0  0  0  0
   59.4533   35.0034   44.0498 H   0  0  0  0  0  0  0  0  0  0  0  0
   59.2224   35.4800   46.4903 H   0  0  0  0  0  0  0  0  0  0  0  0
   57.8947   33.9441   47.9418 H   0  0  0  0  0  0  0  0  0  0  0  0
   56.7991   31.9295   46.9613 H   0  0  0  0  0  0  0  0  0  0  0  0
   56.0622   21.9973   50.3328 H   0  0  0  0  0  0  0  0  0  0  0  0
   54.1351   21.1488   51.6661 H   0  0  0  0  0  0  0  0  0  0  0  0
  1  2  1  0
  2  3  1  0
  3  4  2  0
  4  5  1  0
  5  6  2  0
  6  7  1  0
  7  8  2  0
  7  9  2  0
  7 10  1  0
 10 11  1  0
 11 12  1  0
 12 13  2  0
 12 14  1  0
 14 15  2  0
 15 16  1  0
 15 17  1  0
 17 18  1  0
 18 19  1  0
 19 20  2  0
 20 21  1  0
 21 22  2  0
 22 23  1  0
 23 24  2  0
 17 25  1  0
 25 26  2  0
 25 27  1  0
 27 28  1  0
 28 29  2  0
  6 30  1  0
 30 31  2  0
 31  3  1  0
 28 14  1  0
 24 19  1  0
  1 32  1  0
  1 33  1  0
  1 34  1  0
  4 35  1  0
  5 36  1  0
 11 37  1  0
 11 38  1  0
 18 39  1  0
 18 40  1  0
 20 41  1  0
 21 42  1  0
 22 43  1  0
 23 44  1  0
 24 45  1  0
 30 46  1  0
 31 47  1  0
M  CHG  3  10  -1  16  -1  27  -1
M  END
>  <UniqueID>  (9) 
7

>  <SMILES>  (9) 
COc1ccc(S(=O)(=O)[N-]CC(=O)c2c([O-])n(Cc3ccccc3)c(=O)[n-]c2=O)cc1

>  <Energy>  (9) 
53.06543512574123

>  <Genealogy>  (9) 
COc1ccc(S(=O)(=O)[N-]CC(=O)c2c([O-])n(Cc3ccccc3)c(=O)[n-]c2=O)cc1 (protonated)
COc1ccc(S(=O)(=O)[N-]CC(=O)c2c([O-])n(Cc3ccccc3)c(=O)[n-]c2=O)cc1 (3D coordinates assigned)
COc1ccc(S(=O)(=O)[N-]CC(=O)c2c([O-])n(Cc3ccccc3)c(=O)[n-]c2=O)cc1 (optimized conformer: 53.06543512574123 kcal/mol)

>  <smiles>  (9) 
COc1ccc(S(=O)(=O)NCC(=O)c2c(O)n(Cc3ccccc3)c(=O)[nH]c2=O)cc1

>  <score_type>  (9) 
oracle

>  <origin>  (9) 
adg

>  <m_score__min__energy>  (9) 
-15.41

>  <m_primary>  (9) 
energy

$$$$
10:0
     RDKit          3D

 63 67  0  0  0  0  0  0  0  0999 V2000
   53.3830   24.3780   45.8310 H   0  0  0  0  0  0  0  0  0  0  0  0
   53.8550   23.5690   45.3660 N   0  0  0  0  0  0  0  0  0  0  0  0
   55.1620   23.7030   44.8120 C   0  0  0  0  0  0  0  0  0  0  0  0
   55.4700   23.0030   43.8090 O   0  0  0  0  0  0  0  0  0  0  0  0
   56.1550   24.6470   45.3930 C   0  0  0  0  0  0  0  0  0  0  0  0
   57.5190   24.2950   45.4030 C   0  0  0  0  0  0  0  0  0  0  0  0
   57.8331   23.3264   44.9869 H   0  0  0  0  0  0  0  0  0  0  0  0
   58.4780   25.1610   45.9350 C   0  0  0  0  0  0  0  0  0  0  0  0
   59.5379   24.8666   45.9423 H   0  0  0  0  0  0  0  0  0  0  0  0
   58.0960   26.4000   46.4580 C   0  0  0  0  0  0  0  0  0  0  0  0
   59.1100   27.3120   47.0130 C   0  0  0  0  0  0  0  0  0  0  0  0
   59.5790   27.2910   48.3080 C   0  0  0  0  0  0  0  0  0  0  0  0
   59.2430   26.5995   49.0947 H   0  0  0  0  0  0  0  0  0  0  0  0
   60.5140   28.2500   48.4610 N   0  0  0  0  0  0  0  0  0  0  0  0
   60.6060   28.8190   47.2370 C   0  0  0  0  0  0  0  0  0  0  0  0
   61.3950   29.8160   46.9570 N   0  0  0  0  0  0  0  0  0  0  0  0
   61.3500   31.1350   47.5250 C   0  0  0  0  0  0  0  0  0  0  0  0
   60.2620   32.0010   47.3170 C   0  0  0  0  0  0  0  0  0  0  0  0
   59.4218   31.6833   46.6821 H   0  0  0  0  0  0  0  0  0  0  0  0
   60.2450   33.2630   47.9140 C   0  0  0  0  0  0  0  0  0  0  0  0
   59.3978   33.9419   47.7370 H   0  0  0  0  0  0  0  0  0  0  0  0
   61.3000   33.6660   48.7350 C   0  0  0  0  0  0  0  0  0  0  0  0
   61.2828   34.6652   49.1947 H   0  0  0  0  0  0  0  0  0  0  0  0
   62.3850   32.8040   48.9790 C   0  0  0  0  0  0  0  0  0  0  0  0
   63.4690   33.2110   49.8430 N   0  0  0  0  0  0  0  0  0  0  0  0
   64.8610   33.0960   49.3870 C   0  0  0  0  0  0  0  0  0  0  0  0
   65.1113   33.9671   48.7636 H   0  0  0  0  0  0  0  0  0  0  0  0
   64.9700   32.1699   48.8036 H   0  0  0  0  0  0  0  0  0  0  0  0
   65.8130   33.0430   50.5860 C   0  0  0  0  0  0  0  0  0  0  0  0
   66.8486   32.9966   50.2179 H   0  0  0  0  0  0  0  0  0  0  0  0
   65.5676   32.1511   51.1813 H   0  0  0  0  0  0  0  0  0  0  0  0
   65.6640   34.2330   51.4520 N   0  0  0  0  0  0  0  0  0  0  0  0
   66.3360   34.0090   52.7420 C   0  0  0  0  0  0  0  0  0  0  0  0
   65.6410   34.2407   53.5626 H   0  0  0  0  0  0  0  0  0  0  0  0
   66.6506   32.9574   52.8138 H   0  0  0  0  0  0  0  0  0  0  0  0
   67.2187   34.6615   52.8138 H   0  0  0  0  0  0  0  0  0  0  0  0
   64.2620   34.6940   51.6430 C   0  0  0  0  0  0  0  0  0  0  0  0
   64.1128   35.6074   51.0485 H   0  0  0  0  0  0  0  0  0  0  0  0
   64.1247   34.8673   52.7205 H   0  0  0  0  0  0  0  0  0  0  0  0
   63.2090   33.6610   51.2170 C   0  0  0  0  0  0  0  0  0  0  0  0
   62.2098   34.1184   51.2669 H   0  0  0  0  0  0  0  0  0  0  0  0
   63.2593   32.7958   51.8944 H   0  0  0  0  0  0  0  0  0  0  0  0
   62.3900   31.5330   48.3750 C   0  0  0  0  0  0  0  0  0  0  0  0
   63.2226   30.8420   48.5732 H   0  0  0  0  0  0  0  0  0  0  0  0
   59.7610   28.2760   46.3320 N   0  0  0  0  0  0  0  0  0  0  0  0
   59.6530   28.6050   44.9050 C   0  0  0  0  0  0  0  0  0  0  0  0
   60.5722   29.1173   44.5848 H   0  0  0  0  0  0  0  0  0  0  0  0
   59.5126   27.6700   44.3428 H   0  0  0  0  0  0  0  0  0  0  0  0
   58.4730   29.5020   44.6380 C   0  0  0  0  0  0  0  0  0  0  0  0
   58.6630   30.8460   44.2780 C   0  0  0  0  0  0  0  0  0  0  0  0
   59.6823   31.2510   44.1946 H   0  0  0  0  0  0  0  0  0  0  0  0
   57.5640   31.6720   44.0250 C   0  0  0  0  0  0  0  0  0  0  0  0
   57.7203   32.7262   43.7524 H   0  0  0  0  0  0  0  0  0  0  0  0
   56.2670   31.1600   44.1180 C   0  0  0  0  0  0  0  0  0  0  0  0
   55.4031   31.8128   43.9243 H   0  0  0  0  0  0  0  0  0  0  0  0
   56.0670   29.8190   44.4570 C   0  0  0  0  0  0  0  0  0  0  0  0
   54.7780   29.3090   44.5460 O   0  0  0  0  0  0  0  0  0  0  0  0
   57.1650   28.9890   44.7090 C   0  0  0  0  0  0  0  0  0  0  0  0
   57.0047   27.9310   44.9637 H   0  0  0  0  0  0  0  0  0  0  0  0
   56.7420   26.7510   46.4780 C   0  0  0  0  0  0  0  0  0  0  0  0
   56.4349   27.7120   46.9164 H   0  0  0  0  0  0  0  0  0  0  0  0
   55.7750   25.8920   45.9460 C   0  0  0  0  0  0  0  0  0  0  0  0
   54.4440   26.2940   45.9820 O   0  0  0  0  0  0  0  0  0  0  0  0
  1  2  1  0
  2  3  1  0
  3  4  2  0
  3  5  1  0
  5  6  2  0
  6  7  1  0
  6  8  1  0
  8  9  1  0
  8 10  2  0
 10 11  1  0
 11 12  2  0
 12 13  1  0
 12 14  1  0
 14 15  1  0
 15 16  2  0
 16 17  1  0
 17 18  2  0
 18 19  1  0
 18 20  1  0
 20 21  1  0
 20 22  2  0
 22 23  1  0
 22 24  1  0
 24 25  1  0
 25 26  1  0
 26 27  1  0
 26 28  1  0
 26 29  1  0
 29 30  1  0
 29 31  1  0
 29 32  1  0
 32 33  1  0
 33 34  1  0
 33 35  1  0
 33 36  1  0
 32 37  1  0
 37 38  1  0
 37 39  1  0
 37 40  1  0
 40 41  1  0
 40 42  1  0
 24 43  2  0
 43 44  1  0
 15 45  1  0
 45 46  1  0
 46 47  1  0
 46 48  1  0
 46 49  1  0
 49 50  2  0
 50 51  1  0
 50 52  1  0
 52 53  1  0
 52 54  2  0
 54 55  1  0
 54 56  1  0
 56 57  1  0
 56 58  2  0
 58 59  1  0
 10 60  1  0
 60 61  1  0
 60 62  2  0
 62 63  1  0
 62  5  1  0
 45 11  1  0
 58 49  1  0
 43 17  1  0
 40 25  1  0
M  CHG  4   2  -1  14  -1  57  -1  63  -1
M  END
>  <UniqueID>  (10) 
8

>  <SMILES>  (10) 
CN1CCN(c2cccc(/N=c3\[n-]cc(-c4ccc(C([NH-])=O)c([O-])c4)n3Cc3cccc([O-])c3)c2)CC1

>  <Energy>  (10) 
121.20165745049086

>  <Genealogy>  (10) 
CN1CCN(c2cccc(N=c3[n-]cc(-c4ccc(C([NH-])=O)c([O-])c4)n3Cc3cccc([O-])c3)c2)CC1 (protonated)
CN1CCN(c2cccc(/N=c3\[n-]cc(-c4ccc(C([NH-])=O)c([O-])c4)n3Cc3cccc([O-])c3)c2)CC1 (cis-trans isomerization)
CN1CCN(c2cccc(/N=c3\[n-]cc(-c4ccc(C([NH-])=O)c([O-])c4)n3Cc3cccc([O-])c3)c2)CC1 (3D coordinates assigned)
CN1CCN(c2cccc(/N=c3\[n-]cc(-c4ccc(C([NH-])=O)c([O-])c4)n3Cc3cccc([O-])c3)c2)CC1 (nonaromatic ring conformer: 121.20165745049086 kcal/mol)

>  <smiles>  (10) 
CN1CCN(c2cccc(N=c3[nH]cc(-c4ccc(C(N)=O)c(O)c4)n3Cc3cccc(O)c3)c2)CC1

>  <score_type>  (10) 
oracle

>  <origin>  (10) 
adg

>  <m_score__min__energy>  (10) 
-18.98

>  <m_primary>  (10) 
energy

$$$$
11:0
     RDKit          3D

 42 44  0  0  0  0  0  0  0  0999 V2000
   56.8030   28.2210   45.4040 O   0  0  0  0  0  0  0  0  0  0  0  0
   57.6620   27.4240   45.8620 C   0  0  0  0  0  0  0  0  0  0  0  0
   59.0240   27.8590   45.9730 N   0  0  0  0  0  0  0  0  0  0  0  0
   59.5330   28.7790   46.9910 C   0  0  2  0  0  0  0  0  0  0  0  0
   59.2840   28.2130   48.4070 C   0  0  0  0  0  0  0  0  0  0  0  0
   59.0810   29.3170   49.4590 C   0  0  0  0  0  0  0  0  0  0  0  0
   59.8430   30.5920   49.0740 C   0  0  0  0  0  0  0  0  0  0  0  0
   59.3980   31.1550   47.7710 N   0  0  0  0  0  0  0  0  0  0  0  0
   58.4570   32.2800   47.9610 C   0  0  0  0  0  0  0  0  0  0  0  0
   58.6450   33.3300   46.8900 C   0  0  0  0  0  0  0  0  0  0  0  0
   57.9440   33.2540   45.6700 C   0  0  0  0  0  0  0  0  0  0  0  0
   57.0680   32.2450   45.4340 F   0  0  0  0  0  0  0  0  0  0  0  0
   58.1500   34.2210   44.6810 C   0  0  0  0  0  0  0  0  0  0  0  0
   59.0550   35.2630   44.8940 C   0  0  0  0  0  0  0  0  0  0  0  0
   59.7580   35.3420   46.0970 C   0  0  0  0  0  0  0  0  0  0  0  0
   59.5600   34.3810   47.0920 C   0  0  0  0  0  0  0  0  0  0  0  0
   60.2610   34.4710   48.2510 F   0  0  0  0  0  0  0  0  0  0  0  0
   58.8460   30.1420   46.8310 C   0  0  0  0  0  0  0  0  0  0  0  0
   57.2380   26.0740   46.2850 C   0  0  0  0  0  0  0  0  0  0  0  0
   55.8780   25.7370   46.3320 C   0  0  0  0  0  0  0  0  0  0  0  0
   54.9060   26.6760   45.9920 O   0  0  0  0  0  0  0  0  0  0  0  0
   55.5030   24.4900   46.7220 N   0  0  0  0  0  0  0  0  0  0  0  0
   56.4250   23.5560   47.0640 C   0  0  0  0  0  0  0  0  0  0  0  0
   56.0540   22.4100   47.4270 O   0  0  0  0  0  0  0  0  0  0  0  0
   57.7490   23.8540   47.0120 N   0  0  0  0  0  0  0  0  0  0  0  0
   58.1750   25.0850   46.6260 C   0  0  0  0  0  0  0  0  0  0  0  0
   59.4110   25.3190   46.5640 O   0  0  0  0  0  0  0  0  0  0  0  0
   60.6183   28.9002   46.8587 H   0  0  0  0  0  0  0  0  0  0  0  0
   58.3835   27.5818   48.3806 H   0  0  0  0  0  0  0  0  0  0  0  0
   60.1753   27.6371   48.6967 H   0  0  0  0  0  0  0  0  0  0  0  0
   58.0083   29.5484   49.5349 H   0  0  0  0  0  0  0  0  0  0  0  0
   59.4673   28.9563   50.4237 H   0  0  0  0  0  0  0  0  0  0  0  0
   59.6828   31.3478   49.8571 H   0  0  0  0  0  0  0  0  0  0  0  0
   60.9061   30.3271   48.9759 H   0  0  0  0  0  0  0  0  0  0  0  0
   57.4263   31.8987   47.9140 H   0  0  0  0  0  0  0  0  0  0  0  0
   58.6535   32.7396   48.9409 H   0  0  0  0  0  0  0  0  0  0  0  0
   57.5972   34.1606   43.7319 H   0  0  0  0  0  0  0  0  0  0  0  0
   59.2138   36.0216   44.1134 H   0  0  0  0  0  0  0  0  0  0  0  0
   60.4704   36.1636   46.2625 H   0  0  0  0  0  0  0  0  0  0  0  0
   57.7702   30.0233   47.0275 H   0  0  0  0  0  0  0  0  0  0  0  0
   59.0248   30.4957   45.8049 H   0  0  0  0  0  0  0  0  0  0  0  0
   55.1470   27.5040   45.4610 H   0  0  0  0  0  0  0  0  0  0  0  0
  1  2  2  0
  2  3  1  0
  3  4  1  0
  4  5  1  0
  5  6  1  0
  6  7  1  0
  7  8  1  0
  8  9  1  0
  9 10  1  0
 10 11  2  0
 11 12  1  0
 11 13  1  0
 13 14  2  0
 14 15  1  0
 15 16  2  0
 16 17  1  0
  8 18  1  0
  2 19  1  0
 19 20  2  0
 20 21  1  0
 20 22  1  0
 22 23  1  0
 23 24  2  0
 23 25  1  0
 25 26  1  0
 26 27  2  0
 18  4  1  0
 26 19  1  0
 16 10  1  0
  4 28  1  6
  5 29  1  0
  5 30  1  0
  6 31  1  0
  6 32  1  0
  7 33  1  0
  7 34  1  0
  9 35  1  0
  9 36  1  0
 13 37  1  0
 14 38  1  0
 15 39  1  0
 18 40  1  0
 18 41  1  0
 21 42  1  0
M  CHG  3   3  -1  22  -1  25  -1
M  END
>  <UniqueID>  (11) 
9

>  <SMILES>  (11) 
O=C([N-][C@@H]1CCCN(Cc2c(F)cccc2F)C1)c1c(O)[n-]c(=O)[n-]c1=O

>  <Energy>  (11) 
58.62607116602158

>  <Genealogy>  (11) 
O=C([N-]C1CCCN(Cc2c(F)cccc2F)C1)c1c(O)[n-]c(=O)[n-]c1=O (protonated)
O=C([N-][C@@H]1CCCN(Cc2c(F)cccc2F)C1)c1c(O)[n-]c(=O)[n-]c1=O (chirality)
O=C([N-][C@@H]1CCCN(Cc2c(F)cccc2F)C1)c1c(O)[n-]c(=O)[n-]c1=O (3D coordinates assigned)
O=C([N-][C@@H]1CCCN(Cc2c(F)cccc2F)C1)c1c(O)[n-]c(=O)[n-]c1=O (nonaromatic ring conformer: 58.62607116602158 kcal/mol)

>  <smiles>  (11) 
O=C(NC1CCCN(Cc2c(F)cccc2F)C1)c1c(O)[nH]c(=O)[nH]c1=O

>  <score_type>  (11) 
oracle

>  <origin>  (11) 
adg

>  <m_score__min__energy>  (11) 
-14.19

>  <m_primary>  (11) 
energy

$$$$
12:0
     RDKit          3D

 33 34  0  0  0  0  0  0  0  0999 V2000
   57.8090   24.9690   47.2310 O   0  0  0  0  0  0  0  0  0  0  0  0
   57.5660   25.9240   46.4460 C   0  0  0  0  0  0  0  0  0  0  0  0
   58.3900   27.1740   46.5250 C   0  0  0  0  0  0  0  0  0  0  0  0
   57.5360   28.3620   46.5840 N   0  0  0  0  0  0  0  0  0  0  0  0
   57.0250   28.8570   44.9950 S   0  0  0  0  0  0  0  0  0  0  0  0
   57.6640   27.9610   43.9730 O   0  0  0  0  0  0  0  0  0  0  0  0
   55.5320   28.7290   44.8750 O   0  0  0  0  0  0  0  0  0  0  0  0
   57.5020   30.5150   44.6690 C   0  0  0  0  0  0  0  0  0  0  0  0
   57.3610   31.1760   43.4570 C   0  0  0  0  0  0  0  0  0  0  0  0
   57.8010   32.5040   43.5070 C   0  0  0  0  0  0  0  0  0  0  0  0
   58.2790   32.8740   44.7560 C   0  0  0  0  0  0  0  0  0  0  0  0
   58.9600   34.5920   45.2230 Br  0  0  0  0  0  0  0  0  0  0  0  0
   58.1590   31.5650   45.8040 S   0  0  0  0  0  0  0  0  0  0  0  0
   56.5020   25.8260   45.4890 N   0  0  0  0  0  0  0  0  0  0  0  0
   55.6610   24.6360   45.3700 C   0  0  0  0  0  0  0  0  0  0  0  0
   56.4060   23.5390   44.6550 C   0  0  0  0  0  0  0  0  0  0  0  0
   57.6260   23.0770   45.1760 C   0  0  0  0  0  0  0  0  0  0  0  0
   58.3230   22.0480   44.5370 C   0  0  0  0  0  0  0  0  0  0  0  0
   57.8090   21.4700   43.3740 C   0  0  0  0  0  0  0  0  0  0  0  0
   56.5940   21.9200   42.8500 C   0  0  0  0  0  0  0  0  0  0  0  0
   55.8910   22.9500   43.4840 C   0  0  0  0  0  0  0  0  0  0  0  0
   54.7120   23.3670   42.9550 F   0  0  0  0  0  0  0  0  0  0  0  0
   59.0161   27.1357   47.4286 H   0  0  0  0  0  0  0  0  0  0  0  0
   59.0177   27.2378   45.6239 H   0  0  0  0  0  0  0  0  0  0  0  0
   56.9472   30.7061   42.5526 H   0  0  0  0  0  0  0  0  0  0  0  0
   57.7709   33.1851   42.6437 H   0  0  0  0  0  0  0  0  0  0  0  0
   56.3060   26.6400   44.8640 H   0  0  0  0  0  0  0  0  0  0  0  0
   55.3797   24.2884   46.3750 H   0  0  0  0  0  0  0  0  0  0  0  0
   54.7595   24.8910   44.7936 H   0  0  0  0  0  0  0  0  0  0  0  0
   58.0351   23.5278   46.0922 H   0  0  0  0  0  0  0  0  0  0  0  0
   59.2783   21.6926   44.9507 H   0  0  0  0  0  0  0  0  0  0  0  0
   58.3598   20.6615   42.8711 H   0  0  0  0  0  0  0  0  0  0  0  0
   56.1889   21.4624   41.9354 H   0  0  0  0  0  0  0  0  0  0  0  0
  1  2  2  0
  2  3  1  0
  3  4  1  0
  4  5  1  0
  5  6  2  0
  5  7  2  0
  5  8  1  0
  8  9  2  0
  9 10  1  0
 10 11  2  0
 11 12  1  0
 11 13  1  0
  2 14  1  0
 14 15  1  0
 15 16  1  0
 16 17  2  0
 17 18  1  0
 18 19  2  0
 19 20  1  0
 20 21  2  0
 21 22  1  0
 13  8  1  0
 21 16  1  0
  3 23  1  0
  3 24  1  0
  9 25  1  0
 10 26  1  0
 14 27  1  0
 15 28  1  0
 15 29  1  0
 17 30  1  0
 18 31  1  0
 19 32  1  0
 20 33  1  0
M  CHG  1   4  -1
M  END
>  <UniqueID>  (12) 
10

>  <SMILES>  (12) 
O=C(C[N-]S(=O)(=O)c1ccc(Br)s1)NCc1ccccc1F

>  <Energy>  (12) 
55.582354356101376

>  <Genealogy>  (12) 
O=C(C[N-]S(=O)(=O)c1ccc(Br)s1)NCc1ccccc1F (protonated)
O=C(C[N-]S(=O)(=O)c1ccc(Br)s1)NCc1ccccc1F (3D coordinates assigned)
O=C(C[N-]S(=O)(=O)c1ccc(Br)s1)NCc1ccccc1F (optimized conformer: 55.582354356101376 kcal/mol)

>  <smiles>  (12) 
O=C(CNS(=O)(=O)c1ccc(Br)s1)NCc1ccccc1F

>  <score_type>  (12) 
oracle

>  <origin>  (12) 
adg

>  <m_score__min__energy>  (12) 
-9.1500000000000004

>  <m_primary>  (12) 
energy

$$$$
13:0
     RDKit          3D

 53 55  0  0  1  0  0  0  0  0999 V2000
   56.2860   31.6780   44.8660 O   0  0  0  0  0  0  0  0  0  0  0  0
   57.4760   31.3040   44.9900 C   0  0  0  0  0  0  0  0  0  0  0  0
   58.5980   32.1440   44.7960 N   0  0  0  0  0  0  0  0  0  0  0  0
   58.5390   33.5330   44.4260 C   0  0  0  0  0  0  0  0  0  0  0  0
   58.1950   34.4520   45.5530 C   0  0  0  0  0  0  0  0  0  0  0  0
   57.3270   33.9630   46.4880 O   0  0  0  0  0  0  0  0  0  0  0  0
   57.6660   29.8910   45.3620 C   0  0  0  0  0  0  0  0  0  0  0  0
   56.8540   28.9140   44.7930 C   0  0  0  0  0  0  0  0  0  0  0  0
   57.0680   27.6420   45.1660 N   0  0  0  0  0  0  0  0  0  0  0  0
   58.0300   27.3550   46.0510 C   0  0  0  0  0  0  0  0  0  0  0  0
   58.1940   26.1240   46.3760 N   0  0  0  0  0  0  0  0  0  0  0  0
   57.2730   25.3840   47.2030 C   0  0  0  0  0  0  0  0  0  0  0  0
   56.4570   24.5410   46.2730 C   0  0  0  0  0  0  0  0  0  0  0  0
   56.8180   23.2820   45.8860 C   0  0  0  0  0  0  0  0  0  0  0  0
   56.0660   22.5040   45.0220 C   0  0  0  0  0  0  0  0  0  0  0  0
   54.8940   23.0510   44.5400 C   0  0  0  0  0  0  0  0  0  0  0  0
   54.5320   24.3280   44.9350 C   0  0  0  0  0  0  0  0  0  0  0  0
   55.2900   25.0920   45.7960 C   0  0  0  0  0  0  0  0  0  0  0  0
   54.8880   26.3700   46.1670 O   0  0  0  0  0  0  0  0  0  0  0  0
   58.8320   28.2680   46.6210 N   0  0  0  0  0  0  0  0  0  0  0  0
   58.6610   29.5550   46.2830 C   0  0  0  0  0  0  0  0  0  0  0  0
   59.3500   30.5320   46.7470 N   0  0  0  0  0  0  0  0  0  0  0  0
   59.1860   30.9080   48.1020 C   0  0  0  0  0  0  0  0  0  0  0  0
   59.2150   32.2750   48.3700 C   0  0  0  0  0  0  0  0  0  0  0  0
   59.0600   32.7800   49.6450 C   0  0  0  0  0  0  0  0  0  0  0  0
   58.8680   31.8990   50.7030 C   0  0  0  0  0  0  0  0  0  0  0  0
   58.7180   32.4430   51.9550 O   0  0  0  0  0  0  0  0  0  0  0  0
   59.3060   33.6070   52.4480 C   0  0  0  0  0  0  0  0  0  0  0  0
   58.5430   34.6730   51.9650 F   0  0  0  0  0  0  0  0  0  0  0  0
   59.3860   33.6450   53.8420 F   0  0  0  0  0  0  0  0  0  0  0  0
   60.5830   33.8260   51.9570 F   0  0  0  0  0  0  0  0  0  0  0  0
   58.8410   30.5430   50.4350 C   0  0  0  0  0  0  0  0  0  0  0  0
   58.9990   30.0670   49.1460 C   0  0  0  0  0  0  0  0  0  0  0  0
   59.5430   31.6770   44.9460 H   0  0  0  0  0  0  0  0  0  0  0  0
   59.5220   33.8265   44.0290 H   0  0  0  0  0  0  0  0  0  0  0  0
   57.7339   33.6286   43.6826 H   0  0  0  0  0  0  0  0  0  0  0  0
   59.1303   34.7150   46.0688 H   0  0  0  0  0  0  0  0  0  0  0  0
   57.6776   35.3048   45.0893 H   0  0  0  0  0  0  0  0  0  0  0  0
   56.6140   33.4030   46.1130 H   0  0  0  0  0  0  0  0  0  0  0  0
   56.0690   29.1734   44.0674 H   0  0  0  0  0  0  0  0  0  0  0  0
   56.4630   26.9020   44.7440 H   0  0  0  0  0  0  0  0  0  0  0  0
   57.8239   24.7467   47.9104 H   0  0  0  0  0  0  0  0  0  0  0  0
   56.6360   26.0584   47.7941 H   0  0  0  0  0  0  0  0  0  0  0  0
   57.7555   22.8640   46.2815 H   0  0  0  0  0  0  0  0  0  0  0  0
   56.3888   21.4932   44.7321 H   0  0  0  0  0  0  0  0  0  0  0  0
   54.2553   22.4795   43.8505 H   0  0  0  0  0  0  0  0  0  0  0  0
   53.5958   24.7524   44.5433 H   0  0  0  0  0  0  0  0  0  0  0  0
   54.7740   26.6860   47.1140 H   0  0  0  0  0  0  0  0  0  0  0  0
   59.5670   28.0320   47.2970 H   0  0  0  0  0  0  0  0  0  0  0  0
   59.3667   32.9762   47.5362 H   0  0  0  0  0  0  0  0  0  0  0  0
   59.0880   33.8654   49.8217 H   0  0  0  0  0  0  0  0  0  0  0  0
   58.6915   29.8312   51.2602 H   0  0  0  0  0  0  0  0  0  0  0  0
   58.9721   28.9822   48.9655 H   0  0  0  0  0  0  0  0  0  0  0  0
  1  2  2  0
  2  3  1  0
  3  4  1  0
  4  5  1  0
  5  6  1  0
  2  7  1  0
  7  8  2  0
  8  9  1  0
  9 10  1  0
 10 11  2  0
 11 12  1  0
 12 13  1  0
 13 14  2  0
 14 15  1  0
 15 16  2  0
 16 17  1  0
 17 18  2  0
 18 19  1  0
 10 20  1  0
 20 21  1  0
 21 22  2  0
 22 23  1  0
 23 24  2  0
 24 25  1  0
 25 26  2  0
 26 27  1  0
 27 28  1  0
 28 29  1  0
 28 30  1  0
 28 31  1  0
 26 32  1  0
 32 33  2  0
 21  7  1  0
 33 23  1  0
 18 13  1  0
  3 34  1  0
  4 35  1  0
  4 36  1  0
  5 37  1  0
  5 38  1  0
  6 39  1  0
  8 40  1  0
  9 41  1  0
 12 42  1  0
 12 43  1  0
 14 44  1  0
 15 45  1  0
 16 46  1  0
 17 47  1  0
 19 48  1  0
 20 49  1  0
 24 50  1  0
 25 51  1  0
 32 52  1  0
 33 53  1  0
M  END
>  <smiles>  (13) 
O=C(NCCO)c1c[nH]c(=NCc2ccccc2O)[nH]c1=Nc1ccc(OC(F)(F)F)cc1

>  <score_type>  (13) 
oracle

>  <origin>  (13) 
adg

>  <m_score__min__energy>  (13) 
-7.8499999999999996

>  <m_primary>  (13) 
energy

$$$$
14:0
     RDKit          3D

 50 52  0  0  0  0  0  0  0  0999 V2000
   55.1660   28.6220   45.6340 H   0  0  0  0  0  0  0  0  0  0  0  0
   55.2280   29.3330   44.8720 N   0  0  0  0  0  0  0  0  0  0  0  0
   56.4870   29.8720   44.4730 C   0  0  0  0  0  0  0  0  0  0  0  0
   56.7140   30.0560   43.2460 O   0  0  0  0  0  0  0  0  0  0  0  0
   57.5270   30.1680   45.4920 C   0  0  0  0  0  0  0  0  0  0  0  0
   58.0630   31.4660   45.5170 C   0  0  0  0  0  0  0  0  0  0  0  0
   57.7431   32.1997   44.7624 H   0  0  0  0  0  0  0  0  0  0  0  0
   58.9920   31.8360   46.4820 C   0  0  0  0  0  0  0  0  0  0  0  0
   59.3937   32.8600   46.4921 H   0  0  0  0  0  0  0  0  0  0  0  0
   59.4150   30.9170   47.4340 C   0  0  0  0  0  0  0  0  0  0  0  0
   60.1317   31.2289   48.2080 H   0  0  0  0  0  0  0  0  0  0  0  0
   58.9400   29.5940   47.4220 C   0  0  0  0  0  0  0  0  0  0  0  0
   59.4650   28.6390   48.4750 C   0  0  0  0  0  0  0  0  0  0  0  0
   60.3727   28.1478   48.0945 H   0  0  0  0  0  0  0  0  0  0  0  0
   58.6854   27.8940   48.6920 H   0  0  0  0  0  0  0  0  0  0  0  0
   59.7890   29.3500   49.7150 N   0  0  0  0  0  0  0  0  0  0  0  0
   59.1010   30.2840   50.3090 C   0  0  0  0  0  0  0  0  0  0  0  0
   57.8920   29.9530   50.8400 N   0  0  0  0  0  0  0  0  0  0  0  0
   57.0930   30.8510   51.4850 C   0  0  0  0  0  0  0  0  0  0  0  0
   55.7930   30.3960   52.0400 C   0  0  0  0  0  0  0  0  0  0  0  0
   55.7450   29.3000   52.9150 C   0  0  0  0  0  0  0  0  0  0  0  0
   56.6762   28.7905   53.2035 H   0  0  0  0  0  0  0  0  0  0  0  0
   54.5580   28.8640   53.4080 N   0  0  0  0  0  0  0  0  0  0  0  0
   53.3740   29.4610   53.0950 C   0  0  0  0  0  0  0  0  0  0  0  0
   52.2550   28.9740   53.5450 N   0  0  0  0  0  0  0  0  0  0  0  0
   51.4040   28.0530   52.8000 C   0  0  0  0  0  0  0  0  0  0  0  0
   50.8306   27.4324   53.5043 H   0  0  0  0  0  0  0  0  0  0  0  0
   50.7102   28.6255   52.1669 H   0  0  0  0  0  0  0  0  0  0  0  0
   52.0295   27.4065   52.1669 H   0  0  0  0  0  0  0  0  0  0  0  0
   53.3700   30.5850   52.2420 C   0  0  0  0  0  0  0  0  0  0  0  0
   52.1610   31.2530   51.8530 N   0  0  0  0  0  0  0  0  0  0  0  0
   51.6240   31.2860   50.5260 C   0  0  0  0  0  0  0  0  0  0  0  0
   51.0200   32.3080   50.1020 O   0  0  0  0  0  0  0  0  0  0  0  0
   51.7810   30.0980   49.6380 C   0  0  0  0  0  0  0  0  0  0  0  0
   51.9005   29.1938   50.2529 H   0  0  0  0  0  0  0  0  0  0  0  0
   50.8887   29.9943   49.0031 H   0  0  0  0  0  0  0  0  0  0  0  0
   52.6696   30.2297   49.0031 H   0  0  0  0  0  0  0  0  0  0  0  0
   54.5820   31.0210   51.6950 C   0  0  0  0  0  0  0  0  0  0  0  0
   54.5872   31.8626   50.9868 H   0  0  0  0  0  0  0  0  0  0  0  0
   57.5340   32.1770   51.6220 C   0  0  0  0  0  0  0  0  0  0  0  0
   56.9138   32.9153   52.1514 H   0  0  0  0  0  0  0  0  0  0  0  0
   58.7640   32.5510   51.0820 C   0  0  0  0  0  0  0  0  0  0  0  0
   59.1129   33.5897   51.1789 H   0  0  0  0  0  0  0  0  0  0  0  0
   59.5520   31.6120   50.4200 C   0  0  0  0  0  0  0  0  0  0  0  0
   60.5195   31.9067   49.9874 H   0  0  0  0  0  0  0  0  0  0  0  0
   57.9830   29.2030   46.4390 C   0  0  0  0  0  0  0  0  0  0  0  0
   57.4250   27.7950   46.4090 C   0  0  0  0  0  0  0  0  0  0  0  0
   57.2824   27.4351   47.4386 H   0  0  0  0  0  0  0  0  0  0  0  0
   56.4588   27.7946   45.8833 H   0  0  0  0  0  0  0  0  0  0  0  0
   58.1287   27.1328   45.8833 H   0  0  0  0  0  0  0  0  0  0  0  0
  1  2  1  0
  2  3  1  0
  3  4  2  0
  3  5  1  0
  5  6  2  0
  6  7  1  0
  6  8  1  0
  8  9  1  0
  8 10  2  0
 10 11  1  0
 10 12  1  0
 12 13  1  0
 13 14  1  0
 13 15  1  0
 13 16  1  0
 16 17  2  3
 17 18  1  0
 18 19  1  0
 19 20  1  0
 20 21  2  0
 21 22  1  0
 21 23  1  0
 23 24  1  0
 24 25  2  0
 25 26  1  0
 26 27  1  0
 26 28  1  0
 26 29  1  0
 24 30  1  0
 30 31  1  0
 31 32  1  0
 32 33  2  0
 32 34  1  0
 34 35  1  0
 34 36  1  0
 34 37  1  0
 30 38  2  0
 38 39  1  0
 19 40  2  0
 40 41  1  0
 40 42  1  0
 42 43  1  0
 42 44  2  0
 44 45  1  0
 12 46  2  0
 46 47  1  0
 47 48  1  0
 47 49  1  0
 47 50  1  0
 46  5  1  0
 44 17  1  0
 38 20  1  0
M  CHG  4   2  -1  18  -1  23  -1  31  -1
M  END
>  <UniqueID>  (14) 
11

>  <SMILES>  (14) 
C/N=c1\[n-]cc(-c2cccc(=NCc3cccc(C([NH-])=O)c3C)[n-]2)cc1[N-]C(C)=O

>  <Energy>  (14) 
70.79276528820458

>  <Genealogy>  (14) 
CN=c1[n-]cc(-c2cccc(=NCc3cccc(C([NH-])=O)c3C)[n-]2)cc1[N-]C(C)=O (protonated)
C/N=c1\[n-]cc(-c2cccc(=NCc3cccc(C([NH-])=O)c3C)[n-]2)cc1[N-]C(C)=O (cis-trans isomerization)
C/N=c1\[n-]cc(-c2cccc(=NCc3cccc(C([NH-])=O)c3C)[n-]2)cc1[N-]C(C)=O (3D coordinates assigned)
C/N=c1\[n-]cc(-c2cccc(=NCc3cccc(C([NH-])=O)c3C)[n-]2)cc1[N-]C(C)=O (optimized conformer: 70.79276528820458 kcal/mol)

>  <smiles>  (14) 
CN=c1[nH]cc(-c2cccc(=NCc3cccc(C(N)=O)c3C)[nH]2)cc1NC(C)=O

>  <score_type>  (14) 
oracle

>  <origin>  (14) 
adg

>  <m_score__min__energy>  (14) 
-15.300000000000001

>  <m_primary>  (14) 
energy

$$$$
15:0
     RDKit          3D

 63 66  0  0  1  0  0  0  0  0999 V2000
   63.2910   33.0050   47.1650 C   0  0  0  0  0  0  0  0  0  0  0  0
   62.5910   32.9300   48.3850 O   0  0  0  0  0  0  0  0  0  0  0  0
   62.2990   31.7650   49.0690 C   0  0  0  0  0  0  0  0  0  0  0  0
   61.3900   30.8220   48.6730 C   0  0  0  0  0  0  0  0  0  0  0  0
   61.1310   29.6630   49.3970 C   0  0  0  0  0  0  0  0  0  0  0  0
   60.1630   28.7590   48.8780 N   0  0  0  0  0  0  0  0  0  0  0  0
   59.6210   29.0300   47.7360 C   0  0  0  0  0  0  0  0  0  0  0  0
   59.6920   28.1950   46.6820 N   0  0  0  0  0  0  0  0  0  0  0  0
   59.0940   28.5650   45.5190 C   0  0  0  0  0  0  0  0  0  0  0  0
   58.4340   29.7540   45.4160 C   0  0  0  0  0  0  0  0  0  0  0  0
   57.6820   30.1950   43.9210 Cl  0  0  0  0  0  0  0  0  0  0  0  0
   58.3650   30.6020   46.4920 C   0  0  0  0  0  0  0  0  0  0  0  0
   57.7750   31.7240   46.4760 N   0  0  0  0  0  0  0  0  0  0  0  0
   58.4320   32.9600   46.2590 C   0  0  0  0  0  0  0  0  0  0  0  0
   58.5170   33.4000   44.9280 C   0  0  0  0  0  0  0  0  0  0  0  0
   59.1730   34.5980   44.6240 C   0  0  0  0  0  0  0  0  0  0  0  0
   59.7310   35.3330   45.6700 C   0  0  0  0  0  0  0  0  0  0  0  0
   59.6380   34.8870   46.9800 C   0  0  0  0  0  0  0  0  0  0  0  0
   58.9970   33.7100   47.2900 C   0  0  0  0  0  0  0  0  0  0  0  0
   58.8810   33.2050   48.6660 C   0  0  0  0  0  0  0  0  0  0  0  0
   57.7810   32.6600   48.9530 O   0  0  0  0  0  0  0  0  0  0  0  0
   59.8950   33.3000   49.6250 N   0  0  0  0  0  0  0  0  0  0  0  0
   59.8140   32.8130   50.9860 C   0  0  0  0  0  0  0  0  0  0  0  0
   58.7320   31.7990   51.1540 C   0  0  0  0  0  0  0  0  0  0  0  0
   57.5530   31.9130   51.8630 C   0  0  0  0  0  0  0  0  0  0  0  0
   56.8820   30.6940   51.7100 C   0  0  0  0  0  0  0  0  0  0  0  0
   55.5900   30.3270   52.2790 C   0  0  0  0  0  0  0  0  0  0  0  0
   55.2600   28.9380   52.3820 N   0  0  0  0  0  0  0  0  0  0  0  0
   54.7960   31.2330   52.6670 O   0  0  0  0  0  0  0  0  0  0  0  0
   57.6690   29.9280   50.9370 N   0  0  0  0  0  0  0  0  0  0  0  0
   58.7360   30.6000   50.6310 O   0  0  0  0  0  0  0  0  0  0  0  0
   58.9710   30.2120   47.6490 N   0  0  0  0  0  0  0  0  0  0  0  0
   61.8110   29.4280   50.5810 C   0  0  0  0  0  0  0  0  0  0  0  0
   62.7270   30.3740   50.9890 C   0  0  0  0  0  0  0  0  0  0  0  0
   63.4480   30.2160   52.1590 O   0  0  0  0  0  0  0  0  0  0  0  0
   63.0190   30.8520   53.3320 C   0  0  0  0  0  0  0  0  0  0  0  0
   62.9800   31.5300   50.2570 C   0  0  0  0  0  0  0  0  0  0  0  0
   63.9280   32.4590   50.7230 O   0  0  0  0  0  0  0  0  0  0  0  0
   65.2110   32.5830   50.1250 C   0  0  0  0  0  0  0  0  0  0  0  0
   64.3664   33.1202   47.3658 H   0  0  0  0  0  0  0  0  0  0  0  0
   63.1223   32.0836   46.5882 H   0  0  0  0  0  0  0  0  0  0  0  0
   62.9310   33.8697   46.5882 H   0  0  0  0  0  0  0  0  0  0  0  0
   60.8373   30.9886   47.7367 H   0  0  0  0  0  0  0  0  0  0  0  0
   60.2020   27.2880   46.7820 H   0  0  0  0  0  0  0  0  0  0  0  0
   59.1431   27.8954   44.6477 H   0  0  0  0  0  0  0  0  0  0  0  0
   58.0667   32.8014   44.1225 H   0  0  0  0  0  0  0  0  0  0  0  0
   59.2469   34.9517   43.5850 H   0  0  0  0  0  0  0  0  0  0  0  0
   60.2511   36.2778   45.4533 H   0  0  0  0  0  0  0  0  0  0  0  0
   60.0855   35.4861   47.7867 H   0  0  0  0  0  0  0  0  0  0  0  0
   60.7970   33.7740   49.3130 H   0  0  0  0  0  0  0  0  0  0  0  0
   60.7762   32.3537   51.2566 H   0  0  0  0  0  0  0  0  0  0  0  0
   59.5830   33.6674   51.6392 H   0  0  0  0  0  0  0  0  0  0  0  0
   57.2092   32.7877   52.4345 H   0  0  0  0  0  0  0  0  0  0  0  0
   55.5340   28.4310   53.2680 H   0  0  0  0  0  0  0  0  0  0  0  0
   54.7700   28.4090   51.6420 H   0  0  0  0  0  0  0  0  0  0  0  0
   58.9170   30.8660   48.4800 H   0  0  0  0  0  0  0  0  0  0  0  0
   61.6267   28.5199   51.1738 H   0  0  0  0  0  0  0  0  0  0  0  0
   63.3921   30.2988   54.2065 H   0  0  0  0  0  0  0  0  0  0  0  0
   63.4087   31.8804   53.3550 H   0  0  0  0  0  0  0  0  0  0  0  0
   61.9195   30.8759   53.3550 H   0  0  0  0  0  0  0  0  0  0  0  0
   65.9765   32.6570   50.9115 H   0  0  0  0  0  0  0  0  0  0  0  0
   65.4113   31.7000   49.5003 H   0  0  0  0  0  0  0  0  0  0  0  0
   65.2385   33.4880   49.5003 H   0  0  0  0  0  0  0  0  0  0  0  0
  1  2  1  0
  2  3  1  0
  3  4  2  0
  4  5  1  0
  5  6  1  0
  6  7  2  0
  7  8  1  0
  8  9  1  0
  9 10  2  0
 10 11  1  0
 10 12  1  0
 12 13  2  0
 13 14  1  0
 14 15  2  0
 15 16  1  0
 16 17  2  0
 17 18  1  0
 18 19  2  0
 19 20  1  0
 20 21  2  0
 20 22  1  0
 22 23  1  0
 23 24  1  0
 24 25  2  0
 25 26  1  0
 26 27  1  0
 27 28  1  0
 27 29  2  0
 26 30  2  0
 30 31  1  0
 12 32  1  0
  5 33  2  0
 33 34  1  0
 34 35  1  0
 35 36  1  0
 34 37  2  0
 37 38  1  0
 38 39  1  0
 37  3  1  0
 32  7  1  0
 19 14  1  0
 31 24  1  0
  1 40  1  0
  1 41  1  0
  1 42  1  0
  4 43  1  0
  8 44  1  0
  9 45  1  0
 15 46  1  0
 16 47  1  0
 17 48  1  0
 18 49  1  0
 22 50  1  0
 23 51  1  0
 23 52  1  0
 25 53  1  0
 28 54  1  0
 28 55  1  0
 32 56  1  0
 33 57  1  0
 36 58  1  0
 36 59  1  0
 36 60  1  0
 39 61  1  0
 39 62  1  0
 39 63  1  0
M  END
>  <smiles>  (15) 
COc1cc(N=c2[nH]cc(Cl)c(=Nc3ccccc3C(=O)NCc3cc(C(N)=O)no3)[nH]2)cc(OC)c1OC

>  <score_type>  (15) 
oracle

>  <origin>  (15) 
adg

>  <m_score__min__energy>  (15) 
-9.5899999999999999

>  <m_primary>  (15) 
energy

$$$$
16:0
     RDKit          3D

 57 60  0  0  0  0  0  0  0  0999 V2000
   55.1360   26.7210   47.4260 H   0  0  0  0  0  0  0  0  0  0  0  0
   55.3390   26.7070   46.4340 O   0  0  0  0  0  0  0  0  0  0  0  0
   55.2770   25.5450   45.6640 C   0  0  0  0  0  0  0  0  0  0  0  0
   54.1170   24.8360   45.6500 N   0  0  0  0  0  0  0  0  0  0  0  0
   54.0010   23.6840   44.9430 C   0  0  0  0  0  0  0  0  0  0  0  0
   52.9150   23.0510   44.9460 O   0  0  0  0  0  0  0  0  0  0  0  0
   55.0590   23.2100   44.2380 N   0  0  0  0  0  0  0  0  0  0  0  0
   56.2410   23.8780   44.2130 C   0  0  0  0  0  0  0  0  0  0  0  0
   57.2030   23.4060   43.5490 O   0  0  0  0  0  0  0  0  0  0  0  0
   56.3800   25.0860   44.9140 C   0  0  0  0  0  0  0  0  0  0  0  0
   57.6680   25.8060   44.9010 C   0  0  0  0  0  0  0  0  0  0  0  0
   58.5820   25.1994   44.8198 H   0  0  0  0  0  0  0  0  0  0  0  0
   57.8210   27.1420   44.9800 C   0  0  0  0  0  0  0  0  0  0  0  0
   57.4170   27.9990   43.9690 C   0  0  0  0  0  0  0  0  0  0  0  0
   56.9027   27.7162   43.0386 H   0  0  0  0  0  0  0  0  0  0  0  0
   57.7810   29.2720   44.3490 C   0  0  0  0  0  0  0  0  0  0  0  0
   57.5520   30.5020   43.5240 C   0  0  0  0  0  0  0  0  0  0  0  0
   57.3915   31.3642   44.1880 H   0  0  0  0  0  0  0  0  0  0  0  0
   58.4312   30.6867   42.8892 H   0  0  0  0  0  0  0  0  0  0  0  0
   56.6652   30.3579   42.8892 H   0  0  0  0  0  0  0  0  0  0  0  0
   58.3630   29.2500   45.5700 N   0  0  0  0  0  0  0  0  0  0  0  0
   58.8730   30.3910   46.2820 C   0  0  0  0  0  0  0  0  0  0  0  0
   60.1590   30.3920   46.7260 N   0  0  0  0  0  0  0  0  0  0  0  0
   60.6870   31.4470   47.4020 C   0  0  0  0  0  0  0  0  0  0  0  0
   61.7297   31.4077   47.7500 H   0  0  0  0  0  0  0  0  0  0  0  0
   59.9070   32.5870   47.6580 C   0  0  0  0  0  0  0  0  0  0  0  0
   60.4730   33.7340   48.4050 C   0  0  0  0  0  0  0  0  0  0  0  0
   59.9950   34.8880   48.2230 O   0  0  0  0  0  0  0  0  0  0  0  0
   61.5780   33.5650   49.3100 N   0  0  0  0  0  0  0  0  0  0  0  0
   62.6340   34.5840   49.3430 C   0  0  0  0  0  0  0  0  0  0  0  0
   62.9965   34.7612   48.3197 H   0  0  0  0  0  0  0  0  0  0  0  0
   62.2180   35.5099   49.7670 H   0  0  0  0  0  0  0  0  0  0  0  0
   63.8040   34.1250   50.2180 C   0  0  0  0  0  0  0  0  0  0  0  0
   64.7143   34.6744   49.9359 H   0  0  0  0  0  0  0  0  0  0  0  0
   63.5789   34.3228   51.2764 H   0  0  0  0  0  0  0  0  0  0  0  0
   64.0130   32.6850   50.0130 N   0  0  0  0  0  0  0  0  0  0  0  0
   65.5400   32.1840   50.6980 S   0  0  0  0  0  0  0  0  0  0  0  0
   66.6480   32.5670   49.7580 O   0  0  0  0  0  0  0  0  0  0  0  0
   65.5490   30.6910   50.8700 O   0  0  0  0  0  0  0  0  0  0  0  0
   65.8440   32.9510   52.2810 C   0  0  0  0  0  0  0  0  0  0  0  0
   65.5676   32.2536   53.0855 H   0  0  0  0  0  0  0  0  0  0  0  0
   66.9108   33.2051   52.3665 H   0  0  0  0  0  0  0  0  0  0  0  0
   65.2409   33.8670   52.3665 H   0  0  0  0  0  0  0  0  0  0  0  0
   62.9040   31.8890   50.5800 C   0  0  0  0  0  0  0  0  0  0  0  0
   62.8980   30.9009   50.0967 H   0  0  0  0  0  0  0  0  0  0  0  0
   63.0725   31.8125   51.6643 H   0  0  0  0  0  0  0  0  0  0  0  0
   61.5240   32.5490   50.3700 C   0  0  0  0  0  0  0  0  0  0  0  0
   60.7949   31.7749   50.0885 H   0  0  0  0  0  0  0  0  0  0  0  0
   61.2254   33.0394   51.3083 H   0  0  0  0  0  0  0  0  0  0  0  0
   58.5730   32.5940   47.2240 C   0  0  0  0  0  0  0  0  0  0  0  0
   57.9339   33.4652   47.4304 H   0  0  0  0  0  0  0  0  0  0  0  0
   58.0540   31.4990   46.5310 C   0  0  0  0  0  0  0  0  0  0  0  0
   57.0104   31.5066   46.1835 H   0  0  0  0  0  0  0  0  0  0  0  0
   58.3860   27.9550   45.9800 C   0  0  0  0  0  0  0  0  0  0  0  0
   58.7970   27.5790   47.2020 C   0  0  0  0  0  0  0  0  0  0  0  0
   59.2239   28.3222   47.8916 H   0  0  0  0  0  0  0  0  0  0  0  0
   58.7068   26.5278   47.5134 H   0  0  0  0  0  0  0  0  0  0  0  0
  1  2  1  0
  2  3  1  0
  3  4  1  0
  4  5  1  0
  5  6  2  0
  5  7  1  0
  7  8  1  0
  8  9  2  0
  8 10  1  0
 10 11  1  0
 11 12  1  0
 11 13  2  0
 13 14  1  0
 14 15  1  0
 14 16  2  0
 16 17  1  0
 17 18  1  0
 17 19  1  0
 17 20  1  0
 16 21  1  0
 21 22  1  0
 22 23  2  0
 23 24  1  0
 24 25  1  0
 24 26  2  0
 26 27  1  0
 27 28  2  0
 27 29  1  0
 29 30  1  0
 30 31  1  0
 30 32  1  0
 30 33  1  0
 33 34  1  0
 33 35  1  0
 33 36  1  0
 36 37  1  0
 37 38  2  0
 37 39  2  0
 37 40  1  0
 40 41  1  0
 40 42  1  0
 40 43  1  0
 36 44  1  0
 44 45  1  0
 44 46  1  0
 44 47  1  0
 47 48  1  0
 47 49  1  0
 26 50  1  0
 50 51  1  0
 50 52  2  0
 52 53  1  0
 21 54  1  0
 54 55  2  0
 55 56  1  0
 55 57  1  0
 10  3  2  0
 54 13  1  0
 52 22  1  0
 47 29  1  0
M  CHG  2   4  -1   7  -1
M  END
>  <UniqueID>  (16) 
12

>  <SMILES>  (16) 
C=c1/c(=C\c2c(O)[n-]c(=O)[n-]c2=O)cc(C)n1-c1ccc(C(=O)N2CCN(S(C)(=O)=O)CC2)cn1

>  <Energy>  (16) 
113.89730953442296

>  <Genealogy>  (16) 
C=c1c(=Cc2c(O)[n-]c(=O)[n-]c2=O)cc(C)n1-c1ccc(C(=O)N2CCN(S(C)(=O)=O)CC2)cn1 (protonated)
C=c1/c(=C\c2c(O)[n-]c(=O)[n-]c2=O)cc(C)n1-c1ccc(C(=O)N2CCN(S(C)(=O)=O)CC2)cn1 (cis-trans isomerization)
C=c1/c(=C\c2c(O)[n-]c(=O)[n-]c2=O)cc(C)n1-c1ccc(C(=O)N2CCN(S(C)(=O)=O)CC2)cn1 (3D coordinates assigned)
C=c1/c(=C\c2c(O)[n-]c(=O)[n-]c2=O)cc(C)n1-c1ccc(C(=O)N2CCN(S(C)(=O)=O)CC2)cn1 (nonaromatic ring conformer: 113.89730953442296 kcal/mol)

>  <smiles>  (16) 
C=c1c(=Cc2c(O)[nH]c(=O)[nH]c2=O)cc(C)n1-c1ccc(C(=O)N2CCN(S(C)(=O)=O)CC2)cn1

>  <score_type>  (16) 
oracle

>  <origin>  (16) 
adg

>  <m_score__min__energy>  (16) 
-13.550000000000001

>  <m_primary>  (16) 
energy

$$$$
17:0
     RDKit          3D

 47 49  0  0  0  0  0  0  0  0999 V2000
   59.6480   35.4930   46.4280 O   0  0  0  0  0  0  0  0  0  0  0  0
   59.0980   34.3570   46.4610 C   0  0  0  0  0  0  0  0  0  0  0  0
   57.6650   34.2150   46.0270 C   0  0  0  0  0  0  0  0  0  0  0  0
   57.5370   33.8020   44.5450 C   0  0  0  0  0  0  0  0  0  0  0  0
   58.4420   32.6220   44.1480 C   0  0  0  0  0  0  0  0  0  0  0  0
   57.8530   31.2920   44.4260 N   0  0  0  0  0  0  0  0  0  0  0  0
   56.6550   30.9480   43.8540 C   0  0  0  0  0  0  0  0  0  0  0  0
   56.0230   29.7450   44.1760 C   0  0  0  0  0  0  0  0  0  0  0  0
   56.5880   28.9070   45.1410 C   0  0  0  0  0  0  0  0  0  0  0  0
   55.9000   27.7390   45.6080 N   0  0  0  0  0  0  0  0  0  0  0  0
   56.5470   26.5820   46.1430 C   0  0  0  0  0  0  0  0  0  0  0  0
   57.4570   26.7330   47.0010 O   0  0  0  0  0  0  0  0  0  0  0  0
   56.2320   25.2360   45.6230 C   0  0  0  0  0  0  0  0  0  0  0  0
   57.0620   24.6110   44.6780 C   0  0  0  0  0  0  0  0  0  0  0  0
   56.6800   23.3810   44.1360 C   0  0  0  0  0  0  0  0  0  0  0  0
   55.4810   22.7900   44.5320 C   0  0  0  0  0  0  0  0  0  0  0  0
   54.6900   23.4270   45.4900 C   0  0  0  0  0  0  0  0  0  0  0  0
   55.0760   24.6250   46.0040 N   0  0  0  0  0  0  0  0  0  0  0  0
   57.7910   29.2730   45.7390 C   0  0  0  0  0  0  0  0  0  0  0  0
   58.4220   30.4630   45.3660 C   0  0  0  0  0  0  0  0  0  0  0  0
   59.5120   30.7660   45.9240 O   0  0  0  0  0  0  0  0  0  0  0  0
   59.8010   33.2370   47.0170 N   0  0  0  0  0  0  0  0  0  0  0  0
   61.1770   33.3180   47.4160 C   0  0  0  0  0  0  0  0  0  0  0  0
   61.5640   33.0290   48.7350 C   0  0  0  0  0  0  0  0  0  0  0  0
   62.9110   33.0950   49.1030 C   0  0  0  0  0  0  0  0  0  0  0  0
   63.8800   33.4480   48.1590 C   0  0  0  0  0  0  0  0  0  0  0  0
   63.4980   33.7500   46.8490 C   0  0  0  0  0  0  0  0  0  0  0  0
   62.1510   33.6980   46.4800 C   0  0  0  0  0  0  0  0  0  0  0  0
   57.1814   33.4485   46.6504 H   0  0  0  0  0  0  0  0  0  0  0  0
   57.1802   35.1953   46.1450 H   0  0  0  0  0  0  0  0  0  0  0  0
   56.4919   33.5171   44.3535 H   0  0  0  0  0  0  0  0  0  0  0  0
   57.8552   34.6661   43.9432 H   0  0  0  0  0  0  0  0  0  0  0  0
   58.6473   32.6910   43.0695 H   0  0  0  0  0  0  0  0  0  0  0  0
   59.3538   32.7005   44.7582 H   0  0  0  0  0  0  0  0  0  0  0  0
   56.1847   31.6301   43.1305 H   0  0  0  0  0  0  0  0  0  0  0  0
   55.0871   29.4591   43.6736 H   0  0  0  0  0  0  0  0  0  0  0  0
   58.0045   25.0856   44.3673 H   0  0  0  0  0  0  0  0  0  0  0  0
   57.3241   22.8800   43.3983 H   0  0  0  0  0  0  0  0  0  0  0  0
   55.1618   21.8325   44.0945 H   0  0  0  0  0  0  0  0  0  0  0  0
   53.7539   22.9593   45.8291 H   0  0  0  0  0  0  0  0  0  0  0  0
   58.2444   28.6260   46.5044 H   0  0  0  0  0  0  0  0  0  0  0  0
   59.2540   32.3910   47.2950 H   0  0  0  0  0  0  0  0  0  0  0  0
   60.8049   32.7499   49.4806 H   0  0  0  0  0  0  0  0  0  0  0  0
   63.2091   32.8687   50.1374 H   0  0  0  0  0  0  0  0  0  0  0  0
   64.9409   33.4880   48.4468 H   0  0  0  0  0  0  0  0  0  0  0  0
   64.2597   34.0294   46.1062 H   0  0  0  0  0  0  0  0  0  0  0  0
   61.8535   33.9557   45.4528 H   0  0  0  0  0  0  0  0  0  0  0  0
  1  2  2  0
  2  3  1  0
  3  4  1  0
  4  5  1  0
  5  6  1  0
  6  7  1  0
  7  8  2  0
  8  9  1  0
  9 10  1  0
 10 11  1  0
 11 12  2  0
 11 13  1  0
 13 14  2  0
 14 15  1  0
 15 16  2  0
 16 17  1  0
 17 18  2  0
  9 19  2  0
 19 20  1  0
 20 21  2  0
  2 22  1  0
 22 23  1  0
 23 24  2  0
 24 25  1  0
 25 26  2  0
 26 27  1  0
 27 28  2  0
 20  6  1  0
 28 23  1  0
 18 13  1  0
  3 29  1  0
  3 30  1  0
  4 31  1  0
  4 32  1  0
  5 33  1  0
  5 34  1  0
  7 35  1  0
  8 36  1  0
 14 37  1  0
 15 38  1  0
 16 39  1  0
 17 40  1  0
 19 41  1  0
 22 42  1  0
 24 43  1  0
 25 44  1  0
 26 45  1  0
 27 46  1  0
 28 47  1  0
M  CHG  1  10  -1
M  END
>  <UniqueID>  (17) 
13

>  <SMILES>  (17) 
O=C(CCCn1ccc([N-]C(=O)c2ccccn2)cc1=O)Nc1ccccc1

>  <Energy>  (17) 
59.73566476169265

>  <Genealogy>  (17) 
O=C(CCCn1ccc([N-]C(=O)c2ccccn2)cc1=O)Nc1ccccc1 (protonated)
O=C(CCCn1ccc([N-]C(=O)c2ccccn2)cc1=O)Nc1ccccc1 (3D coordinates assigned)
O=C(CCCn1ccc([N-]C(=O)c2ccccn2)cc1=O)Nc1ccccc1 (optimized conformer: 59.73566476169265 kcal/mol)

>  <smiles>  (17) 
O=C(CCCn1ccc(NC(=O)c2ccccn2)cc1=O)Nc1ccccc1

>  <score_type>  (17) 
oracle

>  <origin>  (17) 
adg

>  <m_score__min__energy>  (17) 
-10.43

>  <m_primary>  (17) 
energy

$$$$
18:0
     RDKit          3D

 43 45  0  0  0  0  0  0  0  0999 V2000
   56.6690   33.8160   46.1910 O   0  0  0  0  0  0  0  0  0  0  0  0
   57.7800   33.2940   46.4780 C   0  0  0  0  0  0  0  0  0  0  0  0
   58.8490   33.2170   45.4150 C   0  0  0  0  0  0  0  0  0  0  0  0
   58.3070   32.6670   44.0920 C   0  0  0  0  0  0  0  0  0  0  0  0
   57.7650   31.2760   44.2310 C   0  0  0  0  0  0  0  0  0  0  0  0
   58.5060   30.1120   44.1200 C   0  0  0  0  0  0  0  0  0  0  0  0
   57.6130   29.0900   44.3490 C   0  0  0  0  0  0  0  0  0  0  0  0
   58.0150   27.3420   44.4230 S   0  0  0  0  0  0  0  0  0  0  0  0
   58.7780   27.4760   46.0400 C   0  0  0  0  0  0  0  0  0  0  0  0
   58.1890   28.2700   47.0330 C   0  0  0  0  0  0  0  0  0  0  0  0
   58.7940   28.3840   48.2890 C   0  0  0  0  0  0  0  0  0  0  0  0
   59.9770   27.6890   48.5620 C   0  0  0  0  0  0  0  0  0  0  0  0
   60.8240   27.8710   50.2630 Br  0  0  0  0  0  0  0  0  0  0  0  0
   60.5540   26.8780   47.5790 C   0  0  0  0  0  0  0  0  0  0  0  0
   59.9570   26.7740   46.3170 C   0  0  0  0  0  0  0  0  0  0  0  0
   56.3940   29.6910   44.5850 C   0  0  0  0  0  0  0  0  0  0  0  0
   55.2020   29.0380   44.8800 O   0  0  0  0  0  0  0  0  0  0  0  0
   56.5100   30.9960   44.5070 O   0  0  0  0  0  0  0  0  0  0  0  0
   57.9870   32.8050   47.8100 N   0  0  0  0  0  0  0  0  0  0  0  0
   58.7510   31.6130   48.1580 C   0  0  0  0  0  0  0  0  0  0  0  0
   60.1890   31.9970   48.3840 C   0  0  0  0  0  0  0  0  0  0  0  0
   60.5040   32.9330   49.3860 C   0  0  0  0  0  0  0  0  0  0  0  0
   61.8350   33.2740   49.6450 C   0  0  0  0  0  0  0  0  0  0  0  0
   62.8660   32.6740   48.9170 C   0  0  0  0  0  0  0  0  0  0  0  0
   64.5360   33.0950   49.2480 Cl  0  0  0  0  0  0  0  0  0  0  0  0
   62.5660   31.7300   47.9290 C   0  0  0  0  0  0  0  0  0  0  0  0
   61.2350   31.3850   47.6610 C   0  0  0  0  0  0  0  0  0  0  0  0
   60.9110   30.1840   46.4180 Cl  0  0  0  0  0  0  0  0  0  0  0  0
   59.2503   34.2264   45.2417 H   0  0  0  0  0  0  0  0  0  0  0  0
   59.6324   32.5319   45.7712 H   0  0  0  0  0  0  0  0  0  0  0  0
   57.5007   33.3267   43.7389 H   0  0  0  0  0  0  0  0  0  0  0  0
   59.1415   32.6320   43.3761 H   0  0  0  0  0  0  0  0  0  0  0  0
   59.5794   30.0229   43.8965 H   0  0  0  0  0  0  0  0  0  0  0  0
   57.2502   28.8040   46.8247 H   0  0  0  0  0  0  0  0  0  0  0  0
   58.3393   29.0205   49.0624 H   0  0  0  0  0  0  0  0  0  0  0  0
   61.4774   26.3217   47.7978 H   0  0  0  0  0  0  0  0  0  0  0  0
   60.4145   26.1405   45.5428 H   0  0  0  0  0  0  0  0  0  0  0  0
   55.1500   28.0260   44.9050 H   0  0  0  0  0  0  0  0  0  0  0  0
   58.3403   31.1674   49.0760 H   0  0  0  0  0  0  0  0  0  0  0  0
   58.6876   30.8807   47.3397 H   0  0  0  0  0  0  0  0  0  0  0  0
   59.6972   33.4000   49.9700 H   0  0  0  0  0  0  0  0  0  0  0  0
   62.0709   34.0154   50.4227 H   0  0  0  0  0  0  0  0  0  0  0  0
   63.3794   31.2563   47.3598 H   0  0  0  0  0  0  0  0  0  0  0  0
  1  2  2  0
  2  3  1  0
  3  4  1  0
  4  5  1  0
  5  6  2  0
  6  7  1  0
  7  8  1  0
  8  9  1  0
  9 10  2  0
 10 11  1  0
 11 12  2  0
 12 13  1  0
 12 14  1  0
 14 15  2  0
  7 16  2  0
 16 17  1  0
 16 18  1  0
  2 19  1  0
 19 20  1  0
 20 21  1  0
 21 22  2  0
 22 23  1  0
 23 24  2  0
 24 25  1  0
 24 26  1  0
 26 27  2  0
 27 28  1  0
 18  5  1  0
 27 21  1  0
 15  9  1  0
  3 29  1  0
  3 30  1  0
  4 31  1  0
  4 32  1  0
  6 33  1  0
 10 34  1  0
 11 35  1  0
 14 36  1  0
 15 37  1  0
 17 38  1  0
 20 39  1  0
 20 40  1  0
 22 41  1  0
 23 42  1  0
 26 43  1  0
M  CHG  1  19  -1
M  END
>  <UniqueID>  (18) 
14

>  <SMILES>  (18) 
O=C(CCc1cc(Sc2ccc(Br)cc2)c(O)o1)[N-]Cc1ccc(Cl)cc1Cl

>  <Energy>  (18) 
60.4042283736854

>  <Genealogy>  (18) 
O=C(CCc1cc(Sc2ccc(Br)cc2)c(O)o1)[N-]Cc1ccc(Cl)cc1Cl (protonated)
O=C(CCc1cc(Sc2ccc(Br)cc2)c(O)o1)[N-]Cc1ccc(Cl)cc1Cl (3D coordinates assigned)
O=C(CCc1cc(Sc2ccc(Br)cc2)c(O)o1)[N-]Cc1ccc(Cl)cc1Cl (optimized conformer: 60.4042283736854 kcal/mol)

>  <smiles>  (18) 
O=C(CCc1cc(Sc2ccc(Br)cc2)c(O)o1)NCc1ccc(Cl)cc1Cl

>  <score_type>  (18) 
oracle

>  <origin>  (18) 
adg

>  <m_score__min__energy>  (18) 
-10.83

>  <m_primary>  (18) 
energy

$$$$
19:0
     RDKit          3D

 75 78  0  0  0  0  0  0  0  0999 V2000
   60.8030   33.2540   50.7040 O   0  0  0  0  0  0  0  0  0  0  0  0
   61.2900   32.4540   51.5520 C   0  0  0  0  0  0  0  0  0  0  0  0
   62.1010   31.2830   51.0820 C   0  0  0  0  0  0  0  0  0  0  0  0
   61.2510   30.3250   50.2910 C   0  0  0  0  0  0  0  0  0  0  0  0
   60.5290   30.7740   49.1740 C   0  0  0  0  0  0  0  0  0  0  0  0
   59.7510   29.8800   48.4310 C   0  0  0  0  0  0  0  0  0  0  0  0
   59.7010   28.5240   48.7760 C   0  0  0  0  0  0  0  0  0  0  0  0
   58.8520   27.6490   48.0200 N   0  0  0  0  0  0  0  0  0  0  0  0
   59.2610   26.8030   46.9360 C   0  0  0  0  0  0  0  0  0  0  0  0
   59.5130   25.5840   47.1360 O   0  0  0  0  0  0  0  0  0  0  0  0
   59.3510   27.3780   45.5460 C   0  0  0  0  0  0  0  0  0  0  0  0
   58.0020   27.2810   44.7890 C   0  0  0  0  0  0  0  0  0  0  0  0
   57.1410   28.5400   44.9520 C   0  0  0  0  0  0  0  0  0  0  0  0
   57.8870   29.7530   44.5780 N   0  0  0  0  0  0  0  0  0  0  0  0
   57.1540   30.9660   44.3030 C   0  0  0  0  0  0  0  0  0  0  0  0
   55.9880   31.1000   44.7590 O   0  0  0  0  0  0  0  0  0  0  0  0
   57.7850   32.1040   43.5380 C   0  0  0  0  0  0  0  0  0  0  0  0
   57.5430   33.4650   44.2050 C   0  0  0  0  0  0  0  0  0  0  0  0
   58.3050   33.5590   45.5010 C   0  0  0  0  0  0  0  0  0  0  0  0
   57.7670   33.0230   46.6820 C   0  0  0  0  0  0  0  0  0  0  0  0
   58.4590   33.1460   47.8920 C   0  0  0  0  0  0  0  0  0  0  0  0
   59.6860   33.8140   47.9320 C   0  0  0  0  0  0  0  0  0  0  0  0
   60.2220   34.3630   46.7630 C   0  0  0  0  0  0  0  0  0  0  0  0
   59.5330   34.2400   45.5530 C   0  0  0  0  0  0  0  0  0  0  0  0
   59.3560   29.7130   44.5020 C   0  0  0  0  0  0  0  0  0  0  0  0
   59.9120   28.8190   45.6120 C   0  0  0  0  0  0  0  0  0  0  0  0
   60.4200   28.0740   49.8990 C   0  0  0  0  0  0  0  0  0  0  0  0
   61.1980   28.9670   50.6420 C   0  0  0  0  0  0  0  0  0  0  0  0
   61.1050   32.6880   52.9560 N   0  0  0  0  0  0  0  0  0  0  0  0
   60.2820   33.7810   53.4710 C   0  0  0  0  0  0  0  0  0  0  0  0
   58.8720   33.6820   52.9520 C   0  0  0  0  0  0  0  0  0  0  0  0
   58.2730   34.7340   52.5950 O   0  0  0  0  0  0  0  0  0  0  0  0
   58.1830   32.4160   52.8990 N   0  0  0  0  0  0  0  0  0  0  0  0
   58.6290   31.2840   53.7290 C   0  0  0  0  0  0  0  0  0  0  0  0
   57.4720   30.3180   54.0070 C   0  0  0  0  0  0  0  0  0  0  0  0
   56.7990   29.8180   52.7160 C   0  0  0  0  0  0  0  0  0  0  0  0
   56.8750   30.8220   51.5490 C   0  0  0  0  0  0  0  0  0  0  0  0
   57.0010   32.2690   52.0360 C   0  0  0  0  0  0  0  0  0  0  0  0
   62.9223   31.6454   50.4463 H   0  0  0  0  0  0  0  0  0  0  0  0
   62.5002   30.7559   51.9611 H   0  0  0  0  0  0  0  0  0  0  0  0
   60.5753   31.8335   48.8817 H   0  0  0  0  0  0  0  0  0  0  0  0
   59.1738   30.2452   47.5687 H   0  0  0  0  0  0  0  0  0  0  0  0
   60.0551   26.7741   44.9548 H   0  0  0  0  0  0  0  0  0  0  0  0
   58.2087   27.1319   43.7189 H   0  0  0  0  0  0  0  0  0  0  0  0
   57.4409   26.4367   45.2159 H   0  0  0  0  0  0  0  0  0  0  0  0
   56.2537   28.4527   44.3078 H   0  0  0  0  0  0  0  0  0  0  0  0
   56.8490   28.6253   46.0091 H   0  0  0  0  0  0  0  0  0  0  0  0
   58.8692   31.9292   43.4759 H   0  0  0  0  0  0  0  0  0  0  0  0
   57.3228   32.1334   42.5403 H   0  0  0  0  0  0  0  0  0  0  0  0
   57.8789   34.2647   43.5285 H   0  0  0  0  0  0  0  0  0  0  0  0
   56.4686   33.5729   44.4148 H   0  0  0  0  0  0  0  0  0  0  0  0
   56.7974   32.5042   46.6559 H   0  0  0  0  0  0  0  0  0  0  0  0
   58.0369   32.7165   48.8125 H   0  0  0  0  0  0  0  0  0  0  0  0
   60.2302   33.9079   48.8833 H   0  0  0  0  0  0  0  0  0  0  0  0
   61.1860   34.8918   46.7956 H   0  0  0  0  0  0  0  0  0  0  0  0
   59.9544   34.6787   44.6365 H   0  0  0  0  0  0  0  0  0  0  0  0
   59.6596   29.3113   43.5240 H   0  0  0  0  0  0  0  0  0  0  0  0
   59.7523   30.7317   44.6255 H   0  0  0  0  0  0  0  0  0  0  0  0
   61.0070   28.7765   45.5161 H   0  0  0  0  0  0  0  0  0  0  0  0
   59.6082   29.2532   46.5759 H   0  0  0  0  0  0  0  0  0  0  0  0
   60.3697   27.0153   50.1934 H   0  0  0  0  0  0  0  0  0  0  0  0
   61.7721   28.6031   51.5069 H   0  0  0  0  0  0  0  0  0  0  0  0
   61.4920   32.0010   53.6430 H   0  0  0  0  0  0  0  0  0  0  0  0
   60.2656   33.7327   54.5698 H   0  0  0  0  0  0  0  0  0  0  0  0
   60.7142   34.7351   53.1349 H   0  0  0  0  0  0  0  0  0  0  0  0
   59.4294   30.7444   53.2015 H   0  0  0  0  0  0  0  0  0  0  0  0
   58.9966   31.6762   54.6887 H   0  0  0  0  0  0  0  0  0  0  0  0
   57.8615   29.4509   54.5605 H   0  0  0  0  0  0  0  0  0  0  0  0
   56.7144   30.8624   54.5898 H   0  0  0  0  0  0  0  0  0  0  0  0
   57.2935   28.8859   52.4050 H   0  0  0  0  0  0  0  0  0  0  0  0
   55.7332   29.6713   52.9450 H   0  0  0  0  0  0  0  0  0  0  0  0
   57.7512   30.5793   50.9298 H   0  0  0  0  0  0  0  0  0  0  0  0
   55.9416   30.7403   50.9727 H   0  0  0  0  0  0  0  0  0  0  0  0
   57.1004   32.9368   51.1676 H   0  0  0  0  0  0  0  0  0  0  0  0
   56.1020   32.5321   52.6126 H   0  0  0  0  0  0  0  0  0  0  0  0
  1  2  2  0
  2  3  1  0
  3  4  1  0
  4  5  2  0
  5  6  1  0
  6  7  2  0
  7  8  1  0
  8  9  1  0
  9 10  2  0
  9 11  1  0
 11 12  1  0
 12 13  1  0
 13 14  1  0
 14 15  1  0
 15 16  2  0
 15 17  1  0
 17 18  1  0
 18 19  1  0
 19 20  2  0
 20 21  1  0
 21 22  2  0
 22 23  1  0
 23 24  2  0
 14 25  1  0
 25 26  1  0
  7 27  1  0
 27 28  2  0
  2 29  1  0
 29 30  1  0
 30 31  1  0
 31 32  2  0
 31 33  1  0
 33 34  1  0
 34 35  1  0
 35 36  1  0
 36 37  1  0
 37 38  1  0
 28  4  1  0
 38 33  1  0
 26 11  1  0
 24 19  1  0
  3 39  1  0
  3 40  1  0
  5 41  1  0
  6 42  1  0
 11 43  1  0
 12 44  1  0
 12 45  1  0
 13 46  1  0
 13 47  1  0
 17 48  1  0
 17 49  1  0
 18 50  1  0
 18 51  1  0
 20 52  1  0
 21 53  1  0
 22 54  1  0
 23 55  1  0
 24 56  1  0
 25 57  1  0
 25 58  1  0
 26 59  1  0
 26 60  1  0
 27 61  1  0
 28 62  1  0
 29 63  1  0
 30 64  1  0
 30 65  1  0
 34 66  1  0
 34 67  1  0
 35 68  1  0
 35 69  1  0
 36 70  1  0
 36 71  1  0
 37 72  1  0
 37 73  1  0
 38 74  1  0
 38 75  1  0
M  CHG  1   8  -1
M  END
>  <UniqueID>  (19) 
15

>  <SMILES>  (19) 
O=C(Cc1ccc([N-]C(=O)C2CCN(C(=O)CCc3ccccc3)CC2)cc1)NCC(=O)N1CCCCC1

>  <Energy>  (19) 
79.0919293744533

>  <Genealogy>  (19) 
O=C(Cc1ccc([N-]C(=O)C2CCN(C(=O)CCc3ccccc3)CC2)cc1)NCC(=O)N1CCCCC1 (protonated)
O=C(Cc1ccc([N-]C(=O)C2CCN(C(=O)CCc3ccccc3)CC2)cc1)NCC(=O)N1CCCCC1 (3D coordinates assigned)
O=C(Cc1ccc([N-]C(=O)C2CCN(C(=O)CCc3ccccc3)CC2)cc1)NCC(=O)N1CCCCC1 (nonaromatic ring conformer: 79.0919293744533 kcal/mol)

>  <smiles>  (19) 
O=C(Cc1ccc(NC(=O)C2CCN(C(=O)CCc3ccccc3)CC2)cc1)NCC(=O)N1CCCCC1

>  <score_type>  (19) 
oracle

>  <origin>  (19) 
adg

>  <m_score__min__energy>  (19) 
-11.27

>  <m_primary>  (19) 
energy

$$$$
20:0
     RDKit          3D

 58 61  0  0  1  0  0  0  0  0999 V2000
   60.5260   29.2940   46.8920 C   0  0  0  0  0  0  0  0  0  0  0  0
   59.4690   29.2470   47.9820 C   0  0  0  0  0  0  0  0  0  0  0  0
   58.1620   28.9240   47.4400 N   0  0  0  0  0  0  0  0  0  0  0  0
   57.7830   29.2320   46.2570 C   0  0  0  0  0  0  0  0  0  0  0  0
   57.5990   30.4950   45.8680 N   0  0  0  0  0  0  0  0  0  0  0  0
   57.2190   30.8920   44.6460 C   0  0  0  0  0  0  0  0  0  0  0  0
   57.0460   32.1070   44.3250 N   0  0  0  0  0  0  0  0  0  0  0  0
   58.0810   33.0720   44.2640 C   0  0  0  0  0  0  0  0  0  0  0  0
   58.7900   33.3170   45.5670 C   0  0  0  0  0  0  0  0  0  0  0  0
   59.7560   32.4400   45.9870 C   0  0  0  0  0  0  0  0  0  0  0  0
   60.4610   32.6480   47.1820 C   0  0  0  0  0  0  0  0  0  0  0  0
   60.2000   33.7600   47.9850 C   0  0  0  0  0  0  0  0  0  0  0  0
   60.9690   33.8870   49.1900 C   0  0  0  0  0  0  0  0  0  0  0  0
   60.2850   34.2310   50.2440 O   0  0  0  0  0  0  0  0  0  0  0  0
   62.3390   33.6960   49.4040 N   0  0  0  0  0  0  0  0  0  0  0  0
   63.4200   33.3240   48.5300 C   0  0  0  0  0  0  0  0  0  0  0  0
   64.6450   33.0530   49.3630 C   0  0  0  0  0  0  0  0  0  0  0  0
   64.0780   32.8660   50.7610 C   0  0  0  0  0  0  0  0  0  0  0  0
   62.9470   33.8640   50.7260 C   0  0  0  0  0  0  0  0  0  0  0  0
   59.2290   34.6250   47.5480 C   0  0  0  0  0  0  0  0  0  0  0  0
   58.5180   34.4250   46.3530 C   0  0  0  0  0  0  0  0  0  0  0  0
   57.0120   29.8760   43.7460 N   0  0  0  0  0  0  0  0  0  0  0  0
   57.1810   28.5880   44.0860 C   0  0  0  0  0  0  0  0  0  0  0  0
   57.5760   28.2040   45.3630 C   0  0  0  0  0  0  0  0  0  0  0  0
   57.7050   26.8050   45.6650 C   0  0  0  0  0  0  0  0  0  0  0  0
   58.9070   26.1160   45.6880 C   0  0  0  0  0  0  0  0  0  0  0  0
   58.9210   24.7750   46.0050 C   0  0  0  0  0  0  0  0  0  0  0  0
   57.7770   24.0550   46.3090 C   0  0  0  0  0  0  0  0  0  0  0  0
   56.5870   24.7440   46.2830 C   0  0  0  0  0  0  0  0  0  0  0  0
   56.5450   26.1010   45.9660 C   0  0  0  0  0  0  0  0  0  0  0  0
   55.3140   26.7270   45.9610 O   0  0  0  0  0  0  0  0  0  0  0  0
   61.5246   29.3384   47.3512 H   0  0  0  0  0  0  0  0  0  0  0  0
   60.4493   28.3916   46.2677 H   0  0  0  0  0  0  0  0  0  0  0  0
   60.3695   30.1861   46.2677 H   0  0  0  0  0  0  0  0  0  0  0  0
   59.7497   28.4808   48.7196 H   0  0  0  0  0  0  0  0  0  0  0  0
   59.4126   30.2399   48.4520 H   0  0  0  0  0  0  0  0  0  0  0  0
   57.7740   31.2350   46.6040 H   0  0  0  0  0  0  0  0  0  0  0  0
   58.8244   32.7309   43.5284 H   0  0  0  0  0  0  0  0  0  0  0  0
   57.6027   34.0231   43.9873 H   0  0  0  0  0  0  0  0  0  0  0  0
   59.9832   31.5549   45.3746 H   0  0  0  0  0  0  0  0  0  0  0  0
   61.2302   31.9248   47.4907 H   0  0  0  0  0  0  0  0  0  0  0  0
   63.1468   32.4184   47.9685 H   0  0  0  0  0  0  0  0  0  0  0  0
   63.6236   34.1384   47.8191 H   0  0  0  0  0  0  0  0  0  0  0  0
   65.1613   32.1437   49.0215 H   0  0  0  0  0  0  0  0  0  0  0  0
   65.3937   33.8567   49.3044 H   0  0  0  0  0  0  0  0  0  0  0  0
   63.7119   31.8407   50.9184 H   0  0  0  0  0  0  0  0  0  0  0  0
   64.8011   33.0164   51.5762 H   0  0  0  0  0  0  0  0  0  0  0  0
   62.2156   33.6485   51.5189 H   0  0  0  0  0  0  0  0  0  0  0  0
   63.2968   34.8933   50.8939 H   0  0  0  0  0  0  0  0  0  0  0  0
   58.9979   35.5108   48.1578 H   0  0  0  0  0  0  0  0  0  0  0  0
   57.7476   35.1460   46.0423 H   0  0  0  0  0  0  0  0  0  0  0  0
   56.7260   30.0640   42.7640 H   0  0  0  0  0  0  0  0  0  0  0  0
   57.0010   27.8104   43.3290 H   0  0  0  0  0  0  0  0  0  0  0  0
   59.8468   26.6377   45.4540 H   0  0  0  0  0  0  0  0  0  0  0  0
   59.8878   24.2505   46.0173 H   0  0  0  0  0  0  0  0  0  0  0  0
   57.8185   22.9846   46.5589 H   0  0  0  0  0  0  0  0  0  0  0  0
   55.6514   24.2148   46.5166 H   0  0  0  0  0  0  0  0  0  0  0  0
   55.1430   27.5400   45.3770 H   0  0  0  0  0  0  0  0  0  0  0  0
  1  2  1  0
  2  3  1  0
  3  4  2  0
  4  5  1  0
  5  6  1  0
  6  7  2  0
  7  8  1  0
  8  9  1  0
  9 10  2  0
 10 11  1  0
 11 12  2  0
 12 13  1  0
 13 14  2  0
 13 15  1  0
 15 16  1  0
 16 17  1  0
 17 18  1  0
 18 19  1  0
 12 20  1  0
 20 21  2  0
  6 22  1  0
 22 23  1  0
 23 24  2  0
 24 25  1  0
 25 26  2  0
 26 27  1  0
 27 28  2  0
 28 29  1  0
 29 30  2  0
 30 31  1  0
 24  4  1  0
 30 25  1  0
 21  9  1  0
 19 15  1  0
  1 32  1  0
  1 33  1  0
  1 34  1  0
  2 35  1  0
  2 36  1  0
  5 37  1  0
  8 38  1  0
  8 39  1  0
 10 40  1  0
 11 41  1  0
 16 42  1  0
 16 43  1  0
 17 44  1  0
 17 45  1  0
 18 46  1  0
 18 47  1  0
 19 48  1  0
 19 49  1  0
 20 50  1  0
 21 51  1  0
 22 52  1  0
 23 53  1  0
 26 54  1  0
 27 55  1  0
 28 56  1  0
 29 57  1  0
 31 58  1  0
M  END
>  <smiles>  (20) 
CCN=c1[nH]c(=NCc2ccc(C(=O)N3CCCC3)cc2)[nH]cc1-c1ccccc1O

>  <score_type>  (20) 
oracle

>  <origin>  (20) 
adg

>  <m_score__min__energy>  (20) 
-10.24

>  <m_primary>  (20) 
energy

$$$$
21:0
     RDKit          3D

 50 53  0  0  0  0  0  0  0  0999 V2000
   57.6950   30.1900   43.8640 C   0  0  0  0  0  0  0  0  0  0  0  0
   58.0290   29.8730   45.1260 C   0  0  0  0  0  0  0  0  0  0  0  0
   57.9120   28.6220   45.7510 C   0  0  0  0  0  0  0  0  0  0  0  0
   57.6170   27.4080   45.2480 C   0  0  0  0  0  0  0  0  0  0  0  0
   57.3220   26.1990   46.0410 C   0  0  0  0  0  0  0  0  0  0  0  0
   55.9980   25.8890   46.3980 C   0  0  0  0  0  0  0  0  0  0  0  0
   54.9420   26.7010   45.9940 O   0  0  0  0  0  0  0  0  0  0  0  0
   55.7370   24.7790   47.1360 N   0  0  0  0  0  0  0  0  0  0  0  0
   56.7430   23.9650   47.5530 C   0  0  0  0  0  0  0  0  0  0  0  0
   56.4780   22.9360   48.2270 O   0  0  0  0  0  0  0  0  0  0  0  0
   58.0350   24.2610   47.2480 N   0  0  0  0  0  0  0  0  0  0  0  0
   58.3480   25.3600   46.5150 C   0  0  0  0  0  0  0  0  0  0  0  0
   59.5560   25.6190   46.2710 O   0  0  0  0  0  0  0  0  0  0  0  0
   58.2010   28.8270   47.0890 C   0  0  0  0  0  0  0  0  0  0  0  0
   58.5250   30.1570   47.2290 C   0  0  0  0  0  0  0  0  0  0  0  0
   58.9010   30.8080   48.5290 C   0  0  0  0  0  0  0  0  0  0  0  0
   58.4570   30.7860   46.0340 N   0  0  0  0  0  0  0  0  0  0  0  0
   58.6560   32.1990   45.8250 C   0  0  0  0  0  0  0  0  0  0  0  0
   57.6030   32.9680   45.3080 C   0  0  0  0  0  0  0  0  0  0  0  0
   57.7340   34.3520   45.1760 C   0  0  0  0  0  0  0  0  0  0  0  0
   58.9100   34.9850   45.5780 C   0  0  0  0  0  0  0  0  0  0  0  0
   59.9650   34.2350   46.1020 C   0  0  0  0  0  0  0  0  0  0  0  0
   59.8570   32.8390   46.2150 C   0  0  0  0  0  0  0  0  0  0  0  0
   61.0050   32.0760   46.7490 C   0  0  0  0  0  0  0  0  0  0  0  0
   61.1430   30.8670   46.4250 O   0  0  0  0  0  0  0  0  0  0  0  0
   61.9400   32.6750   47.6630 N   0  0  0  0  0  0  0  0  0  0  0  0
   61.4790   33.6230   48.6810 C   0  0  0  0  0  0  0  0  0  0  0  0
   62.3730   33.5310   49.9220 C   0  0  0  0  0  0  0  0  0  0  0  0
   63.7390   33.6450   49.5650 O   0  0  0  0  0  0  0  0  0  0  0  0
   64.1210   32.5310   48.7800 C   0  0  0  0  0  0  0  0  0  0  0  0
   63.3790   32.5240   47.4370 C   0  0  0  0  0  0  0  0  0  0  0  0
   57.8397   31.2173   43.4983 H   0  0  0  0  0  0  0  0  0  0  0  0
   57.2768   29.4223   43.1964 H   0  0  0  0  0  0  0  0  0  0  0  0
   57.5940   27.3093   44.1527 H   0  0  0  0  0  0  0  0  0  0  0  0
   58.1764   28.0711   47.8878 H   0  0  0  0  0  0  0  0  0  0  0  0
   58.5438   30.1895   49.3656 H   0  0  0  0  0  0  0  0  0  0  0  0
   59.9951   30.9065   48.5868 H   0  0  0  0  0  0  0  0  0  0  0  0
   58.4396   31.8049   48.5868 H   0  0  0  0  0  0  0  0  0  0  0  0
   56.6667   32.4770   45.0042 H   0  0  0  0  0  0  0  0  0  0  0  0
   56.9083   34.9440   44.7543 H   0  0  0  0  0  0  0  0  0  0  0  0
   59.0066   36.0766   45.4822 H   0  0  0  0  0  0  0  0  0  0  0  0
   60.8860   34.7403   46.4282 H   0  0  0  0  0  0  0  0  0  0  0  0
   61.5228   34.6443   48.2748 H   0  0  0  0  0  0  0  0  0  0  0  0
   60.4438   33.3785   48.9614 H   0  0  0  0  0  0  0  0  0  0  0  0
   62.1122   34.3437   50.6159 H   0  0  0  0  0  0  0  0  0  0  0  0
   62.2132   32.5538   50.4011 H   0  0  0  0  0  0  0  0  0  0  0  0
   65.2039   32.5776   48.5924 H   0  0  0  0  0  0  0  0  0  0  0  0
   63.8637   31.6121   49.3272 H   0  0  0  0  0  0  0  0  0  0  0  0
   63.7403   33.3571   46.8161 H   0  0  0  0  0  0  0  0  0  0  0  0
   63.5672   31.5695   46.9237 H   0  0  0  0  0  0  0  0  0  0  0  0
  1  2  2  0
  2  3  1  0
  3  4  2  3
  4  5  1  0
  5  6  2  0
  6  7  1  0
  6  8  1  0
  8  9  1  0
  9 10  2  0
  9 11  1  0
 11 12  1  0
 12 13  2  0
  3 14  1  0
 14 15  2  0
 15 16  1  0
 15 17  1  0
 17 18  1  0
 18 19  2  0
 19 20  1  0
 20 21  2  0
 21 22  1  0
 22 23  2  0
 23 24  1  0
 24 25  2  0
 24 26  1  0
 26 27  1  0
 27 28  1  0
 28 29  1  0
 29 30  1  0
 30 31  1  0
 17  2  1  0
 23 18  1  0
 31 26  1  0
 12  5  1  0
  1 32  1  0
  1 33  1  0
  4 34  1  0
 14 35  1  0
 16 36  1  0
 16 37  1  0
 16 38  1  0
 19 39  1  0
 20 40  1  0
 21 41  1  0
 22 42  1  0
 27 43  1  0
 27 44  1  0
 28 45  1  0
 28 46  1  0
 30 47  1  0
 30 48  1  0
 31 49  1  0
 31 50  1  0
M  CHG  3   7  -1   8  -1  11  -1
M  END
>  <UniqueID>  (21) 
16

>  <SMILES>  (21) 
C=c1c(=Cc2c([O-])[n-]c(=O)[n-]c2=O)cc(C)n1-c1ccccc1C(=O)N1CCOCC1

>  <Energy>  (21) 
108.63505151536448

>  <Genealogy>  (21) 
C=c1c(=Cc2c([O-])[n-]c(=O)[n-]c2=O)cc(C)n1-c1ccccc1C(=O)N1CCOCC1 (protonated)
C=c1c(=Cc2c([O-])[n-]c(=O)[n-]c2=O)cc(C)n1-c1ccccc1C(=O)N1CCOCC1 (3D coordinates assigned)
C=c1c(=Cc2c([O-])[n-]c(=O)[n-]c2=O)cc(C)n1-c1ccccc1C(=O)N1CCOCC1 (nonaromatic ring conformer: 108.63505151536448 kcal/mol)

>  <smiles>  (21) 
C=c1c(=Cc2c(O)[nH]c(=O)[nH]c2=O)cc(C)n1-c1ccccc1C(=O)N1CCOCC1

>  <score_type>  (21) 
oracle

>  <origin>  (21) 
adg

>  <m_score__min__energy>  (21) 
-16.789999999999999

>  <m_primary>  (21) 
energy

$$$$
22:0
     RDKit          3D

 54 57  0  0  0  0  0  0  0  0999 V2000
   65.4170   32.6860   50.2970 C   0  0  0  0  0  0  0  0  0  0  0  0
   64.1860   33.4840   50.2260 N   0  0  0  0  0  0  0  0  0  0  0  0
   63.6940   34.1430   51.4410 C   0  0  0  0  0  0  0  0  0  0  0  0
   63.4610   33.6080   48.9770 C   0  0  0  0  0  0  0  0  0  0  0  0
   64.1100   33.4230   47.7410 C   0  0  0  0  0  0  0  0  0  0  0  0
   63.3930   33.5510   46.5510 C   0  0  0  0  0  0  0  0  0  0  0  0
   62.0690   33.8450   46.5800 N   0  0  0  0  0  0  0  0  0  0  0  0
   61.3950   34.0180   47.7480 C   0  0  0  0  0  0  0  0  0  0  0  0
   60.0310   34.3400   47.6940 O   0  0  0  0  0  0  0  0  0  0  0  0
   59.0960   33.7950   46.8020 C   0  0  0  0  0  0  0  0  0  0  0  0
   58.3360   34.6010   45.9370 C   0  0  0  0  0  0  0  0  0  0  0  0
   57.4040   34.0200   45.0740 C   0  0  0  0  0  0  0  0  0  0  0  0
   57.2120   32.6370   45.0770 C   0  0  0  0  0  0  0  0  0  0  0  0
   57.9450   31.8170   45.9500 C   0  0  0  0  0  0  0  0  0  0  0  0
   57.7130   30.3950   45.9410 N   0  0  0  0  0  0  0  0  0  0  0  0
   58.7930   29.4070   45.9010 C   0  0  0  0  0  0  0  0  0  0  0  0
   58.2590   28.0250   46.1700 C   0  0  0  0  0  0  0  0  0  0  0  0
   59.0250   27.0940   46.8860 C   0  0  0  0  0  0  0  0  0  0  0  0
   58.5370   25.8030   47.1120 C   0  0  0  0  0  0  0  0  0  0  0  0
   57.2790   25.4170   46.6160 C   0  0  0  0  0  0  0  0  0  0  0  0
   56.7580   24.0510   46.8630 C   0  0  0  0  0  0  0  0  0  0  0  0
   57.5330   23.0580   46.7650 O   0  0  0  0  0  0  0  0  0  0  0  0
   55.3750   23.8640   47.2100 N   0  0  0  0  0  0  0  0  0  0  0  0
   54.3710   23.8220   46.3850 C   0  0  0  0  0  0  0  0  0  0  0  0
   53.6390   22.7120   46.1440 N   0  0  0  0  0  0  0  0  0  0  0  0
   52.7280   23.1240   45.2460 C   0  0  0  0  0  0  0  0  0  0  0  0
   52.9300   24.4550   44.9720 C   0  0  0  0  0  0  0  0  0  0  0  0
   53.9720   24.9070   45.6920 N   0  0  0  0  0  0  0  0  0  0  0  0
   56.5230   26.3500   45.8810 C   0  0  0  0  0  0  0  0  0  0  0  0
   57.0120   27.6400   45.6570 C   0  0  0  0  0  0  0  0  0  0  0  0
   58.8860   32.4110   46.8140 C   0  0  0  0  0  0  0  0  0  0  0  0
   62.0880   33.9200   48.9670 C   0  0  0  0  0  0  0  0  0  0  0  0
   65.6822   32.5141   51.3506 H   0  0  0  0  0  0  0  0  0  0  0  0
   65.2568   31.7195   49.7968 H   0  0  0  0  0  0  0  0  0  0  0  0
   66.2339   33.2268   49.7968 H   0  0  0  0  0  0  0  0  0  0  0  0
   64.0848   33.6195   52.3260 H   0  0  0  0  0  0  0  0  0  0  0  0
   64.0338   35.1891   51.4540 H   0  0  0  0  0  0  0  0  0  0  0  0
   62.5944   34.1145   51.4540 H   0  0  0  0  0  0  0  0  0  0  0  0
   65.1819   33.1776   47.7138 H   0  0  0  0  0  0  0  0  0  0  0  0
   63.9029   33.4131   45.5862 H   0  0  0  0  0  0  0  0  0  0  0  0
   58.4755   35.6921   45.9397 H   0  0  0  0  0  0  0  0  0  0  0  0
   56.8199   34.6535   44.3903 H   0  0  0  0  0  0  0  0  0  0  0  0
   56.4807   32.1862   44.3900 H   0  0  0  0  0  0  0  0  0  0  0  0
   56.7230   30.0580   45.9740 H   0  0  0  0  0  0  0  0  0  0  0  0
   59.2629   29.4255   44.9066 H   0  0  0  0  0  0  0  0  0  0  0  0
   59.5317   29.6583   46.6764 H   0  0  0  0  0  0  0  0  0  0  0  0
   60.0145   27.3804   47.2718 H   0  0  0  0  0  0  0  0  0  0  0  0
   59.1424   25.0833   47.6826 H   0  0  0  0  0  0  0  0  0  0  0  0
   51.9438   22.4944   44.8003 H   0  0  0  0  0  0  0  0  0  0  0  0
   52.3322   25.0575   44.2723 H   0  0  0  0  0  0  0  0  0  0  0  0
   55.5401   26.0615   45.4801 H   0  0  0  0  0  0  0  0  0  0  0  0
   56.4151   28.3575   45.0748 H   0  0  0  0  0  0  0  0  0  0  0  0
   59.4625   31.7798   47.5062 H   0  0  0  0  0  0  0  0  0  0  0  0
   61.5564   34.0874   49.9154 H   0  0  0  0  0  0  0  0  0  0  0  0
  1  2  1  0
  2  3  1  0
  2  4  1  0
  4  5  2  0
  5  6  1  0
  6  7  2  0
  7  8  1  0
  8  9  1  0
  9 10  1  0
 10 11  2  0
 11 12  1  0
 12 13  2  0
 13 14  1  0
 14 15  1  0
 15 16  1  0
 16 17  1  0
 17 18  2  0
 18 19  1  0
 19 20  2  0
 20 21  1  0
 21 22  2  0
 21 23  1  0
 23 24  2  3
 24 25  1  0
 25 26  1  0
 26 27  2  0
 27 28  1  0
 20 29  1  0
 29 30  2  0
 14 31  2  0
  8 32  2  0
 32  4  1  0
 31 10  1  0
 30 17  1  0
 28 24  1  0
  1 33  1  0
  1 34  1  0
  1 35  1  0
  3 36  1  0
  3 37  1  0
  3 38  1  0
  5 39  1  0
  6 40  1  0
 11 41  1  0
 12 42  1  0
 13 43  1  0
 15 44  1  0
 16 45  1  0
 16 46  1  0
 18 47  1  0
 19 48  1  0
 26 49  1  0
 27 50  1  0
 29 51  1  0
 30 52  1  0
 31 53  1  0
 32 54  1  0
M  CHG  2  25  -1  28  -1
M  END
>  <UniqueID>  (22) 
17

>  <SMILES>  (22) 
CN(C)c1ccnc(Oc2cccc(NCc3ccc(C(=O)N=c4[n-]cc[n-]4)cc3)c2)c1

>  <Energy>  (22) 
96.76838057673112

>  <Genealogy>  (22) 
CN(C)c1ccnc(Oc2cccc(NCc3ccc(C(=O)N=c4[n-]cc[n-]4)cc3)c2)c1 (protonated)
CN(C)c1ccnc(Oc2cccc(NCc3ccc(C(=O)N=c4[n-]cc[n-]4)cc3)c2)c1 (3D coordinates assigned)
CN(C)c1ccnc(Oc2cccc(NCc3ccc(C(=O)N=c4[n-]cc[n-]4)cc3)c2)c1 (optimized conformer: 96.76838057673112 kcal/mol)

>  <smiles>  (22) 
CN(C)c1ccnc(Oc2cccc(NCc3ccc(C(=O)N=c4[nH]cc[nH]4)cc3)c2)c1

>  <score_type>  (22) 
oracle

>  <origin>  (22) 
adg

>  <m_score__min__energy>  (22) 
-13.06

>  <m_primary>  (22) 
energy

$$$$
23:0
     RDKit          3D

 55 57  0  0  1  0  0  0  0  0999 V2000
   60.9080   33.8010   50.4140 C   0  0  0  0  0  0  0  0  0  0  0  0
   61.6360   32.8240   49.6480 N   0  0  0  0  0  0  0  0  0  0  0  0
   62.5180   33.3750   48.6710 C   0  0  0  0  0  0  0  0  0  0  0  0
   62.6550   32.5690   47.4440 C   0  0  0  0  0  0  0  0  0  0  0  0
   61.8560   31.7100   47.0460 O   0  0  0  0  0  0  0  0  0  0  0  0
   63.8000   32.8060   46.6650 O   0  0  0  0  0  0  0  0  0  0  0  0
   62.2120   31.7830   50.4350 C   0  0  0  0  0  0  0  0  0  0  0  0
   61.8050   30.4190   50.1060 C   0  0  0  0  0  0  0  0  0  0  0  0
   62.2470   29.3830   50.7000 O   0  0  0  0  0  0  0  0  0  0  0  0
   60.8540   30.1490   49.0620 N   0  0  0  0  0  0  0  0  0  0  0  0
   60.4360   28.8600   48.7140 C   0  0  0  0  0  0  0  0  0  0  0  0
   60.9430   27.8910   49.3770 O   0  0  0  0  0  0  0  0  0  0  0  0
   59.5120   28.5100   47.7100 N   0  0  0  0  0  0  0  0  0  0  0  0
   58.2840   29.3040   47.5070 C   0  0  0  0  0  0  0  0  0  0  0  0
   58.1900   29.3360   46.0300 C   0  0  0  0  0  0  0  0  0  0  0  0
   58.8760   28.2410   45.5620 C   0  0  0  0  0  0  0  0  0  0  0  0
   58.8320   28.2040   44.2270 N   0  0  0  0  0  0  0  0  0  0  0  0
   58.1260   29.2590   43.8300 N   0  0  0  0  0  0  0  0  0  0  0  0
   57.7170   29.9740   44.8870 C   0  0  0  0  0  0  0  0  0  0  0  0
   57.0220   31.0430   44.8710 N   0  0  0  0  0  0  0  0  0  0  0  0
   57.6180   32.2640   44.4000 C   0  0  0  0  0  0  0  0  0  0  0  0
   57.6020   32.5940   43.1980 O   0  0  0  0  0  0  0  0  0  0  0  0
   58.2500   33.0950   45.4430 C   0  0  0  0  0  0  0  0  0  0  0  0
   57.9780   32.7290   46.7450 C   0  0  0  0  0  0  0  0  0  0  0  0
   58.5410   33.4700   47.7470 C   0  0  0  0  0  0  0  0  0  0  0  0
   59.3550   34.5470   47.4280 C   0  0  0  0  0  0  0  0  0  0  0  0
   59.6290   34.9150   46.1320 C   0  0  0  0  0  0  0  0  0  0  0  0
   59.0530   34.1590   45.1230 C   0  0  0  0  0  0  0  0  0  0  0  0
   59.4440   27.4700   46.7310 C   0  0  0  0  0  0  0  0  0  0  0  0
   60.7270   26.8310   46.3330 C   0  0  0  0  0  0  0  0  0  0  0  0
   58.4590   26.3800   47.1140 C   0  0  0  0  0  0  0  0  0  0  0  0
   61.0523   33.6073   51.4871 H   0  0  0  0  0  0  0  0  0  0  0  0
   61.2778   34.8079   50.1702 H   0  0  0  0  0  0  0  0  0  0  0  0
   59.8374   33.7346   50.1702 H   0  0  0  0  0  0  0  0  0  0  0  0
   62.1396   34.3685   48.3885 H   0  0  0  0  0  0  0  0  0  0  0  0
   63.5149   33.4090   49.1347 H   0  0  0  0  0  0  0  0  0  0  0  0
   64.6690   32.3450   46.8090 H   0  0  0  0  0  0  0  0  0  0  0  0
   63.3045   31.8429   50.3213 H   0  0  0  0  0  0  0  0  0  0  0  0
   61.8504   31.9568   51.4592 H   0  0  0  0  0  0  0  0  0  0  0  0
   60.4820   30.9550   48.5640 H   0  0  0  0  0  0  0  0  0  0  0  0
   57.4085   28.8104   47.9542 H   0  0  0  0  0  0  0  0  0  0  0  0
   58.3125   30.2991   47.9749 H   0  0  0  0  0  0  0  0  0  0  0  0
   59.2710   27.4800   43.6210 H   0  0  0  0  0  0  0  0  0  0  0  0
   57.9470   29.4590   42.8370 H   0  0  0  0  0  0  0  0  0  0  0  0
   57.3296   31.8694   46.9698 H   0  0  0  0  0  0  0  0  0  0  0  0
   58.3496   33.2136   48.7994 H   0  0  0  0  0  0  0  0  0  0  0  0
   59.8001   35.1314   48.2467 H   0  0  0  0  0  0  0  0  0  0  0  0
   60.2782   35.7735   45.9052 H   0  0  0  0  0  0  0  0  0  0  0  0
   59.2396   34.4120   44.0689 H   0  0  0  0  0  0  0  0  0  0  0  0
   61.2916   26.5498   47.2342 H   0  0  0  0  0  0  0  0  0  0  0  0
   60.5187   25.9314   45.7353 H   0  0  0  0  0  0  0  0  0  0  0  0
   61.3195   27.5393   45.7353 H   0  0  0  0  0  0  0  0  0  0  0  0
   58.3965   26.3109   48.2100 H   0  0  0  0  0  0  0  0  0  0  0  0
   57.4670   26.6219   46.7047 H   0  0  0  0  0  0  0  0  0  0  0  0
   58.7998   25.4175   46.7047 H   0  0  0  0  0  0  0  0  0  0  0  0
  1  2  1  0
  2  3  1  0
  3  4  1  0
  4  5  2  0
  4  6  1  0
  2  7  1  0
  7  8  1  0
  8  9  2  0
  8 10  1  0
 10 11  1  0
 11 12  2  0
 11 13  1  0
 13 14  1  0
 14 15  1  0
 15 16  2  0
 16 17  1  0
 17 18  1  0
 18 19  1  0
 19 20  2  0
 20 21  1  0
 21 22  2  0
 21 23  1  0
 23 24  2  0
 24 25  1  0
 25 26  2  0
 26 27  1  0
 27 28  2  0
 16 29  1  0
 29 30  1  0
 29 31  1  0
 29 13  1  0
 19 15  1  0
 28 23  1  0
  1 32  1  0
  1 33  1  0
  1 34  1  0
  3 35  1  0
  3 36  1  0
  6 37  1  0
  7 38  1  0
  7 39  1  0
 10 40  1  0
 14 41  1  0
 14 42  1  0
 17 43  1  0
 18 44  1  0
 24 45  1  0
 25 46  1  0
 26 47  1  0
 27 48  1  0
 28 49  1  0
 30 50  1  0
 30 51  1  0
 30 52  1  0
 31 53  1  0
 31 54  1  0
 31 55  1  0
M  END
>  <smiles>  (23) 
CN(CC(=O)O)CC(=O)NC(=O)N1Cc2c([nH][nH]c2=NC(=O)c2ccccc2)C1(C)C

>  <score_type>  (23) 
oracle

>  <origin>  (23) 
adg

>  <m_score__min__energy>  (23) 
-9.8900000000000006

>  <m_primary>  (23) 
energy

$$$$
24:0
     RDKit          3D

 51 54  0  0  0  0  0  0  0  0999 V2000
   54.0790   25.2880   46.3630 H   0  0  0  0  0  0  0  0  0  0  0  0
   54.9630   25.5060   45.8550 N   0  0  0  0  0  0  0  0  0  0  0  0
   55.7440   24.6210   45.3120 C   0  0  0  0  0  0  0  0  0  0  0  0
   56.9630   24.2160   45.9200 C   0  0  0  0  0  0  0  0  0  0  0  0
   57.4680   24.7950   47.2260 C   0  0  0  0  0  0  0  0  0  0  0  0
   56.6219   24.9053   47.9203 H   0  0  0  0  0  0  0  0  0  0  0  0
   58.2239   24.1116   47.6403 H   0  0  0  0  0  0  0  0  0  0  0  0
   58.1100   26.1450   47.0140 C   0  0  0  0  0  0  0  0  0  0  0  0
   59.4230   26.3810   47.4330 C   0  0  0  0  0  0  0  0  0  0  0  0
   59.9902   25.5773   47.9252 H   0  0  0  0  0  0  0  0  0  0  0  0
   60.0210   27.6260   47.2330 C   0  0  0  0  0  0  0  0  0  0  0  0
   61.0528   27.7935   47.5757 H   0  0  0  0  0  0  0  0  0  0  0  0
   59.3190   28.6750   46.5960 C   0  0  0  0  0  0  0  0  0  0  0  0
   57.9900   28.4290   46.1560 C   0  0  0  0  0  0  0  0  0  0  0  0
   57.4030   27.1670   46.3660 C   0  0  0  0  0  0  0  0  0  0  0  0
   56.3766   26.9806   46.0172 H   0  0  0  0  0  0  0  0  0  0  0  0
   57.2850   29.4520   45.4970 C   0  0  0  0  0  0  0  0  0  0  0  0
   56.1040   29.2590   45.0940 O   0  0  0  0  0  0  0  0  0  0  0  0
   57.8990   30.6890   45.2840 C   0  0  0  0  0  0  0  0  0  0  0  0
   57.2380   31.7480   44.4990 C   0  0  0  0  0  0  0  0  0  0  0  0
   57.1200   31.6060   43.2540 O   0  0  0  0  0  0  0  0  0  0  0  0
   56.6710   32.9050   45.1280 N   0  0  0  0  0  0  0  0  0  0  0  0
   57.3200   34.2110   45.2460 C   0  0  0  0  0  0  0  0  0  0  0  0
   57.6007   34.5638   44.2426 H   0  0  0  0  0  0  0  0  0  0  0  0
   56.6137   34.9086   45.7198 H   0  0  0  0  0  0  0  0  0  0  0  0
   58.5580   34.1310   46.1030 C   0  0  0  0  0  0  0  0  0  0  0  0
   59.8260   34.3790   45.5480 C   0  0  0  0  0  0  0  0  0  0  0  0
   59.9112   34.6959   44.4981 H   0  0  0  0  0  0  0  0  0  0  0  0
   60.9780   34.2250   46.3230 C   0  0  0  0  0  0  0  0  0  0  0  0
   61.9677   34.4075   45.8788 H   0  0  0  0  0  0  0  0  0  0  0  0
   60.8740   33.8390   47.6630 C   0  0  0  0  0  0  0  0  0  0  0  0
   62.3220   33.6250   48.6280 Cl  0  0  0  0  0  0  0  0  0  0  0  0
   59.6150   33.6180   48.2300 C   0  0  0  0  0  0  0  0  0  0  0  0
   59.5332   33.3268   49.2876 H   0  0  0  0  0  0  0  0  0  0  0  0
   58.4610   33.7660   47.4570 C   0  0  0  0  0  0  0  0  0  0  0  0
   57.4728   33.5963   47.9094 H   0  0  0  0  0  0  0  0  0  0  0  0
   59.1960   30.9040   45.7580 C   0  0  0  0  0  0  0  0  0  0  0  0
   59.6640   31.8899   45.6205 H   0  0  0  0  0  0  0  0  0  0  0  0
   59.8940   29.9130   46.3890 N   0  0  0  0  0  0  0  0  0  0  0  0
   61.2750   30.2000   46.8100 C   0  0  0  0  0  0  0  0  0  0  0  0
   61.3286   30.2111   47.9086 H   0  0  0  0  0  0  0  0  0  0  0  0
   61.9470   29.4223   46.4180 H   0  0  0  0  0  0  0  0  0  0  0  0
   61.5815   31.1810   46.4180 H   0  0  0  0  0  0  0  0  0  0  0  0
   57.7520   23.2610   45.2580 C   0  0  0  0  0  0  0  0  0  0  0  0
   58.7040   22.9362   45.7031 H   0  0  0  0  0  0  0  0  0  0  0  0
   57.3380   22.7220   44.0420 C   0  0  0  0  0  0  0  0  0  0  0  0
   57.9566   21.9717   43.5278 H   0  0  0  0  0  0  0  0  0  0  0  0
   56.1340   23.1420   43.4840 C   0  0  0  0  0  0  0  0  0  0  0  0
   55.7982   22.7212   42.5248 H   0  0  0  0  0  0  0  0  0  0  0  0
   55.3720   24.0700   44.1200 N   0  0  0  0  0  0  0  0  0  0  0  0
   54.4750   24.3650   43.6700 H   0  0  0  0  0  0  0  0  0  0  0  0
  1  2  1  0
  2  3  2  0
  3  4  1  0
  4  5  1  0
  5  6  1  0
  5  7  1  0
  5  8  1  0
  8  9  2  0
  9 10  1  0
  9 11  1  0
 11 12  1  0
 11 13  2  0
 13 14  1  0
 14 15  2  0
 15 16  1  0
 14 17  1  0
 17 18  2  0
 17 19  1  0
 19 20  1  0
 20 21  2  0
 20 22  1  0
 22 23  1  0
 23 24  1  0
 23 25  1  0
 23 26  1  0
 26 27  2  0
 27 28  1  0
 27 29  1  0
 29 30  1  0
 29 31  2  0
 31 32  1  0
 31 33  1  0
 33 34  1  0
 33 35  2  0
 35 36  1  0
 19 37  2  0
 37 38  1  0
 37 39  1  0
 39 40  1  0
 40 41  1  0
 40 42  1  0
 40 43  1  0
  4 44  2  0
 44 45  1  0
 44 46  1  0
 46 47  1  0
 46 48  2  0
 48 49  1  0
 48 50  1  0
 50 51  1  0
 50  3  1  0
 15  8  1  0
 35 26  1  0
 39 13  1  0
M  CHG  1  22  -1
M  END
>  <UniqueID>  (24) 
18

>  <SMILES>  (24) 
[H]/N=c1/[nH]cccc1Cc1ccc2c(c1)c(=O)c(C(=O)[N-]Cc1ccc(Cl)cc1)cn2C

>  <Energy>  (24) 
68.76108391093227

>  <Genealogy>  (24) 
Cn1cc(C(=O)[N-]Cc2ccc(Cl)cc2)c(=O)c2cc(Cc3ccc[nH]c3=N)ccc21 (protonated)
[H]/N=c1/[nH]cccc1Cc1ccc2c(c1)c(=O)c(C(=O)[N-]Cc1ccc(Cl)cc1)cn2C (cis-trans isomerization)
[H]/N=c1/[nH]cccc1Cc1ccc2c(c1)c(=O)c(C(=O)[N-]Cc1ccc(Cl)cc1)cn2C (3D coordinates assigned)
[H]/N=c1/[nH]cccc1Cc1ccc2c(c1)c(=O)c(C(=O)[N-]Cc1ccc(Cl)cc1)cn2C (optimized conformer: 68.76108391093227 kcal/mol)

>  <smiles>  (24) 
Cn1cc(C(=O)NCc2ccc(Cl)cc2)c(=O)c2cc(Cc3ccc[nH]c3=N)ccc21

>  <score_type>  (24) 
oracle

>  <origin>  (24) 
adg

>  <m_score__min__energy>  (24) 
-11.460000000000001

>  <m_primary>  (24) 
energy

$$$$
25:0
     RDKit          3D

 70 75  0  0  0  0  0  0  0  0999 V2000
   67.2900   29.0380   51.1410 C   0  0  0  0  0  0  0  0  0  0  0  0
   66.1450   29.7530   51.8480 C   0  0  0  0  0  0  0  0  0  0  0  0
   65.6780   30.9790   51.1080 C   0  0  0  0  0  0  0  0  0  0  0  0
   66.6150   31.9460   50.7290 C   0  0  0  0  0  0  0  0  0  0  0  0
   66.1650   33.0950   50.0840 C   0  0  0  0  0  0  0  0  0  0  0  0
   64.8410   33.2540   49.8320 N   0  0  0  0  0  0  0  0  0  0  0  0
   63.9270   32.3150   50.2100 C   0  0  0  0  0  0  0  0  0  0  0  0
   62.5260   32.5060   49.9170 N   0  0  0  0  0  0  0  0  0  0  0  0
   61.8850   33.8090   50.1330 C   0  0  0  0  0  0  0  0  0  0  0  0
   61.2180   34.2600   48.8410 C   0  0  0  0  0  0  0  0  0  0  0  0
   60.2040   33.2220   48.2960 C   0  0  0  0  0  0  0  0  0  0  0  0
   60.2260   33.1480   46.7370 C   0  0  2  0  0  0  0  0  0  0  0  0
   59.4980   34.3540   46.0850 C   0  0  0  0  0  0  0  0  0  0  0  0
   58.2380   33.8130   45.3830 C   0  0  0  0  0  0  0  0  0  0  0  0
   58.4100   32.3470   45.4290 C   0  0  0  0  0  0  0  0  0  0  0  0
   57.5940   31.4050   44.7970 C   0  0  0  0  0  0  0  0  0  0  0  0
   57.8840   30.0370   44.9530 C   0  0  0  0  0  0  0  0  0  0  0  0
   57.0350   29.0030   44.3330 C   0  0  0  0  0  0  0  0  0  0  0  0
   55.9150   29.3450   43.8680 O   0  0  0  0  0  0  0  0  0  0  0  0
   57.4340   27.6320   44.1810 N   0  0  0  0  0  0  0  0  0  0  0  0
   57.6030   26.5370   45.1590 C   0  0  2  0  0  0  0  0  0  0  0  0
   56.6030   26.7370   46.2860 C   0  0  0  0  0  0  0  0  0  0  0  0
   55.1970   26.7120   46.0450 N   0  0  0  0  0  0  0  0  0  0  0  0
   57.0180   27.0170   47.4450 O   0  0  0  0  0  0  0  0  0  0  0  0
   59.0830   26.5320   45.6960 C   0  0  0  0  0  0  0  0  0  0  0  0
   59.5500   25.2220   46.3600 C   0  0  0  0  0  0  0  0  0  0  0  0
   59.1950   24.0660   45.4990 C   0  0  0  0  0  0  0  0  0  0  0  0
   59.8180   22.8730   45.4770 N   0  0  0  0  0  0  0  0  0  0  0  0
   59.0900   22.1630   44.5840 C   0  0  0  0  0  0  0  0  0  0  0  0
   58.0470   22.8470   44.0580 N   0  0  0  0  0  0  0  0  0  0  0  0
   58.1230   24.0430   44.6690 C   0  0  0  0  0  0  0  0  0  0  0  0
   57.2320   25.2180   44.3850 C   0  0  0  0  0  0  0  0  0  0  0  0
   59.0450   29.6530   45.6560 C   0  0  0  0  0  0  0  0  0  0  0  0
   59.8690   30.6180   46.2540 C   0  0  0  0  0  0  0  0  0  0  0  0
   59.5100   31.9680   46.1620 C   0  0  0  0  0  0  0  0  0  0  0  0
   60.2850   31.8360   49.0090 C   0  0  0  0  0  0  0  0  0  0  0  0
   61.7200   31.3960   49.3750 C   0  0  0  0  0  0  0  0  0  0  0  0
   64.3530   31.1920   50.8560 N   0  0  0  0  0  0  0  0  0  0  0  0
   67.9736   28.6111   51.8896 H   0  0  0  0  0  0  0  0  0  0  0  0
   66.8857   28.2316   50.5115 H   0  0  0  0  0  0  0  0  0  0  0  0
   67.8372   29.7552   50.5115 H   0  0  0  0  0  0  0  0  0  0  0  0
   65.2995   29.0556   51.9419 H   0  0  0  0  0  0  0  0  0  0  0  0
   66.5148   30.0799   52.8310 H   0  0  0  0  0  0  0  0  0  0  0  0
   67.6856   31.8016   50.9363 H   0  0  0  0  0  0  0  0  0  0  0  0
   66.8812   33.8723   49.7793 H   0  0  0  0  0  0  0  0  0  0  0  0
   61.1279   33.7194   50.9259 H   0  0  0  0  0  0  0  0  0  0  0  0
   62.6423   34.5475   50.4349 H   0  0  0  0  0  0  0  0  0  0  0  0
   60.6869   35.2045   49.0304 H   0  0  0  0  0  0  0  0  0  0  0  0
   62.0076   34.3812   48.0848 H   0  0  0  0  0  0  0  0  0  0  0  0
   59.2024   33.5917   48.5607 H   0  0  0  0  0  0  0  0  0  0  0  0
   61.3036   33.1086   46.5195 H   0  0  0  0  0  0  0  0  0  0  0  0
   59.2130   35.0828   46.8581 H   0  0  0  0  0  0  0  0  0  0  0  0
   60.1565   34.8583   45.3624 H   0  0  0  0  0  0  0  0  0  0  0  0
   57.3284   34.1178   45.9212 H   0  0  0  0  0  0  0  0  0  0  0  0
   58.1252   34.1957   44.3579 H   0  0  0  0  0  0  0  0  0  0  0  0
   56.7378   31.7281   44.1867 H   0  0  0  0  0  0  0  0  0  0  0  0
   54.5280   27.1000   46.7460 H   0  0  0  0  0  0  0  0  0  0  0  0
   59.7512   26.7369   44.8465 H   0  0  0  0  0  0  0  0  0  0  0  0
   59.1173   27.2967   46.4860 H   0  0  0  0  0  0  0  0  0  0  0  0
   60.6407   25.2520   46.4992 H   0  0  0  0  0  0  0  0  0  0  0  0
   59.0541   25.1132   47.3358 H   0  0  0  0  0  0  0  0  0  0  0  0
   59.3247   21.1238   44.3103 H   0  0  0  0  0  0  0  0  0  0  0  0
   57.2804   25.4301   43.3067 H   0  0  0  0  0  0  0  0  0  0  0  0
   56.2272   24.9320   44.7294 H   0  0  0  0  0  0  0  0  0  0  0  0
   59.3065   28.5875   45.7360 H   0  0  0  0  0  0  0  0  0  0  0  0
   60.7834   30.3185   46.7871 H   0  0  0  0  0  0  0  0  0  0  0  0
   59.6936   31.8891   49.9349 H   0  0  0  0  0  0  0  0  0  0  0  0
   59.8972   31.0913   48.2983 H   0  0  0  0  0  0  0  0  0  0  0  0
   61.6634   30.5985   50.1305 H   0  0  0  0  0  0  0  0  0  0  0  0
   62.2087   31.0442   48.4544 H   0  0  0  0  0  0  0  0  0  0  0  0
  1  2  1  0
  2  3  1  0
  3  4  2  0
  4  5  1  0
  5  6  2  0
  6  7  1  0
  7  8  1  0
  8  9  1  0
  9 10  1  0
 10 11  1  0
 11 12  1  0
 12 13  1  0
 13 14  1  0
 14 15  1  0
 15 16  2  0
 16 17  1  0
 17 18  1  0
 18 19  2  0
 18 20  1  0
 21 20  1  6
 21 22  1  0
 22 23  1  0
 22 24  2  0
 21 25  1  0
 25 26  1  0
 26 27  1  0
 27 28  1  0
 28 29  2  0
 29 30  1  0
 30 31  1  0
 31 32  1  0
 17 33  2  0
 33 34  1  0
 34 35  2  0
 11 36  1  0
 36 37  1  0
  7 38  2  0
 38  3  1  0
 37  8  1  0
 35 12  1  0
 35 15  1  0
 32 21  1  0
 31 27  2  0
  1 39  1  0
  1 40  1  0
  1 41  1  0
  2 42  1  0
  2 43  1  0
  4 44  1  0
  5 45  1  0
  9 46  1  0
  9 47  1  0
 10 48  1  0
 10 49  1  0
 11 50  1  0
 12 51  1  6
 13 52  1  0
 13 53  1  0
 14 54  1  0
 14 55  1  0
 16 56  1  0
 23 57  1  0
 25 58  1  0
 25 59  1  0
 26 60  1  0
 26 61  1  0
 29 62  1  0
 32 63  1  0
 32 64  1  0
 33 65  1  0
 34 66  1  0
 36 67  1  0
 36 68  1  0
 37 69  1  0
 37 70  1  0
M  CHG  3  20  -1  23  -1  30  -1
M  END
>  <UniqueID>  (25) 
19

>  <SMILES>  (25) 
CCc1ccnc(N2CCC([C@@H]3CCc4cc(C(=O)[N-][C@]5(C([NH-])=O)CCc6nc[n-]c6C5)ccc43)CC2)n1

>  <Energy>  (25) 
129.33701414075182

>  <Genealogy>  (25) 
CCc1ccnc(N2CCC(C3CCc4cc(C(=O)[N-]C5(C([NH-])=O)CCc6nc[n-]c6C5)ccc43)CC2)n1 (protonated)
CCc1ccnc(N2CCC([C@@H]3CCc4cc(C(=O)[N-][C@]5(C([NH-])=O)CCc6nc[n-]c6C5)ccc43)CC2)n1 (chirality)
CCc1ccnc(N2CCC([C@@H]3CCc4cc(C(=O)[N-][C@]5(C([NH-])=O)CCc6nc[n-]c6C5)ccc43)CC2)n1 (3D coordinates assigned)
CCc1ccnc(N2CCC([C@@H]3CCc4cc(C(=O)[N-][C@]5(C([NH-])=O)CCc6nc[n-]c6C5)ccc43)CC2)n1 (nonaromatic ring conformer: 129.33701414075182 kcal/mol)

>  <smiles>  (25) 
CCc1ccnc(N2CCC(C3CCc4cc(C(=O)NC5(C(N)=O)CCc6nc[nH]c6C5)ccc43)CC2)n1

>  <score_type>  (25) 
oracle

>  <origin>  (25) 
adg

>  <m_score__min__energy>  (25) 
-18.16

>  <m_primary>  (25) 
energy

$$$$
26:0
     RDKit          3D

 43 47  0  0  0  0  0  0  0  0999 V2000
   55.2060   27.4760   45.2460 H   0  0  0  0  0  0  0  0  0  0  0  0
   55.1530   26.8270   46.0220 O   0  0  0  0  0  0  0  0  0  0  0  0
   56.1900   25.9350   46.2740 C   0  0  0  0  0  0  0  0  0  0  0  0
   56.0350   24.7780   46.9390 N   0  0  0  0  0  0  0  0  0  0  0  0
   57.2720   24.2390   46.8840 C   0  0  0  0  0  0  0  0  0  0  0  0
   57.5480   23.1230   47.3990 O   0  0  0  0  0  0  0  0  0  0  0  0
   58.1870   24.9820   46.2250 N   0  0  0  0  0  0  0  0  0  0  0  0
   57.4960   26.0760   45.8610 C   0  0  0  0  0  0  0  0  0  0  0  0
   58.0580   27.1550   45.0340 C   0  0  0  0  0  0  0  0  0  0  0  0
   58.8018   26.8838   44.2704 H   0  0  0  0  0  0  0  0  0  0  0  0
   57.7220   28.4480   45.1510 C   0  0  0  0  0  0  0  0  0  0  0  0
   56.7470   29.1110   44.4100 C   0  0  0  0  0  0  0  0  0  0  0  0
   56.1094   28.6443   43.6447 H   0  0  0  0  0  0  0  0  0  0  0  0
   56.7000   30.4150   44.7710 N   0  0  0  0  0  0  0  0  0  0  0  0
   57.6180   30.5960   45.7080 N   0  0  0  0  0  0  0  0  0  0  0  0
   57.9690   31.7450   46.3560 C   0  0  0  0  0  0  0  0  0  0  0  0
   57.3730   32.8870   46.1580 N   0  0  0  0  0  0  0  0  0  0  0  0
   57.5180   33.7510   44.9910 C   0  0  0  0  0  0  0  0  0  0  0  0
   56.5279   34.2283   45.0349 H   0  0  0  0  0  0  0  0  0  0  0  0
   58.3780   33.1240   43.9090 C   0  0  0  0  0  0  0  0  0  0  0  0
   58.7597   32.1000   44.0341 H   0  0  0  0  0  0  0  0  0  0  0  0
   58.2651   32.9497   42.8288 H   0  0  0  0  0  0  0  0  0  0  0  0
   58.9330   34.2530   44.7650 C   0  0  0  0  0  0  0  0  0  0  0  0
   59.7160   34.0455   45.5093 H   0  0  0  0  0  0  0  0  0  0  0  0
   59.3877   35.2335   44.5606 H   0  0  0  0  0  0  0  0  0  0  0  0
   58.9900   31.6800   47.2540 N   0  0  0  0  0  0  0  0  0  0  0  0
   59.6460   30.5050   47.4900 C   0  0  0  0  0  0  0  0  0  0  0  0
   60.7480   30.4580   48.4600 C   0  0  0  0  0  0  0  0  0  0  0  0
   60.9180   29.5520   49.4920 C   0  0  0  0  0  0  0  0  0  0  0  0
   60.2420   28.7159   49.7240 H   0  0  0  0  0  0  0  0  0  0  0  0
   62.0440   29.8570   50.1680 N   0  0  0  0  0  0  0  0  0  0  0  0
   62.5870   30.9140   49.5830 N   0  0  0  0  0  0  0  0  0  0  0  0
   63.7930   31.5790   50.0650 C   0  0  0  0  0  0  0  0  0  0  0  0
   64.6132   30.8481   50.1207 H   0  0  0  0  0  0  0  0  0  0  0  0
   63.5962   32.0000   51.0620 H   0  0  0  0  0  0  0  0  0  0  0  0
   64.1870   32.7060   49.1190 C   0  0  0  0  0  0  0  0  0  0  0  0
   64.4944   33.5853   49.7041 H   0  0  0  0  0  0  0  0  0  0  0  0
   65.0234   32.3769   48.4849 H   0  0  0  0  0  0  0  0  0  0  0  0
   63.3277   32.9697   48.4849 H   0  0  0  0  0  0  0  0  0  0  0  0
   61.8240   31.3160   48.5480 C   0  0  0  0  0  0  0  0  0  0  0  0
   62.0236   32.1751   47.8906 H   0  0  0  0  0  0  0  0  0  0  0  0
   59.2790   29.3730   46.8260 N   0  0  0  0  0  0  0  0  0  0  0  0
   58.2480   29.4420   45.9540 C   0  0  0  0  0  0  0  0  0  0  0  0
  1  2  1  0
  2  3  1  0
  3  4  1  0
  4  5  1  0
  5  6  2  0
  5  7  1  0
  7  8  1  0
  8  9  1  0
  9 10  1  0
  9 11  2  0
 11 12  1  0
 12 13  1  0
 12 14  2  0
 14 15  1  0
 15 16  1  0
 16 17  2  0
 17 18  1  0
 18 19  1  0
 18 20  1  0
 20 21  1  0
 20 22  1  0
 20 23  1  0
 23 24  1  0
 23 25  1  0
 16 26  1  0
 26 27  2  0
 27 28  1  0
 28 29  1  0
 29 30  1  0
 29 31  2  0
 31 32  1  0
 32 33  1  0
 33 34  1  0
 33 35  1  0
 33 36  1  0
 36 37  1  0
 36 38  1  0
 36 39  1  0
 32 40  1  0
 40 41  1  0
 27 42  1  0
 42 43  2  0
  8  3  2  0
 43 11  1  0
 43 15  1  0
 23 18  1  0
 40 28  2  0
M  CHG  2   4  -1   7  -1
M  END
>  <UniqueID>  (26) 
20

>  <SMILES>  (26) 
CCn1cc(-c2n/c(=N/C3CC3)n3nc/c(=C/c4[n-]c(=O)[n-]c4O)c3n2)cn1

>  <Energy>  (26) 
413.93348502108637

>  <Genealogy>  (26) 
CCn1cc(-c2nc(=NC3CC3)n3ncc(=Cc4[n-]c(=O)[n-]c4O)c3n2)cn1 (protonated)
CCn1cc(-c2n/c(=N/C3CC3)n3nc/c(=C/c4[n-]c(=O)[n-]c4O)c3n2)cn1 (cis-trans isomerization)
CCn1cc(-c2n/c(=N/C3CC3)n3nc/c(=C/c4[n-]c(=O)[n-]c4O)c3n2)cn1 (3D coordinates assigned)
CCn1cc(-c2n/c(=N/C3CC3)n3nc/c(=C/c4[n-]c(=O)[n-]c4O)c3n2)cn1 (nonaromatic ring conformer: 413.93348502108637 kcal/mol)

>  <smiles>  (26) 
CCn1cc(-c2nc(=NC3CC3)n3ncc(=Cc4[nH]c(=O)[nH]c4O)c3n2)cn1

>  <score_type>  (26) 
oracle

>  <origin>  (26) 
adg

>  <m_score__min__energy>  (26) 
-12.9

>  <m_primary>  (26) 
energy

$$$$
27:0
     RDKit          3D

 52 55  0  0  0  0  0  0  0  0999 V2000
   58.0260   26.4630   42.6350 C   0  0  0  0  0  0  0  0  0  0  0  0
   57.6840   25.9520   43.8160 C   0  0  0  0  0  0  0  0  0  0  0  0
   58.2060   26.4930   45.0920 C   0  0  0  0  0  0  0  0  0  0  0  0
   59.4890   27.0610   45.0700 C   0  0  0  0  0  0  0  0  0  0  0  0
   60.0860   27.5230   46.2430 C   0  0  0  0  0  0  0  0  0  0  0  0
   59.3980   27.4500   47.4620 C   0  0  0  0  0  0  0  0  0  0  0  0
   60.0280   27.8910   48.7220 C   0  0  0  0  0  0  0  0  0  0  0  0
   60.4600   29.1380   48.9720 C   0  0  0  0  0  0  0  0  0  0  0  0
   61.2730   29.5360   50.5030 S   0  0  0  0  0  0  0  0  0  0  0  0
   61.8240   31.0260   49.6690 C   0  0  0  0  0  0  0  0  0  0  0  0
   62.8660   31.5750   49.9960 O   0  0  0  0  0  0  0  0  0  0  0  0
   61.0680   31.4780   48.5260 N   0  0  2  0  0  0  0  0  0  0  0  0
   60.1340   32.5610   48.8920 C   0  0  0  0  0  0  0  0  0  0  0  0
   59.7470   33.4080   47.7030 C   0  0  0  0  0  0  0  0  0  0  0  0
   60.3810   34.6390   47.4730 C   0  0  0  0  0  0  0  0  0  0  0  0
   60.0320   35.4150   46.3660 C   0  0  0  0  0  0  0  0  0  0  0  0
   59.0480   34.9720   45.4810 C   0  0  0  0  0  0  0  0  0  0  0  0
   58.3990   33.7440   45.7040 C   0  0  0  0  0  0  0  0  0  0  0  0
   57.4260   33.2550   44.8200 O   0  0  0  0  0  0  0  0  0  0  0  0
   57.3100   31.9190   44.4130 C   0  0  0  0  0  0  0  0  0  0  0  0
   57.4260   30.9060   45.3720 C   0  0  0  0  0  0  0  0  0  0  0  0
   57.2980   29.5640   45.0040 C   0  0  0  0  0  0  0  0  0  0  0  0
   57.0200   29.2270   43.6760 C   0  0  0  0  0  0  0  0  0  0  0  0
   56.8930   30.2320   42.7130 C   0  0  0  0  0  0  0  0  0  0  0  0
   57.0380   31.5740   43.0750 C   0  0  0  0  0  0  0  0  0  0  0  0
   58.7610   32.9630   46.8070 C   0  0  0  0  0  0  0  0  0  0  0  0
   60.3420   30.3160   48.1020 C   0  0  0  0  0  0  0  0  0  0  0  0
   59.6270   30.3360   47.0630 O   0  0  0  0  0  0  0  0  0  0  0  0
   58.1190   26.8820   47.4980 C   0  0  0  0  0  0  0  0  0  0  0  0
   57.4930   26.4300   46.3200 C   0  0  0  0  0  0  0  0  0  0  0  0
   56.0820   25.9760   46.4030 C   0  0  0  0  0  0  0  0  0  0  0  0
   55.1540   26.7090   45.9690 O   0  0  0  0  0  0  0  0  0  0  0  0
   55.7710   24.7110   46.8910 O   0  0  0  0  0  0  0  0  0  0  0  0
   57.6160   26.0321   41.7097 H   0  0  0  0  0  0  0  0  0  0  0  0
   58.7186   27.3161   42.5846 H   0  0  0  0  0  0  0  0  0  0  0  0
   56.9901   25.0990   43.8449 H   0  0  0  0  0  0  0  0  0  0  0  0
   60.0306   27.1429   44.1161 H   0  0  0  0  0  0  0  0  0  0  0  0
   61.1008   27.9463   46.2112 H   0  0  0  0  0  0  0  0  0  0  0  0
   60.1533   27.1411   49.5169 H   0  0  0  0  0  0  0  0  0  0  0  0
   61.7150   31.7710   47.7570 H   0  0  0  0  0  0  0  0  0  0  0  0
   59.2242   32.1145   49.3197 H   0  0  0  0  0  0  0  0  0  0  0  0
   60.6410   33.2122   49.6193 H   0  0  0  0  0  0  0  0  0  0  0  0
   61.1563   34.9939   48.1680 H   0  0  0  0  0  0  0  0  0  0  0  0
   60.5339   36.3780   46.1910 H   0  0  0  0  0  0  0  0  0  0  0  0
   58.7794   35.5842   44.6075 H   0  0  0  0  0  0  0  0  0  0  0  0
   57.6193   31.1681   46.4227 H   0  0  0  0  0  0  0  0  0  0  0  0
   57.4160   28.7729   45.7591 H   0  0  0  0  0  0  0  0  0  0  0  0
   56.9013   28.1717   43.3892 H   0  0  0  0  0  0  0  0  0  0  0  0
   56.6784   29.9660   41.6675 H   0  0  0  0  0  0  0  0  0  0  0  0
   56.9395   32.3619   42.3138 H   0  0  0  0  0  0  0  0  0  0  0  0
   58.2697   31.9931   46.9738 H   0  0  0  0  0  0  0  0  0  0  0  0
   57.5951   26.7873   48.4606 H   0  0  0  0  0  0  0  0  0  0  0  0
  1  2  2  0
  2  3  1  0
  3  4  2  0
  4  5  1  0
  5  6  2  0
  6  7  1  0
  7  8  2  3
  8  9  1  0
  9 10  1  0
 10 11  2  0
 10 12  1  0
 12 13  1  0
 13 14  1  0
 14 15  2  0
 15 16  1  0
 16 17  2  0
 17 18  1  0
 18 19  1  0
 19 20  1  0
 20 21  2  0
 21 22  1  0
 22 23  2  0
 23 24  1  0
 24 25  2  0
 18 26  2  0
 12 27  1  0
 27 28  2  0
  6 29  1  0
 29 30  2  0
 30 31  1  0
 31 32  2  0
 31 33  1  0
 30  3  1  0
 27  8  1  0
 26 14  1  0
 25 20  1  0
  1 34  1  0
  1 35  1  0
  2 36  1  0
  4 37  1  0
  5 38  1  0
  7 39  1  0
 12 40  1  6
 13 41  1  0
 13 42  1  0
 15 43  1  0
 16 44  1  0
 17 45  1  0
 21 46  1  0
 22 47  1  0
 23 48  1  0
 24 49  1  0
 25 50  1  0
 26 51  1  0
 29 52  1  0
M  CHG  2  12   1  33  -1
M  END
>  <UniqueID>  (27) 
21

>  <SMILES>  (27) 
C=Cc1ccc(C=C2SC(=O)[N@H+](Cc3cccc(Oc4ccccc4)c3)C2=O)cc1C(=O)[O-]

>  <Energy>  (27) 
96.73071385520075

>  <Genealogy>  (27) 
C=Cc1ccc(C=C2SC(=O)[NH+](Cc3cccc(Oc4ccccc4)c3)C2=O)cc1C(=O)[O-] (protonated)
C=Cc1ccc(C=C2SC(=O)[N@H+](Cc3cccc(Oc4ccccc4)c3)C2=O)cc1C(=O)[O-] (chirality)
C=Cc1ccc(C=C2SC(=O)[N@H+](Cc3cccc(Oc4ccccc4)c3)C2=O)cc1C(=O)[O-] (3D coordinates assigned)
C=Cc1ccc(C=C2SC(=O)[N@H+](Cc3cccc(Oc4ccccc4)c3)C2=O)cc1C(=O)[O-] (nonaromatic ring conformer: 96.73071385520075 kcal/mol)

>  <smiles>  (27) 
C=Cc1ccc(C=C2SC(=O)N(Cc3cccc(Oc4ccccc4)c3)C2=O)cc1C(=O)O

>  <score_type>  (27) 
oracle

>  <origin>  (27) 
adg

>  <m_score__min__energy>  (27) 
-11.42

>  <m_primary>  (27) 
energy

$$$$
28:0
     RDKit          3D

 54 56  0  0  0  0  0  0  0  0999 V2000
   66.0890   34.6450   51.9910 C   0  0  0  0  0  0  0  0  0  0  0  0
   64.5710   34.8290   52.0510 C   0  0  0  0  0  0  0  0  0  0  0  0
   63.8330   33.5350   52.4460 C   0  0  0  0  0  0  0  0  0  0  0  0
   64.1940   32.3230   51.5660 C   0  0  0  0  0  0  0  0  0  0  0  0
   63.6900   32.4770   50.1820 N   0  0  0  0  0  0  0  0  0  0  0  0
   62.3400   32.4700   49.8880 C   0  0  0  0  0  0  0  0  0  0  0  0
   61.3570   32.0930   50.8690 N   0  0  0  0  0  0  0  0  0  0  0  0
   61.9060   32.8210   48.5960 C   0  0  0  0  0  0  0  0  0  0  0  0
   60.5050   32.9250   48.2850 N   0  0  0  0  0  0  0  0  0  0  0  0
   59.9540   34.2540   47.9890 C   0  0  0  0  0  0  0  0  0  0  0  0
   59.1010   34.2030   46.7610 C   0  0  0  0  0  0  0  0  0  0  0  0
   59.4800   34.6030   45.4880 C   0  0  0  0  0  0  0  0  0  0  0  0
   58.4440   34.5130   44.5520 C   0  0  0  0  0  0  0  0  0  0  0  0
   57.2470   34.0540   45.0870 C   0  0  0  0  0  0  0  0  0  0  0  0
   57.4780   33.7640   46.7280 S   0  0  0  0  0  0  0  0  0  0  0  0
   59.7000   31.7360   48.1340 C   0  0  0  0  0  0  0  0  0  0  0  0
   58.7750   31.4930   48.9570 O   0  0  0  0  0  0  0  0  0  0  0  0
   59.9210   30.7930   46.9850 C   0  0  0  0  0  0  0  0  0  0  0  0
   59.4540   31.3750   45.7690 O   0  0  0  0  0  0  0  0  0  0  0  0
   58.3980   30.8620   45.0020 C   0  0  0  0  0  0  0  0  0  0  0  0
   58.1120   31.3270   43.7020 C   0  0  0  0  0  0  0  0  0  0  0  0
   57.0480   30.7810   42.9780 C   0  0  0  0  0  0  0  0  0  0  0  0
   56.2610   29.7720   43.5410 C   0  0  0  0  0  0  0  0  0  0  0  0
   56.5380   29.3080   44.8290 C   0  0  0  0  0  0  0  0  0  0  0  0
   57.6030   29.8500   45.5550 C   0  0  0  0  0  0  0  0  0  0  0  0
   62.8620   33.0760   47.6120 C   0  0  0  0  0  0  0  0  0  0  0  0
   62.5060   33.3710   46.4390 O   0  0  0  0  0  0  0  0  0  0  0  0
   64.1790   33.0110   47.9170 N   0  0  0  0  0  0  0  0  0  0  0  0
   64.5980   32.7320   49.1790 C   0  0  0  0  0  0  0  0  0  0  0  0
   65.8380   32.7180   49.4180 O   0  0  0  0  0  0  0  0  0  0  0  0
   66.4931   34.5960   53.0129 H   0  0  0  0  0  0  0  0  0  0  0  0
   66.3245   33.7117   51.4585 H   0  0  0  0  0  0  0  0  0  0  0  0
   66.5406   35.4950   51.4585 H   0  0  0  0  0  0  0  0  0  0  0  0
   64.3394   35.6073   52.7930 H   0  0  0  0  0  0  0  0  0  0  0  0
   64.2296   35.1137   51.0448 H   0  0  0  0  0  0  0  0  0  0  0  0
   64.0870   33.2949   53.4890 H   0  0  0  0  0  0  0  0  0  0  0  0
   62.7580   33.7233   52.3086 H   0  0  0  0  0  0  0  0  0  0  0  0
   65.2886   32.2182   51.5365 H   0  0  0  0  0  0  0  0  0  0  0  0
   63.7224   31.4308   52.0037 H   0  0  0  0  0  0  0  0  0  0  0  0
   61.5090   32.2740   51.8850 H   0  0  0  0  0  0  0  0  0  0  0  0
   60.3810   31.8390   50.6080 H   0  0  0  0  0  0  0  0  0  0  0  0
   59.3443   34.5914   48.8401 H   0  0  0  0  0  0  0  0  0  0  0  0
   60.7845   34.9547   47.8178 H   0  0  0  0  0  0  0  0  0  0  0  0
   60.4921   34.9551   45.2397 H   0  0  0  0  0  0  0  0  0  0  0  0
   58.5659   34.7806   43.4920 H   0  0  0  0  0  0  0  0  0  0  0  0
   56.3086   33.9055   44.5325 H   0  0  0  0  0  0  0  0  0  0  0  0
   60.9958   30.5771   46.8945 H   0  0  0  0  0  0  0  0  0  0  0  0
   59.3641   29.8633   47.1733 H   0  0  0  0  0  0  0  0  0  0  0  0
   58.7280   32.1218   43.2561 H   0  0  0  0  0  0  0  0  0  0  0  0
   56.8297   31.1460   41.9635 H   0  0  0  0  0  0  0  0  0  0  0  0
   55.4241   29.3437   42.9699 H   0  0  0  0  0  0  0  0  0  0  0  0
   55.9176   28.5153   45.2727 H   0  0  0  0  0  0  0  0  0  0  0  0
   57.8181   29.4789   46.5679 H   0  0  0  0  0  0  0  0  0  0  0  0
   64.8880   33.2010   47.1710 H   0  0  0  0  0  0  0  0  0  0  0  0
  1  2  1  0
  2  3  1  0
  3  4  1  0
  4  5  1  0
  5  6  1  0
  6  7  1  0
  6  8  2  0
  8  9  1  0
  9 10  1  0
 10 11  1  0
 11 12  2  0
 12 13  1  0
 13 14  2  0
 14 15  1  0
  9 16  1  0
 16 17  2  0
 16 18  1  0
 18 19  1  0
 19 20  1  0
 20 21  2  0
 21 22  1  0
 22 23  2  0
 23 24  1  0
 24 25  2  0
  8 26  1  0
 26 27  2  0
 26 28  1  0
 28 29  1  0
 29 30  2  0
 29  5  1  0
 15 11  1  0
 25 20  1  0
  1 31  1  0
  1 32  1  0
  1 33  1  0
  2 34  1  0
  2 35  1  0
  3 36  1  0
  3 37  1  0
  4 38  1  0
  4 39  1  0
  7 40  1  0
  7 41  1  0
 10 42  1  0
 10 43  1  0
 12 44  1  0
 13 45  1  0
 14 46  1  0
 18 47  1  0
 18 48  1  0
 21 49  1  0
 22 50  1  0
 23 51  1  0
 24 52  1  0
 25 53  1  0
 28 54  1  0
M  END
>  <UniqueID>  (28) 
22

>  <SMILES>  (28) 
CCCCn1c(N)c(N(Cc2cccs2)C(=O)COc2ccccc2)c(=O)[nH]c1=O

>  <Energy>  (28) 
88.88842527674194

>  <Genealogy>  (28) 
CCCCn1c(N)c(N(Cc2cccs2)C(=O)COc2ccccc2)c(=O)[nH]c1=O (3D coordinates assigned)
CCCCn1c(N)c(N(Cc2cccs2)C(=O)COc2ccccc2)c(=O)[nH]c1=O (optimized conformer: 88.88842527674194 kcal/mol)

>  <smiles>  (28) 
CCCCn1c(N)c(N(Cc2cccs2)C(=O)COc2ccccc2)c(=O)[nH]c1=O

>  <score_type>  (28) 
oracle

>  <origin>  (28) 
adg

>  <m_score__min__energy>  (28) 
-7.0899999999999999

>  <m_primary>  (28) 
energy

$$$$
29:0
     RDKit          3D

 55 58  0  0  0  0  0  0  0  0999 V2000
   59.5870   27.3570   46.0300 C   0  0  0  0  0  0  0  0  0  0  0  0
   58.0960   27.4000   46.2690 C   0  0  0  0  0  0  0  0  0  0  0  0
   57.4230   28.5230   46.2890 N   0  0  0  0  0  0  0  0  0  0  0  0
   57.3810   29.5520   45.2860 C   0  0  0  0  0  0  0  0  0  0  0  0
   56.8760   29.2360   44.0190 C   0  0  0  0  0  0  0  0  0  0  0  0
   56.8650   30.1960   43.0030 C   0  0  0  0  0  0  0  0  0  0  0  0
   57.3720   31.4780   43.2420 C   0  0  0  0  0  0  0  0  0  0  0  0
   57.8910   31.8080   44.5020 C   0  0  0  0  0  0  0  0  0  0  0  0
   58.3780   33.1780   44.7790 C   0  0  0  0  0  0  0  0  0  0  0  0
   59.2300   33.7080   44.0150 O   0  0  0  0  0  0  0  0  0  0  0  0
   57.9050   33.9130   45.9160 N   0  0  0  0  0  0  0  0  0  0  0  0
   58.4090   33.7370   47.2480 C   0  0  0  0  0  0  0  0  0  0  0  0
   59.2980   34.6780   47.7790 C   0  0  0  0  0  0  0  0  0  0  0  0
   59.8250   34.5030   49.0630 C   0  0  0  0  0  0  0  0  0  0  0  0
   59.4410   33.4030   49.8430 C   0  0  0  0  0  0  0  0  0  0  0  0
   60.1200   33.1650   51.4500 S   0  0  0  0  0  0  0  0  0  0  0  0
   60.1100   31.6990   51.7870 O   0  0  0  0  0  0  0  0  0  0  0  0
   59.2640   33.8810   52.4570 O   0  0  0  0  0  0  0  0  0  0  0  0
   61.7290   33.8330   51.5040 N   0  0  0  0  0  0  0  0  0  0  0  0
   62.7450   32.8720   51.0720 C   0  0  0  0  0  0  0  0  0  0  0  0
   62.8210   32.8170   49.5690 C   0  0  0  0  0  0  0  0  0  0  0  0
   62.4210   31.6540   48.8890 C   0  0  0  0  0  0  0  0  0  0  0  0
   62.5200   31.5780   47.4950 C   0  0  0  0  0  0  0  0  0  0  0  0
   63.0100   32.6690   46.7690 C   0  0  0  0  0  0  0  0  0  0  0  0
   63.3860   33.8400   47.4360 C   0  0  0  0  0  0  0  0  0  0  0  0
   63.2900   33.9180   48.8300 C   0  0  0  0  0  0  0  0  0  0  0  0
   58.5210   32.4820   49.3260 C   0  0  0  0  0  0  0  0  0  0  0  0
   58.0120   32.6430   48.0360 C   0  0  0  0  0  0  0  0  0  0  0  0
   57.9240   30.8290   45.5110 C   0  0  0  0  0  0  0  0  0  0  0  0
   57.3800   26.1250   46.5080 C   0  0  0  0  0  0  0  0  0  0  0  0
   58.0020   25.0010   46.9100 N   0  0  0  0  0  0  0  0  0  0  0  0
   57.0050   24.1020   47.0320 C   0  0  0  0  0  0  0  0  0  0  0  0
   57.2040   22.9140   47.4000 O   0  0  0  0  0  0  0  0  0  0  0  0
   55.7810   24.5740   46.7320 N   0  0  0  0  0  0  0  0  0  0  0  0
   56.0200   25.8510   46.3970 C   0  0  0  0  0  0  0  0  0  0  0  0
   55.0000   26.7150   45.9950 O   0  0  0  0  0  0  0  0  0  0  0  0
   60.1129   27.3418   46.9960 H   0  0  0  0  0  0  0  0  0  0  0  0
   59.8410   26.4512   45.4600 H   0  0  0  0  0  0  0  0  0  0  0  0
   59.8928   28.2467   45.4600 H   0  0  0  0  0  0  0  0  0  0  0  0
   56.4857   28.2266   43.8220 H   0  0  0  0  0  0  0  0  0  0  0  0
   56.4568   29.9430   42.0134 H   0  0  0  0  0  0  0  0  0  0  0  0
   57.3634   32.2295   42.4387 H   0  0  0  0  0  0  0  0  0  0  0  0
   59.5835   35.5585   47.1847 H   0  0  0  0  0  0  0  0  0  0  0  0
   60.5447   35.2325   49.4629 H   0  0  0  0  0  0  0  0  0  0  0  0
   63.7233   33.1766   51.4721 H   0  0  0  0  0  0  0  0  0  0  0  0
   62.4719   31.8753   51.4489 H   0  0  0  0  0  0  0  0  0  0  0  0
   62.0274   30.7976   49.4562 H   0  0  0  0  0  0  0  0  0  0  0  0
   62.2128   30.6612   46.9706 H   0  0  0  0  0  0  0  0  0  0  0  0
   63.0996   32.6062   45.6745 H   0  0  0  0  0  0  0  0  0  0  0  0
   63.7582   34.7020   46.8629 H   0  0  0  0  0  0  0  0  0  0  0  0
   63.5821   34.8428   49.3491 H   0  0  0  0  0  0  0  0  0  0  0  0
   58.1980   31.6278   49.9393 H   0  0  0  0  0  0  0  0  0  0  0  0
   57.2968   31.9101   47.6344 H   0  0  0  0  0  0  0  0  0  0  0  0
   58.3786   31.0645   46.4846 H   0  0  0  0  0  0  0  0  0  0  0  0
   55.1550   27.5450   45.4430 H   0  0  0  0  0  0  0  0  0  0  0  0
  1  2  1  0
  2  3  2  3
  3  4  1  0
  4  5  2  0
  5  6  1  0
  6  7  2  0
  7  8  1  0
  8  9  1  0
  9 10  2  0
  9 11  1  0
 11 12  1  0
 12 13  2  0
 13 14  1  0
 14 15  2  0
 15 16  1  0
 16 17  2  0
 16 18  2  0
 16 19  1  0
 19 20  1  0
 20 21  1  0
 21 22  2  0
 22 23  1  0
 23 24  2  0
 24 25  1  0
 25 26  2  0
 15 27  1  0
 27 28  2  0
  8 29  2  0
  2 30  1  0
 30 31  1  0
 31 32  1  0
 32 33  2  0
 32 34  1  0
 34 35  1  0
 35 36  1  0
 29  4  1  0
 35 30  2  0
 28 12  1  0
 26 21  1  0
  1 37  1  0
  1 38  1  0
  1 39  1  0
  5 40  1  0
  6 41  1  0
  7 42  1  0
 13 43  1  0
 14 44  1  0
 20 45  1  0
 20 46  1  0
 22 47  1  0
 23 48  1  0
 24 49  1  0
 25 50  1  0
 26 51  1  0
 27 52  1  0
 28 53  1  0
 29 54  1  0
 36 55  1  0
M  CHG  4  11  -1  19  -1  31  -1  34  -1
M  END
>  <UniqueID>  (29) 
23

>  <SMILES>  (29) 
CC(=Nc1cccc(C(=O)[N-]c2ccc(S(=O)(=O)[N-]Cc3ccccc3)cc2)c1)c1[n-]c(=O)[n-]c1O

>  <Energy>  (29) 
97.03714075364493

>  <Genealogy>  (29) 
CC(=Nc1cccc(C(=O)[N-]c2ccc(S(=O)(=O)[N-]Cc3ccccc3)cc2)c1)c1[n-]c(=O)[n-]c1O (protonated)
CC(=Nc1cccc(C(=O)[N-]c2ccc(S(=O)(=O)[N-]Cc3ccccc3)cc2)c1)c1[n-]c(=O)[n-]c1O (3D coordinates assigned)
CC(=Nc1cccc(C(=O)[N-]c2ccc(S(=O)(=O)[N-]Cc3ccccc3)cc2)c1)c1[n-]c(=O)[n-]c1O (optimized conformer: 97.03714075364493 kcal/mol)

>  <smiles>  (29) 
CC(=Nc1cccc(C(=O)Nc2ccc(S(=O)(=O)NCc3ccccc3)cc2)c1)c1[nH]c(=O)[nH]c1O

>  <score_type>  (29) 
oracle

>  <origin>  (29) 
adg

>  <m_score__min__energy>  (29) 
-17.039999999999999

>  <m_primary>  (29) 
energy

$$$$
30:0
     RDKit          3D

 64 67  0  0  0  0  0  0  0  0999 V2000
   55.5300   29.9760   43.0940 O   0  0  0  0  0  0  0  0  0  0  0  0
   56.3420   30.2410   44.0180 C   0  0  0  0  0  0  0  0  0  0  0  0
   56.5130   31.6120   44.4060 N   0  0  0  0  0  0  0  0  0  0  0  0
   57.3940   32.1050   45.4230 C   0  0  0  0  0  0  0  0  0  0  0  0
   57.8770   31.2690   46.4430 C   0  0  0  0  0  0  0  0  0  0  0  0
   58.7400   31.7770   47.4200 C   0  0  0  0  0  0  0  0  0  0  0  0
   59.1100   33.1280   47.3990 C   0  0  0  0  0  0  0  0  0  0  0  0
   60.2430   33.7420   48.6010 S   0  0  0  0  0  0  0  0  0  0  0  0
   59.6660   34.9600   49.2700 O   0  0  0  0  0  0  0  0  0  0  0  0
   60.4440   32.6800   49.6460 O   0  0  0  0  0  0  0  0  0  0  0  0
   61.7840   34.1210   47.8570 N   0  0  0  0  0  0  0  0  0  0  0  0
   62.8710   34.2150   48.8500 C   0  0  0  0  0  0  0  0  0  0  0  0
   63.2960   32.8270   49.3850 C   0  0  0  0  0  0  0  0  0  0  0  0
   62.8840   31.7500   48.5610 O   0  0  0  0  0  0  0  0  0  0  0  0
   63.0840   32.0710   47.2020 C   0  0  0  0  0  0  0  0  0  0  0  0
   62.1100   33.1810   46.7630 C   0  0  0  0  0  0  0  0  0  0  0  0
   58.6010   33.9700   46.4000 C   0  0  0  0  0  0  0  0  0  0  0  0
   57.7380   33.4620   45.4250 C   0  0  0  0  0  0  0  0  0  0  0  0
   57.1510   29.1500   44.6070 C   0  0  0  0  0  0  0  0  0  0  0  0
   56.6980   28.4890   45.5810 O   0  0  0  0  0  0  0  0  0  0  0  0
   58.4710   28.8730   44.1100 N   0  0  0  0  0  0  0  0  0  0  0  0
   59.2990   27.7860   44.6330 C   0  0  0  0  0  0  0  0  0  0  0  0
   59.7190   28.0720   46.0510 C   0  0  0  0  0  0  0  0  0  0  0  0
   60.4560   29.2280   46.3490 C   0  0  0  0  0  0  0  0  0  0  0  0
   60.7820   29.5350   47.6740 C   0  0  0  0  0  0  0  0  0  0  0  0
   60.3820   28.6850   48.7130 C   0  0  0  0  0  0  0  0  0  0  0  0
   60.7140   29.1240   50.3850 S   0  0  0  0  0  0  0  0  0  0  0  0
   60.4300   27.9510   51.2860 O   0  0  0  0  0  0  0  0  0  0  0  0
   62.1680   29.4870   50.5170 O   0  0  0  0  0  0  0  0  0  0  0  0
   59.7230   30.4880   50.8380 N   0  0  0  0  0  0  0  0  0  0  0  0
   58.2950   30.1280   50.7460 C   0  0  0  0  0  0  0  0  0  0  0  0
   57.4120   31.1860   51.4370 C   0  0  0  0  0  0  0  0  0  0  0  0
   58.1420   32.3740   51.6720 O   0  0  0  0  0  0  0  0  0  0  0  0
   59.1780   32.1240   52.6060 C   0  0  0  0  0  0  0  0  0  0  0  0
   60.0540   30.9160   52.2040 C   0  0  0  0  0  0  0  0  0  0  0  0
   59.6590   27.5220   48.4170 C   0  0  0  0  0  0  0  0  0  0  0  0
   59.3310   27.2150   47.0950 C   0  0  0  0  0  0  0  0  0  0  0  0
   57.5758   30.2115   46.4738 H   0  0  0  0  0  0  0  0  0  0  0  0
   59.1290   31.1139   48.2067 H   0  0  0  0  0  0  0  0  0  0  0  0
   63.7413   34.6943   48.3781 H   0  0  0  0  0  0  0  0  0  0  0  0
   62.5007   34.8058   49.7008 H   0  0  0  0  0  0  0  0  0  0  0  0
   64.3930   32.8054   49.4626 H   0  0  0  0  0  0  0  0  0  0  0  0
   62.8045   32.6931   50.3599 H   0  0  0  0  0  0  0  0  0  0  0  0
   64.1178   32.4191   47.0602 H   0  0  0  0  0  0  0  0  0  0  0  0
   62.9002   31.1737   46.5928 H   0  0  0  0  0  0  0  0  0  0  0  0
   62.5694   33.7463   45.9387 H   0  0  0  0  0  0  0  0  0  0  0  0
   61.1729   32.6962   46.4518 H   0  0  0  0  0  0  0  0  0  0  0  0
   58.8817   35.0335   46.3836 H   0  0  0  0  0  0  0  0  0  0  0  0
   57.3270   34.1318   44.6553 H   0  0  0  0  0  0  0  0  0  0  0  0
   58.8550   29.4470   43.3260 H   0  0  0  0  0  0  0  0  0  0  0  0
   58.7227   26.8493   44.6090 H   0  0  0  0  0  0  0  0  0  0  0  0
   60.2000   27.6957   44.0085 H   0  0  0  0  0  0  0  0  0  0  0  0
   60.7789   29.8960   45.5369 H   0  0  0  0  0  0  0  0  0  0  0  0
   61.3542   30.4467   47.9008 H   0  0  0  0  0  0  0  0  0  0  0  0
   58.0094   30.0580   49.6860 H   0  0  0  0  0  0  0  0  0  0  0  0
   58.1442   29.1624   51.2508 H   0  0  0  0  0  0  0  0  0  0  0  0
   56.5506   31.4138   50.7919 H   0  0  0  0  0  0  0  0  0  0  0  0
   57.0717   30.7846   52.4030 H   0  0  0  0  0  0  0  0  0  0  0  0
   59.8167   33.0171   52.6727 H   0  0  0  0  0  0  0  0  0  0  0  0
   58.7088   31.8912   53.5733 H   0  0  0  0  0  0  0  0  0  0  0  0
   61.1146   31.2042   52.2485 H   0  0  0  0  0  0  0  0  0  0  0  0
   59.8639   30.0848   52.8990 H   0  0  0  0  0  0  0  0  0  0  0  0
   59.3486   26.8482   49.2292 H   0  0  0  0  0  0  0  0  0  0  0  0
   58.7664   26.2983   46.8697 H   0  0  0  0  0  0  0  0  0  0  0  0
  1  2  2  0
  2  3  1  0
  3  4  1  0
  4  5  2  0
  5  6  1  0
  6  7  2  0
  7  8  1  0
  8  9  2  0
  8 10  2  0
  8 11  1  0
 11 12  1  0
 12 13  1  0
 13 14  1  0
 14 15  1  0
 15 16  1  0
  7 17  1  0
 17 18  2  0
  2 19  1  0
 19 20  2  0
 19 21  1  0
 21 22  1  0
 22 23  1  0
 23 24  2  0
 24 25  1  0
 25 26  2  0
 26 27  1  0
 27 28  2  0
 27 29  2  0
 27 30  1  0
 30 31  1  0
 31 32  1  0
 32 33  1  0
 33 34  1  0
 34 35  1  0
 26 36  1  0
 36 37  2  0
 18  4  1  0
 37 23  1  0
 16 11  1  0
 35 30  1  0
  5 38  1  0
  6 39  1  0
 12 40  1  0
 12 41  1  0
 13 42  1  0
 13 43  1  0
 15 44  1  0
 15 45  1  0
 16 46  1  0
 16 47  1  0
 17 48  1  0
 18 49  1  0
 21 50  1  0
 22 51  1  0
 22 52  1  0
 24 53  1  0
 25 54  1  0
 31 55  1  0
 31 56  1  0
 32 57  1  0
 32 58  1  0
 34 59  1  0
 34 60  1  0
 35 61  1  0
 35 62  1  0
 36 63  1  0
 37 64  1  0
M  CHG  1   3  -1
M  END
>  <UniqueID>  (30) 
24

>  <SMILES>  (30) 
O=C([N-]c1ccc(S(=O)(=O)N2CCOCC2)cc1)C(=O)NCc1ccc(S(=O)(=O)N2CCOCC2)cc1

>  <Energy>  (30) 
86.5458533605257

>  <Genealogy>  (30) 
O=C([N-]c1ccc(S(=O)(=O)N2CCOCC2)cc1)C(=O)NCc1ccc(S(=O)(=O)N2CCOCC2)cc1 (protonated)
O=C([N-]c1ccc(S(=O)(=O)N2CCOCC2)cc1)C(=O)NCc1ccc(S(=O)(=O)N2CCOCC2)cc1 (3D coordinates assigned)
O=C([N-]c1ccc(S(=O)(=O)N2CCOCC2)cc1)C(=O)NCc1ccc(S(=O)(=O)N2CCOCC2)cc1 (nonaromatic ring conformer: 86.5458533605257 kcal/mol)

>  <smiles>  (30) 
O=C(NCc1ccc(S(=O)(=O)N2CCOCC2)cc1)C(=O)Nc1ccc(S(=O)(=O)N2CCOCC2)cc1

>  <score_type>  (30) 
oracle

>  <origin>  (30) 
adg

>  <m_score__min__energy>  (30) 
-11.49

>  <m_primary>  (30) 
energy

$$$$
31:0
     RDKit          3D

 48 50  0  0  0  0  0  0  0  0999 V2000
   51.1090   32.3380   50.5890 N   0  0  0  0  0  0  0  0  0  0  0  0
   51.0030   32.3470   52.0120 C   0  0  0  0  0  0  0  0  0  0  0  0
   50.5520   33.3710   52.5890 O   0  0  0  0  0  0  0  0  0  0  0  0
   51.4820   31.2150   52.8270 C   0  0  0  0  0  0  0  0  0  0  0  0
   52.2580   30.2100   52.3920 C   0  0  0  0  0  0  0  0  0  0  0  0
   53.7350   30.2210   52.3660 C   0  0  0  0  0  0  0  0  0  0  0  0
   54.4080   31.4050   52.0340 C   0  0  0  0  0  0  0  0  0  0  0  0
   55.8060   31.4510   52.0440 C   0  0  0  0  0  0  0  0  0  0  0  0
   56.5480   30.3210   52.4190 C   0  0  0  0  0  0  0  0  0  0  0  0
   58.0530   30.3570   52.3890 C   0  0  0  0  0  0  0  0  0  0  0  0
   58.5610   29.6720   51.1980 N   0  0  0  0  0  0  0  0  0  0  0  0
   58.9100   30.3580   49.9810 C   0  0  0  0  0  0  0  0  0  0  0  0
   59.2750   31.7120   50.0370 C   0  0  0  0  0  0  0  0  0  0  0  0
   59.6310   32.4000   48.8760 C   0  0  0  0  0  0  0  0  0  0  0  0
   59.6210   31.7470   47.6430 C   0  0  0  0  0  0  0  0  0  0  0  0
   59.2440   30.3980   47.5610 C   0  0  0  0  0  0  0  0  0  0  0  0
   59.2780   29.6820   46.2390 C   0  0  0  0  0  0  0  0  0  0  0  0
   58.0290   28.9440   46.0370 N   0  0  0  0  0  0  0  0  0  0  0  0
   57.7540   27.6850   46.4170 C   0  0  0  0  0  0  0  0  0  0  0  0
   58.6360   26.8910   47.1490 O   0  0  0  0  0  0  0  0  0  0  0  0
   56.4890   27.3490   45.9520 C   0  0  0  0  0  0  0  0  0  0  0  0
   55.7570   26.0820   46.1240 C   0  0  0  0  0  0  0  0  0  0  0  0
   54.4150   25.9770   45.6560 N   0  0  0  0  0  0  0  0  0  0  0  0
   56.2970   25.0900   46.6800 O   0  0  0  0  0  0  0  0  0  0  0  0
   55.9790   28.3970   45.2670 N   0  0  0  0  0  0  0  0  0  0  0  0
   56.9450   29.3370   45.3380 C   0  0  0  0  0  0  0  0  0  0  0  0
   56.8380   30.4680   44.7960 O   0  0  0  0  0  0  0  0  0  0  0  0
   58.8980   29.7050   48.7320 C   0  0  0  0  0  0  0  0  0  0  0  0
   55.8760   29.1390   52.7680 C   0  0  0  0  0  0  0  0  0  0  0  0
   54.4790   29.0950   52.7580 C   0  0  0  0  0  0  0  0  0  0  0  0
   50.2600   32.2700   49.9860 H   0  0  0  0  0  0  0  0  0  0  0  0
   51.1766   31.1924   53.8835 H   0  0  0  0  0  0  0  0  0  0  0  0
   51.7530   29.3043   52.0249 H   0  0  0  0  0  0  0  0  0  0  0  0
   53.8333   32.3033   51.7640 H   0  0  0  0  0  0  0  0  0  0  0  0
   56.3257   32.3769   51.7567 H   0  0  0  0  0  0  0  0  0  0  0  0
   58.3894   31.4042   52.3750 H   0  0  0  0  0  0  0  0  0  0  0  0
   58.4381   29.8458   53.2837 H   0  0  0  0  0  0  0  0  0  0  0  0
   58.6710   28.6310   51.2250 H   0  0  0  0  0  0  0  0  0  0  0  0
   59.2806   32.2356   51.0044 H   0  0  0  0  0  0  0  0  0  0  0  0
   59.9202   33.4598   48.9332 H   0  0  0  0  0  0  0  0  0  0  0  0
   59.9097   32.2917   46.7320 H   0  0  0  0  0  0  0  0  0  0  0  0
   59.4020   30.4167   45.4298 H   0  0  0  0  0  0  0  0  0  0  0  0
   60.1205   28.9747   46.2329 H   0  0  0  0  0  0  0  0  0  0  0  0
   58.4220   25.9420   47.4190 H   0  0  0  0  0  0  0  0  0  0  0  0
   53.6260   26.4030   46.1910 H   0  0  0  0  0  0  0  0  0  0  0  0
   58.6152   28.6436   48.6742 H   0  0  0  0  0  0  0  0  0  0  0  0
   56.4507   28.2445   53.0503 H   0  0  0  0  0  0  0  0  0  0  0  0
   53.9588   28.1736   53.0587 H   0  0  0  0  0  0  0  0  0  0  0  0
  1  2  1  0
  2  3  2  0
  2  4  1  0
  4  5  2  3
  5  6  1  0
  6  7  2  0
  7  8  1  0
  8  9  2  0
  9 10  1  0
 10 11  1  0
 11 12  1  0
 12 13  2  0
 13 14  1  0
 14 15  2  0
 15 16  1  0
 16 17  1  0
 17 18  1  0
 18 19  1  0
 19 20  1  0
 19 21  2  0
 21 22  1  0
 22 23  1  0
 22 24  2  0
 21 25  1  0
 25 26  1  0
 26 27  2  0
 16 28  2  0
  9 29  1  0
 29 30  2  0
 30  6  1  0
 28 12  1  0
 26 18  1  0
  1 31  1  0
  4 32  1  0
  5 33  1  0
  7 34  1  0
  8 35  1  0
 10 36  1  0
 10 37  1  0
 11 38  1  0
 13 39  1  0
 14 40  1  0
 15 41  1  0
 17 42  1  0
 17 43  1  0
 20 44  1  0
 23 45  1  0
 28 46  1  0
 29 47  1  0
 30 48  1  0
M  CHG  3   1  -1  23  -1  25  -1
M  END
>  <UniqueID>  (31) 
25

>  <SMILES>  (31) 
[NH-]C(=O)C=Cc1ccc(CNc2cccc(Cn3c(O)c(C([NH-])=O)[n-]c3=O)c2)cc1

>  <Energy>  (31) 
86.85940176486336

>  <Genealogy>  (31) 
[NH-]C(=O)C=Cc1ccc(CNc2cccc(Cn3c(O)c(C([NH-])=O)[n-]c3=O)c2)cc1 (protonated)
[NH-]C(=O)C=Cc1ccc(CNc2cccc(Cn3c(O)c(C([NH-])=O)[n-]c3=O)c2)cc1 (3D coordinates assigned)
[NH-]C(=O)C=Cc1ccc(CNc2cccc(Cn3c(O)c(C([NH-])=O)[n-]c3=O)c2)cc1 (optimized conformer: 86.85940176486336 kcal/mol)

>  <smiles>  (31) 
NC(=O)C=Cc1ccc(CNc2cccc(Cn3c(O)c(C(N)=O)[nH]c3=O)c2)cc1

>  <score_type>  (31) 
oracle

>  <origin>  (31) 
adg

>  <m_score__min__energy>  (31) 
-16.579999999999998

>  <m_primary>  (31) 
energy

$$$$
32:0
     RDKit          3D

 56 60  0  0  0  0  0  0  0  0999 V2000
   55.0990   22.5650   56.0570 C   0  0  0  0  0  0  0  0  0  0  0  0
   54.3990   23.4750   55.2150 O   0  0  0  0  0  0  0  0  0  0  0  0
   54.9130   24.7030   54.7730 C   0  0  0  0  0  0  0  0  0  0  0  0
   56.2500   24.8550   54.3580 C   0  0  0  0  0  0  0  0  0  0  0  0
   56.7190   26.0980   53.9240 C   0  0  0  0  0  0  0  0  0  0  0  0
   55.8630   27.2080   53.9000 C   0  0  0  0  0  0  0  0  0  0  0  0
   56.3250   28.4560   53.4590 C   0  0  0  0  0  0  0  0  0  0  0  0
   55.4610   29.5670   53.4340 C   0  0  0  0  0  0  0  0  0  0  0  0
   55.8840   30.8240   52.9740 O   0  0  0  0  0  0  0  0  0  0  0  0
   56.9900   31.5560   53.4870 C   0  0  0  0  0  0  0  0  0  0  0  0
   57.7390   32.1550   52.3330 C   0  0  0  0  0  0  0  0  0  0  0  0
   58.5050   33.3170   52.5060 C   0  0  0  0  0  0  0  0  0  0  0  0
   59.2620   33.8260   51.4480 C   0  0  0  0  0  0  0  0  0  0  0  0
   59.2660   33.1800   50.2010 C   0  0  0  0  0  0  0  0  0  0  0  0
   60.0850   33.7200   49.0950 C   0  0  0  0  0  0  0  0  0  0  0  0
   61.1400   34.3530   49.3670 O   0  0  0  0  0  0  0  0  0  0  0  0
   59.7000   33.5820   47.7220 N   0  0  0  0  0  0  0  0  0  0  0  0
   58.9200   34.5650   46.9790 C   0  0  0  0  0  0  0  0  0  0  0  0
   59.2390   34.6140   45.4960 C   0  0  0  0  0  0  0  0  0  0  0  0
   57.9730   33.9260   45.9810 C   0  0  0  0  0  0  0  0  0  0  0  0
   58.5280   31.9960   50.0420 C   0  0  0  0  0  0  0  0  0  0  0  0
   57.7680   31.4900   51.0980 C   0  0  0  0  0  0  0  0  0  0  0  0
   54.1320   29.4240   53.8790 C   0  0  0  0  0  0  0  0  0  0  0  0
   53.1870   30.5620   53.8290 C   0  0  0  0  0  0  0  0  0  0  0  0
   52.4480   30.9150   52.7520 C   0  0  0  0  0  0  0  0  0  0  0  0
   52.7690   30.3440   51.4190 C   0  0  0  0  0  0  0  0  0  0  0  0
   53.6230   29.4260   51.2960 O   0  0  0  0  0  0  0  0  0  0  0  0
   52.1270   30.8510   50.2470 N   0  0  0  0  0  0  0  0  0  0  0  0
   51.1350   31.8740   50.3330 C   0  0  0  0  0  0  0  0  0  0  0  0
   50.6240   32.3430   49.2830 O   0  0  0  0  0  0  0  0  0  0  0  0
   50.7130   32.3530   51.6070 N   0  0  0  0  0  0  0  0  0  0  0  0
   51.3000   31.8640   52.8150 C   0  0  0  0  0  0  0  0  0  0  0  0
   50.7980   32.2130   53.9150 O   0  0  0  0  0  0  0  0  0  0  0  0
   53.6630   28.1710   54.2910 C   0  0  0  0  0  0  0  0  0  0  0  0
   54.5200   27.0620   54.3160 C   0  0  0  0  0  0  0  0  0  0  0  0
   54.0570   25.8100   54.7480 C   0  0  0  0  0  0  0  0  0  0  0  0
   54.9053   22.8168   57.1101 H   0  0  0  0  0  0  0  0  0  0  0  0
   54.7544   21.5400   55.8557 H   0  0  0  0  0  0  0  0  0  0  0  0
   56.1781   22.6352   55.8557 H   0  0  0  0  0  0  0  0  0  0  0  0
   56.9295   23.9901   54.3755 H   0  0  0  0  0  0  0  0  0  0  0  0
   57.7646   26.2059   53.5998 H   0  0  0  0  0  0  0  0  0  0  0  0
   57.3689   28.5677   53.1306 H   0  0  0  0  0  0  0  0  0  0  0  0
   56.6302   32.3555   54.1513 H   0  0  0  0  0  0  0  0  0  0  0  0
   57.6506   30.8893   54.0606 H   0  0  0  0  0  0  0  0  0  0  0  0
   58.5097   33.8299   53.4791 H   0  0  0  0  0  0  0  0  0  0  0  0
   59.8588   34.7387   51.5926 H   0  0  0  0  0  0  0  0  0  0  0  0
   58.8345   35.3180   47.7763 H   0  0  0  0  0  0  0  0  0  0  0  0
   59.1729   35.5667   44.9501 H   0  0  0  0  0  0  0  0  0  0  0  0
   60.0965   34.3176   44.8741 H   0  0  0  0  0  0  0  0  0  0  0  0
   56.9906   34.3807   45.7859 H   0  0  0  0  0  0  0  0  0  0  0  0
   57.5345   32.9250   45.8554 H   0  0  0  0  0  0  0  0  0  0  0  0
   58.5489   31.4640   49.0795 H   0  0  0  0  0  0  0  0  0  0  0  0
   57.1888   30.5649   50.9611 H   0  0  0  0  0  0  0  0  0  0  0  0
   53.0767   31.1690   54.7397 H   0  0  0  0  0  0  0  0  0  0  0  0
   52.6129   28.0557   54.5978 H   0  0  0  0  0  0  0  0  0  0  0  0
   53.0113   25.6974   55.0701 H   0  0  0  0  0  0  0  0  0  0  0  0
  1  2  1  0
  2  3  1  0
  3  4  2  0
  4  5  1  0
  5  6  2  0
  6  7  1  0
  7  8  2  0
  8  9  1  0
  9 10  1  0
 10 11  1  0
 11 12  2  0
 12 13  1  0
 13 14  2  0
 14 15  1  0
 15 16  2  0
 15 17  1  0
 17 18  1  0
 18 19  1  0
 19 20  1  0
 14 21  1  0
 21 22  2  0
  8 23  1  0
 23 24  1  0
 24 25  2  3
 25 26  1  0
 26 27  2  0
 26 28  1  0
 28 29  1  0
 29 30  2  0
 29 31  1  0
 31 32  1  0
 32 33  2  0
 23 34  2  0
 34 35  1  0
 35 36  2  0
 36  3  1  0
 35  6  1  0
 22 11  1  0
 32 25  1  0
 20 18  1  0
  1 37  1  0
  1 38  1  0
  1 39  1  0
  4 40  1  0
  5 41  1  0
  7 42  1  0
 10 43  1  0
 10 44  1  0
 12 45  1  0
 13 46  1  0
 18 47  1  0
 19 48  1  0
 19 49  1  0
 20 50  1  0
 20 51  1  0
 21 52  1  0
 22 53  1  0
 24 54  1  0
 34 55  1  0
 36 56  1  0
M  CHG  3  17  -1  28  -1  31  -1
M  END
>  <UniqueID>  (32) 
26

>  <SMILES>  (32) 
COc1ccc2cc(OCc3ccc(C(=O)[N-]C4CC4)cc3)c(C=C3C(=O)[N-]C(=O)[N-]C3=O)cc2c1

>  <Energy>  (32) 
337.75029849637707

>  <Genealogy>  (32) 
COc1ccc2cc(OCc3ccc(C(=O)[N-]C4CC4)cc3)c(C=C3C(=O)[N-]C(=O)[N-]C3=O)cc2c1 (protonated)
COc1ccc2cc(OCc3ccc(C(=O)[N-]C4CC4)cc3)c(C=C3C(=O)[N-]C(=O)[N-]C3=O)cc2c1 (3D coordinates assigned)
COc1ccc2cc(OCc3ccc(C(=O)[N-]C4CC4)cc3)c(C=C3C(=O)[N-]C(=O)[N-]C3=O)cc2c1 (nonaromatic ring conformer: 337.75029849637707 kcal/mol)

>  <smiles>  (32) 
COc1ccc2cc(OCc3ccc(C(=O)NC4CC4)cc3)c(C=C3C(=O)NC(=O)NC3=O)cc2c1

>  <score_type>  (32) 
oracle

>  <origin>  (32) 
adg

>  <m_score__min__energy>  (32) 
-13.880000000000001

>  <m_primary>  (32) 
energy

$$$$
33:0
     RDKit          3D

 48 50  0  0  0  0  0  0  0  0999 V2000
   58.9605   31.3601   46.3105 H   0  0  0  0  0  0  0  0  0  0  0  0
   59.3480   30.4160   46.7210 C   0  0  0  0  0  0  0  0  0  0  0  0
   58.7550   29.1500   46.2630 C   0  0  0  0  0  0  0  0  0  0  0  0
   58.1890   28.3690   47.0770 O   0  0  0  0  0  0  0  0  0  0  0  0
   58.8360   28.8220   44.9050 O   0  0  0  0  0  0  0  0  0  0  0  0
   57.7110   28.8340   44.0290 C   0  0  0  0  0  0  0  0  0  0  0  0
   57.3890   27.7989   43.8425 H   0  0  0  0  0  0  0  0  0  0  0  0
   58.0045   29.3212   43.0875 H   0  0  0  0  0  0  0  0  0  0  0  0
   56.5680   29.6040   44.6320 C   0  0  0  0  0  0  0  0  0  0  0  0
   55.4850   29.0080   44.8760 O   0  0  0  0  0  0  0  0  0  0  0  0
   56.6480   31.0150   44.8760 N   0  0  0  0  0  0  0  0  0  0  0  0
   57.4130   31.9710   44.0810 C   0  0  0  0  0  0  0  0  0  0  0  0
   58.2137   31.4388   43.5467 H   0  0  0  0  0  0  0  0  0  0  0  0
   56.7370   32.4583   43.3630 H   0  0  0  0  0  0  0  0  0  0  0  0
   58.0200   33.0180   44.9620 C   0  0  0  0  0  0  0  0  0  0  0  0
   57.5160   33.3830   46.5250 S   0  0  0  0  0  0  0  0  0  0  0  0
   58.6260   34.6220   46.7870 C   0  0  0  0  0  0  0  0  0  0  0  0
   58.7194   35.2192   47.7060 H   0  0  0  0  0  0  0  0  0  0  0  0
   59.4030   34.7610   45.6450 C   0  0  0  0  0  0  0  0  0  0  0  0
   60.2077   35.5052   45.5521 H   0  0  0  0  0  0  0  0  0  0  0  0
   59.0670   33.8660   44.6230 C   0  0  0  0  0  0  0  0  0  0  0  0
   59.5797   33.8369   43.6502 H   0  0  0  0  0  0  0  0  0  0  0  0
   60.3410   30.4640   47.6180 C   0  0  0  0  0  0  0  0  0  0  0  0
   60.4935   29.6040   48.2867 H   0  0  0  0  0  0  0  0  0  0  0  0
   61.2410   31.6330   47.7420 C   0  0  0  0  0  0  0  0  0  0  0  0
   62.5020   31.5720   47.1300 C   0  0  0  0  0  0  0  0  0  0  0  0
   62.7913   30.6742   46.5641 H   0  0  0  0  0  0  0  0  0  0  0  0
   63.3930   32.6430   47.2340 C   0  0  0  0  0  0  0  0  0  0  0  0
   64.3803   32.5851   46.7524 H   0  0  0  0  0  0  0  0  0  0  0  0
   63.0320   33.7860   47.9480 C   0  0  0  0  0  0  0  0  0  0  0  0
   63.7420   34.6207   48.0439 H   0  0  0  0  0  0  0  0  0  0  0  0
   61.7710   33.8720   48.5410 C   0  0  0  0  0  0  0  0  0  0  0  0
   61.4952   34.7725   49.1093 H   0  0  0  0  0  0  0  0  0  0  0  0
   60.8500   32.8150   48.4170 C   0  0  0  0  0  0  0  0  0  0  0  0
   59.5560   32.8980   48.9590 O   0  0  0  0  0  0  0  0  0  0  0  0
   59.2320   33.1100   50.3060 C   0  0  0  0  0  0  0  0  0  0  0  0
   59.5550   34.1840   50.8830 O   0  0  0  0  0  0  0  0  0  0  0  0
   58.4530   32.0860   51.0350 C   0  0  0  0  0  0  0  0  0  0  0  0
   58.7730   30.7220   50.9010 C   0  0  0  0  0  0  0  0  0  0  0  0
   59.6020   30.4174   50.2453 H   0  0  0  0  0  0  0  0  0  0  0  0
   58.0450   29.7520   51.5950 C   0  0  0  0  0  0  0  0  0  0  0  0
   58.3022   28.6884   51.4828 H   0  0  0  0  0  0  0  0  0  0  0  0
   56.9900   30.1300   52.4320 C   0  0  0  0  0  0  0  0  0  0  0  0
   56.4227   29.3654   52.9830 H   0  0  0  0  0  0  0  0  0  0  0  0
   56.6580   31.4800   52.5670 C   0  0  0  0  0  0  0  0  0  0  0  0
   55.8243   31.7776   53.2200 H   0  0  0  0  0  0  0  0  0  0  0  0
   57.3840   32.4550   51.8730 C   0  0  0  0  0  0  0  0  0  0  0  0
   57.1174   33.5165   51.9832 H   0  0  0  0  0  0  0  0  0  0  0  0
  1  2  1  0
  2  3  1  0
  3  4  2  0
  3  5  1  0
  5  6  1  0
  6  7  1  0
  6  8  1  0
  6  9  1  0
  9 10  2  0
  9 11  1  0
 11 12  1  0
 12 13  1  0
 12 14  1  0
 12 15  1  0
 15 16  1  0
 16 17  1  0
 17 18  1  0
 17 19  2  0
 19 20  1  0
 19 21  1  0
 21 22  1  0
  2 23  2  0
 23 24  1  0
 23 25  1  0
 25 26  2  0
 26 27  1  0
 26 28  1  0
 28 29  1  0
 28 30  2  0
 30 31  1  0
 30 32  1  0
 32 33  1  0
 32 34  2  0
 34 35  1  0
 35 36  1  0
 36 37  2  0
 36 38  1  0
 38 39  2  0
 39 40  1  0
 39 41  1  0
 41 42  1  0
 41 43  2  0
 43 44  1  0
 43 45  1  0
 45 46  1  0
 45 47  2  0
 47 48  1  0
 21 15  2  0
 34 25  1  0
 47 38  1  0
M  CHG  1  11  -1
M  END
>  <UniqueID>  (33) 
27

>  <SMILES>  (33) 
O=C(COC(=O)/C=C/c1ccccc1OC(=O)c1ccccc1)[N-]Cc1cccs1

>  <Energy>  (33) 
79.56482621455973

>  <Genealogy>  (33) 
O=C(COC(=O)C=Cc1ccccc1OC(=O)c1ccccc1)[N-]Cc1cccs1 (protonated)
O=C(COC(=O)/C=C/c1ccccc1OC(=O)c1ccccc1)[N-]Cc1cccs1 (cis-trans isomerization)
O=C(COC(=O)/C=C/c1ccccc1OC(=O)c1ccccc1)[N-]Cc1cccs1 (3D coordinates assigned)
O=C(COC(=O)/C=C/c1ccccc1OC(=O)c1ccccc1)[N-]Cc1cccs1 (optimized conformer: 79.56482621455973 kcal/mol)

>  <smiles>  (33) 
O=C(COC(=O)C=Cc1ccccc1OC(=O)c1ccccc1)NCc1cccs1

>  <score_type>  (33) 
oracle

>  <origin>  (33) 
adg

>  <m_score__min__energy>  (33) 
-11.32

>  <m_primary>  (33) 
energy

$$$$
34:0
     RDKit          3D

 51 54  0  0  0  0  0  0  0  0999 V2000
   57.3745   32.6509   44.6945 H   0  0  0  0  0  0  0  0  0  0  0  0
   57.6680   31.5990   44.8260 C   0  0  0  0  0  0  0  0  0  0  0  0
   57.5621   30.8900   43.9917 H   0  0  0  0  0  0  0  0  0  0  0  0
   58.1560   31.1800   46.0060 C   0  0  0  0  0  0  0  0  0  0  0  0
   58.5650   29.8770   46.3070 C   0  0  0  0  0  0  0  0  0  0  0  0
   58.5930   28.8160   45.4780 C   0  0  0  0  0  0  0  0  0  0  0  0
   59.2927   28.8413   44.6296 H   0  0  0  0  0  0  0  0  0  0  0  0
   57.7420   27.6220   45.6390 C   0  0  0  0  0  0  0  0  0  0  0  0
   56.3640   27.5720   45.5660 C   0  0  0  0  0  0  0  0  0  0  0  0
   55.5260   28.6320   45.2410 O   0  0  0  0  0  0  0  0  0  0  0  0
   55.9300   26.3330   45.8650 N   0  0  0  0  0  0  0  0  0  0  0  0
   54.9330   26.0220   45.8980 H   0  0  0  0  0  0  0  0  0  0  0  0
   56.9800   25.5810   46.1650 N   0  0  0  0  0  0  0  0  0  0  0  0
   56.8990   24.1980   46.5600 C   0  0  0  0  0  0  0  0  0  0  0  0
   57.3730   23.1930   45.7010 C   0  0  0  0  0  0  0  0  0  0  0  0
   57.8108   23.4662   44.7295 H   0  0  0  0  0  0  0  0  0  0  0  0
   57.2920   21.8460   46.0730 C   0  0  0  0  0  0  0  0  0  0  0  0
   57.6695   21.0651   45.3964 H   0  0  0  0  0  0  0  0  0  0  0  0
   56.7320   21.4930   47.3030 C   0  0  0  0  0  0  0  0  0  0  0  0
   56.6706   20.4345   47.5959 H   0  0  0  0  0  0  0  0  0  0  0  0
   56.2500   22.4840   48.1610 C   0  0  0  0  0  0  0  0  0  0  0  0
   55.8066   22.2047   49.1282 H   0  0  0  0  0  0  0  0  0  0  0  0
   56.3300   23.8300   47.7930 C   0  0  0  0  0  0  0  0  0  0  0  0
   55.9459   24.6061   48.4713 H   0  0  0  0  0  0  0  0  0  0  0  0
   58.0920   26.3430   46.0450 C   0  0  0  0  0  0  0  0  0  0  0  0
   59.2620   25.9450   46.2920 O   0  0  0  0  0  0  0  0  0  0  0  0
   58.9960   29.8970   47.6240 C   0  0  0  0  0  0  0  0  0  0  0  0
   59.4001   29.0484   48.1954 H   0  0  0  0  0  0  0  0  0  0  0  0
   58.8200   31.1880   48.0800 C   0  0  0  0  0  0  0  0  0  0  0  0
   59.2180   31.6620   49.4460 C   0  0  0  0  0  0  0  0  0  0  0  0
   58.7079   31.0544   50.2080 H   0  0  0  0  0  0  0  0  0  0  0  0
   60.3069   31.5621   49.5660 H   0  0  0  0  0  0  0  0  0  0  0  0
   58.9312   32.7172   49.5660 H   0  0  0  0  0  0  0  0  0  0  0  0
   58.3130   31.9750   47.1000 N   0  0  0  0  0  0  0  0  0  0  0  0
   57.9580   33.3970   47.2490 C   0  0  0  0  0  0  0  0  0  0  0  0
   56.9837   33.5744   46.7701 H   0  0  0  0  0  0  0  0  0  0  0  0
   57.9146   33.6315   48.3228 H   0  0  0  0  0  0  0  0  0  0  0  0
   59.0080   34.3100   46.5980 C   0  0  0  0  0  0  0  0  0  0  0  0
   59.0422   34.0981   45.5191 H   0  0  0  0  0  0  0  0  0  0  0  0
   58.7162   35.3529   46.7910 H   0  0  0  0  0  0  0  0  0  0  0  0
   60.3810   34.0980   47.1780 C   0  0  0  0  0  0  0  0  0  0  0  0
   60.6260   34.3640   48.5360 C   0  0  0  0  0  0  0  0  0  0  0  0
   59.8024   34.6914   49.1876 H   0  0  0  0  0  0  0  0  0  0  0  0
   61.9130   34.2140   49.0620 C   0  0  0  0  0  0  0  0  0  0  0  0
   62.0997   34.4234   50.1256 H   0  0  0  0  0  0  0  0  0  0  0  0
   62.9630   33.7980   48.2370 C   0  0  0  0  0  0  0  0  0  0  0  0
   63.9749   33.6794   48.6518 H   0  0  0  0  0  0  0  0  0  0  0  0
   62.7260   33.5330   46.8850 C   0  0  0  0  0  0  0  0  0  0  0  0
   63.5521   33.2051   46.2369 H   0  0  0  0  0  0  0  0  0  0  0  0
   61.4410   33.6840   46.3550 C   0  0  0  0  0  0  0  0  0  0  0  0
   61.2597   33.4778   45.2898 H   0  0  0  0  0  0  0  0  0  0  0  0
  1  2  1  0
  2  3  1  0
  2  4  2  0
  4  5  1  0
  5  6  2  0
  6  7  1  0
  6  8  1  0
  8  9  2  0
  9 10  1  0
  9 11  1  0
 11 12  1  0
 11 13  1  0
 13 14  1  0
 14 15  2  0
 15 16  1  0
 15 17  1  0
 17 18  1  0
 17 19  2  0
 19 20  1  0
 19 21  1  0
 21 22  1  0
 21 23  2  0
 23 24  1  0
 13 25  1  0
 25 26  2  0
  5 27  1  0
 27 28  1  0
 27 29  2  0
 29 30  1  0
 30 31  1  0
 30 32  1  0
 30 33  1  0
 29 34  1  0
 34 35  1  0
 35 36  1  0
 35 37  1  0
 35 38  1  0
 38 39  1  0
 38 40  1  0
 38 41  1  0
 41 42  2  0
 42 43  1  0
 42 44  1  0
 44 45  1  0
 44 46  2  0
 46 47  1  0
 46 48  1  0
 48 49  1  0
 48 50  2  0
 50 51  1  0
 34  4  1  0
 50 41  1  0
 25  8  1  0
 23 14  1  0
M  CHG  1  10  -1
M  END
>  <UniqueID>  (34) 
28

>  <SMILES>  (34) 
C=c1/c(=C/c2c([O-])[nH]n(-c3ccccc3)c2=O)cc(C)n1CCc1ccccc1

>  <Energy>  (34) 
125.44401414661206

>  <Genealogy>  (34) 
C=c1c(=Cc2c([O-])[nH]n(-c3ccccc3)c2=O)cc(C)n1CCc1ccccc1 (protonated)
C=c1/c(=C/c2c([O-])[nH]n(-c3ccccc3)c2=O)cc(C)n1CCc1ccccc1 (cis-trans isomerization)
C=c1/c(=C/c2c([O-])[nH]n(-c3ccccc3)c2=O)cc(C)n1CCc1ccccc1 (3D coordinates assigned)
C=c1/c(=C/c2c([O-])[nH]n(-c3ccccc3)c2=O)cc(C)n1CCc1ccccc1 (optimized conformer: 125.44401414661206 kcal/mol)

>  <smiles>  (34) 
C=c1c(=Cc2c(O)[nH]n(-c3ccccc3)c2=O)cc(C)n1CCc1ccccc1

>  <score_type>  (34) 
oracle

>  <origin>  (34) 
adg

>  <m_score__min__energy>  (34) 
-11.99

>  <m_primary>  (34) 
energy

$$$$
35:0
     RDKit          3D

 51 53  0  0  0  0  0  0  0  0999 V2000
   54.8260   26.1730   45.9670 N   0  0  0  0  0  0  0  0  0  0  0  0
   56.4830   25.6830   45.9920 S   0  0  0  0  0  0  0  0  0  0  0  0
   56.7780   24.8500   44.7760 O   0  0  0  0  0  0  0  0  0  0  0  0
   56.7500   24.8580   47.2210 O   0  0  0  0  0  0  0  0  0  0  0  0
   57.5110   27.1110   46.0050 C   0  0  0  0  0  0  0  0  0  0  0  0
   58.8250   27.0340   46.4840 C   0  0  0  0  0  0  0  0  0  0  0  0
   59.6490   28.1640   46.4610 C   0  0  0  0  0  0  0  0  0  0  0  0
   59.1620   29.3760   45.9630 C   0  0  0  0  0  0  0  0  0  0  0  0
   57.8420   29.4690   45.4960 C   0  0  0  0  0  0  0  0  0  0  0  0
   57.3400   30.7490   44.9610 C   0  0  0  0  0  0  0  0  0  0  0  0
   56.1010   30.8970   44.7840 O   0  0  0  0  0  0  0  0  0  0  0  0
   58.2210   31.8200   44.5980 N   0  0  0  0  0  0  0  0  0  0  0  0
   57.8270   33.2200   44.5020 C   0  0  0  0  0  0  0  0  0  0  0  0
   58.8640   34.0700   45.1650 C   0  0  0  0  0  0  0  0  0  0  0  0
   58.8100   35.3230   45.0300 O   0  0  0  0  0  0  0  0  0  0  0  0
   59.8820   33.4680   45.9770 N   0  0  0  0  0  0  0  0  0  0  0  0
   60.8490   34.2620   46.7430 C   0  0  2  0  0  0  0  0  0  0  0  0
   62.2740   33.7610   46.5010 C   0  0  0  0  0  0  0  0  0  0  0  0
   62.6490   33.0370   47.7780 C   0  0  0  0  0  0  0  0  0  0  0  0
   61.8940   33.7080   48.8360 N   0  0  0  0  0  0  0  0  0  0  0  0
   61.8210   32.9810   50.1240 C   0  0  0  0  0  0  0  0  0  0  0  0
   60.4200   32.6080   50.5710 C   0  0  0  0  0  0  0  0  0  0  0  0
   59.8110   31.4330   50.0980 C   0  0  0  0  0  0  0  0  0  0  0  0
   58.5290   31.0770   50.5300 C   0  0  0  0  0  0  0  0  0  0  0  0
   57.8500   31.8810   51.4510 C   0  0  0  0  0  0  0  0  0  0  0  0
   56.2450   31.4280   51.9950 Cl  0  0  0  0  0  0  0  0  0  0  0  0
   58.4570   33.0390   51.9450 C   0  0  0  0  0  0  0  0  0  0  0  0
   59.7370   33.3990   51.5130 C   0  0  0  0  0  0  0  0  0  0  0  0
   60.6090   34.0960   48.2490 C   0  0  0  0  0  0  0  0  0  0  0  0
   57.0260   28.3270   45.5010 C   0  0  0  0  0  0  0  0  0  0  0  0
   54.7700   27.0890   46.4660 H   0  0  0  0  0  0  0  0  0  0  0  0
   59.2099   26.0824   46.8793 H   0  0  0  0  0  0  0  0  0  0  0  0
   60.6813   28.0989   46.8352 H   0  0  0  0  0  0  0  0  0  0  0  0
   59.8160   30.2601   45.9371 H   0  0  0  0  0  0  0  0  0  0  0  0
   57.7392   33.5056   43.4434 H   0  0  0  0  0  0  0  0  0  0  0  0
   56.8568   33.3656   44.9996 H   0  0  0  0  0  0  0  0  0  0  0  0
   59.8540   32.4340   46.1260 H   0  0  0  0  0  0  0  0  0  0  0  0
   60.7251   35.3064   46.4208 H   0  0  0  0  0  0  0  0  0  0  0  0
   62.3031   33.0738   45.6426 H   0  0  0  0  0  0  0  0  0  0  0  0
   62.9694   34.5807   46.2676 H   0  0  0  0  0  0  0  0  0  0  0  0
   62.3668   31.9756   47.7166 H   0  0  0  0  0  0  0  0  0  0  0  0
   63.7327   33.0671   47.9643 H   0  0  0  0  0  0  0  0  0  0  0  0
   62.4061   32.0546   50.0266 H   0  0  0  0  0  0  0  0  0  0  0  0
   62.2147   33.6679   50.8876 H   0  0  0  0  0  0  0  0  0  0  0  0
   60.3456   30.7895   49.3838 H   0  0  0  0  0  0  0  0  0  0  0  0
   58.0540   30.1628   50.1445 H   0  0  0  0  0  0  0  0  0  0  0  0
   57.9267   33.6682   52.6750 H   0  0  0  0  0  0  0  0  0  0  0  0
   60.2132   34.3066   51.9122 H   0  0  0  0  0  0  0  0  0  0  0  0
   59.8572   33.3136   48.4298 H   0  0  0  0  0  0  0  0  0  0  0  0
   60.2331   35.0279   48.6965 H   0  0  0  0  0  0  0  0  0  0  0  0
   56.0005   28.3858   45.1075 H   0  0  0  0  0  0  0  0  0  0  0  0
  1  2  1  0
  2  3  2  0
  2  4  2  0
  2  5  1  0
  5  6  2  0
  6  7  1  0
  7  8  2  0
  8  9  1  0
  9 10  1  0
 10 11  2  0
 10 12  1  0
 12 13  1  0
 13 14  1  0
 14 15  2  0
 14 16  1  0
 16 17  1  0
 17 18  1  0
 18 19  1  0
 19 20  1  0
 20 21  1  0
 21 22  1  0
 22 23  2  0
 23 24  1  0
 24 25  2  0
 25 26  1  0
 25 27  1  0
 27 28  2  0
 20 29  1  0
  9 30  2  0
 30  5  1  0
 29 17  1  0
 28 22  1  0
  1 31  1  0
  6 32  1  0
  7 33  1  0
  8 34  1  0
 13 35  1  0
 13 36  1  0
 16 37  1  0
 17 38  1  6
 18 39  1  0
 18 40  1  0
 19 41  1  0
 19 42  1  0
 21 43  1  0
 21 44  1  0
 23 45  1  0
 24 46  1  0
 27 47  1  0
 28 48  1  0
 29 49  1  0
 29 50  1  0
 30 51  1  0
M  CHG  2   1  -1  12  -1
M  END
>  <UniqueID>  (35) 
29

>  <SMILES>  (35) 
[NH-]S(=O)(=O)c1cccc(C(=O)[N-]CC(=O)N[C@@H]2CCN(Cc3ccc(Cl)cc3)C2)c1

>  <Energy>  (35) 
60.78449159152102

>  <Genealogy>  (35) 
[NH-]S(=O)(=O)c1cccc(C(=O)[N-]CC(=O)NC2CCN(Cc3ccc(Cl)cc3)C2)c1 (protonated)
[NH-]S(=O)(=O)c1cccc(C(=O)[N-]CC(=O)N[C@@H]2CCN(Cc3ccc(Cl)cc3)C2)c1 (chirality)
[NH-]S(=O)(=O)c1cccc(C(=O)[N-]CC(=O)N[C@@H]2CCN(Cc3ccc(Cl)cc3)C2)c1 (3D coordinates assigned)
[NH-]S(=O)(=O)c1cccc(C(=O)[N-]CC(=O)N[C@@H]2CCN(Cc3ccc(Cl)cc3)C2)c1 (nonaromatic ring conformer: 60.78449159152102 kcal/mol)

>  <smiles>  (35) 
NS(=O)(=O)c1cccc(C(=O)NCC(=O)NC2CCN(Cc3ccc(Cl)cc3)C2)c1

>  <score_type>  (35) 
oracle

>  <origin>  (35) 
adg

>  <m_score__min__energy>  (35) 
-13.300000000000001

>  <m_primary>  (35) 
energy

$$$$
36:0
     RDKit          3D

 45 47  0  0  0  0  0  0  0  0999 V2000
   65.2148   33.3296   52.0731 H   0  0  0  0  0  0  0  0  0  0  0  0
   64.1160   33.3130   52.0240 C   0  0  0  0  0  0  0  0  0  0  0  0
   63.3860   33.4520   53.1610 N   0  0  0  0  0  0  0  0  0  0  0  0
   62.0300   33.4380   53.1440 C   0  0  0  0  0  0  0  0  0  0  0  0
   61.4703   33.5532   54.0839 H   0  0  0  0  0  0  0  0  0  0  0  0
   61.3390   33.2780   51.9390 C   0  0  0  0  0  0  0  0  0  0  0  0
   59.5800   33.2180   51.9850 Cl  0  0  0  0  0  0  0  0  0  0  0  0
   62.0670   33.1270   50.7400 C   0  0  0  0  0  0  0  0  0  0  0  0
   61.3650   32.9520   49.4500 C   0  0  0  0  0  0  0  0  0  0  0  0
   61.3890   31.8290   48.8780 O   0  0  0  0  0  0  0  0  0  0  0  0
   60.7070   34.0680   48.8290 N   0  0  0  0  0  0  0  0  0  0  0  0
   60.9760   35.0280   49.1420 H   0  0  0  0  0  0  0  0  0  0  0  0
   59.8330   33.9450   47.6970 C   0  0  0  0  0  0  0  0  0  0  0  0
   58.6750   33.1490   47.7520 C   0  0  0  0  0  0  0  0  0  0  0  0
   58.4137   32.6269   48.6842 H   0  0  0  0  0  0  0  0  0  0  0  0
   57.8550   33.0180   46.6290 C   0  0  0  0  0  0  0  0  0  0  0  0
   56.9559   32.3862   46.6787 H   0  0  0  0  0  0  0  0  0  0  0  0
   58.1720   33.6880   45.4380 C   0  0  0  0  0  0  0  0  0  0  0  0
   57.3940   33.4070   44.1820 C   0  0  0  0  0  0  0  0  0  0  0  0
   57.7771   34.0345   43.3637 H   0  0  0  0  0  0  0  0  0  0  0  0
   56.3306   33.6348   44.3471 H   0  0  0  0  0  0  0  0  0  0  0  0
   57.5490   31.9620   43.8200 C   0  0  0  0  0  0  0  0  0  0  0  0
   58.4670   31.6010   43.0360 O   0  0  0  0  0  0  0  0  0  0  0  0
   56.6990   30.9800   44.4270 N   0  0  0  0  0  0  0  0  0  0  0  0
   57.1020   29.9780   45.1560 C   0  0  0  0  0  0  0  0  0  0  0  0
   58.2630   30.1060   45.8470 N   0  0  0  0  0  0  0  0  0  0  0  0
   58.7840   29.0990   46.5980 C   0  0  0  0  0  0  0  0  0  0  0  0
   60.0730   29.3200   47.3260 C   0  0  0  0  0  0  0  0  0  0  0  0
   59.8916   29.2889   48.4105 H   0  0  0  0  0  0  0  0  0  0  0  0
   60.7891   28.5315   47.0513 H   0  0  0  0  0  0  0  0  0  0  0  0
   60.4856   30.3020   47.0513 H   0  0  0  0  0  0  0  0  0  0  0  0
   58.1250   27.8610   46.6620 C   0  0  0  0  0  0  0  0  0  0  0  0
   58.6790   26.8280   47.4110 O   0  0  0  0  0  0  0  0  0  0  0  0
   56.9130   27.6820   45.9610 C   0  0  0  0  0  0  0  0  0  0  0  0
   56.1860   26.3870   45.9790 C   0  0  0  0  0  0  0  0  0  0  0  0
   56.8230   25.2980   45.9660 O   0  0  0  0  0  0  0  0  0  0  0  0
   54.7970   26.3440   46.0120 O   0  0  0  0  0  0  0  0  0  0  0  0
   56.3980   28.7590   45.2180 C   0  0  0  0  0  0  0  0  0  0  0  0
   55.4428   28.6496   44.6836 H   0  0  0  0  0  0  0  0  0  0  0  0
   59.3070   34.5130   45.3940 C   0  0  0  0  0  0  0  0  0  0  0  0
   59.5554   35.0539   44.4690 H   0  0  0  0  0  0  0  0  0  0  0  0
   60.1230   34.6500   46.5210 C   0  0  0  0  0  0  0  0  0  0  0  0
   60.9982   35.3154   46.4844 H   0  0  0  0  0  0  0  0  0  0  0  0
   63.4770   33.1490   50.7920 C   0  0  0  0  0  0  0  0  0  0  0  0
   64.4740   33.0420   49.3420 Cl  0  0  0  0  0  0  0  0  0  0  0  0
  1  2  1  0
  2  3  2  0
  3  4  1  0
  4  5  1  0
  4  6  2  0
  6  7  1  0
  6  8  1  0
  8  9  1  0
  9 10  2  0
  9 11  1  0
 11 12  1  0
 11 13  1  0
 13 14  2  0
 14 15  1  0
 14 16  1  0
 16 17  1  0
 16 18  2  0
 18 19  1  0
 19 20  1  0
 19 21  1  0
 19 22  1  0
 22 23  2  0
 22 24  1  0
 24 25  2  0
 25 26  1  0
 26 27  1  0
 27 28  1  0
 28 29  1  0
 28 30  1  0
 28 31  1  0
 27 32  2  0
 32 33  1  0
 32 34  1  0
 34 35  1  0
 35 36  2  0
 35 37  1  0
 34 38  2  0
 38 39  1  0
 18 40  1  0
 40 41  1  0
 40 42  2  0
 42 43  1  0
  8 44  2  0
 44 45  1  0
 44  2  1  0
 42 13  1  0
 38 25  1  0
M  CHG  3  26  -1  33  -1  37  -1
M  END
>  <UniqueID>  (36) 
30

>  <SMILES>  (36) 
Cc1[n-]/c(=N/C(=O)Cc2ccc(NC(=O)c3c(Cl)cncc3Cl)cc2)cc(C(=O)[O-])c1[O-]

>  <Energy>  (36) 
67.06396425179769

>  <Genealogy>  (36) 
Cc1[n-]c(=NC(=O)Cc2ccc(NC(=O)c3c(Cl)cncc3Cl)cc2)cc(C(=O)[O-])c1[O-] (protonated)
Cc1[n-]/c(=N/C(=O)Cc2ccc(NC(=O)c3c(Cl)cncc3Cl)cc2)cc(C(=O)[O-])c1[O-] (cis-trans isomerization)
Cc1[n-]/c(=N/C(=O)Cc2ccc(NC(=O)c3c(Cl)cncc3Cl)cc2)cc(C(=O)[O-])c1[O-] (3D coordinates assigned)
Cc1[n-]/c(=N/C(=O)Cc2ccc(NC(=O)c3c(Cl)cncc3Cl)cc2)cc(C(=O)[O-])c1[O-] (optimized conformer: 67.06396425179769 kcal/mol)

>  <smiles>  (36) 
Cc1[nH]c(=NC(=O)Cc2ccc(NC(=O)c3c(Cl)cncc3Cl)cc2)cc(C(=O)O)c1O

>  <score_type>  (36) 
oracle

>  <origin>  (36) 
adg

>  <m_score__min__energy>  (36) 
-17.449999999999999

>  <m_primary>  (36) 
energy

$$$$
37:0
     RDKit          3D

 51 53  0  0  0  0  0  0  0  0999 V2000
   57.7080   28.3780   43.4650 C   0  0  0  0  0  0  0  0  0  0  0  0
   56.6620   29.3930   43.0200 C   0  0  0  0  0  0  0  0  0  0  0  0
   55.9940   30.0120   44.2070 C   0  0  0  0  0  0  0  0  0  0  0  0
   55.1590   29.3430   44.8730 O   0  0  0  0  0  0  0  0  0  0  0  0
   56.3070   31.3640   44.5680 N   0  0  0  0  0  0  0  0  0  0  0  0
   57.4820   31.7910   45.2720 C   0  0  0  0  0  0  0  0  0  0  0  0
   57.6870   33.1570   45.4770 C   0  0  0  0  0  0  0  0  0  0  0  0
   58.8300   33.6080   46.1380 C   0  0  0  0  0  0  0  0  0  0  0  0
   59.7960   32.6990   46.5880 C   0  0  0  0  0  0  0  0  0  0  0  0
   60.9760   33.1990   47.2290 N   0  0  0  0  0  0  0  0  0  0  0  0
   62.2080   33.4640   46.5120 C   0  0  0  0  0  0  0  0  0  0  0  0
   63.1980   33.9290   47.5700 C   0  0  0  0  0  0  0  0  0  0  0  0
   62.6240   33.4660   48.9100 C   0  0  0  0  0  0  0  0  0  0  0  0
   61.1400   33.2130   48.6700 C   0  0  0  0  0  0  0  0  0  0  0  0
   59.6060   31.3170   46.3770 C   0  0  0  0  0  0  0  0  0  0  0  0
   60.7750   30.1050   46.9260 S   0  0  0  0  0  0  0  0  0  0  0  0
   60.9480   29.0850   45.8390 O   0  0  0  0  0  0  0  0  0  0  0  0
   62.1090   30.7310   47.2200 O   0  0  0  0  0  0  0  0  0  0  0  0
   60.1980   29.3050   48.3610 N   0  0  0  0  0  0  0  0  0  0  0  0
   58.7960   28.9000   48.2250 C   0  0  0  0  0  0  0  0  0  0  0  0
   58.6600   27.6880   47.3380 C   0  0  0  0  0  0  0  0  0  0  0  0
   57.4130   27.4050   46.7510 C   0  0  0  0  0  0  0  0  0  0  0  0
   57.2460   26.2760   45.9470 C   0  0  0  0  0  0  0  0  0  0  0  0
   58.3220   25.4190   45.7130 C   0  0  0  0  0  0  0  0  0  0  0  0
   59.5670   25.6900   46.2810 C   0  0  0  0  0  0  0  0  0  0  0  0
   59.7500   26.8190   47.0900 C   0  0  0  0  0  0  0  0  0  0  0  0
   61.0180   27.0460   47.6280 O   0  0  0  0  0  0  0  0  0  0  0  0
   58.4580   30.8770   45.7010 C   0  0  0  0  0  0  0  0  0  0  0  0
   57.7423   28.3447   44.5640 H   0  0  0  0  0  0  0  0  0  0  0  0
   57.4429   27.3838   43.0761 H   0  0  0  0  0  0  0  0  0  0  0  0
   58.6938   28.6729   43.0761 H   0  0  0  0  0  0  0  0  0  0  0  0
   57.1509   30.1808   42.4281 H   0  0  0  0  0  0  0  0  0  0  0  0
   55.9028   28.8784   42.4128 H   0  0  0  0  0  0  0  0  0  0  0  0
   56.9429   33.8818   45.1152 H   0  0  0  0  0  0  0  0  0  0  0  0
   58.9736   34.6854   46.3070 H   0  0  0  0  0  0  0  0  0  0  0  0
   62.5714   32.5498   46.0199 H   0  0  0  0  0  0  0  0  0  0  0  0
   62.0685   34.2172   45.7225 H   0  0  0  0  0  0  0  0  0  0  0  0
   64.1845   33.4737   47.3980 H   0  0  0  0  0  0  0  0  0  0  0  0
   63.3358   35.0200   47.5439 H   0  0  0  0  0  0  0  0  0  0  0  0
   63.1206   32.5412   49.2388 H   0  0  0  0  0  0  0  0  0  0  0  0
   62.7811   34.2193   49.6960 H   0  0  0  0  0  0  0  0  0  0  0  0
   60.8407   32.2459   49.1001 H   0  0  0  0  0  0  0  0  0  0  0  0
   60.5135   33.9829   49.1440 H   0  0  0  0  0  0  0  0  0  0  0  0
   58.3933   28.6625   49.2207 H   0  0  0  0  0  0  0  0  0  0  0  0
   58.2374   29.7299   47.7675 H   0  0  0  0  0  0  0  0  0  0  0  0
   56.5620   28.0794   46.9272 H   0  0  0  0  0  0  0  0  0  0  0  0
   56.2651   26.0618   45.4975 H   0  0  0  0  0  0  0  0  0  0  0  0
   58.1885   24.5292   45.0803 H   0  0  0  0  0  0  0  0  0  0  0  0
   60.4120   25.0116   46.0921 H   0  0  0  0  0  0  0  0  0  0  0  0
   61.4560   27.9580   47.6520 H   0  0  0  0  0  0  0  0  0  0  0  0
   58.3208   29.8034   45.5047 H   0  0  0  0  0  0  0  0  0  0  0  0
  1  2  1  0
  2  3  1  0
  3  4  2  0
  3  5  1  0
  5  6  1  0
  6  7  2  0
  7  8  1  0
  8  9  2  0
  9 10  1  0
 10 11  1  0
 11 12  1  0
 12 13  1  0
 13 14  1  0
  9 15  1  0
 15 16  1  0
 16 17  2  0
 16 18  2  0
 16 19  1  0
 19 20  1  0
 20 21  1  0
 21 22  2  0
 22 23  1  0
 23 24  2  0
 24 25  1  0
 25 26  2  0
 26 27  1  0
 15 28  2  0
 28  6  1  0
 14 10  1  0
 26 21  1  0
  1 29  1  0
  1 30  1  0
  1 31  1  0
  2 32  1  0
  2 33  1  0
  7 34  1  0
  8 35  1  0
 11 36  1  0
 11 37  1  0
 12 38  1  0
 12 39  1  0
 13 40  1  0
 13 41  1  0
 14 42  1  0
 14 43  1  0
 20 44  1  0
 20 45  1  0
 22 46  1  0
 23 47  1  0
 24 48  1  0
 25 49  1  0
 27 50  1  0
 28 51  1  0
M  CHG  2   5  -1  19  -1
M  END
>  <UniqueID>  (37) 
31

>  <SMILES>  (37) 
CCC(=O)[N-]c1ccc(N2CCCC2)c(S(=O)(=O)[N-]Cc2ccccc2O)c1

>  <Energy>  (37) 
56.587083340139095

>  <Genealogy>  (37) 
CCC(=O)[N-]c1ccc(N2CCCC2)c(S(=O)(=O)[N-]Cc2ccccc2O)c1 (protonated)
CCC(=O)[N-]c1ccc(N2CCCC2)c(S(=O)(=O)[N-]Cc2ccccc2O)c1 (3D coordinates assigned)
CCC(=O)[N-]c1ccc(N2CCCC2)c(S(=O)(=O)[N-]Cc2ccccc2O)c1 (nonaromatic ring conformer: 56.587083340139095 kcal/mol)

>  <smiles>  (37) 
CCC(=O)Nc1ccc(N2CCCC2)c(S(=O)(=O)NCc2ccccc2O)c1

>  <score_type>  (37) 
oracle

>  <origin>  (37) 
adg

>  <m_score__min__energy>  (37) 
-11.17

>  <m_primary>  (37) 
energy

$$$$
38:0
     RDKit          3D

 41 43  0  0  0  0  0  0  0  0999 V2000
   60.5780   28.3400   49.4420 C   0  0  0  0  0  0  0  0  0  0  0  0
   59.7560   28.7760   48.2660 C   0  0  0  0  0  0  0  0  0  0  0  0
   59.4350   30.1260   48.0930 C   0  0  0  0  0  0  0  0  0  0  0  0
   58.6410   30.5440   47.0160 C   0  0  0  0  0  0  0  0  0  0  0  0
   58.3230   32.0090   46.8830 C   0  0  0  0  0  0  0  0  0  0  0  0
   58.1140   29.5820   46.1210 C   0  0  0  0  0  0  0  0  0  0  0  0
   57.2590   29.9860   45.0370 N   0  0  0  0  0  0  0  0  0  0  0  0
   57.6310   31.1400   44.2100 C   0  0  0  0  0  0  0  0  0  0  0  0
   57.2690   30.9130   42.7240 C   0  0  0  0  0  0  0  0  0  0  0  0
   56.2990   29.8230   42.5160 N   0  0  0  0  0  0  0  0  0  0  0  0
   55.2840   29.7950   43.5720 C   0  0  0  0  0  0  0  0  0  0  0  0
   55.9390   29.3620   44.8850 C   0  0  0  0  0  0  0  0  0  0  0  0
   58.4370   28.2140   46.2940 C   0  0  0  0  0  0  0  0  0  0  0  0
   57.9060   27.1470   45.3630 C   0  0  0  0  0  0  0  0  0  0  0  0
   57.2640   26.0230   46.1180 C   0  0  0  0  0  0  0  0  0  0  0  0
   57.9470   25.0140   46.6850 N   0  0  0  0  0  0  0  0  0  0  0  0
   56.9830   24.2720   47.2700 C   0  0  0  0  0  0  0  0  0  0  0  0
   57.2320   23.2150   47.9060 O   0  0  0  0  0  0  0  0  0  0  0  0
   55.7300   24.7510   47.1210 N   0  0  0  0  0  0  0  0  0  0  0  0
   55.9250   25.8640   46.3940 C   0  0  0  0  0  0  0  0  0  0  0  0
   54.9020   26.7160   45.9980 O   0  0  0  0  0  0  0  0  0  0  0  0
   59.2480   27.8270   47.3730 C   0  0  0  0  0  0  0  0  0  0  0  0
   60.0605   28.6145   50.3730 H   0  0  0  0  0  0  0  0  0  0  0  0
   60.7174   27.2494   49.4078 H   0  0  0  0  0  0  0  0  0  0  0  0
   61.5591   28.8363   49.4078 H   0  0  0  0  0  0  0  0  0  0  0  0
   59.8104   30.8696   48.8114 H   0  0  0  0  0  0  0  0  0  0  0  0
   58.2261   32.4555   47.8836 H   0  0  0  0  0  0  0  0  0  0  0  0
   59.1330   32.5117   46.3341 H   0  0  0  0  0  0  0  0  0  0  0  0
   57.3775   32.1306   46.3341 H   0  0  0  0  0  0  0  0  0  0  0  0
   57.0968   32.0291   44.5762 H   0  0  0  0  0  0  0  0  0  0  0  0
   58.7197   31.2796   44.2824 H   0  0  0  0  0  0  0  0  0  0  0  0
   56.8388   31.8431   42.3242 H   0  0  0  0  0  0  0  0  0  0  0  0
   58.1954   30.6256   42.2051 H   0  0  0  0  0  0  0  0  0  0  0  0
   55.8140   29.9870   41.6030 H   0  0  0  0  0  0  0  0  0  0  0  0
   54.8485   30.7981   43.6909 H   0  0  0  0  0  0  0  0  0  0  0  0
   54.4888   29.0843   43.3027 H   0  0  0  0  0  0  0  0  0  0  0  0
   55.2975   29.6649   45.7256 H   0  0  0  0  0  0  0  0  0  0  0  0
   56.0636   28.2691   44.8744 H   0  0  0  0  0  0  0  0  0  0  0  0
   57.1599   27.5981   44.6923 H   0  0  0  0  0  0  0  0  0  0  0  0
   58.7524   26.7376   44.7920 H   0  0  0  0  0  0  0  0  0  0  0  0
   59.4870   26.7631   47.5179 H   0  0  0  0  0  0  0  0  0  0  0  0
  1  2  1  0
  2  3  2  0
  3  4  1  0
  4  5  1  0
  4  6  2  0
  6  7  1  0
  7  8  1  0
  8  9  1  0
  9 10  1  0
 10 11  1  0
 11 12  1  0
  6 13  1  0
 13 14  1  0
 14 15  1  0
 15 16  1  0
 16 17  1  0
 17 18  2  0
 17 19  1  0
 19 20  1  0
 20 21  1  0
 13 22  2  0
 22  2  1  0
 12  7  1  0
 20 15  2  0
  1 23  1  0
  1 24  1  0
  1 25  1  0
  3 26  1  0
  5 27  1  0
  5 28  1  0
  5 29  1  0
  8 30  1  0
  8 31  1  0
  9 32  1  0
  9 33  1  0
 10 34  1  0
 11 35  1  0
 11 36  1  0
 12 37  1  0
 12 38  1  0
 14 39  1  0
 14 40  1  0
 22 41  1  0
M  CHG  3  16  -1  19  -1  21  -1
M  END
>  <UniqueID>  (38) 
32

>  <SMILES>  (38) 
Cc1cc(C)c(N2CCNCC2)c(Cc2[n-]c(=O)[n-]c2[O-])c1

>  <Energy>  (38) 
77.35415274417217

>  <Genealogy>  (38) 
Cc1cc(C)c(N2CCNCC2)c(Cc2[n-]c(=O)[n-]c2[O-])c1 (protonated)
Cc1cc(C)c(N2CCNCC2)c(Cc2[n-]c(=O)[n-]c2[O-])c1 (3D coordinates assigned)
Cc1cc(C)c(N2CCNCC2)c(Cc2[n-]c(=O)[n-]c2[O-])c1 (nonaromatic ring conformer: 77.35415274417217 kcal/mol)

>  <smiles>  (38) 
Cc1cc(C)c(N2CCNCC2)c(Cc2[nH]c(=O)[nH]c2O)c1

>  <score_type>  (38) 
oracle

>  <origin>  (38) 
adg

>  <m_score__min__energy>  (38) 
-15.56

>  <m_primary>  (38) 
energy

$$$$
39:0
     RDKit          3D

 55 58  0  0  0  0  0  0  0  0999 V2000
   59.6400   29.9200   46.8730 C   0  0  0  0  0  0  0  0  0  0  0  0
   58.8830   30.7380   46.1250 C   0  0  0  0  0  0  0  0  0  0  0  0
   58.1860   30.4220   44.9450 C   0  0  0  0  0  0  0  0  0  0  0  0
   57.9650   29.2420   44.3340 C   0  0  0  0  0  0  0  0  0  0  0  0
   57.4030   28.0360   44.9730 C   0  0  0  0  0  0  0  0  0  0  0  0
   56.0320   27.9580   45.2520 C   0  0  0  0  0  0  0  0  0  0  0  0
   55.1740   28.9910   44.8880 O   0  0  0  0  0  0  0  0  0  0  0  0
   55.5290   26.8620   45.8770 N   0  0  0  0  0  0  0  0  0  0  0  0
   56.3350   25.8380   46.2540 C   0  0  0  0  0  0  0  0  0  0  0  0
   55.8460   24.8300   46.8270 O   0  0  0  0  0  0  0  0  0  0  0  0
   57.6720   25.9020   46.0190 N   0  0  0  0  0  0  0  0  0  0  0  0
   58.2230   26.9760   45.3980 C   0  0  0  0  0  0  0  0  0  0  0  0
   59.4700   27.0120   45.2150 O   0  0  0  0  0  0  0  0  0  0  0  0
   57.6920   31.6230   44.4550 C   0  0  0  0  0  0  0  0  0  0  0  0
   58.0470   32.6010   45.3590 C   0  0  0  0  0  0  0  0  0  0  0  0
   57.7160   34.0560   45.2240 C   0  0  0  0  0  0  0  0  0  0  0  0
   58.7730   32.0680   46.3640 N   0  0  0  0  0  0  0  0  0  0  0  0
   59.3280   32.7970   47.4710 C   0  0  0  0  0  0  0  0  0  0  0  0
   58.7680   32.6390   48.7460 C   0  0  0  0  0  0  0  0  0  0  0  0
   59.2800   33.3450   49.8450 C   0  0  0  0  0  0  0  0  0  0  0  0
   58.7070   33.1710   51.1550 N   0  0  0  0  0  0  0  0  0  0  0  0
   57.5770   32.2590   51.3610 C   0  0  0  0  0  0  0  0  0  0  0  0
   57.9290   31.2490   52.4560 C   0  0  0  0  0  0  0  0  0  0  0  0
   58.5130   31.9120   53.6370 N   0  0  0  0  0  0  0  0  0  0  0  0
   58.7770   31.1470   54.8340 C   0  0  0  0  0  0  0  0  0  0  0  0
   58.7380   29.6480   54.8270 C   0  0  0  0  0  0  0  0  0  0  0  0
   59.0350   31.7380   55.9180 O   0  0  0  0  0  0  0  0  0  0  0  0
   58.7030   33.3720   53.6360 C   0  0  0  0  0  0  0  0  0  0  0  0
   59.3260   33.8340   52.3110 C   0  0  0  0  0  0  0  0  0  0  0  0
   60.3710   34.2080   49.6560 C   0  0  0  0  0  0  0  0  0  0  0  0
   60.9360   34.3650   48.3880 C   0  0  0  0  0  0  0  0  0  0  0  0
   60.4260   33.6620   47.2930 C   0  0  0  0  0  0  0  0  0  0  0  0
   61.0300   33.8260   46.0460 O   0  0  0  0  0  0  0  0  0  0  0  0
   60.1323   30.3020   47.7795 H   0  0  0  0  0  0  0  0  0  0  0  0
   59.7680   28.8676   46.5795 H   0  0  0  0  0  0  0  0  0  0  0  0
   58.2256   29.1711   43.2677 H   0  0  0  0  0  0  0  0  0  0  0  0
   57.1254   31.7668   43.5232 H   0  0  0  0  0  0  0  0  0  0  0  0
   57.6143   34.5032   46.2238 H   0  0  0  0  0  0  0  0  0  0  0  0
   58.5211   34.5658   44.6745 H   0  0  0  0  0  0  0  0  0  0  0  0
   56.7696   34.1673   44.6745 H   0  0  0  0  0  0  0  0  0  0  0  0
   57.9184   31.9545   48.8865 H   0  0  0  0  0  0  0  0  0  0  0  0
   56.6912   32.8358   51.6653 H   0  0  0  0  0  0  0  0  0  0  0  0
   57.3624   31.7240   50.4242 H   0  0  0  0  0  0  0  0  0  0  0  0
   57.0146   30.7184   52.7599 H   0  0  0  0  0  0  0  0  0  0  0  0
   58.6734   30.5475   52.0514 H   0  0  0  0  0  0  0  0  0  0  0  0
   58.7283   29.2766   55.8624 H   0  0  0  0  0  0  0  0  0  0  0  0
   57.8307   29.3072   54.3067 H   0  0  0  0  0  0  0  0  0  0  0  0
   59.6264   29.2605   54.3067 H   0  0  0  0  0  0  0  0  0  0  0  0
   57.7279   33.8637   53.7681 H   0  0  0  0  0  0  0  0  0  0  0  0
   59.3798   33.6425   54.4599 H   0  0  0  0  0  0  0  0  0  0  0  0
   59.1889   34.9210   52.2133 H   0  0  0  0  0  0  0  0  0  0  0  0
   60.3936   33.5692   52.3251 H   0  0  0  0  0  0  0  0  0  0  0  0
   60.7833   34.7637   50.5111 H   0  0  0  0  0  0  0  0  0  0  0  0
   61.7883   35.0467   48.2505 H   0  0  0  0  0  0  0  0  0  0  0  0
   60.5790   33.5470   45.1830 H   0  0  0  0  0  0  0  0  0  0  0  0
  1  2  2  0
  2  3  1  0
  3  4  2  3
  4  5  1  0
  5  6  2  0
  6  7  1  0
  6  8  1  0
  8  9  1  0
  9 10  2  0
  9 11  1  0
 11 12  1  0
 12 13  2  0
  3 14  1  0
 14 15  2  0
 15 16  1  0
 15 17  1  0
 17 18  1  0
 18 19  2  0
 19 20  1  0
 20 21  1  0
 21 22  1  0
 22 23  1  0
 23 24  1  0
 24 25  1  0
 25 26  1  0
 25 27  2  0
 24 28  1  0
 28 29  1  0
 20 30  2  0
 30 31  1  0
 31 32  2  0
 32 33  1  0
 17  2  1  0
 32 18  1  0
 12  5  1  0
 29 21  1  0
  1 34  1  0
  1 35  1  0
  4 36  1  0
 14 37  1  0
 16 38  1  0
 16 39  1  0
 16 40  1  0
 19 41  1  0
 22 42  1  0
 22 43  1  0
 23 44  1  0
 23 45  1  0
 26 46  1  0
 26 47  1  0
 26 48  1  0
 28 49  1  0
 28 50  1  0
 29 51  1  0
 29 52  1  0
 30 53  1  0
 31 54  1  0
 33 55  1  0
M  CHG  3   7  -1   8  -1  11  -1
M  END
>  <UniqueID>  (39) 
33

>  <SMILES>  (39) 
C=c1c(=Cc2c([O-])[n-]c(=O)[n-]c2=O)cc(C)n1-c1cc(N2CCN(C(C)=O)CC2)ccc1O

>  <Energy>  (39) 
110.99056816205434

>  <Genealogy>  (39) 
C=c1c(=Cc2c([O-])[n-]c(=O)[n-]c2=O)cc(C)n1-c1cc(N2CCN(C(C)=O)CC2)ccc1O (protonated)
C=c1c(=Cc2c([O-])[n-]c(=O)[n-]c2=O)cc(C)n1-c1cc(N2CCN(C(C)=O)CC2)ccc1O (3D coordinates assigned)
C=c1c(=Cc2c([O-])[n-]c(=O)[n-]c2=O)cc(C)n1-c1cc(N2CCN(C(C)=O)CC2)ccc1O (nonaromatic ring conformer: 110.99056816205434 kcal/mol)

>  <smiles>  (39) 
C=c1c(=Cc2c(O)[nH]c(=O)[nH]c2=O)cc(C)n1-c1cc(N2CCN(C(C)=O)CC2)ccc1O

>  <score_type>  (39) 
oracle

>  <origin>  (39) 
adg

>  <m_score__min__energy>  (39) 
-17.059999999999999

>  <m_primary>  (39) 
energy

$$$$
40:0
     RDKit          3D

 52 55  0  0  1  0  0  0  0  0999 V2000
   55.1230   24.3800   45.1360 C   0  0  0  0  0  0  0  0  0  0  0  0
   56.5930   24.2910   45.3270 C   0  0  0  0  0  0  0  0  0  0  0  0
   57.1810   23.0620   45.1240 C   0  0  0  0  0  0  0  0  0  0  0  0
   58.5380   22.8600   45.2610 C   0  0  0  0  0  0  0  0  0  0  0  0
   59.2860   23.9770   45.6170 C   0  0  0  0  0  0  0  0  0  0  0  0
   58.6820   25.2220   45.8220 C   0  0  0  0  0  0  0  0  0  0  0  0
   57.3360   25.4240   45.6880 C   0  0  0  0  0  0  0  0  0  0  0  0
   56.6160   26.6000   45.8820 N   0  0  0  0  0  0  0  0  0  0  0  0
   57.0460   27.7860   45.7540 C   0  0  0  0  0  0  0  0  0  0  0  0
   58.0810   28.2360   46.4550 N   0  0  0  0  0  0  0  0  0  0  0  0
   58.5510   29.4830   46.3470 C   0  0  0  0  0  0  0  0  0  0  0  0
   59.7160   29.9820   47.1120 C   0  0  0  0  0  0  0  0  0  0  0  0
   59.3260   30.5730   48.4100 C   0  0  0  0  0  0  0  0  0  0  0  0
   59.4030   29.8750   49.5990 C   0  0  0  0  0  0  0  0  0  0  0  0
   59.0630   30.4140   50.8170 C   0  0  0  0  0  0  0  0  0  0  0  0
   58.6240   31.7230   50.8320 C   0  0  0  0  0  0  0  0  0  0  0  0
   58.5240   32.4740   49.6840 C   0  0  0  0  0  0  0  0  0  0  0  0
   58.8780   31.8890   48.4810 C   0  0  0  0  0  0  0  0  0  0  0  0
   58.7580   32.7030   47.3160 N   0  0  0  0  0  0  0  0  0  0  0  0
   59.6200   33.6050   46.8490 C   0  0  0  0  0  0  0  0  0  0  0  0
   59.1030   34.1500   45.7060 C   0  0  0  0  0  0  0  0  0  0  0  0
   57.9200   33.5540   45.5120 N   0  0  0  0  0  0  0  0  0  0  0  0
   57.7210   32.6790   46.4930 N   0  0  0  0  0  0  0  0  0  0  0  0
   57.9590   30.3330   45.4920 N   0  0  0  0  0  0  0  0  0  0  0  0
   56.9160   29.8810   44.7830 C   0  0  0  0  0  0  0  0  0  0  0  0
   56.3460   30.6630   43.9390 N   0  0  0  0  0  0  0  0  0  0  0  0
   56.7090   30.8540   42.5890 C   0  0  0  0  0  0  0  0  0  0  0  0
   57.6910   31.9650   42.3130 C   0  0  0  0  0  0  0  0  0  0  0  0
   58.4800   32.1650   43.4830 O   0  0  0  0  0  0  0  0  0  0  0  0
   56.4310   28.6300   44.8800 N   0  0  0  0  0  0  0  0  0  0  0  0
   54.6269   24.4100   46.1173 H   0  0  0  0  0  0  0  0  0  0  0  0
   54.8809   25.2944   44.5746 H   0  0  0  0  0  0  0  0  0  0  0  0
   54.7723   23.5014   44.5746 H   0  0  0  0  0  0  0  0  0  0  0  0
   56.5445   22.2103   44.8422 H   0  0  0  0  0  0  0  0  0  0  0  0
   59.0007   21.8754   45.0986 H   0  0  0  0  0  0  0  0  0  0  0  0
   60.3748   23.8796   45.7399 H   0  0  0  0  0  0  0  0  0  0  0  0
   59.3169   26.0752   46.1030 H   0  0  0  0  0  0  0  0  0  0  0  0
   60.4025   29.1428   47.2978 H   0  0  0  0  0  0  0  0  0  0  0  0
   60.1967   30.7709   46.5149 H   0  0  0  0  0  0  0  0  0  0  0  0
   59.7548   28.8332   49.5700 H   0  0  0  0  0  0  0  0  0  0  0  0
   59.1377   29.8255   51.7434 H   0  0  0  0  0  0  0  0  0  0  0  0
   58.3453   32.1800   51.7930 H   0  0  0  0  0  0  0  0  0  0  0  0
   58.1709   33.5151   49.7213 H   0  0  0  0  0  0  0  0  0  0  0  0
   60.5856   33.8674   47.3060 H   0  0  0  0  0  0  0  0  0  0  0  0
   59.5658   34.9221   45.0738 H   0  0  0  0  0  0  0  0  0  0  0  0
   58.2570   31.3120   45.3510 H   0  0  0  0  0  0  0  0  0  0  0  0
   57.1532   29.9157   42.2252 H   0  0  0  0  0  0  0  0  0  0  0  0
   55.7820   31.1465   42.0741 H   0  0  0  0  0  0  0  0  0  0  0  0
   58.3401   31.6869   41.4696 H   0  0  0  0  0  0  0  0  0  0  0  0
   57.1545   32.8899   42.0547 H   0  0  0  0  0  0  0  0  0  0  0  0
   57.8320   32.2230   44.2290 H   0  0  0  0  0  0  0  0  0  0  0  0
   55.6290   28.3180   44.3210 H   0  0  0  0  0  0  0  0  0  0  0  0
  1  2  1  0
  2  3  2  0
  3  4  1  0
  4  5  2  0
  5  6  1  0
  6  7  2  0
  7  8  1  0
  8  9  2  0
  9 10  1  0
 10 11  2  0
 11 12  1  0
 12 13  1  0
 13 14  2  0
 14 15  1  0
 15 16  2  0
 16 17  1  0
 17 18  2  0
 18 19  1  0
 19 20  1  0
 20 21  2  0
 21 22  1  0
 22 23  2  0
 11 24  1  0
 24 25  1  0
 25 26  2  0
 26 27  1  0
 27 28  1  0
 28 29  1  0
 25 30  1  0
  7  2  1  0
 30  9  1  0
 18 13  1  0
 23 19  1  0
  1 31  1  0
  1 32  1  0
  1 33  1  0
  3 34  1  0
  4 35  1  0
  5 36  1  0
  6 37  1  0
 12 38  1  0
 12 39  1  0
 14 40  1  0
 15 41  1  0
 16 42  1  0
 17 43  1  0
 20 44  1  0
 21 45  1  0
 24 46  1  0
 27 47  1  0
 27 48  1  0
 28 49  1  0
 28 50  1  0
 29 51  1  0
 30 52  1  0
M  END
>  <smiles>  (40) 
Cc1ccccc1N=c1nc(Cc2ccccc2-n2ccnn2)[nH]c(=NCCO)[nH]1

>  <score_type>  (40) 
oracle

>  <origin>  (40) 
adg

>  <m_score__min__energy>  (40) 
-9.5500000000000007

>  <m_primary>  (40) 
energy

$$$$
41:0
     RDKit          3D

 45 48  0  0  0  0  0  0  0  0999 V2000
   59.8486   30.0629   45.2802 H   0  0  0  0  0  0  0  0  0  0  0  0
   59.2920   29.6490   46.1340 C   0  0  0  0  0  0  0  0  0  0  0  0
   59.8320   29.8640   47.4940 C   0  0  0  0  0  0  0  0  0  0  0  0
   60.7080   29.0320   48.1730 C   0  0  0  0  0  0  0  0  0  0  0  0
   61.0521   28.0376   47.8523 H   0  0  0  0  0  0  0  0  0  0  0  0
   61.0640   29.6940   49.3290 C   0  0  0  0  0  0  0  0  0  0  0  0
   61.7422   29.2970   50.0987 H   0  0  0  0  0  0  0  0  0  0  0  0
   60.4620   30.8950   49.3790 N   0  0  0  0  0  0  0  0  0  0  0  0
   60.5720   31.6030   50.1380 H   0  0  0  0  0  0  0  0  0  0  0  0
   59.7010   31.0080   48.2730 C   0  0  0  0  0  0  0  0  0  0  0  0
   58.8650   32.1950   48.0010 C   0  0  0  0  0  0  0  0  0  0  0  0
   58.4610   32.8780   48.9840 O   0  0  0  0  0  0  0  0  0  0  0  0
   58.3820   32.4910   46.6660 N   0  0  0  0  0  0  0  0  0  0  0  0
   57.9370   31.6340   46.2670 H   0  0  0  0  0  0  0  0  0  0  0  0
   59.4930   32.8980   45.7660 C   0  0  0  0  0  0  0  0  0  0  0  0
   60.2474   33.4372   46.3577 H   0  0  0  0  0  0  0  0  0  0  0  0
   59.9107   31.9857   45.3152 H   0  0  0  0  0  0  0  0  0  0  0  0
   59.0150   33.8150   44.6170 C   0  0  0  0  0  0  0  0  0  0  0  0
   59.0701   34.8633   44.9458 H   0  0  0  0  0  0  0  0  0  0  0  0
   59.6638   33.6524   43.7437 H   0  0  0  0  0  0  0  0  0  0  0  0
   57.6340   33.5020   44.2400 N   0  0  0  0  0  0  0  0  0  0  0  0
   57.5840   32.4830   43.9900 H   0  0  0  0  0  0  0  0  0  0  0  0
   56.7000   33.7640   45.3490 C   0  0  0  0  0  0  0  0  0  0  0  0
   56.3698   34.8116   45.2893 H   0  0  0  0  0  0  0  0  0  0  0  0
   55.8593   33.0623   45.2444 H   0  0  0  0  0  0  0  0  0  0  0  0
   57.3320   33.5250   46.7390 C   0  0  0  0  0  0  0  0  0  0  0  0
   57.7756   34.4647   47.0999 H   0  0  0  0  0  0  0  0  0  0  0  0
   56.5470   33.1824   47.4292 H   0  0  0  0  0  0  0  0  0  0  0  0
   58.1580   28.9750   45.8880 C   0  0  0  0  0  0  0  0  0  0  0  0
   57.9490   27.6820   46.1920 N   0  0  0  0  0  0  0  0  0  0  0  0
   56.6760   27.4510   45.7930 C   0  0  0  0  0  0  0  0  0  0  0  0
   56.0800   26.2590   45.9270 C   0  0  0  0  0  0  0  0  0  0  0  0
   56.6840   25.0970   46.3850 C   0  0  0  0  0  0  0  0  0  0  0  0
   57.7287   24.9807   46.7092 H   0  0  0  0  0  0  0  0  0  0  0  0
   55.7120   24.1140   46.3530 C   0  0  0  0  0  0  0  0  0  0  0  0
   55.8286   23.0601   46.6458 H   0  0  0  0  0  0  0  0  0  0  0  0
   54.5640   24.7220   45.8790 C   0  0  0  0  0  0  0  0  0  0  0  0
   53.3950   24.1150   45.6820 C   0  0  0  0  0  0  0  0  0  0  0  0
   52.5360   24.6864   45.3002 H   0  0  0  0  0  0  0  0  0  0  0  0
   53.2885   23.0423   45.9011 H   0  0  0  0  0  0  0  0  0  0  0  0
   54.7860   26.0250   45.6220 N   0  0  0  0  0  0  0  0  0  0  0  0
   54.0910   26.7150   45.2560 H   0  0  0  0  0  0  0  0  0  0  0  0
   56.0630   28.5340   45.2590 N   0  0  0  0  0  0  0  0  0  0  0  0
   57.0100   29.4840   45.3270 C   0  0  0  0  0  0  0  0  0  0  0  0
   56.8390   30.6700   44.9360 O   0  0  0  0  0  0  0  0  0  0  0  0
  1  2  1  0
  2  3  1  0
  3  4  1  0
  4  5  1  0
  4  6  2  0
  6  7  1  0
  6  8  1  0
  8  9  1  0
  8 10  1  0
 10 11  1  0
 11 12  2  0
 11 13  1  0
 13 14  1  0
 13 15  1  0
 15 16  1  0
 15 17  1  0
 15 18  1  0
 18 19  1  0
 18 20  1  0
 18 21  1  0
 21 22  1  0
 21 23  1  0
 23 24  1  0
 23 25  1  0
 23 26  1  0
 26 27  1  0
 26 28  1  0
  2 29  2  3
 29 30  1  0
 30 31  1  0
 31 32  2  0
 32 33  1  0
 33 34  1  0
 33 35  2  0
 35 36  1  0
 35 37  1  0
 37 38  2  0
 38 39  1  0
 38 40  1  0
 37 41  1  0
 41 42  1  0
 31 43  1  0
 43 44  1  0
 44 45  2  0
 10  3  2  0
 26 13  1  0
 44 29  1  0
 41 32  1  0
M  CHG  3  13   1  30  -1  43  -1
M  END
>  <UniqueID>  (41) 
34

>  <SMILES>  (41) 
C=c1cc/c(=c2\[n-]c(=O)c(=Cc3cc[nH]c3C(=O)[NH+]3CCNCC3)[n-]2)[nH]1

>  <Energy>  (41) 
145.6388440579239

>  <Genealogy>  (41) 
C=c1ccc(=c2[n-]c(=O)c(=Cc3cc[nH]c3C(=O)[NH+]3CCNCC3)[n-]2)[nH]1 (protonated)
C=c1cc/c(=c2\[n-]c(=O)c(=Cc3cc[nH]c3C(=O)[NH+]3CCNCC3)[n-]2)[nH]1 (cis-trans isomerization)
C=c1cc/c(=c2\[n-]c(=O)c(=Cc3cc[nH]c3C(=O)[NH+]3CCNCC3)[n-]2)[nH]1 (3D coordinates assigned)
C=c1cc/c(=c2\[n-]c(=O)c(=Cc3cc[nH]c3C(=O)[NH+]3CCNCC3)[n-]2)[nH]1 (nonaromatic ring conformer: 145.6388440579239 kcal/mol)

>  <smiles>  (41) 
C=c1ccc(=c2[nH]c(=O)c(=Cc3cc[nH]c3C(=O)N3CCNCC3)[nH]2)[nH]1

>  <score_type>  (41) 
oracle

>  <origin>  (41) 
adg

>  <m_score__min__energy>  (41) 
-9.2200000000000006

>  <m_primary>  (41) 
energy

$$$$
42:0
     RDKit          3D

 39 41  0  0  0  0  0  0  0  0999 V2000
   57.0274   29.5111   43.0279 H   0  0  0  0  0  0  0  0  0  0  0  0
   56.8390   30.5510   43.3330 C   0  0  0  0  0  0  0  0  0  0  0  0
   56.2609   31.2200   42.6786 H   0  0  0  0  0  0  0  0  0  0  0  0
   57.3150   31.0040   44.5050 C   0  0  0  0  0  0  0  0  0  0  0  0
   57.0370   32.2970   44.8030 N   0  0  0  0  0  0  0  0  0  0  0  0
   57.4880   32.9070   45.9200 C   0  0  0  0  0  0  0  0  0  0  0  0
   57.1780   34.1120   46.1210 O   0  0  0  0  0  0  0  0  0  0  0  0
   58.2640   32.2230   46.8130 N   0  0  0  0  0  0  0  0  0  0  0  0
   58.7330   32.8940   48.0430 C   0  0  0  0  0  0  0  0  0  0  0  0
   57.8647   33.1686   48.6599 H   0  0  0  0  0  0  0  0  0  0  0  0
   59.3877   32.2060   48.5979 H   0  0  0  0  0  0  0  0  0  0  0  0
   59.5230   34.1580   47.6920 C   0  0  0  0  0  0  0  0  0  0  0  0
   59.2833   34.4593   46.6616 H   0  0  0  0  0  0  0  0  0  0  0  0
   59.2459   34.9558   48.3968 H   0  0  0  0  0  0  0  0  0  0  0  0
   61.0030   33.9070   47.8020 C   0  0  0  0  0  0  0  0  0  0  0  0
   61.7770   33.7120   46.6450 C   0  0  0  0  0  0  0  0  0  0  0  0
   61.3047   33.7689   45.6532 H   0  0  0  0  0  0  0  0  0  0  0  0
   63.1450   33.4460   46.7510 C   0  0  0  0  0  0  0  0  0  0  0  0
   63.7482   33.3017   45.8425 H   0  0  0  0  0  0  0  0  0  0  0  0
   63.7480   33.3630   48.0090 C   0  0  0  0  0  0  0  0  0  0  0  0
   64.8253   33.1562   48.0902 H   0  0  0  0  0  0  0  0  0  0  0  0
   62.9810   33.5430   49.1650 C   0  0  0  0  0  0  0  0  0  0  0  0
   63.4556   33.4750   50.1550 H   0  0  0  0  0  0  0  0  0  0  0  0
   61.6130   33.8090   49.0640 C   0  0  0  0  0  0  0  0  0  0  0  0
   61.0116   33.9421   49.9754 H   0  0  0  0  0  0  0  0  0  0  0  0
   58.5430   30.8950   46.6020 C   0  0  0  0  0  0  0  0  0  0  0  0
   59.1640   30.2570   47.4960 O   0  0  0  0  0  0  0  0  0  0  0  0
   58.1030   30.2320   45.4150 C   0  0  0  0  0  0  0  0  0  0  0  0
   58.3820   28.9150   45.1800 C   0  0  0  0  0  0  0  0  0  0  0  0
   59.2211   28.6953   44.5035 H   0  0  0  0  0  0  0  0  0  0  0  0
   57.6590   27.7570   45.7520 C   0  0  0  0  0  0  0  0  0  0  0  0
   56.2660   27.6580   45.6250 C   0  0  0  0  0  0  0  0  0  0  0  0
   55.5390   28.6670   45.0050 O   0  0  0  0  0  0  0  0  0  0  0  0
   55.6160   26.5720   46.1170 N   0  0  0  0  0  0  0  0  0  0  0  0
   56.2930   25.5640   46.7230 C   0  0  0  0  0  0  0  0  0  0  0  0
   55.6680   24.5700   47.1750 O   0  0  0  0  0  0  0  0  0  0  0  0
   57.6450   25.6240   46.8360 N   0  0  0  0  0  0  0  0  0  0  0  0
   58.3410   26.6880   46.3590 C   0  0  0  0  0  0  0  0  0  0  0  0
   59.5970   26.7030   46.4630 O   0  0  0  0  0  0  0  0  0  0  0  0
  1  2  1  0
  2  3  1  0
  2  4  2  0
  4  5  1  0
  5  6  1  0
  6  7  2  0
  6  8  1  0
  8  9  1  0
  9 10  1  0
  9 11  1  0
  9 12  1  0
 12 13  1  0
 12 14  1  0
 12 15  1  0
 15 16  2  0
 16 17  1  0
 16 18  1  0
 18 19  1  0
 18 20  2  0
 20 21  1  0
 20 22  1  0
 22 23  1  0
 22 24  2  0
 24 25  1  0
  8 26  1  0
 26 27  2  0
 26 28  1  0
 28 29  2  0
 29 30  1  0
 29 31  1  0
 31 32  2  0
 32 33  1  0
 32 34  1  0
 34 35  1  0
 35 36  2  0
 35 37  1  0
 37 38  1  0
 38 39  2  0
 28  4  1  0
 38 31  1  0
 24 15  1  0
M  CHG  4   5  -1  33  -1  34  -1  37  -1
M  END
>  <UniqueID>  (42) 
35

>  <SMILES>  (42) 
C=c1[n-]c(=O)n(CCc2ccccc2)c(=O)/c1=C\c1c([O-])[n-]c(=O)[n-]c1=O

>  <Energy>  (42) 
66.83805626181044

>  <Genealogy>  (42) 
C=c1[n-]c(=O)n(CCc2ccccc2)c(=O)c1=Cc1c([O-])[n-]c(=O)[n-]c1=O (protonated)
C=c1[n-]c(=O)n(CCc2ccccc2)c(=O)/c1=C\c1c([O-])[n-]c(=O)[n-]c1=O (cis-trans isomerization)
C=c1[n-]c(=O)n(CCc2ccccc2)c(=O)/c1=C\c1c([O-])[n-]c(=O)[n-]c1=O (3D coordinates assigned)
C=c1[n-]c(=O)n(CCc2ccccc2)c(=O)/c1=C\c1c([O-])[n-]c(=O)[n-]c1=O (optimized conformer: 66.83805626181044 kcal/mol)

>  <smiles>  (42) 
C=c1[nH]c(=O)n(CCc2ccccc2)c(=O)c1=Cc1c(O)[nH]c(=O)[nH]c1=O

>  <score_type>  (42) 
oracle

>  <origin>  (42) 
adg

>  <m_score__min__energy>  (42) 
-17.57

>  <m_primary>  (42) 
energy

$$$$
43:0
     RDKit          3D

 49 52  0  0  0  0  0  0  0  0999 V2000
   56.2612   31.1319   52.5030 H   0  0  0  0  0  0  0  0  0  0  0  0
   55.1790   31.2030   52.6870 C   0  0  0  0  0  0  0  0  0  0  0  0
   54.6254   32.1001   52.3728 H   0  0  0  0  0  0  0  0  0  0  0  0
   54.5340   30.1950   53.2950 C   0  0  0  0  0  0  0  0  0  0  0  0
   53.1660   30.1260   53.6030 C   0  0  0  0  0  0  0  0  0  0  0  0
   52.1340   30.9030   53.2210 C   0  0  0  0  0  0  0  0  0  0  0  0
   51.6077   31.4610   54.0094 H   0  0  0  0  0  0  0  0  0  0  0  0
   51.6490   31.0710   51.8430 C   0  0  0  0  0  0  0  0  0  0  0  0
   51.9090   30.2000   50.8530 N   0  0  0  0  0  0  0  0  0  0  0  0
   51.3930   30.8050   49.7600 C   0  0  0  0  0  0  0  0  0  0  0  0
   51.4270   30.2810   48.6170 O   0  0  0  0  0  0  0  0  0  0  0  0
   50.8500   32.0200   49.9880 N   0  0  0  0  0  0  0  0  0  0  0  0
   51.0340   32.1810   51.3080 C   0  0  0  0  0  0  0  0  0  0  0  0
   50.6730   33.3280   52.0030 O   0  0  0  0  0  0  0  0  0  0  0  0
   53.0100   29.0280   54.4330 C   0  0  0  0  0  0  0  0  0  0  0  0
   52.0769   28.6953   54.9112 H   0  0  0  0  0  0  0  0  0  0  0  0
   54.2480   28.4320   54.5450 C   0  0  0  0  0  0  0  0  0  0  0  0
   54.5250   27.1930   55.3420 C   0  0  0  0  0  0  0  0  0  0  0  0
   54.4725   27.4281   56.4153 H   0  0  0  0  0  0  0  0  0  0  0  0
   53.7764   26.4249   55.0978 H   0  0  0  0  0  0  0  0  0  0  0  0
   55.5294   26.8168   55.0978 H   0  0  0  0  0  0  0  0  0  0  0  0
   55.1740   29.1360   53.8570 N   0  0  0  0  0  0  0  0  0  0  0  0
   56.5760   28.8240   53.7730 C   0  0  0  0  0  0  0  0  0  0  0  0
   57.0040   27.4890   53.7390 C   0  0  0  0  0  0  0  0  0  0  0  0
   56.2651   26.6755   53.7857 H   0  0  0  0  0  0  0  0  0  0  0  0
   58.3660   27.1880   53.6460 C   0  0  0  0  0  0  0  0  0  0  0  0
   58.6939   26.1383   53.6205 H   0  0  0  0  0  0  0  0  0  0  0  0
   59.3180   28.2190   53.5850 C   0  0  0  0  0  0  0  0  0  0  0  0
   60.7890   27.8880   53.4740 C   0  0  0  0  0  0  0  0  0  0  0  0
   61.3745   28.7358   53.8593 H   0  0  0  0  0  0  0  0  0  0  0  0
   60.9788   26.9766   54.0599 H   0  0  0  0  0  0  0  0  0  0  0  0
   61.1920   27.6250   52.0700 N   0  0  0  0  0  0  0  0  0  0  0  0
   60.6640   28.2620   51.4260 H   0  0  0  0  0  0  0  0  0  0  0  0
   62.6420   27.7910   51.8640 C   0  0  0  0  0  0  0  0  0  0  0  0
   62.8379   28.1367   50.8383 H   0  0  0  0  0  0  0  0  0  0  0  0
   63.0483   28.5371   52.5628 H   0  0  0  0  0  0  0  0  0  0  0  0
   63.2980   26.4350   52.0890 C   0  0  0  0  0  0  0  0  0  0  0  0
   64.0551   26.2412   51.3149 H   0  0  0  0  0  0  0  0  0  0  0  0
   63.8125   26.3870   53.0601 H   0  0  0  0  0  0  0  0  0  0  0  0
   62.1730   25.4190   51.9970 C   0  0  0  0  0  0  0  0  0  0  0  0
   62.3699   24.6991   51.1889 H   0  0  0  0  0  0  0  0  0  0  0  0
   62.0704   24.8376   52.9252 H   0  0  0  0  0  0  0  0  0  0  0  0
   60.9190   26.2290   51.6950 C   0  0  0  0  0  0  0  0  0  0  0  0
   60.6819   26.1679   50.6226 H   0  0  0  0  0  0  0  0  0  0  0  0
   60.0601   25.8375   52.2598 H   0  0  0  0  0  0  0  0  0  0  0  0
   58.8870   29.5540   53.6240 C   0  0  0  0  0  0  0  0  0  0  0  0
   59.6251   30.3686   53.5827 H   0  0  0  0  0  0  0  0  0  0  0  0
   57.5250   29.8540   53.7150 C   0  0  0  0  0  0  0  0  0  0  0  0
   57.1962   30.9034   53.7412 H   0  0  0  0  0  0  0  0  0  0  0  0
  1  2  1  0
  2  3  1  0
  2  4  2  0
  4  5  1  0
  5  6  2  0
  6  7  1  0
  6  8  1  0
  8  9  1  0
  9 10  1  0
 10 11  2  0
 10 12  1  0
 12 13  1  0
 13 14  1  0
  5 15  1  0
 15 16  1  0
 15 17  2  0
 17 18  1  0
 18 19  1  0
 18 20  1  0
 18 21  1  0
 17 22  1  0
 22 23  1  0
 23 24  2  0
 24 25  1  0
 24 26  1  0
 26 27  1  0
 26 28  2  0
 28 29  1  0
 29 30  1  0
 29 31  1  0
 29 32  1  0
 32 33  1  0
 32 34  1  0
 34 35  1  0
 34 36  1  0
 34 37  1  0
 37 38  1  0
 37 39  1  0
 37 40  1  0
 40 41  1  0
 40 42  1  0
 40 43  1  0
 43 44  1  0
 43 45  1  0
 28 46  1  0
 46 47  1  0
 46 48  2  0
 48 49  1  0
 22  4  1  0
 48 23  1  0
 13  8  2  0
 43 32  1  0
M  CHG  4   9  -1  12  -1  14  -1  32   1
M  END
>  <UniqueID>  (43) 
36

>  <SMILES>  (43) 
C=c1/c(=C\c2[n-]c(=O)[n-]c2[O-])cc(C)n1-c1ccc(C[NH+]2CCCC2)cc1

>  <Energy>  (43) 
131.30169463726736

>  <Genealogy>  (43) 
C=c1c(=Cc2[n-]c(=O)[n-]c2[O-])cc(C)n1-c1ccc(C[NH+]2CCCC2)cc1 (protonated)
C=c1/c(=C\c2[n-]c(=O)[n-]c2[O-])cc(C)n1-c1ccc(C[NH+]2CCCC2)cc1 (cis-trans isomerization)
C=c1/c(=C\c2[n-]c(=O)[n-]c2[O-])cc(C)n1-c1ccc(C[NH+]2CCCC2)cc1 (3D coordinates assigned)
C=c1/c(=C\c2[n-]c(=O)[n-]c2[O-])cc(C)n1-c1ccc(C[NH+]2CCCC2)cc1 (nonaromatic ring conformer: 131.30169463726736 kcal/mol)

>  <smiles>  (43) 
C=c1c(=Cc2[nH]c(=O)[nH]c2O)cc(C)n1-c1ccc(CN2CCCC2)cc1

>  <score_type>  (43) 
oracle

>  <origin>  (43) 
adg

>  <m_score__min__energy>  (43) 
-14.5

>  <m_primary>  (43) 
energy

$$$$
44:0
     RDKit          3D

 37 38  0  0  1  0  0  0  0  0999 V2000
   57.7100   32.0740   42.0610 C   0  0  0  0  0  0  0  0  0  0  0  0
   57.4330   31.5850   43.4610 C   0  0  1  0  0  0  0  0  0  0  0  0
   58.1490   30.3610   43.7570 N   0  0  0  0  0  0  0  0  0  0  0  0
   57.7490   29.5780   44.8650 C   0  0  0  0  0  0  0  0  0  0  0  0
   56.7710   29.9450   45.5930 O   0  0  0  0  0  0  0  0  0  0  0  0
   58.4630   28.3280   45.1860 C   0  0  0  0  0  0  0  0  0  0  0  0
   60.2330   28.6130   45.2540 S   0  0  0  0  0  0  0  0  0  0  0  0
   60.5290   29.9810   46.3850 C   0  0  0  0  0  0  0  0  0  0  0  0
   61.7710   30.4680   46.5570 N   0  0  0  0  0  0  0  0  0  0  0  0
   61.9720   31.4890   47.4040 C   0  0  0  0  0  0  0  0  0  0  0  0
   63.2820   32.0330   47.6140 N   0  0  0  0  0  0  0  0  0  0  0  0
   60.8990   32.0240   48.0850 C   0  0  0  0  0  0  0  0  0  0  0  0
   59.6240   31.5100   47.8950 C   0  0  0  0  0  0  0  0  0  0  0  0
   58.6830   32.0360   48.5430 O   0  0  0  0  0  0  0  0  0  0  0  0
   59.4650   30.4930   47.0430 N   0  0  0  0  0  0  0  0  0  0  0  0
   57.8300   32.6560   44.4100 C   0  0  0  0  0  0  0  0  0  0  0  0
   57.1370   32.8400   45.5860 C   0  0  0  0  0  0  0  0  0  0  0  0
   57.4650   33.8220   46.5030 C   0  0  0  0  0  0  0  0  0  0  0  0
   58.5390   34.6370   46.1980 C   0  0  0  0  0  0  0  0  0  0  0  0
   59.2740   34.5050   45.0380 C   0  0  0  0  0  0  0  0  0  0  0  0
   58.8900   33.5010   44.1640 C   0  0  0  0  0  0  0  0  0  0  0  0
   58.2517   33.0303   42.1071 H   0  0  0  0  0  0  0  0  0  0  0  0
   58.3216   31.3315   41.5275 H   0  0  0  0  0  0  0  0  0  0  0  0
   56.7587   32.2168   41.5275 H   0  0  0  0  0  0  0  0  0  0  0  0
   56.3610   31.3577   43.5570 H   0  0  0  0  0  0  0  0  0  0  0  0
   58.9500   30.0700   43.1540 H   0  0  0  0  0  0  0  0  0  0  0  0
   58.1189   27.9553   46.1620 H   0  0  0  0  0  0  0  0  0  0  0  0
   58.2525   27.5871   44.4007 H   0  0  0  0  0  0  0  0  0  0  0  0
   63.4120   32.8430   48.2630 H   0  0  0  0  0  0  0  0  0  0  0  0
   64.0840   31.6060   47.1090 H   0  0  0  0  0  0  0  0  0  0  0  0
   61.0542   32.8612   48.7814 H   0  0  0  0  0  0  0  0  0  0  0  0
   58.5230   30.0950   46.8880 H   0  0  0  0  0  0  0  0  0  0  0  0
   56.2865   32.1777   45.8052 H   0  0  0  0  0  0  0  0  0  0  0  0
   56.8954   33.9491   47.4354 H   0  0  0  0  0  0  0  0  0  0  0  0
   58.8200   35.4255   46.9116 H   0  0  0  0  0  0  0  0  0  0  0  0
   60.1251   35.1660   44.8173 H   0  0  0  0  0  0  0  0  0  0  0  0
   59.4576   33.3726   43.2306 H   0  0  0  0  0  0  0  0  0  0  0  0
  1  2  1  0
  2  3  1  0
  3  4  1  0
  4  5  2  0
  4  6  1  0
  6  7  1  0
  7  8  1  0
  8  9  2  0
  9 10  1  0
 10 11  1  0
 10 12  2  0
 12 13  1  0
 13 14  2  0
 13 15  1  0
  2 16  1  0
 16 17  2  0
 17 18  1  0
 18 19  2  0
 19 20  1  0
 20 21  2  0
 15  8  1  0
 21 16  1  0
  1 22  1  0
  1 23  1  0
  1 24  1  0
  2 25  1  6
  3 26  1  0
  6 27  1  0
  6 28  1  0
 11 29  1  0
 11 30  1  0
 12 31  1  0
 15 32  1  0
 17 33  1  0
 18 34  1  0
 19 35  1  0
 20 36  1  0
 21 37  1  0
M  END
>  <smiles>  (44) 
CC(NC(=O)CSc1nc(N)cc(=O)[nH]1)c1ccccc1

>  <score_type>  (44) 
oracle

>  <origin>  (44) 
adg

>  <m_score__min__energy>  (44) 
-8.5999999999999996

>  <m_primary>  (44) 
energy

$$$$
45:0
     RDKit          3D

 50 53  0  0  1  0  0  0  0  0999 V2000
   54.9140   29.3470   44.0790 O   0  0  0  0  0  0  0  0  0  0  0  0
   56.1020   29.7310   44.2600 C   0  0  0  0  0  0  0  0  0  0  0  0
   56.7210   30.4170   43.1600 C   0  0  0  0  0  0  0  0  0  0  0  0
   57.3840   31.5190   43.1480 C   0  0  0  0  0  0  0  0  0  0  0  0
   57.8420   32.3380   44.2290 C   0  0  0  0  0  0  0  0  0  0  0  0
   57.5550   33.6340   44.5220 C   0  0  0  0  0  0  0  0  0  0  0  0
   57.9480   34.2720   45.6950 C   0  0  0  0  0  0  0  0  0  0  0  0
   58.6750   33.6070   46.6500 C   0  0  0  0  0  0  0  0  0  0  0  0
   58.9830   32.2750   46.3620 C   0  0  0  0  0  0  0  0  0  0  0  0
   59.7700   31.5780   47.3920 C   0  0  0  0  0  0  0  0  0  0  0  0
   60.0290   30.3490   47.3240 O   0  0  0  0  0  0  0  0  0  0  0  0
   60.2210   32.3850   48.4750 N   0  0  0  0  0  0  0  0  0  0  0  0
   61.4600   32.5840   48.6630 C   0  0  0  0  0  0  0  0  0  0  0  0
   61.8290   33.7450   49.3290 C   0  0  0  0  0  0  0  0  0  0  0  0
   63.1800   34.0180   49.5730 C   0  0  0  0  0  0  0  0  0  0  0  0
   64.1080   33.0990   49.1310 C   0  0  0  0  0  0  0  0  0  0  0  0
   65.4240   33.3040   49.3350 F   0  0  0  0  0  0  0  0  0  0  0  0
   63.7120   31.9690   48.4800 C   0  0  0  0  0  0  0  0  0  0  0  0
   62.4210   31.7260   48.2570 N   0  0  0  0  0  0  0  0  0  0  0  0
   58.5910   31.6620   45.2130 C   0  0  0  0  0  0  0  0  0  0  0  0
   56.6630   29.4280   45.5090 N   0  0  0  0  0  0  0  0  0  0  0  0
   57.4030   28.3720   45.6440 C   0  0  0  0  0  0  0  0  0  0  0  0
   58.6730   28.1420   45.8120 N   0  0  0  0  0  0  0  0  0  0  0  0
   59.1300   26.9290   45.9270 C   0  0  0  0  0  0  0  0  0  0  0  0
   58.2210   25.8750   45.8640 C   0  0  0  0  0  0  0  0  0  0  0  0
   58.4220   24.4350   45.9450 C   0  0  0  0  0  0  0  0  0  0  0  0
   57.7020   23.7790   44.8270 C   0  0  0  0  0  0  0  0  0  0  0  0
   57.2930   22.4660   44.6830 C   0  0  0  0  0  0  0  0  0  0  0  0
   56.6670   22.4230   43.4500 C   0  0  0  0  0  0  0  0  0  0  0  0
   56.1470   21.3910   42.9390 O   0  0  0  0  0  0  0  0  0  0  0  0
   56.7050   23.6540   42.8940 N   0  0  0  0  0  0  0  0  0  0  0  0
   57.3270   24.4740   43.7190 N   0  0  0  0  0  0  0  0  0  0  0  0
   56.6310   26.7300   45.6260 S   0  0  0  0  0  0  0  0  0  0  0  0
   56.6115   29.9263   42.1816 H   0  0  0  0  0  0  0  0  0  0  0  0
   57.6404   31.8923   42.1456 H   0  0  0  0  0  0  0  0  0  0  0  0
   56.9770   34.2138   43.7874 H   0  0  0  0  0  0  0  0  0  0  0  0
   57.6719   35.3241   45.8587 H   0  0  0  0  0  0  0  0  0  0  0  0
   58.9952   34.0922   47.5838 H   0  0  0  0  0  0  0  0  0  0  0  0
   61.0572   34.4526   49.6660 H   0  0  0  0  0  0  0  0  0  0  0  0
   63.4903   34.9331   50.0986 H   0  0  0  0  0  0  0  0  0  0  0  0
   64.4678   31.2484   48.1343 H   0  0  0  0  0  0  0  0  0  0  0  0
   62.0620   30.8670   47.7580 H   0  0  0  0  0  0  0  0  0  0  0  0
   58.8660   30.6099   45.0472 H   0  0  0  0  0  0  0  0  0  0  0  0
   59.3680   28.9860   45.8640 H   0  0  0  0  0  0  0  0  0  0  0  0
   60.2043   26.7410   46.0700 H   0  0  0  0  0  0  0  0  0  0  0  0
   59.4962   24.2088   45.8740 H   0  0  0  0  0  0  0  0  0  0  0  0
   58.0347   24.0610   46.9042 H   0  0  0  0  0  0  0  0  0  0  0  0
   57.4343   21.6377   45.3928 H   0  0  0  0  0  0  0  0  0  0  0  0
   56.3260   23.9740   41.9680 H   0  0  0  0  0  0  0  0  0  0  0  0
   57.4960   25.5080   43.5280 H   0  0  0  0  0  0  0  0  0  0  0  0
  1  2  2  0
  2  3  1  0
  3  4  2  0
  4  5  1  0
  5  6  2  0
  6  7  1  0
  7  8  2  0
  8  9  1  0
  9 10  1  0
 10 11  2  0
 10 12  1  0
 12 13  2  0
 13 14  1  0
 14 15  2  0
 15 16  1  0
 16 17  1  0
 16 18  2  0
 18 19  1  0
  9 20  2  0
  2 21  1  0
 21 22  2  0
 22 23  1  0
 23 24  1  0
 24 25  2  0
 25 26  1  0
 26 27  1  0
 27 28  2  0
 28 29  1  0
 29 30  2  0
 29 31  1  0
 31 32  1  0
 25 33  1  0
 20  5  1  0
 33 22  1  0
 19 13  1  0
 32 27  1  0
  3 34  1  0
  4 35  1  0
  6 36  1  0
  7 37  1  0
  8 38  1  0
 14 39  1  0
 15 40  1  0
 18 41  1  0
 19 42  1  0
 20 43  1  0
 23 44  1  0
 24 45  1  0
 26 46  1  0
 26 47  1  0
 28 48  1  0
 31 49  1  0
 32 50  1  0
M  END
>  <smiles>  (45) 
O=C(C=Cc1cccc(C(=O)N=c2ccc(F)c[nH]2)c1)N=c1[nH]cc(Cc2cc(=O)[nH][nH]2)s1

>  <score_type>  (45) 
oracle

>  <origin>  (45) 
adg

>  <m_score__min__energy>  (45) 
-10.17

>  <m_primary>  (45) 
energy

$$$$
46:0
     RDKit          3D

 41 43  0  0  0  0  0  0  0  0999 V2000
   54.0240   26.7250   46.3680 H   0  0  0  0  0  0  0  0  0  0  0  0
   54.7980   26.3000   45.8120 N   0  0  0  0  0  0  0  0  0  0  0  0
   56.0740   26.0540   46.3990 C   0  0  0  0  0  0  0  0  0  0  0  0
   56.2260   25.0630   47.1640 O   0  0  0  0  0  0  0  0  0  0  0  0
   57.2090   26.9450   46.1200 C   0  0  0  0  0  0  0  0  0  0  0  0
   58.0880   27.3080   47.0940 N   0  0  0  0  0  0  0  0  0  0  0  0
   59.0480   28.1270   46.6180 C   0  0  0  0  0  0  0  0  0  0  0  0
   59.9930   28.6010   47.3730 N   0  0  0  0  0  0  0  0  0  0  0  0
   59.8000   29.6580   48.3600 C   0  0  0  0  0  0  0  0  0  0  0  0
   58.7456   29.9713   48.3605 H   0  0  0  0  0  0  0  0  0  0  0  0
   60.0710   29.2824   49.3578 H   0  0  0  0  0  0  0  0  0  0  0  0
   60.6700   30.8300   48.0130 C   0  0  0  0  0  0  0  0  0  0  0  0
   61.9140   30.7260   48.1930 O   0  0  0  0  0  0  0  0  0  0  0  0
   60.1150   32.0680   47.5180 N   0  0  0  0  0  0  0  0  0  0  0  0
   60.9990   33.1020   46.9670 C   0  0  0  0  0  0  0  0  0  0  0  0
   61.2769   33.8086   47.7629 H   0  0  0  0  0  0  0  0  0  0  0  0
   61.9061   32.6300   46.5616 H   0  0  0  0  0  0  0  0  0  0  0  0
   60.2720   33.8540   45.8480 C   0  0  0  0  0  0  0  0  0  0  0  0
   60.9359   34.6438   45.4667 H   0  0  0  0  0  0  0  0  0  0  0  0
   60.0184   33.1212   45.0678 H   0  0  0  0  0  0  0  0  0  0  0  0
   59.0020   34.4800   46.3030 N   0  0  0  0  0  0  0  0  0  0  0  0
   58.0250   34.5910   45.1980 C   0  0  0  0  0  0  0  0  0  0  0  0
   57.0641   34.9433   45.6013 H   0  0  0  0  0  0  0  0  0  0  0  0
   58.4149   35.3025   44.4552 H   0  0  0  0  0  0  0  0  0  0  0  0
   57.8190   33.2630   44.5270 C   0  0  0  0  0  0  0  0  0  0  0  0
   58.3660   32.9380   43.2900 C   0  0  0  0  0  0  0  0  0  0  0  0
   59.0166   33.5823   42.6804 H   0  0  0  0  0  0  0  0  0  0  0  0
   57.8570   31.3870   42.8920 S   0  0  0  0  0  0  0  0  0  0  0  0
   56.9410   31.1140   44.2740 C   0  0  0  0  0  0  0  0  0  0  0  0
   56.3766   30.1984   44.5046 H   0  0  0  0  0  0  0  0  0  0  0  0
   57.0210   32.2460   45.0740 C   0  0  0  0  0  0  0  0  0  0  0  0
   56.5084   32.3371   46.0430 H   0  0  0  0  0  0  0  0  0  0  0  0
   58.3970   33.8440   47.5000 C   0  0  0  0  0  0  0  0  0  0  0  0
   58.8111   34.3238   48.3991 H   0  0  0  0  0  0  0  0  0  0  0  0
   57.3075   33.9774   47.4286 H   0  0  0  0  0  0  0  0  0  0  0  0
   58.6710   32.3360   47.5800 C   0  0  0  0  0  0  0  0  0  0  0  0
   58.2714   31.9458   48.5277 H   0  0  0  0  0  0  0  0  0  0  0  0
   58.1818   31.8412   46.7280 H   0  0  0  0  0  0  0  0  0  0  0  0
   58.8520   28.4380   44.9730 S   0  0  0  0  0  0  0  0  0  0  0  0
   57.4720   27.4790   44.8580 C   0  0  0  0  0  0  0  0  0  0  0  0
   56.8811   27.3042   43.9468 H   0  0  0  0  0  0  0  0  0  0  0  0
  1  2  1  0
  2  3  1  0
  3  4  2  0
  3  5  1  0
  5  6  1  0
  6  7  1  0
  7  8  2  0
  8  9  1  0
  9 10  1  0
  9 11  1  0
  9 12  1  0
 12 13  2  0
 12 14  1  0
 14 15  1  0
 15 16  1  0
 15 17  1  0
 15 18  1  0
 18 19  1  0
 18 20  1  0
 18 21  1  0
 21 22  1  0
 22 23  1  0
 22 24  1  0
 22 25  1  0
 25 26  2  0
 26 27  1  0
 26 28  1  0
 28 29  1  0
 29 30  1  0
 29 31  2  0
 31 32  1  0
 21 33  1  0
 33 34  1  0
 33 35  1  0
 33 36  1  0
 36 37  1  0
 36 38  1  0
  7 39  1  0
 39 40  1  0
 40 41  1  0
 40  5  2  0
 36 14  1  0
 31 25  1  0
M  CHG  2   2  -1   6  -1
M  END
>  <UniqueID>  (46) 
37

>  <SMILES>  (46) 
[NH-]C(=O)c1cs/c(=N\CC(=O)N2CCN(Cc3ccsc3)CC2)[n-]1

>  <Energy>  (46) 
101.7182505159589

>  <Genealogy>  (46) 
[NH-]C(=O)c1csc(=NCC(=O)N2CCN(Cc3ccsc3)CC2)[n-]1 (protonated)
[NH-]C(=O)c1cs/c(=N\CC(=O)N2CCN(Cc3ccsc3)CC2)[n-]1 (cis-trans isomerization)
[NH-]C(=O)c1cs/c(=N\CC(=O)N2CCN(Cc3ccsc3)CC2)[n-]1 (3D coordinates assigned)
[NH-]C(=O)c1cs/c(=N\CC(=O)N2CCN(Cc3ccsc3)CC2)[n-]1 (nonaromatic ring conformer: 101.7182505159589 kcal/mol)

>  <smiles>  (46) 
NC(=O)c1csc(=NCC(=O)N2CCN(Cc3ccsc3)CC2)[nH]1

>  <score_type>  (46) 
oracle

>  <origin>  (46) 
adg

>  <m_score__min__energy>  (46) 
-13.210000000000001

>  <m_primary>  (46) 
energy

$$$$
47:0
     RDKit          3D

 43 45  0  0  0  0  0  0  0  0999 V2000
   57.8407   32.3313   48.3883 H   0  0  0  0  0  0  0  0  0  0  0  0
   58.3230   32.9510   47.6180 C   0  0  0  0  0  0  0  0  0  0  0  0
   57.8800   32.9040   46.3350 N   0  0  0  0  0  0  0  0  0  0  0  0
   58.4450   33.6460   45.3420 C   0  0  0  0  0  0  0  0  0  0  0  0
   57.9550   33.5460   44.1380 N   0  0  0  0  0  0  0  0  0  0  0  0
   57.8180   32.3480   43.3560 C   0  0  0  0  0  0  0  0  0  0  0  0
   57.7720   32.4510   42.1010 O   0  0  0  0  0  0  0  0  0  0  0  0
   57.6500   31.0170   43.9880 C   0  0  0  0  0  0  0  0  0  0  0  0
   58.7630   30.3270   44.4960 C   0  0  0  0  0  0  0  0  0  0  0  0
   59.7636   30.7780   44.4217 H   0  0  0  0  0  0  0  0  0  0  0  0
   58.6120   29.0730   45.0950 C   0  0  0  0  0  0  0  0  0  0  0  0
   59.4940   28.5455   45.4871 H   0  0  0  0  0  0  0  0  0  0  0  0
   57.3410   28.4810   45.2000 C   0  0  0  0  0  0  0  0  0  0  0  0
   57.1640   27.1510   45.8300 C   0  0  0  0  0  0  0  0  0  0  0  0
   57.4120   27.0140   47.0600 O   0  0  0  0  0  0  0  0  0  0  0  0
   56.7320   26.0160   45.0610 N   0  0  0  0  0  0  0  0  0  0  0  0
   56.6940   26.0950   44.0200 H   0  0  0  0  0  0  0  0  0  0  0  0
   56.4650   24.7110   45.6770 C   0  0  0  0  0  0  0  0  0  0  0  0
   56.5041   24.8285   46.7700 H   0  0  0  0  0  0  0  0  0  0  0  0
   55.0540   24.2020   45.2970 C   0  0  0  0  0  0  0  0  0  0  0  0
   54.6604   23.6023   46.1309 H   0  0  0  0  0  0  0  0  0  0  0  0
   54.4270   25.0833   45.0964 H   0  0  0  0  0  0  0  0  0  0  0  0
   55.0550   23.3340   44.0240 C   0  0  0  0  0  0  0  0  0  0  0  0
   55.1662   22.2770   44.3076 H   0  0  0  0  0  0  0  0  0  0  0  0
   54.1057   23.4878   43.4901 H   0  0  0  0  0  0  0  0  0  0  0  0
   56.1610   23.7140   43.1390 N   0  0  0  0  0  0  0  0  0  0  0  0
   56.0640   23.1750   42.2470 H   0  0  0  0  0  0  0  0  0  0  0  0
   57.4660   23.3760   43.7380 C   0  0  0  0  0  0  0  0  0  0  0  0
   57.6489   22.3006   43.5964 H   0  0  0  0  0  0  0  0  0  0  0  0
   58.2278   23.9910   43.2367 H   0  0  0  0  0  0  0  0  0  0  0  0
   57.5360   23.6930   45.2490 C   0  0  0  0  0  0  0  0  0  0  0  0
   57.3858   22.7613   45.8142 H   0  0  0  0  0  0  0  0  0  0  0  0
   58.5229   24.1317   45.4577 H   0  0  0  0  0  0  0  0  0  0  0  0
   56.2310   29.1600   44.6700 C   0  0  0  0  0  0  0  0  0  0  0  0
   55.2333   28.7003   44.7270 H   0  0  0  0  0  0  0  0  0  0  0  0
   56.3820   30.4140   44.0710 C   0  0  0  0  0  0  0  0  0  0  0  0
   55.5028   30.9330   43.6616 H   0  0  0  0  0  0  0  0  0  0  0  0
   59.5130   34.5120   45.6590 C   0  0  0  0  0  0  0  0  0  0  0  0
   59.9711   35.1360   44.8775 H   0  0  0  0  0  0  0  0  0  0  0  0
   59.9840   34.5710   46.9720 C   0  0  0  0  0  0  0  0  0  0  0  0
   60.8222   35.2360   47.2273 H   0  0  0  0  0  0  0  0  0  0  0  0
   59.3890   33.7840   47.9610 C   0  0  0  0  0  0  0  0  0  0  0  0
   60.0210   33.8580   49.7610 Br  0  0  0  0  0  0  0  0  0  0  0  0
  1  2  1  0
  2  3  1  0
  3  4  1  0
  4  5  2  0
  5  6  1  0
  6  7  2  0
  6  8  1  0
  8  9  2  0
  9 10  1  0
  9 11  1  0
 11 12  1  0
 11 13  2  0
 13 14  1  0
 14 15  2  0
 14 16  1  0
 16 17  1  0
 16 18  1  0
 18 19  1  0
 18 20  1  0
 20 21  1  0
 20 22  1  0
 20 23  1  0
 23 24  1  0
 23 25  1  0
 23 26  1  0
 26 27  1  0
 26 28  1  0
 28 29  1  0
 28 30  1  0
 28 31  1  0
 31 32  1  0
 31 33  1  0
 13 34  1  0
 34 35  1  0
 34 36  2  0
 36 37  1  0
  4 38  1  0
 38 39  1  0
 38 40  2  0
 40 41  1  0
 40 42  1  0
 42 43  1  0
 42  2  2  0
 36  8  1  0
 31 18  1  0
M  CHG  1   3  -1
M  END
>  <UniqueID>  (47) 
38

>  <SMILES>  (47) 
O=C(/N=c1\ccc(Br)c[n-]1)c1ccc(C(=O)NC2CCNCC2)cc1

>  <Energy>  (47) 
60.97892422100658

>  <Genealogy>  (47) 
O=C(N=c1ccc(Br)c[n-]1)c1ccc(C(=O)NC2CCNCC2)cc1 (protonated)
O=C(/N=c1\ccc(Br)c[n-]1)c1ccc(C(=O)NC2CCNCC2)cc1 (cis-trans isomerization)
O=C(/N=c1\ccc(Br)c[n-]1)c1ccc(C(=O)NC2CCNCC2)cc1 (3D coordinates assigned)
O=C(/N=c1\ccc(Br)c[n-]1)c1ccc(C(=O)NC2CCNCC2)cc1 (nonaromatic ring conformer: 60.97892422100658 kcal/mol)

>  <smiles>  (47) 
O=C(N=c1ccc(Br)c[nH]1)c1ccc(C(=O)NC2CCNCC2)cc1

>  <score_type>  (47) 
oracle

>  <origin>  (47) 
adg

>  <m_score__min__energy>  (47) 
-9.9399999999999995

>  <m_primary>  (47) 
energy

$$$$
48:0
     RDKit          3D

 50 53  0  0  0  0  0  0  0  0999 V2000
   60.3748   28.0103   47.8332 H   0  0  0  0  0  0  0  0  0  0  0  0
   59.6190   27.6380   47.1260 C   0  0  0  0  0  0  0  0  0  0  0  0
   59.3197   26.5797   47.1474 H   0  0  0  0  0  0  0  0  0  0  0  0
   59.0620   28.4750   46.2370 C   0  0  0  0  0  0  0  0  0  0  0  0
   58.0900   28.1610   45.2730 C   0  0  0  0  0  0  0  0  0  0  0  0
   57.6230   26.9730   44.8430 C   0  0  0  0  0  0  0  0  0  0  0  0
   57.6451   26.7868   43.7591 H   0  0  0  0  0  0  0  0  0  0  0  0
   57.0860   25.9030   45.6980 C   0  0  0  0  0  0  0  0  0  0  0  0
   57.8390   24.9190   46.2190 N   0  0  0  0  0  0  0  0  0  0  0  0
   56.9780   24.2580   47.0220 C   0  0  0  0  0  0  0  0  0  0  0  0
   57.3130   23.2400   47.6840 O   0  0  0  0  0  0  0  0  0  0  0  0
   55.7330   24.7780   47.0700 N   0  0  0  0  0  0  0  0  0  0  0  0
   55.8220   25.8280   46.2380 C   0  0  0  0  0  0  0  0  0  0  0  0
   54.7790   26.7160   46.0020 O   0  0  0  0  0  0  0  0  0  0  0  0
   57.6420   29.3700   44.7670 C   0  0  0  0  0  0  0  0  0  0  0  0
   56.8405   29.5134   44.0273 H   0  0  0  0  0  0  0  0  0  0  0  0
   58.3920   30.3600   45.3670 C   0  0  0  0  0  0  0  0  0  0  0  0
   58.2490   31.8240   45.0820 C   0  0  0  0  0  0  0  0  0  0  0  0
   58.1948   32.3786   46.0304 H   0  0  0  0  0  0  0  0  0  0  0  0
   59.1175   32.1714   44.5032 H   0  0  0  0  0  0  0  0  0  0  0  0
   57.3297   31.9968   44.5032 H   0  0  0  0  0  0  0  0  0  0  0  0
   59.2530   29.8200   46.2610 N   0  0  0  0  0  0  0  0  0  0  0  0
   60.1760   30.5530   47.0870 C   0  0  0  0  0  0  0  0  0  0  0  0
   59.7370   31.1690   48.2630 C   0  0  0  0  0  0  0  0  0  0  0  0
   58.6798   31.0988   48.5586 H   0  0  0  0  0  0  0  0  0  0  0  0
   60.6380   31.8720   49.0610 C   0  0  0  0  0  0  0  0  0  0  0  0
   60.2930   32.3616   49.9836 H   0  0  0  0  0  0  0  0  0  0  0  0
   61.9900   31.9530   48.6820 C   0  0  0  0  0  0  0  0  0  0  0  0
   62.9390   32.6840   49.4910 N   0  0  0  0  0  0  0  0  0  0  0  0
   64.1830   32.0520   49.9510 C   0  0  0  0  0  0  0  0  0  0  0  0
   63.9995   31.5425   50.9085 H   0  0  0  0  0  0  0  0  0  0  0  0
   64.5166   31.3240   49.1969 H   0  0  0  0  0  0  0  0  0  0  0  0
   65.2760   33.1130   50.1420 C   0  0  0  0  0  0  0  0  0  0  0  0
   66.1631   32.6259   50.5731 H   0  0  0  0  0  0  0  0  0  0  0  0
   65.4804   33.5499   49.1534 H   0  0  0  0  0  0  0  0  0  0  0  0
   64.8680   34.2270   51.0380 N   0  0  0  0  0  0  0  0  0  0  0  0
   65.5210   34.1200   52.3520 C   0  0  0  0  0  0  0  0  0  0  0  0
   64.7697   34.2431   53.1459 H   0  0  0  0  0  0  0  0  0  0  0  0
   65.9956   33.1321   52.4463 H   0  0  0  0  0  0  0  0  0  0  0  0
   66.2860   34.9048   52.4463 H   0  0  0  0  0  0  0  0  0  0  0  0
   63.4050   34.3870   51.2040 C   0  0  0  0  0  0  0  0  0  0  0  0
   63.0624   33.7128   52.0028 H   0  0  0  0  0  0  0  0  0  0  0  0
   63.2047   35.4385   51.4577 H   0  0  0  0  0  0  0  0  0  0  0  0
   62.6420   34.0570   49.9170 C   0  0  0  0  0  0  0  0  0  0  0  0
   61.5617   34.1555   50.0994 H   0  0  0  0  0  0  0  0  0  0  0  0
   62.9537   34.7544   49.1254 H   0  0  0  0  0  0  0  0  0  0  0  0
   62.3950   31.3420   47.5260 N   0  0  0  0  0  0  0  0  0  0  0  0
   63.3960   31.3790   47.2340 H   0  0  0  0  0  0  0  0  0  0  0  0
   61.5270   30.6540   46.7360 C   0  0  0  0  0  0  0  0  0  0  0  0
   61.8895   30.1738   45.8151 H   0  0  0  0  0  0  0  0  0  0  0  0
  1  2  1  0
  2  3  1  0
  2  4  2  0
  4  5  1  0
  5  6  2  0
  6  7  1  0
  6  8  1  0
  8  9  1  0
  9 10  1  0
 10 11  2  0
 10 12  1  0
 12 13  1  0
 13 14  1  0
  5 15  1  0
 15 16  1  0
 15 17  2  0
 17 18  1  0
 18 19  1  0
 18 20  1  0
 18 21  1  0
 17 22  1  0
 22 23  1  0
 23 24  2  0
 24 25  1  0
 24 26  1  0
 26 27  1  0
 26 28  2  0
 28 29  1  0
 29 30  1  0
 30 31  1  0
 30 32  1  0
 30 33  1  0
 33 34  1  0
 33 35  1  0
 33 36  1  0
 36 37  1  0
 37 38  1  0
 37 39  1  0
 37 40  1  0
 36 41  1  0
 41 42  1  0
 41 43  1  0
 41 44  1  0
 44 45  1  0
 44 46  1  0
 28 47  1  0
 47 48  1  0
 47 49  2  0
 49 50  1  0
 22  4  1  0
 49 23  1  0
 13  8  2  0
 44 29  1  0
M  CHG  4   9  -1  12  -1  14  -1  47   1
M  END
>  <UniqueID>  (48) 
39

>  <SMILES>  (48) 
C=c1/c(=C\c2[n-]c(=O)[n-]c2[O-])cc(C)n1-c1ccc(N2CCN(C)CC2)[nH+]c1

>  <Energy>  (48) 
137.73811091200827

>  <Genealogy>  (48) 
C=c1c(=Cc2[n-]c(=O)[n-]c2[O-])cc(C)n1-c1ccc(N2CCN(C)CC2)[nH+]c1 (protonated)
C=c1/c(=C\c2[n-]c(=O)[n-]c2[O-])cc(C)n1-c1ccc(N2CCN(C)CC2)[nH+]c1 (cis-trans isomerization)
C=c1/c(=C\c2[n-]c(=O)[n-]c2[O-])cc(C)n1-c1ccc(N2CCN(C)CC2)[nH+]c1 (3D coordinates assigned)
C=c1/c(=C\c2[n-]c(=O)[n-]c2[O-])cc(C)n1-c1ccc(N2CCN(C)CC2)[nH+]c1 (nonaromatic ring conformer: 137.73811091200827 kcal/mol)

>  <smiles>  (48) 
C=c1c(=Cc2[nH]c(=O)[nH]c2O)cc(C)n1-c1ccc(N2CCN(C)CC2)nc1

>  <score_type>  (48) 
oracle

>  <origin>  (48) 
adg

>  <m_score__min__energy>  (48) 
-14.529999999999999

>  <m_primary>  (48) 
energy

$$$$
49:0
     RDKit          3D

 65 68  0  0  0  0  0  0  0  0999 V2000
   64.8510   32.1030   46.2600 H   0  0  0  0  0  0  0  0  0  0  0  0
   64.0410   32.0070   46.8270 O   0  0  0  0  0  0  0  0  0  0  0  0
   63.8380   33.2450   47.4580 C   0  0  1  0  0  0  0  0  0  0  0  0
   64.7781   33.5900   47.9131 H   0  0  0  0  0  0  0  0  0  0  0  0
   63.3810   34.2750   46.4230 C   0  0  0  0  0  0  0  0  0  0  0  0
   62.9870   35.1631   46.9388 H   0  0  0  0  0  0  0  0  0  0  0  0
   64.2347   34.5655   45.7931 H   0  0  0  0  0  0  0  0  0  0  0  0
   62.5928   33.8370   45.7931 H   0  0  0  0  0  0  0  0  0  0  0  0
   62.7740   33.0890   48.5660 C   0  0  0  0  0  0  0  0  0  0  0  0
   63.2811   33.0857   49.5421 H   0  0  0  0  0  0  0  0  0  0  0  0
   62.0731   33.9317   48.4728 H   0  0  0  0  0  0  0  0  0  0  0  0
   61.9850   31.8340   48.4360 N   0  0  2  0  0  0  0  0  0  0  0  0
   62.5950   31.1290   47.9560 H   0  0  0  0  0  0  0  0  0  0  0  0
   60.8350   32.0340   47.5120 C   0  0  0  0  0  0  0  0  0  0  0  0
   61.2124   31.9773   46.4803 H   0  0  0  0  0  0  0  0  0  0  0  0
   60.4033   33.0134   47.7660 H   0  0  0  0  0  0  0  0  0  0  0  0
   59.6920   31.0070   47.6610 C   0  0  0  0  0  0  0  0  0  0  0  0
   60.1318   29.9997   47.7056 H   0  0  0  0  0  0  0  0  0  0  0  0
   59.0275   31.1323   46.7934 H   0  0  0  0  0  0  0  0  0  0  0  0
   58.8720   31.2140   48.8720 N   0  0  0  0  0  0  0  0  0  0  0  0
   58.6980   29.9710   49.6580 C   0  0  0  0  0  0  0  0  0  0  0  0
   59.2828   30.0626   50.5851 H   0  0  0  0  0  0  0  0  0  0  0  0
   57.6201   29.8613   49.8481 H   0  0  0  0  0  0  0  0  0  0  0  0
   59.1470   28.7180   48.9320 C   0  0  0  0  0  0  0  0  0  0  0  0
   60.3460   28.0770   49.2920 C   0  0  0  0  0  0  0  0  0  0  0  0
   60.9673   28.4910   50.0998 H   0  0  0  0  0  0  0  0  0  0  0  0
   60.7510   26.9170   48.6280 C   0  0  0  0  0  0  0  0  0  0  0  0
   61.6775   26.4073   48.9309 H   0  0  0  0  0  0  0  0  0  0  0  0
   59.9840   26.4020   47.5810 C   0  0  0  0  0  0  0  0  0  0  0  0
   60.3012   25.4803   47.0712 H   0  0  0  0  0  0  0  0  0  0  0  0
   58.8080   27.0570   47.1760 C   0  0  0  0  0  0  0  0  0  0  0  0
   58.0060   26.5380   46.0460 C   0  0  0  0  0  0  0  0  0  0  0  0
   58.4120   25.5170   45.4300 O   0  0  0  0  0  0  0  0  0  0  0  0
   56.7950   27.1730   45.6000 N   0  0  0  0  0  0  0  0  0  0  0  0
   56.6910   28.3720   45.1080 C   0  0  0  0  0  0  0  0  0  0  0  0
   55.5180   29.0020   44.8720 N   0  0  0  0  0  0  0  0  0  0  0  0
   55.7080   30.2270   44.3180 C   0  0  0  0  0  0  0  0  0  0  0  0
   54.8759   30.8994   44.0622 H   0  0  0  0  0  0  0  0  0  0  0  0
   57.0410   30.5630   44.1000 C   0  0  0  0  0  0  0  0  0  0  0  0
   57.5360   31.8480   43.5100 C   0  0  0  0  0  0  0  0  0  0  0  0
   58.3658   31.6340   42.8204 H   0  0  0  0  0  0  0  0  0  0  0  0
   56.7101   32.3334   42.9693 H   0  0  0  0  0  0  0  0  0  0  0  0
   58.0190   32.7730   44.5950 C   0  0  0  0  0  0  0  0  0  0  0  0
   57.4580   32.7160   45.8840 C   0  0  0  0  0  0  0  0  0  0  0  0
   56.6667   31.9847   46.1055 H   0  0  0  0  0  0  0  0  0  0  0  0
   57.9030   33.5860   46.8850 C   0  0  0  0  0  0  0  0  0  0  0  0
   57.4674   33.5315   47.8936 H   0  0  0  0  0  0  0  0  0  0  0  0
   58.9010   34.5250   46.6050 C   0  0  0  0  0  0  0  0  0  0  0  0
   59.3540   35.3820   47.6020 O   0  0  0  0  0  0  0  0  0  0  0  0
   59.4560   34.5960   45.3220 C   0  0  0  0  0  0  0  0  0  0  0  0
   60.2363   35.3391   45.1008 H   0  0  0  0  0  0  0  0  0  0  0  0
   59.0190   33.7230   44.3220 C   0  0  0  0  0  0  0  0  0  0  0  0
   59.4598   33.7794   43.3158 H   0  0  0  0  0  0  0  0  0  0  0  0
   58.0130   29.2910   44.6240 S   0  0  0  0  0  0  0  0  0  0  0  0
   58.3850   28.2010   47.8690 C   0  0  0  0  0  0  0  0  0  0  0  0
   57.4481   28.6986   47.5781 H   0  0  0  0  0  0  0  0  0  0  0  0
   59.3080   32.3680   49.6880 C   0  0  0  0  0  0  0  0  0  0  0  0
   58.4846   32.6634   50.3548 H   0  0  0  0  0  0  0  0  0  0  0  0
   59.5777   33.1865   49.0044 H   0  0  0  0  0  0  0  0  0  0  0  0
   60.5500   32.0310   50.5460 C   0  0  0  0  0  0  0  0  0  0  0  0
   60.2273   31.4147   51.3981 H   0  0  0  0  0  0  0  0  0  0  0  0
   60.9911   32.9870   50.8645 H   0  0  0  0  0  0  0  0  0  0  0  0
   61.6430   31.2630   49.7750 C   0  0  0  0  0  0  0  0  0  0  0  0
   61.2958   30.2297   49.6277 H   0  0  0  0  0  0  0  0  0  0  0  0
   62.5570   31.3315   50.3833 H   0  0  0  0  0  0  0  0  0  0  0  0
  1  2  1  0
  2  3  1  0
  3  4  1  1
  3  5  1  0
  5  6  1  0
  5  7  1  0
  5  8  1  0
  3  9  1  0
  9 10  1  0
  9 11  1  0
  9 12  1  0
 12 13  1  6
 12 14  1  0
 14 15  1  0
 14 16  1  0
 14 17  1  0
 17 18  1  0
 17 19  1  0
 17 20  1  0
 20 21  1  0
 21 22  1  0
 21 23  1  0
 21 24  1  0
 24 25  2  0
 25 26  1  0
 25 27  1  0
 27 28  1  0
 27 29  2  0
 29 30  1  0
 29 31  1  0
 31 32  1  0
 32 33  2  0
 32 34  1  0
 34 35  2  0
 35 36  1  0
 36 37  1  0
 37 38  1  0
 37 39  2  0
 39 40  1  0
 40 41  1  0
 40 42  1  0
 40 43  1  0
 43 44  2  0
 44 45  1  0
 44 46  1  0
 46 47  1  0
 46 48  2  0
 48 49  1  0
 48 50  1  0
 50 51  1  0
 50 52  2  0
 52 53  1  0
 39 54  1  0
 31 55  2  0
 55 56  1  0
 20 57  1  0
 57 58  1  0
 57 59  1  0
 57 60  1  0
 60 61  1  0
 60 62  1  0
 60 63  1  0
 63 64  1  0
 63 65  1  0
 63 12  1  0
 55 24  1  0
 54 35  1  0
 52 43  1  0
M  CHG  3  12   1  36  -1  49  -1
M  END
>  <UniqueID>  (49) 
40

>  <SMILES>  (49) 
C[C@H](O)C[N@H+]1CCCN(Cc2cccc(C(=O)/N=c3\[n-]cc(Cc4ccc([O-])cc4)s3)c2)CC1

>  <Energy>  (49) 
121.57477295260395

>  <Genealogy>  (49) 
CC(O)C[NH+]1CCCN(Cc2cccc(C(=O)N=c3[n-]cc(Cc4ccc([O-])cc4)s3)c2)CC1 (protonated)
C[C@H](O)C[N@H+]1CCCN(Cc2cccc(C(=O)N=c3[n-]cc(Cc4ccc([O-])cc4)s3)c2)CC1 (chirality)
C[C@H](O)C[N@H+]1CCCN(Cc2cccc(C(=O)/N=c3\[n-]cc(Cc4ccc([O-])cc4)s3)c2)CC1 (cis-trans isomerization)
C[C@H](O)C[N@H+]1CCCN(Cc2cccc(C(=O)/N=c3\[n-]cc(Cc4ccc([O-])cc4)s3)c2)CC1 (3D coordinates assigned)
C[C@H](O)C[N@H+]1CCCN(Cc2cccc(C(=O)/N=c3\[n-]cc(Cc4ccc([O-])cc4)s3)c2)CC1 (nonaromatic ring conformer: 121.57477295260395 kcal/mol)

>  <smiles>  (49) 
CC(O)CN1CCCN(Cc2cccc(C(=O)N=c3[nH]cc(Cc4ccc(O)cc4)s3)c2)CC1

>  <score_type>  (49) 
oracle

>  <origin>  (49) 
adg

>  <m_score__min__energy>  (49) 
-10.34

>  <m_primary>  (49) 
energy

$$$$
50:0
     RDKit          3D

 55 59  0  0  0  0  0  0  0  0999 V2000
   58.4110   25.0870   45.2850 C   0  0  0  0  0  0  0  0  0  0  0  0
   57.1610   25.4820   45.5320 C   0  0  0  0  0  0  0  0  0  0  0  0
   56.0900   24.7070   45.2770 N   0  0  0  0  0  0  0  0  0  0  0  0
   55.0500   25.4700   45.6670 C   0  0  0  0  0  0  0  0  0  0  0  0
   53.8550   25.0850   45.5820 O   0  0  0  0  0  0  0  0  0  0  0  0
   55.3920   26.6810   46.1520 N   0  0  0  0  0  0  0  0  0  0  0  0
   56.7360   26.6900   46.0740 C   0  0  0  0  0  0  0  0  0  0  0  0
   57.5020   27.7360   46.4280 C   0  0  0  0  0  0  0  0  0  0  0  0
   57.3860   29.0790   45.8220 C   0  0  0  0  0  0  0  0  0  0  0  0
   56.3300   29.6270   45.0960 C   0  0  0  0  0  0  0  0  0  0  0  0
   55.1570   28.9620   44.7650 O   0  0  0  0  0  0  0  0  0  0  0  0
   56.5410   30.9270   44.7850 N   0  0  0  0  0  0  0  0  0  0  0  0
   57.7390   31.2060   45.3350 C   0  0  0  0  0  0  0  0  0  0  0  0
   58.3890   32.4380   45.3230 C   0  0  0  0  0  0  0  0  0  0  0  0
   59.6170   32.5440   46.0000 C   0  0  0  0  0  0  0  0  0  0  0  0
   60.1680   31.4250   46.6720 C   0  0  0  0  0  0  0  0  0  0  0  0
   61.6670   31.5940   47.5850 S   0  0  0  0  0  0  0  0  0  0  0  0
   62.7710   30.9090   46.8290 O   0  0  0  0  0  0  0  0  0  0  0  0
   61.5180   30.8980   48.9090 O   0  0  0  0  0  0  0  0  0  0  0  0
   62.1130   33.2700   47.8490 N   0  0  0  0  0  0  0  0  0  0  0  0
   61.6550   33.7960   49.1540 C   0  0  0  0  0  0  0  0  0  0  0  0
   62.7550   33.8140   50.2310 C   0  0  0  0  0  0  0  0  0  0  0  0
   63.7740   32.8050   49.9190 N   0  0  0  0  0  0  0  0  0  0  0  0
   64.6650   32.4800   51.0550 C   0  0  0  0  0  0  0  0  0  0  0  0
   65.9600   33.2630   51.0610 C   0  0  0  0  0  0  0  0  0  0  0  0
   67.1160   32.7280   50.4640 C   0  0  0  0  0  0  0  0  0  0  0  0
   68.3130   33.4510   50.4700 C   0  0  0  0  0  0  0  0  0  0  0  0
   68.3680   34.7080   51.0770 C   0  0  0  0  0  0  0  0  0  0  0  0
   67.2280   35.2430   51.6830 C   0  0  0  0  0  0  0  0  0  0  0  0
   66.0290   34.5230   51.6790 C   0  0  0  0  0  0  0  0  0  0  0  0
   64.4980   33.1460   48.6820 C   0  0  0  0  0  0  0  0  0  0  0  0
   63.5300   33.5500   47.5480 C   0  0  0  0  0  0  0  0  0  0  0  0
   59.4960   30.1880   46.6470 C   0  0  0  0  0  0  0  0  0  0  0  0
   58.2740   30.1190   45.9770 C   0  0  0  0  0  0  0  0  0  0  0  0
   59.2541   25.7565   45.5106 H   0  0  0  0  0  0  0  0  0  0  0  0
   58.5986   24.0918   44.8557 H   0  0  0  0  0  0  0  0  0  0  0  0
   58.2577   27.5841   47.2128 H   0  0  0  0  0  0  0  0  0  0  0  0
   57.9546   33.3024   44.7994 H   0  0  0  0  0  0  0  0  0  0  0  0
   60.1543   33.5038   46.0079 H   0  0  0  0  0  0  0  0  0  0  0  0
   61.2949   34.8250   49.0073 H   0  0  0  0  0  0  0  0  0  0  0  0
   60.8625   33.1230   49.5132 H   0  0  0  0  0  0  0  0  0  0  0  0
   63.2230   34.8091   50.2582 H   0  0  0  0  0  0  0  0  0  0  0  0
   62.3078   33.5873   51.2101 H   0  0  0  0  0  0  0  0  0  0  0  0
   64.1264   32.6939   51.9900 H   0  0  0  0  0  0  0  0  0  0  0  0
   64.9340   31.4180   50.9566 H   0  0  0  0  0  0  0  0  0  0  0  0
   67.0782   31.7360   49.9901 H   0  0  0  0  0  0  0  0  0  0  0  0
   69.2120   33.0296   49.9964 H   0  0  0  0  0  0  0  0  0  0  0  0
   69.3093   35.2771   51.0780 H   0  0  0  0  0  0  0  0  0  0  0  0
   67.2738   36.2314   52.1636 H   0  0  0  0  0  0  0  0  0  0  0  0
   65.1355   34.9452   52.1621 H   0  0  0  0  0  0  0  0  0  0  0  0
   65.1781   33.9860   48.8867 H   0  0  0  0  0  0  0  0  0  0  0  0
   65.0577   32.2571   48.3555 H   0  0  0  0  0  0  0  0  0  0  0  0
   63.6396   34.6293   47.3661 H   0  0  0  0  0  0  0  0  0  0  0  0
   63.7967   32.9465   46.6679 H   0  0  0  0  0  0  0  0  0  0  0  0
   59.9217   29.3022   47.1410 H   0  0  0  0  0  0  0  0  0  0  0  0
  1  2  2  0
  2  3  1  0
  3  4  1  0
  4  5  2  0
  4  6  1  0
  6  7  1  0
  7  8  2  3
  8  9  1  0
  9 10  2  0
 10 11  1  0
 10 12  1  0
 12 13  1  0
 13 14  2  0
 14 15  1  0
 15 16  2  0
 16 17  1  0
 17 18  2  0
 17 19  2  0
 17 20  1  0
 20 21  1  0
 21 22  1  0
 22 23  1  0
 23 24  1  0
 24 25  1  0
 25 26  2  0
 26 27  1  0
 27 28  2  0
 28 29  1  0
 29 30  2  0
 23 31  1  0
 31 32  1  0
 16 33  1  0
 33 34  2  0
  7  2  1  0
 34  9  1  0
 34 13  1  0
 32 20  1  0
 30 25  1  0
  1 35  1  0
  1 36  1  0
  8 37  1  0
 14 38  1  0
 15 39  1  0
 21 40  1  0
 21 41  1  0
 22 42  1  0
 22 43  1  0
 24 44  1  0
 24 45  1  0
 26 46  1  0
 27 47  1  0
 28 48  1  0
 29 49  1  0
 30 50  1  0
 31 51  1  0
 31 52  1  0
 32 53  1  0
 32 54  1  0
 33 55  1  0
M  CHG  4   3  -1   6  -1  11  -1  12  -1
M  END
>  <UniqueID>  (50) 
41

>  <SMILES>  (50) 
C=c1[n-]c(=O)[n-]c1=Cc1c([O-])[n-]c2ccc(S(=O)(=O)N3CCN(Cc4ccccc4)CC3)cc12

>  <Energy>  (50) 
138.16605681920083

>  <Genealogy>  (50) 
C=c1[n-]c(=O)[n-]c1=Cc1c([O-])[n-]c2ccc(S(=O)(=O)N3CCN(Cc4ccccc4)CC3)cc12 (protonated)
C=c1[n-]c(=O)[n-]c1=Cc1c([O-])[n-]c2ccc(S(=O)(=O)N3CCN(Cc4ccccc4)CC3)cc12 (3D coordinates assigned)
C=c1[n-]c(=O)[n-]c1=Cc1c([O-])[n-]c2ccc(S(=O)(=O)N3CCN(Cc4ccccc4)CC3)cc12 (nonaromatic ring conformer: 138.16605681920083 kcal/mol)

>  <smiles>  (50) 
C=c1[nH]c(=O)[nH]c1=Cc1c(O)[nH]c2ccc(S(=O)(=O)N3CCN(Cc4ccccc4)CC3)cc12

>  <score_type>  (50) 
oracle

>  <origin>  (50) 
adg

>  <m_score__min__energy>  (50) 
-18.809999999999999

>  <m_primary>  (50) 
energy

$$$$
51:0
     RDKit          3D

 50 52  0  0  0  0  0  0  0  0999 V2000
   56.6530   24.8340   44.5280 C   0  0  0  0  0  0  0  0  0  0  0  0
   55.8230   25.8070   45.7670 S   0  0  0  0  0  0  0  0  0  0  0  0
   56.2280   25.3030   47.1220 O   0  0  0  0  0  0  0  0  0  0  0  0
   54.3330   25.6770   45.6250 O   0  0  0  0  0  0  0  0  0  0  0  0
   56.2900   27.4700   45.6290 N   0  0  0  0  0  0  0  0  0  0  0  0
   57.6370   27.9710   45.6260 C   0  0  0  0  0  0  0  0  0  0  0  0
   58.6830   27.2550   46.2380 C   0  0  0  0  0  0  0  0  0  0  0  0
   59.9950   27.7310   46.1830 C   0  0  0  0  0  0  0  0  0  0  0  0
   60.2820   28.9170   45.5100 C   0  0  0  0  0  0  0  0  0  0  0  0
   59.2550   29.6400   44.9000 C   0  0  0  0  0  0  0  0  0  0  0  0
   57.9260   29.1880   44.9650 C   0  0  0  0  0  0  0  0  0  0  0  0
   56.8630   30.0150   44.3470 C   0  0  0  0  0  0  0  0  0  0  0  0
   56.2200   29.5510   43.3670 O   0  0  0  0  0  0  0  0  0  0  0  0
   56.5160   31.3200   44.8360 N   0  0  0  0  0  0  0  0  0  0  0  0
   57.4160   32.3360   45.3080 C   0  0  0  0  0  0  0  0  0  0  0  0
   57.7620   33.3820   44.4440 C   0  0  0  0  0  0  0  0  0  0  0  0
   58.6300   34.3910   44.8710 C   0  0  0  0  0  0  0  0  0  0  0  0
   59.1620   34.3610   46.1620 C   0  0  0  0  0  0  0  0  0  0  0  0
   58.8370   33.3090   47.0290 C   0  0  0  0  0  0  0  0  0  0  0  0
   59.4780   33.2600   48.6690 S   0  0  0  0  0  0  0  0  0  0  0  0
   58.4960   32.5230   49.5380 O   0  0  0  0  0  0  0  0  0  0  0  0
   59.6510   34.6560   49.2010 O   0  0  0  0  0  0  0  0  0  0  0  0
   61.0170   32.4310   48.6820 N   0  0  0  0  0  0  0  0  0  0  0  0
   61.2290   31.7420   47.3880 C   0  0  0  0  0  0  0  0  0  0  0  0
   62.7060   31.4050   47.1660 C   0  0  0  0  0  0  0  0  0  0  0  0
   63.5620   32.6820   47.1060 C   0  0  0  0  0  0  0  0  0  0  0  0
   62.9350   33.8540   47.8820 C   0  0  0  0  0  0  0  0  0  0  0  0
   62.1130   33.3510   49.0780 C   0  0  0  0  0  0  0  0  0  0  0  0
   57.9810   32.2890   46.5950 C   0  0  0  0  0  0  0  0  0  0  0  0
   57.2922   24.0846   45.0177 H   0  0  0  0  0  0  0  0  0  0  0  0
   55.9064   24.3253   43.9004 H   0  0  0  0  0  0  0  0  0  0  0  0
   57.2731   25.4910   43.9004 H   0  0  0  0  0  0  0  0  0  0  0  0
   58.4655   26.3135   46.7636 H   0  0  0  0  0  0  0  0  0  0  0  0
   60.8037   27.1683   46.6722 H   0  0  0  0  0  0  0  0  0  0  0  0
   61.3178   29.2837   45.4593 H   0  0  0  0  0  0  0  0  0  0  0  0
   59.4883   30.5717   44.3638 H   0  0  0  0  0  0  0  0  0  0  0  0
   57.3490   33.4099   43.4249 H   0  0  0  0  0  0  0  0  0  0  0  0
   58.8950   35.2115   44.1879 H   0  0  0  0  0  0  0  0  0  0  0  0
   59.8359   35.1628   46.4982 H   0  0  0  0  0  0  0  0  0  0  0  0
   60.6447   30.8100   47.3796 H   0  0  0  0  0  0  0  0  0  0  0  0
   60.9041   32.4157   46.5814 H   0  0  0  0  0  0  0  0  0  0  0  0
   63.0592   30.7742   47.9951 H   0  0  0  0  0  0  0  0  0  0  0  0
   62.8031   30.8737   46.2078 H   0  0  0  0  0  0  0  0  0  0  0  0
   64.5505   32.4637   47.5364 H   0  0  0  0  0  0  0  0  0  0  0  0
   63.6355   32.9836   46.0507 H   0  0  0  0  0  0  0  0  0  0  0  0
   63.7370   34.5115   48.2488 H   0  0  0  0  0  0  0  0  0  0  0  0
   62.2643   34.4020   47.2038 H   0  0  0  0  0  0  0  0  0  0  0  0
   62.7856   32.8191   49.7669 H   0  0  0  0  0  0  0  0  0  0  0  0
   61.6506   34.2291   49.5524 H   0  0  0  0  0  0  0  0  0  0  0  0
   57.7495   31.4471   47.2640 H   0  0  0  0  0  0  0  0  0  0  0  0
  1  2  1  0
  2  3  2  0
  2  4  2  0
  2  5  1  0
  5  6  1  0
  6  7  2  0
  7  8  1  0
  8  9  2  0
  9 10  1  0
 10 11  2  0
 11 12  1  0
 12 13  2  0
 12 14  1  0
 14 15  1  0
 15 16  2  0
 16 17  1  0
 17 18  2  0
 18 19  1  0
 19 20  1  0
 20 21  2  0
 20 22  2  0
 20 23  1  0
 23 24  1  0
 24 25  1  0
 25 26  1  0
 26 27  1  0
 27 28  1  0
 19 29  2  0
 11  6  1  0
 29 15  1  0
 28 23  1  0
  1 30  1  0
  1 31  1  0
  1 32  1  0
  7 33  1  0
  8 34  1  0
  9 35  1  0
 10 36  1  0
 16 37  1  0
 17 38  1  0
 18 39  1  0
 24 40  1  0
 24 41  1  0
 25 42  1  0
 25 43  1  0
 26 44  1  0
 26 45  1  0
 27 46  1  0
 27 47  1  0
 28 48  1  0
 28 49  1  0
 29 50  1  0
M  CHG  2   5  -1  14  -1
M  END
>  <UniqueID>  (51) 
42

>  <SMILES>  (51) 
CS(=O)(=O)[N-]c1ccccc1C(=O)[N-]c1cccc(S(=O)(=O)N2CCCCC2)c1

>  <Energy>  (51) 
60.83329177776424

>  <Genealogy>  (51) 
CS(=O)(=O)[N-]c1ccccc1C(=O)[N-]c1cccc(S(=O)(=O)N2CCCCC2)c1 (protonated)
CS(=O)(=O)[N-]c1ccccc1C(=O)[N-]c1cccc(S(=O)(=O)N2CCCCC2)c1 (3D coordinates assigned)
CS(=O)(=O)[N-]c1ccccc1C(=O)[N-]c1cccc(S(=O)(=O)N2CCCCC2)c1 (nonaromatic ring conformer: 60.83329177776424 kcal/mol)

>  <smiles>  (51) 
CS(=O)(=O)Nc1ccccc1C(=O)Nc1cccc(S(=O)(=O)N2CCCCC2)c1

>  <score_type>  (51) 
oracle

>  <origin>  (51) 
adg

>  <m_score__min__energy>  (51) 
-14.56

>  <m_primary>  (51) 
energy

$$$$
52:0
     RDKit          3D

 48 50  0  0  0  0  0  0  0  0999 V2000
   57.7780   22.4930   45.5850 C   0  0  0  0  0  0  0  0  0  0  0  0
   57.8180   23.8250   45.4630 C   0  0  0  0  0  0  0  0  0  0  0  0
   57.6070   24.4300   44.2170 C   0  0  0  0  0  0  0  0  0  0  0  0
   57.6480   25.8210   44.0870 C   0  0  0  0  0  0  0  0  0  0  0  0
   57.9150   26.6600   45.2000 C   0  0  0  0  0  0  0  0  0  0  0  0
   57.9510   28.0260   45.0690 C   0  0  0  0  0  0  0  0  0  0  0  0
   59.1890   28.7020   45.0010 C   0  0  0  0  0  0  0  0  0  0  0  0
   59.2580   30.0770   44.8060 C   0  0  0  0  0  0  0  0  0  0  0  0
   58.1020   30.8660   44.6760 C   0  0  0  0  0  0  0  0  0  0  0  0
   58.2850   32.1980   44.4760 C   0  0  0  0  0  0  0  0  0  0  0  0
   57.5710   33.3740   45.1190 C   0  0  0  0  0  0  0  0  0  0  0  0
   58.0920   33.7160   46.4630 N   0  0  0  0  0  0  0  0  0  0  0  0
   58.5800   32.5280   47.1850 C   0  0  0  0  0  0  0  0  0  0  0  0
   59.1150   34.7820   46.4160 C   0  0  0  0  0  0  0  0  0  0  0  0
   60.3690   34.3400   47.1230 C   0  0  0  0  0  0  0  0  0  0  0  0
   60.4630   34.4500   48.5190 C   0  0  0  0  0  0  0  0  0  0  0  0
   61.6190   34.0250   49.1830 C   0  0  0  0  0  0  0  0  0  0  0  0
   62.6850   33.4830   48.4590 C   0  0  0  0  0  0  0  0  0  0  0  0
   64.1320   32.9490   49.2940 Cl  0  0  0  0  0  0  0  0  0  0  0  0
   62.5960   33.3660   47.0680 C   0  0  0  0  0  0  0  0  0  0  0  0
   61.4430   33.7910   46.4000 C   0  0  0  0  0  0  0  0  0  0  0  0
   56.8430   30.2150   44.7690 C   0  0  0  0  0  0  0  0  0  0  0  0
   55.6510   30.9290   44.6500 O   0  0  0  0  0  0  0  0  0  0  0  0
   56.7740   28.8230   44.9950 C   0  0  0  0  0  0  0  0  0  0  0  0
   55.5210   28.2640   45.2370 O   0  0  0  0  0  0  0  0  0  0  0  0
   58.1060   26.0250   46.4530 C   0  0  0  0  0  0  0  0  0  0  0  0
   58.0620   24.6350   46.5790 C   0  0  0  0  0  0  0  0  0  0  0  0
   57.9447   22.0254   46.5666 H   0  0  0  0  0  0  0  0  0  0  0  0
   57.5785   21.8657   44.7037 H   0  0  0  0  0  0  0  0  0  0  0  0
   57.4075   23.8052   43.3339 H   0  0  0  0  0  0  0  0  0  0  0  0
   57.4695   26.2751   43.1011 H   0  0  0  0  0  0  0  0  0  0  0  0
   60.1210   28.1271   45.1048 H   0  0  0  0  0  0  0  0  0  0  0  0
   60.2445   30.5607   44.7520 H   0  0  0  0  0  0  0  0  0  0  0  0
   59.0618   32.4620   43.7432 H   0  0  0  0  0  0  0  0  0  0  0  0
   57.6875   34.2517   44.4663 H   0  0  0  0  0  0  0  0  0  0  0  0
   56.5170   33.0850   45.2435 H   0  0  0  0  0  0  0  0  0  0  0  0
   58.5083   32.7024   48.2687 H   0  0  0  0  0  0  0  0  0  0  0  0
   57.9672   31.6560   46.9127 H   0  0  0  0  0  0  0  0  0  0  0  0
   59.6288   32.3386   46.9127 H   0  0  0  0  0  0  0  0  0  0  0  0
   59.3523   35.0102   45.3664 H   0  0  0  0  0  0  0  0  0  0  0  0
   58.7197   35.6773   46.9183 H   0  0  0  0  0  0  0  0  0  0  0  0
   59.6249   34.8718   49.0932 H   0  0  0  0  0  0  0  0  0  0  0  0
   61.6891   34.1176   50.2769 H   0  0  0  0  0  0  0  0  0  0  0  0
   63.4345   32.9389   46.4983 H   0  0  0  0  0  0  0  0  0  0  0  0
   61.3761   33.6956   45.3062 H   0  0  0  0  0  0  0  0  0  0  0  0
   54.7370   30.5000   44.7260 H   0  0  0  0  0  0  0  0  0  0  0  0
   58.2929   26.6406   47.3453 H   0  0  0  0  0  0  0  0  0  0  0  0
   58.2205   24.1719   47.5641 H   0  0  0  0  0  0  0  0  0  0  0  0
  1  2  2  0
  2  3  1  0
  3  4  2  0
  4  5  1  0
  5  6  2  3
  6  7  1  0
  7  8  2  0
  8  9  1  0
  9 10  2  3
 10 11  1  0
 11 12  1  0
 12 13  1  0
 12 14  1  0
 14 15  1  0
 15 16  2  0
 16 17  1  0
 17 18  2  0
 18 19  1  0
 18 20  1  0
 20 21  2  0
  9 22  1  0
 22 23  1  0
 22 24  2  0
 24 25  1  0
  5 26  1  0
 26 27  2  0
 27  2  1  0
 24  6  1  0
 21 15  1  0
  1 28  1  0
  1 29  1  0
  3 30  1  0
  4 31  1  0
  7 32  1  0
  8 33  1  0
 10 34  1  0
 11 35  1  0
 11 36  1  0
 13 37  1  0
 13 38  1  0
 13 39  1  0
 14 40  1  0
 14 41  1  0
 16 42  1  0
 17 43  1  0
 20 44  1  0
 21 45  1  0
 23 46  1  0
 26 47  1  0
 27 48  1  0
M  CHG  1  25  -1
M  END
>  <UniqueID>  (52) 
43

>  <SMILES>  (52) 
C=c1ccc(=c2ccc(=CCN(C)Cc3ccc(Cl)cc3)c(O)c2[O-])cc1

>  <Energy>  (52) 
86.50634121866696

>  <Genealogy>  (52) 
C=c1ccc(=c2ccc(=CCN(C)Cc3ccc(Cl)cc3)c(O)c2[O-])cc1 (protonated)
C=c1ccc(=c2ccc(=CCN(C)Cc3ccc(Cl)cc3)c(O)c2[O-])cc1 (3D coordinates assigned)
C=c1ccc(=c2ccc(=CCN(C)Cc3ccc(Cl)cc3)c(O)c2[O-])cc1 (optimized conformer: 86.50634121866696 kcal/mol)

>  <smiles>  (52) 
C=c1ccc(=c2ccc(=CCN(C)Cc3ccc(Cl)cc3)c(O)c2O)cc1

>  <score_type>  (52) 
oracle

>  <origin>  (52) 
adg

>  <m_score__min__energy>  (52) 
-13.27

>  <m_primary>  (52) 
energy

$$$$
53:0
     RDKit          3D

 51 53  0  0  0  0  0  0  0  0999 V2000
   63.9770   32.6810   48.0420 H   0  0  0  0  0  0  0  0  0  0  0  0
   64.8500   33.0720   48.3090 O   0  0  0  0  0  0  0  0  0  0  0  0
   65.0810   32.6690   49.6310 C   0  0  0  0  0  0  0  0  0  0  0  0
   65.6121   33.4694   50.1671 H   0  0  0  0  0  0  0  0  0  0  0  0
   65.6891   31.7524   49.6252 H   0  0  0  0  0  0  0  0  0  0  0  0
   63.7520   32.3820   50.3380 C   0  0  0  0  0  0  0  0  0  0  0  0
   63.1215   33.2820   50.2875 H   0  0  0  0  0  0  0  0  0  0  0  0
   63.9741   32.1091   51.3802 H   0  0  0  0  0  0  0  0  0  0  0  0
   63.0000   31.2160   49.6950 C   0  0  0  0  0  0  0  0  0  0  0  0
   62.0562   31.0506   50.2353 H   0  0  0  0  0  0  0  0  0  0  0  0
   63.6266   30.3134   49.7470 H   0  0  0  0  0  0  0  0  0  0  0  0
   62.7080   31.5130   48.2930 N   0  0  0  0  0  0  0  0  0  0  0  0
   61.6520   32.8890   48.1890 S   0  0  0  0  0  0  0  0  0  0  0  0
   62.4390   34.1320   48.4900 O   0  0  0  0  0  0  0  0  0  0  0  0
   61.1210   32.9930   46.7880 O   0  0  0  0  0  0  0  0  0  0  0  0
   60.3540   32.7440   49.3840 C   0  0  0  0  0  0  0  0  0  0  0  0
   60.6480   33.1010   50.7090 C   0  0  0  0  0  0  0  0  0  0  0  0
   61.6566   33.4571   50.9656 H   0  0  0  0  0  0  0  0  0  0  0  0
   59.6740   33.0090   51.7050 C   0  0  0  0  0  0  0  0  0  0  0  0
   59.9189   33.2886   52.7403 H   0  0  0  0  0  0  0  0  0  0  0  0
   58.3910   32.5630   51.3890 C   0  0  0  0  0  0  0  0  0  0  0  0
   57.6231   32.4949   52.1737 H   0  0  0  0  0  0  0  0  0  0  0  0
   58.0820   32.2030   50.0760 C   0  0  0  0  0  0  0  0  0  0  0  0
   57.0677   31.8548   49.8312 H   0  0  0  0  0  0  0  0  0  0  0  0
   59.0530   32.2810   49.0650 C   0  0  0  0  0  0  0  0  0  0  0  0
   58.6830   31.9040   47.7190 N   0  0  0  0  0  0  0  0  0  0  0  0
   58.2780   32.9100   46.8830 C   0  0  0  0  0  0  0  0  0  0  0  0
   58.3410   34.1170   47.2510 O   0  0  0  0  0  0  0  0  0  0  0  0
   57.7650   32.6250   45.6290 C   0  0  0  0  0  0  0  0  0  0  0  0
   57.3947   33.4429   44.9935 H   0  0  0  0  0  0  0  0  0  0  0  0
   57.7130   31.3130   45.1640 C   0  0  0  0  0  0  0  0  0  0  0  0
   57.1690   31.0920   43.7680 C   0  0  0  0  0  0  0  0  0  0  0  0
   56.1516   30.6787   43.8321 H   0  0  0  0  0  0  0  0  0  0  0  0
   57.1421   32.0505   43.2290 H   0  0  0  0  0  0  0  0  0  0  0  0
   57.8182   30.3863   43.2290 H   0  0  0  0  0  0  0  0  0  0  0  0
   58.2420   30.2600   45.9650 C   0  0  0  0  0  0  0  0  0  0  0  0
   58.3910   29.0230   45.4020 C   0  0  0  0  0  0  0  0  0  0  0  0
   59.1336   28.9281   44.5960 H   0  0  0  0  0  0  0  0  0  0  0  0
   57.6460   27.7990   45.7760 C   0  0  0  0  0  0  0  0  0  0  0  0
   56.2520   27.7220   45.6330 C   0  0  0  0  0  0  0  0  0  0  0  0
   55.5280   28.8020   45.1430 O   0  0  0  0  0  0  0  0  0  0  0  0
   55.5950   26.5910   45.9990 N   0  0  0  0  0  0  0  0  0  0  0  0
   56.2610   25.5330   46.5270 C   0  0  0  0  0  0  0  0  0  0  0  0
   55.6310   24.4940   46.8520 O   0  0  0  0  0  0  0  0  0  0  0  0
   57.6030   25.6000   46.7160 N   0  0  0  0  0  0  0  0  0  0  0  0
   58.3060   26.7080   46.3640 C   0  0  0  0  0  0  0  0  0  0  0  0
   59.5520   26.7380   46.5550 O   0  0  0  0  0  0  0  0  0  0  0  0
   58.6150   30.5770   47.3230 C   0  0  0  0  0  0  0  0  0  0  0  0
   58.7820   29.6000   48.2480 C   0  0  0  0  0  0  0  0  0  0  0  0
   59.0664   29.8607   49.2781 H   0  0  0  0  0  0  0  0  0  0  0  0
   58.6331   28.5466   47.9684 H   0  0  0  0  0  0  0  0  0  0  0  0
  1  2  1  0
  2  3  1  0
  3  4  1  0
  3  5  1  0
  3  6  1  0
  6  7  1  0
  6  8  1  0
  6  9  1  0
  9 10  1  0
  9 11  1  0
  9 12  1  0
 12 13  1  0
 13 14  2  0
 13 15  2  0
 13 16  1  0
 16 17  2  0
 17 18  1  0
 17 19  1  0
 19 20  1  0
 19 21  2  0
 21 22  1  0
 21 23  1  0
 23 24  1  0
 23 25  2  0
 25 26  1  0
 26 27  1  0
 27 28  2  0
 27 29  1  0
 29 30  1  0
 29 31  2  0
 31 32  1  0
 32 33  1  0
 32 34  1  0
 32 35  1  0
 31 36  1  0
 36 37  2  0
 37 38  1  0
 37 39  1  0
 39 40  2  0
 40 41  1  0
 40 42  1  0
 42 43  1  0
 43 44  2  0
 43 45  1  0
 45 46  1  0
 46 47  2  0
 36 48  1  0
 48 49  2  0
 49 50  1  0
 49 51  1  0
 25 16  1  0
 48 26  1  0
 46 39  1  0
M  CHG  4  12  -1  41  -1  42  -1  45  -1
M  END
>  <UniqueID>  (53) 
44

>  <SMILES>  (53) 
C=c1/c(=C\c2c([O-])[n-]c(=O)[n-]c2=O)c(C)cc(=O)n1-c1ccccc1S(=O)(=O)[N-]CCCO

>  <Energy>  (53) 
89.30321901335836

>  <Genealogy>  (53) 
C=c1c(=Cc2c([O-])[n-]c(=O)[n-]c2=O)c(C)cc(=O)n1-c1ccccc1S(=O)(=O)[N-]CCCO (protonated)
C=c1/c(=C\c2c([O-])[n-]c(=O)[n-]c2=O)c(C)cc(=O)n1-c1ccccc1S(=O)(=O)[N-]CCCO (cis-trans isomerization)
C=c1/c(=C\c2c([O-])[n-]c(=O)[n-]c2=O)c(C)cc(=O)n1-c1ccccc1S(=O)(=O)[N-]CCCO (3D coordinates assigned)
C=c1/c(=C\c2c([O-])[n-]c(=O)[n-]c2=O)c(C)cc(=O)n1-c1ccccc1S(=O)(=O)[N-]CCCO (optimized conformer: 89.30321901335836 kcal/mol)

>  <smiles>  (53) 
C=c1c(=Cc2c(O)[nH]c(=O)[nH]c2=O)c(C)cc(=O)n1-c1ccccc1S(=O)(=O)NCCCO

>  <score_type>  (53) 
oracle

>  <origin>  (53) 
adg

>  <m_score__min__energy>  (53) 
-16.09

>  <m_primary>  (53) 
energy

$$$$
54:0
     RDKit          3D

 45 47  0  0  0  0  0  0  0  0999 V2000
   55.2210   29.3620   44.8420 N   0  0  0  0  0  0  0  0  0  0  0  0
   56.4980   29.8610   44.4430 C   0  0  0  0  0  0  0  0  0  0  0  0
   56.6100   30.4220   43.3210 O   0  0  0  0  0  0  0  0  0  0  0  0
   57.6780   29.6930   45.3280 C   0  0  0  0  0  0  0  0  0  0  0  0
   58.1170   28.3910   45.6410 C   0  0  0  0  0  0  0  0  0  0  0  0
   59.2570   28.1890   46.4300 C   0  0  0  0  0  0  0  0  0  0  0  0
   59.8310   26.5620   46.7880 S   0  0  0  0  0  0  0  0  0  0  0  0
   61.1280   26.3330   46.0660 O   0  0  0  0  0  0  0  0  0  0  0  0
   60.0660   26.4000   48.2640 O   0  0  0  0  0  0  0  0  0  0  0  0
   58.6650   25.3920   46.2540 N   0  0  0  0  0  0  0  0  0  0  0  0
   57.4610   25.4800   47.0750 C   0  0  0  0  0  0  0  0  0  0  0  0
   56.3700   24.6610   46.4440 C   0  0  0  0  0  0  0  0  0  0  0  0
   56.4800   23.2600   46.4100 C   0  0  0  0  0  0  0  0  0  0  0  0
   55.4580   22.4850   45.8550 C   0  0  0  0  0  0  0  0  0  0  0  0
   54.3130   23.0990   45.3410 C   0  0  0  0  0  0  0  0  0  0  0  0
   54.1850   24.4890   45.3870 C   0  0  0  0  0  0  0  0  0  0  0  0
   55.2040   25.2720   45.9410 C   0  0  0  0  0  0  0  0  0  0  0  0
   55.0500   26.6540   45.9910 O   0  0  0  0  0  0  0  0  0  0  0  0
   59.9700   29.2900   46.9120 C   0  0  0  0  0  0  0  0  0  0  0  0
   59.5420   30.5840   46.6220 C   0  0  0  0  0  0  0  0  0  0  0  0
   58.3980   30.8010   45.8390 C   0  0  0  0  0  0  0  0  0  0  0  0
   57.9510   32.1490   45.6260 N   0  0  0  0  0  0  0  0  0  0  0  0
   57.5920   33.0000   46.7600 C   0  0  0  0  0  0  0  0  0  0  0  0
   58.4840   34.2450   46.7440 C   0  0  0  0  0  0  0  0  0  0  0  0
   58.4160   34.8960   45.4860 O   0  0  0  0  0  0  0  0  0  0  0  0
   58.9440   34.0550   44.4740 C   0  0  0  0  0  0  0  0  0  0  0  0
   58.0940   32.7900   44.3180 C   0  0  0  0  0  0  0  0  0  0  0  0
   55.1310   28.6960   45.6400 H   0  0  0  0  0  0  0  0  0  0  0  0
   57.5580   27.5230   45.2614 H   0  0  0  0  0  0  0  0  0  0  0  0
   57.6742   25.0942   48.0828 H   0  0  0  0  0  0  0  0  0  0  0  0
   57.1396   26.5295   47.1474 H   0  0  0  0  0  0  0  0  0  0  0  0
   57.3750   22.7712   46.8223 H   0  0  0  0  0  0  0  0  0  0  0  0
   55.5552   21.3898   45.8228 H   0  0  0  0  0  0  0  0  0  0  0  0
   53.5121   22.4874   44.9000 H   0  0  0  0  0  0  0  0  0  0  0  0
   53.2803   24.9698   44.9865 H   0  0  0  0  0  0  0  0  0  0  0  0
   60.8719   29.1347   47.5222 H   0  0  0  0  0  0  0  0  0  0  0  0
   60.1067   31.4442   47.0109 H   0  0  0  0  0  0  0  0  0  0  0  0
   56.5369   33.3000   46.6778 H   0  0  0  0  0  0  0  0  0  0  0  0
   57.7357   32.4491   47.7012 H   0  0  0  0  0  0  0  0  0  0  0  0
   58.1483   34.9395   47.5282 H   0  0  0  0  0  0  0  0  0  0  0  0
   59.5240   33.9364   46.9260 H   0  0  0  0  0  0  0  0  0  0  0  0
   58.9544   34.6022   43.5198 H   0  0  0  0  0  0  0  0  0  0  0  0
   59.9650   33.7603   44.7583 H   0  0  0  0  0  0  0  0  0  0  0  0
   57.1011   33.0584   43.9281 H   0  0  0  0  0  0  0  0  0  0  0  0
   58.5820   32.0980   43.6159 H   0  0  0  0  0  0  0  0  0  0  0  0
  1  2  1  0
  2  3  2  0
  2  4  1  0
  4  5  2  0
  5  6  1  0
  6  7  1  0
  7  8  2  0
  7  9  2  0
  7 10  1  0
 10 11  1  0
 11 12  1  0
 12 13  2  0
 13 14  1  0
 14 15  2  0
 15 16  1  0
 16 17  2  0
 17 18  1  0
  6 19  2  0
 19 20  1  0
 20 21  2  0
 21 22  1  0
 22 23  1  0
 23 24  1  0
 24 25  1  0
 25 26  1  0
 26 27  1  0
 21  4  1  0
 27 22  1  0
 17 12  1  0
  1 28  1  0
  5 29  1  0
 11 30  1  0
 11 31  1  0
 13 32  1  0
 14 33  1  0
 15 34  1  0
 16 35  1  0
 19 36  1  0
 20 37  1  0
 23 38  1  0
 23 39  1  0
 24 40  1  0
 24 41  1  0
 26 42  1  0
 26 43  1  0
 27 44  1  0
 27 45  1  0
M  CHG  3   1  -1  10  -1  18  -1
M  END
>  <UniqueID>  (54) 
45

>  <SMILES>  (54) 
[NH-]C(=O)c1cc(S(=O)(=O)[N-]Cc2ccccc2[O-])ccc1N1CCOCC1

>  <Energy>  (54) 
54.732324801175544

>  <Genealogy>  (54) 
[NH-]C(=O)c1cc(S(=O)(=O)[N-]Cc2ccccc2[O-])ccc1N1CCOCC1 (protonated)
[NH-]C(=O)c1cc(S(=O)(=O)[N-]Cc2ccccc2[O-])ccc1N1CCOCC1 (3D coordinates assigned)
[NH-]C(=O)c1cc(S(=O)(=O)[N-]Cc2ccccc2[O-])ccc1N1CCOCC1 (nonaromatic ring conformer: 54.732324801175544 kcal/mol)

>  <smiles>  (54) 
NC(=O)c1cc(S(=O)(=O)NCc2ccccc2O)ccc1N1CCOCC1

>  <score_type>  (54) 
oracle

>  <origin>  (54) 
adg

>  <m_score__min__energy>  (54) 
-16.649999999999999

>  <m_primary>  (54) 
energy

$$$$
55:0
     RDKit          3D

 36 38  0  0  0  0  0  0  0  0999 V2000
   56.9560   21.2820   43.6560 H   0  0  0  0  0  0  0  0  0  0  0  0
   56.1300   21.8250   43.4330 O   0  0  0  0  0  0  0  0  0  0  0  0
   55.7860   22.9600   44.1630 C   0  0  0  0  0  0  0  0  0  0  0  0
   54.4440   23.3360   44.3070 C   0  0  0  0  0  0  0  0  0  0  0  0
   53.6510   22.7272   43.8482 H   0  0  0  0  0  0  0  0  0  0  0  0
   54.1110   24.4840   45.0330 C   0  0  0  0  0  0  0  0  0  0  0  0
   53.0568   24.7795   45.1391 H   0  0  0  0  0  0  0  0  0  0  0  0
   55.1160   25.2580   45.6250 C   0  0  0  0  0  0  0  0  0  0  0  0
   54.7690   26.4110   46.3220 O   0  0  0  0  0  0  0  0  0  0  0  0
   56.4640   24.8690   45.5070 C   0  0  0  0  0  0  0  0  0  0  0  0
   57.5470   25.6860   46.0890 C   0  0  0  0  0  0  0  0  0  0  0  0
   58.2326   25.1839   46.7875 H   0  0  0  0  0  0  0  0  0  0  0  0
   57.7720   26.9950   45.8410 C   0  0  0  0  0  0  0  0  0  0  0  0
   56.7050   27.7440   45.4670 N   0  0  0  0  0  0  0  0  0  0  0  0
   56.8000   29.0680   45.2030 C   0  0  0  0  0  0  0  0  0  0  0  0
   55.7570   29.6970   44.8690 O   0  0  0  0  0  0  0  0  0  0  0  0
   58.0030   29.7130   45.3060 N   0  0  0  0  0  0  0  0  0  0  0  0
   58.0410   31.1300   45.0380 C   0  0  0  0  0  0  0  0  0  0  0  0
   58.0590   31.5970   43.7150 C   0  0  0  0  0  0  0  0  0  0  0  0
   58.0448   30.8817   42.8794 H   0  0  0  0  0  0  0  0  0  0  0  0
   58.0950   32.9710   43.4580 C   0  0  0  0  0  0  0  0  0  0  0  0
   58.1108   33.3354   42.4202 H   0  0  0  0  0  0  0  0  0  0  0  0
   58.1110   33.8830   44.5190 C   0  0  0  0  0  0  0  0  0  0  0  0
   58.1401   34.9635   44.3150 H   0  0  0  0  0  0  0  0  0  0  0  0
   58.0900   33.4210   45.8390 C   0  0  0  0  0  0  0  0  0  0  0  0
   58.1030   34.3060   46.8670 F   0  0  0  0  0  0  0  0  0  0  0  0
   58.0530   32.0470   46.0990 C   0  0  0  0  0  0  0  0  0  0  0  0
   58.0333   31.6851   47.1376 H   0  0  0  0  0  0  0  0  0  0  0  0
   59.1370   29.0080   45.6550 C   0  0  0  0  0  0  0  0  0  0  0  0
   60.3420   29.6150   45.7330 C   0  0  0  0  0  0  0  0  0  0  0  0
   60.4296   30.6920   45.5273 H   0  0  0  0  0  0  0  0  0  0  0  0
   61.2351   29.0320   46.0021 H   0  0  0  0  0  0  0  0  0  0  0  0
   59.0370   27.6210   45.9220 C   0  0  0  0  0  0  0  0  0  0  0  0
   60.0730   26.9530   46.2000 O   0  0  0  0  0  0  0  0  0  0  0  0
   56.7920   23.7310   44.7560 C   0  0  0  0  0  0  0  0  0  0  0  0
   57.8463   23.4427   44.6323 H   0  0  0  0  0  0  0  0  0  0  0  0
  1  2  1  0
  2  3  1  0
  3  4  2  0
  4  5  1  0
  4  6  1  0
  6  7  1  0
  6  8  2  0
  8  9  1  0
  8 10  1  0
 10 11  1  0
 11 12  1  0
 11 13  2  0
 13 14  1  0
 14 15  1  0
 15 16  2  0
 15 17  1  0
 17 18  1  0
 18 19  2  0
 19 20  1  0
 19 21  1  0
 21 22  1  0
 21 23  2  0
 23 24  1  0
 23 25  1  0
 25 26  1  0
 25 27  2  0
 27 28  1  0
 17 29  1  0
 29 30  2  0
 30 31  1  0
 30 32  1  0
 29 33  1  0
 33 34  2  0
 10 35  2  0
 35 36  1  0
 35  3  1  0
 33 13  1  0
 27 18  1  0
M  CHG  2   9  -1  14  -1
M  END
>  <UniqueID>  (55) 
46

>  <SMILES>  (55) 
C=c1c(=O)/c(=C\c2cc(O)ccc2[O-])[n-]c(=O)n1-c1cccc(F)c1

>  <Energy>  (55) 
67.98837009582134

>  <Genealogy>  (55) 
C=c1c(=O)c(=Cc2cc(O)ccc2[O-])[n-]c(=O)n1-c1cccc(F)c1 (protonated)
C=c1c(=O)/c(=C\c2cc(O)ccc2[O-])[n-]c(=O)n1-c1cccc(F)c1 (cis-trans isomerization)
C=c1c(=O)/c(=C\c2cc(O)ccc2[O-])[n-]c(=O)n1-c1cccc(F)c1 (3D coordinates assigned)
C=c1c(=O)/c(=C\c2cc(O)ccc2[O-])[n-]c(=O)n1-c1cccc(F)c1 (optimized conformer: 67.98837009582134 kcal/mol)

>  <smiles>  (55) 
C=c1c(=O)c(=Cc2cc(O)ccc2O)[nH]c(=O)n1-c1cccc(F)c1

>  <score_type>  (55) 
oracle

>  <origin>  (55) 
adg

>  <m_score__min__energy>  (55) 
-13.77

>  <m_primary>  (55) 
energy

$$$$
56:0
     RDKit          3D

 54 56  0  0  0  0  0  0  0  0999 V2000
   56.4760   22.4830   46.7910 H   0  0  0  0  0  0  0  0  0  0  0  0
   57.3680   23.0000   46.9590 N   0  0  0  0  0  0  0  0  0  0  0  0
   57.4810   24.2620   46.6930 C   0  0  0  0  0  0  0  0  0  0  0  0
   58.7090   24.8510   46.7130 N   0  0  0  0  0  0  0  0  0  0  0  0
   58.8790   26.1700   46.4410 C   0  0  0  0  0  0  0  0  0  0  0  0
   59.8865   26.6109   46.4640 H   0  0  0  0  0  0  0  0  0  0  0  0
   57.7750   26.9670   46.1320 C   0  0  0  0  0  0  0  0  0  0  0  0
   57.9480   28.3680   45.8470 C   0  0  0  0  0  0  0  0  0  0  0  0
   58.0940   29.5410   45.6130 C   0  0  0  0  0  0  0  0  0  0  0  0
   58.2590   30.9470   45.3330 C   0  0  0  0  0  0  0  0  0  0  0  0
   58.9220   31.7490   46.2660 C   0  0  0  0  0  0  0  0  0  0  0  0
   59.3309   31.2989   47.1826 H   0  0  0  0  0  0  0  0  0  0  0  0
   59.0680   33.1230   46.0390 C   0  0  0  0  0  0  0  0  0  0  0  0
   59.7780   33.9730   47.0200 C   0  0  0  0  0  0  0  0  0  0  0  0
   59.3920   35.1630   47.1890 O   0  0  0  0  0  0  0  0  0  0  0  0
   60.9060   33.4800   47.7670 N   0  0  0  0  0  0  0  0  0  0  0  0
   61.9060   32.6200   47.1170 C   0  0  0  0  0  0  0  0  0  0  0  0
   61.5440   31.5813   47.1171 H   0  0  0  0  0  0  0  0  0  0  0  0
   62.0578   32.9706   46.0855 H   0  0  0  0  0  0  0  0  0  0  0  0
   63.2420   32.6870   47.8620 C   0  0  0  0  0  0  0  0  0  0  0  0
   63.1939   32.0556   48.7615 H   0  0  0  0  0  0  0  0  0  0  0  0
   64.0490   32.3256   47.2077 H   0  0  0  0  0  0  0  0  0  0  0  0
   63.5070   34.0760   48.2510 N   0  0  0  0  0  0  0  0  0  0  0  0
   64.4730   34.1250   48.6510 H   0  0  0  0  0  0  0  0  0  0  0  0
   62.5580   34.5560   49.2730 C   0  0  0  0  0  0  0  0  0  0  0  0
   62.9564   34.3003   50.2659 H   0  0  0  0  0  0  0  0  0  0  0  0
   62.4532   35.6420   49.1333 H   0  0  0  0  0  0  0  0  0  0  0  0
   61.1480   33.9420   49.1390 C   0  0  0  0  0  0  0  0  0  0  0  0
   61.0600   33.0884   49.8272 H   0  0  0  0  0  0  0  0  0  0  0  0
   60.4039   34.7134   49.3864 H   0  0  0  0  0  0  0  0  0  0  0  0
   58.5630   33.6650   44.8490 C   0  0  0  0  0  0  0  0  0  0  0  0
   58.6875   34.7381   44.6415 H   0  0  0  0  0  0  0  0  0  0  0  0
   57.9200   32.8730   43.9490 N   0  0  0  0  0  0  0  0  0  0  0  0
   57.5480   33.3170   43.0800 H   0  0  0  0  0  0  0  0  0  0  0  0
   57.7600   31.5320   44.1490 C   0  0  0  0  0  0  0  0  0  0  0  0
   57.0110   30.7180   43.1190 C   0  0  0  0  0  0  0  0  0  0  0  0
   56.7205   31.3723   42.2839 H   0  0  0  0  0  0  0  0  0  0  0  0
   57.6673   29.9106   42.7621 H   0  0  0  0  0  0  0  0  0  0  0  0
   55.7580   30.0970   43.7270 C   0  0  0  0  0  0  0  0  0  0  0  0
   55.8272   30.1313   44.8243 H   0  0  0  0  0  0  0  0  0  0  0  0
   54.8726   30.6606   43.3977 H   0  0  0  0  0  0  0  0  0  0  0  0
   55.6703   29.0511   43.3977 H   0  0  0  0  0  0  0  0  0  0  0  0
   56.5010   26.3920   46.1070 C   0  0  0  0  0  0  0  0  0  0  0  0
   55.6233   27.0112   45.8699 H   0  0  0  0  0  0  0  0  0  0  0  0
   56.3400   25.0210   46.3850 C   0  0  0  0  0  0  0  0  0  0  0  0
   55.0840   24.3870   46.3730 O   0  0  0  0  0  0  0  0  0  0  0  0
   54.2650   24.1810   45.2230 C   0  0  0  0  0  0  0  0  0  0  0  0
   53.3668   23.6183   45.5174 H   0  0  0  0  0  0  0  0  0  0  0  0
   53.9878   25.1623   44.8105 H   0  0  0  0  0  0  0  0  0  0  0  0
   55.0170   23.3950   44.1460 C   0  0  0  0  0  0  0  0  0  0  0  0
   54.2937   22.9870   43.4246 H   0  0  0  0  0  0  0  0  0  0  0  0
   55.7197   24.0718   43.6379 H   0  0  0  0  0  0  0  0  0  0  0  0
   55.7400   22.3400   44.7210 O   0  0  0  0  0  0  0  0  0  0  0  0
   56.1600   22.7000   45.5450 H   0  0  0  0  0  0  0  0  0  0  0  0
  1  2  1  0
  2  3  2  0
  3  4  1  0
  4  5  1  0
  5  6  1  0
  5  7  2  0
  7  8  1  0
  8  9  3  0
  9 10  1  0
 10 11  2  0
 11 12  1  0
 11 13  1  0
 13 14  1  0
 14 15  2  0
 14 16  1  0
 16 17  1  0
 17 18  1  0
 17 19  1  0
 17 20  1  0
 20 21  1  0
 20 22  1  0
 20 23  1  0
 23 24  1  0
 23 25  1  0
 25 26  1  0
 25 27  1  0
 25 28  1  0
 28 29  1  0
 28 30  1  0
 13 31  2  0
 31 32  1  0
 31 33  1  0
 33 34  1  0
 33 35  2  0
 35 36  1  0
 36 37  1  0
 36 38  1  0
 36 39  1  0
 39 40  1  0
 39 41  1  0
 39 42  1  0
  7 43  1  0
 43 44  1  0
 43 45  2  0
 45 46  1  0
 46 47  1  0
 47 48  1  0
 47 49  1  0
 47 50  1  0
 50 51  1  0
 50 52  1  0
 50 53  1  0
 53 54  1  0
 45  3  1  0
 35 10  1  0
 28 16  1  0
M  CHG  2   4  -1  33   1
M  END
>  <UniqueID>  (56) 
47

>  <SMILES>  (56) 
[H]/N=c1\[n-]cc(C#Cc2cc(C(=O)N3CCNCC3)c[nH+]c2CC)cc1OCCO

>  <Energy>  (56) 
57.1475428401564

>  <Genealogy>  (56) 
CCc1[nH+]cc(C(=O)N2CCNCC2)cc1C#Cc1c[n-]c(=N)c(OCCO)c1 (protonated)
[H]/N=c1\[n-]cc(C#Cc2cc(C(=O)N3CCNCC3)c[nH+]c2CC)cc1OCCO (cis-trans isomerization)
[H]/N=c1\[n-]cc(C#Cc2cc(C(=O)N3CCNCC3)c[nH+]c2CC)cc1OCCO (3D coordinates assigned)
[H]/N=c1\[n-]cc(C#Cc2cc(C(=O)N3CCNCC3)c[nH+]c2CC)cc1OCCO (nonaromatic ring conformer: 57.1475428401564 kcal/mol)

>  <smiles>  (56) 
CCc1ncc(C(=O)N2CCNCC2)cc1C#Cc1c[nH]c(=N)c(OCCO)c1

>  <score_type>  (56) 
oracle

>  <origin>  (56) 
adg

>  <m_score__min__energy>  (56) 
-8.3599999999999994

>  <m_primary>  (56) 
energy

$$$$
57:0
     RDKit          3D

 51 54  0  0  0  0  0  0  0  0999 V2000
   58.6208   34.9843   43.9308 H   0  0  0  0  0  0  0  0  0  0  0  0
   58.3440   34.1190   44.5510 C   0  0  0  0  0  0  0  0  0  0  0  0
   57.5330   33.1240   44.1020 N   0  0  0  0  0  0  0  0  0  0  0  0
   57.3390   32.1780   45.0480 C   0  0  0  0  0  0  0  0  0  0  0  0
   56.6050   31.1170   44.8850 N   0  0  0  0  0  0  0  0  0  0  0  0
   56.8880   30.0140   44.0090 C   0  0  0  0  0  0  0  0  0  0  0  0
   56.2840   29.8920   42.9100 O   0  0  0  0  0  0  0  0  0  0  0  0
   57.9100   29.0690   44.3420 N   0  0  0  0  0  0  0  0  0  0  0  0
   58.6650   29.0360   45.5620 C   0  0  0  0  0  0  0  0  0  0  0  0
   59.8690   29.7470   45.7110 C   0  0  0  0  0  0  0  0  0  0  0  0
   60.2652   30.3355   44.8704 H   0  0  0  0  0  0  0  0  0  0  0  0
   60.5650   29.7090   46.9240 C   0  0  0  0  0  0  0  0  0  0  0  0
   61.5183   30.2484   47.0252 H   0  0  0  0  0  0  0  0  0  0  0  0
   60.0520   28.9850   48.0140 C   0  0  0  0  0  0  0  0  0  0  0  0
   60.7440   28.9010   49.2680 N   0  0  0  0  0  0  0  0  0  0  0  0
   61.1210   29.9980   50.1130 C   0  0  0  0  0  0  0  0  0  0  0  0
   62.3400   30.2740   50.2830 O   0  0  0  0  0  0  0  0  0  0  0  0
   60.0780   30.8410   50.7440 C   0  0  0  0  0  0  0  0  0  0  0  0
   60.3920   31.6600   51.8460 C   0  0  0  0  0  0  0  0  0  0  0  0
   61.4185   31.6750   52.2410 H   0  0  0  0  0  0  0  0  0  0  0  0
   59.4070   32.4540   52.4410 C   0  0  0  0  0  0  0  0  0  0  0  0
   59.6618   33.0922   53.2999 H   0  0  0  0  0  0  0  0  0  0  0  0
   58.1010   32.4390   51.9480 C   0  0  0  0  0  0  0  0  0  0  0  0
   57.1470   33.2090   52.5280 F   0  0  0  0  0  0  0  0  0  0  0  0
   57.7760   31.6290   50.8570 C   0  0  0  0  0  0  0  0  0  0  0  0
   56.7466   31.6165   50.4694 H   0  0  0  0  0  0  0  0  0  0  0  0
   58.7580   30.8340   50.2570 C   0  0  0  0  0  0  0  0  0  0  0  0
   58.4964   30.1986   49.3980 H   0  0  0  0  0  0  0  0  0  0  0  0
   58.8520   28.2780   47.8610 C   0  0  0  0  0  0  0  0  0  0  0  0
   58.4554   27.6873   48.6999 H   0  0  0  0  0  0  0  0  0  0  0  0
   58.1560   28.3180   46.6510 C   0  0  0  0  0  0  0  0  0  0  0  0
   57.2008   27.7815   46.5527 H   0  0  0  0  0  0  0  0  0  0  0  0
   58.1530   32.5260   46.4750 S   0  0  0  0  0  0  0  0  0  0  0  0
   58.7960   33.9560   45.8570 C   0  0  0  0  0  0  0  0  0  0  0  0
   59.6850   34.9020   46.6050 C   0  0  0  0  0  0  0  0  0  0  0  0
   59.1037   35.3912   47.4005 H   0  0  0  0  0  0  0  0  0  0  0  0
   60.0752   35.6519   45.9012 H   0  0  0  0  0  0  0  0  0  0  0  0
   60.8500   34.1640   47.2240 C   0  0  0  0  0  0  0  0  0  0  0  0
   61.9480   33.8330   46.4090 C   0  0  0  0  0  0  0  0  0  0  0  0
   61.9321   34.0965   45.3411 H   0  0  0  0  0  0  0  0  0  0  0  0
   63.0570   33.1740   46.9410 C   0  0  0  0  0  0  0  0  0  0  0  0
   63.9064   32.9162   46.2914 H   0  0  0  0  0  0  0  0  0  0  0  0
   63.0900   32.8420   48.2940 C   0  0  0  0  0  0  0  0  0  0  0  0
   63.9645   32.3203   48.7100 H   0  0  0  0  0  0  0  0  0  0  0  0
   62.0160   33.1700   49.1220 C   0  0  0  0  0  0  0  0  0  0  0  0
   62.0489   32.9027   50.1885 H   0  0  0  0  0  0  0  0  0  0  0  0
   60.8920   33.8390   48.6060 C   0  0  0  0  0  0  0  0  0  0  0  0
   59.7520   34.1740   49.5320 C   0  0  0  0  0  0  0  0  0  0  0  0
   60.0862   34.0758   50.5754 H   0  0  0  0  0  0  0  0  0  0  0  0
   59.4219   35.2071   49.3484 H   0  0  0  0  0  0  0  0  0  0  0  0
   58.9155   33.4837   49.3484 H   0  0  0  0  0  0  0  0  0  0  0  0
  1  2  1  0
  2  3  1  0
  3  4  1  0
  4  5  2  0
  5  6  1  0
  6  7  2  0
  6  8  1  0
  8  9  1  0
  9 10  2  0
 10 11  1  0
 10 12  1  0
 12 13  1  0
 12 14  2  0
 14 15  1  0
 15 16  1  0
 16 17  2  0
 16 18  1  0
 18 19  2  0
 19 20  1  0
 19 21  1  0
 21 22  1  0
 21 23  2  0
 23 24  1  0
 23 25  1  0
 25 26  1  0
 25 27  2  0
 27 28  1  0
 14 29  1  0
 29 30  1  0
 29 31  2  0
 31 32  1  0
  4 33  1  0
 33 34  1  0
 34 35  1  0
 35 36  1  0
 35 37  1  0
 35 38  1  0
 38 39  2  0
 39 40  1  0
 39 41  1  0
 41 42  1  0
 41 43  2  0
 43 44  1  0
 43 45  1  0
 45 46  1  0
 45 47  2  0
 47 48  1  0
 48 49  1  0
 48 50  1  0
 48 51  1  0
 34  2  2  0
 47 38  1  0
 31  9  1  0
 27 18  1  0
M  CHG  3   3  -1   8  -1  15  -1
M  END
>  <UniqueID>  (57) 
48

>  <SMILES>  (57) 
Cc1ccccc1Cc1c[n-]/c(=N\C(=O)[N-]c2ccc([N-]C(=O)c3ccc(F)cc3)cc2)s1

>  <Energy>  (57) 
94.9476499026885

>  <Genealogy>  (57) 
Cc1ccccc1Cc1c[n-]c(=NC(=O)[N-]c2ccc([N-]C(=O)c3ccc(F)cc3)cc2)s1 (protonated)
Cc1ccccc1Cc1c[n-]/c(=N\C(=O)[N-]c2ccc([N-]C(=O)c3ccc(F)cc3)cc2)s1 (cis-trans isomerization)
Cc1ccccc1Cc1c[n-]/c(=N\C(=O)[N-]c2ccc([N-]C(=O)c3ccc(F)cc3)cc2)s1 (3D coordinates assigned)
Cc1ccccc1Cc1c[n-]/c(=N\C(=O)[N-]c2ccc([N-]C(=O)c3ccc(F)cc3)cc2)s1 (optimized conformer: 94.9476499026885 kcal/mol)

>  <smiles>  (57) 
Cc1ccccc1Cc1c[nH]c(=NC(=O)Nc2ccc(NC(=O)c3ccc(F)cc3)cc2)s1

>  <score_type>  (57) 
oracle

>  <origin>  (57) 
adg

>  <m_score__min__energy>  (57) 
-12.699999999999999

>  <m_primary>  (57) 
energy

$$$$
58:0
     RDKit          3D

 55 58  0  0  0  0  0  0  0  0999 V2000
   57.8010   32.0000   47.2140 O   0  0  0  0  0  0  0  0  0  0  0  0
   57.7100   32.7350   46.1900 C   0  0  0  0  0  0  0  0  0  0  0  0
   58.4740   34.0350   46.1310 C   0  0  0  0  0  0  0  0  0  0  0  0
   59.7260   33.9750   46.9670 C   0  0  0  0  0  0  0  0  0  0  0  0
   60.9480   33.6240   46.3740 C   0  0  0  0  0  0  0  0  0  0  0  0
   62.1020   33.5030   47.1480 C   0  0  0  0  0  0  0  0  0  0  0  0
   62.0600   33.7320   48.5390 C   0  0  0  0  0  0  0  0  0  0  0  0
   63.2560   33.6060   49.3410 N   0  0  0  0  0  0  0  0  0  0  0  0
   63.3460   34.0220   50.7310 C   0  0  0  0  0  0  0  0  0  0  0  0
   64.8140   33.8870   51.1120 C   0  0  0  0  0  0  0  0  0  0  0  0
   65.4370   32.9870   50.0520 C   0  0  0  0  0  0  0  0  0  0  0  0
   64.5140   33.0670   48.8460 C   0  0  0  0  0  0  0  0  0  0  0  0
   60.8290   34.0850   49.1280 C   0  0  0  0  0  0  0  0  0  0  0  0
   59.6720   34.1990   48.3500 C   0  0  0  0  0  0  0  0  0  0  0  0
   56.7940   32.3450   45.1560 N   0  0  0  0  0  0  0  0  0  0  0  0
   57.1090   31.5830   43.9490 C   0  0  0  0  0  0  0  0  0  0  0  0
   56.9700   30.0870   44.1570 C   0  0  0  0  0  0  0  0  0  0  0  0
   55.8700   29.6630   44.4850 O   0  0  0  0  0  0  0  0  0  0  0  0
   58.0830   29.1440   44.0900 N   0  0  2  0  0  0  0  0  0  0  0  0
   57.7600   27.8680   44.7620 C   0  0  0  0  0  0  0  0  0  0  0  0
   57.6800   28.0200   46.2840 C   0  0  0  0  0  0  0  0  0  0  0  0
   58.8830   28.7390   46.8240 C   0  0  0  0  0  0  0  0  0  0  0  0
   59.2130   28.6130   48.1830 C   0  0  0  0  0  0  0  0  0  0  0  0
   60.3060   29.3050   48.7100 C   0  0  0  0  0  0  0  0  0  0  0  0
   61.0660   30.1440   47.8950 C   0  0  0  0  0  0  0  0  0  0  0  0
   60.7350   30.2950   46.5470 C   0  0  0  0  0  0  0  0  0  0  0  0
   59.6430   29.6020   46.0030 C   0  0  0  0  0  0  0  0  0  0  0  0
   59.3960   29.6830   44.5140 C   0  0  0  0  0  0  0  0  0  0  0  0
   58.7506   34.2405   45.0864 H   0  0  0  0  0  0  0  0  0  0  0  0
   57.8301   34.8334   46.5285 H   0  0  0  0  0  0  0  0  0  0  0  0
   60.9964   33.4428   45.2901 H   0  0  0  0  0  0  0  0  0  0  0  0
   63.0531   33.2266   46.6694 H   0  0  0  0  0  0  0  0  0  0  0  0
   63.0167   35.0658   50.8402 H   0  0  0  0  0  0  0  0  0  0  0  0
   62.7023   33.4089   51.3789 H   0  0  0  0  0  0  0  0  0  0  0  0
   65.3019   34.8729   51.1123 H   0  0  0  0  0  0  0  0  0  0  0  0
   64.9333   33.4662   52.1213 H   0  0  0  0  0  0  0  0  0  0  0  0
   66.4432   33.3451   49.7887 H   0  0  0  0  0  0  0  0  0  0  0  0
   65.5449   31.9530   50.4114 H   0  0  0  0  0  0  0  0  0  0  0  0
   64.9407   33.7325   48.0812 H   0  0  0  0  0  0  0  0  0  0  0  0
   64.3746   32.0812   48.3783 H   0  0  0  0  0  0  0  0  0  0  0  0
   60.7776   34.2728   50.2106 H   0  0  0  0  0  0  0  0  0  0  0  0
   58.7163   34.4654   48.8250 H   0  0  0  0  0  0  0  0  0  0  0  0
   56.4237   31.8933   43.1464 H   0  0  0  0  0  0  0  0  0  0  0  0
   58.1571   31.7891   43.6862 H   0  0  0  0  0  0  0  0  0  0  0  0
   58.1900   28.9110   43.0700 H   0  0  0  0  0  0  0  0  0  0  0  0
   56.7894   27.5077   44.3904 H   0  0  0  0  0  0  0  0  0  0  0  0
   58.5654   27.1537   44.5357 H   0  0  0  0  0  0  0  0  0  0  0  0
   56.7758   28.5918   46.5401 H   0  0  0  0  0  0  0  0  0  0  0  0
   57.6451   27.0160   46.7321 H   0  0  0  0  0  0  0  0  0  0  0  0
   58.6080   27.9664   48.8356 H   0  0  0  0  0  0  0  0  0  0  0  0
   60.5684   29.1879   49.7718 H   0  0  0  0  0  0  0  0  0  0  0  0
   61.9261   30.6866   48.3143 H   0  0  0  0  0  0  0  0  0  0  0  0
   61.3336   30.9609   45.9080 H   0  0  0  0  0  0  0  0  0  0  0  0
   59.4501   30.7392   44.2115 H   0  0  0  0  0  0  0  0  0  0  0  0
   60.1653   29.0633   44.0300 H   0  0  0  0  0  0  0  0  0  0  0  0
  1  2  2  0
  2  3  1  0
  3  4  1  0
  4  5  2  0
  5  6  1  0
  6  7  2  0
  7  8  1  0
  8  9  1  0
  9 10  1  0
 10 11  1  0
 11 12  1  0
  7 13  1  0
 13 14  2  0
  2 15  1  0
 15 16  1  0
 16 17  1  0
 17 18  2  0
 17 19  1  0
 19 20  1  0
 20 21  1  0
 21 22  1  0
 22 23  2  0
 23 24  1  0
 24 25  2  0
 25 26  1  0
 26 27  2  0
 27 28  1  0
 14  4  1  0
 28 19  1  0
 12  8  1  0
 27 22  1  0
  3 29  1  0
  3 30  1  0
  5 31  1  0
  6 32  1  0
  9 33  1  0
  9 34  1  0
 10 35  1  0
 10 36  1  0
 11 37  1  0
 11 38  1  0
 12 39  1  0
 12 40  1  0
 13 41  1  0
 14 42  1  0
 16 43  1  0
 16 44  1  0
 19 45  1  6
 20 46  1  0
 20 47  1  0
 21 48  1  0
 21 49  1  0
 23 50  1  0
 24 51  1  0
 25 52  1  0
 26 53  1  0
 28 54  1  0
 28 55  1  0
M  CHG  2  15  -1  19   1
M  END
>  <UniqueID>  (58) 
49

>  <SMILES>  (58) 
O=C(Cc1ccc(N2CCCC2)cc1)[N-]CC(=O)[N@@H+]1CCc2ccccc2C1

>  <Energy>  (58) 
68.24391322001124

>  <Genealogy>  (58) 
O=C(Cc1ccc(N2CCCC2)cc1)[N-]CC(=O)[NH+]1CCc2ccccc2C1 (protonated)
O=C(Cc1ccc(N2CCCC2)cc1)[N-]CC(=O)[N@@H+]1CCc2ccccc2C1 (chirality)
O=C(Cc1ccc(N2CCCC2)cc1)[N-]CC(=O)[N@@H+]1CCc2ccccc2C1 (3D coordinates assigned)
O=C(Cc1ccc(N2CCCC2)cc1)[N-]CC(=O)[N@@H+]1CCc2ccccc2C1 (nonaromatic ring conformer: 68.24391322001124 kcal/mol)

>  <smiles>  (58) 
O=C(Cc1ccc(N2CCCC2)cc1)NCC(=O)N1CCc2ccccc2C1

>  <score_type>  (58) 
oracle

>  <origin>  (58) 
adg

>  <m_score__min__energy>  (58) 
-9.0899999999999999

>  <m_primary>  (58) 
energy

$$$$
59:0
     RDKit          3D

 49 49  0  0  0  0  0  0  0  0999 V2000
   57.2900   24.6060   43.3980 C   0  0  0  0  0  0  0  0  0  0  0  0
   57.7280   25.7210   43.9880 C   0  0  0  0  0  0  0  0  0  0  0  0
   58.1080   26.9360   43.1890 C   0  0  0  0  0  0  0  0  0  0  0  0
   57.7300   28.1620   43.9010 N   0  0  0  0  0  0  0  0  0  0  0  0
   56.9250   29.2040   43.2470 C   0  0  0  0  0  0  0  0  0  0  0  0
   56.0920   29.9290   44.2580 C   0  0  0  0  0  0  0  0  0  0  0  0
   55.1520   29.3320   44.8490 O   0  0  0  0  0  0  0  0  0  0  0  0
   56.4020   31.2870   44.5780 N   0  0  0  0  0  0  0  0  0  0  0  0
   57.6770   31.9150   44.2600 C   0  0  0  0  0  0  0  0  0  0  0  0
   57.8380   33.2170   45.0550 C   0  0  0  0  0  0  0  0  0  0  0  0
   58.8510   33.1170   46.2090 C   0  0  0  0  0  0  0  0  0  0  0  0
   58.2010   32.7050   47.5300 C   0  0  0  0  0  0  0  0  0  0  0  0
   58.2520   28.3940   45.2210 C   0  0  0  0  0  0  0  0  0  0  0  0
   59.4280   29.1400   45.3860 C   0  0  0  0  0  0  0  0  0  0  0  0
   59.9800   29.3210   46.6610 C   0  0  0  0  0  0  0  0  0  0  0  0
   61.1650   30.0390   46.8150 O   0  0  0  0  0  0  0  0  0  0  0  0
   59.3410   28.7800   47.7870 C   0  0  0  0  0  0  0  0  0  0  0  0
   59.9490   28.9420   49.0800 N   0  0  0  0  0  0  0  0  0  0  0  0
   59.6960   29.8720   49.9590 C   0  0  0  0  0  0  0  0  0  0  0  0
   58.5480   29.7900   50.8390 C   0  0  0  0  0  0  0  0  0  0  0  0
   57.6320   29.7260   51.5430 N   0  0  0  0  0  0  0  0  0  0  0  0
   60.5520   31.0750   49.9890 C   0  0  0  0  0  0  0  0  0  0  0  0
   60.0860   32.3520   50.6220 C   0  0  0  0  0  0  0  0  0  0  0  0
   61.7020   31.0340   49.4740 O   0  0  0  0  0  0  0  0  0  0  0  0
   58.1750   28.0120   47.6150 C   0  0  0  0  0  0  0  0  0  0  0  0
   57.6290   27.8260   46.3420 C   0  0  0  0  0  0  0  0  0  0  0  0
   56.4700   27.0730   46.1950 O   0  0  0  0  0  0  0  0  0  0  0  0
   57.0188   23.7314   44.0075 H   0  0  0  0  0  0  0  0  0  0  0  0
   57.2004   24.5622   42.3025 H   0  0  0  0  0  0  0  0  0  0  0  0
   57.8127   25.7510   45.0843 H   0  0  0  0  0  0  0  0  0  0  0  0
   59.1956   26.9345   43.0242 H   0  0  0  0  0  0  0  0  0  0  0  0
   57.5769   26.9073   42.2261 H   0  0  0  0  0  0  0  0  0  0  0  0
   57.5946   29.9200   42.7481 H   0  0  0  0  0  0  0  0  0  0  0  0
   56.2604   28.7316   42.5086 H   0  0  0  0  0  0  0  0  0  0  0  0
   58.4956   31.2273   44.5190 H   0  0  0  0  0  0  0  0  0  0  0  0
   57.7061   32.1447   43.1846 H   0  0  0  0  0  0  0  0  0  0  0  0
   58.1741   34.0054   44.3655 H   0  0  0  0  0  0  0  0  0  0  0  0
   56.8597   33.4414   45.5051 H   0  0  0  0  0  0  0  0  0  0  0  0
   59.6138   32.3701   45.9440 H   0  0  0  0  0  0  0  0  0  0  0  0
   59.2914   34.1148   46.3521 H   0  0  0  0  0  0  0  0  0  0  0  0
   58.8020   33.0859   48.3689 H   0  0  0  0  0  0  0  0  0  0  0  0
   57.1858   33.1249   47.5858 H   0  0  0  0  0  0  0  0  0  0  0  0
   58.1475   31.6077   47.5858 H   0  0  0  0  0  0  0  0  0  0  0  0
   59.9201   29.5858   44.5090 H   0  0  0  0  0  0  0  0  0  0  0  0
   61.5840   30.1810   47.7260 H   0  0  0  0  0  0  0  0  0  0  0  0
   60.1221   32.2530   51.7169 H   0  0  0  0  0  0  0  0  0  0  0  0
   60.7407   33.1778   50.3067 H   0  0  0  0  0  0  0  0  0  0  0  0
   59.0533   32.5620   50.3067 H   0  0  0  0  0  0  0  0  0  0  0  0
   57.6892   27.5543   48.4893 H   0  0  0  0  0  0  0  0  0  0  0  0
  1  2  2  0
  2  3  1  0
  3  4  1  0
  4  5  1  0
  5  6  1  0
  6  7  2  0
  6  8  1  0
  8  9  1  0
  9 10  1  0
 10 11  1  0
 11 12  1  0
  4 13  1  0
 13 14  2  0
 14 15  1  0
 15 16  1  0
 15 17  2  0
 17 18  1  0
 18 19  2  3
 19 20  1  0
 20 21  3  0
 19 22  1  0
 22 23  1  0
 22 24  2  0
 17 25  1  0
 25 26  2  0
 26 27  1  0
 26 13  1  0
  1 28  1  0
  1 29  1  0
  2 30  1  0
  3 31  1  0
  3 32  1  0
  5 33  1  0
  5 34  1  0
  9 35  1  0
  9 36  1  0
 10 37  1  0
 10 38  1  0
 11 39  1  0
 11 40  1  0
 12 41  1  0
 12 42  1  0
 12 43  1  0
 14 44  1  0
 16 45  1  0
 23 46  1  0
 23 47  1  0
 23 48  1  0
 25 49  1  0
M  CHG  2   8  -1  27  -1
M  END
>  <UniqueID>  (59) 
50

>  <SMILES>  (59) 
C=CCN(CC(=O)[N-]CCCC)c1cc(O)c(N=C(C#N)C(C)=O)cc1[O-]

>  <Energy>  (59) 
41.84044293752921

>  <Genealogy>  (59) 
C=CCN(CC(=O)[N-]CCCC)c1cc(O)c(N=C(C#N)C(C)=O)cc1[O-] (protonated)
C=CCN(CC(=O)[N-]CCCC)c1cc(O)c(N=C(C#N)C(C)=O)cc1[O-] (3D coordinates assigned)
C=CCN(CC(=O)[N-]CCCC)c1cc(O)c(N=C(C#N)C(C)=O)cc1[O-] (optimized conformer: 41.84044293752921 kcal/mol)

>  <smiles>  (59) 
C=CCN(CC(=O)NCCCC)c1cc(O)c(N=C(C#N)C(C)=O)cc1O

>  <score_type>  (59) 
oracle

>  <origin>  (59) 
adg

>  <m_score__min__energy>  (59) 
-12.27

>  <m_primary>  (59) 
energy

$$$$
60:0
     RDKit          3D

 50 53  0  0  0  0  0  0  0  0999 V2000
   51.8013   30.2373   48.6994 H   0  0  0  0  0  0  0  0  0  0  0  0
   51.7270   30.5860   49.7400 C   0  0  0  0  0  0  0  0  0  0  0  0
   51.1920   31.7750   50.1840 C   0  0  0  0  0  0  0  0  0  0  0  0
   50.6510   32.7520   49.3600 O   0  0  0  0  0  0  0  0  0  0  0  0
   51.2560   31.8910   51.5230 N   0  0  0  0  0  0  0  0  0  0  0  0
   51.8350   30.7470   51.9420 C   0  0  0  0  0  0  0  0  0  0  0  0
   52.1410   30.4740   53.3590 C   0  0  0  0  0  0  0  0  0  0  0  0
   51.2110   30.1000   54.1230 O   0  0  0  0  0  0  0  0  0  0  0  0
   53.4460   30.6830   53.9130 N   0  0  0  0  0  0  0  0  0  0  0  0
   54.5660   30.4630   53.2920 C   0  0  0  0  0  0  0  0  0  0  0  0
   55.2840   29.3210   53.3980 N   0  0  0  0  0  0  0  0  0  0  0  0
   56.4080   29.3490   52.6860 N   0  0  0  0  0  0  0  0  0  0  0  0
   56.5840   30.5100   52.0180 C   0  0  0  0  0  0  0  0  0  0  0  0
   57.9970   30.8470   50.9720 S   0  0  0  0  0  0  0  0  0  0  0  0
   58.9060   29.3390   51.4530 C   0  0  0  0  0  0  0  0  0  0  0  0
   58.1885   28.5783   51.7943 H   0  0  0  0  0  0  0  0  0  0  0  0
   59.6077   29.5918   52.2615 H   0  0  0  0  0  0  0  0  0  0  0  0
   59.6810   28.7980   50.2960 C   0  0  0  0  0  0  0  0  0  0  0  0
   60.2650   27.6860   50.4020 O   0  0  0  0  0  0  0  0  0  0  0  0
   59.6830   29.5130   49.0540 N   0  0  0  0  0  0  0  0  0  0  0  0
   59.1410   29.0590   47.8050 C   0  0  0  0  0  0  0  0  0  0  0  0
   59.1470   27.7000   47.4380 C   0  0  0  0  0  0  0  0  0  0  0  0
   59.5614   26.9479   48.1255 H   0  0  0  0  0  0  0  0  0  0  0  0
   58.6280   27.3040   46.2030 C   0  0  0  0  0  0  0  0  0  0  0  0
   58.6226   26.2393   45.9267 H   0  0  0  0  0  0  0  0  0  0  0  0
   58.1160   28.2550   45.3180 C   0  0  0  0  0  0  0  0  0  0  0  0
   57.6971   27.9368   44.3519 H   0  0  0  0  0  0  0  0  0  0  0  0
   58.1350   29.6150   45.6590 C   0  0  0  0  0  0  0  0  0  0  0  0
   57.5270   30.8240   44.5280 S   0  0  0  0  0  0  0  0  0  0  0  0
   57.5620   30.2590   43.1340 O   0  0  0  0  0  0  0  0  0  0  0  0
   56.0910   31.1200   44.8640 O   0  0  0  0  0  0  0  0  0  0  0  0
   58.4480   32.3130   44.5720 N   0  0  0  0  0  0  0  0  0  0  0  0
   58.9340   32.6390   45.9260 C   0  0  0  0  0  0  0  0  0  0  0  0
   59.2339   31.7056   46.4248 H   0  0  0  0  0  0  0  0  0  0  0  0
   59.7787   33.3346   45.8135 H   0  0  0  0  0  0  0  0  0  0  0  0
   57.8670   33.3440   46.7990 C   0  0  0  0  0  0  0  0  0  0  0  0
   57.5639   32.6568   47.6026 H   0  0  0  0  0  0  0  0  0  0  0  0
   58.3235   34.2648   47.1911 H   0  0  0  0  0  0  0  0  0  0  0  0
   56.7140   33.7240   46.0750 O   0  0  0  0  0  0  0  0  0  0  0  0
   57.0940   34.4050   44.9020 C   0  0  0  0  0  0  0  0  0  0  0  0
   56.2018   34.8488   44.4361 H   0  0  0  0  0  0  0  0  0  0  0  0
   57.8156   35.1922   45.1659 H   0  0  0  0  0  0  0  0  0  0  0  0
   57.7560   33.4370   43.9070 C   0  0  0  0  0  0  0  0  0  0  0  0
   56.9785   33.0282   43.2449 H   0  0  0  0  0  0  0  0  0  0  0  0
   58.5129   34.0058   43.3470 H   0  0  0  0  0  0  0  0  0  0  0  0
   58.6490   30.0090   46.9030 C   0  0  0  0  0  0  0  0  0  0  0  0
   58.6656   31.0754   47.1723 H   0  0  0  0  0  0  0  0  0  0  0  0
   55.3210   31.5910   52.2990 S   0  0  0  0  0  0  0  0  0  0  0  0
   52.1490   29.9260   50.8710 C   0  0  0  0  0  0  0  0  0  0  0  0
   52.6385   28.9419   50.9160 H   0  0  0  0  0  0  0  0  0  0  0  0
  1  2  1  0
  2  3  2  0
  3  4  1  0
  3  5  1  0
  5  6  1  0
  6  7  1  0
  7  8  2  0
  7  9  1  0
  9 10  2  0
 10 11  1  0
 11 12  1  0
 12 13  2  0
 13 14  1  0
 14 15  1  0
 15 16  1  0
 15 17  1  0
 15 18  1  0
 18 19  2  0
 18 20  1  0
 20 21  1  0
 21 22  2  0
 22 23  1  0
 22 24  1  0
 24 25  1  0
 24 26  2  0
 26 27  1  0
 26 28  1  0
 28 29  1  0
 29 30  2  0
 29 31  2  0
 29 32  1  0
 32 33  1  0
 33 34  1  0
 33 35  1  0
 33 36  1  0
 36 37  1  0
 36 38  1  0
 36 39  1  0
 39 40  1  0
 40 41  1  0
 40 42  1  0
 40 43  1  0
 43 44  1  0
 43 45  1  0
 28 46  2  0
 46 47  1  0
 13 48  1  0
  6 49  2  0
 49 50  1  0
 49  2  1  0
 48 10  1  0
 46 21  1  0
 43 32  1  0
M  CHG  4   4  -1   5  -1  11  -1  20  -1
M  END
>  <UniqueID>  (60) 
51

>  <SMILES>  (60) 
O=C(CSc1n[n-]/c(=N\C(=O)c2ccc([O-])[n-]2)s1)[N-]c1cccc(S(=O)(=O)N2CCOCC2)c1

>  <Energy>  (60) 
127.72393967999831

>  <Genealogy>  (60) 
O=C(CSc1n[n-]c(=NC(=O)c2ccc([O-])[n-]2)s1)[N-]c1cccc(S(=O)(=O)N2CCOCC2)c1 (protonated)
O=C(CSc1n[n-]/c(=N\C(=O)c2ccc([O-])[n-]2)s1)[N-]c1cccc(S(=O)(=O)N2CCOCC2)c1 (cis-trans isomerization)
O=C(CSc1n[n-]/c(=N\C(=O)c2ccc([O-])[n-]2)s1)[N-]c1cccc(S(=O)(=O)N2CCOCC2)c1 (3D coordinates assigned)
O=C(CSc1n[n-]/c(=N\C(=O)c2ccc([O-])[n-]2)s1)[N-]c1cccc(S(=O)(=O)N2CCOCC2)c1 (nonaromatic ring conformer: 127.72393967999831 kcal/mol)

>  <smiles>  (60) 
O=C(CSc1n[nH]c(=NC(=O)c2ccc(O)[nH]2)s1)Nc1cccc(S(=O)(=O)N2CCOCC2)c1

>  <score_type>  (60) 
oracle

>  <origin>  (60) 
adg

>  <m_score__min__energy>  (60) 
-18.469999999999999

>  <m_primary>  (60) 
energy

$$$$
61:0
     RDKit          3D

 45 47  0  0  0  0  0  0  0  0999 V2000
   62.4642   35.1822   49.4623 H   0  0  0  0  0  0  0  0  0  0  0  0
   62.1430   34.3780   48.7840 C   0  0  0  0  0  0  0  0  0  0  0  0
   63.1500   33.8250   47.8530 C   0  0  0  0  0  0  0  0  0  0  0  0
   63.7540   34.5900   47.0550 O   0  0  0  0  0  0  0  0  0  0  0  0
   63.5030   32.4370   47.8740 N   0  0  0  0  0  0  0  0  0  0  0  0
   62.6690   31.3530   47.3620 C   0  0  0  0  0  0  0  0  0  0  0  0
   62.0303   31.7383   46.5535 H   0  0  0  0  0  0  0  0  0  0  0  0
   63.3199   30.5521   46.9813 H   0  0  0  0  0  0  0  0  0  0  0  0
   61.7850   30.7860   48.4760 C   0  0  0  0  0  0  0  0  0  0  0  0
   62.0209   29.7211   48.6185 H   0  0  0  0  0  0  0  0  0  0  0  0
   61.9792   31.3451   49.4032 H   0  0  0  0  0  0  0  0  0  0  0  0
   60.4050   30.9200   48.1370 O   0  0  0  0  0  0  0  0  0  0  0  0
   59.6800   30.0480   47.3080 C   0  0  0  0  0  0  0  0  0  0  0  0
   60.0700   28.7050   47.2630 C   0  0  0  0  0  0  0  0  0  0  0  0
   60.9239   28.3654   47.8676 H   0  0  0  0  0  0  0  0  0  0  0  0
   59.3850   27.7900   46.4570 C   0  0  0  0  0  0  0  0  0  0  0  0
   59.6965   26.7352   46.4385 H   0  0  0  0  0  0  0  0  0  0  0  0
   58.3020   28.2130   45.6720 C   0  0  0  0  0  0  0  0  0  0  0  0
   57.5370   27.2250   44.8350 C   0  0  0  0  0  0  0  0  0  0  0  0
   56.6448   27.7152   44.4183 H   0  0  0  0  0  0  0  0  0  0  0  0
   58.1831   26.8676   44.0196 H   0  0  0  0  0  0  0  0  0  0  0  0
   57.1150   26.0580   45.6730 C   0  0  0  0  0  0  0  0  0  0  0  0
   58.0920   24.7410   46.0640 S   0  0  0  0  0  0  0  0  0  0  0  0
   56.8450   23.9540   46.8730 C   0  0  0  0  0  0  0  0  0  0  0  0
   56.9620   22.8350   47.4360 O   0  0  0  0  0  0  0  0  0  0  0  0
   55.6900   24.6500   46.8520 N   0  0  0  0  0  0  0  0  0  0  0  0
   55.8380   25.8210   46.1770 C   0  0  0  0  0  0  0  0  0  0  0  0
   54.7800   26.7030   46.0060 O   0  0  0  0  0  0  0  0  0  0  0  0
   57.9040   29.5580   45.7180 C   0  0  0  0  0  0  0  0  0  0  0  0
   57.0473   29.8957   45.1163 H   0  0  0  0  0  0  0  0  0  0  0  0
   58.5900   30.4710   46.5240 C   0  0  0  0  0  0  0  0  0  0  0  0
   58.2766   31.5252   46.5458 H   0  0  0  0  0  0  0  0  0  0  0  0
   60.8670   33.9720   48.8630 C   0  0  0  0  0  0  0  0  0  0  0  0
   60.5122   33.6005   49.8357 H   0  0  0  0  0  0  0  0  0  0  0  0
   59.9000   33.9850   47.7440 C   0  0  0  0  0  0  0  0  0  0  0  0
   60.2520   34.6170   46.5410 C   0  0  0  0  0  0  0  0  0  0  0  0
   61.2504   35.0654   46.4307 H   0  0  0  0  0  0  0  0  0  0  0  0
   59.3410   34.6800   45.4820 C   0  0  0  0  0  0  0  0  0  0  0  0
   59.6300   35.1628   44.5368 H   0  0  0  0  0  0  0  0  0  0  0  0
   58.0630   34.1300   45.6230 C   0  0  0  0  0  0  0  0  0  0  0  0
   57.1600   34.1930   44.5690 O   0  0  0  0  0  0  0  0  0  0  0  0
   57.6930   33.5230   46.8270 C   0  0  0  0  0  0  0  0  0  0  0  0
   56.6859   33.0953   46.9399 H   0  0  0  0  0  0  0  0  0  0  0  0
   58.6020   33.4590   47.8880 C   0  0  0  0  0  0  0  0  0  0  0  0
   58.3014   32.9956   48.8393 H   0  0  0  0  0  0  0  0  0  0  0  0
  1  2  1  0
  2  3  1  0
  3  4  2  0
  3  5  1  0
  5  6  1  0
  6  7  1  0
  6  8  1  0
  6  9  1  0
  9 10  1  0
  9 11  1  0
  9 12  1  0
 12 13  1  0
 13 14  2  0
 14 15  1  0
 14 16  1  0
 16 17  1  0
 16 18  2  0
 18 19  1  0
 19 20  1  0
 19 21  1  0
 19 22  1  0
 22 23  1  0
 23 24  1  0
 24 25  2  0
 24 26  1  0
 26 27  1  0
 27 28  1  0
 18 29  1  0
 29 30  1  0
 29 31  2  0
 31 32  1  0
  2 33  2  0
 33 34  1  0
 33 35  1  0
 35 36  2  0
 36 37  1  0
 36 38  1  0
 38 39  1  0
 38 40  2  0
 40 41  1  0
 40 42  1  0
 42 43  1  0
 42 44  2  0
 44 45  1  0
 31 13  1  0
 44 35  1  0
 27 22  2  0
M  CHG  4   5  -1  26  -1  28  -1  41  -1
M  END
>  <UniqueID>  (61) 
52

>  <SMILES>  (61) 
O=C(/C=C\c1ccc([O-])cc1)[N-]CCOc1ccc(Cc2sc(=O)[n-]c2[O-])cc1

>  <Energy>  (61) 
81.178516791427

>  <Genealogy>  (61) 
O=C(C=Cc1ccc([O-])cc1)[N-]CCOc1ccc(Cc2sc(=O)[n-]c2[O-])cc1 (protonated)
O=C(/C=C\c1ccc([O-])cc1)[N-]CCOc1ccc(Cc2sc(=O)[n-]c2[O-])cc1 (cis-trans isomerization)
O=C(/C=C\c1ccc([O-])cc1)[N-]CCOc1ccc(Cc2sc(=O)[n-]c2[O-])cc1 (3D coordinates assigned)
O=C(/C=C\c1ccc([O-])cc1)[N-]CCOc1ccc(Cc2sc(=O)[n-]c2[O-])cc1 (optimized conformer: 81.178516791427 kcal/mol)

>  <smiles>  (61) 
O=C(C=Cc1ccc(O)cc1)NCCOc1ccc(Cc2sc(=O)[nH]c2O)cc1

>  <score_type>  (61) 
oracle

>  <origin>  (61) 
adg

>  <m_score__min__energy>  (61) 
-18.48

>  <m_primary>  (61) 
energy

$$$$
62:0
     RDKit          3D

 61 64  0  0  0  0  0  0  0  0999 V2000
   52.7600   30.1010   55.2200 C   0  0  0  0  0  0  0  0  0  0  0  0
   52.8290   30.6830   53.8340 C   0  0  0  0  0  0  0  0  0  0  0  0
   51.7420   31.4560   53.3890 C   0  0  0  0  0  0  0  0  0  0  0  0
   51.7100   31.9480   52.0810 C   0  0  0  0  0  0  0  0  0  0  0  0
   50.6150   32.6810   51.6400 O   0  0  0  0  0  0  0  0  0  0  0  0
   52.7740   31.7040   51.2090 C   0  0  0  0  0  0  0  0  0  0  0  0
   53.8790   30.9740   51.6520 C   0  0  0  0  0  0  0  0  0  0  0  0
   53.9290   30.4630   52.9610 C   0  0  0  0  0  0  0  0  0  0  0  0
   55.1190   29.6760   53.3470 C   0  0  0  0  0  0  0  0  0  0  0  0
   55.1400   28.4430   53.0900 O   0  0  0  0  0  0  0  0  0  0  0  0
   56.3060   30.2790   53.8770 N   0  0  0  0  0  0  0  0  0  0  0  0
   57.3400   30.9490   53.0930 C   0  0  0  0  0  0  0  0  0  0  0  0
   57.2600   30.5130   51.6230 C   0  0  0  0  0  0  0  0  0  0  0  0
   58.4560   30.9760   50.8240 C   0  0  0  0  0  0  0  0  0  0  0  0
   58.2990   31.9880   49.8600 C   0  0  0  0  0  0  0  0  0  0  0  0
   59.4020   32.4610   49.1250 C   0  0  0  0  0  0  0  0  0  0  0  0
   59.2340   33.5960   48.1460 C   0  0  0  0  0  0  0  0  0  0  0  0
   58.7080   33.0700   46.8360 C   0  0  0  0  0  0  0  0  0  0  0  0
   57.8580   33.8560   46.0360 C   0  0  0  0  0  0  0  0  0  0  0  0
   57.2940   33.3200   44.8740 C   0  0  0  0  0  0  0  0  0  0  0  0
   57.5710   32.0010   44.5020 C   0  0  0  0  0  0  0  0  0  0  0  0
   58.4340   31.2170   45.2710 C   0  0  0  0  0  0  0  0  0  0  0  0
   58.6770   29.8520   44.9020 N   0  0  0  0  0  0  0  0  0  0  0  0
   58.0490   28.7440   45.5580 C   0  0  0  0  0  0  0  0  0  0  0  0
   57.8480   28.7760   46.8110 O   0  0  0  0  0  0  0  0  0  0  0  0
   57.5230   27.6090   44.7450 C   0  0  0  0  0  0  0  0  0  0  0  0
   57.3910   26.3850   45.6180 C   0  0  0  0  0  0  0  0  0  0  0  0
   58.4960   25.5590   45.8550 C   0  0  0  0  0  0  0  0  0  0  0  0
   58.3690   24.4440   46.6220 N   0  0  0  0  0  0  0  0  0  0  0  0
   57.1730   24.1000   47.1580 C   0  0  0  0  0  0  0  0  0  0  0  0
   57.0810   23.0680   47.8760 O   0  0  0  0  0  0  0  0  0  0  0  0
   56.0760   24.8660   46.9230 N   0  0  0  0  0  0  0  0  0  0  0  0
   56.1550   25.9920   46.1650 C   0  0  0  0  0  0  0  0  0  0  0  0
   55.1170   26.6830   45.9730 O   0  0  0  0  0  0  0  0  0  0  0  0
   58.9900   31.7510   46.4470 C   0  0  0  0  0  0  0  0  0  0  0  0
   60.6610   31.8860   49.3360 C   0  0  0  0  0  0  0  0  0  0  0  0
   60.8220   30.8690   50.2800 C   0  0  0  0  0  0  0  0  0  0  0  0
   59.7350   30.4220   51.0360 C   0  0  0  0  0  0  0  0  0  0  0  0
   59.9380   29.4400   52.0010 O   0  0  0  0  0  0  0  0  0  0  0  0
   52.8556   30.9078   55.9616 H   0  0  0  0  0  0  0  0  0  0  0  0
   51.7951   29.5906   55.3558 H   0  0  0  0  0  0  0  0  0  0  0  0
   53.5789   29.3792   55.3558 H   0  0  0  0  0  0  0  0  0  0  0  0
   50.9107   31.6752   54.0752 H   0  0  0  0  0  0  0  0  0  0  0  0
   52.7414   32.0853   50.1777 H   0  0  0  0  0  0  0  0  0  0  0  0
   54.7217   30.7963   50.9677 H   0  0  0  0  0  0  0  0  0  0  0  0
   57.1958   32.0376   53.1570 H   0  0  0  0  0  0  0  0  0  0  0  0
   58.3270   30.6756   53.4943 H   0  0  0  0  0  0  0  0  0  0  0  0
   57.2099   29.4149   51.5815 H   0  0  0  0  0  0  0  0  0  0  0  0
   56.3622   30.9718   51.1832 H   0  0  0  0  0  0  0  0  0  0  0  0
   57.3017   32.4151   49.6783 H   0  0  0  0  0  0  0  0  0  0  0  0
   58.5239   34.3292   48.5561 H   0  0  0  0  0  0  0  0  0  0  0  0
   60.2092   34.0764   47.9779 H   0  0  0  0  0  0  0  0  0  0  0  0
   57.6368   34.8940   46.3252 H   0  0  0  0  0  0  0  0  0  0  0  0
   56.6306   33.9378   44.2509 H   0  0  0  0  0  0  0  0  0  0  0  0
   57.1067   31.5784   43.5987 H   0  0  0  0  0  0  0  0  0  0  0  0
   56.5373   27.8762   44.3364 H   0  0  0  0  0  0  0  0  0  0  0  0
   58.2169   27.3971   43.9182 H   0  0  0  0  0  0  0  0  0  0  0  0
   59.4728   25.8137   45.4180 H   0  0  0  0  0  0  0  0  0  0  0  0
   59.6520   31.1295   47.0678 H   0  0  0  0  0  0  0  0  0  0  0  0
   61.5273   32.2367   48.7558 H   0  0  0  0  0  0  0  0  0  0  0  0
   61.8132   30.4160   50.4296 H   0  0  0  0  0  0  0  0  0  0  0  0
  1  2  1  0
  2  3  2  0
  3  4  1  0
  4  5  1  0
  4  6  2  0
  6  7  1  0
  7  8  2  0
  8  9  1  0
  9 10  2  0
  9 11  1  0
 11 12  1  0
 12 13  1  0
 13 14  1  0
 14 15  2  0
 15 16  1  0
 16 17  1  0
 17 18  1  0
 18 19  2  0
 19 20  1  0
 20 21  2  0
 21 22  1  0
 22 23  1  0
 23 24  1  0
 24 25  2  0
 24 26  1  0
 26 27  1  0
 27 28  2  0
 28 29  1  0
 29 30  1  0
 30 31  2  0
 30 32  1  0
 32 33  1  0
 33 34  2  0
 22 35  2  0
 16 36  2  0
 36 37  1  0
 37 38  2  0
 38 39  1  0
  8  2  1  0
 38 14  1  0
 35 18  1  0
 33 27  1  0
  1 40  1  0
  1 41  1  0
  1 42  1  0
  3 43  1  0
  6 44  1  0
  7 45  1  0
 12 46  1  0
 12 47  1  0
 13 48  1  0
 13 49  1  0
 15 50  1  0
 17 51  1  0
 17 52  1  0
 19 53  1  0
 20 54  1  0
 21 55  1  0
 26 56  1  0
 26 57  1  0
 28 58  1  0
 35 59  1  0
 36 60  1  0
 37 61  1  0
M  CHG  6   5  -1  11  -1  23  -1  29  -1  32  -1  39  -1
M  END
>  <UniqueID>  (62) 
53

>  <SMILES>  (62) 
Cc1cc([O-])ccc1C(=O)[N-]CCc1cc(Cc2cccc([N-]C(=O)Cc3c[n-]c(=O)[n-]c3=O)c2)ccc1[O-]

>  <Energy>  (62) 
71.50678678419165

>  <Genealogy>  (62) 
Cc1cc([O-])ccc1C(=O)[N-]CCc1cc(Cc2cccc([N-]C(=O)Cc3c[n-]c(=O)[n-]c3=O)c2)ccc1[O-] (protonated)
Cc1cc([O-])ccc1C(=O)[N-]CCc1cc(Cc2cccc([N-]C(=O)Cc3c[n-]c(=O)[n-]c3=O)c2)ccc1[O-] (3D coordinates assigned)
Cc1cc([O-])ccc1C(=O)[N-]CCc1cc(Cc2cccc([N-]C(=O)Cc3c[n-]c(=O)[n-]c3=O)c2)ccc1[O-] (optimized conformer: 71.50678678419165 kcal/mol)

>  <smiles>  (62) 
Cc1cc(O)ccc1C(=O)NCCc1cc(Cc2cccc(NC(=O)Cc3c[nH]c(=O)[nH]c3=O)c2)ccc1O

>  <score_type>  (62) 
oracle

>  <origin>  (62) 
adg

>  <m_score__min__energy>  (62) 
-21.780000000000001

>  <m_primary>  (62) 
energy

$$$$
63:0
     RDKit          3D

 64 68  0  0  0  0  0  0  0  0999 V2000
   62.7410   34.2580   48.9280 O   0  0  0  0  0  0  0  0  0  0  0  0
   61.6450   33.8180   49.3710 C   0  0  0  0  0  0  0  0  0  0  0  0
   60.4160   34.4660   49.0130 N   0  0  0  0  0  0  0  0  0  0  0  0
   59.6030   34.1810   47.8650 C   0  0  0  0  0  0  0  0  0  0  0  0
   58.5640   33.2330   47.9030 C   0  0  0  0  0  0  0  0  0  0  0  0
   57.7980   32.9860   46.7600 C   0  0  0  0  0  0  0  0  0  0  0  0
   58.0520   33.6900   45.5790 C   0  0  0  0  0  0  0  0  0  0  0  0
   59.0630   34.6530   45.5440 C   0  0  0  0  0  0  0  0  0  0  0  0
   59.8300   34.9040   46.6860 C   0  0  0  0  0  0  0  0  0  0  0  0
   61.6330   32.6960   50.2770 N   0  0  0  0  0  0  0  0  0  0  0  0
   61.1590   32.8610   51.6610 C   0  0  0  0  0  0  0  0  0  0  0  0
   59.7860   32.2610   51.8450 C   0  0  0  0  0  0  0  0  0  0  0  0
   58.6470   32.9370   51.3810 C   0  0  0  0  0  0  0  0  0  0  0  0
   57.3810   32.3560   51.4920 C   0  0  0  0  0  0  0  0  0  0  0  0
   57.2250   31.0870   52.0780 C   0  0  0  0  0  0  0  0  0  0  0  0
   55.8850   30.4600   52.1480 C   0  0  0  0  0  0  0  0  0  0  0  0
   54.6820   31.1780   52.0890 C   0  0  0  0  0  0  0  0  0  0  0  0
   53.4820   30.0190   52.1780 S   0  0  0  0  0  0  0  0  0  0  0  0
   54.4700   28.6970   52.2940 N   0  0  0  0  0  0  0  0  0  0  0  0
   55.7330   29.1030   52.2610 N   0  0  0  0  0  0  0  0  0  0  0  0
   58.3660   30.4190   52.5580 C   0  0  0  0  0  0  0  0  0  0  0  0
   59.6320   30.9970   52.4360 C   0  0  0  0  0  0  0  0  0  0  0  0
   62.1870   31.4010   49.8550 C   0  0  0  0  0  0  0  0  0  0  0  0
   61.2730   30.7170   48.8740 C   0  0  0  0  0  0  0  0  0  0  0  0
   61.3980   30.9630   47.4960 C   0  0  0  0  0  0  0  0  0  0  0  0
   60.5240   30.3560   46.5900 C   0  0  0  0  0  0  0  0  0  0  0  0
   59.5180   29.4950   47.0460 C   0  0  0  0  0  0  0  0  0  0  0  0
   58.3640   28.7910   45.9070 S   0  0  0  0  0  0  0  0  0  0  0  0
   59.1100   27.9320   44.9220 O   0  0  0  0  0  0  0  0  0  0  0  0
   57.4110   27.9080   46.6640 O   0  0  0  0  0  0  0  0  0  0  0  0
   57.4510   29.9940   45.0300 N   0  0  0  0  0  0  0  0  0  0  0  0
   56.4680   29.3960   44.1260 C   0  0  0  0  0  0  0  0  0  0  0  0
   56.2840   30.3710   42.9680 C   0  0  0  0  0  0  0  0  0  0  0  0
   57.4090   31.3840   43.1070 C   0  0  0  0  0  0  0  0  0  0  0  0
   58.3090   30.8200   44.1880 C   0  0  0  0  0  0  0  0  0  0  0  0
   59.3990   29.2390   48.4190 C   0  0  0  0  0  0  0  0  0  0  0  0
   60.2740   29.8420   49.3260 C   0  0  0  0  0  0  0  0  0  0  0  0
   58.3541   32.6853   48.8336 H   0  0  0  0  0  0  0  0  0  0  0  0
   56.9937   32.2362   46.7898 H   0  0  0  0  0  0  0  0  0  0  0  0
   57.4557   33.4855   44.6776 H   0  0  0  0  0  0  0  0  0  0  0  0
   59.2560   35.2142   44.6178 H   0  0  0  0  0  0  0  0  0  0  0  0
   60.6159   35.6732   46.6588 H   0  0  0  0  0  0  0  0  0  0  0  0
   61.8628   32.3614   52.3429 H   0  0  0  0  0  0  0  0  0  0  0  0
   61.1006   33.9369   51.8824 H   0  0  0  0  0  0  0  0  0  0  0  0
   58.7518   33.9330   50.9259 H   0  0  0  0  0  0  0  0  0  0  0  0
   56.4987   32.8959   51.1178 H   0  0  0  0  0  0  0  0  0  0  0  0
   54.5558   32.2673   52.0029 H   0  0  0  0  0  0  0  0  0  0  0  0
   54.1720   27.7010   52.3770 H   0  0  0  0  0  0  0  0  0  0  0  0
   58.2605   29.4328   53.0336 H   0  0  0  0  0  0  0  0  0  0  0  0
   60.5159   30.4569   52.8063 H   0  0  0  0  0  0  0  0  0  0  0  0
   63.1655   31.5659   49.3803 H   0  0  0  0  0  0  0  0  0  0  0  0
   62.2922   30.7591   50.7421 H   0  0  0  0  0  0  0  0  0  0  0  0
   62.1869   31.6360   47.1290 H   0  0  0  0  0  0  0  0  0  0  0  0
   60.6268   30.5556   45.5131 H   0  0  0  0  0  0  0  0  0  0  0  0
   56.8362   28.4292   43.7522 H   0  0  0  0  0  0  0  0  0  0  0  0
   55.5148   29.2140   44.6440 H   0  0  0  0  0  0  0  0  0  0  0  0
   56.3586   29.8434   42.0057 H   0  0  0  0  0  0  0  0  0  0  0  0
   55.2955   30.8530   42.9936 H   0  0  0  0  0  0  0  0  0  0  0  0
   57.9584   31.4849   42.1594 H   0  0  0  0  0  0  0  0  0  0  0  0
   57.0348   32.3868   43.3607 H   0  0  0  0  0  0  0  0  0  0  0  0
   59.1083   30.2104   43.7412 H   0  0  0  0  0  0  0  0  0  0  0  0
   58.7954   31.6190   44.7669 H   0  0  0  0  0  0  0  0  0  0  0  0
   58.6136   28.5607   48.7838 H   0  0  0  0  0  0  0  0  0  0  0  0
   60.1790   29.6294   50.4011 H   0  0  0  0  0  0  0  0  0  0  0  0
  1  2  2  0
  2  3  1  0
  3  4  1  0
  4  5  2  0
  5  6  1  0
  6  7  2  0
  7  8  1  0
  8  9  2  0
  2 10  1  0
 10 11  1  0
 11 12  1  0
 12 13  2  0
 13 14  1  0
 14 15  2  0
 15 16  1  0
 16 17  2  0
 17 18  1  0
 18 19  1  0
 19 20  2  0
 15 21  1  0
 21 22  2  0
 10 23  1  0
 23 24  1  0
 24 25  2  0
 25 26  1  0
 26 27  2  0
 27 28  1  0
 28 29  2  0
 28 30  2  0
 28 31  1  0
 31 32  1  0
 32 33  1  0
 33 34  1  0
 34 35  1  0
 27 36  1  0
 36 37  2  0
  9  4  1  0
 22 12  1  0
 37 24  1  0
 20 16  1  0
 35 31  1  0
  5 38  1  0
  6 39  1  0
  7 40  1  0
  8 41  1  0
  9 42  1  0
 11 43  1  0
 11 44  1  0
 13 45  1  0
 14 46  1  0
 17 47  1  0
 19 48  1  0
 21 49  1  0
 22 50  1  0
 23 51  1  0
 23 52  1  0
 25 53  1  0
 26 54  1  0
 32 55  1  0
 32 56  1  0
 33 57  1  0
 33 58  1  0
 34 59  1  0
 34 60  1  0
 35 61  1  0
 35 62  1  0
 36 63  1  0
 37 64  1  0
M  CHG  2   3  -1  19   1
M  END
>  <UniqueID>  (63) 
54

>  <SMILES>  (63) 
O=C([N-]c1ccccc1)N(Cc1ccc(-c2cs[nH+]n2)cc1)Cc1ccc(S(=O)(=O)N2CCCC2)cc1

>  <Energy>  (63) 
106.7356608953651

>  <Genealogy>  (63) 
O=C([N-]c1ccccc1)N(Cc1ccc(-c2cs[nH+]n2)cc1)Cc1ccc(S(=O)(=O)N2CCCC2)cc1 (protonated)
O=C([N-]c1ccccc1)N(Cc1ccc(-c2cs[nH+]n2)cc1)Cc1ccc(S(=O)(=O)N2CCCC2)cc1 (3D coordinates assigned)
O=C([N-]c1ccccc1)N(Cc1ccc(-c2cs[nH+]n2)cc1)Cc1ccc(S(=O)(=O)N2CCCC2)cc1 (nonaromatic ring conformer: 106.7356608953651 kcal/mol)

>  <smiles>  (63) 
O=C(Nc1ccccc1)N(Cc1ccc(-c2csnn2)cc1)Cc1ccc(S(=O)(=O)N2CCCC2)cc1

>  <score_type>  (63) 
oracle

>  <origin>  (63) 
adg

>  <m_score__min__energy>  (63) 
-11.01

>  <m_primary>  (63) 
energy

$$$$
64:0
     RDKit          3D

 43 45  0  0  0  0  0  0  0  0999 V2000
   60.4920   33.8160   50.1200 C   0  0  0  0  0  0  0  0  0  0  0  0
   61.2800   33.8380   48.8360 C   0  0  0  0  0  0  0  0  0  0  0  0
   62.6700   33.6290   48.8830 C   0  0  0  0  0  0  0  0  0  0  0  0
   63.4290   33.6250   47.7130 C   0  0  0  0  0  0  0  0  0  0  0  0
   62.8120   33.8240   46.4790 C   0  0  0  0  0  0  0  0  0  0  0  0
   61.4340   34.0320   46.4110 C   0  0  0  0  0  0  0  0  0  0  0  0
   60.6530   34.0510   47.5810 C   0  0  0  0  0  0  0  0  0  0  0  0
   59.1580   34.2500   47.4550 C   0  0  0  0  0  0  0  0  0  0  0  0
   58.5940   33.3300   46.4560 N   0  0  0  0  0  0  0  0  0  0  0  0
   58.2580   32.1010   46.8490 N   0  0  0  0  0  0  0  0  0  0  0  0
   57.7580   31.2100   45.9940 N   0  0  0  0  0  0  0  0  0  0  0  0
   57.5760   31.5120   44.7090 N   0  0  0  0  0  0  0  0  0  0  0  0
   57.0400   30.4790   43.8150 C   0  0  0  0  0  0  0  0  0  0  0  0
   56.4720   29.3390   44.6180 C   0  0  0  0  0  0  0  0  0  0  0  0
   55.2350   29.3350   44.8620 O   0  0  0  0  0  0  0  0  0  0  0  0
   57.2900   28.2520   45.0910 N   0  0  0  0  0  0  0  0  0  0  0  0
   56.7400   27.1250   45.8260 C   0  0  0  0  0  0  0  0  0  0  0  0
   57.8780   26.1210   45.9530 C   0  0  0  0  0  0  0  0  0  0  0  0
   59.1560   26.8950   45.6460 C   0  0  0  0  0  0  0  0  0  0  0  0
   58.7210   28.1320   44.8710 C   0  0  0  0  0  0  0  0  0  0  0  0
   57.9280   32.7460   44.2480 C   0  0  0  0  0  0  0  0  0  0  0  0
   57.7870   33.0470   43.0300 O   0  0  0  0  0  0  0  0  0  0  0  0
   58.4530   33.6780   45.1420 C   0  0  0  0  0  0  0  0  0  0  0  0
   58.7900   34.8230   44.7310 O   0  0  0  0  0  0  0  0  0  0  0  0
   61.1837   33.8353   50.9751 H   0  0  0  0  0  0  0  0  0  0  0  0
   59.8334   34.6961   50.1612 H   0  0  0  0  0  0  0  0  0  0  0  0
   59.8836   32.9005   50.1612 H   0  0  0  0  0  0  0  0  0  0  0  0
   63.1636   33.4670   49.8526 H   0  0  0  0  0  0  0  0  0  0  0  0
   64.5160   33.4646   47.7640 H   0  0  0  0  0  0  0  0  0  0  0  0
   63.4124   33.8170   45.5574 H   0  0  0  0  0  0  0  0  0  0  0  0
   60.9536   34.1826   45.4330 H   0  0  0  0  0  0  0  0  0  0  0  0
   58.6848   34.0592   48.4295 H   0  0  0  0  0  0  0  0  0  0  0  0
   58.9645   35.2839   47.1330 H   0  0  0  0  0  0  0  0  0  0  0  0
   56.2458   30.9150   43.1912 H   0  0  0  0  0  0  0  0  0  0  0  0
   57.8525   30.0992   43.1781 H   0  0  0  0  0  0  0  0  0  0  0  0
   56.3988   27.4459   46.8213 H   0  0  0  0  0  0  0  0  0  0  0  0
   55.8704   26.6901   45.3115 H   0  0  0  0  0  0  0  0  0  0  0  0
   57.9146   25.7115   46.9733 H   0  0  0  0  0  0  0  0  0  0  0  0
   57.7456   25.2721   45.2661 H   0  0  0  0  0  0  0  0  0  0  0  0
   59.6601   27.1862   46.5793 H   0  0  0  0  0  0  0  0  0  0  0  0
   59.8669   26.2864   45.0679 H   0  0  0  0  0  0  0  0  0  0  0  0
   59.2429   29.0238   45.2481 H   0  0  0  0  0  0  0  0  0  0  0  0
   58.9609   28.0454   43.8010 H   0  0  0  0  0  0  0  0  0  0  0  0
  1  2  1  0
  2  3  2  0
  3  4  1  0
  4  5  2  0
  5  6  1  0
  6  7  2  0
  7  8  1  0
  8  9  1  0
  9 10  1  0
 10 11  2  0
 11 12  1  0
 12 13  1  0
 13 14  1  0
 14 15  2  0
 14 16  1  0
 16 17  1  0
 17 18  1  0
 18 19  1  0
 19 20  1  0
 12 21  1  0
 21 22  2  0
 21 23  1  0
 23 24  2  0
  7  2  1  0
 23  9  1  0
 20 16  1  0
  1 25  1  0
  1 26  1  0
  1 27  1  0
  3 28  1  0
  4 29  1  0
  5 30  1  0
  6 31  1  0
  8 32  1  0
  8 33  1  0
 13 34  1  0
 13 35  1  0
 17 36  1  0
 17 37  1  0
 18 38  1  0
 18 39  1  0
 19 40  1  0
 19 41  1  0
 20 42  1  0
 20 43  1  0
M  END
>  <UniqueID>  (64) 
55

>  <SMILES>  (64) 
Cc1ccccc1Cn1nnn(CC(=O)N2CCCC2)c(=O)c1=O

>  <Energy>  (64) 
47.16824369994323

>  <Genealogy>  (64) 
Cc1ccccc1Cn1nnn(CC(=O)N2CCCC2)c(=O)c1=O (3D coordinates assigned)
Cc1ccccc1Cn1nnn(CC(=O)N2CCCC2)c(=O)c1=O (nonaromatic ring conformer: 47.16824369994323 kcal/mol)

>  <smiles>  (64) 
Cc1ccccc1Cn1nnn(CC(=O)N2CCCC2)c(=O)c1=O

>  <score_type>  (64) 
oracle

>  <origin>  (64) 
adg

>  <m_score__min__energy>  (64) 
-8.9000000000000004

>  <m_primary>  (64) 
energy

$$$$
65:0
     RDKit          3D

 57 60  0  0  0  0  0  0  0  0999 V2000
   58.9970   34.3610   52.0350 N   0  0  0  0  0  0  0  0  0  0  0  0
   58.4100   33.0610   51.9040 C   0  0  0  0  0  0  0  0  0  0  0  0
   57.1010   32.8440   52.3630 C   0  0  0  0  0  0  0  0  0  0  0  0
   56.5030   31.5880   52.2300 C   0  0  0  0  0  0  0  0  0  0  0  0
   57.2030   30.5390   51.6310 C   0  0  0  0  0  0  0  0  0  0  0  0
   58.5070   30.7410   51.1710 C   0  0  0  0  0  0  0  0  0  0  0  0
   59.1290   31.9950   51.3180 C   0  0  0  0  0  0  0  0  0  0  0  0
   60.4690   32.2150   50.8480 N   0  0  0  0  0  0  0  0  0  0  0  0
   60.9480   33.3890   50.1750 C   0  0  0  0  0  0  0  0  0  0  0  0
   61.7270   34.1630   50.7930 O   0  0  0  0  0  0  0  0  0  0  0  0
   60.5940   33.6830   48.7630 C   0  0  0  0  0  0  0  0  0  0  0  0
   59.2550   33.8690   48.3760 C   0  0  0  0  0  0  0  0  0  0  0  0
   58.9370   34.1680   47.0490 C   0  0  0  0  0  0  0  0  0  0  0  0
   59.9500   34.2820   46.0850 C   0  0  0  0  0  0  0  0  0  0  0  0
   59.5980   34.5680   44.6530 C   0  0  0  0  0  0  0  0  0  0  0  0
   58.8990   33.4230   44.0890 N   0  0  0  0  0  0  0  0  0  0  0  0
   57.6230   32.9810   44.5670 C   0  0  0  0  0  0  0  0  0  0  0  0
   56.6980   33.8200   44.7620 O   0  0  0  0  0  0  0  0  0  0  0  0
   57.3810   31.5540   44.8430 C   0  0  0  0  0  0  0  0  0  0  0  0
   56.1680   30.9400   44.5030 C   0  0  0  0  0  0  0  0  0  0  0  0
   55.9860   29.5790   44.7560 C   0  0  0  0  0  0  0  0  0  0  0  0
   54.7820   28.9860   44.3860 O   0  0  0  0  0  0  0  0  0  0  0  0
   57.0150   28.8260   45.3630 C   0  0  0  0  0  0  0  0  0  0  0  0
   56.8780   27.3660   45.5830 C   0  0  0  0  0  0  0  0  0  0  0  0
   55.8020   26.8650   46.0000 O   0  0  0  0  0  0  0  0  0  0  0  0
   58.2110   29.4930   45.7140 C   0  0  0  0  0  0  0  0  0  0  0  0
   59.2840   28.8100   46.3790 N   0  0  0  0  0  0  0  0  0  0  0  0
   59.6040   29.1460   47.7710 C   0  0  0  0  0  0  0  0  0  0  0  0
   59.8460   27.8730   48.6240 C   0  0  0  0  0  0  0  0  0  0  0  0
   59.9300   26.6730   47.8700 O   0  0  0  0  0  0  0  0  0  0  0  0
   60.7380   26.8650   46.7280 C   0  0  0  0  0  0  0  0  0  0  0  0
   59.9660   27.7020   45.7060 C   0  0  0  0  0  0  0  0  0  0  0  0
   58.3550   30.8170   45.4370 N   0  0  0  0  0  0  0  0  0  0  0  0
   61.2830   34.0540   46.4580 C   0  0  0  0  0  0  0  0  0  0  0  0
   61.6040   33.7610   47.7880 C   0  0  0  0  0  0  0  0  0  0  0  0
   60.0360   34.4770   52.0470 H   0  0  0  0  0  0  0  0  0  0  0  0
   58.4110   35.2240   52.0930 H   0  0  0  0  0  0  0  0  0  0  0  0
   56.5424   33.6683   52.8305 H   0  0  0  0  0  0  0  0  0  0  0  0
   55.4791   31.4256   52.5978 H   0  0  0  0  0  0  0  0  0  0  0  0
   56.7278   29.5530   51.5211 H   0  0  0  0  0  0  0  0  0  0  0  0
   59.0510   29.9143   50.6908 H   0  0  0  0  0  0  0  0  0  0  0  0
   58.4527   33.7785   49.1231 H   0  0  0  0  0  0  0  0  0  0  0  0
   57.8864   34.3149   46.7582 H   0  0  0  0  0  0  0  0  0  0  0  0
   58.9487   35.4546   44.6047 H   0  0  0  0  0  0  0  0  0  0  0  0
   60.5174   34.7562   44.0792 H   0  0  0  0  0  0  0  0  0  0  0  0
   55.3625   31.5279   44.0387 H   0  0  0  0  0  0  0  0  0  0  0  0
   57.7348   26.7075   45.3774 H   0  0  0  0  0  0  0  0  0  0  0  0
   60.5125   29.7659   47.7889 H   0  0  0  0  0  0  0  0  0  0  0  0
   58.7491   29.6900   48.1991 H   0  0  0  0  0  0  0  0  0  0  0  0
   60.7898   28.0011   49.1743 H   0  0  0  0  0  0  0  0  0  0  0  0
   58.9754   27.7680   49.2881 H   0  0  0  0  0  0  0  0  0  0  0  0
   61.6610   27.3909   47.0135 H   0  0  0  0  0  0  0  0  0  0  0  0
   60.9985   25.8905   46.2892 H   0  0  0  0  0  0  0  0  0  0  0  0
   60.6675   28.1049   44.9606 H   0  0  0  0  0  0  0  0  0  0  0  0
   59.2185   27.0661   45.2091 H   0  0  0  0  0  0  0  0  0  0  0  0
   62.0797   34.1058   45.7013 H   0  0  0  0  0  0  0  0  0  0  0  0
   62.6528   33.5907   48.0725 H   0  0  0  0  0  0  0  0  0  0  0  0
  1  2  1  0
  2  3  2  0
  3  4  1  0
  4  5  2  0
  5  6  1  0
  6  7  2  0
  7  8  1  0
  8  9  1  0
  9 10  2  0
  9 11  1  0
 11 12  2  0
 12 13  1  0
 13 14  2  0
 14 15  1  0
 15 16  1  0
 16 17  1  0
 17 18  2  0
 17 19  1  0
 19 20  2  0
 20 21  1  0
 21 22  1  0
 21 23  2  0
 23 24  1  0
 24 25  2  0
 23 26  1  0
 26 27  1  0
 27 28  1  0
 28 29  1  0
 29 30  1  0
 30 31  1  0
 31 32  1  0
 26 33  2  0
 14 34  1  0
 34 35  2  0
  7  2  1  0
 35 11  1  0
 33 19  1  0
 32 27  1  0
  1 36  1  0
  1 37  1  0
  3 38  1  0
  4 39  1  0
  5 40  1  0
  6 41  1  0
 12 42  1  0
 13 43  1  0
 15 44  1  0
 15 45  1  0
 20 46  1  0
 24 47  1  0
 28 48  1  0
 28 49  1  0
 29 50  1  0
 29 51  1  0
 31 52  1  0
 31 53  1  0
 32 54  1  0
 32 55  1  0
 34 56  1  0
 35 57  1  0
M  CHG  3   8  -1  16  -1  22  -1
M  END
>  <UniqueID>  (65) 
56

>  <SMILES>  (65) 
Nc1ccccc1[N-]C(=O)c1ccc(C[N-]C(=O)c2cc([O-])c(C=O)c(N3CCOCC3)n2)cc1

>  <Energy>  (65) 
80.28163301566013

>  <Genealogy>  (65) 
Nc1ccccc1[N-]C(=O)c1ccc(C[N-]C(=O)c2cc([O-])c(C=O)c(N3CCOCC3)n2)cc1 (protonated)
Nc1ccccc1[N-]C(=O)c1ccc(C[N-]C(=O)c2cc([O-])c(C=O)c(N3CCOCC3)n2)cc1 (3D coordinates assigned)
Nc1ccccc1[N-]C(=O)c1ccc(C[N-]C(=O)c2cc([O-])c(C=O)c(N3CCOCC3)n2)cc1 (nonaromatic ring conformer: 80.28163301566013 kcal/mol)

>  <smiles>  (65) 
Nc1ccccc1NC(=O)c1ccc(CNC(=O)c2cc(O)c(C=O)c(N3CCOCC3)n2)cc1

>  <score_type>  (65) 
oracle

>  <origin>  (65) 
adg

>  <m_score__min__energy>  (65) 
-14.199999999999999

>  <m_primary>  (65) 
energy

$$$$
66:0
     RDKit          3D

 34 35  0  0  0  0  0  0  0  0999 V2000
   62.1210   33.7980   48.2790 O   0  0  0  0  0  0  0  0  0  0  0  0
   61.4630   32.8140   48.7080 C   0  0  0  0  0  0  0  0  0  0  0  0
   60.5970   32.0260   47.8110 C   0  0  0  0  0  0  0  0  0  0  0  0
   60.8040   30.6480   47.6880 C   0  0  0  0  0  0  0  0  0  0  0  0
   60.0000   29.8860   46.8370 C   0  0  0  0  0  0  0  0  0  0  0  0
   58.9590   30.4800   46.1040 C   0  0  0  0  0  0  0  0  0  0  0  0
   58.7420   31.8720   46.2320 C   0  0  0  0  0  0  0  0  0  0  0  0
   59.5680   32.6330   47.0750 C   0  0  0  0  0  0  0  0  0  0  0  0
   57.6900   32.5630   45.4690 C   0  0  0  0  0  0  0  0  0  0  0  0
   56.7200   33.0800   46.0840 O   0  0  0  0  0  0  0  0  0  0  0  0
   57.6750   32.5330   43.9710 C   0  0  0  0  0  0  0  0  0  0  0  0
   57.3610   31.1830   43.3950 C   0  0  0  0  0  0  0  0  0  0  0  0
   56.6170   31.1170   42.3800 O   0  0  0  0  0  0  0  0  0  0  0  0
   58.0310   29.9600   43.8530 C   0  0  0  0  0  0  0  0  0  0  0  0
   58.2000   29.6270   45.1490 C   0  0  0  0  0  0  0  0  0  0  0  0
   57.6130   28.4650   45.6840 O   0  0  0  0  0  0  0  0  0  0  0  0
   58.2720   27.2130   45.8670 C   0  0  0  0  0  0  0  0  0  0  0  0
   57.5890   26.4460   46.9990 C   0  0  0  0  0  0  0  0  0  0  0  0
   56.3240   25.7240   46.5240 C   0  0  0  0  0  0  0  0  0  0  0  0
   55.3630   26.6450   46.0810 O   0  0  0  0  0  0  0  0  0  0  0  0
   61.5352   32.5372   49.7702 H   0  0  0  0  0  0  0  0  0  0  0  0
   61.6045   30.1617   48.2647 H   0  0  0  0  0  0  0  0  0  0  0  0
   60.1845   28.8060   46.7394 H   0  0  0  0  0  0  0  0  0  0  0  0
   59.4064   33.7178   47.1594 H   0  0  0  0  0  0  0  0  0  0  0  0
   56.9156   33.2460   43.6175 H   0  0  0  0  0  0  0  0  0  0  0  0
   58.6888   32.7965   43.6352 H   0  0  0  0  0  0  0  0  0  0  0  0
   58.4205   29.2703   43.0897 H   0  0  0  0  0  0  0  0  0  0  0  0
   58.2133   26.6271   44.9379 H   0  0  0  0  0  0  0  0  0  0  0  0
   59.3281   27.3852   46.1220 H   0  0  0  0  0  0  0  0  0  0  0  0
   58.2934   25.7017   47.3987 H   0  0  0  0  0  0  0  0  0  0  0  0
   57.2951   27.1721   47.7713 H   0  0  0  0  0  0  0  0  0  0  0  0
   56.5838   25.0474   45.6965 H   0  0  0  0  0  0  0  0  0  0  0  0
   55.9051   25.1542   47.3665 H   0  0  0  0  0  0  0  0  0  0  0  0
   55.7430   27.5510   46.2270 H   0  0  0  0  0  0  0  0  0  0  0  0
  1  2  2  0
  2  3  1  0
  3  4  2  0
  4  5  1  0
  5  6  2  0
  6  7  1  0
  7  8  2  0
  7  9  1  0
  9 10  2  0
  9 11  1  0
 11 12  1  0
 12 13  2  0
 12 14  1  0
 14 15  2  0
 15 16  1  0
 16 17  1  0
 17 18  1  0
 18 19  1  0
 19 20  1  0
  8  3  1  0
 15  6  1  0
  2 21  1  0
  4 22  1  0
  5 23  1  0
  8 24  1  0
 11 25  1  0
 11 26  1  0
 14 27  1  0
 17 28  1  0
 17 29  1  0
 18 30  1  0
 18 31  1  0
 19 32  1  0
 19 33  1  0
 20 34  1  0
M  END
>  <UniqueID>  (66) 
57

>  <SMILES>  (66) 
O=Cc1ccc2c(c1)C(=O)CC(=O)C=C2OCCCO

>  <Energy>  (66) 
49.03180745245546

>  <Genealogy>  (66) 
O=Cc1ccc2c(c1)C(=O)CC(=O)C=C2OCCCO (3D coordinates assigned)
O=Cc1ccc2c(c1)C(=O)CC(=O)C=C2OCCCO (nonaromatic ring conformer: 49.03180745245546 kcal/mol)

>  <smiles>  (66) 
O=Cc1ccc2c(c1)C(=O)CC(=O)C=C2OCCCO

>  <score_type>  (66) 
oracle

>  <origin>  (66) 
adg

>  <m_score__min__energy>  (66) 
-5.3499999999999996

>  <m_primary>  (66) 
energy

$$$$
67:0
     RDKit          3D

 38 40  0  0  0  0  0  0  0  0999 V2000
   64.5890   32.9210   49.0990 C   0  0  0  0  0  0  0  0  0  0  0  0
   63.3760   32.8770   47.7950 S   0  0  0  0  0  0  0  0  0  0  0  0
   62.9820   31.4480   47.5580 O   0  0  0  0  0  0  0  0  0  0  0  0
   63.9510   33.4350   46.5220 O   0  0  0  0  0  0  0  0  0  0  0  0
   61.9600   33.7730   48.2580 N   0  0  0  0  0  0  0  0  0  0  0  0
   60.7870   33.7390   47.6940 C   0  0  0  0  0  0  0  0  0  0  0  0
   60.2150   32.5510   47.1920 C   0  0  0  0  0  0  0  0  0  0  0  0
   58.9460   32.5850   46.5910 C   0  0  0  0  0  0  0  0  0  0  0  0
   58.3340   31.3480   46.0560 C   0  0  0  0  0  0  0  0  0  0  0  0
   57.3380   31.3470   45.1450 N   0  0  0  0  0  0  0  0  0  0  0  0
   57.0800   30.0440   44.9310 C   0  0  0  0  0  0  0  0  0  0  0  0
   56.1180   29.5770   43.9140 C   0  0  0  0  0  0  0  0  0  0  0  0
   56.5380   29.3790   42.5630 N   0  0  0  0  0  0  0  0  0  0  0  0
   54.9290   29.3130   44.2350 O   0  0  0  0  0  0  0  0  0  0  0  0
   57.9250   29.2840   45.7270 C   0  0  0  0  0  0  0  0  0  0  0  0
   57.9730   27.8160   45.8710 C   0  0  0  0  0  0  0  0  0  0  0  0
   59.2000   27.1310   45.8870 C   0  0  0  0  0  0  0  0  0  0  0  0
   59.2280   25.7370   45.9910 C   0  0  0  0  0  0  0  0  0  0  0  0
   58.0330   25.0160   46.0610 C   0  0  0  0  0  0  0  0  0  0  0  0
   56.8080   25.6880   46.0210 C   0  0  0  0  0  0  0  0  0  0  0  0
   56.7760   27.0810   45.9170 C   0  0  0  0  0  0  0  0  0  0  0  0
   58.7220   30.1090   46.4300 N   0  0  0  0  0  0  0  0  0  0  0  0
   58.2670   33.8090   46.5040 C   0  0  0  0  0  0  0  0  0  0  0  0
   58.8610   34.9630   47.0120 C   0  0  0  0  0  0  0  0  0  0  0  0
   60.0890   34.9020   47.5860 N   0  0  0  0  0  0  0  0  0  0  0  0
   64.0800   32.9025   50.0740 H   0  0  0  0  0  0  0  0  0  0  0  0
   65.2505   32.0463   49.0141 H   0  0  0  0  0  0  0  0  0  0  0  0
   65.1854   33.8414   49.0141 H   0  0  0  0  0  0  0  0  0  0  0  0
   60.7619   31.5999   47.2712 H   0  0  0  0  0  0  0  0  0  0  0  0
   57.5160   29.5920   42.2660 H   0  0  0  0  0  0  0  0  0  0  0  0
   55.8620   29.0270   41.8500 H   0  0  0  0  0  0  0  0  0  0  0  0
   60.1424   27.6940   45.8174 H   0  0  0  0  0  0  0  0  0  0  0  0
   60.1917   25.2073   46.0177 H   0  0  0  0  0  0  0  0  0  0  0  0
   58.0564   23.9197   46.1476 H   0  0  0  0  0  0  0  0  0  0  0  0
   55.8678   25.1193   46.0715 H   0  0  0  0  0  0  0  0  0  0  0  0
   55.8097   27.6046   45.8709 H   0  0  0  0  0  0  0  0  0  0  0  0
   57.2719   33.8580   46.0378 H   0  0  0  0  0  0  0  0  0  0  0  0
   58.3329   35.9258   46.9474 H   0  0  0  0  0  0  0  0  0  0  0  0
  1  2  1  0
  2  3  2  0
  2  4  2  0
  2  5  1  0
  5  6  2  3
  6  7  1  0
  7  8  2  0
  8  9  1  0
  9 10  2  0
 10 11  1  0
 11 12  1  0
 12 13  1  0
 12 14  2  0
 11 15  2  0
 15 16  1  0
 16 17  2  0
 17 18  1  0
 18 19  2  0
 19 20  1  0
 20 21  2  0
 15 22  1  0
  8 23  1  0
 23 24  2  0
 24 25  1  0
 25  6  1  0
 22  9  1  0
 21 16  1  0
  1 26  1  0
  1 27  1  0
  1 28  1  0
  7 29  1  0
 13 30  1  0
 13 31  1  0
 17 32  1  0
 18 33  1  0
 19 34  1  0
 20 35  1  0
 21 36  1  0
 23 37  1  0
 24 38  1  0
M  CHG  2  22  -1  25  -1
M  END
>  <UniqueID>  (67) 
58

>  <SMILES>  (67) 
CS(=O)(=O)N=c1cc(-c2nc(C(N)=O)c(-c3ccccc3)[n-]2)cc[n-]1

>  <Energy>  (67) 
75.21243413822359

>  <Genealogy>  (67) 
CS(=O)(=O)N=c1cc(-c2nc(C(N)=O)c(-c3ccccc3)[n-]2)cc[n-]1 (protonated)
CS(=O)(=O)N=c1cc(-c2nc(C(N)=O)c(-c3ccccc3)[n-]2)cc[n-]1 (3D coordinates assigned)
CS(=O)(=O)N=c1cc(-c2nc(C(N)=O)c(-c3ccccc3)[n-]2)cc[n-]1 (optimized conformer: 75.21243413822359 kcal/mol)

>  <smiles>  (67) 
CS(=O)(=O)N=c1cc(-c2nc(C(N)=O)c(-c3ccccc3)[nH]2)cc[nH]1

>  <score_type>  (67) 
oracle

>  <origin>  (67) 
adg

>  <m_score__min__energy>  (67) 
-10.960000000000001

>  <m_primary>  (67) 
energy

$$$$
68:0
     RDKit          3D

 39 41  0  0  0  0  0  0  0  0999 V2000
   55.4009   30.6338   44.4099 H   0  0  0  0  0  0  0  0  0  0  0  0
   55.8040   29.6120   44.4690 C   0  0  0  0  0  0  0  0  0  0  0  0
   55.1332   28.7483   44.3503 H   0  0  0  0  0  0  0  0  0  0  0  0
   57.1150   29.4190   44.6860 C   0  0  0  0  0  0  0  0  0  0  0  0
   57.8030   28.2010   44.7910 C   0  0  0  0  0  0  0  0  0  0  0  0
   57.3990   26.9290   44.5840 C   0  0  0  0  0  0  0  0  0  0  0  0
   57.2329   26.6158   43.5427 H   0  0  0  0  0  0  0  0  0  0  0  0
   57.1620   25.9250   45.6380 C   0  0  0  0  0  0  0  0  0  0  0  0
   55.9200   25.8330   46.2900 C   0  0  0  0  0  0  0  0  0  0  0  0
   54.8910   26.7160   45.9830 O   0  0  0  0  0  0  0  0  0  0  0  0
   55.7170   24.8710   47.2250 N   0  0  0  0  0  0  0  0  0  0  0  0
   56.6910   23.9780   47.5360 C   0  0  0  0  0  0  0  0  0  0  0  0
   56.4820   23.0970   48.4090 O   0  0  0  0  0  0  0  0  0  0  0  0
   57.8900   24.0310   46.9010 N   0  0  0  0  0  0  0  0  0  0  0  0
   58.1430   24.9740   45.9570 C   0  0  0  0  0  0  0  0  0  0  0  0
   59.2640   24.9890   45.3810 O   0  0  0  0  0  0  0  0  0  0  0  0
   59.0880   28.5740   45.1690 C   0  0  0  0  0  0  0  0  0  0  0  0
   60.2490   27.6640   45.4250 C   0  0  0  0  0  0  0  0  0  0  0  0
   60.3938   27.5505   46.5095 H   0  0  0  0  0  0  0  0  0  0  0  0
   60.0491   26.6796   44.9768 H   0  0  0  0  0  0  0  0  0  0  0  0
   61.1572   28.0933   44.9768 H   0  0  0  0  0  0  0  0  0  0  0  0
   59.1770   29.9130   45.2460 N   0  0  0  0  0  0  0  0  0  0  0  0
   57.9920   30.4210   44.9450 N   0  0  0  0  0  0  0  0  0  0  0  0
   57.7250   31.8610   45.0050 C   0  0  0  0  0  0  0  0  0  0  0  0
   58.1620   32.3474   44.1205 H   0  0  0  0  0  0  0  0  0  0  0  0
   56.6369   32.0207   45.0265 H   0  0  0  0  0  0  0  0  0  0  0  0
   58.3300   32.4580   46.2490 C   0  0  0  0  0  0  0  0  0  0  0  0
   58.7030   33.8110   46.2700 C   0  0  0  0  0  0  0  0  0  0  0  0
   58.5466   34.4355   45.3781 H   0  0  0  0  0  0  0  0  0  0  0  0
   59.2720   34.3690   47.4180 C   0  0  0  0  0  0  0  0  0  0  0  0
   59.5634   35.4297   47.4218 H   0  0  0  0  0  0  0  0  0  0  0  0
   59.4750   33.5870   48.5670 C   0  0  0  0  0  0  0  0  0  0  0  0
   60.0790   34.1810   49.7800 C   0  0  0  0  0  0  0  0  0  0  0  0
   61.2750   34.5750   49.7730 O   0  0  0  0  0  0  0  0  0  0  0  0
   59.3320   34.3130   50.9450 O   0  0  0  0  0  0  0  0  0  0  0  0
   59.0940   32.2330   48.5450 C   0  0  0  0  0  0  0  0  0  0  0  0
   59.2458   31.6087   49.4378 H   0  0  0  0  0  0  0  0  0  0  0  0
   58.5240   31.6750   47.3970 C   0  0  0  0  0  0  0  0  0  0  0  0
   58.2259   30.6162   47.3937 H   0  0  0  0  0  0  0  0  0  0  0  0
  1  2  1  0
  2  3  1  0
  2  4  2  0
  4  5  1  0
  5  6  2  0
  6  7  1  0
  6  8  1  0
  8  9  2  0
  9 10  1  0
  9 11  1  0
 11 12  1  0
 12 13  2  0
 12 14  1  0
 14 15  1  0
 15 16  2  0
  5 17  1  0
 17 18  1  0
 18 19  1  0
 18 20  1  0
 18 21  1  0
 17 22  2  0
 22 23  1  0
 23 24  1  0
 24 25  1  0
 24 26  1  0
 24 27  1  0
 27 28  2  0
 28 29  1  0
 28 30  1  0
 30 31  1  0
 30 32  2  0
 32 33  1  0
 33 34  2  0
 33 35  1  0
 32 36  1  0
 36 37  1  0
 36 38  2  0
 38 39  1  0
 23  4  1  0
 38 27  1  0
 15  8  1  0
M  CHG  4  10  -1  11  -1  14  -1  35  -1
M  END
>  <UniqueID>  (68) 
59

>  <SMILES>  (68) 
C=c1/c(=C\c2c([O-])[n-]c(=O)[n-]c2=O)c(C)nn1Cc1ccc(C(=O)[O-])cc1

>  <Energy>  (68) 
87.5922940243466

>  <Genealogy>  (68) 
C=c1c(=Cc2c([O-])[n-]c(=O)[n-]c2=O)c(C)nn1Cc1ccc(C(=O)[O-])cc1 (protonated)
C=c1/c(=C\c2c([O-])[n-]c(=O)[n-]c2=O)c(C)nn1Cc1ccc(C(=O)[O-])cc1 (cis-trans isomerization)
C=c1/c(=C\c2c([O-])[n-]c(=O)[n-]c2=O)c(C)nn1Cc1ccc(C(=O)[O-])cc1 (3D coordinates assigned)
C=c1/c(=C\c2c([O-])[n-]c(=O)[n-]c2=O)c(C)nn1Cc1ccc(C(=O)[O-])cc1 (optimized conformer: 87.5922940243466 kcal/mol)

>  <smiles>  (68) 
C=c1c(=Cc2c(O)[nH]c(=O)[nH]c2=O)c(C)nn1Cc1ccc(C(=O)O)cc1

>  <score_type>  (68) 
oracle

>  <origin>  (68) 
adg

>  <m_score__min__energy>  (68) 
-16.600000000000001

>  <m_primary>  (68) 
energy

$$$$
69:0
     RDKit          3D

 56 59  0  0  0  0  0  0  0  0999 V2000
   61.5104   34.6442   49.4473 H   0  0  0  0  0  0  0  0  0  0  0  0
   60.9540   34.2480   48.5850 C   0  0  0  0  0  0  0  0  0  0  0  0
   61.6340   33.8540   47.4250 C   0  0  0  0  0  0  0  0  0  0  0  0
   63.1260   33.9740   47.3190 C   0  0  0  0  0  0  0  0  0  0  0  0
   63.4527   34.9026   47.8099 H   0  0  0  0  0  0  0  0  0  0  0  0
   63.4126   33.9931   46.2572 H   0  0  0  0  0  0  0  0  0  0  0  0
   63.7730   32.8190   47.9760 N   0  0  0  0  0  0  0  0  0  0  0  0
   63.3220   32.6180   49.3780 C   0  0  0  0  0  0  0  0  0  0  0  0
   62.7809   33.5193   49.7019 H   0  0  0  0  0  0  0  0  0  0  0  0
   64.2216   32.4303   49.9826 H   0  0  0  0  0  0  0  0  0  0  0  0
   62.3930   31.4000   49.5590 C   0  0  0  0  0  0  0  0  0  0  0  0
   61.7893   31.5379   50.4681 H   0  0  0  0  0  0  0  0  0  0  0  0
   63.0099   30.4934   49.6455 H   0  0  0  0  0  0  0  0  0  0  0  0
   61.4970   31.2550   48.4010 N   0  0  0  0  0  0  0  0  0  0  0  0
   60.9290   32.1280   48.3060 H   0  0  0  0  0  0  0  0  0  0  0  0
   60.3630   29.9580   48.6830 S   0  0  0  0  0  0  0  0  0  0  0  0
   60.8680   29.0760   49.7910 O   0  0  0  0  0  0  0  0  0  0  0  0
   60.2090   29.1460   47.4260 O   0  0  0  0  0  0  0  0  0  0  0  0
   58.8320   30.6390   49.1390 N   0  0  0  0  0  0  0  0  0  0  0  0
   58.3770   30.8080   50.4860 C   0  0  0  0  0  0  0  0  0  0  0  0
   57.6470   29.9150   50.9930 O   0  0  0  0  0  0  0  0  0  0  0  0
   58.7360   31.9870   51.2990 C   0  0  0  0  0  0  0  0  0  0  0  0
   57.7450   32.7310   51.9610 C   0  0  0  0  0  0  0  0  0  0  0  0
   56.6875   32.4446   51.8626 H   0  0  0  0  0  0  0  0  0  0  0  0
   58.0980   33.8350   52.7450 C   0  0  0  0  0  0  0  0  0  0  0  0
   57.3171   34.4202   53.2526 H   0  0  0  0  0  0  0  0  0  0  0  0
   59.4400   34.1950   52.8840 C   0  0  0  0  0  0  0  0  0  0  0  0
   59.7149   35.0662   53.4968 H   0  0  0  0  0  0  0  0  0  0  0  0
   60.4340   33.4490   52.2450 C   0  0  0  0  0  0  0  0  0  0  0  0
   61.4912   33.7310   52.3581 H   0  0  0  0  0  0  0  0  0  0  0  0
   60.0850   32.3430   51.4610 C   0  0  0  0  0  0  0  0  0  0  0  0
   60.8706   31.7502   50.9697 H   0  0  0  0  0  0  0  0  0  0  0  0
   62.2440   31.0150   47.1410 C   0  0  0  0  0  0  0  0  0  0  0  0
   61.6937   31.4855   46.3129 H   0  0  0  0  0  0  0  0  0  0  0  0
   62.3293   29.9258   47.0131 H   0  0  0  0  0  0  0  0  0  0  0  0
   63.6780   31.5890   47.1670 C   0  0  0  0  0  0  0  0  0  0  0  0
   63.9861   31.8186   46.1363 H   0  0  0  0  0  0  0  0  0  0  0  0
   64.3350   30.8339   47.6233 H   0  0  0  0  0  0  0  0  0  0  0  0
   60.9290   33.3680   46.3670 N   0  0  0  0  0  0  0  0  0  0  0  0
   59.5730   33.2340   46.3940 C   0  0  0  0  0  0  0  0  0  0  0  0
   58.9170   32.7870   45.3620 N   0  0  0  0  0  0  0  0  0  0  0  0
   58.0170   31.6650   45.3290 C   0  0  0  0  0  0  0  0  0  0  0  0
   58.2630   30.5810   46.1810 C   0  0  0  0  0  0  0  0  0  0  0  0
   59.1195   30.6122   46.8705 H   0  0  0  0  0  0  0  0  0  0  0  0
   57.4280   29.4590   46.1620 C   0  0  0  0  0  0  0  0  0  0  0  0
   57.6190   28.6194   46.8466 H   0  0  0  0  0  0  0  0  0  0  0  0
   56.3510   29.4050   45.2730 C   0  0  0  0  0  0  0  0  0  0  0  0
   55.5190   28.2910   45.2560 O   0  0  0  0  0  0  0  0  0  0  0  0
   56.1150   30.4670   44.3960 C   0  0  0  0  0  0  0  0  0  0  0  0
   55.2718   30.4202   43.6912 H   0  0  0  0  0  0  0  0  0  0  0  0
   56.9490   31.5890   44.4130 C   0  0  0  0  0  0  0  0  0  0  0  0
   56.7708   32.4152   43.7089 H   0  0  0  0  0  0  0  0  0  0  0  0
   58.8670   33.6270   47.5370 C   0  0  0  0  0  0  0  0  0  0  0  0
   57.7711   33.5379   47.5692 H   0  0  0  0  0  0  0  0  0  0  0  0
   59.5640   34.1330   48.6360 C   0  0  0  0  0  0  0  0  0  0  0  0
   59.0185   34.4404   49.5404 H   0  0  0  0  0  0  0  0  0  0  0  0
  1  2  1  0
  2  3  2  0
  3  4  1  0
  4  5  1  0
  4  6  1  0
  4  7  1  0
  7  8  1  0
  8  9  1  0
  8 10  1  0
  8 11  1  0
 11 12  1  0
 11 13  1  0
 11 14  1  0
 14 15  1  0
 14 16  1  0
 16 17  2  0
 16 18  2  0
 16 19  1  0
 19 20  1  0
 20 21  2  0
 20 22  1  0
 22 23  2  0
 23 24  1  0
 23 25  1  0
 25 26  1  0
 25 27  2  0
 27 28  1  0
 27 29  1  0
 29 30  1  0
 29 31  2  0
 31 32  1  0
 14 33  1  0
 33 34  1  0
 33 35  1  0
 33 36  1  0
 36 37  1  0
 36 38  1  0
  3 39  1  0
 39 40  1  0
 40 41  2  0
 41 42  1  0
 42 43  2  0
 43 44  1  0
 43 45  1  0
 45 46  1  0
 45 47  2  0
 47 48  1  0
 47 49  1  0
 49 50  1  0
 49 51  2  0
 51 52  1  0
 40 53  1  0
 53 54  1  0
 53 55  2  0
 55 56  1  0
 55  2  1  0
 36  7  1  0
 51 42  1  0
 31 22  1  0
M  CHG  4  14   1  19  -1  39  -1  48  -1
M  END
>  <UniqueID>  (69) 
60

>  <SMILES>  (69) 
O=C([N-]S(=O)(=O)[NH+]1CCN(Cc2ccc/c(=N/c3ccc([O-])cc3)[n-]2)CC1)c1ccccc1

>  <Energy>  (69) 
82.8457127437361

>  <Genealogy>  (69) 
O=C([N-]S(=O)(=O)[NH+]1CCN(Cc2cccc(=Nc3ccc([O-])cc3)[n-]2)CC1)c1ccccc1 (protonated)
O=C([N-]S(=O)(=O)[NH+]1CCN(Cc2ccc/c(=N/c3ccc([O-])cc3)[n-]2)CC1)c1ccccc1 (cis-trans isomerization)
O=C([N-]S(=O)(=O)[NH+]1CCN(Cc2ccc/c(=N/c3ccc([O-])cc3)[n-]2)CC1)c1ccccc1 (3D coordinates assigned)
O=C([N-]S(=O)(=O)[NH+]1CCN(Cc2ccc/c(=N/c3ccc([O-])cc3)[n-]2)CC1)c1ccccc1 (nonaromatic ring conformer: 82.8457127437361 kcal/mol)

>  <smiles>  (69) 
O=C(NS(=O)(=O)N1CCN(Cc2cccc(=Nc3ccc(O)cc3)[nH]2)CC1)c1ccccc1

>  <score_type>  (69) 
oracle

>  <origin>  (69) 
adg

>  <m_score__min__energy>  (69) 
-14.779999999999999

>  <m_primary>  (69) 
energy

$$$$
70:0
     RDKit          3D

 48 51  0  0  0  0  0  0  0  0999 V2000
   56.1860   30.2090   44.1720 H   0  0  0  0  0  0  0  0  0  0  0  0
   56.4420   30.2230   45.1510 O   0  0  0  0  0  0  0  0  0  0  0  0
   57.6710   30.7130   45.5970 C   0  0  0  0  0  0  0  0  0  0  0  0
   57.9150   32.0830   45.5270 C   0  0  0  0  0  0  0  0  0  0  0  0
   57.1356   32.7559   45.1402 H   0  0  0  0  0  0  0  0  0  0  0  0
   59.1390   32.6100   45.9430 C   0  0  0  0  0  0  0  0  0  0  0  0
   59.3113   33.6943   45.8755 H   0  0  0  0  0  0  0  0  0  0  0  0
   60.1620   31.7740   46.4500 C   0  0  0  0  0  0  0  0  0  0  0  0
   61.4480   32.3220   46.8810 N   0  0  0  0  0  0  0  0  0  0  0  0
   62.3550   31.4730   47.6900 C   0  0  0  0  0  0  0  0  0  0  0  0
   61.8053   31.1344   48.5806 H   0  0  0  0  0  0  0  0  0  0  0  0
   62.6715   30.6445   47.0393 H   0  0  0  0  0  0  0  0  0  0  0  0
   63.6330   32.1740   48.1550 C   0  0  0  0  0  0  0  0  0  0  0  0
   63.4138   32.7635   49.0575 H   0  0  0  0  0  0  0  0  0  0  0  0
   64.3955   31.4119   48.3735 H   0  0  0  0  0  0  0  0  0  0  0  0
   64.1410   33.0620   47.1140 N   0  0  0  0  0  0  0  0  0  0  0  0
   65.0390   33.4730   47.4610 H   0  0  0  0  0  0  0  0  0  0  0  0
   63.1920   34.1570   46.9440 C   0  0  0  0  0  0  0  0  0  0  0  0
   62.9976   34.6220   47.9218 H   0  0  0  0  0  0  0  0  0  0  0  0
   63.6222   34.8947   46.2506 H   0  0  0  0  0  0  0  0  0  0  0  0
   61.8740   33.6420   46.3610 C   0  0  0  0  0  0  0  0  0  0  0  0
   61.0861   34.3736   46.5933 H   0  0  0  0  0  0  0  0  0  0  0  0
   62.0374   33.5154   45.2806 H   0  0  0  0  0  0  0  0  0  0  0  0
   59.8960   30.3850   46.5130 C   0  0  0  0  0  0  0  0  0  0  0  0
   60.6725   29.7054   46.8940 H   0  0  0  0  0  0  0  0  0  0  0  0
   58.6660   29.8570   46.1010 C   0  0  0  0  0  0  0  0  0  0  0  0
   58.4410   28.4400   46.1920 N   0  0  0  0  0  0  0  0  0  0  0  0
   58.7230   27.6680   47.2630 C   0  0  0  0  0  0  0  0  0  0  0  0
   59.3210   28.1720   48.5420 C   0  0  0  0  0  0  0  0  0  0  0  0
   58.7907   27.7251   49.3958 H   0  0  0  0  0  0  0  0  0  0  0  0
   60.3843   27.8936   48.5843 H   0  0  0  0  0  0  0  0  0  0  0  0
   59.2267   29.2671   48.5843 H   0  0  0  0  0  0  0  0  0  0  0  0
   58.3470   26.3610   47.0270 C   0  0  0  0  0  0  0  0  0  0  0  0
   58.4512   25.5130   47.7199 H   0  0  0  0  0  0  0  0  0  0  0  0
   57.8100   26.3230   45.7420 C   0  0  0  0  0  0  0  0  0  0  0  0
   57.3250   25.2440   45.0890 C   0  0  0  0  0  0  0  0  0  0  0  0
   57.9973   24.7477   44.3737 H   0  0  0  0  0  0  0  0  0  0  0  0
   55.9700   24.6700   45.2500 C   0  0  0  0  0  0  0  0  0  0  0  0
   55.6240   23.3860   45.0480 N   0  0  0  0  0  0  0  0  0  0  0  0
   54.3090   23.3600   45.3500 C   0  0  0  0  0  0  0  0  0  0  0  0
   53.6160   22.3110   45.2790 O   0  0  0  0  0  0  0  0  0  0  0  0
   53.7940   24.5450   45.7380 N   0  0  0  0  0  0  0  0  0  0  0  0
   54.8580   25.3620   45.6720 C   0  0  0  0  0  0  0  0  0  0  0  0
   54.8140   26.7130   45.9910 O   0  0  0  0  0  0  0  0  0  0  0  0
   57.8830   27.6350   45.2550 C   0  0  0  0  0  0  0  0  0  0  0  0
   57.4550   28.0730   44.0610 C   0  0  0  0  0  0  0  0  0  0  0  0
   57.5683   29.1334   43.7912 H   0  0  0  0  0  0  0  0  0  0  0  0
   56.9908   27.3717   43.3520 H   0  0  0  0  0  0  0  0  0  0  0  0
  1  2  1  0
  2  3  1  0
  3  4  2  0
  4  5  1  0
  4  6  1  0
  6  7  1  0
  6  8  2  0
  8  9  1  0
  9 10  1  0
 10 11  1  0
 10 12  1  0
 10 13  1  0
 13 14  1  0
 13 15  1  0
 13 16  1  0
 16 17  1  0
 16 18  1  0
 18 19  1  0
 18 20  1  0
 18 21  1  0
 21 22  1  0
 21 23  1  0
  8 24  1  0
 24 25  1  0
 24 26  2  0
 26 27  1  0
 27 28  1  0
 28 29  1  0
 29 30  1  0
 29 31  1  0
 29 32  1  0
 28 33  2  0
 33 34  1  0
 33 35  1  0
 35 36  2  0
 36 37  1  0
 36 38  1  0
 38 39  1  0
 39 40  1  0
 40 41  2  0
 40 42  1  0
 42 43  1  0
 43 44  1  0
 35 45  1  0
 45 46  2  0
 46 47  1  0
 46 48  1  0
 26  3  1  0
 45 27  1  0
 21  9  1  0
 43 38  2  0
M  CHG  3  39  -1  42  -1  44  -1
M  END
>  <UniqueID>  (70) 
61

>  <SMILES>  (70) 
C=c1/c(=C/c2[n-]c(=O)[n-]c2[O-])cc(C)n1-c1cc(N2CCNCC2)ccc1O

>  <Energy>  (70) 
125.71859020205073

>  <Genealogy>  (70) 
C=c1c(=Cc2[n-]c(=O)[n-]c2[O-])cc(C)n1-c1cc(N2CCNCC2)ccc1O (protonated)
C=c1/c(=C/c2[n-]c(=O)[n-]c2[O-])cc(C)n1-c1cc(N2CCNCC2)ccc1O (cis-trans isomerization)
C=c1/c(=C/c2[n-]c(=O)[n-]c2[O-])cc(C)n1-c1cc(N2CCNCC2)ccc1O (3D coordinates assigned)
C=c1/c(=C/c2[n-]c(=O)[n-]c2[O-])cc(C)n1-c1cc(N2CCNCC2)ccc1O (nonaromatic ring conformer: 125.71859020205073 kcal/mol)

>  <smiles>  (70) 
C=c1c(=Cc2[nH]c(=O)[nH]c2O)cc(C)n1-c1cc(N2CCNCC2)ccc1O

>  <score_type>  (70) 
oracle

>  <origin>  (70) 
adg

>  <m_score__min__energy>  (70) 
-16.07

>  <m_primary>  (70) 
energy

$$$$
71:0
     RDKit          3D

 63 67  0  0  0  0  0  0  0  0999 V2000
   50.0960   32.9680   53.0740 C   0  0  0  0  0  0  0  0  0  0  0  0
   50.7710   32.2680   52.0330 O   0  0  0  0  0  0  0  0  0  0  0  0
   51.9520   31.5300   52.2110 C   0  0  0  0  0  0  0  0  0  0  0  0
   52.8340   31.2540   51.1530 C   0  0  0  0  0  0  0  0  0  0  0  0
   53.9940   30.5130   51.3800 C   0  0  0  0  0  0  0  0  0  0  0  0
   54.2940   30.0250   52.6620 C   0  0  0  0  0  0  0  0  0  0  0  0
   55.5270   29.2250   52.8560 C   0  0  0  0  0  0  0  0  0  0  0  0
   55.5700   28.3890   53.7970 O   0  0  0  0  0  0  0  0  0  0  0  0
   56.6670   29.3410   51.9920 N   0  0  0  0  0  0  0  0  0  0  0  0
   57.3610   30.5450   51.6300 C   0  0  0  0  0  0  0  0  0  0  0  0
   57.2110   31.7350   52.3600 C   0  0  0  0  0  0  0  0  0  0  0  0
   57.9320   32.8770   52.0050 C   0  0  0  0  0  0  0  0  0  0  0  0
   58.8250   32.8430   50.9250 C   0  0  0  0  0  0  0  0  0  0  0  0
   58.9550   31.6590   50.1610 C   0  0  0  0  0  0  0  0  0  0  0  0
   58.2570   30.5050   50.5550 C   0  0  0  0  0  0  0  0  0  0  0  0
   59.9510   31.6690   49.0630 C   0  0  0  0  0  0  0  0  0  0  0  0
   60.9100   32.6470   48.9890 C   0  0  0  0  0  0  0  0  0  0  0  0
   61.7430   32.2590   47.9520 C   0  0  0  0  0  0  0  0  0  0  0  0
   62.9700   32.9230   47.4860 C   0  0  0  0  0  0  0  0  0  0  0  0
   64.1490   32.8700   48.2850 N   0  0  0  0  0  0  0  0  0  0  0  0
   62.9900   33.5440   46.3920 O   0  0  0  0  0  0  0  0  0  0  0  0
   61.2590   31.1250   47.4020 N   0  0  0  0  0  0  0  0  0  0  0  0
   60.1680   30.7720   48.0710 N   0  0  0  0  0  0  0  0  0  0  0  0
   59.3250   29.6940   47.6460 C   0  0  0  0  0  0  0  0  0  0  0  0
   58.3830   29.8890   46.6250 C   0  0  0  0  0  0  0  0  0  0  0  0
   57.5870   28.8260   46.1880 C   0  0  0  0  0  0  0  0  0  0  0  0
   57.7340   27.5540   46.7610 C   0  0  0  0  0  0  0  0  0  0  0  0
   56.7420   26.2030   46.2210 S   0  0  0  0  0  0  0  0  0  0  0  0
   57.4050   25.5400   44.7060 C   0  0  0  0  0  0  0  0  0  0  0  0
   55.3300   26.6610   45.9690 O   0  0  0  0  0  0  0  0  0  0  0  0
   56.7290   25.1370   47.2840 O   0  0  0  0  0  0  0  0  0  0  0  0
   58.6870   27.3570   47.7690 C   0  0  0  0  0  0  0  0  0  0  0  0
   59.4860   28.4180   48.2030 C   0  0  0  0  0  0  0  0  0  0  0  0
   61.0010   33.7810   49.9660 C   0  0  0  0  0  0  0  0  0  0  0  0
   59.6040   34.0950   50.5460 C   0  0  0  0  0  0  0  0  0  0  0  0
   53.4290   30.3210   53.7380 C   0  0  0  0  0  0  0  0  0  0  0  0
   53.7680   29.8890   55.0310 O   0  0  0  0  0  0  0  0  0  0  0  0
   54.4570   30.6800   55.9940 C   0  0  0  0  0  0  0  0  0  0  0  0
   52.2550   31.0620   53.4930 C   0  0  0  0  0  0  0  0  0  0  0  0
   50.4483   32.6026   54.0499 H   0  0  0  0  0  0  0  0  0  0  0  0
   50.3058   34.0444   52.9880 H   0  0  0  0  0  0  0  0  0  0  0  0
   49.0127   32.7975   52.9880 H   0  0  0  0  0  0  0  0  0  0  0  0
   52.6091   31.6236   50.1416 H   0  0  0  0  0  0  0  0  0  0  0  0
   54.6811   30.3088   50.5456 H   0  0  0  0  0  0  0  0  0  0  0  0
   56.5215   31.7679   53.2165 H   0  0  0  0  0  0  0  0  0  0  0  0
   57.7985   33.8079   52.5757 H   0  0  0  0  0  0  0  0  0  0  0  0
   58.4161   29.5608   50.0135 H   0  0  0  0  0  0  0  0  0  0  0  0
   65.0910   33.0420   47.8660 H   0  0  0  0  0  0  0  0  0  0  0  0
   58.2702   30.8824   46.1663 H   0  0  0  0  0  0  0  0  0  0  0  0
   56.8439   28.9874   45.3932 H   0  0  0  0  0  0  0  0  0  0  0  0
   58.1650   24.7800   44.9400 H   0  0  0  0  0  0  0  0  0  0  0  0
   56.5946   25.0803   44.1213 H   0  0  0  0  0  0  0  0  0  0  0  0
   57.8647   26.3504   44.1213 H   0  0  0  0  0  0  0  0  0  0  0  0
   58.8069   26.3615   48.2213 H   0  0  0  0  0  0  0  0  0  0  0  0
   60.2430   28.2514   48.9835 H   0  0  0  0  0  0  0  0  0  0  0  0
   61.6807   33.5023   50.7848 H   0  0  0  0  0  0  0  0  0  0  0  0
   61.3847   34.6725   49.4483 H   0  0  0  0  0  0  0  0  0  0  0  0
   59.7288   34.7164   51.4451 H   0  0  0  0  0  0  0  0  0  0  0  0
   59.0315   34.6161   49.7645 H   0  0  0  0  0  0  0  0  0  0  0  0
   54.1738   30.3548   57.0059 H   0  0  0  0  0  0  0  0  0  0  0  0
   55.5420   30.5582   55.8600 H   0  0  0  0  0  0  0  0  0  0  0  0
   54.1875   31.7380   55.8600 H   0  0  0  0  0  0  0  0  0  0  0  0
   51.5664   31.2754   54.3238 H   0  0  0  0  0  0  0  0  0  0  0  0
  1  2  1  0
  2  3  1  0
  3  4  2  0
  4  5  1  0
  5  6  2  0
  6  7  1  0
  7  8  2  0
  7  9  1  0
  9 10  1  0
 10 11  2  0
 11 12  1  0
 12 13  2  0
 13 14  1  0
 14 15  2  0
 14 16  1  0
 16 17  2  0
 17 18  1  0
 18 19  1  0
 19 20  1  0
 19 21  2  0
 18 22  2  0
 22 23  1  0
 23 24  1  0
 24 25  2  0
 25 26  1  0
 26 27  2  0
 27 28  1  0
 28 29  1  0
 28 30  2  0
 28 31  2  0
 27 32  1  0
 32 33  2  0
 17 34  1  0
 34 35  1  0
  6 36  1  0
 36 37  1  0
 37 38  1  0
 36 39  2  0
 39  3  1  0
 15 10  1  0
 23 16  1  0
 33 24  1  0
 35 13  1  0
  1 40  1  0
  1 41  1  0
  1 42  1  0
  4 43  1  0
  5 44  1  0
 11 45  1  0
 12 46  1  0
 15 47  1  0
 20 48  1  0
 25 49  1  0
 26 50  1  0
 29 51  1  0
 29 52  1  0
 29 53  1  0
 32 54  1  0
 33 55  1  0
 34 56  1  0
 34 57  1  0
 35 58  1  0
 35 59  1  0
 38 60  1  0
 38 61  1  0
 38 62  1  0
 39 63  1  0
M  CHG  2   9  -1  20  -1
M  END
>  <UniqueID>  (71) 
62

>  <SMILES>  (71) 
COc1ccc(C(=O)[N-]c2ccc3c(c2)-c2c(c(C([NH-])=O)nn2-c2ccc(S(C)(=O)=O)cc2)CC3)c(OC)c1

>  <Energy>  (71) 
115.8307139912441

>  <Genealogy>  (71) 
COc1ccc(C(=O)[N-]c2ccc3c(c2)-c2c(c(C([NH-])=O)nn2-c2ccc(S(C)(=O)=O)cc2)CC3)c(OC)c1 (protonated)
COc1ccc(C(=O)[N-]c2ccc3c(c2)-c2c(c(C([NH-])=O)nn2-c2ccc(S(C)(=O)=O)cc2)CC3)c(OC)c1 (3D coordinates assigned)
COc1ccc(C(=O)[N-]c2ccc3c(c2)-c2c(c(C([NH-])=O)nn2-c2ccc(S(C)(=O)=O)cc2)CC3)c(OC)c1 (nonaromatic ring conformer: 115.8307139912441 kcal/mol)

>  <smiles>  (71) 
COc1ccc(C(=O)Nc2ccc3c(c2)-c2c(c(C(N)=O)nn2-c2ccc(S(C)(=O)=O)cc2)CC3)c(OC)c1

>  <score_type>  (71) 
oracle

>  <origin>  (71) 
adg

>  <m_score__min__energy>  (71) 
-12.6

>  <m_primary>  (71) 
energy

$$$$
72:0
     RDKit          3D

 40 42  0  0  0  0  0  0  0  0999 V2000
   57.9800   32.3430   42.4500 C   0  0  0  0  0  0  0  0  0  0  0  0
   57.7940   32.7430   43.8430 N   0  0  0  0  0  0  0  0  0  0  0  0
   58.4300   33.7350   44.4930 C   0  0  0  0  0  0  0  0  0  0  0  0
   58.0160   33.6970   45.8060 C   0  0  0  0  0  0  0  0  0  0  0  0
   58.4420   34.5710   46.8020 O   0  0  0  0  0  0  0  0  0  0  0  0
   57.1300   32.6940   46.0070 N   0  0  0  0  0  0  0  0  0  0  0  0
   57.0310   32.1290   44.7790 C   0  0  0  0  0  0  0  0  0  0  0  0
   56.2660   31.1090   44.5100 N   0  0  0  0  0  0  0  0  0  0  0  0
   56.4990   29.7540   44.9240 C   0  0  0  0  0  0  0  0  0  0  0  0
   55.5260   28.9510   44.9340 O   0  0  0  0  0  0  0  0  0  0  0  0
   57.8520   29.2580   45.2700 C   0  0  0  0  0  0  0  0  0  0  0  0
   58.8980   29.3520   44.3360 C   0  0  0  0  0  0  0  0  0  0  0  0
   60.1870   28.9300   44.6740 C   0  0  0  0  0  0  0  0  0  0  0  0
   60.4480   28.4150   45.9460 C   0  0  0  0  0  0  0  0  0  0  0  0
   59.4150   28.3150   46.8930 C   0  0  0  0  0  0  0  0  0  0  0  0
   59.7110   27.8220   48.2850 C   0  0  0  0  0  0  0  0  0  0  0  0
   60.0600   28.9480   49.1500 N   0  0  0  0  0  0  0  0  0  0  0  0
   59.6220   30.2980   48.9450 C   0  0  0  0  0  0  0  0  0  0  0  0
   58.5210   30.6620   49.4400 O   0  0  0  0  0  0  0  0  0  0  0  0
   60.4360   31.2800   48.2040 C   0  0  0  0  0  0  0  0  0  0  0  0
   61.8180   31.3600   48.2140 C   0  0  0  0  0  0  0  0  0  0  0  0
   62.1360   32.4690   47.4590 C   0  0  0  0  0  0  0  0  0  0  0  0
   63.7480   33.0920   47.1440 Cl  0  0  0  0  0  0  0  0  0  0  0  0
   60.9470   33.0290   47.0330 C   0  0  0  0  0  0  0  0  0  0  0  0
   59.9120   32.3060   47.5020 N   0  0  0  0  0  0  0  0  0  0  0  0
   58.1210   28.7470   46.5520 C   0  0  0  0  0  0  0  0  0  0  0  0
   58.4436   31.3461   42.4135 H   0  0  0  0  0  0  0  0  0  0  0  0
   57.0038   32.3122   41.9439 H   0  0  0  0  0  0  0  0  0  0  0  0
   58.6326   33.0696   41.9439 H   0  0  0  0  0  0  0  0  0  0  0  0
   59.1478   34.4450   44.0563 H   0  0  0  0  0  0  0  0  0  0  0  0
   59.3350   35.0500   46.7240 H   0  0  0  0  0  0  0  0  0  0  0  0
   58.7012   29.7599   43.3335 H   0  0  0  0  0  0  0  0  0  0  0  0
   60.9989   29.0037   43.9355 H   0  0  0  0  0  0  0  0  0  0  0  0
   61.4650   28.0869   46.2069 H   0  0  0  0  0  0  0  0  0  0  0  0
   58.8224   27.3143   48.6884 H   0  0  0  0  0  0  0  0  0  0  0  0
   60.5567   27.1196   48.2474 H   0  0  0  0  0  0  0  0  0  0  0  0
   62.5182   30.6791   48.7200 H   0  0  0  0  0  0  0  0  0  0  0  0
   60.8590   33.9286   46.4061 H   0  0  0  0  0  0  0  0  0  0  0  0
   58.8980   32.5100   47.3580 H   0  0  0  0  0  0  0  0  0  0  0  0
   57.3120   28.6846   47.2948 H   0  0  0  0  0  0  0  0  0  0  0  0
  1  2  1  0
  2  3  1  0
  3  4  2  0
  4  5  1  0
  4  6  1  0
  6  7  1  0
  7  8  2  3
  8  9  1  0
  9 10  2  0
  9 11  1  0
 11 12  2  0
 12 13  1  0
 13 14  2  0
 14 15  1  0
 15 16  1  0
 16 17  1  0
 17 18  1  0
 18 19  2  0
 18 20  1  0
 20 21  2  0
 21 22  1  0
 22 23  1  0
 22 24  2  0
 24 25  1  0
 15 26  2  0
  7  2  1  0
 26 11  1  0
 25 20  1  0
  1 27  1  0
  1 28  1  0
  1 29  1  0
  3 30  1  0
  5 31  1  0
 12 32  1  0
 13 33  1  0
 14 34  1  0
 16 35  1  0
 16 36  1  0
 21 37  1  0
 24 38  1  0
 25 39  1  0
 26 40  1  0
M  CHG  2   6  -1  17  -1
M  END
>  <UniqueID>  (72) 
63

>  <SMILES>  (72) 
Cn1cc(O)[n-]c1=NC(=O)c1cccc(C[N-]C(=O)c2cc(Cl)c[nH]2)c1

>  <Energy>  (72) 
107.68622590647874

>  <Genealogy>  (72) 
Cn1cc(O)[n-]c1=NC(=O)c1cccc(C[N-]C(=O)c2cc(Cl)c[nH]2)c1 (protonated)
Cn1cc(O)[n-]c1=NC(=O)c1cccc(C[N-]C(=O)c2cc(Cl)c[nH]2)c1 (3D coordinates assigned)
Cn1cc(O)[n-]c1=NC(=O)c1cccc(C[N-]C(=O)c2cc(Cl)c[nH]2)c1 (optimized conformer: 107.68622590647874 kcal/mol)

>  <smiles>  (72) 
Cn1cc(O)[nH]c1=NC(=O)c1cccc(CNC(=O)c2cc(Cl)c[nH]2)c1

>  <score_type>  (72) 
oracle

>  <origin>  (72) 
adg

>  <m_score__min__energy>  (72) 
-11.56

>  <m_primary>  (72) 
energy

$$$$
73:0
     RDKit          3D

 39 41  0  0  0  0  0  0  0  0999 V2000
   58.4420   34.1980   46.9630 C   0  0  0  0  0  0  0  0  0  0  0  0
   58.4670   32.9550   46.4400 C   0  0  0  0  0  0  0  0  0  0  0  0
   57.4000   32.5180   45.6280 C   0  0  0  0  0  0  0  0  0  0  0  0
   56.4050   33.2560   45.3950 O   0  0  0  0  0  0  0  0  0  0  0  0
   57.4370   31.2810   45.0800 N   0  0  0  0  0  0  0  0  0  0  0  0
   58.4690   30.4230   45.2740 C   0  0  0  0  0  0  0  0  0  0  0  0
   58.3960   29.2210   44.6630 C   0  0  0  0  0  0  0  0  0  0  0  0
   57.6860   28.0330   45.1820 C   0  0  0  0  0  0  0  0  0  0  0  0
   56.3020   28.0520   45.4540 C   0  0  0  0  0  0  0  0  0  0  0  0
   55.5250   29.1910   45.2360 O   0  0  0  0  0  0  0  0  0  0  0  0
   55.7000   26.9390   45.9470 N   0  0  0  0  0  0  0  0  0  0  0  0
   56.4050   25.8080   46.1970 C   0  0  0  0  0  0  0  0  0  0  0  0
   55.6470   24.4890   46.7890 S   0  0  0  0  0  0  0  0  0  0  0  0
   57.7410   25.7740   45.9660 N   0  0  0  0  0  0  0  0  0  0  0  0
   58.3950   26.8570   45.4720 C   0  0  0  0  0  0  0  0  0  0  0  0
   59.6370   26.7900   45.2710 O   0  0  0  0  0  0  0  0  0  0  0  0
   59.5360   30.8370   46.1100 C   0  0  0  0  0  0  0  0  0  0  0  0
   60.4950   30.0540   46.3650 O   0  0  0  0  0  0  0  0  0  0  0  0
   59.5200   32.0920   46.6700 N   0  0  0  0  0  0  0  0  0  0  0  0
   60.6300   32.4710   47.5110 C   0  0  0  0  0  0  0  0  0  0  0  0
   61.7750   33.0490   46.9480 C   0  0  0  0  0  0  0  0  0  0  0  0
   62.8540   33.4110   47.7590 C   0  0  0  0  0  0  0  0  0  0  0  0
   62.8060   33.1980   49.1520 C   0  0  0  0  0  0  0  0  0  0  0  0
   63.9440   33.5780   50.0320 C   0  0  0  0  0  0  0  0  0  0  0  0
   65.2800   32.9060   49.9360 C   0  0  0  0  0  0  0  0  0  0  0  0
   63.7930   34.4910   50.8900 O   0  0  0  0  0  0  0  0  0  0  0  0
   61.6510   32.6130   49.7070 C   0  0  0  0  0  0  0  0  0  0  0  0
   60.5740   32.2520   48.8930 C   0  0  0  0  0  0  0  0  0  0  0  0
   59.2713   34.5447   47.5971 H   0  0  0  0  0  0  0  0  0  0  0  0
   57.5923   34.8651   46.7554 H   0  0  0  0  0  0  0  0  0  0  0  0
   58.9092   29.1170   43.6956 H   0  0  0  0  0  0  0  0  0  0  0  0
   55.7350   30.0880   45.6580 H   0  0  0  0  0  0  0  0  0  0  0  0
   61.8251   33.2188   45.8623 H   0  0  0  0  0  0  0  0  0  0  0  0
   63.7478   33.8657   47.3070 H   0  0  0  0  0  0  0  0  0  0  0  0
   65.6662   32.7117   50.9475 H   0  0  0  0  0  0  0  0  0  0  0  0
   65.1736   31.9541   49.3950 H   0  0  0  0  0  0  0  0  0  0  0  0
   65.9808   33.5589   49.3950 H   0  0  0  0  0  0  0  0  0  0  0  0
   61.5963   32.4386   50.7917 H   0  0  0  0  0  0  0  0  0  0  0  0
   59.6790   31.7941   49.3395 H   0  0  0  0  0  0  0  0  0  0  0  0
  1  2  2  0
  2  3  1  0
  3  4  2  0
  3  5  1  0
  5  6  1  0
  6  7  2  3
  7  8  1  0
  8  9  2  0
  9 10  1  0
  9 11  1  0
 11 12  1  0
 12 13  2  0
 12 14  1  0
 14 15  1  0
 15 16  2  0
  6 17  1  0
 17 18  2  0
 17 19  1  0
 19 20  1  0
 20 21  2  0
 21 22  1  0
 22 23  2  0
 23 24  1  0
 24 25  1  0
 24 26  2  0
 23 27  1  0
 27 28  2  0
 19  2  1  0
 28 20  1  0
 15  8  1  0
  1 29  1  0
  1 30  1  0
  7 31  1  0
 10 32  1  0
 21 33  1  0
 22 34  1  0
 25 35  1  0
 25 36  1  0
 25 37  1  0
 27 38  1  0
 28 39  1  0
M  CHG  3   5  -1  11  -1  14  -1
M  END
>  <UniqueID>  (73) 
64

>  <SMILES>  (73) 
C=c1c(=O)[n-]c(=Cc2c(O)[n-]c(=S)[n-]c2=O)c(=O)n1-c1ccc(C(C)=O)cc1

>  <Energy>  (73) 
73.68566940851834

>  <Genealogy>  (73) 
C=c1c(=O)[n-]c(=Cc2c(O)[n-]c(=S)[n-]c2=O)c(=O)n1-c1ccc(C(C)=O)cc1 (protonated)
C=c1c(=O)[n-]c(=Cc2c(O)[n-]c(=S)[n-]c2=O)c(=O)n1-c1ccc(C(C)=O)cc1 (3D coordinates assigned)
C=c1c(=O)[n-]c(=Cc2c(O)[n-]c(=S)[n-]c2=O)c(=O)n1-c1ccc(C(C)=O)cc1 (optimized conformer: 73.68566940851834 kcal/mol)

>  <smiles>  (73) 
C=c1c(=O)[nH]c(=Cc2c(O)[nH]c(=S)[nH]c2=O)c(=O)n1-c1ccc(C(C)=O)cc1

>  <score_type>  (73) 
oracle

>  <origin>  (73) 
adg

>  <m_score__min__energy>  (73) 
-13.32

>  <m_primary>  (73) 
energy

$$$$
74:0
     RDKit          3D

 35 36  0  0  0  0  0  0  0  0999 V2000
   62.3780   29.5820   51.6850 H   0  0  0  0  0  0  0  0  0  0  0  0
   61.4900   29.0950   51.6250 O   0  0  0  0  0  0  0  0  0  0  0  0
   60.9930   28.6350   50.4090 C   0  0  0  0  0  0  0  0  0  0  0  0
   60.6220   29.5360   49.4020 C   0  0  0  0  0  0  0  0  0  0  0  0
   60.7209   30.6186   49.5701 H   0  0  0  0  0  0  0  0  0  0  0  0
   60.1260   29.0610   48.1830 C   0  0  0  0  0  0  0  0  0  0  0  0
   59.8200   29.7725   47.4019 H   0  0  0  0  0  0  0  0  0  0  0  0
   60.0170   27.6790   47.9520 C   0  0  0  0  0  0  0  0  0  0  0  0
   59.4550   27.1530   46.6860 C   0  0  0  0  0  0  0  0  0  0  0  0
   59.9488   26.2727   46.2487 H   0  0  0  0  0  0  0  0  0  0  0  0
   58.3800   27.6600   46.0110 C   0  0  0  0  0  0  0  0  0  0  0  0
   57.1340   26.9640   46.0600 C   0  0  0  0  0  0  0  0  0  0  0  0
   56.9570   25.4680   46.7250 S   0  0  0  0  0  0  0  0  0  0  0  0
   56.0040   27.5650   45.6220 N   0  0  0  0  0  0  0  0  0  0  0  0
   55.9900   28.8020   45.0800 C   0  0  0  0  0  0  0  0  0  0  0  0
   54.7720   29.3510   44.6910 O   0  0  0  0  0  0  0  0  0  0  0  0
   57.1860   29.4970   44.8740 C   0  0  0  0  0  0  0  0  0  0  0  0
   57.1040   30.8050   44.1860 C   0  0  0  0  0  0  0  0  0  0  0  0
   57.3240   30.8850   42.9460 O   0  0  0  0  0  0  0  0  0  0  0  0
   56.7170   31.9360   44.9120 O   0  0  0  0  0  0  0  0  0  0  0  0
   57.6500   32.7610   45.6000 C   0  0  0  0  0  0  0  0  0  0  0  0
   57.3171   32.9031   46.6388 H   0  0  0  0  0  0  0  0  0  0  0  0
   58.6389   32.2792   45.5937 H   0  0  0  0  0  0  0  0  0  0  0  0
   57.7410   34.1120   44.9080 C   0  0  0  0  0  0  0  0  0  0  0  0
   57.7947   34.9086   45.6646 H   0  0  0  0  0  0  0  0  0  0  0  0
   58.6432   34.1420   44.2794 H   0  0  0  0  0  0  0  0  0  0  0  0
   56.8510   34.2627   44.2794 H   0  0  0  0  0  0  0  0  0  0  0  0
   58.4160   28.8990   45.2750 C   0  0  0  0  0  0  0  0  0  0  0  0
   59.5840   29.4490   44.8750 C   0  0  0  0  0  0  0  0  0  0  0  0
   60.5385   28.9948   45.1793 H   0  0  0  0  0  0  0  0  0  0  0  0
   59.5801   30.3508   44.2452 H   0  0  0  0  0  0  0  0  0  0  0  0
   60.3630   26.7830   48.9750 C   0  0  0  0  0  0  0  0  0  0  0  0
   60.2433   25.7008   48.8184 H   0  0  0  0  0  0  0  0  0  0  0  0
   60.8590   27.2590   50.1920 C   0  0  0  0  0  0  0  0  0  0  0  0
   61.1451   26.5493   50.9822 H   0  0  0  0  0  0  0  0  0  0  0  0
  1  2  1  0
  2  3  1  0
  3  4  2  0
  4  5  1  0
  4  6  1  0
  6  7  1  0
  6  8  2  0
  8  9  1  0
  9 10  1  0
  9 11  2  0
 11 12  1  0
 12 13  2  0
 12 14  1  0
 14 15  1  0
 15 16  1  0
 15 17  2  0
 17 18  1  0
 18 19  2  0
 18 20  1  0
 20 21  1  0
 21 22  1  0
 21 23  1  0
 21 24  1  0
 24 25  1  0
 24 26  1  0
 24 27  1  0
 17 28  1  0
 28 29  2  0
 29 30  1  0
 29 31  1  0
  8 32  1  0
 32 33  1  0
 32 34  2  0
 34 35  1  0
 34  3  1  0
 28 11  1  0
M  CHG  2  14  -1  16  -1
M  END
>  <UniqueID>  (74) 
65

>  <SMILES>  (74) 
C=c1c(C(=O)OCC)c([O-])[n-]c(=S)/c1=C/c1ccc(O)cc1

>  <Energy>  (74) 
68.74451664308143

>  <Genealogy>  (74) 
C=c1c(C(=O)OCC)c([O-])[n-]c(=S)c1=Cc1ccc(O)cc1 (protonated)
C=c1c(C(=O)OCC)c([O-])[n-]c(=S)/c1=C/c1ccc(O)cc1 (cis-trans isomerization)
C=c1c(C(=O)OCC)c([O-])[n-]c(=S)/c1=C/c1ccc(O)cc1 (3D coordinates assigned)
C=c1c(C(=O)OCC)c([O-])[n-]c(=S)/c1=C/c1ccc(O)cc1 (optimized conformer: 68.74451664308143 kcal/mol)

>  <smiles>  (74) 
C=c1c(C(=O)OCC)c(O)[nH]c(=S)c1=Cc1ccc(O)cc1

>  <score_type>  (74) 
oracle

>  <origin>  (74) 
adg

>  <m_score__min__energy>  (74) 
-11.789999999999999

>  <m_primary>  (74) 
energy

$$$$
75:0
     RDKit          3D

 27 28  0  0  0  0  0  0  0  0999 V2000
   53.7363   21.1927   47.2464 H   0  0  0  0  0  0  0  0  0  0  0  0
   54.3660   21.8640   46.6440 C   0  0  0  0  0  0  0  0  0  0  0  0
   55.1540   21.3430   45.6160 C   0  0  0  0  0  0  0  0  0  0  0  0
   55.1526   20.2613   45.4164 H   0  0  0  0  0  0  0  0  0  0  0  0
   55.9450   22.1960   44.8400 C   0  0  0  0  0  0  0  0  0  0  0  0
   57.0060   21.4870   43.4190 Br  0  0  0  0  0  0  0  0  0  0  0  0
   55.9540   23.5710   45.1020 C   0  0  0  0  0  0  0  0  0  0  0  0
   56.5634   24.2418   44.4786 H   0  0  0  0  0  0  0  0  0  0  0  0
   55.1920   24.0990   46.1530 C   0  0  0  0  0  0  0  0  0  0  0  0
   55.2050   25.5210   46.3660 N   0  0  0  0  0  0  0  0  0  0  0  0
   56.2130   26.3280   46.1990 C   0  0  0  0  0  0  0  0  0  0  0  0
   56.0020   27.5380   45.6210 N   0  0  0  0  0  0  0  0  0  0  0  0
   57.0200   28.4110   45.3970 C   0  0  0  0  0  0  0  0  0  0  0  0
   56.6440   29.9660   44.6550 S   0  0  0  0  0  0  0  0  0  0  0  0
   55.1630   30.0770   44.4200 O   0  0  0  0  0  0  0  0  0  0  0  0
   57.0680   31.0720   45.5790 O   0  0  0  0  0  0  0  0  0  0  0  0
   57.4900   30.1310   43.1560 N   0  0  0  0  0  0  0  0  0  0  0  0
   58.5110   30.1100   43.3780 H   0  0  0  0  0  0  0  0  0  0  0  0
   57.2880   29.2770   42.5890 H   0  0  0  0  0  0  0  0  0  0  0  0
   58.3300   28.0550   45.7680 C   0  0  0  0  0  0  0  0  0  0  0  0
   59.4480   28.9460   45.5570 C   0  0  0  0  0  0  0  0  0  0  0  0
   60.3430   29.6600   45.3870 N   0  0  0  0  0  0  0  0  0  0  0  0
   58.5320   26.7940   46.3510 C   0  0  0  0  0  0  0  0  0  0  0  0
   59.6840   26.4210   46.6970 O   0  0  0  0  0  0  0  0  0  0  0  0
   57.4760   25.9640   46.5490 N   0  0  0  0  0  0  0  0  0  0  0  0
   54.3750   23.2370   46.9100 C   0  0  0  0  0  0  0  0  0  0  0  0
   53.7425   23.6446   47.7124 H   0  0  0  0  0  0  0  0  0  0  0  0
  1  2  1  0
  2  3  2  0
  3  4  1  0
  3  5  1  0
  5  6  1  0
  5  7  2  0
  7  8  1  0
  7  9  1  0
  9 10  1  0
 10 11  2  0
 11 12  1  0
 12 13  1  0
 13 14  1  0
 14 15  2  0
 14 16  2  0
 14 17  1  0
 17 18  1  0
 17 19  1  0
 13 20  2  0
 20 21  1  0
 21 22  3  0
 20 23  1  0
 23 24  2  0
 23 25  1  0
  9 26  2  0
 26 27  1  0
 26  2  1  0
 25 11  1  0
M  CHG  2  12  -1  25  -1
M  END
>  <UniqueID>  (75) 
66

>  <SMILES>  (75) 
N#Cc1c(S(N)(=O)=O)[n-]/c(=N/c2cccc(Br)c2)[n-]c1=O

>  <Energy>  (75) 
34.85366478987312

>  <Genealogy>  (75) 
N#Cc1c(S(N)(=O)=O)[n-]c(=Nc2cccc(Br)c2)[n-]c1=O (protonated)
N#Cc1c(S(N)(=O)=O)[n-]/c(=N/c2cccc(Br)c2)[n-]c1=O (cis-trans isomerization)
N#Cc1c(S(N)(=O)=O)[n-]/c(=N/c2cccc(Br)c2)[n-]c1=O (3D coordinates assigned)
N#Cc1c(S(N)(=O)=O)[n-]/c(=N/c2cccc(Br)c2)[n-]c1=O (optimized conformer: 34.85366478987312 kcal/mol)

>  <smiles>  (75) 
N#Cc1c(S(N)(=O)=O)[nH]c(=Nc2cccc(Br)c2)[nH]c1=O

>  <score_type>  (75) 
oracle

>  <origin>  (75) 
adg

>  <m_score__min__energy>  (75) 
-10.92

>  <m_primary>  (75) 
energy

$$$$
76:0
     RDKit          3D

 48 51  0  0  0  0  0  0  0  0999 V2000
   58.5190   30.7770   49.2640 O   0  0  0  0  0  0  0  0  0  0  0  0
   59.6550   30.8180   48.7160 C   0  0  0  0  0  0  0  0  0  0  0  0
   60.8670   31.0830   49.5540 C   0  0  0  0  0  0  0  0  0  0  0  0
   61.7930   32.0260   48.8390 C   0  0  0  0  0  0  0  0  0  0  0  0
   61.9260   33.3580   49.2720 C   0  0  0  0  0  0  0  0  0  0  0  0
   62.8130   34.2220   48.6250 C   0  0  0  0  0  0  0  0  0  0  0  0
   63.5810   33.7630   47.5490 C   0  0  0  0  0  0  0  0  0  0  0  0
   63.4640   32.4370   47.1200 C   0  0  0  0  0  0  0  0  0  0  0  0
   62.5790   31.5680   47.7640 C   0  0  0  0  0  0  0  0  0  0  0  0
   59.7800   30.6790   47.2940 N   0  0  0  0  0  0  0  0  0  0  0  0
   58.6750   30.3250   46.4520 C   0  0  0  0  0  0  0  0  0  0  0  0
   58.2740   28.9830   46.3940 C   0  0  0  0  0  0  0  0  0  0  0  0
   57.2120   28.5760   45.5650 C   0  0  0  0  0  0  0  0  0  0  0  0
   56.8190   27.1420   45.5160 C   0  0  0  0  0  0  0  0  0  0  0  0
   57.6420   26.1120   45.0410 C   0  0  0  0  0  0  0  0  0  0  0  0
   56.7980   24.6600   45.1520 S   0  0  0  0  0  0  0  0  0  0  0  0
   55.4360   25.3970   45.7900 C   0  0  0  0  0  0  0  0  0  0  0  0
   54.3830   24.7890   46.1090 O   0  0  0  0  0  0  0  0  0  0  0  0
   55.5880   26.7290   45.9280 N   0  0  0  0  0  0  0  0  0  0  0  0
   56.5510   29.5470   44.7920 C   0  0  0  0  0  0  0  0  0  0  0  0
   56.9280   30.8900   44.8640 C   0  0  0  0  0  0  0  0  0  0  0  0
   57.9800   31.2950   45.6960 C   0  0  0  0  0  0  0  0  0  0  0  0
   58.2800   32.6970   45.8190 N   0  0  0  0  0  0  0  0  0  0  0  0
   58.8910   33.4170   44.6940 C   0  0  0  0  0  0  0  0  0  0  0  0
   59.5860   34.6820   45.1970 C   0  0  0  0  0  0  0  0  0  0  0  0
   60.2600   34.3930   46.4040 O   0  0  0  0  0  0  0  0  0  0  0  0
   59.3310   34.2310   47.4670 C   0  0  0  0  0  0  0  0  0  0  0  0
   58.0860   33.3900   47.0980 C   0  0  0  0  0  0  0  0  0  0  0  0
   60.5577   31.5315   50.5096 H   0  0  0  0  0  0  0  0  0  0  0  0
   61.3917   30.1340   49.7385 H   0  0  0  0  0  0  0  0  0  0  0  0
   61.3298   33.7202   50.1225 H   0  0  0  0  0  0  0  0  0  0  0  0
   62.9078   35.2648   48.9620 H   0  0  0  0  0  0  0  0  0  0  0  0
   64.2774   34.4458   47.0401 H   0  0  0  0  0  0  0  0  0  0  0  0
   64.0693   32.0776   46.2747 H   0  0  0  0  0  0  0  0  0  0  0  0
   62.4961   30.5232   47.4302 H   0  0  0  0  0  0  0  0  0  0  0  0
   60.6590   31.0130   46.8380 H   0  0  0  0  0  0  0  0  0  0  0  0
   58.7984   28.2352   47.0070 H   0  0  0  0  0  0  0  0  0  0  0  0
   58.6668   26.2322   44.6599 H   0  0  0  0  0  0  0  0  0  0  0  0
   55.7298   29.2463   44.1248 H   0  0  0  0  0  0  0  0  0  0  0  0
   56.3929   31.6381   44.2607 H   0  0  0  0  0  0  0  0  0  0  0  0
   59.6298   32.7662   44.2035 H   0  0  0  0  0  0  0  0  0  0  0  0
   58.1059   33.6979   43.9766 H   0  0  0  0  0  0  0  0  0  0  0  0
   60.3104   35.0276   44.4448 H   0  0  0  0  0  0  0  0  0  0  0  0
   58.8385   35.4701   45.3707 H   0  0  0  0  0  0  0  0  0  0  0  0
   59.8464   33.7359   48.3032 H   0  0  0  0  0  0  0  0  0  0  0  0
   58.9680   35.2366   47.7258 H   0  0  0  0  0  0  0  0  0  0  0  0
   57.9082   32.6450   47.8875 H   0  0  0  0  0  0  0  0  0  0  0  0
   57.2225   34.0648   47.0036 H   0  0  0  0  0  0  0  0  0  0  0  0
  1  2  2  0
  2  3  1  0
  3  4  1  0
  4  5  2  0
  5  6  1  0
  6  7  2  0
  7  8  1  0
  8  9  2  0
  2 10  1  0
 10 11  1  0
 11 12  2  0
 12 13  1  0
 13 14  1  0
 14 15  2  0
 15 16  1  0
 16 17  1  0
 17 18  2  0
 17 19  1  0
 13 20  2  0
 20 21  1  0
 21 22  2  0
 22 23  1  0
 23 24  1  0
 24 25  1  0
 25 26  1  0
 26 27  1  0
 27 28  1  0
  9  4  1  0
 22 11  1  0
 28 23  1  0
 19 14  1  0
  3 29  1  0
  3 30  1  0
  5 31  1  0
  6 32  1  0
  7 33  1  0
  8 34  1  0
  9 35  1  0
 10 36  1  0
 12 37  1  0
 15 38  1  0
 20 39  1  0
 21 40  1  0
 24 41  1  0
 24 42  1  0
 25 43  1  0
 25 44  1  0
 27 45  1  0
 27 46  1  0
 28 47  1  0
 28 48  1  0
M  CHG  1  19  -1
M  END
>  <UniqueID>  (76) 
67

>  <SMILES>  (76) 
O=C(Cc1ccccc1)Nc1cc(-c2csc(=O)[n-]2)ccc1N1CCOCC1

>  <Energy>  (76) 
98.27854954871995

>  <Genealogy>  (76) 
O=C(Cc1ccccc1)Nc1cc(-c2csc(=O)[n-]2)ccc1N1CCOCC1 (protonated)
O=C(Cc1ccccc1)Nc1cc(-c2csc(=O)[n-]2)ccc1N1CCOCC1 (3D coordinates assigned)
O=C(Cc1ccccc1)Nc1cc(-c2csc(=O)[n-]2)ccc1N1CCOCC1 (nonaromatic ring conformer: 98.27854954871995 kcal/mol)

>  <smiles>  (76) 
O=C(Cc1ccccc1)Nc1cc(-c2csc(=O)[nH]2)ccc1N1CCOCC1

>  <score_type>  (76) 
oracle

>  <origin>  (76) 
adg

>  <m_score__min__energy>  (76) 
-11.01

>  <m_primary>  (76) 
energy

$$$$
77:0
     RDKit          3D

 48 50  0  0  0  0  0  0  0  0999 V2000
   57.7580   31.7380   42.7590 C   0  0  0  0  0  0  0  0  0  0  0  0
   56.6640   30.9450   43.4550 C   0  0  0  0  0  0  0  0  0  0  0  0
   56.6960   31.2190   44.8530 O   0  0  0  0  0  0  0  0  0  0  0  0
   57.7350   31.8940   45.5100 C   0  0  0  0  0  0  0  0  0  0  0  0
   57.7430   33.2970   45.6480 C   0  0  0  0  0  0  0  0  0  0  0  0
   58.7850   33.9350   46.3270 C   0  0  0  0  0  0  0  0  0  0  0  0
   59.8260   33.1840   46.8740 C   0  0  0  0  0  0  0  0  0  0  0  0
   59.8320   31.7940   46.7410 C   0  0  0  0  0  0  0  0  0  0  0  0
   58.7950   31.1430   46.0550 C   0  0  0  0  0  0  0  0  0  0  0  0
   58.8150   29.7120   45.9270 N   0  0  0  0  0  0  0  0  0  0  0  0
   59.0020   29.0820   44.6190 C   0  0  0  0  0  0  0  0  0  0  0  0
   58.0070   27.9280   44.4920 C   0  0  0  0  0  0  0  0  0  0  0  0
   58.1800   26.9180   45.5610 N   0  0  0  0  0  0  0  0  0  0  0  0
   56.6980   26.0330   45.8810 S   0  0  0  0  0  0  0  0  0  0  0  0
   55.5430   26.9680   45.6690 O   0  0  0  0  0  0  0  0  0  0  0  0
   56.6570   25.6120   47.3260 O   0  0  0  0  0  0  0  0  0  0  0  0
   56.5420   24.5720   44.8620 C   0  0  0  0  0  0  0  0  0  0  0  0
   57.0320   24.4880   43.5310 C   0  0  0  0  0  0  0  0  0  0  0  0
   57.6610   25.6610   42.8250 C   0  0  0  0  0  0  0  0  0  0  0  0
   56.8830   23.3220   42.8350 N   0  0  0  0  0  0  0  0  0  0  0  0
   56.2820   22.2380   43.3890 C   0  0  0  0  0  0  0  0  0  0  0  0
   56.1660   21.1720   42.7280 O   0  0  0  0  0  0  0  0  0  0  0  0
   55.8010   22.3010   44.6510 N   0  0  0  0  0  0  0  0  0  0  0  0
   55.9100   23.4290   45.3920 C   0  0  0  0  0  0  0  0  0  0  0  0
   55.4360   23.4370   46.5570 O   0  0  0  0  0  0  0  0  0  0  0  0
   58.8470   27.3920   46.7970 C   0  0  0  0  0  0  0  0  0  0  0  0
   58.5830   28.8750   47.1080 C   0  0  0  0  0  0  0  0  0  0  0  0
   58.4064   32.2080   43.5131 H   0  0  0  0  0  0  0  0  0  0  0  0
   58.3568   31.0628   42.1301 H   0  0  0  0  0  0  0  0  0  0  0  0
   57.3025   32.5171   42.1301 H   0  0  0  0  0  0  0  0  0  0  0  0
   55.6846   31.2348   43.0467 H   0  0  0  0  0  0  0  0  0  0  0  0
   56.8269   29.8701   43.2879 H   0  0  0  0  0  0  0  0  0  0  0  0
   56.9243   33.8932   45.2187 H   0  0  0  0  0  0  0  0  0  0  0  0
   58.7843   35.0301   46.4302 H   0  0  0  0  0  0  0  0  0  0  0  0
   60.6433   33.6878   47.4109 H   0  0  0  0  0  0  0  0  0  0  0  0
   60.6537   31.2062   47.1761 H   0  0  0  0  0  0  0  0  0  0  0  0
   58.8201   29.8186   43.8225 H   0  0  0  0  0  0  0  0  0  0  0  0
   60.0312   28.7055   44.5247 H   0  0  0  0  0  0  0  0  0  0  0  0
   56.9859   28.3331   44.5497 H   0  0  0  0  0  0  0  0  0  0  0  0
   58.1878   27.4318   43.5271 H   0  0  0  0  0  0  0  0  0  0  0  0
   58.0437   26.3747   43.5694 H   0  0  0  0  0  0  0  0  0  0  0  0
   58.4908   25.3079   42.1951 H   0  0  0  0  0  0  0  0  0  0  0  0
   56.9077   26.1568   42.1951 H   0  0  0  0  0  0  0  0  0  0  0  0
   57.2330   23.2510   41.8520 H   0  0  0  0  0  0  0  0  0  0  0  0
   58.4829   26.7891   47.6420 H   0  0  0  0  0  0  0  0  0  0  0  0
   59.9305   27.2824   46.6417 H   0  0  0  0  0  0  0  0  0  0  0  0
   57.5387   28.9935   47.4326 H   0  0  0  0  0  0  0  0  0  0  0  0
   59.2737   29.1934   47.9027 H   0  0  0  0  0  0  0  0  0  0  0  0
  1  2  1  0
  2  3  1  0
  3  4  1  0
  4  5  2  0
  5  6  1  0
  6  7  2  0
  7  8  1  0
  8  9  2  0
  9 10  1  0
 10 11  1  0
 11 12  1  0
 12 13  1  0
 13 14  1  0
 14 15  2  0
 14 16  2  0
 14 17  1  0
 17 18  2  0
 18 19  1  0
 18 20  1  0
 20 21  1  0
 21 22  2  0
 21 23  1  0
 23 24  1  0
 24 25  2  0
 13 26  1  0
 26 27  1  0
  9  4  1  0
 27 10  1  0
 24 17  1  0
  1 28  1  0
  1 29  1  0
  1 30  1  0
  2 31  1  0
  2 32  1  0
  5 33  1  0
  6 34  1  0
  7 35  1  0
  8 36  1  0
 11 37  1  0
 11 38  1  0
 12 39  1  0
 12 40  1  0
 19 41  1  0
 19 42  1  0
 19 43  1  0
 20 44  1  0
 26 45  1  0
 26 46  1  0
 27 47  1  0
 27 48  1  0
M  CHG  1  23  -1
M  END
>  <UniqueID>  (77) 
68

>  <SMILES>  (77) 
CCOc1ccccc1N1CCN(S(=O)(=O)c2c(C)[nH]c(=O)[n-]c2=O)CC1

>  <Energy>  (77) 
62.378627263394314

>  <Genealogy>  (77) 
CCOc1ccccc1N1CCN(S(=O)(=O)c2c(C)[nH]c(=O)[n-]c2=O)CC1 (protonated)
CCOc1ccccc1N1CCN(S(=O)(=O)c2c(C)[nH]c(=O)[n-]c2=O)CC1 (3D coordinates assigned)
CCOc1ccccc1N1CCN(S(=O)(=O)c2c(C)[nH]c(=O)[n-]c2=O)CC1 (nonaromatic ring conformer: 62.378627263394314 kcal/mol)

>  <smiles>  (77) 
CCOc1ccccc1N1CCN(S(=O)(=O)c2c(C)[nH]c(=O)[nH]c2=O)CC1

>  <score_type>  (77) 
oracle

>  <origin>  (77) 
adg

>  <m_score__min__energy>  (77) 
-10.42

>  <m_primary>  (77) 
energy

$$$$
78:0
     RDKit          3D

 53 55  0  0  0  0  0  0  0  0999 V2000
   55.6950   27.0410   45.6780 N   0  0  0  0  0  0  0  0  0  0  0  0
   57.3000   27.6830   45.6840 S   0  0  0  0  0  0  0  0  0  0  0  0
   57.7350   27.9550   47.0960 O   0  0  0  0  0  0  0  0  0  0  0  0
   58.2200   26.6590   45.0780 O   0  0  0  0  0  0  0  0  0  0  0  0
   57.3610   29.1830   44.7420 C   0  0  0  0  0  0  0  0  0  0  0  0
   56.5930   29.2760   43.5710 C   0  0  0  0  0  0  0  0  0  0  0  0
   56.5770   30.4550   42.8220 C   0  0  0  0  0  0  0  0  0  0  0  0
   57.3260   31.5560   43.2360 C   0  0  0  0  0  0  0  0  0  0  0  0
   58.1020   31.4800   44.3930 C   0  0  0  0  0  0  0  0  0  0  0  0
   58.1390   30.2960   45.1490 C   0  0  0  0  0  0  0  0  0  0  0  0
   58.9980   30.2600   46.3490 C   0  0  0  0  0  0  0  0  0  0  0  0
   60.3210   29.8050   46.2630 C   0  0  0  0  0  0  0  0  0  0  0  0
   61.1320   29.7740   47.4000 C   0  0  0  0  0  0  0  0  0  0  0  0
   60.6400   30.2180   48.6410 C   0  0  0  0  0  0  0  0  0  0  0  0
   61.5070   30.1700   49.8430 C   0  0  0  0  0  0  0  0  0  0  0  0
   61.1600   29.4600   50.8270 O   0  0  0  0  0  0  0  0  0  0  0  0
   62.7400   30.9030   49.8980 N   0  0  0  0  0  0  0  0  0  0  0  0
   63.5020   31.0130   51.1420 C   0  0  0  0  0  0  0  0  0  0  0  0
   64.4230   32.1890   51.0950 C   0  0  0  0  0  0  0  0  0  0  0  0
   65.3510   32.2920   51.9420 O   0  0  0  0  0  0  0  0  0  0  0  0
   64.2770   33.1610   50.0530 N   0  0  0  0  0  0  0  0  0  0  0  0
   63.2330   34.1790   50.0370 C   0  0  0  0  0  0  0  0  0  0  0  0
   62.3440   33.9960   48.8330 C   0  0  0  0  0  0  0  0  0  0  0  0
   62.9390   33.7770   47.5790 C   0  0  0  0  0  0  0  0  0  0  0  0
   62.1500   33.5730   46.4460 C   0  0  0  0  0  0  0  0  0  0  0  0
   60.7600   33.5760   46.5540 C   0  0  0  0  0  0  0  0  0  0  0  0
   60.1530   33.7860   47.7940 C   0  0  0  0  0  0  0  0  0  0  0  0
   60.9360   34.0000   48.9470 C   0  0  0  0  0  0  0  0  0  0  0  0
   60.3520   34.2200   50.2060 O   0  0  0  0  0  0  0  0  0  0  0  0
   59.8310   33.2020   51.0560 C   0  0  0  0  0  0  0  0  0  0  0  0
   58.6020   32.7960   50.5730 F   0  0  0  0  0  0  0  0  0  0  0  0
   59.6700   33.6960   52.3390 F   0  0  0  0  0  0  0  0  0  0  0  0
   59.3130   30.6800   48.7220 C   0  0  0  0  0  0  0  0  0  0  0  0
   58.5030   30.7090   47.5820 C   0  0  0  0  0  0  0  0  0  0  0  0
   55.1920   27.4810   44.8740 H   0  0  0  0  0  0  0  0  0  0  0  0
   55.9979   28.4122   43.2398 H   0  0  0  0  0  0  0  0  0  0  0  0
   55.9729   30.5150   41.9047 H   0  0  0  0  0  0  0  0  0  0  0  0
   57.3050   32.4862   42.6492 H   0  0  0  0  0  0  0  0  0  0  0  0
   58.6888   32.3527   44.7156 H   0  0  0  0  0  0  0  0  0  0  0  0
   60.7227   29.4706   45.2951 H   0  0  0  0  0  0  0  0  0  0  0  0
   62.1635   29.3995   47.3244 H   0  0  0  0  0  0  0  0  0  0  0  0
   63.1230   31.3280   49.0240 H   0  0  0  0  0  0  0  0  0  0  0  0
   62.8040   31.1344   51.9835 H   0  0  0  0  0  0  0  0  0  0  0  0
   64.1010   30.0996   51.2718 H   0  0  0  0  0  0  0  0  0  0  0  0
   62.6279   34.0930   50.9516 H   0  0  0  0  0  0  0  0  0  0  0  0
   63.7021   35.1728   49.9884 H   0  0  0  0  0  0  0  0  0  0  0  0
   64.0353   33.7663   47.4896 H   0  0  0  0  0  0  0  0  0  0  0  0
   62.6250   33.4098   45.4674 H   0  0  0  0  0  0  0  0  0  0  0  0
   60.1399   33.4125   45.6603 H   0  0  0  0  0  0  0  0  0  0  0  0
   59.0558   33.7845   47.8719 H   0  0  0  0  0  0  0  0  0  0  0  0
   60.5302   32.3530   51.0771 H   0  0  0  0  0  0  0  0  0  0  0  0
   58.9105   31.0203   49.6875 H   0  0  0  0  0  0  0  0  0  0  0  0
   57.4721   31.0860   47.6530 H   0  0  0  0  0  0  0  0  0  0  0  0
  1  2  1  0
  2  3  2  0
  2  4  2  0
  2  5  1  0
  5  6  2  0
  6  7  1  0
  7  8  2  0
  8  9  1  0
  9 10  2  0
 10 11  1  0
 11 12  2  0
 12 13  1  0
 13 14  2  0
 14 15  1  0
 15 16  2  0
 15 17  1  0
 17 18  1  0
 18 19  1  0
 19 20  2  0
 19 21  1  0
 21 22  1  0
 22 23  1  0
 23 24  2  0
 24 25  1  0
 25 26  2  0
 26 27  1  0
 27 28  2  0
 28 29  1  0
 29 30  1  0
 30 31  1  0
 30 32  1  0
 14 33  1  0
 33 34  2  0
 10  5  1  0
 34 11  1  0
 28 23  1  0
  1 35  1  0
  6 36  1  0
  7 37  1  0
  8 38  1  0
  9 39  1  0
 12 40  1  0
 13 41  1  0
 17 42  1  0
 18 43  1  0
 18 44  1  0
 22 45  1  0
 22 46  1  0
 24 47  1  0
 25 48  1  0
 26 49  1  0
 27 50  1  0
 30 51  1  0
 33 52  1  0
 34 53  1  0
M  CHG  2   1  -1  21  -1
M  END
>  <UniqueID>  (78) 
69

>  <SMILES>  (78) 
[NH-]S(=O)(=O)c1ccccc1-c1ccc(C(=O)NCC(=O)[N-]Cc2ccccc2OC(F)F)cc1

>  <Energy>  (78) 
61.57748489241081

>  <Genealogy>  (78) 
[NH-]S(=O)(=O)c1ccccc1-c1ccc(C(=O)NCC(=O)[N-]Cc2ccccc2OC(F)F)cc1 (protonated)
[NH-]S(=O)(=O)c1ccccc1-c1ccc(C(=O)NCC(=O)[N-]Cc2ccccc2OC(F)F)cc1 (3D coordinates assigned)
[NH-]S(=O)(=O)c1ccccc1-c1ccc(C(=O)NCC(=O)[N-]Cc2ccccc2OC(F)F)cc1 (optimized conformer: 61.57748489241081 kcal/mol)

>  <smiles>  (78) 
NS(=O)(=O)c1ccccc1-c1ccc(C(=O)NCC(=O)NCc2ccccc2OC(F)F)cc1

>  <score_type>  (78) 
oracle

>  <origin>  (78) 
adg

>  <m_score__min__energy>  (78) 
-11.74

>  <m_primary>  (78) 
energy

$$$$
79:0
     RDKit          3D

 61 63  0  0  0  0  0  0  0  0999 V2000
   56.5070   31.0490   44.5810 O   0  0  0  0  0  0  0  0  0  0  0  0
   57.4730   31.6570   45.1170 C   0  0  0  0  0  0  0  0  0  0  0  0
   58.7390   30.9280   45.4530 C   0  0  0  0  0  0  0  0  0  0  0  0
   58.5770   30.1050   46.6100 O   0  0  0  0  0  0  0  0  0  0  0  0
   58.2470   28.7400   46.6020 C   0  0  0  0  0  0  0  0  0  0  0  0
   57.2790   28.3000   45.6910 C   0  0  0  0  0  0  0  0  0  0  0  0
   56.9110   26.9520   45.6390 C   0  0  0  0  0  0  0  0  0  0  0  0
   57.5050   26.0260   46.5020 C   0  0  0  0  0  0  0  0  0  0  0  0
   57.0480   24.3260   46.4130 S   0  0  0  0  0  0  0  0  0  0  0  0
   57.4050   23.6360   47.7000 O   0  0  0  0  0  0  0  0  0  0  0  0
   55.5590   24.2460   46.2310 O   0  0  0  0  0  0  0  0  0  0  0  0
   57.8380   23.5480   45.0550 N   0  0  0  0  0  0  0  0  0  0  0  0
   57.8010   22.0780   45.1630 C   0  0  0  0  0  0  0  0  0  0  0  0
   56.3950   21.5040   44.8680 C   0  0  0  0  0  0  0  0  0  0  0  0
   55.5490   22.4030   44.1710 O   0  0  0  0  0  0  0  0  0  0  0  0
   56.2670   23.0600   43.1520 C   0  0  0  0  0  0  0  0  0  0  0  0
   57.3010   24.0250   43.7620 C   0  0  0  0  0  0  0  0  0  0  0  0
   58.4800   26.4560   47.4130 C   0  0  0  0  0  0  0  0  0  0  0  0
   58.8490   27.8030   47.4650 C   0  0  0  0  0  0  0  0  0  0  0  0
   57.3530   33.0420   45.4580 N   0  0  0  0  0  0  0  0  0  0  0  0
   57.2680   33.5360   46.8280 C   0  0  0  0  0  0  0  0  0  0  0  0
   58.6160   34.0920   47.3080 C   0  0  0  0  0  0  0  0  0  0  0  0
   59.3030   33.2060   48.3600 C   0  0  0  0  0  0  0  0  0  0  0  0
   60.7630   33.1880   48.1810 N   0  0  0  0  0  0  0  0  0  0  0  0
   61.3220   32.8540   46.8610 C   0  0  0  0  0  0  0  0  0  0  0  0
   62.5630   33.7020   46.4970 C   0  0  0  0  0  0  0  0  0  0  0  0
   63.8320   33.4210   47.3220 C   0  0  0  0  0  0  0  0  0  0  0  0
   63.6760   32.3180   48.3750 C   0  0  0  0  0  0  0  0  0  0  0  0
   62.8290   32.6880   49.6080 C   0  0  0  0  0  0  0  0  0  0  0  0
   61.6490   33.5540   49.2630 C   0  0  0  0  0  0  0  0  0  0  0  0
   61.4230   34.5840   49.9540 O   0  0  0  0  0  0  0  0  0  0  0  0
   59.0238   30.2941   44.6003 H   0  0  0  0  0  0  0  0  0  0  0  0
   59.5206   31.6724   45.6651 H   0  0  0  0  0  0  0  0  0  0  0  0
   56.8037   29.0213   45.0100 H   0  0  0  0  0  0  0  0  0  0  0  0
   56.1514   26.6188   44.9165 H   0  0  0  0  0  0  0  0  0  0  0  0
   58.5154   21.6521   44.4431 H   0  0  0  0  0  0  0  0  0  0  0  0
   58.0647   21.8093   46.1966 H   0  0  0  0  0  0  0  0  0  0  0  0
   56.5113   20.5944   44.2605 H   0  0  0  0  0  0  0  0  0  0  0  0
   55.9195   21.3012   45.8390 H   0  0  0  0  0  0  0  0  0  0  0  0
   56.7880   22.3125   42.5356 H   0  0  0  0  0  0  0  0  0  0  0  0
   55.5630   23.6353   42.5328 H   0  0  0  0  0  0  0  0  0  0  0  0
   58.1361   24.1380   43.0550 H   0  0  0  0  0  0  0  0  0  0  0  0
   56.7912   24.9818   43.9481 H   0  0  0  0  0  0  0  0  0  0  0  0
   58.9562   25.7307   48.0892 H   0  0  0  0  0  0  0  0  0  0  0  0
   59.6135   28.1334   48.1836 H   0  0  0  0  0  0  0  0  0  0  0  0
   56.5143   34.3359   46.8738 H   0  0  0  0  0  0  0  0  0  0  0  0
   56.9873   32.6969   47.4816 H   0  0  0  0  0  0  0  0  0  0  0  0
   59.2845   34.1836   46.4392 H   0  0  0  0  0  0  0  0  0  0  0  0
   58.4155   35.0636   47.7831 H   0  0  0  0  0  0  0  0  0  0  0  0
   59.0708   33.5959   49.3620 H   0  0  0  0  0  0  0  0  0  0  0  0
   58.9287   32.1783   48.2425 H   0  0  0  0  0  0  0  0  0  0  0  0
   61.6108   31.7926   46.8612 H   0  0  0  0  0  0  0  0  0  0  0  0
   60.5459   33.0688   46.1116 H   0  0  0  0  0  0  0  0  0  0  0  0
   62.8002   33.5162   45.4391 H   0  0  0  0  0  0  0  0  0  0  0  0
   62.2879   34.7440   46.7176 H   0  0  0  0  0  0  0  0  0  0  0  0
   64.6330   33.1235   46.6292 H   0  0  0  0  0  0  0  0  0  0  0  0
   64.0589   34.3469   47.8709 H   0  0  0  0  0  0  0  0  0  0  0  0
   63.2051   31.4507   47.8891 H   0  0  0  0  0  0  0  0  0  0  0  0
   64.6891   32.1200   48.7550 H   0  0  0  0  0  0  0  0  0  0  0  0
   62.4614   31.7615   50.0733 H   0  0  0  0  0  0  0  0  0  0  0  0
   63.4719   33.2601   50.2931 H   0  0  0  0  0  0  0  0  0  0  0  0
  1  2  2  0
  2  3  1  0
  3  4  1  0
  4  5  1  0
  5  6  2  0
  6  7  1  0
  7  8  2  0
  8  9  1  0
  9 10  2  0
  9 11  2  0
  9 12  1  0
 12 13  1  0
 13 14  1  0
 14 15  1  0
 15 16  1  0
 16 17  1  0
  8 18  1  0
 18 19  2  0
  2 20  1  0
 20 21  1  0
 21 22  1  0
 22 23  1  0
 23 24  1  0
 24 25  1  0
 25 26  1  0
 26 27  1  0
 27 28  1  0
 28 29  1  0
 29 30  1  0
 30 31  2  0
 19  5  1  0
 30 24  1  0
 17 12  1  0
  3 32  1  0
  3 33  1  0
  6 34  1  0
  7 35  1  0
 13 36  1  0
 13 37  1  0
 14 38  1  0
 14 39  1  0
 16 40  1  0
 16 41  1  0
 17 42  1  0
 17 43  1  0
 18 44  1  0
 19 45  1  0
 21 46  1  0
 21 47  1  0
 22 48  1  0
 22 49  1  0
 23 50  1  0
 23 51  1  0
 25 52  1  0
 25 53  1  0
 26 54  1  0
 26 55  1  0
 27 56  1  0
 27 57  1  0
 28 58  1  0
 28 59  1  0
 29 60  1  0
 29 61  1  0
M  CHG  1  20  -1
M  END
>  <UniqueID>  (79) 
70

>  <SMILES>  (79) 
O=C(COc1ccc(S(=O)(=O)N2CCOCC2)cc1)[N-]CCCN1CCCCCC1=O

>  <Energy>  (79) 
69.3670898761945

>  <Genealogy>  (79) 
O=C(COc1ccc(S(=O)(=O)N2CCOCC2)cc1)[N-]CCCN1CCCCCC1=O (protonated)
O=C(COc1ccc(S(=O)(=O)N2CCOCC2)cc1)[N-]CCCN1CCCCCC1=O (3D coordinates assigned)
O=C(COc1ccc(S(=O)(=O)N2CCOCC2)cc1)[N-]CCCN1CCCCCC1=O (nonaromatic ring conformer: 69.3670898761945 kcal/mol)

>  <smiles>  (79) 
O=C(COc1ccc(S(=O)(=O)N2CCOCC2)cc1)NCCCN1CCCCCC1=O

>  <score_type>  (79) 
oracle

>  <origin>  (79) 
adg

>  <m_score__min__energy>  (79) 
-7.1500000000000004

>  <m_primary>  (79) 
energy

$$$$
80:0
     RDKit          3D

 24 25  0  0  0  0  0  0  0  0999 V2000
   55.2810   26.6730   46.0340 O   0  0  0  0  0  0  0  0  0  0  0  0
   56.5000   26.9910   45.9800 C   0  0  0  0  0  0  0  0  0  0  0  0
   57.5100   25.9920   46.1600 N   0  0  0  0  0  0  0  0  0  0  0  0
   58.3590   25.4970   45.0830 C   0  0  0  0  0  0  0  0  0  0  0  0
   57.7730   24.2460   44.4890 C   0  0  0  0  0  0  0  0  0  0  0  0
   58.2580   22.9870   44.8820 C   0  0  0  0  0  0  0  0  0  0  0  0
   57.7010   21.8200   44.3490 C   0  0  0  0  0  0  0  0  0  0  0  0
   56.6560   21.9010   43.4250 C   0  0  0  0  0  0  0  0  0  0  0  0
   56.1640   23.1490   43.0340 C   0  0  0  0  0  0  0  0  0  0  0  0
   56.7170   24.3180   43.5640 C   0  0  0  0  0  0  0  0  0  0  0  0
   56.8820   28.3510   45.7340 N   0  0  0  0  0  0  0  0  0  0  0  0
   58.2630   29.0840   46.2990 S   0  0  0  0  0  0  0  0  0  0  0  0
   57.9590   30.5700   45.6100 C   0  0  0  0  0  0  0  0  0  0  0  0
   58.9160   31.8860   45.7260 S   0  0  0  0  0  0  0  0  0  0  0  0
   56.7900   30.5340   44.9330 N   0  0  0  0  0  0  0  0  0  0  0  0
   56.2120   29.2980   45.0150 C   0  0  0  0  0  0  0  0  0  0  0  0
   55.1120   29.0560   44.4490 O   0  0  0  0  0  0  0  0  0  0  0  0
   58.4392   26.2667   44.3013 H   0  0  0  0  0  0  0  0  0  0  0  0
   59.3550   25.2673   45.4895 H   0  0  0  0  0  0  0  0  0  0  0  0
   59.0786   22.9191   45.6114 H   0  0  0  0  0  0  0  0  0  0  0  0
   58.0862   20.8370   44.6577 H   0  0  0  0  0  0  0  0  0  0  0  0
   56.2206   20.9822   43.0053 H   0  0  0  0  0  0  0  0  0  0  0  0
   55.3401   23.2115   42.3079 H   0  0  0  0  0  0  0  0  0  0  0  0
   56.3243   25.2983   43.2561 H   0  0  0  0  0  0  0  0  0  0  0  0
  1  2  2  0
  2  3  1  0
  3  4  1  0
  4  5  1  0
  5  6  2  0
  6  7  1  0
  7  8  2  0
  8  9  1  0
  9 10  2  0
  2 11  1  0
 11 12  1  0
 12 13  1  0
 13 14  2  0
 13 15  1  0
 15 16  1  0
 16 17  2  0
 10  5  1  0
 16 11  1  0
  4 18  1  0
  4 19  1  0
  6 20  1  0
  7 21  1  0
  8 22  1  0
  9 23  1  0
 10 24  1  0
M  CHG  2   3  -1  15  -1
M  END
>  <UniqueID>  (80) 
71

>  <SMILES>  (80) 
O=C([N-]Cc1ccccc1)n1sc(=S)[n-]c1=O

>  <Energy>  (80) 
62.09588750586556

>  <Genealogy>  (80) 
O=C([N-]Cc1ccccc1)n1sc(=S)[n-]c1=O (protonated)
O=C([N-]Cc1ccccc1)n1sc(=S)[n-]c1=O (3D coordinates assigned)
O=C([N-]Cc1ccccc1)n1sc(=S)[n-]c1=O (optimized conformer: 62.09588750586556 kcal/mol)

>  <smiles>  (80) 
O=C(NCc1ccccc1)n1sc(=S)[nH]c1=O

>  <score_type>  (80) 
oracle

>  <origin>  (80) 
adg

>  <m_score__min__energy>  (80) 
-9.6600000000000001

>  <m_primary>  (80) 
energy

$$$$
81:0
     RDKit          3D

 22 23  0  0  0  0  0  0  0  0999 V2000
   59.8480   29.2020   45.2650 O   0  0  0  0  0  0  0  0  0  0  0  0
   58.7370   29.7760   45.1250 C   0  0  0  0  0  0  0  0  0  0  0  0
   57.5670   29.0230   45.0130 C   0  0  0  0  0  0  0  0  0  0  0  0
   56.3550   29.6980   44.8590 C   0  0  0  0  0  0  0  0  0  0  0  0
   55.1690   28.9800   44.7440 O   0  0  0  0  0  0  0  0  0  0  0  0
   56.3380   31.0560   44.8200 N   0  0  0  0  0  0  0  0  0  0  0  0
   57.4870   31.7720   44.9290 C   0  0  0  0  0  0  0  0  0  0  0  0
   57.4370   33.5590   44.8630 S   0  0  0  0  0  0  0  0  0  0  0  0
   58.7160   33.7250   46.1070 C   0  0  0  0  0  0  0  0  0  0  0  0
   60.0260   34.0510   45.7280 C   0  0  0  0  0  0  0  0  0  0  0  0
   61.0240   34.1770   46.6980 C   0  0  0  0  0  0  0  0  0  0  0  0
   60.7180   33.9810   48.0500 C   0  0  0  0  0  0  0  0  0  0  0  0
   61.9720   34.1400   49.2660 Cl  0  0  0  0  0  0  0  0  0  0  0  0
   59.4090   33.6600   48.4290 C   0  0  0  0  0  0  0  0  0  0  0  0
   58.4100   33.5340   47.4600 C   0  0  0  0  0  0  0  0  0  0  0  0
   58.6770   31.1320   45.0810 N   0  0  0  0  0  0  0  0  0  0  0  0
   57.5994   27.9240   45.0453 H   0  0  0  0  0  0  0  0  0  0  0  0
   55.1410   27.9870   44.9410 H   0  0  0  0  0  0  0  0  0  0  0  0
   60.2683   34.2077   44.6665 H   0  0  0  0  0  0  0  0  0  0  0  0
   62.0517   34.4306   46.3988 H   0  0  0  0  0  0  0  0  0  0  0  0
   59.1666   33.5068   49.4910 H   0  0  0  0  0  0  0  0  0  0  0  0
   57.3817   33.2844   47.7606 H   0  0  0  0  0  0  0  0  0  0  0  0
  1  2  2  0
  2  3  1  0
  3  4  2  0
  4  5  1  0
  4  6  1  0
  6  7  1  0
  7  8  1  0
  8  9  1  0
  9 10  2  0
 10 11  1  0
 11 12  2  0
 12 13  1  0
 12 14  1  0
 14 15  2  0
  7 16  2  0
 16  2  1  0
 15  9  1  0
  3 17  1  0
  5 18  1  0
 10 19  1  0
 11 20  1  0
 14 21  1  0
 15 22  1  0
M  CHG  1   6  -1
M  END
>  <UniqueID>  (81) 
72

>  <SMILES>  (81) 
O=c1cc(O)[n-]c(Sc2ccc(Cl)cc2)n1

>  <Energy>  (81) 
18.940057409574177

>  <Genealogy>  (81) 
O=c1cc(O)[n-]c(Sc2ccc(Cl)cc2)n1 (protonated)
O=c1cc(O)[n-]c(Sc2ccc(Cl)cc2)n1 (3D coordinates assigned)
O=c1cc(O)[n-]c(Sc2ccc(Cl)cc2)n1 (optimized conformer: 18.940057409574177 kcal/mol)

>  <smiles>  (81) 
O=c1cc(O)[nH]c(Sc2ccc(Cl)cc2)n1

>  <score_type>  (81) 
oracle

>  <origin>  (81) 
adg

>  <m_score__min__energy>  (81) 
-9.2300000000000004

>  <m_primary>  (81) 
energy

$$$$
82:0
     RDKit          3D

 48 51  0  0  0  0  0  0  0  0999 V2000
   56.3030   29.0870   51.9970 O   0  0  0  0  0  0  0  0  0  0  0  0
   56.2280   30.2750   52.4050 C   0  0  0  0  0  0  0  0  0  0  0  0
   57.4190   31.0420   52.6270 N   0  0  0  0  0  0  0  0  0  0  0  0
   58.4400   31.3350   51.6620 C   0  0  0  0  0  0  0  0  0  0  0  0
   59.4330   30.4000   51.3190 C   0  0  0  0  0  0  0  0  0  0  0  0
   60.3970   30.7180   50.3570 C   0  0  0  0  0  0  0  0  0  0  0  0
   60.3710   31.9650   49.7210 C   0  0  0  0  0  0  0  0  0  0  0  0
   61.6120   32.3760   48.4950 S   0  0  0  0  0  0  0  0  0  0  0  0
   60.3830   32.6980   47.2360 C   0  0  0  0  0  0  0  0  0  0  0  0
   60.2540   33.9720   46.6820 C   0  0  0  0  0  0  0  0  0  0  0  0
   59.2740   34.1770   45.7120 C   0  0  0  0  0  0  0  0  0  0  0  0
   59.1270   35.3120   45.1890 O   0  0  0  0  0  0  0  0  0  0  0  0
   58.4740   33.1480   45.3300 N   0  0  0  0  0  0  0  0  0  0  0  0
   58.6080   31.9070   45.8770 C   0  0  0  0  0  0  0  0  0  0  0  0
   57.7430   30.8290   45.4610 N   0  0  0  0  0  0  0  0  0  0  0  0
   57.6950   29.5860   46.2450 C   0  0  0  0  0  0  0  0  0  0  0  0
   57.1980   28.4240   45.3800 C   0  0  0  0  0  0  0  0  0  0  0  0
   55.9960   28.7670   44.7200 O   0  0  0  0  0  0  0  0  0  0  0  0
   56.2490   29.8000   43.7900 C   0  0  0  0  0  0  0  0  0  0  0  0
   56.6560   31.0900   44.5060 C   0  0  0  0  0  0  0  0  0  0  0  0
   59.5630   31.6970   46.8240 N   0  0  0  0  0  0  0  0  0  0  0  0
   59.3680   32.8870   50.0400 C   0  0  0  0  0  0  0  0  0  0  0  0
   58.4040   32.5710   51.0010 C   0  0  0  0  0  0  0  0  0  0  0  0
   54.9470   30.8090   52.7500 N   0  0  0  0  0  0  0  0  0  0  0  0
   53.7770   30.8060   51.9170 C   0  0  0  0  0  0  0  0  0  0  0  0
   53.5820   29.8390   50.9140 C   0  0  0  0  0  0  0  0  0  0  0  0
   52.4170   29.8570   50.1380 C   0  0  0  0  0  0  0  0  0  0  0  0
   51.4360   30.8250   50.3670 C   0  0  0  0  0  0  0  0  0  0  0  0
   51.6130   31.7720   51.3800 C   0  0  0  0  0  0  0  0  0  0  0  0
   50.6330   32.7280   51.6160 O   0  0  0  0  0  0  0  0  0  0  0  0
   52.7770   31.7570   52.1580 C   0  0  0  0  0  0  0  0  0  0  0  0
   59.4515   29.4153   51.8090 H   0  0  0  0  0  0  0  0  0  0  0  0
   61.1774   29.9868   50.0995 H   0  0  0  0  0  0  0  0  0  0  0  0
   60.9098   34.7948   47.0029 H   0  0  0  0  0  0  0  0  0  0  0  0
   58.7036   29.3541   46.6176 H   0  0  0  0  0  0  0  0  0  0  0  0
   57.0014   29.7238   47.0875 H   0  0  0  0  0  0  0  0  0  0  0  0
   57.9643   28.1797   44.6296 H   0  0  0  0  0  0  0  0  0  0  0  0
   57.0080   27.5571   46.0300 H   0  0  0  0  0  0  0  0  0  0  0  0
   57.0624   29.4887   43.1181 H   0  0  0  0  0  0  0  0  0  0  0  0
   55.3297   29.9905   43.2168 H   0  0  0  0  0  0  0  0  0  0  0  0
   56.9969   31.8248   43.7618 H   0  0  0  0  0  0  0  0  0  0  0  0
   55.7868   31.4810   45.0551 H   0  0  0  0  0  0  0  0  0  0  0  0
   59.3383   33.8628   49.5331 H   0  0  0  0  0  0  0  0  0  0  0  0
   57.6123   33.2962   51.2403 H   0  0  0  0  0  0  0  0  0  0  0  0
   54.3463   29.0674   50.7392 H   0  0  0  0  0  0  0  0  0  0  0  0
   52.2736   29.1072   49.3460 H   0  0  0  0  0  0  0  0  0  0  0  0
   50.5250   30.8420   49.7507 H   0  0  0  0  0  0  0  0  0  0  0  0
   52.9069   32.4958   52.9626 H   0  0  0  0  0  0  0  0  0  0  0  0
  1  2  2  0
  2  3  1  0
  3  4  1  0
  4  5  2  0
  5  6  1  0
  6  7  2  0
  7  8  1  0
  8  9  1  0
  9 10  2  0
 10 11  1  0
 11 12  2  0
 11 13  1  0
 13 14  2  0
 14 15  1  0
 15 16  1  0
 16 17  1  0
 17 18  1  0
 18 19  1  0
 19 20  1  0
 14 21  1  0
  7 22  1  0
 22 23  2  0
  2 24  1  0
 24 25  1  0
 25 26  2  0
 26 27  1  0
 27 28  2  0
 28 29  1  0
 29 30  1  0
 29 31  2  0
 23  4  1  0
 31 25  1  0
 21  9  1  0
 20 15  1  0
  5 32  1  0
  6 33  1  0
 10 34  1  0
 16 35  1  0
 16 36  1  0
 17 37  1  0
 17 38  1  0
 19 39  1  0
 19 40  1  0
 20 41  1  0
 20 42  1  0
 22 43  1  0
 23 44  1  0
 26 45  1  0
 27 46  1  0
 28 47  1  0
 31 48  1  0
M  CHG  4   3  -1  21  -1  24  -1  30  -1
M  END
>  <UniqueID>  (82) 
73

>  <SMILES>  (82) 
O=C([N-]c1ccc(Sc2cc(=O)nc(N3CCOCC3)[n-]2)cc1)[N-]c1cccc([O-])c1

>  <Energy>  (82) 
56.56340186985724

>  <Genealogy>  (82) 
O=C([N-]c1ccc(Sc2cc(=O)nc(N3CCOCC3)[n-]2)cc1)[N-]c1cccc([O-])c1 (protonated)
O=C([N-]c1ccc(Sc2cc(=O)nc(N3CCOCC3)[n-]2)cc1)[N-]c1cccc([O-])c1 (3D coordinates assigned)
O=C([N-]c1ccc(Sc2cc(=O)nc(N3CCOCC3)[n-]2)cc1)[N-]c1cccc([O-])c1 (nonaromatic ring conformer: 56.56340186985724 kcal/mol)

>  <smiles>  (82) 
O=C(Nc1ccc(Sc2cc(=O)nc(N3CCOCC3)[nH]2)cc1)Nc1cccc(O)c1

>  <score_type>  (82) 
oracle

>  <origin>  (82) 
adg

>  <m_score__min__energy>  (82) 
-16.760000000000002

>  <m_primary>  (82) 
energy

$$$$
83:0
     RDKit          3D

 63 65  0  0  0  0  0  0  0  0999 V2000
   55.1630   22.2040   48.6380 C   0  0  0  0  0  0  0  0  0  0  0  0
   56.6010   22.2090   48.2160 C   0  0  0  0  0  0  0  0  0  0  0  0
   57.1390   21.1240   47.8670 O   0  0  0  0  0  0  0  0  0  0  0  0
   57.3970   23.4000   48.2480 N   0  0  0  0  0  0  0  0  0  0  0  0
   57.1660   24.5880   47.4800 C   0  0  0  0  0  0  0  0  0  0  0  0
   55.9960   24.7510   46.7230 C   0  0  0  0  0  0  0  0  0  0  0  0
   55.7970   25.9220   45.9900 C   0  0  0  0  0  0  0  0  0  0  0  0
   56.7600   26.9360   45.9910 C   0  0  0  0  0  0  0  0  0  0  0  0
   56.4600   28.1300   45.3370 O   0  0  0  0  0  0  0  0  0  0  0  0
   57.9760   26.7410   46.6870 C   0  0  0  0  0  0  0  0  0  0  0  0
   59.0240   27.7150   46.7020 N   0  0  0  0  0  0  0  0  0  0  0  0
   58.8750   29.0850   47.0920 C   0  0  0  0  0  0  0  0  0  0  0  0
   57.7600   29.6600   46.9560 O   0  0  0  0  0  0  0  0  0  0  0  0
   60.0360   29.8330   47.6190 C   0  0  0  0  0  0  0  0  0  0  0  0
   60.8700   30.5550   46.7490 C   0  0  0  0  0  0  0  0  0  0  0  0
   61.9750   31.2510   47.2450 C   0  0  0  0  0  0  0  0  0  0  0  0
   62.2790   31.2210   48.6140 C   0  0  0  0  0  0  0  0  0  0  0  0
   63.4600   31.9940   49.1360 C   0  0  0  0  0  0  0  0  0  0  0  0
   63.0280   33.3620   49.4930 N   0  0  0  0  0  0  0  0  0  0  0  0
   62.1300   33.3430   50.6630 C   0  0  0  0  0  0  0  0  0  0  0  0
   62.3920   34.0660   48.3510 C   0  0  0  0  0  0  0  0  0  0  0  0
   60.9930   34.5500   48.7470 C   0  0  0  0  0  0  0  0  0  0  0  0
   59.9570   34.0780   47.7570 C   0  0  0  0  0  0  0  0  0  0  0  0
   60.0240   34.4630   46.4090 C   0  0  0  0  0  0  0  0  0  0  0  0
   59.0620   34.0160   45.4980 C   0  0  0  0  0  0  0  0  0  0  0  0
   58.0310   33.1610   45.9150 C   0  0  0  0  0  0  0  0  0  0  0  0
   57.0480   32.7470   44.9560 N   0  0  0  0  0  0  0  0  0  0  0  0
   57.0380   31.2320   44.1110 S   0  0  0  0  0  0  0  0  0  0  0  0
   57.1050   31.5000   42.3510 C   0  0  0  0  0  0  0  0  0  0  0  0
   58.2510   30.4420   44.5150 O   0  0  0  0  0  0  0  0  0  0  0  0
   55.8100   30.4470   44.4750 O   0  0  0  0  0  0  0  0  0  0  0  0
   57.9910   32.7410   47.2560 C   0  0  0  0  0  0  0  0  0  0  0  0
   58.9430   33.2030   48.1690 C   0  0  0  0  0  0  0  0  0  0  0  0
   61.4410   30.5140   49.4870 C   0  0  0  0  0  0  0  0  0  0  0  0
   60.3260   29.8300   48.9950 C   0  0  0  0  0  0  0  0  0  0  0  0
   58.1560   25.5760   47.4400 C   0  0  0  0  0  0  0  0  0  0  0  0
   55.1032   22.2038   49.7364 H   0  0  0  0  0  0  0  0  0  0  0  0
   54.6620   23.1004   48.2437 H   0  0  0  0  0  0  0  0  0  0  0  0
   54.6683   21.3041   48.2437 H   0  0  0  0  0  0  0  0  0  0  0  0
   55.2358   23.9562   46.7072 H   0  0  0  0  0  0  0  0  0  0  0  0
   54.8736   26.0485   45.4058 H   0  0  0  0  0  0  0  0  0  0  0  0
   57.0400   28.9540   45.3990 H   0  0  0  0  0  0  0  0  0  0  0  0
   60.6516   30.5724   45.6710 H   0  0  0  0  0  0  0  0  0  0  0  0
   62.6114   31.8268   46.5569 H   0  0  0  0  0  0  0  0  0  0  0  0
   63.8634   31.4914   50.0275 H   0  0  0  0  0  0  0  0  0  0  0  0
   64.2399   32.0436   48.3618 H   0  0  0  0  0  0  0  0  0  0  0  0
   62.7292   33.3557   51.5854 H   0  0  0  0  0  0  0  0  0  0  0  0
   61.4765   34.2275   50.6381 H   0  0  0  0  0  0  0  0  0  0  0  0
   61.5145   32.4316   50.6381 H   0  0  0  0  0  0  0  0  0  0  0  0
   63.0096   34.9307   48.0665 H   0  0  0  0  0  0  0  0  0  0  0  0
   62.3070   33.3725   47.5014 H   0  0  0  0  0  0  0  0  0  0  0  0
   60.7445   34.1554   49.7433 H   0  0  0  0  0  0  0  0  0  0  0  0
   60.9926   35.6500   48.7569 H   0  0  0  0  0  0  0  0  0  0  0  0
   60.8376   35.1198   46.0674 H   0  0  0  0  0  0  0  0  0  0  0  0
   59.1140   34.3370   44.4472 H   0  0  0  0  0  0  0  0  0  0  0  0
   57.3673   32.5491   42.1496 H   0  0  0  0  0  0  0  0  0  0  0  0
   57.8659   30.8403   41.9084 H   0  0  0  0  0  0  0  0  0  0  0  0
   56.1232   31.2760   41.9084 H   0  0  0  0  0  0  0  0  0  0  0  0
   57.2065   32.0453   47.5884 H   0  0  0  0  0  0  0  0  0  0  0  0
   58.8959   32.8774   49.2186 H   0  0  0  0  0  0  0  0  0  0  0  0
   61.6619   30.4974   50.5645 H   0  0  0  0  0  0  0  0  0  0  0  0
   59.6700   29.2849   49.6897 H   0  0  0  0  0  0  0  0  0  0  0  0
   59.0875   25.4348   48.0078 H   0  0  0  0  0  0  0  0  0  0  0  0
  1  2  1  0
  2  3  2  0
  2  4  1  0
  4  5  1  0
  5  6  2  0
  6  7  1  0
  7  8  2  0
  8  9  1  0
  8 10  1  0
 10 11  1  0
 11 12  1  0
 12 13  2  0
 12 14  1  0
 14 15  2  0
 15 16  1  0
 16 17  2  0
 17 18  1  0
 18 19  1  0
 19 20  1  0
 19 21  1  0
 21 22  1  0
 22 23  1  0
 23 24  2  0
 24 25  1  0
 25 26  2  0
 26 27  1  0
 27 28  1  0
 28 29  1  0
 28 30  2  0
 28 31  2  0
 26 32  1  0
 32 33  2  0
 17 34  1  0
 34 35  2  0
 10 36  2  0
 36  5  1  0
 35 14  1  0
 33 23  1  0
  1 37  1  0
  1 38  1  0
  1 39  1  0
  6 40  1  0
  7 41  1  0
  9 42  1  0
 15 43  1  0
 16 44  1  0
 18 45  1  0
 18 46  1  0
 20 47  1  0
 20 48  1  0
 20 49  1  0
 21 50  1  0
 21 51  1  0
 22 52  1  0
 22 53  1  0
 24 54  1  0
 25 55  1  0
 29 56  1  0
 29 57  1  0
 29 58  1  0
 32 59  1  0
 33 60  1  0
 34 61  1  0
 35 62  1  0
 36 63  1  0
M  CHG  3   4  -1  11  -1  27  -1
M  END
>  <UniqueID>  (83) 
74

>  <SMILES>  (83) 
CC(=O)[N-]c1ccc(O)c([N-]C(=O)c2ccc(CN(C)CCc3ccc([N-]S(C)(=O)=O)cc3)cc2)c1

>  <Energy>  (83) 
67.67648112663004

>  <Genealogy>  (83) 
CC(=O)[N-]c1ccc(O)c([N-]C(=O)c2ccc(CN(C)CCc3ccc([N-]S(C)(=O)=O)cc3)cc2)c1 (protonated)
CC(=O)[N-]c1ccc(O)c([N-]C(=O)c2ccc(CN(C)CCc3ccc([N-]S(C)(=O)=O)cc3)cc2)c1 (3D coordinates assigned)
CC(=O)[N-]c1ccc(O)c([N-]C(=O)c2ccc(CN(C)CCc3ccc([N-]S(C)(=O)=O)cc3)cc2)c1 (optimized conformer: 67.67648112663004 kcal/mol)

>  <smiles>  (83) 
CC(=O)Nc1ccc(O)c(NC(=O)c2ccc(CN(C)CCc3ccc(NS(C)(=O)=O)cc3)cc2)c1

>  <score_type>  (83) 
oracle

>  <origin>  (83) 
adg

>  <m_score__min__energy>  (83) 
-16.18

>  <m_primary>  (83) 
energy

$$$$
