0:0
     RDKit          3D

 42 44  0  0  0  0  0  0  0  0999 V2000
   58.3310   34.5764   47.7877 H   0  0  0  0  0  0  0  0  0  0  0  0
   58.2830   34.1450   46.7770 C   0  0  0  0  0  0  0  0  0  0  0  0
   59.1690   34.5800   45.7920 C   0  0  0  0  0  0  0  0  0  0  0  0
   59.9124   35.3563   46.0260 H   0  0  0  0  0  0  0  0  0  0  0  0
   59.1140   34.0320   44.5100 C   0  0  0  0  0  0  0  0  0  0  0  0
   59.8147   34.3794   43.7365 H   0  0  0  0  0  0  0  0  0  0  0  0
   58.1690   33.0390   44.2010 C   0  0  0  0  0  0  0  0  0  0  0  0
   58.1030   32.4730   42.8090 C   0  0  0  0  0  0  0  0  0  0  0  0
   57.9758   31.3817   42.8626 H   0  0  0  0  0  0  0  0  0  0  0  0
   57.2504   32.9157   42.2732 H   0  0  0  0  0  0  0  0  0  0  0  0
   59.0346   32.7077   42.2732 H   0  0  0  0  0  0  0  0  0  0  0  0
   57.2640   32.6030   45.1940 C   0  0  0  0  0  0  0  0  0  0  0  0
   56.2820   31.6090   44.8610 N   0  0  0  0  0  0  0  0  0  0  0  0
   56.6280   29.9710   44.4040 S   0  0  0  0  0  0  0  0  0  0  0  0
   56.7210   29.8870   42.9060 O   0  0  0  0  0  0  0  0  0  0  0  0
   55.5120   29.0860   44.8800 O   0  0  0  0  0  0  0  0  0  0  0  0
   58.1340   29.4350   45.1450 C   0  0  0  0  0  0  0  0  0  0  0  0
   59.0050   28.5970   44.4390 C   0  0  0  0  0  0  0  0  0  0  0  0
   58.7438   28.2645   43.4235 H   0  0  0  0  0  0  0  0  0  0  0  0
   60.2050   28.1820   45.0210 C   0  0  0  0  0  0  0  0  0  0  0  0
   60.8846   27.5195   44.4649 H   0  0  0  0  0  0  0  0  0  0  0  0
   60.5440   28.6070   46.3090 C   0  0  0  0  0  0  0  0  0  0  0  0
   61.4926   28.2799   46.7598 H   0  0  0  0  0  0  0  0  0  0  0  0
   59.6810   29.4500   47.0330 C   0  0  0  0  0  0  0  0  0  0  0  0
   60.0430   29.9230   48.3890 C   0  0  0  0  0  0  0  0  0  0  0  0
   60.1350   29.0940   49.3360 O   0  0  0  0  0  0  0  0  0  0  0  0
   60.3840   31.3050   48.5910 N   0  0  0  0  0  0  0  0  0  0  0  0
   61.4410   31.9660   48.2020 C   0  0  0  0  0  0  0  0  0  0  0  0
   61.4250   32.8600   47.1090 C   0  0  0  0  0  0  0  0  0  0  0  0
   60.4954   33.0305   46.5462 H   0  0  0  0  0  0  0  0  0  0  0  0
   62.5980   33.5260   46.7480 C   0  0  0  0  0  0  0  0  0  0  0  0
   62.5922   34.2312   45.9038 H   0  0  0  0  0  0  0  0  0  0  0  0
   63.7750   33.2980   47.4560 C   0  0  0  0  0  0  0  0  0  0  0  0
   64.7006   33.8248   47.1809 H   0  0  0  0  0  0  0  0  0  0  0  0
   63.7670   32.3940   48.5180 C   0  0  0  0  0  0  0  0  0  0  0  0
   64.6927   32.1998   49.0796 H   0  0  0  0  0  0  0  0  0  0  0  0
   62.6170   31.7510   48.8620 N   0  0  0  0  0  0  0  0  0  0  0  0
   62.6460   31.0780   49.6620 H   0  0  0  0  0  0  0  0  0  0  0  0
   58.4670   29.8470   46.4430 C   0  0  0  0  0  0  0  0  0  0  0  0
   57.7719   30.4873   47.0060 H   0  0  0  0  0  0  0  0  0  0  0  0
   57.3350   33.1630   46.4830 C   0  0  0  0  0  0  0  0  0  0  0  0
   56.6387   32.8247   47.2645 H   0  0  0  0  0  0  0  0  0  0  0  0
  1  2  1  0
  2  3  2  0
  3  4  1  0
  3  5  1  0
  5  6  1  0
  5  7  2  0
  7  8  1  0
  8  9  1  0
  8 10  1  0
  8 11  1  0
  7 12  1  0
 12 13  1  0
 13 14  1  0
 14 15  2  0
 14 16  2  0
 14 17  1  0
 17 18  2  0
 18 19  1  0
 18 20  1  0
 20 21  1  0
 20 22  2  0
 22 23  1  0
 22 24  1  0
 24 25  1  0
 25 26  2  0
 25 27  1  0
 27 28  2  0
 28 29  1  0
 29 30  1  0
 29 31  2  0
 31 32  1  0
 31 33  1  0
 33 34  1  0
 33 35  2  0
 35 36  1  0
 35 37  1  0
 37 38  1  0
 24 39  2  0
 39 40  1  0
 12 41  2  0
 41 42  1  0
 41  2  1  0
 39 17  1  0
 37 28  1  0
M  CHG  1  13  -1
M  END
>  <UniqueID>  (1) 
1

>  <SMILES>  (1) 
Cc1ccccc1[N-]S(=O)(=O)c1cccc(C(=O)/N=c2\cccc[nH]2)c1

>  <Energy>  (1) 
56.01551313658376

>  <Genealogy>  (1) 
Cc1ccccc1[N-]S(=O)(=O)c1cccc(C(=O)N=c2cccc[nH]2)c1 (protonated)
Cc1ccccc1[N-]S(=O)(=O)c1cccc(C(=O)/N=c2\cccc[nH]2)c1 (cis-trans isomerization)
Cc1ccccc1[N-]S(=O)(=O)c1cccc(C(=O)/N=c2\cccc[nH]2)c1 (3D coordinates assigned)
Cc1ccccc1[N-]S(=O)(=O)c1cccc(C(=O)/N=c2\cccc[nH]2)c1 (optimized conformer: 56.01551313658376 kcal/mol)

>  <smiles>  (1) 
Cc1ccccc1NS(=O)(=O)c1cccc(C(=O)N=c2cccc[nH]2)c1

>  <score_type>  (1) 
oracle

>  <origin>  (1) 
adg

>  <m_score__min__energy>  (1) 
-10.31

>  <m_primary>  (1) 
energy

$$$$
1:0
     RDKit          3D

 63 65  0  0  0  0  0  0  0  0999 V2000
   57.1460   22.0730   43.3960 C   0  0  0  0  0  0  0  0  0  0  0  0
   57.2350   21.0890   44.5590 C   0  0  0  0  0  0  0  0  0  0  0  0
   57.5770   21.8080   45.8710 C   0  0  0  0  0  0  0  0  0  0  0  0
   56.9680   23.1550   45.8930 N   0  0  0  0  0  0  0  0  0  0  0  0
   57.7440   24.2950   45.8050 C   0  0  0  0  0  0  0  0  0  0  0  0
   59.1740   24.2160   45.6460 N   0  0  0  0  0  0  0  0  0  0  0  0
   57.1260   25.5640   45.8380 C   0  0  0  0  0  0  0  0  0  0  0  0
   57.8970   26.7770   45.7470 N   0  0  0  0  0  0  0  0  0  0  0  0
   57.4830   27.8060   44.7790 C   0  0  0  0  0  0  0  0  0  0  0  0
   57.0100   29.0730   45.4930 C   0  0  0  0  0  0  0  0  0  0  0  0
   55.8070   29.5220   44.9030 O   0  0  0  0  0  0  0  0  0  0  0  0
   56.0410   29.8530   43.5520 C   0  0  0  0  0  0  0  0  0  0  0  0
   59.0220   26.9600   46.6350 C   0  0  0  0  0  0  0  0  0  0  0  0
   59.1070   26.2470   47.6760 O   0  0  0  0  0  0  0  0  0  0  0  0
   60.0650   28.0220   46.3850 C   0  0  0  0  0  0  0  0  0  0  0  0
   59.7830   29.2690   47.1670 C   0  0  0  0  0  0  0  0  0  0  0  0
   59.2090   29.3190   48.4340 C   0  0  0  0  0  0  0  0  0  0  0  0
   59.1610   30.6120   48.9660 C   0  0  0  0  0  0  0  0  0  0  0  0
   59.7030   31.5670   48.1190 C   0  0  0  0  0  0  0  0  0  0  0  0
   59.8630   33.2780   48.4790 S   0  0  0  0  0  0  0  0  0  0  0  0
   61.3200   33.6470   48.4160 O   0  0  0  0  0  0  0  0  0  0  0  0
   59.3560   33.5450   49.8710 O   0  0  0  0  0  0  0  0  0  0  0  0
   58.9600   34.2220   47.3160 N   0  0  0  0  0  0  0  0  0  0  0  0
   59.7900   34.4740   46.1160 C   0  0  0  0  0  0  0  0  0  0  0  0
   58.9090   34.7410   44.8820 C   0  0  0  0  0  0  0  0  0  0  0  0
   58.0460   33.6620   44.5470 O   0  0  0  0  0  0  0  0  0  0  0  0
   57.7250   32.8200   45.6490 C   0  0  0  0  0  0  0  0  0  0  0  0
   57.6670   33.5700   46.9920 C   0  0  0  0  0  0  0  0  0  0  0  0
   60.2570   30.8210   46.7160 S   0  0  0  0  0  0  0  0  0  0  0  0
   55.7360   25.6280   45.9550 C   0  0  0  0  0  0  0  0  0  0  0  0
   55.1470   26.7420   46.0110 O   0  0  0  0  0  0  0  0  0  0  0  0
   55.0100   24.4900   46.0090 N   0  0  0  0  0  0  0  0  0  0  0  0
   55.5990   23.2690   45.9700 C   0  0  0  0  0  0  0  0  0  0  0  0
   54.8650   22.2440   46.0060 O   0  0  0  0  0  0  0  0  0  0  0  0
   57.0534   23.0966   43.7880 H   0  0  0  0  0  0  0  0  0  0  0  0
   58.0547   21.9968   42.7808 H   0  0  0  0  0  0  0  0  0  0  0  0
   56.2657   21.8349   42.7808 H   0  0  0  0  0  0  0  0  0  0  0  0
   56.2672   20.5785   44.6716 H   0  0  0  0  0  0  0  0  0  0  0  0
   58.0334   20.3644   44.3412 H   0  0  0  0  0  0  0  0  0  0  0  0
   57.1905   21.2214   46.7175 H   0  0  0  0  0  0  0  0  0  0  0  0
   58.6696   21.9085   45.9491 H   0  0  0  0  0  0  0  0  0  0  0  0
   59.8200   24.8090   46.2110 H   0  0  0  0  0  0  0  0  0  0  0  0
   59.6340   23.6410   44.9080 H   0  0  0  0  0  0  0  0  0  0  0  0
   58.3370   28.0554   44.1321 H   0  0  0  0  0  0  0  0  0  0  0  0
   56.6492   27.4090   44.1814 H   0  0  0  0  0  0  0  0  0  0  0  0
   56.8372   28.8522   46.5567 H   0  0  0  0  0  0  0  0  0  0  0  0
   57.7784   29.8549   45.4022 H   0  0  0  0  0  0  0  0  0  0  0  0
   56.6752   30.7502   43.4989 H   0  0  0  0  0  0  0  0  0  0  0  0
   56.5485   29.0150   43.0518 H   0  0  0  0  0  0  0  0  0  0  0  0
   55.0817   30.0520   43.0518 H   0  0  0  0  0  0  0  0  0  0  0  0
   61.0500   27.6311   46.6799 H   0  0  0  0  0  0  0  0  0  0  0  0
   60.0468   28.2761   45.3149 H   0  0  0  0  0  0  0  0  0  0  0  0
   58.8314   28.4318   48.9634 H   0  0  0  0  0  0  0  0  0  0  0  0
   58.7373   30.8468   49.9536 H   0  0  0  0  0  0  0  0  0  0  0  0
   58.7560   35.1420   47.7710 H   0  0  0  0  0  0  0  0  0  0  0  0
   60.4290   35.3506   46.2982 H   0  0  0  0  0  0  0  0  0  0  0  0
   60.4047   33.5827   45.9216 H   0  0  0  0  0  0  0  0  0  0  0  0
   58.2917   35.6291   45.0826 H   0  0  0  0  0  0  0  0  0  0  0  0
   59.5886   34.8836   44.0288 H   0  0  0  0  0  0  0  0  0  0  0  0
   56.7429   32.3607   45.4630 H   0  0  0  0  0  0  0  0  0  0  0  0
   58.5252   32.0695   45.7294 H   0  0  0  0  0  0  0  0  0  0  0  0
   56.8840   34.3406   46.9358 H   0  0  0  0  0  0  0  0  0  0  0  0
   57.4458   32.8381   47.7828 H   0  0  0  0  0  0  0  0  0  0  0  0
  1  2  1  0
  2  3  1  0
  3  4  1  0
  4  5  1  0
  5  6  1  0
  5  7  2  0
  7  8  1  0
  8  9  1  0
  9 10  1  0
 10 11  1  0
 11 12  1  0
  8 13  1  0
 13 14  2  0
 13 15  1  0
 15 16  1  0
 16 17  2  0
 17 18  1  0
 18 19  2  0
 19 20  1  0
 20 21  2  0
 20 22  2  0
 20 23  1  0
 23 24  1  0
 24 25  1  0
 25 26  1  0
 26 27  1  0
 27 28  1  0
 19 29  1  0
  7 30  1  0
 30 31  2  0
 30 32  1  0
 32 33  1  0
 33 34  2  0
 33  4  1  0
 29 16  1  0
 28 23  1  0
  1 35  1  0
  1 36  1  0
  1 37  1  0
  2 38  1  0
  2 39  1  0
  3 40  1  0
  3 41  1  0
  6 42  1  0
  6 43  1  0
  9 44  1  0
  9 45  1  0
 10 46  1  0
 10 47  1  0
 12 48  1  0
 12 49  1  0
 12 50  1  0
 15 51  1  0
 15 52  1  0
 17 53  1  0
 18 54  1  0
 23 55  1  0
 24 56  1  0
 24 57  1  0
 25 58  1  0
 25 59  1  0
 27 60  1  0
 27 61  1  0
 28 62  1  0
 28 63  1  0
M  CHG  2  23   1  32  -1
M  END
>  <UniqueID>  (2) 
2

>  <SMILES>  (2) 
CCCn1c(N)c(N(CCOC)C(=O)Cc2ccc(S(=O)(=O)[NH+]3CCOCC3)s2)c(=O)[n-]c1=O

>  <Energy>  (2) 
106.81409346881955

>  <Genealogy>  (2) 
CCCn1c(N)c(N(CCOC)C(=O)Cc2ccc(S(=O)(=O)[NH+]3CCOCC3)s2)c(=O)[n-]c1=O (protonated)
CCCn1c(N)c(N(CCOC)C(=O)Cc2ccc(S(=O)(=O)[NH+]3CCOCC3)s2)c(=O)[n-]c1=O (3D coordinates assigned)
CCCn1c(N)c(N(CCOC)C(=O)Cc2ccc(S(=O)(=O)[NH+]3CCOCC3)s2)c(=O)[n-]c1=O (nonaromatic ring conformer: 106.81409346881955 kcal/mol)

>  <smiles>  (2) 
CCCn1c(N)c(N(CCOC)C(=O)Cc2ccc(S(=O)(=O)N3CCOCC3)s2)c(=O)[nH]c1=O

>  <score_type>  (2) 
oracle

>  <origin>  (2) 
adg

>  <m_score__min__energy>  (2) 
-8.5199999999999996

>  <m_primary>  (2) 
energy

$$$$
2:0
     RDKit          3D

 42 43  0  0  0  0  0  0  0  0999 V2000
   58.1160   33.0530   43.7410 C   0  0  0  0  0  0  0  0  0  0  0  0
   58.1100   32.8380   45.1980 N   0  0  0  0  0  0  0  0  0  0  0  0
   58.3500   34.1140   45.9040 C   0  0  0  0  0  0  0  0  0  0  0  0
   59.6310   34.0590   46.6970 C   0  0  0  0  0  0  0  0  0  0  0  0
   60.7240   34.2170   46.0920 O   0  0  0  0  0  0  0  0  0  0  0  0
   59.6580   33.8110   48.1120 N   0  0  0  0  0  0  0  0  0  0  0  0
   59.7120   32.5310   48.7560 C   0  0  0  0  0  0  0  0  0  0  0  0
   60.6150   31.5380   48.3460 C   0  0  0  0  0  0  0  0  0  0  0  0
   60.6720   30.3180   49.0230 C   0  0  0  0  0  0  0  0  0  0  0  0
   59.8190   30.0750   50.1030 C   0  0  0  0  0  0  0  0  0  0  0  0
   58.8840   31.0420   50.4940 C   0  0  0  0  0  0  0  0  0  0  0  0
   57.8190   30.7260   51.8610 S   0  0  0  0  0  0  0  0  0  0  0  0
   56.5860   31.9360   51.9280 N   0  0  0  0  0  0  0  0  0  0  0  0
   57.1930   29.3700   51.7010 O   0  0  0  0  0  0  0  0  0  0  0  0
   58.5980   30.7580   53.1460 O   0  0  0  0  0  0  0  0  0  0  0  0
   58.8210   32.2600   49.8020 C   0  0  0  0  0  0  0  0  0  0  0  0
   59.0930   31.8000   45.5840 C   0  0  0  0  0  0  0  0  0  0  0  0
   58.4210   30.4540   45.6130 C   0  0  0  0  0  0  0  0  0  0  0  0
   59.0880   29.3490   46.1560 C   0  0  0  0  0  0  0  0  0  0  0  0
   58.4480   28.1120   46.2540 C   0  0  0  0  0  0  0  0  0  0  0  0
   57.1230   27.9530   45.8130 C   0  0  0  0  0  0  0  0  0  0  0  0
   56.4650   26.6280   45.9510 C   0  0  0  0  0  0  0  0  0  0  0  0
   57.1440   25.5700   46.0130 O   0  0  0  0  0  0  0  0  0  0  0  0
   55.0800   26.5370   46.0120 O   0  0  0  0  0  0  0  0  0  0  0  0
   56.4540   29.0660   45.2550 C   0  0  0  0  0  0  0  0  0  0  0  0
   55.1450   28.9630   44.7940 O   0  0  0  0  0  0  0  0  0  0  0  0
   57.1040   30.3010   45.1570 C   0  0  0  0  0  0  0  0  0  0  0  0
   58.1461   34.1321   43.5297 H   0  0  0  0  0  0  0  0  0  0  0  0
   59.0010   32.5687   43.3025 H   0  0  0  0  0  0  0  0  0  0  0  0
   57.2054   32.6188   43.3025 H   0  0  0  0  0  0  0  0  0  0  0  0
   58.4184   34.9265   45.1656 H   0  0  0  0  0  0  0  0  0  0  0  0
   57.5154   34.2935   46.5977 H   0  0  0  0  0  0  0  0  0  0  0  0
   61.2797   31.7212   47.4889 H   0  0  0  0  0  0  0  0  0  0  0  0
   61.3895   29.5470   48.7057 H   0  0  0  0  0  0  0  0  0  0  0  0
   59.8820   29.1214   50.6477 H   0  0  0  0  0  0  0  0  0  0  0  0
   56.1500   31.9850   50.9800 H   0  0  0  0  0  0  0  0  0  0  0  0
   58.0656   33.0087   50.0830 H   0  0  0  0  0  0  0  0  0  0  0  0
   59.9142   31.7834   44.8523 H   0  0  0  0  0  0  0  0  0  0  0  0
   59.4937   32.0297   46.5823 H   0  0  0  0  0  0  0  0  0  0  0  0
   60.1245   29.4564   46.5082 H   0  0  0  0  0  0  0  0  0  0  0  0
   58.9864   27.2529   46.6808 H   0  0  0  0  0  0  0  0  0  0  0  0
   56.5765   31.1606   44.7178 H   0  0  0  0  0  0  0  0  0  0  0  0
  1  2  1  0
  2  3  1  0
  3  4  1  0
  4  5  2  0
  4  6  1  0
  6  7  1  0
  7  8  2  0
  8  9  1  0
  9 10  2  0
 10 11  1  0
 11 12  1  0
 12 13  1  0
 12 14  2  0
 12 15  2  0
 11 16  2  0
  2 17  1  0
 17 18  1  0
 18 19  2  0
 19 20  1  0
 20 21  2  0
 21 22  1  0
 22 23  2  0
 22 24  1  0
 21 25  1  0
 25 26  1  0
 25 27  2  0
 16  7  1  0
 27 18  1  0
  1 28  1  0
  1 29  1  0
  1 30  1  0
  3 31  1  0
  3 32  1  0
  8 33  1  0
  9 34  1  0
 10 35  1  0
 13 36  1  0
 16 37  1  0
 17 38  1  0
 17 39  1  0
 19 40  1  0
 20 41  1  0
 27 42  1  0
M  CHG  4   6  -1  13  -1  24  -1  26  -1
M  END
>  <UniqueID>  (3) 
3

>  <SMILES>  (3) 
CN(CC(=O)[N-]c1cccc(S([NH-])(=O)=O)c1)Cc1ccc(C(=O)[O-])c([O-])c1

>  <Energy>  (3) 
46.228089595818155

>  <Genealogy>  (3) 
CN(CC(=O)[N-]c1cccc(S([NH-])(=O)=O)c1)Cc1ccc(C(=O)[O-])c([O-])c1 (protonated)
CN(CC(=O)[N-]c1cccc(S([NH-])(=O)=O)c1)Cc1ccc(C(=O)[O-])c([O-])c1 (3D coordinates assigned)
CN(CC(=O)[N-]c1cccc(S([NH-])(=O)=O)c1)Cc1ccc(C(=O)[O-])c([O-])c1 (optimized conformer: 46.228089595818155 kcal/mol)

>  <smiles>  (3) 
CN(CC(=O)Nc1cccc(S(N)(=O)=O)c1)Cc1ccc(C(=O)O)c(O)c1

>  <score_type>  (3) 
oracle

>  <origin>  (3) 
adg

>  <m_score__min__energy>  (3) 
-17.010000000000002

>  <m_primary>  (3) 
energy

$$$$
3:0
     RDKit          3D

 41 42  0  0  0  0  0  0  0  0999 V2000
   56.2700   23.2750   44.3610 C   0  0  0  0  0  0  0  0  0  0  0  0
   57.6970   22.8090   44.0740 C   0  0  0  0  0  0  0  0  0  0  0  0
   57.6970   21.4220   43.4280 C   0  0  0  0  0  0  0  0  0  0  0  0
   58.6620   22.7930   45.5870 S   0  0  0  0  0  0  0  0  0  0  0  0
   59.7760   21.7880   45.4930 O   0  0  0  0  0  0  0  0  0  0  0  0
   57.7710   22.4180   46.7370 O   0  0  0  0  0  0  0  0  0  0  0  0
   59.3190   24.3700   45.8870 N   0  0  0  0  0  0  0  0  0  0  0  0
   58.5970   25.6040   45.7720 C   0  0  0  0  0  0  0  0  0  0  0  0
   58.2980   26.4040   46.8900 C   0  0  0  0  0  0  0  0  0  0  0  0
   57.6170   27.6130   46.7290 C   0  0  0  0  0  0  0  0  0  0  0  0
   57.2380   28.0470   45.4500 C   0  0  0  0  0  0  0  0  0  0  0  0
   56.5690   29.3460   45.2610 C   0  0  0  0  0  0  0  0  0  0  0  0
   55.4030   29.3700   44.7860 O   0  0  0  0  0  0  0  0  0  0  0  0
   57.2220   30.5900   45.5530 N   0  0  0  0  0  0  0  0  0  0  0  0
   57.3990   31.7060   44.6230 C   0  0  0  0  0  0  0  0  0  0  0  0
   58.0880   32.8670   45.2920 C   0  0  0  0  0  0  0  0  0  0  0  0
   58.6270   33.9100   44.5200 C   0  0  0  0  0  0  0  0  0  0  0  0
   59.2820   34.9790   45.1380 C   0  0  0  0  0  0  0  0  0  0  0  0
   59.3980   35.0190   46.5300 C   0  0  0  0  0  0  0  0  0  0  0  0
   58.8530   33.9930   47.3070 C   0  0  0  0  0  0  0  0  0  0  0  0
   58.1980   32.9220   46.6930 C   0  0  0  0  0  0  0  0  0  0  0  0
   57.5010   27.2310   44.3410 C   0  0  0  0  0  0  0  0  0  0  0  0
   58.1780   26.0190   44.5030 C   0  0  0  0  0  0  0  0  0  0  0  0
   56.1128   23.3263   45.4485 H   0  0  0  0  0  0  0  0  0  0  0  0
   56.1139   24.2708   43.9205 H   0  0  0  0  0  0  0  0  0  0  0  0
   55.5563   22.5633   43.9205 H   0  0  0  0  0  0  0  0  0  0  0  0
   58.1561   23.5169   43.3683 H   0  0  0  0  0  0  0  0  0  0  0  0
   58.7341   21.0896   43.2732 H   0  0  0  0  0  0  0  0  0  0  0  0
   57.1785   20.7104   44.0874 H   0  0  0  0  0  0  0  0  0  0  0  0
   57.1785   21.4688   42.4590 H   0  0  0  0  0  0  0  0  0  0  0  0
   58.6017   26.0761   47.8951 H   0  0  0  0  0  0  0  0  0  0  0  0
   57.3768   28.2275   47.6092 H   0  0  0  0  0  0  0  0  0  0  0  0
   58.0077   31.3700   43.7706 H   0  0  0  0  0  0  0  0  0  0  0  0
   56.4068   32.0378   44.2833 H   0  0  0  0  0  0  0  0  0  0  0  0
   58.5331   33.8851   43.4243 H   0  0  0  0  0  0  0  0  0  0  0  0
   59.7067   35.7898   44.5279 H   0  0  0  0  0  0  0  0  0  0  0  0
   59.9185   35.8583   47.0144 H   0  0  0  0  0  0  0  0  0  0  0  0
   58.9397   34.0285   48.4030 H   0  0  0  0  0  0  0  0  0  0  0  0
   57.7666   32.1186   47.3082 H   0  0  0  0  0  0  0  0  0  0  0  0
   57.1733   27.5458   43.3392 H   0  0  0  0  0  0  0  0  0  0  0  0
   58.3829   25.3867   43.6265 H   0  0  0  0  0  0  0  0  0  0  0  0
  1  2  1  0
  2  3  1  0
  2  4  1  0
  4  5  2  0
  4  6  2  0
  4  7  1  0
  7  8  1  0
  8  9  2  0
  9 10  1  0
 10 11  2  0
 11 12  1  0
 12 13  2  0
 12 14  1  0
 14 15  1  0
 15 16  1  0
 16 17  2  0
 17 18  1  0
 18 19  2  0
 19 20  1  0
 20 21  2  0
 11 22  1  0
 22 23  2  0
 23  8  1  0
 21 16  1  0
  1 24  1  0
  1 25  1  0
  1 26  1  0
  2 27  1  0
  3 28  1  0
  3 29  1  0
  3 30  1  0
  9 31  1  0
 10 32  1  0
 15 33  1  0
 15 34  1  0
 17 35  1  0
 18 36  1  0
 19 37  1  0
 20 38  1  0
 21 39  1  0
 22 40  1  0
 23 41  1  0
M  CHG  2   7  -1  14  -1
M  END
>  <UniqueID>  (4) 
4

>  <SMILES>  (4) 
CC(C)S(=O)(=O)[N-]c1ccc(C(=O)[N-]Cc2ccccc2)cc1

>  <Energy>  (4) 
36.49311977219025

>  <Genealogy>  (4) 
CC(C)S(=O)(=O)[N-]c1ccc(C(=O)[N-]Cc2ccccc2)cc1 (protonated)
CC(C)S(=O)(=O)[N-]c1ccc(C(=O)[N-]Cc2ccccc2)cc1 (3D coordinates assigned)
CC(C)S(=O)(=O)[N-]c1ccc(C(=O)[N-]Cc2ccccc2)cc1 (optimized conformer: 36.49311977219025 kcal/mol)

>  <smiles>  (4) 
CC(C)S(=O)(=O)Nc1ccc(C(=O)NCc2ccccc2)cc1

>  <score_type>  (4) 
oracle

>  <origin>  (4) 
adg

>  <m_score__min__energy>  (4) 
-10.859999999999999

>  <m_primary>  (4) 
energy

$$$$
4:0
     RDKit          3D

 39 41  0  0  0  0  0  0  0  0999 V2000
   55.1730   29.4450   44.8360 N   0  0  0  0  0  0  0  0  0  0  0  0
   56.1860   30.1470   44.1170 C   0  0  0  0  0  0  0  0  0  0  0  0
   56.2110   30.0550   42.8600 O   0  0  0  0  0  0  0  0  0  0  0  0
   57.1960   30.9640   44.8430 C   0  0  0  0  0  0  0  0  0  0  0  0
   56.9880   32.3530   44.9740 C   0  0  0  0  0  0  0  0  0  0  0  0
   57.9100   33.1540   45.6500 C   0  0  0  0  0  0  0  0  0  0  0  0
   59.0600   32.5880   46.1960 C   0  0  0  0  0  0  0  0  0  0  0  0
   59.2880   31.2180   46.0770 C   0  0  0  0  0  0  0  0  0  0  0  0
   58.3550   30.3910   45.4260 C   0  0  0  0  0  0  0  0  0  0  0  0
   58.6380   28.9930   45.2670 N   0  0  0  0  0  0  0  0  0  0  0  0
   58.9300   28.0660   46.3210 C   0  0  0  0  0  0  0  0  0  0  0  0
   60.1270   27.7140   46.4990 O   0  0  0  0  0  0  0  0  0  0  0  0
   57.8330   27.3720   47.0870 C   0  0  0  0  0  0  0  0  0  0  0  0
   57.4250   26.1380   46.4120 N   0  0  0  0  0  0  0  0  0  0  0  0
   56.1990   25.8550   45.9190 C   0  0  0  0  0  0  0  0  0  0  0  0
   55.0950   26.6940   46.0330 O   0  0  0  0  0  0  0  0  0  0  0  0
   56.2040   24.6260   45.2910 C   0  0  0  0  0  0  0  0  0  0  0  0
   57.4790   24.1230   45.4290 C   0  0  0  0  0  0  0  0  0  0  0  0
   58.2100   25.0850   46.0960 C   0  0  0  0  0  0  0  0  0  0  0  0
   59.5630   24.9960   46.4030 O   0  0  0  0  0  0  0  0  0  0  0  0
   57.9410   22.8330   44.8220 C   0  0  0  0  0  0  0  0  0  0  0  0
   56.7310   21.9390   44.4820 C   0  0  0  0  0  0  0  0  0  0  0  0
   55.6100   22.7350   43.7760 C   0  0  0  0  0  0  0  0  0  0  0  0
   55.0710   23.8750   44.6620 C   0  0  0  0  0  0  0  0  0  0  0  0
   55.4200   28.8020   45.6220 H   0  0  0  0  0  0  0  0  0  0  0  0
   56.0878   32.8108   44.5379 H   0  0  0  0  0  0  0  0  0  0  0  0
   57.7282   34.2341   45.7518 H   0  0  0  0  0  0  0  0  0  0  0  0
   59.7887   33.2228   46.7214 H   0  0  0  0  0  0  0  0  0  0  0  0
   60.2058   30.7798   46.4960 H   0  0  0  0  0  0  0  0  0  0  0  0
   58.1972   27.1274   48.0957 H   0  0  0  0  0  0  0  0  0  0  0  0
   56.9647   28.0448   47.1450 H   0  0  0  0  0  0  0  0  0  0  0  0
   58.5049   23.0461   43.9019 H   0  0  0  0  0  0  0  0  0  0  0  0
   58.5833   22.3072   45.5438 H   0  0  0  0  0  0  0  0  0  0  0  0
   57.0634   21.1271   43.8184 H   0  0  0  0  0  0  0  0  0  0  0  0
   56.3259   21.5392   45.4233 H   0  0  0  0  0  0  0  0  0  0  0  0
   56.0106   23.1657   42.8465 H   0  0  0  0  0  0  0  0  0  0  0  0
   54.7803   22.0438   43.5666 H   0  0  0  0  0  0  0  0  0  0  0  0
   54.4773   24.5648   44.0441 H   0  0  0  0  0  0  0  0  0  0  0  0
   54.4433   23.4442   45.4560 H   0  0  0  0  0  0  0  0  0  0  0  0
  1  2  1  0
  2  3  2  0
  2  4  1  0
  4  5  2  0
  5  6  1  0
  6  7  2  0
  7  8  1  0
  8  9  2  0
  9 10  1  0
 10 11  1  0
 11 12  2  0
 11 13  1  0
 13 14  1  0
 14 15  1  0
 15 16  1  0
 15 17  2  0
 17 18  1  0
 18 19  2  0
 19 20  1  0
 18 21  1  0
 21 22  1  0
 22 23  1  0
 23 24  1  0
  9  4  1  0
 19 14  1  0
 24 17  1  0
  1 25  1  0
  5 26  1  0
  6 27  1  0
  7 28  1  0
  8 29  1  0
 13 30  1  0
 13 31  1  0
 21 32  1  0
 21 33  1  0
 22 34  1  0
 22 35  1  0
 23 36  1  0
 23 37  1  0
 24 38  1  0
 24 39  1  0
M  CHG  4   1  -1  10  -1  16  -1  20  -1
M  END
>  <UniqueID>  (5) 
5

>  <SMILES>  (5) 
[NH-]C(=O)c1ccccc1[N-]C(=O)Cn1c([O-])c2c(c1[O-])CCCC2

>  <Energy>  (5) 
76.8803937079817

>  <Genealogy>  (5) 
[NH-]C(=O)c1ccccc1[N-]C(=O)Cn1c([O-])c2c(c1[O-])CCCC2 (protonated)
[NH-]C(=O)c1ccccc1[N-]C(=O)Cn1c([O-])c2c(c1[O-])CCCC2 (3D coordinates assigned)
[NH-]C(=O)c1ccccc1[N-]C(=O)Cn1c([O-])c2c(c1[O-])CCCC2 (nonaromatic ring conformer: 76.8803937079817 kcal/mol)

>  <smiles>  (5) 
NC(=O)c1ccccc1NC(=O)Cn1c(O)c2c(c1O)CCCC2

>  <score_type>  (5) 
oracle

>  <origin>  (5) 
adg

>  <m_score__min__energy>  (5) 
-16.48

>  <m_primary>  (5) 
energy

$$$$
5:0
     RDKit          3D

 49 50  0  0  0  0  0  0  0  0999 V2000
   58.1810   32.4210   51.4100 C   0  0  0  0  0  0  0  0  0  0  0  0
   59.4050   33.1070   50.8080 C   0  0  0  0  0  0  0  0  0  0  0  0
   60.4500   32.1160   50.5060 N   0  0  0  0  0  0  0  0  0  0  0  0
   60.1380   30.6890   50.6500 C   0  0  0  0  0  0  0  0  0  0  0  0
   59.6060   30.1550   49.3560 C   0  0  0  0  0  0  0  0  0  0  0  0
   58.5050   29.5450   49.3560 O   0  0  0  0  0  0  0  0  0  0  0  0
   60.2990   30.4180   48.1260 N   0  0  0  0  0  0  0  0  0  0  0  0
   59.8890   29.9140   46.8430 C   0  0  0  0  0  0  0  0  0  0  0  0
   60.7530   29.0690   46.1300 C   0  0  0  0  0  0  0  0  0  0  0  0
   60.3940   28.5830   44.8700 C   0  0  0  0  0  0  0  0  0  0  0  0
   59.1570   28.9230   44.3180 C   0  0  0  0  0  0  0  0  0  0  0  0
   58.2550   29.7230   45.0410 C   0  0  0  0  0  0  0  0  0  0  0  0
   56.6780   30.1250   44.3730 S   0  0  0  0  0  0  0  0  0  0  0  0
   55.5190   28.9500   44.8900 N   0  0  0  0  0  0  0  0  0  0  0  0
   56.7560   30.1300   42.8730 O   0  0  0  0  0  0  0  0  0  0  0  0
   56.2470   31.4900   44.8380 O   0  0  0  0  0  0  0  0  0  0  0  0
   58.6210   30.2140   46.3030 C   0  0  0  0  0  0  0  0  0  0  0  0
   61.7260   32.5130   49.9520 C   0  0  0  0  0  0  0  0  0  0  0  0
   62.5540   31.6300   49.5940 O   0  0  0  0  0  0  0  0  0  0  0  0
   62.0600   33.9570   49.6980 C   0  0  0  0  0  0  0  0  0  0  0  0
   62.0620   34.2130   48.2610 N   0  0  0  0  0  0  0  0  0  0  0  0
   61.4810   33.3230   47.3010 C   0  0  0  0  0  0  0  0  0  0  0  0
   62.1260   32.3050   46.9200 O   0  0  0  0  0  0  0  0  0  0  0  0
   60.1400   33.6030   46.7440 C   0  0  0  0  0  0  0  0  0  0  0  0
   60.0040   34.1940   45.4720 C   0  0  0  0  0  0  0  0  0  0  0  0
   58.7340   34.4390   44.9380 C   0  0  0  0  0  0  0  0  0  0  0  0
   57.5870   34.0980   45.6630 C   0  0  0  0  0  0  0  0  0  0  0  0
   56.3550   34.3320   45.1400 F   0  0  0  0  0  0  0  0  0  0  0  0
   57.7080   33.5170   46.9280 C   0  0  0  0  0  0  0  0  0  0  0  0
   58.9770   33.2710   47.4680 C   0  0  0  0  0  0  0  0  0  0  0  0
   58.2438   32.4562   52.5076 H   0  0  0  0  0  0  0  0  0  0  0  0
   57.2696   32.9398   51.0780 H   0  0  0  0  0  0  0  0  0  0  0  0
   58.1478   31.3728   51.0780 H   0  0  0  0  0  0  0  0  0  0  0  0
   59.1132   33.6206   49.8801 H   0  0  0  0  0  0  0  0  0  0  0  0
   59.8003   33.8336   51.5331 H   0  0  0  0  0  0  0  0  0  0  0  0
   61.0516   30.1409   50.9236 H   0  0  0  0  0  0  0  0  0  0  0  0
   59.3798   30.5597   51.4364 H   0  0  0  0  0  0  0  0  0  0  0  0
   61.0770   31.1180   48.1500 H   0  0  0  0  0  0  0  0  0  0  0  0
   61.7221   28.7865   46.5671 H   0  0  0  0  0  0  0  0  0  0  0  0
   61.0852   27.9331   44.3133 H   0  0  0  0  0  0  0  0  0  0  0  0
   58.8875   28.5635   43.3139 H   0  0  0  0  0  0  0  0  0  0  0  0
   54.6760   29.4710   45.2140 H   0  0  0  0  0  0  0  0  0  0  0  0
   57.9159   30.8358   46.8741 H   0  0  0  0  0  0  0  0  0  0  0  0
   61.3086   34.5975   50.1830 H   0  0  0  0  0  0  0  0  0  0  0  0
   63.0550   34.1801   50.1105 H   0  0  0  0  0  0  0  0  0  0  0  0
   60.9011   34.4642   44.8957 H   0  0  0  0  0  0  0  0  0  0  0  0
   58.6371   34.9014   43.9446 H   0  0  0  0  0  0  0  0  0  0  0  0
   56.8064   33.2527   47.5001 H   0  0  0  0  0  0  0  0  0  0  0  0
   59.0666   32.8151   48.4650 H   0  0  0  0  0  0  0  0  0  0  0  0
  1  2  1  0
  2  3  1  0
  3  4  1  0
  4  5  1  0
  5  6  2  0
  5  7  1  0
  7  8  1  0
  8  9  2  0
  9 10  1  0
 10 11  2  0
 11 12  1  0
 12 13  1  0
 13 14  1  0
 13 15  2  0
 13 16  2  0
 12 17  2  0
  3 18  1  0
 18 19  2  0
 18 20  1  0
 20 21  1  0
 21 22  1  0
 22 23  2  0
 22 24  1  0
 24 25  2  0
 25 26  1  0
 26 27  2  0
 27 28  1  0
 27 29  1  0
 29 30  2  0
 17  8  1  0
 30 24  1  0
  1 31  1  0
  1 32  1  0
  1 33  1  0
  2 34  1  0
  2 35  1  0
  4 36  1  0
  4 37  1  0
  7 38  1  0
  9 39  1  0
 10 40  1  0
 11 41  1  0
 14 42  1  0
 17 43  1  0
 20 44  1  0
 20 45  1  0
 25 46  1  0
 26 47  1  0
 29 48  1  0
 30 49  1  0
M  CHG  2  14  -1  21  -1
M  END
>  <UniqueID>  (6) 
6

>  <SMILES>  (6) 
CCN(CC(=O)Nc1cccc(S([NH-])(=O)=O)c1)C(=O)C[N-]C(=O)c1ccc(F)cc1

>  <Energy>  (6) 
41.444604378237486

>  <Genealogy>  (6) 
CCN(CC(=O)Nc1cccc(S([NH-])(=O)=O)c1)C(=O)C[N-]C(=O)c1ccc(F)cc1 (protonated)
CCN(CC(=O)Nc1cccc(S([NH-])(=O)=O)c1)C(=O)C[N-]C(=O)c1ccc(F)cc1 (3D coordinates assigned)
CCN(CC(=O)Nc1cccc(S([NH-])(=O)=O)c1)C(=O)C[N-]C(=O)c1ccc(F)cc1 (optimized conformer: 41.444604378237486 kcal/mol)

>  <smiles>  (6) 
CCN(CC(=O)Nc1cccc(S(N)(=O)=O)c1)C(=O)CNC(=O)c1ccc(F)cc1

>  <score_type>  (6) 
oracle

>  <origin>  (6) 
adg

>  <m_score__min__energy>  (6) 
-11.65

>  <m_primary>  (6) 
energy

$$$$
6:0
     RDKit          3D

 44 46  0  0  0  0  0  0  0  0999 V2000
   59.6000   35.3430   46.5740 C   0  0  0  0  0  0  0  0  0  0  0  0
   59.4280   34.3500   47.6910 C   0  0  0  0  0  0  0  0  0  0  0  0
   60.2790   34.4270   48.8090 C   0  0  0  0  0  0  0  0  0  0  0  0
   60.1510   33.5210   49.8640 C   0  0  0  0  0  0  0  0  0  0  0  0
   59.1730   32.5280   49.8190 C   0  0  0  0  0  0  0  0  0  0  0  0
   58.3240   32.4320   48.7170 C   0  0  0  0  0  0  0  0  0  0  0  0
   58.4470   33.3250   47.6360 C   0  0  0  0  0  0  0  0  0  0  0  0
   57.4860   33.1830   46.4760 C   0  0  0  0  0  0  0  0  0  0  0  0
   58.1390   32.4830   45.3110 C   0  0  0  0  0  0  0  0  0  0  0  0
   59.0570   33.0670   44.6750 O   0  0  0  0  0  0  0  0  0  0  0  0
   57.7950   31.1430   44.9390 N   0  0  0  0  0  0  0  0  0  0  0  0
   57.6880   30.0160   45.8630 C   0  0  1  0  0  0  0  0  0  0  0  0
   57.1620   28.7820   45.1950 C   0  0  0  0  0  0  0  0  0  0  0  0
   58.5210   28.2480   45.5110 C   0  0  0  0  0  0  0  0  0  0  0  0
   59.0240   29.4720   46.1630 N   0  0  0  0  0  0  0  0  0  0  0  0
   60.2240   29.9190   46.7870 C   0  0  0  0  0  0  0  0  0  0  0  0
   60.8390   29.1470   47.5690 O   0  0  0  0  0  0  0  0  0  0  0  0
   60.7430   31.2230   46.4870 N   0  0  0  0  0  0  0  0  0  0  0  0
   61.8070   31.8520   47.2210 C   0  0  0  0  0  0  0  0  0  0  0  0
   62.2700   31.3230   48.4410 C   0  0  0  0  0  0  0  0  0  0  0  0
   63.2940   31.9650   49.1440 C   0  0  0  0  0  0  0  0  0  0  0  0
   63.8550   33.1430   48.6440 C   0  0  0  0  0  0  0  0  0  0  0  0
   63.3870   33.6870   47.4440 C   0  0  0  0  0  0  0  0  0  0  0  0
   62.3620   33.0490   46.7400 C   0  0  0  0  0  0  0  0  0  0  0  0
   59.7733   36.3437   46.9965 H   0  0  0  0  0  0  0  0  0  0  0  0
   60.4612   35.0524   45.9544 H   0  0  0  0  0  0  0  0  0  0  0  0
   58.6912   35.3589   45.9544 H   0  0  0  0  0  0  0  0  0  0  0  0
   61.0523   35.2081   48.8524 H   0  0  0  0  0  0  0  0  0  0  0  0
   60.8229   33.5908   50.7321 H   0  0  0  0  0  0  0  0  0  0  0  0
   59.0711   31.8193   50.6541 H   0  0  0  0  0  0  0  0  0  0  0  0
   57.5503   31.6505   48.6922 H   0  0  0  0  0  0  0  0  0  0  0  0
   56.6130   32.5987   46.8024 H   0  0  0  0  0  0  0  0  0  0  0  0
   57.1797   34.1885   46.1517 H   0  0  0  0  0  0  0  0  0  0  0  0
   57.0898   30.4168   46.6946 H   0  0  0  0  0  0  0  0  0  0  0  0
   56.3252   28.2845   45.7071 H   0  0  0  0  0  0  0  0  0  0  0  0
   56.7146   28.7697   44.1902 H   0  0  0  0  0  0  0  0  0  0  0  0
   58.4900   27.3858   46.1934 H   0  0  0  0  0  0  0  0  0  0  0  0
   59.1099   27.8500   44.6715 H   0  0  0  0  0  0  0  0  0  0  0  0
   60.3810   31.7030   45.6310 H   0  0  0  0  0  0  0  0  0  0  0  0
   61.8243   30.4010   48.8426 H   0  0  0  0  0  0  0  0  0  0  0  0
   63.6584   31.5422   50.0919 H   0  0  0  0  0  0  0  0  0  0  0  0
   64.6654   33.6428   49.1949 H   0  0  0  0  0  0  0  0  0  0  0  0
   63.8256   34.6173   47.0539 H   0  0  0  0  0  0  0  0  0  0  0  0
   61.9876   33.4873   45.8031 H   0  0  0  0  0  0  0  0  0  0  0  0
  1  2  1  0
  2  3  2  0
  3  4  1  0
  4  5  2  0
  5  6  1  0
  6  7  2  0
  7  8  1  0
  8  9  1  0
  9 10  2  0
  9 11  1  0
 11 12  1  0
 12 13  1  0
 13 14  1  0
 14 15  1  0
 15 16  1  0
 16 17  2  0
 16 18  1  0
 18 19  1  0
 19 20  2  0
 20 21  1  0
 21 22  2  0
 22 23  1  0
 23 24  2  0
  7  2  1  0
 15 12  1  0
 24 19  1  0
  1 25  1  0
  1 26  1  0
  1 27  1  0
  3 28  1  0
  4 29  1  0
  5 30  1  0
  6 31  1  0
  8 32  1  0
  8 33  1  0
 12 34  1  1
 13 35  1  0
 13 36  1  0
 14 37  1  0
 14 38  1  0
 18 39  1  0
 20 40  1  0
 21 41  1  0
 22 42  1  0
 23 43  1  0
 24 44  1  0
M  CHG  1  11  -1
M  END
>  <UniqueID>  (7) 
7

>  <SMILES>  (7) 
Cc1ccccc1CC(=O)[N-][C@H]1CCN1C(=O)Nc1ccccc1

>  <Energy>  (7) 
91.10068716351151

>  <Genealogy>  (7) 
Cc1ccccc1CC(=O)[N-]C1CCN1C(=O)Nc1ccccc1 (protonated)
Cc1ccccc1CC(=O)[N-][C@H]1CCN1C(=O)Nc1ccccc1 (chirality)
Cc1ccccc1CC(=O)[N-][C@H]1CCN1C(=O)Nc1ccccc1 (3D coordinates assigned)
Cc1ccccc1CC(=O)[N-][C@H]1CCN1C(=O)Nc1ccccc1 (nonaromatic ring conformer: 91.10068716351151 kcal/mol)

>  <smiles>  (7) 
Cc1ccccc1CC(=O)NC1CCN1C(=O)Nc1ccccc1

>  <score_type>  (7) 
oracle

>  <origin>  (7) 
adg

>  <m_score__min__energy>  (7) 
-9.8800000000000008

>  <m_primary>  (7) 
energy

$$$$
7:0
     RDKit          3D

 57 61  0  0  0  0  0  0  0  0999 V2000
   65.2350   33.0650   49.3750 C   0  0  0  0  0  0  0  0  0  0  0  0
   63.8490   33.1570   48.2620 S   0  0  0  0  0  0  0  0  0  0  0  0
   64.1400   32.3380   47.0340 O   0  0  0  0  0  0  0  0  0  0  0  0
   63.6180   34.5850   47.8520 O   0  0  0  0  0  0  0  0  0  0  0  0
   62.4160   32.5320   49.0570 C   0  0  0  0  0  0  0  0  0  0  0  0
   61.6660   31.5160   48.4600 C   0  0  0  0  0  0  0  0  0  0  0  0
   60.5310   31.0170   49.1100 C   0  0  0  0  0  0  0  0  0  0  0  0
   59.7390   30.0070   48.4660 N   0  0  0  0  0  0  0  0  0  0  0  0
   59.8290   28.6830   48.7000 C   0  0  0  0  0  0  0  0  0  0  0  0
   60.6610   28.1110   49.6550 O   0  0  0  0  0  0  0  0  0  0  0  0
   58.9970   27.9920   47.8550 C   0  0  0  0  0  0  0  0  0  0  0  0
   58.8360   26.6130   47.8140 O   0  0  0  0  0  0  0  0  0  0  0  0
   58.3540   28.9200   47.0600 C   0  0  0  0  0  0  0  0  0  0  0  0
   57.3810   28.6150   45.9880 C   0  0  0  0  0  0  0  0  0  0  0  0
   56.6770   29.5510   45.5220 O   0  0  0  0  0  0  0  0  0  0  0  0
   57.2100   27.2480   45.4460 C   0  0  0  0  0  0  0  0  0  0  0  0
   57.9140   26.8330   44.3010 C   0  0  0  0  0  0  0  0  0  0  0  0
   57.7690   25.5300   43.8170 C   0  0  0  0  0  0  0  0  0  0  0  0
   56.9070   24.6360   44.4580 C   0  0  0  0  0  0  0  0  0  0  0  0
   56.1850   25.0460   45.5800 C   0  0  0  0  0  0  0  0  0  0  0  0
   56.3290   26.3480   46.0700 C   0  0  0  0  0  0  0  0  0  0  0  0
   58.8430   30.1690   47.4580 C   0  0  0  0  0  0  0  0  0  0  0  0
   58.5780   31.4540   46.7730 C   0  0  0  0  0  0  0  0  0  0  0  0
   58.7390   31.5750   45.3840 C   0  0  0  0  0  0  0  0  0  0  0  0
   58.5160   32.8020   44.7520 C   0  0  0  0  0  0  0  0  0  0  0  0
   58.1400   33.9180   45.5010 C   0  0  0  0  0  0  0  0  0  0  0  0
   57.9880   33.8120   46.8860 C   0  0  0  0  0  0  0  0  0  0  0  0
   58.2100   32.5860   47.5210 C   0  0  0  0  0  0  0  0  0  0  0  0
   60.1270   31.5920   50.3330 C   0  0  0  0  0  0  0  0  0  0  0  0
   58.8950   31.1590   51.0220 C   0  0  0  0  0  0  0  0  0  0  0  0
   58.8400   29.9000   51.6420 C   0  0  0  0  0  0  0  0  0  0  0  0
   57.6820   29.4970   52.3150 C   0  0  0  0  0  0  0  0  0  0  0  0
   56.5710   30.3450   52.3660 C   0  0  0  0  0  0  0  0  0  0  0  0
   56.6150   31.5940   51.7380 C   0  0  0  0  0  0  0  0  0  0  0  0
   57.7700   31.9980   51.0650 C   0  0  0  0  0  0  0  0  0  0  0  0
   60.9020   32.6220   50.8840 C   0  0  0  0  0  0  0  0  0  0  0  0
   62.0190   33.0590   50.2450 N   0  0  0  0  0  0  0  0  0  0  0  0
   64.8734   33.0890   50.4136 H   0  0  0  0  0  0  0  0  0  0  0  0
   65.7846   32.1284   49.1996 H   0  0  0  0  0  0  0  0  0  0  0  0
   65.9035   33.9207   49.1996 H   0  0  0  0  0  0  0  0  0  0  0  0
   61.9661   31.1096   47.4829 H   0  0  0  0  0  0  0  0  0  0  0  0
   58.5820   27.5376   43.7840 H   0  0  0  0  0  0  0  0  0  0  0  0
   58.3342   25.2076   42.9301 H   0  0  0  0  0  0  0  0  0  0  0  0
   56.7975   23.6094   44.0784 H   0  0  0  0  0  0  0  0  0  0  0  0
   55.5015   24.3438   46.0797 H   0  0  0  0  0  0  0  0  0  0  0  0
   55.7498   26.6693   46.9482 H   0  0  0  0  0  0  0  0  0  0  0  0
   59.0421   30.7003   44.7898 H   0  0  0  0  0  0  0  0  0  0  0  0
   58.6372   32.8880   43.6621 H   0  0  0  0  0  0  0  0  0  0  0  0
   57.9632   34.8816   45.0008 H   0  0  0  0  0  0  0  0  0  0  0  0
   57.6939   34.6923   47.4764 H   0  0  0  0  0  0  0  0  0  0  0  0
   58.0960   32.5069   48.6122 H   0  0  0  0  0  0  0  0  0  0  0  0
   59.7104   29.2288   51.5982 H   0  0  0  0  0  0  0  0  0  0  0  0
   57.6451   28.5126   52.8044 H   0  0  0  0  0  0  0  0  0  0  0  0
   55.6625   30.0297   52.9000 H   0  0  0  0  0  0  0  0  0  0  0  0
   55.7392   32.2585   51.7742 H   0  0  0  0  0  0  0  0  0  0  0  0
   57.7985   32.9780   50.5663 H   0  0  0  0  0  0  0  0  0  0  0  0
   60.6043   33.0792   51.8392 H   0  0  0  0  0  0  0  0  0  0  0  0
  1  2  1  0
  2  3  2  0
  2  4  2  0
  2  5  1  0
  5  6  2  0
  6  7  1  0
  7  8  1  0
  8  9  1  0
  9 10  1  0
  9 11  2  0
 11 12  1  0
 11 13  1  0
 13 14  1  0
 14 15  2  0
 14 16  1  0
 16 17  2  0
 17 18  1  0
 18 19  2  0
 19 20  1  0
 20 21  2  0
 13 22  2  0
 22 23  1  0
 23 24  2  0
 24 25  1  0
 25 26  2  0
 26 27  1  0
 27 28  2  0
  7 29  2  0
 29 30  1  0
 30 31  2  0
 31 32  1  0
 32 33  2  0
 33 34  1  0
 34 35  2  0
 29 36  1  0
 36 37  2  0
 37  5  1  0
 22  8  1  0
 28 23  1  0
 35 30  1  0
 21 16  1  0
  1 38  1  0
  1 39  1  0
  1 40  1  0
  6 41  1  0
 17 42  1  0
 18 43  1  0
 19 44  1  0
 20 45  1  0
 21 46  1  0
 24 47  1  0
 25 48  1  0
 26 49  1  0
 27 50  1  0
 28 51  1  0
 31 52  1  0
 32 53  1  0
 33 54  1  0
 34 55  1  0
 35 56  1  0
 36 57  1  0
M  CHG  2  10  -1  12  -1
M  END
>  <UniqueID>  (8) 
8

>  <SMILES>  (8) 
CS(=O)(=O)c1cc(-n2c([O-])c([O-])c(C(=O)c3ccccc3)c2-c2ccccc2)c(-c2ccccc2)cn1

>  <Energy>  (8) 
112.76364624497928

>  <Genealogy>  (8) 
CS(=O)(=O)c1cc(-n2c([O-])c([O-])c(C(=O)c3ccccc3)c2-c2ccccc2)c(-c2ccccc2)cn1 (protonated)
CS(=O)(=O)c1cc(-n2c([O-])c([O-])c(C(=O)c3ccccc3)c2-c2ccccc2)c(-c2ccccc2)cn1 (3D coordinates assigned)
CS(=O)(=O)c1cc(-n2c([O-])c([O-])c(C(=O)c3ccccc3)c2-c2ccccc2)c(-c2ccccc2)cn1 (optimized conformer: 112.76364624497928 kcal/mol)

>  <smiles>  (8) 
CS(=O)(=O)c1cc(-n2c(O)c(O)c(C(=O)c3ccccc3)c2-c2ccccc2)c(-c2ccccc2)cn1

>  <score_type>  (8) 
oracle

>  <origin>  (8) 
adg

>  <m_score__min__energy>  (8) 
-11.4

>  <m_primary>  (8) 
energy

$$$$
8:0
     RDKit          3D

 27 28  0  0  0  0  0  0  0  0999 V2000
   55.0690   26.3260   45.9950 O   0  0  0  0  0  0  0  0  0  0  0  0
   56.2130   25.7990   45.9890 C   0  0  0  0  0  0  0  0  0  0  0  0
   57.4310   26.6220   45.8690 C   0  0  0  0  0  0  0  0  0  0  0  0
   58.6410   26.1470   46.3970 C   0  0  0  0  0  0  0  0  0  0  0  0
   59.8010   26.9220   46.3090 C   0  0  0  0  0  0  0  0  0  0  0  0
   59.7640   28.1700   45.6850 C   0  0  0  0  0  0  0  0  0  0  0  0
   58.5730   28.6530   45.1330 C   0  0  0  0  0  0  0  0  0  0  0  0
   58.5830   29.9170   44.5240 O   0  0  0  0  0  0  0  0  0  0  0  0
   57.7430   30.9870   44.8610 C   0  0  0  0  0  0  0  0  0  0  0  0
   56.5040   30.9240   44.6280 O   0  0  0  0  0  0  0  0  0  0  0  0
   58.3270   32.2180   45.4390 C   0  0  0  0  0  0  0  0  0  0  0  0
   57.5900   33.4150   45.4590 C   0  0  0  0  0  0  0  0  0  0  0  0
   58.1560   34.5640   46.0090 C   0  0  0  0  0  0  0  0  0  0  0  0
   59.4450   34.5210   46.5340 C   0  0  0  0  0  0  0  0  0  0  0  0
   60.1580   33.3180   46.5040 C   0  0  0  0  0  0  0  0  0  0  0  0
   61.6750   33.2550   47.1200 S   0  0  0  0  0  0  0  0  0  0  0  0
   59.5910   32.2010   45.9620 N   0  0  0  0  0  0  0  0  0  0  0  0
   57.4000   27.8810   45.2410 C   0  0  0  0  0  0  0  0  0  0  0  0
   56.3052   24.7062   46.0747 H   0  0  0  0  0  0  0  0  0  0  0  0
   58.6770   25.1605   46.8823 H   0  0  0  0  0  0  0  0  0  0  0  0
   60.7448   26.5476   46.7323 H   0  0  0  0  0  0  0  0  0  0  0  0
   60.6786   28.7784   45.6269 H   0  0  0  0  0  0  0  0  0  0  0  0
   56.5722   33.4447   45.0429 H   0  0  0  0  0  0  0  0  0  0  0  0
   57.5849   35.5039   46.0283 H   0  0  0  0  0  0  0  0  0  0  0  0
   59.8982   35.4244   46.9681 H   0  0  0  0  0  0  0  0  0  0  0  0
   60.1420   31.3130   45.9510 H   0  0  0  0  0  0  0  0  0  0  0  0
   56.4537   28.2646   44.8319 H   0  0  0  0  0  0  0  0  0  0  0  0
  1  2  2  0
  2  3  1  0
  3  4  2  0
  4  5  1  0
  5  6  2  0
  6  7  1  0
  7  8  1  0
  8  9  1  0
  9 10  2  0
  9 11  1  0
 11 12  2  0
 12 13  1  0
 13 14  2  0
 14 15  1  0
 15 16  2  0
 15 17  1  0
  7 18  2  0
 18  3  1  0
 17 11  1  0
  2 19  1  0
  4 20  1  0
  5 21  1  0
  6 22  1  0
 12 23  1  0
 13 24  1  0
 14 25  1  0
 17 26  1  0
 18 27  1  0
M  END
>  <UniqueID>  (9) 
9

>  <SMILES>  (9) 
O=Cc1cccc(OC(=O)c2cccc(=S)[nH]2)c1

>  <Energy>  (9) 
33.41225698724857

>  <Genealogy>  (9) 
O=Cc1cccc(OC(=O)c2cccc(=S)[nH]2)c1 (3D coordinates assigned)
O=Cc1cccc(OC(=O)c2cccc(=S)[nH]2)c1 (optimized conformer: 33.41225698724857 kcal/mol)

>  <smiles>  (9) 
O=Cc1cccc(OC(=O)c2cccc(=S)[nH]2)c1

>  <score_type>  (9) 
oracle

>  <origin>  (9) 
adg

>  <m_score__min__energy>  (9) 
-7.0499999999999998

>  <m_primary>  (9) 
energy

$$$$
9:0
     RDKit          3D

 38 40  0  0  0  0  0  0  0  0999 V2000
   57.0610   21.6390   43.3630 C   0  0  0  0  0  0  0  0  0  0  0  0
   55.8460   22.3780   43.3250 O   0  0  0  0  0  0  0  0  0  0  0  0
   55.6430   23.5320   44.0870 C   0  0  0  0  0  0  0  0  0  0  0  0
   54.6180   23.6510   44.8140 O   0  0  0  0  0  0  0  0  0  0  0  0
   56.6750   24.6120   44.0750 C   0  0  0  0  0  0  0  0  0  0  0  0
   57.0030   25.0540   45.5030 C   0  0  0  0  0  0  0  0  0  0  0  0
   56.2920   26.3380   45.8440 C   0  0  0  0  0  0  0  0  0  0  0  0
   55.0390   26.3080   45.9650 O   0  0  0  0  0  0  0  0  0  0  0  0
   56.9580   27.6050   46.0050 N   0  0  0  0  0  0  0  0  0  0  0  0
   56.7340   28.7350   45.3990 C   0  0  0  0  0  0  0  0  0  0  0  0
   55.5280   29.1870   45.0100 N   0  0  0  0  0  0  0  0  0  0  0  0
   55.7430   30.3630   44.4420 N   0  0  0  0  0  0  0  0  0  0  0  0
   57.0720   30.5810   44.5110 C   0  0  0  0  0  0  0  0  0  0  0  0
   57.7330   31.7830   43.9750 C   0  0  0  0  0  0  0  0  0  0  0  0
   57.8850   31.8820   42.7290 O   0  0  0  0  0  0  0  0  0  0  0  0
   58.2180   32.8700   44.8560 C   0  0  0  0  0  0  0  0  0  0  0  0
   58.4870   34.1900   44.4920 C   0  0  0  0  0  0  0  0  0  0  0  0
   58.9530   34.8910   45.5500 N   0  0  0  0  0  0  0  0  0  0  0  0
   58.9870   34.0310   46.5810 C   0  0  0  0  0  0  0  0  0  0  0  0
   59.4000   34.2990   47.8850 C   0  0  0  0  0  0  0  0  0  0  0  0
   59.3540   33.2480   48.8190 C   0  0  0  0  0  0  0  0  0  0  0  0
   58.8980   31.9700   48.4340 C   0  0  0  0  0  0  0  0  0  0  0  0
   58.4880   31.7260   47.1100 C   0  0  0  0  0  0  0  0  0  0  0  0
   58.5490   32.7860   46.2000 C   0  0  0  0  0  0  0  0  0  0  0  0
   57.6870   29.5800   45.0960 O   0  0  0  0  0  0  0  0  0  0  0  0
   57.3505   21.4629   44.4095 H   0  0  0  0  0  0  0  0  0  0  0  0
   56.9193   20.6740   42.8544 H   0  0  0  0  0  0  0  0  0  0  0  0
   57.8527   22.2087   42.8544 H   0  0  0  0  0  0  0  0  0  0  0  0
   57.5891   24.2342   43.5938 H   0  0  0  0  0  0  0  0  0  0  0  0
   56.2819   25.4743   43.5165 H   0  0  0  0  0  0  0  0  0  0  0  0
   56.6856   24.2689   46.2051 H   0  0  0  0  0  0  0  0  0  0  0  0
   58.0875   25.2213   45.5792 H   0  0  0  0  0  0  0  0  0  0  0  0
   58.3401   34.6033   43.4832 H   0  0  0  0  0  0  0  0  0  0  0  0
   59.2370   35.8950   45.5570 H   0  0  0  0  0  0  0  0  0  0  0  0
   59.7508   35.3005   48.1746 H   0  0  0  0  0  0  0  0  0  0  0  0
   59.6757   33.4240   49.8561 H   0  0  0  0  0  0  0  0  0  0  0  0
   58.8625   31.1574   49.1746 H   0  0  0  0  0  0  0  0  0  0  0  0
   58.1308   30.7327   46.8007 H   0  0  0  0  0  0  0  0  0  0  0  0
  1  2  1  0
  2  3  1  0
  3  4  2  0
  3  5  1  0
  5  6  1  0
  6  7  1  0
  7  8  2  0
  7  9  1  0
  9 10  2  3
 10 11  1  0
 11 12  1  0
 12 13  2  0
 13 14  1  0
 14 15  2  0
 14 16  1  0
 16 17  2  0
 17 18  1  0
 18 19  1  0
 19 20  2  0
 20 21  1  0
 21 22  2  0
 22 23  1  0
 23 24  2  0
 13 25  1  0
 25 10  1  0
 24 16  1  0
 24 19  1  0
  1 26  1  0
  1 27  1  0
  1 28  1  0
  5 29  1  0
  5 30  1  0
  6 31  1  0
  6 32  1  0
 17 33  1  0
 18 34  1  0
 20 35  1  0
 21 36  1  0
 22 37  1  0
 23 38  1  0
M  CHG  1  11  -1
M  END
>  <UniqueID>  (10) 
10

>  <SMILES>  (10) 
COC(=O)CCC(=O)N=c1[n-]nc(C(=O)c2c[nH]c3ccccc23)o1

>  <Energy>  (10) 
107.62763338316829

>  <Genealogy>  (10) 
COC(=O)CCC(=O)N=c1[n-]nc(C(=O)c2c[nH]c3ccccc23)o1 (protonated)
COC(=O)CCC(=O)N=c1[n-]nc(C(=O)c2c[nH]c3ccccc23)o1 (3D coordinates assigned)
COC(=O)CCC(=O)N=c1[n-]nc(C(=O)c2c[nH]c3ccccc23)o1 (optimized conformer: 107.62763338316829 kcal/mol)

>  <smiles>  (10) 
COC(=O)CCC(=O)N=c1[nH]nc(C(=O)c2c[nH]c3ccccc23)o1

>  <score_type>  (10) 
oracle

>  <origin>  (10) 
adg

>  <m_score__min__energy>  (10) 
-10.44

>  <m_primary>  (10) 
energy

$$$$
10:0
     RDKit          3D

 34 35  0  0  0  0  0  0  0  0999 V2000
   54.7610   27.1020   46.4420 H   0  0  0  0  0  0  0  0  0  0  0  0
   54.9930   26.1950   45.9810 N   0  0  0  0  0  0  0  0  0  0  0  0
   56.1850   25.4870   46.3170 C   0  0  0  0  0  0  0  0  0  0  0  0
   56.1630   24.6430   47.2520 O   0  0  0  0  0  0  0  0  0  0  0  0
   57.4460   25.7260   45.5910 C   0  0  0  0  0  0  0  0  0  0  0  0
   57.4775   25.5435   44.5067 H   0  0  0  0  0  0  0  0  0  0  0  0
   58.5550   26.1580   46.2070 C   0  0  0  0  0  0  0  0  0  0  0  0
   59.2232   25.4093   46.6575 H   0  0  0  0  0  0  0  0  0  0  0  0
   58.9330   27.5890   46.3160 C   0  0  0  0  0  0  0  0  0  0  0  0
   59.7910   28.1320   45.3470 C   0  0  0  0  0  0  0  0  0  0  0  0
   60.1720   27.4928   44.5368 H   0  0  0  0  0  0  0  0  0  0  0  0
   60.1660   29.4780   45.4020 C   0  0  0  0  0  0  0  0  0  0  0  0
   60.8530   29.8852   44.6456 H   0  0  0  0  0  0  0  0  0  0  0  0
   59.6720   30.3120   46.4150 C   0  0  0  0  0  0  0  0  0  0  0  0
   60.0640   31.7670   46.4720 C   0  0  0  0  0  0  0  0  0  0  0  0
   60.3586   32.0194   47.5013 H   0  0  0  0  0  0  0  0  0  0  0  0
   60.9020   31.9298   45.7783 H   0  0  0  0  0  0  0  0  0  0  0  0
   58.9500   32.6320   46.0670 N   0  0  0  0  0  0  0  0  0  0  0  0
   58.4050   33.4530   46.9990 O   0  0  0  0  0  0  0  0  0  0  0  0
   57.9450   34.1630   46.4820 H   0  0  0  0  0  0  0  0  0  0  0  0
   58.3520   32.5930   44.7550 C   0  0  0  0  0  0  0  0  0  0  0  0
   58.6330   33.5060   43.9330 O   0  0  0  0  0  0  0  0  0  0  0  0
   57.4270   31.5220   44.3300 C   0  0  0  0  0  0  0  0  0  0  0  0
   56.7050   30.7630   45.1800 N   0  0  0  0  0  0  0  0  0  0  0  0
   56.0330   29.9040   44.3930 C   0  0  0  0  0  0  0  0  0  0  0  0
   55.1590   28.9450   44.8840 O   0  0  0  0  0  0  0  0  0  0  0  0
   56.3200   30.0910   43.0600 C   0  0  0  0  0  0  0  0  0  0  0  0
   55.9127   29.5292   42.2065 H   0  0  0  0  0  0  0  0  0  0  0  0
   57.2240   31.1290   43.0190 C   0  0  0  0  0  0  0  0  0  0  0  0
   57.6920   31.5602   42.1218 H   0  0  0  0  0  0  0  0  0  0  0  0
   58.8120   29.7750   47.3850 C   0  0  0  0  0  0  0  0  0  0  0  0
   58.4287   30.4178   48.1911 H   0  0  0  0  0  0  0  0  0  0  0  0
   58.4390   28.4290   47.3340 C   0  0  0  0  0  0  0  0  0  0  0  0
   57.7551   28.0225   48.0937 H   0  0  0  0  0  0  0  0  0  0  0  0
  1  2  1  0
  2  3  1  0
  3  4  2  0
  3  5  1  0
  5  6  1  0
  5  7  2  0
  7  8  1  0
  7  9  1  0
  9 10  2  0
 10 11  1  0
 10 12  1  0
 12 13  1  0
 12 14  2  0
 14 15  1  0
 15 16  1  0
 15 17  1  0
 15 18  1  0
 18 19  1  0
 19 20  1  0
 18 21  1  0
 21 22  2  0
 21 23  1  0
 23 24  1  0
 24 25  1  0
 25 26  1  0
 25 27  2  0
 27 28  1  0
 27 29  1  0
 29 30  1  0
 14 31  1  0
 31 32  1  0
 31 33  2  0
 33 34  1  0
 33  9  1  0
 29 23  2  0
M  CHG  3   2  -1  24  -1  26  -1
M  END
>  <UniqueID>  (11) 
11

>  <SMILES>  (11) 
[NH-]C(=O)/C=C/c1ccc(CN(O)C(=O)c2ccc([O-])[n-]2)cc1

>  <Energy>  (11) 
59.66435519268485

>  <Genealogy>  (11) 
[NH-]C(=O)C=Cc1ccc(CN(O)C(=O)c2ccc([O-])[n-]2)cc1 (protonated)
[NH-]C(=O)/C=C/c1ccc(CN(O)C(=O)c2ccc([O-])[n-]2)cc1 (cis-trans isomerization)
[NH-]C(=O)/C=C/c1ccc(CN(O)C(=O)c2ccc([O-])[n-]2)cc1 (3D coordinates assigned)
[NH-]C(=O)/C=C/c1ccc(CN(O)C(=O)c2ccc([O-])[n-]2)cc1 (optimized conformer: 59.66435519268485 kcal/mol)

>  <smiles>  (11) 
NC(=O)C=Cc1ccc(CN(O)C(=O)c2ccc(O)[nH]2)cc1

>  <score_type>  (11) 
oracle

>  <origin>  (11) 
adg

>  <m_score__min__energy>  (11) 
-15.52

>  <m_primary>  (11) 
energy

$$$$
11:0
     RDKit          3D

 61 64  0  0  0  0  0  0  0  0999 V2000
   60.0180   32.7490   49.9630 C   0  0  0  0  0  0  0  0  0  0  0  0
   60.5500   33.7680   48.9310 C   0  0  1  0  0  0  0  0  0  0  0  0
   61.9950   34.2240   49.2870 C   0  0  0  0  0  0  0  0  0  0  0  0
   63.1130   33.5320   48.4790 C   0  0  0  0  0  0  0  0  0  0  0  0
   62.7260   32.1250   48.0240 C   0  0  0  0  0  0  0  0  0  0  0  0
   61.4580   32.1170   47.1480 C   0  0  0  0  0  0  0  0  0  0  0  0
   60.4540   33.2620   47.4590 C   0  0  2  0  0  0  0  0  0  0  0  0
   60.6840   34.3920   46.5460 N   0  0  0  0  0  0  0  0  0  0  0  0
   59.5080   34.6130   45.7830 C   0  0  0  0  0  0  0  0  0  0  0  0
   59.4150   35.4980   44.8940 O   0  0  0  0  0  0  0  0  0  0  0  0
   58.4640   33.7150   46.1080 N   0  0  0  0  0  0  0  0  0  0  0  0
   57.2310   33.4930   45.3510 C   0  0  0  0  0  0  0  0  0  0  0  0
   57.3860   32.3720   44.3670 C   0  0  0  0  0  0  0  0  0  0  0  0
   58.1140   32.5120   43.3470 O   0  0  0  0  0  0  0  0  0  0  0  0
   56.6240   31.1740   44.5590 N   0  0  0  0  0  0  0  0  0  0  0  0
   57.1380   29.9000   44.9680 C   0  0  0  0  0  0  0  0  0  0  0  0
   58.5250   29.7300   45.0590 C   0  0  0  0  0  0  0  0  0  0  0  0
   59.0640   28.5010   45.4480 C   0  0  0  0  0  0  0  0  0  0  0  0
   58.2220   27.4190   45.7300 C   0  0  0  0  0  0  0  0  0  0  0  0
   58.9000   25.8650   46.2270 S   0  0  0  0  0  0  0  0  0  0  0  0
   58.5710   25.6300   47.6750 O   0  0  0  0  0  0  0  0  0  0  0  0
   60.3980   25.9060   46.0910 O   0  0  0  0  0  0  0  0  0  0  0  0
   58.2660   24.5480   45.2720 N   0  0  0  0  0  0  0  0  0  0  0  0
   57.5640   25.0720   44.0820 C   0  0  0  0  0  0  0  0  0  0  0  0
   56.7540   23.9800   43.3510 C   0  0  0  0  0  0  0  0  0  0  0  0
   57.1500   22.5750   43.8040 C   0  0  0  0  0  0  0  0  0  0  0  0
   57.0070   22.4230   45.3280 C   0  0  0  0  0  0  0  0  0  0  0  0
   57.3700   23.7120   46.0870 C   0  0  0  0  0  0  0  0  0  0  0  0
   56.8340   27.5760   45.6110 C   0  0  0  0  0  0  0  0  0  0  0  0
   56.2920   28.8070   45.2280 C   0  0  0  0  0  0  0  0  0  0  0  0
   59.0410   32.8530   47.0800 C   0  0  0  0  0  0  0  0  0  0  0  0
   58.4540   31.8240   47.5120 O   0  0  0  0  0  0  0  0  0  0  0  0
   60.2124   33.1213   50.9797 H   0  0  0  0  0  0  0  0  0  0  0  0
   58.9352   32.6157   49.8221 H   0  0  0  0  0  0  0  0  0  0  0  0
   60.5276   31.7844   49.8221 H   0  0  0  0  0  0  0  0  0  0  0  0
   59.8877   34.6442   48.9907 H   0  0  0  0  0  0  0  0  0  0  0  0
   62.0651   35.3072   49.1087 H   0  0  0  0  0  0  0  0  0  0  0  0
   62.1563   33.9442   50.3385 H   0  0  0  0  0  0  0  0  0  0  0  0
   63.3338   34.1413   47.5901 H   0  0  0  0  0  0  0  0  0  0  0  0
   63.9902   33.4397   49.1363 H   0  0  0  0  0  0  0  0  0  0  0  0
   63.5585   31.7002   47.4439 H   0  0  0  0  0  0  0  0  0  0  0  0
   62.5149   31.5285   48.9238 H   0  0  0  0  0  0  0  0  0  0  0  0
   61.7664   32.2065   46.0959 H   0  0  0  0  0  0  0  0  0  0  0  0
   60.9343   31.1739   47.3633 H   0  0  0  0  0  0  0  0  0  0  0  0
   61.5550   34.9600   46.4610 H   0  0  0  0  0  0  0  0  0  0  0  0
   56.4208   33.2440   46.0521 H   0  0  0  0  0  0  0  0  0  0  0  0
   56.9972   34.4122   44.7938 H   0  0  0  0  0  0  0  0  0  0  0  0
   59.1949   30.5699   44.8226 H   0  0  0  0  0  0  0  0  0  0  0  0
   60.1544   28.3833   45.5330 H   0  0  0  0  0  0  0  0  0  0  0  0
   56.8762   25.8694   44.3998 H   0  0  0  0  0  0  0  0  0  0  0  0
   58.3240   25.4515   43.3832 H   0  0  0  0  0  0  0  0  0  0  0  0
   55.6845   24.1320   43.5586 H   0  0  0  0  0  0  0  0  0  0  0  0
   56.9656   24.0627   42.2747 H   0  0  0  0  0  0  0  0  0  0  0  0
   56.4990   21.8406   43.3072 H   0  0  0  0  0  0  0  0  0  0  0  0
   58.2025   22.4046   43.5334 H   0  0  0  0  0  0  0  0  0  0  0  0
   55.9645   22.1592   45.5597 H   0  0  0  0  0  0  0  0  0  0  0  0
   57.7053   21.6372   45.6519 H   0  0  0  0  0  0  0  0  0  0  0  0
   56.4507   24.2740   46.3086 H   0  0  0  0  0  0  0  0  0  0  0  0
   57.8823   23.4446   47.0230 H   0  0  0  0  0  0  0  0  0  0  0  0
   56.1675   26.7262   45.8200 H   0  0  0  0  0  0  0  0  0  0  0  0
   55.2023   28.9206   45.1300 H   0  0  0  0  0  0  0  0  0  0  0  0
  1  2  1  0
  2  3  1  0
  3  4  1  0
  4  5  1  0
  5  6  1  0
  6  7  1  0
  7  8  1  6
  8  9  1  0
  9 10  2  0
  9 11  1  0
 11 12  1  0
 12 13  1  0
 13 14  2  0
 13 15  1  0
 15 16  1  0
 16 17  2  0
 17 18  1  0
 18 19  2  0
 19 20  1  0
 20 21  2  0
 20 22  2  0
 20 23  1  0
 23 24  1  0
 24 25  1  0
 25 26  1  0
 26 27  1  0
 27 28  1  0
 19 29  1  0
 29 30  2  0
 11 31  1  0
 31 32  2  0
  7  2  1  0
 30 16  1  0
 31  7  1  0
 28 23  1  0
  1 33  1  0
  1 34  1  0
  1 35  1  0
  2 36  1  6
  3 37  1  0
  3 38  1  0
  4 39  1  0
  4 40  1  0
  5 41  1  0
  5 42  1  0
  6 43  1  0
  6 44  1  0
  8 45  1  0
 12 46  1  0
 12 47  1  0
 17 48  1  0
 18 49  1  0
 24 50  1  0
 24 51  1  0
 25 52  1  0
 25 53  1  0
 26 54  1  0
 26 55  1  0
 27 56  1  0
 27 57  1  0
 28 58  1  0
 28 59  1  0
 29 60  1  0
 30 61  1  0
M  CHG  1  15  -1
M  END
>  <UniqueID>  (12) 
12

>  <SMILES>  (12) 
C[C@H]1CCCC[C@]12NC(=O)N(CC(=O)[N-]c1ccc(S(=O)(=O)N3CCCCC3)cc1)C2=O

>  <Energy>  (12) 
93.04847026826369

>  <Genealogy>  (12) 
CC1CCCCC12NC(=O)N(CC(=O)[N-]c1ccc(S(=O)(=O)N3CCCCC3)cc1)C2=O (protonated)
C[C@H]1CCCC[C@]12NC(=O)N(CC(=O)[N-]c1ccc(S(=O)(=O)N3CCCCC3)cc1)C2=O (chirality)
C[C@H]1CCCC[C@]12NC(=O)N(CC(=O)[N-]c1ccc(S(=O)(=O)N3CCCCC3)cc1)C2=O (3D coordinates assigned)
C[C@H]1CCCC[C@]12NC(=O)N(CC(=O)[N-]c1ccc(S(=O)(=O)N3CCCCC3)cc1)C2=O (nonaromatic ring conformer: 93.04847026826369 kcal/mol)

>  <smiles>  (12) 
CC1CCCCC12NC(=O)N(CC(=O)Nc1ccc(S(=O)(=O)N3CCCCC3)cc1)C2=O

>  <score_type>  (12) 
oracle

>  <origin>  (12) 
adg

>  <m_score__min__energy>  (12) 
-11.380000000000001

>  <m_primary>  (12) 
energy

$$$$
12:0
     RDKit          3D

 43 45  0  0  0  0  0  0  0  0999 V2000
   60.2030   25.1130   45.9850 C   0  0  0  0  0  0  0  0  0  0  0  0
   58.7470   25.4860   45.9860 C   0  0  0  0  0  0  0  0  0  0  0  0
   58.4250   26.7930   45.7940 N   0  0  0  0  0  0  0  0  0  0  0  0
   57.1430   27.2340   45.7820 C   0  0  0  0  0  0  0  0  0  0  0  0
   56.8970   28.6770   45.5670 C   0  0  0  0  0  0  0  0  0  0  0  0
   56.2670   29.0490   44.5400 O   0  0  0  0  0  0  0  0  0  0  0  0
   57.3610   29.6530   46.5070 N   0  0  0  0  0  0  0  0  0  0  0  0
   58.7400   30.1390   46.5600 C   0  0  0  0  0  0  0  0  0  0  0  0
   59.3220   29.9750   47.9480 C   0  0  0  0  0  0  0  0  0  0  0  0
   60.3240   29.0150   48.1750 C   0  0  0  0  0  0  0  0  0  0  0  0
   60.8950   28.8750   49.4450 C   0  0  0  0  0  0  0  0  0  0  0  0
   60.4790   29.6980   50.4950 C   0  0  0  0  0  0  0  0  0  0  0  0
   61.0340   29.5610   51.7240 F   0  0  0  0  0  0  0  0  0  0  0  0
   59.4950   30.6660   50.2760 C   0  0  0  0  0  0  0  0  0  0  0  0
   58.9220   30.8100   49.0090 C   0  0  0  0  0  0  0  0  0  0  0  0
   58.8020   31.5920   46.1450 C   0  0  0  0  0  0  0  0  0  0  0  0
   59.9260   32.3870   46.4380 C   0  0  0  0  0  0  0  0  0  0  0  0
   59.9820   33.7170   46.0100 C   0  0  0  0  0  0  0  0  0  0  0  0
   58.9250   34.2630   45.2780 C   0  0  0  0  0  0  0  0  0  0  0  0
   58.9820   35.5530   44.8630 F   0  0  0  0  0  0  0  0  0  0  0  0
   57.8120   33.4780   44.9670 C   0  0  0  0  0  0  0  0  0  0  0  0
   57.7510   32.1470   45.3920 C   0  0  0  0  0  0  0  0  0  0  0  0
   56.1110   26.3050   45.9850 C   0  0  0  0  0  0  0  0  0  0  0  0
   54.7750   26.6940   46.0040 O   0  0  0  0  0  0  0  0  0  0  0  0
   56.4410   24.9590   46.1770 C   0  0  0  0  0  0  0  0  0  0  0  0
   55.5110   24.1290   46.3730 O   0  0  0  0  0  0  0  0  0  0  0  0
   57.7520   24.5520   46.1550 N   0  0  0  0  0  0  0  0  0  0  0  0
   58.0940   23.1330   46.3700 C   0  0  0  0  0  0  0  0  0  0  0  0
   60.5589   25.0218   47.0218 H   0  0  0  0  0  0  0  0  0  0  0  0
   60.3350   24.1520   45.4662 H   0  0  0  0  0  0  0  0  0  0  0  0
   60.7808   25.8921   45.4662 H   0  0  0  0  0  0  0  0  0  0  0  0
   59.3378   29.5376   45.8593 H   0  0  0  0  0  0  0  0  0  0  0  0
   60.6609   28.3704   47.3498 H   0  0  0  0  0  0  0  0  0  0  0  0
   61.6724   28.1160   49.6170 H   0  0  0  0  0  0  0  0  0  0  0  0
   59.1708   31.3158   51.1022 H   0  0  0  0  0  0  0  0  0  0  0  0
   58.1546   31.5797   48.8400 H   0  0  0  0  0  0  0  0  0  0  0  0
   60.7650   31.9597   47.0068 H   0  0  0  0  0  0  0  0  0  0  0  0
   60.8601   34.3345   46.2502 H   0  0  0  0  0  0  0  0  0  0  0  0
   56.9821   33.9076   44.3868 H   0  0  0  0  0  0  0  0  0  0  0  0
   56.8766   31.5306   45.1362 H   0  0  0  0  0  0  0  0  0  0  0  0
   58.1436   22.9273   47.4495 H   0  0  0  0  0  0  0  0  0  0  0  0
   57.3236   22.4964   45.9104 H   0  0  0  0  0  0  0  0  0  0  0  0
   59.0698   22.9173   45.9104 H   0  0  0  0  0  0  0  0  0  0  0  0
  1  2  1  0
  2  3  2  0
  3  4  1  0
  4  5  1  0
  5  6  2  0
  5  7  1  0
  7  8  1  0
  8  9  1  0
  9 10  2  0
 10 11  1  0
 11 12  2  0
 12 13  1  0
 12 14  1  0
 14 15  2  0
  8 16  1  0
 16 17  2  0
 17 18  1  0
 18 19  2  0
 19 20  1  0
 19 21  1  0
 21 22  2  0
  4 23  2  0
 23 24  1  0
 23 25  1  0
 25 26  2  0
 25 27  1  0
 27 28  1  0
 27  2  1  0
 15  9  1  0
 22 16  1  0
  1 29  1  0
  1 30  1  0
  1 31  1  0
  8 32  1  0
 10 33  1  0
 11 34  1  0
 14 35  1  0
 15 36  1  0
 17 37  1  0
 18 38  1  0
 21 39  1  0
 22 40  1  0
 28 41  1  0
 28 42  1  0
 28 43  1  0
M  CHG  2   7  -1  24  -1
M  END
>  <UniqueID>  (13) 
13

>  <SMILES>  (13) 
Cc1nc(C(=O)[N-]C(c2ccc(F)cc2)c2ccc(F)cc2)c([O-])c(=O)n1C

>  <Energy>  (13) 
49.98561006945604

>  <Genealogy>  (13) 
Cc1nc(C(=O)[N-]C(c2ccc(F)cc2)c2ccc(F)cc2)c([O-])c(=O)n1C (protonated)
Cc1nc(C(=O)[N-]C(c2ccc(F)cc2)c2ccc(F)cc2)c([O-])c(=O)n1C (3D coordinates assigned)
Cc1nc(C(=O)[N-]C(c2ccc(F)cc2)c2ccc(F)cc2)c([O-])c(=O)n1C (optimized conformer: 49.98561006945604 kcal/mol)

>  <smiles>  (13) 
Cc1nc(C(=O)NC(c2ccc(F)cc2)c2ccc(F)cc2)c(O)c(=O)n1C

>  <score_type>  (13) 
oracle

>  <origin>  (13) 
adg

>  <m_score__min__energy>  (13) 
-12.6

>  <m_primary>  (13) 
energy

$$$$
13:0
     RDKit          3D

 58 62  0  0  0  0  0  0  0  0999 V2000
   57.9190   32.6810   47.3000 C   0  0  0  0  0  0  0  0  0  0  0  0
   57.9310   31.5460   46.4410 O   0  0  0  0  0  0  0  0  0  0  0  0
   57.7820   31.6020   45.0440 C   0  0  0  0  0  0  0  0  0  0  0  0
   58.2640   32.6890   44.2880 C   0  0  0  0  0  0  0  0  0  0  0  0
   58.1030   32.7120   42.9000 C   0  0  0  0  0  0  0  0  0  0  0  0
   57.4660   31.6540   42.2510 C   0  0  0  0  0  0  0  0  0  0  0  0
   56.9830   30.5710   42.9870 C   0  0  0  0  0  0  0  0  0  0  0  0
   57.1320   30.5360   44.3850 C   0  0  0  0  0  0  0  0  0  0  0  0
   56.6260   29.3500   45.1630 C   0  0  0  0  0  0  0  0  0  0  0  0
   57.7000   28.7800   45.9740 N   0  0  0  0  0  0  0  0  0  0  0  0
   58.1770   27.4390   45.7870 C   0  0  0  0  0  0  0  0  0  0  0  0
   57.6770   26.7020   44.8960 O   0  0  0  0  0  0  0  0  0  0  0  0
   59.2470   26.8920   46.6830 C   0  0  0  0  0  0  0  0  0  0  0  0
   59.9650   28.0000   47.3930 C   0  0  0  0  0  0  0  0  0  0  0  0
   60.1430   29.2440   46.8860 N   0  0  0  0  0  0  0  0  0  0  0  0
   60.7540   29.9130   47.8900 C   0  0  0  0  0  0  0  0  0  0  0  0
   61.1640   31.2470   47.8600 C   0  0  0  0  0  0  0  0  0  0  0  0
   60.9980   32.0710   46.7370 C   0  0  0  0  0  0  0  0  0  0  0  0
   61.4390   33.3980   46.7810 C   0  0  0  0  0  0  0  0  0  0  0  0
   62.0450   33.9030   47.9390 C   0  0  0  0  0  0  0  0  0  0  0  0
   62.2110   33.0850   49.0620 C   0  0  0  0  0  0  0  0  0  0  0  0
   61.7730   31.7560   49.0330 C   0  0  0  0  0  0  0  0  0  0  0  0
   61.9190   30.9610   50.1340 N   0  0  0  0  0  0  0  0  0  0  0  0
   61.4970   29.6660   50.1320 C   0  0  0  0  0  0  0  0  0  0  0  0
   61.6130   28.6990   51.6410 S   0  0  0  0  0  0  0  0  0  0  0  0
   59.8510   28.9120   52.0920 C   0  0  0  0  0  0  0  0  0  0  0  0
   59.4040   30.3350   51.8860 C   0  0  0  0  0  0  0  0  0  0  0  0
   59.8340   31.3440   52.7670 C   0  0  0  0  0  0  0  0  0  0  0  0
   59.4840   32.6790   52.5370 C   0  0  0  0  0  0  0  0  0  0  0  0
   58.6970   33.0140   51.4330 C   0  0  0  0  0  0  0  0  0  0  0  0
   58.2550   32.0180   50.5580 C   0  0  0  0  0  0  0  0  0  0  0  0
   58.6070   30.6820   50.7800 C   0  0  0  0  0  0  0  0  0  0  0  0
   58.1880   29.7300   49.9060 F   0  0  0  0  0  0  0  0  0  0  0  0
   60.9410   29.1660   48.9930 N   0  0  0  0  0  0  0  0  0  0  0  0
   60.4470   27.9550   48.6860 C   0  0  0  0  0  0  0  0  0  0  0  0
   60.4330   26.8510   49.5300 O   0  0  0  0  0  0  0  0  0  0  0  0
   57.9225   32.3476   48.3482 H   0  0  0  0  0  0  0  0  0  0  0  0
   58.8107   33.2958   47.1078 H   0  0  0  0  0  0  0  0  0  0  0  0
   57.0145   33.2768   47.1078 H   0  0  0  0  0  0  0  0  0  0  0  0
   58.7701   33.5247   44.7935 H   0  0  0  0  0  0  0  0  0  0  0  0
   58.4793   33.5661   42.3179 H   0  0  0  0  0  0  0  0  0  0  0  0
   57.3443   31.6734   41.1579 H   0  0  0  0  0  0  0  0  0  0  0  0
   56.4823   29.7391   42.4701 H   0  0  0  0  0  0  0  0  0  0  0  0
   55.8054   29.6712   45.8214 H   0  0  0  0  0  0  0  0  0  0  0  0
   56.2662   28.5864   44.4577 H   0  0  0  0  0  0  0  0  0  0  0  0
   58.1120   29.3620   46.7380 H   0  0  0  0  0  0  0  0  0  0  0  0
   58.7878   26.2248   47.4273 H   0  0  0  0  0  0  0  0  0  0  0  0
   59.9725   26.3387   46.0685 H   0  0  0  0  0  0  0  0  0  0  0  0
   60.5236   31.6759   45.8266 H   0  0  0  0  0  0  0  0  0  0  0  0
   61.3094   34.0476   45.9028 H   0  0  0  0  0  0  0  0  0  0  0  0
   62.3916   34.9466   47.9654 H   0  0  0  0  0  0  0  0  0  0  0  0
   62.6864   33.4870   49.9689 H   0  0  0  0  0  0  0  0  0  0  0  0
   59.2374   28.2488   51.4645 H   0  0  0  0  0  0  0  0  0  0  0  0
   59.7310   28.6600   53.1560 H   0  0  0  0  0  0  0  0  0  0  0  0
   60.4484   31.0821   53.6410 H   0  0  0  0  0  0  0  0  0  0  0  0
   59.8286   33.4645   53.2256 H   0  0  0  0  0  0  0  0  0  0  0  0
   58.4244   34.0642   51.2518 H   0  0  0  0  0  0  0  0  0  0  0  0
   57.6294   32.2847   49.6934 H   0  0  0  0  0  0  0  0  0  0  0  0
  1  2  1  0
  2  3  1  0
  3  4  2  0
  4  5  1  0
  5  6  2  0
  6  7  1  0
  7  8  2  0
  8  9  1  0
  9 10  1  0
 10 11  1  0
 11 12  2  0
 11 13  1  0
 13 14  1  0
 14 15  1  0
 15 16  2  0
 16 17  1  0
 17 18  2  0
 18 19  1  0
 19 20  2  0
 20 21  1  0
 21 22  2  0
 22 23  1  0
 23 24  2  0
 24 25  1  0
 25 26  1  0
 26 27  1  0
 27 28  2  0
 28 29  1  0
 29 30  2  0
 30 31  1  0
 31 32  2  0
 32 33  1  0
 24 34  1  0
 34 35  1  0
 35 36  1  0
  8  3  1  0
 35 14  2  0
 34 16  1  0
 22 17  1  0
 32 27  1  0
  1 37  1  0
  1 38  1  0
  1 39  1  0
  4 40  1  0
  5 41  1  0
  6 42  1  0
  7 43  1  0
  9 44  1  0
  9 45  1  0
 10 46  1  0
 13 47  1  0
 13 48  1  0
 18 49  1  0
 19 50  1  0
 20 51  1  0
 21 52  1  0
 26 53  1  0
 26 54  1  0
 28 55  1  0
 29 56  1  0
 30 57  1  0
 31 58  1  0
M  CHG  1  36  -1
M  END
>  <UniqueID>  (14) 
14

>  <SMILES>  (14) 
COc1ccccc1CNC(=O)Cc1nc2c3ccccc3nc(SCc3ccccc3F)n2c1[O-]

>  <Energy>  (14) 
94.29697904816825

>  <Genealogy>  (14) 
COc1ccccc1CNC(=O)Cc1nc2c3ccccc3nc(SCc3ccccc3F)n2c1[O-] (protonated)
COc1ccccc1CNC(=O)Cc1nc2c3ccccc3nc(SCc3ccccc3F)n2c1[O-] (3D coordinates assigned)
COc1ccccc1CNC(=O)Cc1nc2c3ccccc3nc(SCc3ccccc3F)n2c1[O-] (optimized conformer: 94.29697904816825 kcal/mol)

>  <smiles>  (14) 
COc1ccccc1CNC(=O)Cc1nc2c3ccccc3nc(SCc3ccccc3F)n2c1O

>  <score_type>  (14) 
oracle

>  <origin>  (14) 
adg

>  <m_score__min__energy>  (14) 
-10.44

>  <m_primary>  (14) 
energy

$$$$
14:0
     RDKit          3D

 71 73  0  0  0  0  0  0  0  0999 V2000
   58.8210   29.6460   47.6390 N   0  0  0  0  0  0  0  0  0  0  0  0
   58.8580   30.6620   48.6460 C   0  0  0  0  0  0  0  0  0  0  0  0
   58.5690   32.0160   48.2690 N   0  0  0  0  0  0  0  0  0  0  0  0
   59.1490   30.3400   49.8780 N   0  0  0  0  0  0  0  0  0  0  0  0
   58.6080   31.0380   51.0520 C   0  0  0  0  0  0  0  0  0  0  0  0
   58.6130   30.1460   52.3120 C   0  0  0  0  0  0  0  0  0  0  0  0
   60.0130   29.9490   52.9300 C   0  0  0  0  0  0  0  0  0  0  0  0
   60.7300   28.6330   52.5420 C   0  0  1  0  0  0  0  0  0  0  0  0
   60.4210   28.2690   51.1530 N   0  0  0  0  0  0  0  0  0  0  0  0
   62.2260   28.7920   52.7090 C   0  0  0  0  0  0  0  0  0  0  0  0
   62.7570   28.6220   53.8410 O   0  0  0  0  0  0  0  0  0  0  0  0
   63.0220   29.2430   51.6010 N   0  0  0  0  0  0  0  0  0  0  0  0
   62.8690   30.4730   50.8760 C   0  0  0  0  0  0  0  0  0  0  0  0
   63.2970   31.6620   51.4760 C   0  0  0  0  0  0  0  0  0  0  0  0
   63.1500   32.8840   50.8160 C   0  0  0  0  0  0  0  0  0  0  0  0
   62.5620   32.9370   49.5440 C   0  0  0  0  0  0  0  0  0  0  0  0
   62.1390   31.7450   48.9240 C   0  0  0  0  0  0  0  0  0  0  0  0
   62.2600   30.5260   49.6090 C   0  0  0  0  0  0  0  0  0  0  0  0
   61.4620   31.7690   47.5740 C   0  0  0  0  0  0  0  0  0  0  0  0
   61.7480   32.9970   46.8160 N   0  0  0  0  0  0  0  0  0  0  0  0
   61.5270   34.2170   47.6110 C   0  0  1  0  0  0  0  0  0  0  0  0
   60.0620   34.3600   47.9800 C   0  0  0  0  0  0  0  0  0  0  0  0
   59.7240   34.5050   49.1860 O   0  0  0  0  0  0  0  0  0  0  0  0
   59.0270   34.2730   46.9890 N   0  0  0  0  0  0  0  0  0  0  0  0
   59.2520   34.2420   45.5470 C   0  0  0  0  0  0  0  0  0  0  0  0
   58.0400   33.6310   44.8350 C   0  0  0  0  0  0  0  0  0  0  0  0
   58.4210   32.3480   44.0870 C   0  0  0  0  0  0  0  0  0  0  0  0
   58.0590   31.1250   44.8880 C   0  0  0  0  0  0  0  0  0  0  0  0
   57.4100   31.2660   45.9600 O   0  0  0  0  0  0  0  0  0  0  0  0
   58.3360   29.7960   44.4210 N   0  0  0  0  0  0  0  0  0  0  0  0
   57.9430   28.5660   45.0460 C   0  0  0  0  0  0  0  0  0  0  0  0
   58.9340   27.6450   45.4120 C   0  0  0  0  0  0  0  0  0  0  0  0
   58.5820   26.4290   46.0060 C   0  0  0  0  0  0  0  0  0  0  0  0
   57.2370   26.1170   46.2210 C   0  0  0  0  0  0  0  0  0  0  0  0
   56.2400   27.0140   45.8250 C   0  0  0  0  0  0  0  0  0  0  0  0
   54.9020   26.6950   46.0180 O   0  0  0  0  0  0  0  0  0  0  0  0
   56.5900   28.2320   45.2290 C   0  0  0  0  0  0  0  0  0  0  0  0
   62.4790   34.2590   48.8270 C   0  0  0  0  0  0  0  0  0  0  0  0
   58.9650   28.6400   47.8820 H   0  0  0  0  0  0  0  0  0  0  0  0
   58.6550   29.8980   46.6400 H   0  0  0  0  0  0  0  0  0  0  0  0
   58.5630   32.8060   48.9520 H   0  0  0  0  0  0  0  0  0  0  0  0
   58.3420   32.2430   47.2760 H   0  0  0  0  0  0  0  0  0  0  0  0
   59.8140   29.5480   50.0290 H   0  0  0  0  0  0  0  0  0  0  0  0
   59.2203   31.9307   51.2471 H   0  0  0  0  0  0  0  0  0  0  0  0
   57.5646   31.3093   50.8335 H   0  0  0  0  0  0  0  0  0  0  0  0
   57.9624   30.6099   53.0679 H   0  0  0  0  0  0  0  0  0  0  0  0
   58.2567   29.1524   52.0025 H   0  0  0  0  0  0  0  0  0  0  0  0
   60.6471   30.7885   52.6089 H   0  0  0  0  0  0  0  0  0  0  0  0
   59.8604   29.9019   54.0183 H   0  0  0  0  0  0  0  0  0  0  0  0
   60.3731   27.8311   53.2050 H   0  0  0  0  0  0  0  0  0  0  0  0
   60.2630   27.2410   51.0890 H   0  0  0  0  0  0  0  0  0  0  0  0
   61.2760   28.4330   50.5690 H   0  0  0  0  0  0  0  0  0  0  0  0
   63.7534   31.6342   52.4765 H   0  0  0  0  0  0  0  0  0  0  0  0
   63.4975   33.8103   51.2968 H   0  0  0  0  0  0  0  0  0  0  0  0
   61.8749   29.6031   49.1507 H   0  0  0  0  0  0  0  0  0  0  0  0
   61.8121   30.9054   46.9896 H   0  0  0  0  0  0  0  0  0  0  0  0
   60.3763   31.7309   47.7466 H   0  0  0  0  0  0  0  0  0  0  0  0
   62.7490   32.9730   46.5070 H   0  0  0  0  0  0  0  0  0  0  0  0
   61.7750   35.0975   47.0001 H   0  0  0  0  0  0  0  0  0  0  0  0
   59.4090   35.2676   45.1817 H   0  0  0  0  0  0  0  0  0  0  0  0
   60.1397   33.6278   45.3354 H   0  0  0  0  0  0  0  0  0  0  0  0
   57.2676   33.3944   45.5816 H   0  0  0  0  0  0  0  0  0  0  0  0
   57.6635   34.3606   44.1029 H   0  0  0  0  0  0  0  0  0  0  0  0
   57.8856   32.3197   43.1265 H   0  0  0  0  0  0  0  0  0  0  0  0
   59.5088   32.3490   43.9236 H   0  0  0  0  0  0  0  0  0  0  0  0
   59.9933   27.8797   45.2312 H   0  0  0  0  0  0  0  0  0  0  0  0
   59.3653   25.7168   46.3046 H   0  0  0  0  0  0  0  0  0  0  0  0
   56.9626   25.1663   46.7015 H   0  0  0  0  0  0  0  0  0  0  0  0
   55.8040   28.9292   44.9032 H   0  0  0  0  0  0  0  0  0  0  0  0
   63.4851   34.5338   48.4774 H   0  0  0  0  0  0  0  0  0  0  0  0
   62.0800   34.9984   49.5370 H   0  0  0  0  0  0  0  0  0  0  0  0
  1  2  1  0
  2  3  1  0
  2  4  2  3
  4  5  1  0
  5  6  1  0
  6  7  1  0
  7  8  1  0
  8  9  1  0
  8 10  1  0
 10 11  2  0
 10 12  1  0
 12 13  1  0
 13 14  2  0
 14 15  1  0
 15 16  2  0
 16 17  1  0
 17 18  2  0
 17 19  1  0
 19 20  1  0
 20 21  1  0
 21 22  1  0
 22 23  2  0
 22 24  1  0
 24 25  1  0
 25 26  1  0
 26 27  1  0
 27 28  1  0
 28 29  2  0
 28 30  1  0
 30 31  1  0
 31 32  2  0
 32 33  1  0
 33 34  2  0
 34 35  1  0
 35 36  1  0
 35 37  2  0
 21 38  1  0
 18 13  1  0
 37 31  1  0
 38 16  1  0
  1 39  1  0
  1 40  1  0
  3 41  1  0
  3 42  1  0
  4 43  1  0
  5 44  1  0
  5 45  1  0
  6 46  1  0
  6 47  1  0
  7 48  1  0
  7 49  1  0
  8 50  1  1
  9 51  1  0
  9 52  1  0
 14 53  1  0
 15 54  1  0
 18 55  1  0
 19 56  1  0
 19 57  1  0
 20 58  1  0
 21 59  1  6
 25 60  1  0
 25 61  1  0
 26 62  1  0
 26 63  1  0
 27 64  1  0
 27 65  1  0
 32 66  1  0
 33 67  1  0
 34 68  1  0
 37 69  1  0
 38 70  1  0
 38 71  1  0
M  CHG  5   4   1  12  -1  24  -1  30  -1  36  -1
M  END
>  <UniqueID>  (15) 
15

>  <SMILES>  (15) 
NC(N)=[NH+]CCC[C@@H](N)C(=O)[N-]c1ccc2c(c1)CN[C@@H](C(=O)[N-]CCCC(=O)[N-]c1cccc([O-])c1)C2

>  <Energy>  (15) 
76.65492992741812

>  <Genealogy>  (15) 
NC(N)=[NH+]CCCC(N)C(=O)[N-]c1ccc2c(c1)CNC(C(=O)[N-]CCCC(=O)[N-]c1cccc([O-])c1)C2 (protonated)
NC(N)=[NH+]CCC[C@@H](N)C(=O)[N-]c1ccc2c(c1)CN[C@@H](C(=O)[N-]CCCC(=O)[N-]c1cccc([O-])c1)C2 (chirality)
NC(N)=[NH+]CCC[C@@H](N)C(=O)[N-]c1ccc2c(c1)CN[C@@H](C(=O)[N-]CCCC(=O)[N-]c1cccc([O-])c1)C2 (3D coordinates assigned)
NC(N)=[NH+]CCC[C@@H](N)C(=O)[N-]c1ccc2c(c1)CN[C@@H](C(=O)[N-]CCCC(=O)[N-]c1cccc([O-])c1)C2 (nonaromatic ring conformer: 76.65492992741812 kcal/mol)

>  <smiles>  (15) 
NC(N)=NCCCC(N)C(=O)Nc1ccc2c(c1)CNC(C(=O)NCCCC(=O)Nc1cccc(O)c1)C2

>  <score_type>  (15) 
oracle

>  <origin>  (15) 
adg

>  <m_score__min__energy>  (15) 
-15.380000000000001

>  <m_primary>  (15) 
energy

$$$$
15:0
     RDKit          3D

 39 41  0  0  0  0  0  0  0  0999 V2000
   59.6860   22.2140   51.2630 N   0  0  0  0  0  0  0  0  0  0  0  0
   59.9190   23.5810   52.2960 S   0  0  0  0  0  0  0  0  0  0  0  0
   61.0830   23.3040   53.2050 O   0  0  0  0  0  0  0  0  0  0  0  0
   60.2220   24.7960   51.4660 O   0  0  0  0  0  0  0  0  0  0  0  0
   58.4640   23.8680   53.2450 C   0  0  0  0  0  0  0  0  0  0  0  0
   57.6770   22.7980   53.6960 C   0  0  0  0  0  0  0  0  0  0  0  0
   56.5300   23.0430   54.4570 C   0  0  0  0  0  0  0  0  0  0  0  0
   56.1560   24.3560   54.7600 C   0  0  0  0  0  0  0  0  0  0  0  0
   56.9210   25.4320   54.2970 C   0  0  0  0  0  0  0  0  0  0  0  0
   56.5040   26.7710   54.6090 N   0  0  0  0  0  0  0  0  0  0  0  0
   55.2100   27.3280   54.3390 C   0  0  0  0  0  0  0  0  0  0  0  0
   54.1930   26.7530   54.8080 O   0  0  0  0  0  0  0  0  0  0  0  0
   55.0430   28.5260   53.4800 C   0  0  0  0  0  0  0  0  0  0  0  0
   53.7940   28.7890   52.8910 C   0  0  0  0  0  0  0  0  0  0  0  0
   53.6230   29.8840   52.0320 C   0  0  0  0  0  0  0  0  0  0  0  0
   52.2990   30.1140   51.3570 C   0  0  0  0  0  0  0  0  0  0  0  0
   51.5370   31.1910   52.0680 C   0  0  0  0  0  0  0  0  0  0  0  0
   51.2730   31.2540   53.7300 S   0  0  0  0  0  0  0  0  0  0  0  0
   50.4820   32.7340   53.6300 C   0  0  0  0  0  0  0  0  0  0  0  0
   50.0060   33.3510   54.6170 O   0  0  0  0  0  0  0  0  0  0  0  0
   50.4140   33.2040   52.3660 N   0  0  0  0  0  0  0  0  0  0  0  0
   51.0070   32.3460   51.4960 C   0  0  0  0  0  0  0  0  0  0  0  0
   51.0720   32.6160   50.1350 O   0  0  0  0  0  0  0  0  0  0  0  0
   54.7120   30.7250   51.7630 C   0  0  0  0  0  0  0  0  0  0  0  0
   55.9500   30.4870   52.3660 C   0  0  0  0  0  0  0  0  0  0  0  0
   56.1230   29.3910   53.2230 C   0  0  0  0  0  0  0  0  0  0  0  0
   57.3720   29.1510   53.7970 O   0  0  0  0  0  0  0  0  0  0  0  0
   58.0940   25.1810   53.5650 C   0  0  0  0  0  0  0  0  0  0  0  0
   60.5720   22.0700   50.7290 H   0  0  0  0  0  0  0  0  0  0  0  0
   57.9627   21.7645   53.4505 H   0  0  0  0  0  0  0  0  0  0  0  0
   55.9206   22.2014   54.8181 H   0  0  0  0  0  0  0  0  0  0  0  0
   55.2566   24.5436   55.3649 H   0  0  0  0  0  0  0  0  0  0  0  0
   52.9412   28.1284   53.1064 H   0  0  0  0  0  0  0  0  0  0  0  0
   52.4707   30.4182   50.3139 H   0  0  0  0  0  0  0  0  0  0  0  0
   51.7148   29.1823   51.3846 H   0  0  0  0  0  0  0  0  0  0  0  0
   54.5916   31.5749   51.0751 H   0  0  0  0  0  0  0  0  0  0  0  0
   56.7940   31.1638   52.1670 H   0  0  0  0  0  0  0  0  0  0  0  0
   57.5650   28.3010   54.3130 H   0  0  0  0  0  0  0  0  0  0  0  0
   58.7260   26.0210   53.2410 H   0  0  0  0  0  0  0  0  0  0  0  0
  1  2  1  0
  2  3  2  0
  2  4  2  0
  2  5  1  0
  5  6  2  0
  6  7  1  0
  7  8  2  0
  8  9  1  0
  9 10  1  0
 10 11  1  0
 11 12  2  0
 11 13  1  0
 13 14  2  0
 14 15  1  0
 15 16  1  0
 16 17  1  0
 17 18  1  0
 18 19  1  0
 19 20  2  0
 19 21  1  0
 21 22  1  0
 22 23  1  0
 15 24  2  0
 24 25  1  0
 25 26  2  0
 26 27  1  0
  9 28  2  0
 28  5  1  0
 26 13  1  0
 22 17  2  0
  1 29  1  0
  6 30  1  0
  7 31  1  0
  8 32  1  0
 14 33  1  0
 16 34  1  0
 16 35  1  0
 24 36  1  0
 25 37  1  0
 27 38  1  0
 28 39  1  0
M  CHG  4   1  -1  10  -1  21  -1  23  -1
M  END
>  <UniqueID>  (16) 
16

>  <SMILES>  (16) 
[NH-]S(=O)(=O)c1cccc([N-]C(=O)c2cc(Cc3sc(=O)[n-]c3[O-])ccc2O)c1

>  <Energy>  (16) 
72.89906997283329

>  <Genealogy>  (16) 
[NH-]S(=O)(=O)c1cccc([N-]C(=O)c2cc(Cc3sc(=O)[n-]c3[O-])ccc2O)c1 (protonated)
[NH-]S(=O)(=O)c1cccc([N-]C(=O)c2cc(Cc3sc(=O)[n-]c3[O-])ccc2O)c1 (3D coordinates assigned)
[NH-]S(=O)(=O)c1cccc([N-]C(=O)c2cc(Cc3sc(=O)[n-]c3[O-])ccc2O)c1 (optimized conformer: 72.89906997283329 kcal/mol)

>  <smiles>  (16) 
NS(=O)(=O)c1cccc(NC(=O)c2cc(Cc3sc(=O)[nH]c3O)ccc2O)c1

>  <score_type>  (16) 
oracle

>  <origin>  (16) 
adg

>  <m_score__min__energy>  (16) 
-18.129999999999999

>  <m_primary>  (16) 
energy

$$$$
16:0
     RDKit          3D

 42 44  0  0  0  0  0  0  0  0999 V2000
   54.9350   25.5180   45.6300 C   0  0  0  0  0  0  0  0  0  0  0  0
   55.5400   26.7900   45.8410 O   0  0  0  0  0  0  0  0  0  0  0  0
   56.9130   27.0510   45.6970 C   0  0  0  0  0  0  0  0  0  0  0  0
   57.8910   26.0980   46.0470 C   0  0  0  0  0  0  0  0  0  0  0  0
   59.2490   26.3920   45.9010 C   0  0  0  0  0  0  0  0  0  0  0  0
   59.6480   27.6290   45.3980 C   0  0  0  0  0  0  0  0  0  0  0  0
   58.6900   28.5820   45.0450 C   0  0  0  0  0  0  0  0  0  0  0  0
   57.3210   28.3080   45.2020 C   0  0  0  0  0  0  0  0  0  0  0  0
   56.3180   29.3290   44.8280 C   0  0  0  0  0  0  0  0  0  0  0  0
   55.1480   28.9630   44.5390 O   0  0  0  0  0  0  0  0  0  0  0  0
   56.6220   30.7290   44.8170 N   0  0  0  0  0  0  0  0  0  0  0  0
   57.8630   31.3190   44.3280 C   0  0  0  0  0  0  0  0  0  0  0  0
   58.1420   32.5870   45.0740 C   0  0  0  0  0  0  0  0  0  0  0  0
   57.7020   33.7970   44.6750 N   0  0  0  0  0  0  0  0  0  0  0  0
   58.1000   34.6760   45.5860 N   0  0  0  0  0  0  0  0  0  0  0  0
   58.7710   33.9840   46.5260 C   0  0  0  0  0  0  0  0  0  0  0  0
   59.4550   34.6830   47.8390 S   0  0  0  0  0  0  0  0  0  0  0  0
   58.8290   32.6700   46.2320 N   0  0  0  0  0  0  0  0  0  0  0  0
   59.3960   31.6030   47.0110 C   0  0  0  0  0  0  0  0  0  0  0  0
   58.5560   30.6080   47.5330 C   0  0  0  0  0  0  0  0  0  0  0  0
   59.0930   29.5400   48.2560 C   0  0  0  0  0  0  0  0  0  0  0  0
   60.4690   29.4610   48.4660 C   0  0  0  0  0  0  0  0  0  0  0  0
   61.3150   30.4510   47.9570 C   0  0  0  0  0  0  0  0  0  0  0  0
   60.7860   31.5330   47.2260 C   0  0  0  0  0  0  0  0  0  0  0  0
   61.6040   32.5510   46.7130 O   0  0  0  0  0  0  0  0  0  0  0  0
   62.7540   33.0690   47.3720 C   0  0  0  0  0  0  0  0  0  0  0  0
   54.7133   25.0518   46.6013 H   0  0  0  0  0  0  0  0  0  0  0  0
   54.0012   25.6457   45.0629 H   0  0  0  0  0  0  0  0  0  0  0  0
   55.6233   24.8741   45.0629 H   0  0  0  0  0  0  0  0  0  0  0  0
   57.5830   25.1168   46.4375 H   0  0  0  0  0  0  0  0  0  0  0  0
   60.0054   25.6451   46.1838 H   0  0  0  0  0  0  0  0  0  0  0  0
   60.7180   27.8548   45.2790 H   0  0  0  0  0  0  0  0  0  0  0  0
   59.0096   29.5540   44.6412 H   0  0  0  0  0  0  0  0  0  0  0  0
   58.6913   30.6122   44.4841 H   0  0  0  0  0  0  0  0  0  0  0  0
   57.7657   31.5394   43.2547 H   0  0  0  0  0  0  0  0  0  0  0  0
   57.4695   30.6690   47.3723 H   0  0  0  0  0  0  0  0  0  0  0  0
   58.4297   28.7609   48.6598 H   0  0  0  0  0  0  0  0  0  0  0  0
   60.8900   28.6179   49.0334 H   0  0  0  0  0  0  0  0  0  0  0  0
   62.3996   30.3847   48.1282 H   0  0  0  0  0  0  0  0  0  0  0  0
   62.6124   33.0052   48.4610 H   0  0  0  0  0  0  0  0  0  0  0  0
   63.6381   32.4822   47.0822 H   0  0  0  0  0  0  0  0  0  0  0  0
   62.9004   34.1200   47.0822 H   0  0  0  0  0  0  0  0  0  0  0  0
  1  2  1  0
  2  3  1  0
  3  4  2  0
  4  5  1  0
  5  6  2  0
  6  7  1  0
  7  8  2  0
  8  9  1  0
  9 10  2  0
  9 11  1  0
 11 12  1  0
 12 13  1  0
 13 14  2  0
 14 15  1  0
 15 16  1  0
 16 17  2  0
 16 18  1  0
 18 19  1  0
 19 20  2  0
 20 21  1  0
 21 22  2  0
 22 23  1  0
 23 24  2  0
 24 25  1  0
 25 26  1  0
  8  3  1  0
 18 13  1  0
 24 19  1  0
  1 27  1  0
  1 28  1  0
  1 29  1  0
  4 30  1  0
  5 31  1  0
  6 32  1  0
  7 33  1  0
 12 34  1  0
 12 35  1  0
 20 36  1  0
 21 37  1  0
 22 38  1  0
 23 39  1  0
 26 40  1  0
 26 41  1  0
 26 42  1  0
M  CHG  2  11  -1  15  -1
M  END
>  <UniqueID>  (17) 
17

>  <SMILES>  (17) 
COc1ccccc1C(=O)[N-]Cc1n[n-]c(=S)n1-c1ccccc1OC

>  <Energy>  (17) 
86.11417469696265

>  <Genealogy>  (17) 
COc1ccccc1C(=O)[N-]Cc1n[n-]c(=S)n1-c1ccccc1OC (protonated)
COc1ccccc1C(=O)[N-]Cc1n[n-]c(=S)n1-c1ccccc1OC (3D coordinates assigned)
COc1ccccc1C(=O)[N-]Cc1n[n-]c(=S)n1-c1ccccc1OC (optimized conformer: 86.11417469696265 kcal/mol)

>  <smiles>  (17) 
COc1ccccc1C(=O)NCc1n[nH]c(=S)n1-c1ccccc1OC

>  <score_type>  (17) 
oracle

>  <origin>  (17) 
adg

>  <m_score__min__energy>  (17) 
-10.94

>  <m_primary>  (17) 
energy

$$$$
17:0
     RDKit          3D

 43 45  0  0  1  0  0  0  0  0999 V2000
   54.8080   24.7070   45.6000 C   0  0  0  0  0  0  0  0  0  0  0  0
   55.3560   25.8010   46.2880 O   0  0  0  0  0  0  0  0  0  0  0  0
   56.6990   26.0780   46.1760 C   0  0  0  0  0  0  0  0  0  0  0  0
   57.7090   25.2120   46.5390 C   0  0  0  0  0  0  0  0  0  0  0  0
   59.0530   25.5160   46.4180 C   0  0  0  0  0  0  0  0  0  0  0  0
   59.4030   26.7600   45.9030 C   0  0  0  0  0  0  0  0  0  0  0  0
   58.3860   27.6080   45.5470 C   0  0  0  0  0  0  0  0  0  0  0  0
   57.0470   27.3090   45.6660 C   0  0  0  0  0  0  0  0  0  0  0  0
   56.0980   28.2980   45.2560 N   0  0  0  0  0  0  0  0  0  0  0  0
   56.4020   29.4890   44.0850 S   0  0  0  0  0  0  0  0  0  0  0  0
   56.9020   29.0010   42.7740 O   0  0  0  0  0  0  0  0  0  0  0  0
   55.0420   30.1280   43.7640 O   0  0  0  0  0  0  0  0  0  0  0  0
   57.3770   30.8270   44.6370 C   0  0  0  0  0  0  0  0  0  0  0  0
   57.3450   32.0390   44.0090 C   0  0  0  0  0  0  0  0  0  0  0  0
   58.0860   33.0820   44.4850 C   0  0  0  0  0  0  0  0  0  0  0  0
   58.8650   32.8750   45.6090 C   0  0  0  0  0  0  0  0  0  0  0  0
   58.9140   31.6530   46.2630 C   0  0  0  0  0  0  0  0  0  0  0  0
   59.7520   31.5630   47.4300 C   0  0  0  0  0  0  0  0  0  0  0  0
   60.4830   32.5600   47.7270 O   0  0  0  0  0  0  0  0  0  0  0  0
   59.8330   30.4430   48.2890 N   0  0  0  0  0  0  0  0  0  0  0  0
   59.0250   30.5280   49.3590 C   0  0  0  0  0  0  0  0  0  0  0  0
   58.4800   29.6080   50.1520 N   0  0  0  0  0  0  0  0  0  0  0  0
   57.7380   30.1000   51.0950 N   0  0  0  0  0  0  0  0  0  0  0  0
   57.4680   31.1810   51.3680 C   0  0  0  0  0  0  0  0  0  0  0  0
   56.6790   32.0310   52.3470 C   0  0  0  0  0  0  0  0  0  0  0  0
   58.4380   32.1590   50.0100 S   0  0  0  0  0  0  0  0  0  0  0  0
   58.1530   30.6120   45.7640 C   0  0  0  0  0  0  0  0  0  0  0  0
   54.4372   23.9668   46.3243 H   0  0  0  0  0  0  0  0  0  0  0  0
   53.9757   25.0507   44.9683 H   0  0  0  0  0  0  0  0  0  0  0  0
   55.5817   24.2462   44.9683 H   0  0  0  0  0  0  0  0  0  0  0  0
   57.4314   24.2284   46.9459 H   0  0  0  0  0  0  0  0  0  0  0  0
   59.8247   24.7931   46.7210 H   0  0  0  0  0  0  0  0  0  0  0  0
   60.4569   27.0526   45.7857 H   0  0  0  0  0  0  0  0  0  0  0  0
   58.6578   28.5928   45.1392 H   0  0  0  0  0  0  0  0  0  0  0  0
   55.1590   28.2160   45.7630 H   0  0  0  0  0  0  0  0  0  0  0  0
   56.7189   32.1757   43.1149 H   0  0  0  0  0  0  0  0  0  0  0  0
   58.0641   34.0626   43.9871 H   0  0  0  0  0  0  0  0  0  0  0  0
   59.4671   33.7093   45.9980 H   0  0  0  0  0  0  0  0  0  0  0  0
   58.6600   28.5730   49.9990 H   0  0  0  0  0  0  0  0  0  0  0  0
   56.9435   31.7460   53.3760 H   0  0  0  0  0  0  0  0  0  0  0  0
   56.9191   33.0925   52.1873 H   0  0  0  0  0  0  0  0  0  0  0  0
   55.6026   31.8705   52.1873 H   0  0  0  0  0  0  0  0  0  0  0  0
   58.1637   29.6276   46.2548 H   0  0  0  0  0  0  0  0  0  0  0  0
  1  2  1  0
  2  3  1  0
  3  4  2  0
  4  5  1  0
  5  6  2  0
  6  7  1  0
  7  8  2  0
  8  9  1  0
  9 10  1  0
 10 11  2  0
 10 12  2  0
 10 13  1  0
 13 14  2  0
 14 15  1  0
 15 16  2  0
 16 17  1  0
 17 18  1  0
 18 19  2  0
 18 20  1  0
 20 21  2  0
 21 22  1  0
 22 23  1  0
 23 24  2  0
 24 25  1  0
 24 26  1  0
 17 27  2  0
  8  3  1  0
 27 13  1  0
 26 21  1  0
  1 28  1  0
  1 29  1  0
  1 30  1  0
  4 31  1  0
  5 32  1  0
  6 33  1  0
  7 34  1  0
  9 35  1  0
 14 36  1  0
 15 37  1  0
 16 38  1  0
 22 39  1  0
 25 40  1  0
 25 41  1  0
 25 42  1  0
 27 43  1  0
M  END
>  <smiles>  (18) 
COc1ccccc1NS(=O)(=O)c1cccc(C(=O)N=c2[nH]nc(C)s2)c1

>  <score_type>  (18) 
oracle

>  <origin>  (18) 
adg

>  <m_score__min__energy>  (18) 
-9.4399999999999995

>  <m_primary>  (18) 
energy

$$$$
18:0
     RDKit          3D

 56 59  0  0  0  0  0  0  0  0999 V2000
   59.5790   21.9040   45.3580 N   0  0  0  0  0  0  0  0  0  0  0  0
   58.3830   22.2610   44.6540 C   0  0  0  0  0  0  0  0  0  0  0  0
   57.9260   21.4290   43.6190 C   0  0  0  0  0  0  0  0  0  0  0  0
   56.7130   21.6930   42.9800 C   0  0  0  0  0  0  0  0  0  0  0  0
   55.9400   22.7870   43.3720 C   0  0  0  0  0  0  0  0  0  0  0  0
   56.3890   23.6300   44.3910 C   0  0  0  0  0  0  0  0  0  0  0  0
   57.6200   23.3960   45.0170 C   0  0  0  0  0  0  0  0  0  0  0  0
   58.0530   24.3150   46.0280 N   0  0  0  0  0  0  0  0  0  0  0  0
   59.1620   25.2130   45.8820 C   0  0  0  0  0  0  0  0  0  0  0  0
   60.3340   24.8020   46.1010 O   0  0  0  0  0  0  0  0  0  0  0  0
   58.9350   26.6130   45.4550 C   0  0  0  0  0  0  0  0  0  0  0  0
   58.1320   26.8970   44.3350 C   0  0  0  0  0  0  0  0  0  0  0  0
   57.9210   28.2170   43.9280 C   0  0  0  0  0  0  0  0  0  0  0  0
   58.5170   29.2780   44.6280 C   0  0  0  0  0  0  0  0  0  0  0  0
   58.2640   30.7000   44.2030 C   0  0  0  0  0  0  0  0  0  0  0  0
   56.9080   31.1620   44.6680 C   0  0  0  0  0  0  0  0  0  0  0  0
   55.9090   30.4180   44.4880 O   0  0  0  0  0  0  0  0  0  0  0  0
   56.7130   32.4490   45.2700 N   0  0  0  0  0  0  0  0  0  0  0  0
   57.7400   33.3560   45.6930 C   0  0  0  0  0  0  0  0  0  0  0  0
   58.4940   34.0970   44.7670 C   0  0  0  0  0  0  0  0  0  0  0  0
   59.5040   34.9540   45.2110 C   0  0  0  0  0  0  0  0  0  0  0  0
   59.7870   35.0580   46.5740 C   0  0  0  0  0  0  0  0  0  0  0  0
   59.0760   34.2810   47.5060 C   0  0  0  0  0  0  0  0  0  0  0  0
   59.3480   34.3500   48.9120 N   0  0  0  0  0  0  0  0  0  0  0  0
   59.6450   33.2390   49.7710 C   0  0  0  0  0  0  0  0  0  0  0  0
   58.7560   32.8240   50.5580 O   0  0  0  0  0  0  0  0  0  0  0  0
   60.9340   32.6080   49.7810 N   0  0  0  0  0  0  0  0  0  0  0  0
   61.8330   32.6290   48.8350 C   0  0  0  0  0  0  0  0  0  0  0  0
   62.4690   33.8380   48.5390 C   0  0  0  0  0  0  0  0  0  0  0  0
   63.4290   33.8760   47.5260 C   0  0  0  0  0  0  0  0  0  0  0  0
   63.7480   32.7720   46.8600 O   0  0  0  0  0  0  0  0  0  0  0  0
   63.1860   31.5960   47.1200 C   0  0  0  0  0  0  0  0  0  0  0  0
   62.2160   31.4790   48.1190 C   0  0  0  0  0  0  0  0  0  0  0  0
   58.0470   33.4430   47.0560 C   0  0  0  0  0  0  0  0  0  0  0  0
   59.3080   29.0020   45.7520 C   0  0  0  0  0  0  0  0  0  0  0  0
   59.5190   27.6810   46.1600 C   0  0  0  0  0  0  0  0  0  0  0  0
   60.0710   22.6050   45.9560 H   0  0  0  0  0  0  0  0  0  0  0  0
   60.0410   20.9790   45.2230 H   0  0  0  0  0  0  0  0  0  0  0  0
   58.5285   20.5624   43.3093 H   0  0  0  0  0  0  0  0  0  0  0  0
   56.3663   21.0382   42.1669 H   0  0  0  0  0  0  0  0  0  0  0  0
   54.9772   22.9853   42.8784 H   0  0  0  0  0  0  0  0  0  0  0  0
   55.7711   24.4844   44.7044 H   0  0  0  0  0  0  0  0  0  0  0  0
   57.6663   26.0727   43.7749 H   0  0  0  0  0  0  0  0  0  0  0  0
   57.2850   28.4257   43.0551 H   0  0  0  0  0  0  0  0  0  0  0  0
   59.0363   31.3502   44.6399 H   0  0  0  0  0  0  0  0  0  0  0  0
   58.2976   30.7519   43.1047 H   0  0  0  0  0  0  0  0  0  0  0  0
   58.2885   34.0020   43.6905 H   0  0  0  0  0  0  0  0  0  0  0  0
   60.0777   35.5484   44.4847 H   0  0  0  0  0  0  0  0  0  0  0  0
   60.5688   35.7500   46.9203 H   0  0  0  0  0  0  0  0  0  0  0  0
   62.2156   34.7505   49.0987 H   0  0  0  0  0  0  0  0  0  0  0  0
   63.9243   34.8263   47.2779 H   0  0  0  0  0  0  0  0  0  0  0  0
   63.4867   30.7081   46.5445 H   0  0  0  0  0  0  0  0  0  0  0  0
   61.7589   30.5037   48.3424 H   0  0  0  0  0  0  0  0  0  0  0  0
   57.4742   32.8470   47.7817 H   0  0  0  0  0  0  0  0  0  0  0  0
   59.7650   29.8285   46.3159 H   0  0  0  0  0  0  0  0  0  0  0  0
   60.1469   27.4755   47.0395 H   0  0  0  0  0  0  0  0  0  0  0  0
  1  2  1  0
  2  3  2  0
  3  4  1  0
  4  5  2  0
  5  6  1  0
  6  7  2  0
  7  8  1  0
  8  9  1  0
  9 10  2  0
  9 11  1  0
 11 12  2  0
 12 13  1  0
 13 14  2  0
 14 15  1  0
 15 16  1  0
 16 17  2  0
 16 18  1  0
 18 19  1  0
 19 20  2  0
 20 21  1  0
 21 22  2  0
 22 23  1  0
 23 24  1  0
 24 25  1  0
 25 26  2  0
 25 27  1  0
 27 28  2  3
 28 29  1  0
 29 30  2  0
 30 31  1  0
 31 32  1  0
 32 33  2  0
 23 34  2  0
 14 35  1  0
 35 36  2  0
  7  2  1  0
 36 11  1  0
 34 19  1  0
 33 28  1  0
  1 37  1  0
  1 38  1  0
  3 39  1  0
  4 40  1  0
  5 41  1  0
  6 42  1  0
 12 43  1  0
 13 44  1  0
 15 45  1  0
 15 46  1  0
 20 47  1  0
 21 48  1  0
 22 49  1  0
 29 50  1  0
 30 51  1  0
 32 52  1  0
 33 53  1  0
 34 54  1  0
 35 55  1  0
 36 56  1  0
M  CHG  3   8  -1  18  -1  24  -1
M  END
>  <UniqueID>  (19) 
18

>  <SMILES>  (19) 
Nc1ccccc1[N-]C(=O)c1ccc(CC(=O)[N-]c2cccc([N-]C(=O)N=c3ccocc3)c2)cc1

>  <Energy>  (19) 
84.96969719784292

>  <Genealogy>  (19) 
Nc1ccccc1[N-]C(=O)c1ccc(CC(=O)[N-]c2cccc([N-]C(=O)N=c3ccocc3)c2)cc1 (protonated)
Nc1ccccc1[N-]C(=O)c1ccc(CC(=O)[N-]c2cccc([N-]C(=O)N=c3ccocc3)c2)cc1 (3D coordinates assigned)
Nc1ccccc1[N-]C(=O)c1ccc(CC(=O)[N-]c2cccc([N-]C(=O)N=c3ccocc3)c2)cc1 (optimized conformer: 84.96969719784292 kcal/mol)

>  <smiles>  (19) 
Nc1ccccc1NC(=O)c1ccc(CC(=O)Nc2cccc(NC(=O)N=c3ccocc3)c2)cc1

>  <score_type>  (19) 
oracle

>  <origin>  (19) 
adg

>  <m_score__min__energy>  (19) 
-14.539999999999999

>  <m_primary>  (19) 
energy

$$$$
19:0
     RDKit          3D

 48 51  0  0  0  0  0  0  0  0999 V2000
   59.7090   33.7620   52.5880 C   0  0  0  0  0  0  0  0  0  0  0  0
   61.1150   33.5510   52.5990 O   0  0  0  0  0  0  0  0  0  0  0  0
   61.8790   33.4830   51.4290 C   0  0  0  0  0  0  0  0  0  0  0  0
   61.2620   33.7170   50.1970 C   0  0  0  0  0  0  0  0  0  0  0  0
   62.0210   33.6430   49.0170 C   0  0  0  0  0  0  0  0  0  0  0  0
   61.4430   33.8490   47.7520 C   0  0  0  0  0  0  0  0  0  0  0  0
   60.0840   34.1770   47.6490 O   0  0  0  0  0  0  0  0  0  0  0  0
   59.1350   33.4690   46.8980 C   0  0  0  0  0  0  0  0  0  0  0  0
   59.2720   32.0810   46.7900 C   0  0  0  0  0  0  0  0  0  0  0  0
   58.4060   31.3450   45.9790 C   0  0  0  0  0  0  0  0  0  0  0  0
   57.4010   31.9960   45.2460 C   0  0  0  0  0  0  0  0  0  0  0  0
   56.5850   31.2860   44.3040 N   0  0  0  0  0  0  0  0  0  0  0  0
   56.2000   29.9070   44.4180 C   0  0  0  0  0  0  0  0  0  0  0  0
   55.6540   29.3440   43.4340 O   0  0  0  0  0  0  0  0  0  0  0  0
   56.4160   29.1520   45.6200 N   0  0  0  0  0  0  0  0  0  0  0  0
   56.9700   27.8300   45.6880 C   0  0  0  0  0  0  0  0  0  0  0  0
   58.3320   27.6480   45.4240 C   0  0  0  0  0  0  0  0  0  0  0  0
   58.8770   26.3610   45.3810 C   0  0  0  0  0  0  0  0  0  0  0  0
   58.0680   25.2360   45.6270 C   0  0  0  0  0  0  0  0  0  0  0  0
   58.6150   23.8330   45.5400 C   0  0  0  0  0  0  0  0  0  0  0  0
   59.9910   23.8650   45.6680 F   0  0  0  0  0  0  0  0  0  0  0  0
   58.0830   23.0700   46.5640 F   0  0  0  0  0  0  0  0  0  0  0  0
   58.2980   23.2340   44.3320 F   0  0  0  0  0  0  0  0  0  0  0  0
   56.7130   25.4290   45.9430 C   0  0  0  0  0  0  0  0  0  0  0  0
   56.1700   26.7150   45.9850 C   0  0  0  0  0  0  0  0  0  0  0  0
   57.2240   33.3750   45.3960 C   0  0  0  0  0  0  0  0  0  0  0  0
   58.0940   34.1140   46.2030 C   0  0  0  0  0  0  0  0  0  0  0  0
   62.2510   33.7610   46.6070 C   0  0  0  0  0  0  0  0  0  0  0  0
   63.6060   33.4540   46.7380 C   0  0  0  0  0  0  0  0  0  0  0  0
   64.1450   33.2470   47.9670 N   0  0  0  0  0  0  0  0  0  0  0  0
   63.3960   33.3320   49.1000 C   0  0  0  0  0  0  0  0  0  0  0  0
   63.9730   33.1090   50.3580 C   0  0  0  0  0  0  0  0  0  0  0  0
   65.1980   32.8330   50.4610 O   0  0  0  0  0  0  0  0  0  0  0  0
   63.2080   33.1880   51.4790 N   0  0  0  0  0  0  0  0  0  0  0  0
   59.3385   33.8176   53.6222 H   0  0  0  0  0  0  0  0  0  0  0  0
   59.4837   34.7040   52.0666 H   0  0  0  0  0  0  0  0  0  0  0  0
   59.2171   32.9276   52.0666 H   0  0  0  0  0  0  0  0  0  0  0  0
   60.1896   33.9574   50.1515 H   0  0  0  0  0  0  0  0  0  0  0  0
   60.0677   31.5658   47.3480 H   0  0  0  0  0  0  0  0  0  0  0  0
   58.5114   30.2520   45.9142 H   0  0  0  0  0  0  0  0  0  0  0  0
   58.9772   28.5217   45.2494 H   0  0  0  0  0  0  0  0  0  0  0  0
   59.9448   26.2270   45.1535 H   0  0  0  0  0  0  0  0  0  0  0  0
   56.0742   24.5599   46.1592 H   0  0  0  0  0  0  0  0  0  0  0  0
   55.1120   26.8549   46.2517 H   0  0  0  0  0  0  0  0  0  0  0  0
   56.3965   33.8805   44.8767 H   0  0  0  0  0  0  0  0  0  0  0  0
   57.9650   35.2025   46.2953 H   0  0  0  0  0  0  0  0  0  0  0  0
   61.8177   33.9334   45.6108 H   0  0  0  0  0  0  0  0  0  0  0  0
   64.2399   33.3794   45.8421 H   0  0  0  0  0  0  0  0  0  0  0  0
  1  2  1  0
  2  3  1  0
  3  4  2  0
  4  5  1  0
  5  6  2  0
  6  7  1  0
  7  8  1  0
  8  9  2  0
  9 10  1  0
 10 11  2  0
 11 12  1  0
 12 13  1  0
 13 14  2  0
 13 15  1  0
 15 16  1  0
 16 17  2  0
 17 18  1  0
 18 19  2  0
 19 20  1  0
 20 21  1  0
 20 22  1  0
 20 23  1  0
 19 24  1  0
 24 25  2  0
 11 26  1  0
 26 27  2  0
  6 28  1  0
 28 29  2  0
 29 30  1  0
 30 31  2  0
 31 32  1  0
 32 33  2  0
 32 34  1  0
 34  3  1  0
 31  5  1  0
 27  8  1  0
 25 16  1  0
  1 35  1  0
  1 36  1  0
  1 37  1  0
  4 38  1  0
  9 39  1  0
 10 40  1  0
 17 41  1  0
 18 42  1  0
 24 43  1  0
 25 44  1  0
 26 45  1  0
 27 46  1  0
 28 47  1  0
 29 48  1  0
M  CHG  3  12  -1  15  -1  34  -1
M  END
>  <UniqueID>  (20) 
19

>  <SMILES>  (20) 
COc1cc2c(Oc3ccc([N-]C(=O)[N-]c4ccc(C(F)(F)F)cc4)cc3)ccnc2c(=O)[n-]1

>  <Energy>  (20) 
70.13256926565568

>  <Genealogy>  (20) 
COc1cc2c(Oc3ccc([N-]C(=O)[N-]c4ccc(C(F)(F)F)cc4)cc3)ccnc2c(=O)[n-]1 (protonated)
COc1cc2c(Oc3ccc([N-]C(=O)[N-]c4ccc(C(F)(F)F)cc4)cc3)ccnc2c(=O)[n-]1 (3D coordinates assigned)
COc1cc2c(Oc3ccc([N-]C(=O)[N-]c4ccc(C(F)(F)F)cc4)cc3)ccnc2c(=O)[n-]1 (optimized conformer: 70.13256926565568 kcal/mol)

>  <smiles>  (20) 
COc1cc2c(Oc3ccc(NC(=O)Nc4ccc(C(F)(F)F)cc4)cc3)ccnc2c(=O)[nH]1

>  <score_type>  (20) 
oracle

>  <origin>  (20) 
adg

>  <m_score__min__energy>  (20) 
-11.720000000000001

>  <m_primary>  (20) 
energy

$$$$
20:0
     RDKit          3D

 58 62  0  0  0  0  0  0  0  0999 V2000
   56.8017   20.8491   43.2609 H   0  0  0  0  0  0  0  0  0  0  0  0
   56.6240   21.7140   43.9170 C   0  0  0  0  0  0  0  0  0  0  0  0
   56.7470   21.5780   45.3020 C   0  0  0  0  0  0  0  0  0  0  0  0
   57.0307   20.6075   45.7353 H   0  0  0  0  0  0  0  0  0  0  0  0
   56.5100   22.6740   46.1390 C   0  0  0  0  0  0  0  0  0  0  0  0
   56.6229   22.5669   47.2279 H   0  0  0  0  0  0  0  0  0  0  0  0
   56.1270   23.9150   45.5910 C   0  0  0  0  0  0  0  0  0  0  0  0
   55.9100   25.0760   46.4100 N   0  0  0  0  0  0  0  0  0  0  0  0
   56.4480   26.2520   46.2630 C   0  0  0  0  0  0  0  0  0  0  0  0
   55.7490   27.2210   45.6220 N   0  0  0  0  0  0  0  0  0  0  0  0
   56.2740   28.4670   45.4730 C   0  0  0  0  0  0  0  0  0  0  0  0
   55.6140   29.4030   44.8580 N   0  0  0  0  0  0  0  0  0  0  0  0
   55.8430   29.8120   43.4730 C   0  0  0  0  0  0  0  0  0  0  0  0
   56.1924   28.9455   42.8924 H   0  0  0  0  0  0  0  0  0  0  0  0
   54.9004   30.1933   43.0533 H   0  0  0  0  0  0  0  0  0  0  0  0
   56.9070   30.9290   43.4100 C   0  0  0  0  0  0  0  0  0  0  0  0
   57.7619   30.5542   42.8279 H   0  0  0  0  0  0  0  0  0  0  0  0
   56.4147   31.7985   42.9499 H   0  0  0  0  0  0  0  0  0  0  0  0
   57.4120   31.3860   44.7290 N   0  0  1  0  0  0  0  0  0  0  0  0
   56.9110   30.8020   45.4430 H   0  0  0  0  0  0  0  0  0  0  0  0
   58.8600   31.1290   44.8920 C   0  0  0  0  0  0  0  0  0  0  0  0
   59.4089   31.6697   44.1069 H   0  0  0  0  0  0  0  0  0  0  0  0
   59.0274   30.0446   44.8135 H   0  0  0  0  0  0  0  0  0  0  0  0
   59.3590   31.5870   46.2430 C   0  0  0  0  0  0  0  0  0  0  0  0
   60.5690   31.0790   46.7420 C   0  0  0  0  0  0  0  0  0  0  0  0
   61.1199   30.3174   46.1706 H   0  0  0  0  0  0  0  0  0  0  0  0
   61.0770   31.5360   47.9610 C   0  0  0  0  0  0  0  0  0  0  0  0
   62.0209   31.1271   48.3506 H   0  0  0  0  0  0  0  0  0  0  0  0
   60.3880   32.5110   48.6850 C   0  0  0  0  0  0  0  0  0  0  0  0
   60.7879   32.8669   49.6459 H   0  0  0  0  0  0  0  0  0  0  0  0
   59.1910   33.0350   48.1900 C   0  0  0  0  0  0  0  0  0  0  0  0
   58.6490   33.7989   48.7667 H   0  0  0  0  0  0  0  0  0  0  0  0
   58.6760   32.5930   46.9620 C   0  0  0  0  0  0  0  0  0  0  0  0
   57.3530   33.1350   46.4800 C   0  0  0  0  0  0  0  0  0  0  0  0
   57.3505   34.2279   46.6049 H   0  0  0  0  0  0  0  0  0  0  0  0
   56.5565   32.6641   47.0748 H   0  0  0  0  0  0  0  0  0  0  0  0
   57.0990   32.8050   45.0040 C   0  0  0  0  0  0  0  0  0  0  0  0
   57.7360   33.4446   44.3753 H   0  0  0  0  0  0  0  0  0  0  0  0
   56.0380   32.9857   44.7766 H   0  0  0  0  0  0  0  0  0  0  0  0
   57.5020   28.7400   45.9800 N   0  0  0  0  0  0  0  0  0  0  0  0
   58.2120   27.7760   46.6250 C   0  0  0  0  0  0  0  0  0  0  0  0
   59.3800   28.0250   47.1410 N   0  0  0  0  0  0  0  0  0  0  0  0
   59.6560   28.4440   48.4880 C   0  0  0  0  0  0  0  0  0  0  0  0
   58.8190   29.3990   49.0820 C   0  0  0  0  0  0  0  0  0  0  0  0
   57.9869   29.8296   48.5057 H   0  0  0  0  0  0  0  0  0  0  0  0
   59.0340   29.8080   50.4010 C   0  0  0  0  0  0  0  0  0  0  0  0
   58.3819   30.5697   50.8533 H   0  0  0  0  0  0  0  0  0  0  0  0
   60.0770   29.2500   51.1460 C   0  0  0  0  0  0  0  0  0  0  0  0
   60.2830   29.6440   52.4270 F   0  0  0  0  0  0  0  0  0  0  0  0
   60.8980   28.2740   50.5750 C   0  0  0  0  0  0  0  0  0  0  0  0
   61.7125   27.8281   51.1647 H   0  0  0  0  0  0  0  0  0  0  0  0
   60.6860   27.8630   49.2550 C   0  0  0  0  0  0  0  0  0  0  0  0
   61.3251   27.0839   48.8140 H   0  0  0  0  0  0  0  0  0  0  0  0
   57.6740   26.5390   46.7750 N   0  0  0  0  0  0  0  0  0  0  0  0
   56.0390   24.0480   44.1980 C   0  0  0  0  0  0  0  0  0  0  0  0
   55.7826   25.0226   43.7572 H   0  0  0  0  0  0  0  0  0  0  0  0
   56.2750   22.9500   43.3660 C   0  0  0  0  0  0  0  0  0  0  0  0
   56.1858   23.0590   42.2750 H   0  0  0  0  0  0  0  0  0  0  0  0
  1  2  1  0
  2  3  2  0
  3  4  1  0
  3  5  1  0
  5  6  1  0
  5  7  2  0
  7  8  1  0
  8  9  2  0
  9 10  1  0
 10 11  1  0
 11 12  2  3
 12 13  1  0
 13 14  1  0
 13 15  1  0
 13 16  1  0
 16 17  1  0
 16 18  1  0
 16 19  1  0
 19 20  1  1
 19 21  1  0
 21 22  1  0
 21 23  1  0
 21 24  1  0
 24 25  2  0
 25 26  1  0
 25 27  1  0
 27 28  1  0
 27 29  2  0
 29 30  1  0
 29 31  1  0
 31 32  1  0
 31 33  2  0
 33 34  1  0
 34 35  1  0
 34 36  1  0
 34 37  1  0
 37 38  1  0
 37 39  1  0
 11 40  1  0
 40 41  1  0
 41 42  2  0
 42 43  1  0
 43 44  2  0
 44 45  1  0
 44 46  1  0
 46 47  1  0
 46 48  2  0
 48 49  1  0
 48 50  1  0
 50 51  1  0
 50 52  2  0
 52 53  1  0
 41 54  1  0
  7 55  1  0
 55 56  1  0
 55 57  2  0
 57 58  1  0
 57  2  1  0
 54  9  1  0
 37 19  1  0
 52 43  1  0
 33 24  1  0
M  CHG  4  10  -1  19   1  40  -1  54  -1
M  END
>  <UniqueID>  (21) 
20

>  <SMILES>  (21) 
Fc1ccc(/N=c2\[n-]c(=NCC[N@@H+]3CCc4ccccc4C3)[n-]/c(=N/c3ccccc3)[n-]2)cc1

>  <Energy>  (21) 
82.53339364315136

>  <Genealogy>  (21) 
Fc1ccc(N=c2[n-]c(=NCC[NH+]3CCc4ccccc4C3)[n-]c(=Nc3ccccc3)[n-]2)cc1 (protonated)
Fc1ccc(N=c2[n-]c(=NCC[N@@H+]3CCc4ccccc4C3)[n-]c(=Nc3ccccc3)[n-]2)cc1 (chirality)
Fc1ccc(/N=c2\[n-]c(=NCC[N@@H+]3CCc4ccccc4C3)[n-]/c(=N/c3ccccc3)[n-]2)cc1 (cis-trans isomerization)
Fc1ccc(/N=c2\[n-]c(=NCC[N@@H+]3CCc4ccccc4C3)[n-]/c(=N/c3ccccc3)[n-]2)cc1 (3D coordinates assigned)
Fc1ccc(/N=c2\[n-]c(=NCC[N@@H+]3CCc4ccccc4C3)[n-]/c(=N/c3ccccc3)[n-]2)cc1 (nonaromatic ring conformer: 82.53339364315136 kcal/mol)

>  <smiles>  (21) 
Fc1ccc(N=c2[nH]c(=NCCN3CCc4ccccc4C3)[nH]c(=Nc3ccccc3)[nH]2)cc1

>  <score_type>  (21) 
oracle

>  <origin>  (21) 
adg

>  <m_score__min__energy>  (21) 
-12.24

>  <m_primary>  (21) 
energy

$$$$
21:0
     RDKit          3D

 34 35  0  0  0  0  0  0  0  0999 V2000
   60.6320   26.2080   46.3700 C   0  0  0  0  0  0  0  0  0  0  0  0
   59.2840   25.6610   46.0190 C   0  0  0  0  0  0  0  0  0  0  0  0
   59.1580   24.4130   45.8980 O   0  0  0  0  0  0  0  0  0  0  0  0
   58.1020   26.5210   45.7830 C   0  0  0  0  0  0  0  0  0  0  0  0
   58.2240   28.1040   45.2160 S   0  0  0  0  0  0  0  0  0  0  0  0
   56.5600   28.3610   45.2330 C   0  0  0  0  0  0  0  0  0  0  0  0
   55.9460   29.4440   44.8580 N   0  0  0  0  0  0  0  0  0  0  0  0
   56.5420   30.5460   44.1610 C   0  0  0  0  0  0  0  0  0  0  0  0
   56.2960   30.6870   42.9330 O   0  0  0  0  0  0  0  0  0  0  0  0
   57.3770   31.5550   44.8560 C   0  0  0  0  0  0  0  0  0  0  0  0
   58.5500   31.1640   45.5250 C   0  0  0  0  0  0  0  0  0  0  0  0
   59.3420   32.1120   46.1800 C   0  0  0  0  0  0  0  0  0  0  0  0
   58.9820   33.4650   46.1620 C   0  0  0  0  0  0  0  0  0  0  0  0
   59.9680   34.6550   47.0060 S   0  0  0  0  0  0  0  0  0  0  0  0
   59.4280   34.8030   48.6410 N   0  0  0  0  0  0  0  0  0  0  0  0
   61.4090   34.2260   46.9900 O   0  0  0  0  0  0  0  0  0  0  0  0
   59.8560   35.9870   46.3190 O   0  0  0  0  0  0  0  0  0  0  0  0
   57.8190   33.8620   45.4910 C   0  0  0  0  0  0  0  0  0  0  0  0
   57.0260   32.9170   44.8350 C   0  0  0  0  0  0  0  0  0  0  0  0
   55.8950   27.2600   45.6350 N   0  0  0  0  0  0  0  0  0  0  0  0
   56.7330   26.2330   45.9460 C   0  0  0  0  0  0  0  0  0  0  0  0
   56.1730   24.9110   46.3700 C   0  0  0  0  0  0  0  0  0  0  0  0
   60.7369   26.2506   47.4642 H   0  0  0  0  0  0  0  0  0  0  0  0
   61.4127   25.5555   45.9519 H   0  0  0  0  0  0  0  0  0  0  0  0
   60.7373   27.2200   45.9519 H   0  0  0  0  0  0  0  0  0  0  0  0
   58.8468   30.1048   45.5332 H   0  0  0  0  0  0  0  0  0  0  0  0
   60.2511   31.7938   46.7113 H   0  0  0  0  0  0  0  0  0  0  0  0
   60.2810   34.8990   49.2360 H   0  0  0  0  0  0  0  0  0  0  0  0
   58.9100   35.7070   48.7100 H   0  0  0  0  0  0  0  0  0  0  0  0
   57.5283   34.9228   45.4803 H   0  0  0  0  0  0  0  0  0  0  0  0
   56.1215   33.2401   44.2988 H   0  0  0  0  0  0  0  0  0  0  0  0
   56.1504   24.8577   47.4685 H   0  0  0  0  0  0  0  0  0  0  0  0
   55.1515   24.8023   45.9765 H   0  0  0  0  0  0  0  0  0  0  0  0
   56.8056   24.1016   45.9765 H   0  0  0  0  0  0  0  0  0  0  0  0
  1  2  1  0
  2  3  2  0
  2  4  1  0
  4  5  1  0
  5  6  1  0
  6  7  2  3
  7  8  1  0
  8  9  2  0
  8 10  1  0
 10 11  2  0
 11 12  1  0
 12 13  2  0
 13 14  1  0
 14 15  1  0
 14 16  2  0
 14 17  2  0
 13 18  1  0
 18 19  2  0
  6 20  1  0
 20 21  1  0
 21 22  1  0
 21  4  2  0
 19 10  1  0
  1 23  1  0
  1 24  1  0
  1 25  1  0
 11 26  1  0
 12 27  1  0
 15 28  1  0
 15 29  1  0
 18 30  1  0
 19 31  1  0
 22 32  1  0
 22 33  1  0
 22 34  1  0
M  CHG  1  20  -1
M  END
>  <UniqueID>  (22) 
21

>  <SMILES>  (22) 
CC(=O)c1sc(=NC(=O)c2ccc(S(N)(=O)=O)cc2)[n-]c1C

>  <Energy>  (22) 
71.88204749714299

>  <Genealogy>  (22) 
CC(=O)c1sc(=NC(=O)c2ccc(S(N)(=O)=O)cc2)[n-]c1C (protonated)
CC(=O)c1sc(=NC(=O)c2ccc(S(N)(=O)=O)cc2)[n-]c1C (3D coordinates assigned)
CC(=O)c1sc(=NC(=O)c2ccc(S(N)(=O)=O)cc2)[n-]c1C (optimized conformer: 71.88204749714299 kcal/mol)

>  <smiles>  (22) 
CC(=O)c1sc(=NC(=O)c2ccc(S(N)(=O)=O)cc2)[nH]c1C

>  <score_type>  (22) 
oracle

>  <origin>  (22) 
adg

>  <m_score__min__energy>  (22) 
-9.6300000000000008

>  <m_primary>  (22) 
energy

$$$$
22:0
     RDKit          3D

 97102  0  0  0  0  0  0  0  0999 V2000
   56.4610   30.0550   43.6100 C   0  0  0  0  0  0  0  0  0  0  0  0
   56.3570   30.9370   44.7260 O   0  0  0  0  0  0  0  0  0  0  0  0
   57.3100   31.9120   45.0680 C   0  0  0  0  0  0  0  0  0  0  0  0
   57.0110   33.2900   45.0190 C   0  0  0  0  0  0  0  0  0  0  0  0
   57.9590   34.2330   45.4230 C   0  0  0  0  0  0  0  0  0  0  0  0
   59.2070   33.8170   45.8900 C   0  0  0  0  0  0  0  0  0  0  0  0
   59.5160   32.4570   45.9390 C   0  0  0  0  0  0  0  0  0  0  0  0
   58.5870   31.5010   45.5110 C   0  0  0  0  0  0  0  0  0  0  0  0
   58.9570   30.1500   45.5690 O   0  0  0  0  0  0  0  0  0  0  0  0
   58.5280   29.2510   46.5540 C   0  0  0  0  0  0  0  0  0  0  0  0
   57.5110   28.5320   46.3590 O   0  0  0  0  0  0  0  0  0  0  0  0
   59.2860   29.1040   47.7660 N   0  0  0  0  0  0  0  0  0  0  0  0
   59.7640   27.7780   48.1790 C   0  0  0  0  0  0  0  0  0  0  0  0
   60.6740   27.1700   47.0930 C   0  0  0  0  0  0  0  0  0  0  0  0
   59.8610   26.4770   45.9860 C   0  0  0  0  0  0  0  0  0  0  0  0
   58.6280   25.9110   46.5330 N   0  0  0  0  0  0  0  0  0  0  0  0
   58.2580   24.5410   46.3160 C   0  0  0  0  0  0  0  0  0  0  0  0
   59.1010   23.7320   45.8430 O   0  0  0  0  0  0  0  0  0  0  0  0
   56.9000   24.0620   46.6680 C   0  0  0  0  0  0  0  0  0  0  0  0
   56.6470   23.4850   47.9410 C   0  0  0  0  0  0  0  0  0  0  0  0
   55.3770   22.9720   48.2570 C   0  0  0  0  0  0  0  0  0  0  0  0
   54.3760   23.0650   47.2920 C   0  0  0  0  0  0  0  0  0  0  0  0
   54.5970   23.6520   46.0820 C   0  0  0  0  0  0  0  0  0  0  0  0
   55.8460   24.1660   45.7300 C   0  0  0  0  0  0  0  0  0  0  0  0
   53.4940   23.5750   45.3130 N   0  0  0  0  0  0  0  0  0  0  0  0
   52.6120   22.9070   46.1050 C   0  0  0  0  0  0  0  0  0  0  0  0
   51.2200   22.5790   45.6570 C   0  0  0  0  0  0  0  0  0  0  0  0
   51.2210   22.3400   44.2770 O   0  0  0  0  0  0  0  0  0  0  0  0
   53.1200   22.5830   47.3260 N   0  0  0  0  0  0  0  0  0  0  0  0
   52.5150   21.7540   48.3770 C   0  0  0  0  0  0  0  0  0  0  0  0
   52.2970   22.5770   49.6210 C   0  0  0  0  0  0  0  0  0  0  0  0
   53.2810   22.6330   50.6220 C   0  0  0  0  0  0  0  0  0  0  0  0
   53.0110   23.2550   51.8430 C   0  0  0  0  0  0  0  0  0  0  0  0
   51.7550   23.8360   52.0870 C   0  0  0  0  0  0  0  0  0  0  0  0
   51.4210   24.3840   53.4210 C   0  0  0  0  0  0  0  0  0  0  0  0
   51.7040   23.7350   54.4630 O   0  0  0  0  0  0  0  0  0  0  0  0
   50.7600   25.6490   53.5280 N   0  0  0  0  0  0  0  0  0  0  0  0
   51.0180   26.7740   52.6390 C   0  0  0  0  0  0  0  0  0  0  0  0
   51.9850   27.7540   53.3090 C   0  0  0  0  0  0  0  0  0  0  0  0
   51.7180   29.1620   52.8560 C   0  0  0  0  0  0  0  0  0  0  0  0
   50.8140   29.9780   53.5590 C   0  0  0  0  0  0  0  0  0  0  0  0
   50.5830   31.2940   53.1450 C   0  0  0  0  0  0  0  0  0  0  0  0
   51.2580   31.8080   52.0320 C   0  0  0  0  0  0  0  0  0  0  0  0
   51.0260   33.1160   51.6200 O   0  0  0  0  0  0  0  0  0  0  0  0
   52.1720   31.0070   51.3390 C   0  0  0  0  0  0  0  0  0  0  0  0
   52.4040   29.6900   51.7480 C   0  0  0  0  0  0  0  0  0  0  0  0
   50.7980   23.8400   51.0570 C   0  0  0  0  0  0  0  0  0  0  0  0
   51.0700   23.2240   49.8330 C   0  0  0  0  0  0  0  0  0  0  0  0
   59.7240   30.2620   48.4960 C   0  0  0  0  0  0  0  0  0  0  0  0
   59.0000   30.7070   49.6130 C   0  0  0  0  0  0  0  0  0  0  0  0
   59.4110   31.8500   50.3060 C   0  0  0  0  0  0  0  0  0  0  0  0
   60.5500   32.5480   49.8950 C   0  0  0  0  0  0  0  0  0  0  0  0
   61.2920   32.0990   48.7940 C   0  0  0  0  0  0  0  0  0  0  0  0
   62.7650   32.9300   48.3030 S   0  0  0  0  0  0  0  0  0  0  0  0
   64.1400   31.9830   48.7540 N   0  0  0  0  0  0  0  0  0  0  0  0
   62.7730   33.1510   46.8150 O   0  0  0  0  0  0  0  0  0  0  0  0
   62.8270   34.2670   48.9910 O   0  0  0  0  0  0  0  0  0  0  0  0
   60.8670   30.9650   48.0850 C   0  0  0  0  0  0  0  0  0  0  0  0
   56.5828   29.0223   43.9689 H   0  0  0  0  0  0  0  0  0  0  0  0
   55.5483   30.1260   43.0002 H   0  0  0  0  0  0  0  0  0  0  0  0
   57.3322   30.3364   43.0002 H   0  0  0  0  0  0  0  0  0  0  0  0
   56.0259   33.6236   44.6607 H   0  0  0  0  0  0  0  0  0  0  0  0
   57.7216   35.3059   45.3730 H   0  0  0  0  0  0  0  0  0  0  0  0
   59.9470   34.5613   46.2194 H   0  0  0  0  0  0  0  0  0  0  0  0
   60.4971   32.1336   46.3168 H   0  0  0  0  0  0  0  0  0  0  0  0
   60.3325   27.8737   49.1158 H   0  0  0  0  0  0  0  0  0  0  0  0
   58.8970   27.1175   48.3275 H   0  0  0  0  0  0  0  0  0  0  0  0
   61.2758   27.9731   46.6426 H   0  0  0  0  0  0  0  0  0  0  0  0
   61.3153   26.4139   47.5694 H   0  0  0  0  0  0  0  0  0  0  0  0
   59.6077   27.2128   45.2085 H   0  0  0  0  0  0  0  0  0  0  0  0
   60.4654   25.6643   45.5569 H   0  0  0  0  0  0  0  0  0  0  0  0
   58.0050   26.5140   47.1170 H   0  0  0  0  0  0  0  0  0  0  0  0
   57.4535   23.4391   48.6876 H   0  0  0  0  0  0  0  0  0  0  0  0
   55.1794   22.5112   49.2361 H   0  0  0  0  0  0  0  0  0  0  0  0
   56.0065   24.6391   44.7500 H   0  0  0  0  0  0  0  0  0  0  0  0
   50.8663   21.6811   46.1850 H   0  0  0  0  0  0  0  0  0  0  0  0
   50.5519   23.4229   45.8838 H   0  0  0  0  0  0  0  0  0  0  0  0
   52.1300   22.5820   43.9580 H   0  0  0  0  0  0  0  0  0  0  0  0
   51.5486   21.3653   48.0233 H   0  0  0  0  0  0  0  0  0  0  0  0
   53.1903   20.9178   48.6109 H   0  0  0  0  0  0  0  0  0  0  0  0
   54.2694   22.1846   50.4432 H   0  0  0  0  0  0  0  0  0  0  0  0
   53.7884   23.2904   52.6205 H   0  0  0  0  0  0  0  0  0  0  0  0
   51.4624   26.4051   51.7028 H   0  0  0  0  0  0  0  0  0  0  0  0
   50.0710   27.2898   52.4220 H   0  0  0  0  0  0  0  0  0  0  0  0
   51.8584   27.6962   54.4002 H   0  0  0  0  0  0  0  0  0  0  0  0
   53.0131   27.4824   53.0276 H   0  0  0  0  0  0  0  0  0  0  0  0
   50.2863   29.5798   54.4382 H   0  0  0  0  0  0  0  0  0  0  0  0
   49.8699   31.9257   53.6949 H   0  0  0  0  0  0  0  0  0  0  0  0
   52.7096   31.4143   50.4700 H   0  0  0  0  0  0  0  0  0  0  0  0
   53.1255   29.0651   51.2012 H   0  0  0  0  0  0  0  0  0  0  0  0
   49.8272   24.3322   51.2162 H   0  0  0  0  0  0  0  0  0  0  0  0
   50.3179   23.2463   49.0306 H   0  0  0  0  0  0  0  0  0  0  0  0
   58.1076   30.1556   49.9440 H   0  0  0  0  0  0  0  0  0  0  0  0
   58.8367   32.2004   51.1763 H   0  0  0  0  0  0  0  0  0  0  0  0
   60.8648   33.4520   50.4370 H   0  0  0  0  0  0  0  0  0  0  0  0
   64.5710   31.6290   47.8680 H   0  0  0  0  0  0  0  0  0  0  0  0
   61.4317   30.6259   47.2040 H   0  0  0  0  0  0  0  0  0  0  0  0
  1  2  1  0
  2  3  1  0
  3  4  2  0
  4  5  1  0
  5  6  2  0
  6  7  1  0
  7  8  2  0
  8  9  1  0
  9 10  1  0
 10 11  2  0
 10 12  1  0
 12 13  1  0
 13 14  1  0
 14 15  1  0
 15 16  1  0
 16 17  1  0
 17 18  2  0
 17 19  1  0
 19 20  2  0
 20 21  1  0
 21 22  2  0
 22 23  1  0
 23 24  2  0
 23 25  1  0
 25 26  2  0
 26 27  1  0
 27 28  1  0
 26 29  1  0
 29 30  1  0
 30 31  1  0
 31 32  2  0
 32 33  1  0
 33 34  2  0
 34 35  1  0
 35 36  2  0
 35 37  1  0
 37 38  1  0
 38 39  1  0
 39 40  1  0
 40 41  2  0
 41 42  1  0
 42 43  2  0
 43 44  1  0
 43 45  1  0
 45 46  2  0
 34 47  1  0
 47 48  2  0
 12 49  1  0
 49 50  2  0
 50 51  1  0
 51 52  2  0
 52 53  1  0
 53 54  1  0
 54 55  1  0
 54 56  2  0
 54 57  2  0
 53 58  2  0
  8  3  1  0
 24 19  1  0
 48 31  1  0
 58 49  1  0
 29 22  1  0
 46 40  1  0
  1 59  1  0
  1 60  1  0
  1 61  1  0
  4 62  1  0
  5 63  1  0
  6 64  1  0
  7 65  1  0
 13 66  1  0
 13 67  1  0
 14 68  1  0
 14 69  1  0
 15 70  1  0
 15 71  1  0
 16 72  1  0
 20 73  1  0
 21 74  1  0
 24 75  1  0
 27 76  1  0
 27 77  1  0
 28 78  1  0
 30 79  1  0
 30 80  1  0
 32 81  1  0
 33 82  1  0
 38 83  1  0
 38 84  1  0
 39 85  1  0
 39 86  1  0
 41 87  1  0
 42 88  1  0
 45 89  1  0
 46 90  1  0
 47 91  1  0
 48 92  1  0
 50 93  1  0
 51 94  1  0
 52 95  1  0
 55 96  1  0
 58 97  1  0
M  CHG  3  37  -1  44  -1  55  -1
M  END
>  <UniqueID>  (23) 
22

>  <SMILES>  (23) 
COc1ccccc1OC(=O)N(CCCNC(=O)c1ccc2c(c1)nc(CO)n2Cc1ccc(C(=O)[N-]CCc2ccc([O-])cc2)cc1)c1cccc(S([NH-])(=O)=O)c1

>  <Energy>  (23) 
140.80864566496922

>  <Genealogy>  (23) 
COc1ccccc1OC(=O)N(CCCNC(=O)c1ccc2c(c1)nc(CO)n2Cc1ccc(C(=O)[N-]CCc2ccc([O-])cc2)cc1)c1cccc(S([NH-])(=O)=O)c1 (protonated)
COc1ccccc1OC(=O)N(CCCNC(=O)c1ccc2c(c1)nc(CO)n2Cc1ccc(C(=O)[N-]CCc2ccc([O-])cc2)cc1)c1cccc(S([NH-])(=O)=O)c1 (3D coordinates assigned)
COc1ccccc1OC(=O)N(CCCNC(=O)c1ccc2c(c1)nc(CO)n2Cc1ccc(C(=O)[N-]CCc2ccc([O-])cc2)cc1)c1cccc(S([NH-])(=O)=O)c1 (optimized conformer: 140.80864566496922 kcal/mol)

>  <smiles>  (23) 
COc1ccccc1OC(=O)N(CCCNC(=O)c1ccc2c(c1)nc(CO)n2Cc1ccc(C(=O)NCCc2ccc(O)cc2)cc1)c1cccc(S(N)(=O)=O)c1

>  <score_type>  (23) 
oracle

>  <origin>  (23) 
adg

>  <m_score__min__energy>  (23) 
-18.920000000000002

>  <m_primary>  (23) 
energy

$$$$
23:0
     RDKit          3D

 47 49  0  0  1  0  0  0  0  0999 V2000
   65.0110   32.2510   49.8270 C   0  0  0  0  0  0  0  0  0  0  0  0
   63.8770   32.6670   48.9590 C   0  0  0  0  0  0  0  0  0  0  0  0
   62.5630   32.6540   49.3680 C   0  0  0  0  0  0  0  0  0  0  0  0
   61.5260   33.0420   48.5530 C   0  0  0  0  0  0  0  0  0  0  0  0
   60.3290   32.9980   49.0170 N   0  0  0  0  0  0  0  0  0  0  0  0
   58.9960   32.1950   48.3260 S   0  0  0  0  0  0  0  0  0  0  0  0
   58.9450   30.7220   48.5420 O   0  0  0  0  0  0  0  0  0  0  0  0
   57.8000   32.7050   49.1420 O   0  0  0  0  0  0  0  0  0  0  0  0
   58.6620   32.6790   46.6770 C   0  0  0  0  0  0  0  0  0  0  0  0
   58.6840   34.0180   46.3410 C   0  0  0  0  0  0  0  0  0  0  0  0
   58.4250   34.4300   45.0670 C   0  0  0  0  0  0  0  0  0  0  0  0
   58.1350   33.4630   44.1040 C   0  0  0  0  0  0  0  0  0  0  0  0
   58.0960   32.1240   44.3690 C   0  0  0  0  0  0  0  0  0  0  0  0
   57.8270   31.0790   43.4900 N   0  0  0  0  0  0  0  0  0  0  0  0
   56.8230   29.7230   43.7210 S   0  0  0  0  0  0  0  0  0  0  0  0
   55.9170   29.4940   42.5310 O   0  0  0  0  0  0  0  0  0  0  0  0
   55.8460   29.9730   44.8750 O   0  0  0  0  0  0  0  0  0  0  0  0
   57.6550   28.2010   44.0220 C   0  0  0  0  0  0  0  0  0  0  0  0
   58.6420   28.3050   45.1200 C   0  0  0  0  0  0  0  0  0  0  0  0
   59.8470   28.9380   45.0600 C   0  0  0  0  0  0  0  0  0  0  0  0
   60.7200   28.9830   46.1470 C   0  0  0  0  0  0  0  0  0  0  0  0
   60.3990   28.3890   47.3300 C   0  0  0  0  0  0  0  0  0  0  0  0
   59.1850   27.7410   47.4200 C   0  0  0  0  0  0  0  0  0  0  0  0
   58.3230   27.6980   46.3430 C   0  0  0  0  0  0  0  0  0  0  0  0
   58.3710   31.7620   45.7000 C   0  0  0  0  0  0  0  0  0  0  0  0
   61.8400   33.4460   47.3120 N   0  0  0  0  0  0  0  0  0  0  0  0
   63.1200   33.4660   46.8960 C   0  0  0  0  0  0  0  0  0  0  0  0
   63.3830   33.8500   45.7220 O   0  0  0  0  0  0  0  0  0  0  0  0
   64.1480   33.0790   47.7080 N   0  0  0  0  0  0  0  0  0  0  0  0
   64.7224   32.3569   50.8832 H   0  0  0  0  0  0  0  0  0  0  0  0
   65.2653   31.2010   49.6199 H   0  0  0  0  0  0  0  0  0  0  0  0
   65.8840   32.8874   49.6199 H   0  0  0  0  0  0  0  0  0  0  0  0
   62.3327   32.3190   50.3901 H   0  0  0  0  0  0  0  0  0  0  0  0
   58.9144   34.7655   47.1144 H   0  0  0  0  0  0  0  0  0  0  0  0
   58.4443   35.4982   44.8052 H   0  0  0  0  0  0  0  0  0  0  0  0
   57.9267   33.7969   43.0768 H   0  0  0  0  0  0  0  0  0  0  0  0
   58.3220   31.1360   42.5350 H   0  0  0  0  0  0  0  0  0  0  0  0
   56.9093   27.4375   44.2885 H   0  0  0  0  0  0  0  0  0  0  0  0
   58.1999   27.9298   43.1058 H   0  0  0  0  0  0  0  0  0  0  0  0
   60.1417   29.4307   44.1217 H   0  0  0  0  0  0  0  0  0  0  0  0
   61.6825   29.5062   46.0473 H   0  0  0  0  0  0  0  0  0  0  0  0
   61.0871   28.4251   48.1874 H   0  0  0  0  0  0  0  0  0  0  0  0
   58.8998   27.2517   48.3630 H   0  0  0  0  0  0  0  0  0  0  0  0
   57.3613   27.1742   46.4467 H   0  0  0  0  0  0  0  0  0  0  0  0
   58.3518   30.6956   45.9692 H   0  0  0  0  0  0  0  0  0  0  0  0
   61.0930   33.7440   46.6710 H   0  0  0  0  0  0  0  0  0  0  0  0
   65.1210   33.1150   47.3330 H   0  0  0  0  0  0  0  0  0  0  0  0
  1  2  1  0
  2  3  2  0
  3  4  1  0
  4  5  2  0
  5  6  1  0
  6  7  2  0
  6  8  2  0
  6  9  1  0
  9 10  2  0
 10 11  1  0
 11 12  2  0
 12 13  1  0
 13 14  1  0
 14 15  1  0
 15 16  2  0
 15 17  2  0
 15 18  1  0
 18 19  1  0
 19 20  2  0
 20 21  1  0
 21 22  2  0
 22 23  1  0
 23 24  2  0
 13 25  2  0
  4 26  1  0
 26 27  1  0
 27 28  2  0
 27 29  1  0
 29  2  1  0
 25  9  1  0
 24 19  1  0
  1 30  1  0
  1 31  1  0
  1 32  1  0
  3 33  1  0
 10 34  1  0
 11 35  1  0
 12 36  1  0
 14 37  1  0
 18 38  1  0
 18 39  1  0
 20 40  1  0
 21 41  1  0
 22 42  1  0
 23 43  1  0
 24 44  1  0
 25 45  1  0
 26 46  1  0
 29 47  1  0
M  END
>  <smiles>  (24) 
Cc1cc(=NS(=O)(=O)c2cccc(NS(=O)(=O)Cc3ccccc3)c2)[nH]c(=O)[nH]1

>  <score_type>  (24) 
oracle

>  <origin>  (24) 
adg

>  <m_score__min__energy>  (24) 
-10.109999999999999

>  <m_primary>  (24) 
energy

$$$$
24:0
     RDKit          3D

 55 57  0  0  0  0  0  0  0  0999 V2000
   53.3610   21.6100   47.8310 C   0  0  0  0  0  0  0  0  0  0  0  0
   53.8540   22.5280   48.9480 C   0  0  0  0  0  0  0  0  0  0  0  0
   54.9780   21.8930   49.7830 C   0  0  0  0  0  0  0  0  0  0  0  0
   56.3820   22.1800   49.2370 C   0  0  0  0  0  0  0  0  0  0  0  0
   56.3300   22.5320   47.8180 N   0  0  0  0  0  0  0  0  0  0  0  0
   56.9840   21.7620   46.7960 C   0  0  0  0  0  0  0  0  0  0  0  0
   57.7020   20.7750   47.1130 O   0  0  0  0  0  0  0  0  0  0  0  0
   56.7640   22.0630   45.3620 C   0  0  0  0  0  0  0  0  0  0  0  0
   57.3390   21.2100   44.4030 C   0  0  0  0  0  0  0  0  0  0  0  0
   57.1100   21.4140   43.0420 C   0  0  0  0  0  0  0  0  0  0  0  0
   56.2960   22.4640   42.6220 C   0  0  0  0  0  0  0  0  0  0  0  0
   55.7340   23.3360   43.5580 C   0  0  0  0  0  0  0  0  0  0  0  0
   55.9950   23.1710   44.9350 C   0  0  0  0  0  0  0  0  0  0  0  0
   55.5080   24.1090   45.9140 N   0  0  0  0  0  0  0  0  0  0  0  0
   55.7320   25.5260   45.9880 C   0  0  0  0  0  0  0  0  0  0  0  0
   54.7630   26.3290   46.0010 O   0  0  0  0  0  0  0  0  0  0  0  0
   57.1220   26.0440   45.9950 C   0  0  0  0  0  0  0  0  0  0  0  0
   58.1700   25.1720   46.3320 C   0  0  0  0  0  0  0  0  0  0  0  0
   59.4920   25.6170   46.3550 C   0  0  0  0  0  0  0  0  0  0  0  0
   59.7880   26.9420   46.0370 C   0  0  0  0  0  0  0  0  0  0  0  0
   58.7630   27.8240   45.6960 C   0  0  0  0  0  0  0  0  0  0  0  0
   57.4210   27.3930   45.6740 C   0  0  0  0  0  0  0  0  0  0  0  0
   56.3560   28.3060   45.3660 N   0  0  0  0  0  0  0  0  0  0  0  0
   56.3650   29.4720   44.0810 S   0  0  0  0  0  0  0  0  0  0  0  0
   57.0410   28.8740   42.8810 O   0  0  0  0  0  0  0  0  0  0  0  0
   54.9520   29.8240   43.7110 O   0  0  0  0  0  0  0  0  0  0  0  0
   57.2650   30.8960   44.5930 C   0  0  0  0  0  0  0  0  0  0  0  0
   57.4340   31.9900   43.7320 C   0  0  0  0  0  0  0  0  0  0  0  0
   58.1390   33.1190   44.1610 C   0  0  0  0  0  0  0  0  0  0  0  0
   58.6810   33.1590   45.4510 C   0  0  0  0  0  0  0  0  0  0  0  0
   59.6440   34.7020   46.0360 Br  0  0  0  0  0  0  0  0  0  0  0  0
   58.5140   32.0690   46.3140 C   0  0  0  0  0  0  0  0  0  0  0  0
   57.8070   30.9410   45.8860 C   0  0  0  0  0  0  0  0  0  0  0  0
   52.8839   20.7216   48.2703 H   0  0  0  0  0  0  0  0  0  0  0  0
   52.6308   22.1486   47.2092 H   0  0  0  0  0  0  0  0  0  0  0  0
   54.2133   21.2988   47.2092 H   0  0  0  0  0  0  0  0  0  0  0  0
   54.2317   23.4582   48.4985 H   0  0  0  0  0  0  0  0  0  0  0  0
   53.0054   22.7180   49.6217 H   0  0  0  0  0  0  0  0  0  0  0  0
   54.9156   22.2873   50.8080 H   0  0  0  0  0  0  0  0  0  0  0  0
   54.8327   20.8033   49.7458 H   0  0  0  0  0  0  0  0  0  0  0  0
   56.8228   23.0164   49.7993 H   0  0  0  0  0  0  0  0  0  0  0  0
   56.9949   21.2738   49.3514 H   0  0  0  0  0  0  0  0  0  0  0  0
   55.7280   23.3420   47.5450 H   0  0  0  0  0  0  0  0  0  0  0  0
   57.9753   20.3741   44.7291 H   0  0  0  0  0  0  0  0  0  0  0  0
   57.5721   20.7458   42.3004 H   0  0  0  0  0  0  0  0  0  0  0  0
   56.0952   22.6069   41.5500 H   0  0  0  0  0  0  0  0  0  0  0  0
   55.0840   24.1563   43.2194 H   0  0  0  0  0  0  0  0  0  0  0  0
   57.9455   24.1244   46.5811 H   0  0  0  0  0  0  0  0  0  0  0  0
   60.3013   24.9223   46.6241 H   0  0  0  0  0  0  0  0  0  0  0  0
   60.8307   27.2918   46.0551 H   0  0  0  0  0  0  0  0  0  0  0  0
   59.0042   28.8667   45.4416 H   0  0  0  0  0  0  0  0  0  0  0  0
   57.0111   31.9600   42.7170 H   0  0  0  0  0  0  0  0  0  0  0  0
   58.2677   33.9764   43.4841 H   0  0  0  0  0  0  0  0  0  0  0  0
   58.9388   32.1000   47.3282 H   0  0  0  0  0  0  0  0  0  0  0  0
   57.6754   30.0861   46.5656 H   0  0  0  0  0  0  0  0  0  0  0  0
  1  2  1  0
  2  3  1  0
  3  4  1  0
  4  5  1  0
  5  6  1  0
  6  7  2  0
  6  8  1  0
  8  9  2  0
  9 10  1  0
 10 11  2  0
 11 12  1  0
 12 13  2  0
 13 14  1  0
 14 15  1  0
 15 16  2  0
 15 17  1  0
 17 18  2  0
 18 19  1  0
 19 20  2  0
 20 21  1  0
 21 22  2  0
 22 23  1  0
 23 24  1  0
 24 25  2  0
 24 26  2  0
 24 27  1  0
 27 28  2  0
 28 29  1  0
 29 30  2  0
 30 31  1  0
 30 32  1  0
 32 33  2  0
 13  8  1  0
 22 17  1  0
 33 27  1  0
  1 34  1  0
  1 35  1  0
  1 36  1  0
  2 37  1  0
  2 38  1  0
  3 39  1  0
  3 40  1  0
  4 41  1  0
  4 42  1  0
  5 43  1  0
  9 44  1  0
 10 45  1  0
 11 46  1  0
 12 47  1  0
 18 48  1  0
 19 49  1  0
 20 50  1  0
 21 51  1  0
 28 52  1  0
 29 53  1  0
 32 54  1  0
 33 55  1  0
M  CHG  2  14  -1  23  -1
M  END
>  <UniqueID>  (25) 
23

>  <SMILES>  (25) 
CCCCNC(=O)c1ccccc1[N-]C(=O)c1ccccc1[N-]S(=O)(=O)c1ccc(Br)cc1

>  <Energy>  (25) 
64.82987582044093

>  <Genealogy>  (25) 
CCCCNC(=O)c1ccccc1[N-]C(=O)c1ccccc1[N-]S(=O)(=O)c1ccc(Br)cc1 (protonated)
CCCCNC(=O)c1ccccc1[N-]C(=O)c1ccccc1[N-]S(=O)(=O)c1ccc(Br)cc1 (3D coordinates assigned)
CCCCNC(=O)c1ccccc1[N-]C(=O)c1ccccc1[N-]S(=O)(=O)c1ccc(Br)cc1 (optimized conformer: 64.82987582044093 kcal/mol)

>  <smiles>  (25) 
CCCCNC(=O)c1ccccc1NC(=O)c1ccccc1NS(=O)(=O)c1ccc(Br)cc1

>  <score_type>  (25) 
oracle

>  <origin>  (25) 
adg

>  <m_score__min__energy>  (25) 
-13.07

>  <m_primary>  (25) 
energy

$$$$
25:0
     RDKit          3D

 41 43  0  0  0  0  0  0  0  0999 V2000
   61.9580   33.5520   46.7160 C   0  0  0  0  0  0  0  0  0  0  0  0
   60.4650   33.6460   46.5610 C   0  0  0  0  0  0  0  0  0  0  0  0
   59.9130   34.4460   45.5450 C   0  0  0  0  0  0  0  0  0  0  0  0
   58.5280   34.5340   45.3910 C   0  0  0  0  0  0  0  0  0  0  0  0
   57.6820   33.8200   46.2400 C   0  0  0  0  0  0  0  0  0  0  0  0
   58.2180   33.0240   47.2550 C   0  0  0  0  0  0  0  0  0  0  0  0
   59.6110   32.9540   47.4440 C   0  0  0  0  0  0  0  0  0  0  0  0
   60.1750   32.1040   48.4570 N   0  0  0  0  0  0  0  0  0  0  0  0
   59.5300   31.2820   49.2330 C   0  0  0  0  0  0  0  0  0  0  0  0
   59.3940   31.3770   50.6080 C   0  0  0  0  0  0  0  0  0  0  0  0
   58.7400   30.2060   50.9540 C   0  0  0  0  0  0  0  0  0  0  0  0
   58.3670   29.7970   52.3170 C   0  0  0  0  0  0  0  0  0  0  0  0
   57.2270   28.9670   52.5420 N   0  0  0  0  0  0  0  0  0  0  0  0
   59.0600   30.1800   53.2970 O   0  0  0  0  0  0  0  0  0  0  0  0
   58.5090   29.4600   49.8530 N   0  0  0  0  0  0  0  0  0  0  0  0
   58.9860   30.1190   48.8080 N   0  0  0  0  0  0  0  0  0  0  0  0
   58.9410   29.6030   47.4650 C   0  0  0  0  0  0  0  0  0  0  0  0
   59.9410   28.7380   46.9840 C   0  0  0  0  0  0  0  0  0  0  0  0
   59.8850   28.2530   45.6740 C   0  0  0  0  0  0  0  0  0  0  0  0
   58.8400   28.6320   44.8290 C   0  0  0  0  0  0  0  0  0  0  0  0
   57.8500   29.5120   45.2850 C   0  0  0  0  0  0  0  0  0  0  0  0
   56.5300   29.9860   44.2220 S   0  0  0  0  0  0  0  0  0  0  0  0
   55.1660   28.9660   44.5130 N   0  0  0  0  0  0  0  0  0  0  0  0
   56.9590   29.8540   42.7880 O   0  0  0  0  0  0  0  0  0  0  0  0
   56.1530   31.4170   44.4840 O   0  0  0  0  0  0  0  0  0  0  0  0
   57.9040   29.9930   46.6000 C   0  0  0  0  0  0  0  0  0  0  0  0
   62.2153   33.5358   47.7854 H   0  0  0  0  0  0  0  0  0  0  0  0
   62.3189   32.6294   46.2380 H   0  0  0  0  0  0  0  0  0  0  0  0
   62.4318   34.4221   46.2380 H   0  0  0  0  0  0  0  0  0  0  0  0
   60.5755   35.0053   44.8681 H   0  0  0  0  0  0  0  0  0  0  0  0
   58.1031   35.1676   44.5986 H   0  0  0  0  0  0  0  0  0  0  0  0
   56.5916   33.8840   46.1100 H   0  0  0  0  0  0  0  0  0  0  0  0
   57.5476   32.4486   47.9103 H   0  0  0  0  0  0  0  0  0  0  0  0
   59.7269   32.1905   51.2694 H   0  0  0  0  0  0  0  0  0  0  0  0
   56.9690   28.6820   53.5130 H   0  0  0  0  0  0  0  0  0  0  0  0
   56.6360   28.6350   51.7490 H   0  0  0  0  0  0  0  0  0  0  0  0
   60.7712   28.4418   47.6421 H   0  0  0  0  0  0  0  0  0  0  0  0
   60.6664   27.5708   45.3079 H   0  0  0  0  0  0  0  0  0  0  0  0
   58.7940   28.2386   43.8028 H   0  0  0  0  0  0  0  0  0  0  0  0
   54.6700   29.3490   45.3480 H   0  0  0  0  0  0  0  0  0  0  0  0
   57.1265   30.6832   46.9592 H   0  0  0  0  0  0  0  0  0  0  0  0
  1  2  1  0
  2  3  2  0
  3  4  1  0
  4  5  2  0
  5  6  1  0
  6  7  2  0
  7  8  1  0
  8  9  2  3
  9 10  1  0
 10 11  2  0
 11 12  1  0
 12 13  1  0
 12 14  2  0
 11 15  1  0
 15 16  1  0
 16 17  1  0
 17 18  2  0
 18 19  1  0
 19 20  2  0
 20 21  1  0
 21 22  1  0
 22 23  1  0
 22 24  2  0
 22 25  2  0
 21 26  2  0
  7  2  1  0
 16  9  1  0
 26 17  1  0
  1 27  1  0
  1 28  1  0
  1 29  1  0
  3 30  1  0
  4 31  1  0
  5 32  1  0
  6 33  1  0
 10 34  1  0
 13 35  1  0
 13 36  1  0
 18 37  1  0
 19 38  1  0
 20 39  1  0
 23 40  1  0
 26 41  1  0
M  CHG  2  15  -1  23  -1
M  END
>  <UniqueID>  (26) 
24

>  <SMILES>  (26) 
Cc1ccccc1N=c1cc(C(N)=O)[n-]n1-c1cccc(S([NH-])(=O)=O)c1

>  <Energy>  (26) 
83.67907198609832

>  <Genealogy>  (26) 
Cc1ccccc1N=c1cc(C(N)=O)[n-]n1-c1cccc(S([NH-])(=O)=O)c1 (protonated)
Cc1ccccc1N=c1cc(C(N)=O)[n-]n1-c1cccc(S([NH-])(=O)=O)c1 (3D coordinates assigned)
Cc1ccccc1N=c1cc(C(N)=O)[n-]n1-c1cccc(S([NH-])(=O)=O)c1 (optimized conformer: 83.67907198609832 kcal/mol)

>  <smiles>  (26) 
Cc1ccccc1N=c1cc(C(N)=O)[nH]n1-c1cccc(S(N)(=O)=O)c1

>  <score_type>  (26) 
oracle

>  <origin>  (26) 
adg

>  <m_score__min__energy>  (26) 
-11.779999999999999

>  <m_primary>  (26) 
energy

$$$$
26:0
     RDKit          3D

 29 31  0  0  0  0  0  0  0  0999 V2000
   59.8040   29.7540   45.0250 O   0  0  0  0  0  0  0  0  0  0  0  0
   58.8580   30.3940   45.5480 C   0  0  0  0  0  0  0  0  0  0  0  0
   57.5220   29.9370   45.6200 N   0  0  0  0  0  0  0  0  0  0  0  0
   56.8140   29.7660   44.5880 C   0  0  0  0  0  0  0  0  0  0  0  0
   55.4550   29.9490   44.6250 N   0  0  0  0  0  0  0  0  0  0  0  0
   54.9510   29.7180   43.4330 N   0  0  0  0  0  0  0  0  0  0  0  0
   55.9340   29.3920   42.6280 N   0  0  0  0  0  0  0  0  0  0  0  0
   57.0700   29.4200   43.3300 N   0  0  0  0  0  0  0  0  0  0  0  0
   59.0770   31.7360   46.1600 C   0  0  0  0  0  0  0  0  0  0  0  0
   60.2340   31.9850   46.8640 C   0  0  0  0  0  0  0  0  0  0  0  0
   60.4380   33.2030   47.4660 C   0  0  0  0  0  0  0  0  0  0  0  0
   61.6630   33.4150   48.1860 C   0  0  0  0  0  0  0  0  0  0  0  0
   61.9500   34.1210   49.3500 C   0  0  0  0  0  0  0  0  0  0  0  0
   63.2100   34.1180   49.7820 C   0  0  0  0  0  0  0  0  0  0  0  0
   64.1580   33.4380   49.0850 C   0  0  0  0  0  0  0  0  0  0  0  0
   63.2890   32.7090   47.6890 S   0  0  0  0  0  0  0  0  0  0  0  0
   59.5050   34.2010   47.3840 C   0  0  0  0  0  0  0  0  0  0  0  0
   58.3430   33.9560   46.6790 C   0  0  0  0  0  0  0  0  0  0  0  0
   58.1110   32.7250   46.0570 C   0  0  0  0  0  0  0  0  0  0  0  0
   56.9300   32.4930   45.3480 O   0  0  0  0  0  0  0  0  0  0  0  0
   55.8450   29.1570   41.6270 H   0  0  0  0  0  0  0  0  0  0  0  0
   58.0510   29.2110   42.9940 H   0  0  0  0  0  0  0  0  0  0  0  0
   61.0019   31.2016   46.9451 H   0  0  0  0  0  0  0  0  0  0  0  0
   61.1632   34.6632   49.8950 H   0  0  0  0  0  0  0  0  0  0  0  0
   63.4818   34.6630   50.6980 H   0  0  0  0  0  0  0  0  0  0  0  0
   65.2283   33.3518   49.3236 H   0  0  0  0  0  0  0  0  0  0  0  0
   59.6764   35.1740   47.8676 H   0  0  0  0  0  0  0  0  0  0  0  0
   57.5824   34.7472   46.6050 H   0  0  0  0  0  0  0  0  0  0  0  0
   56.3470   31.7230   45.5790 H   0  0  0  0  0  0  0  0  0  0  0  0
  1  2  2  0
  2  3  1  0
  3  4  2  3
  4  5  1  0
  5  6  2  0
  6  7  1  0
  7  8  1  0
  2  9  1  0
  9 10  2  0
 10 11  1  0
 11 12  1  0
 12 13  2  0
 13 14  1  0
 14 15  2  0
 15 16  1  0
 11 17  2  0
 17 18  1  0
 18 19  2  0
 19 20  1  0
  8  4  1  0
 19  9  1  0
 16 12  1  0
  7 21  1  0
  8 22  1  0
 10 23  1  0
 13 24  1  0
 14 25  1  0
 15 26  1  0
 17 27  1  0
 18 28  1  0
 20 29  1  0
M  END
>  <smiles>  (27) 
O=C(N=c1nn[nH][nH]1)c1cc(-c2cccs2)ccc1O

>  <score_type>  (27) 
oracle

>  <origin>  (27) 
adg

>  <m_score__min__energy>  (27) 
-7.6500000000000004

>  <m_primary>  (27) 
energy

$$$$
27:0
     RDKit          3D

 51 54  0  0  0  0  0  0  0  0999 V2000
   59.4462   35.3902   47.1373 H   0  0  0  0  0  0  0  0  0  0  0  0
   59.6980   34.3890   47.5170 C   0  0  0  0  0  0  0  0  0  0  0  0
   58.6950   33.5410   47.7680 C   0  0  0  0  0  0  0  0  0  0  0  0
   58.2495   33.5154   48.7734 H   0  0  0  0  0  0  0  0  0  0  0  0
   58.1740   32.6390   46.7230 C   0  0  0  0  0  0  0  0  0  0  0  0
   57.1520   33.1100   45.8910 C   0  0  0  0  0  0  0  0  0  0  0  0
   56.7527   34.1243   46.0385 H   0  0  0  0  0  0  0  0  0  0  0  0
   56.6500   32.3270   44.9050 N   0  0  0  0  0  0  0  0  0  0  0  0
   57.1240   31.0770   44.6680 C   0  0  0  0  0  0  0  0  0  0  0  0
   56.5680   30.3140   43.6340 C   0  0  0  0  0  0  0  0  0  0  0  0
   55.7465   30.7254   43.0291 H   0  0  0  0  0  0  0  0  0  0  0  0
   57.0540   29.0320   43.3690 C   0  0  0  0  0  0  0  0  0  0  0  0
   56.6130   28.4349   42.5572 H   0  0  0  0  0  0  0  0  0  0  0  0
   58.0970   28.5070   44.1310 C   0  0  0  0  0  0  0  0  0  0  0  0
   58.4792   27.4983   43.9156 H   0  0  0  0  0  0  0  0  0  0  0  0
   58.6590   29.2580   45.1680 C   0  0  0  0  0  0  0  0  0  0  0  0
   59.4817   28.8363   45.7641 H   0  0  0  0  0  0  0  0  0  0  0  0
   58.1780   30.5530   45.4550 C   0  0  0  0  0  0  0  0  0  0  0  0
   58.7080   31.3470   46.5010 C   0  0  0  0  0  0  0  0  0  0  0  0
   60.1140   30.7740   47.4890 S   0  0  0  0  0  0  0  0  0  0  0  0
   59.2270   29.3920   48.2960 C   0  0  0  0  0  0  0  0  0  0  0  0
   59.1030   28.5674   47.5786 H   0  0  0  0  0  0  0  0  0  0  0  0
   58.2383   29.7377   48.6322 H   0  0  0  0  0  0  0  0  0  0  0  0
   60.0140   28.9140   49.4730 C   0  0  0  0  0  0  0  0  0  0  0  0
   60.6090   27.8040   49.4170 O   0  0  0  0  0  0  0  0  0  0  0  0
   60.1360   29.7470   50.6310 N   0  0  0  0  0  0  0  0  0  0  0  0
   59.1090   30.6000   51.1610 C   0  0  0  0  0  0  0  0  0  0  0  0
   57.7710   30.1650   51.2030 C   0  0  0  0  0  0  0  0  0  0  0  0
   57.5146   29.1565   50.8465 H   0  0  0  0  0  0  0  0  0  0  0  0
   56.7680   31.0000   51.6920 C   0  0  0  0  0  0  0  0  0  0  0  0
   55.7269   30.6463   51.7244 H   0  0  0  0  0  0  0  0  0  0  0  0
   57.0810   32.2820   52.1400 C   0  0  0  0  0  0  0  0  0  0  0  0
   56.2875   32.9327   52.5361 H   0  0  0  0  0  0  0  0  0  0  0  0
   58.4010   32.7450   52.0880 C   0  0  0  0  0  0  0  0  0  0  0  0
   58.7340   34.3740   52.6700 Cl  0  0  0  0  0  0  0  0  0  0  0  0
   59.4270   31.9150   51.5800 C   0  0  0  0  0  0  0  0  0  0  0  0
   60.8490   32.4230   51.5430 C   0  0  0  0  0  0  0  0  0  0  0  0
   61.2181   32.5549   52.5708 H   0  0  0  0  0  0  0  0  0  0  0  0
   61.4844   31.6963   51.0156 H   0  0  0  0  0  0  0  0  0  0  0  0
   60.8801   33.3878   51.0156 H   0  0  0  0  0  0  0  0  0  0  0  0
   61.1290   34.0600   47.7200 C   0  0  0  0  0  0  0  0  0  0  0  0
   61.9040   33.7110   46.6000 C   0  0  0  0  0  0  0  0  0  0  0  0
   61.4373   33.6666   45.6049 H   0  0  0  0  0  0  0  0  0  0  0  0
   63.2640   33.4200   46.7430 C   0  0  0  0  0  0  0  0  0  0  0  0
   63.8629   33.1480   45.8613 H   0  0  0  0  0  0  0  0  0  0  0  0
   63.8640   33.4740   48.0040 C   0  0  0  0  0  0  0  0  0  0  0  0
   64.9316   33.2338   48.1159 H   0  0  0  0  0  0  0  0  0  0  0  0
   63.1080   33.8330   49.1220 C   0  0  0  0  0  0  0  0  0  0  0  0
   63.5826   33.8807   50.1132 H   0  0  0  0  0  0  0  0  0  0  0  0
   61.7490   34.1320   48.9840 C   0  0  0  0  0  0  0  0  0  0  0  0
   61.1608   34.4249   49.8662 H   0  0  0  0  0  0  0  0  0  0  0  0
  1  2  1  0
  2  3  2  0
  3  4  1  0
  3  5  1  0
  5  6  2  0
  6  7  1  0
  6  8  1  0
  8  9  2  0
  9 10  1  0
 10 11  1  0
 10 12  2  0
 12 13  1  0
 12 14  1  0
 14 15  1  0
 14 16  2  0
 16 17  1  0
 16 18  1  0
 18 19  2  0
 19 20  1  0
 20 21  1  0
 21 22  1  0
 21 23  1  0
 21 24  1  0
 24 25  2  0
 24 26  1  0
 26 27  1  0
 27 28  2  0
 28 29  1  0
 28 30  1  0
 30 31  1  0
 30 32  2  0
 32 33  1  0
 32 34  1  0
 34 35  1  0
 34 36  2  0
 36 37  1  0
 37 38  1  0
 37 39  1  0
 37 40  1  0
  2 41  1  0
 41 42  2  0
 42 43  1  0
 42 44  1  0
 44 45  1  0
 44 46  2  0
 46 47  1  0
 46 48  1  0
 48 49  1  0
 48 50  2  0
 50 51  1  0
 19  5  1  0
 36 27  1  0
 50 41  1  0
 18  9  1  0
M  CHG  1  26  -1
M  END
>  <UniqueID>  (28) 
25

>  <SMILES>  (28) 
Cc1c(Cl)cccc1[N-]C(=O)CSc1c(/C=C/c2ccccc2)cnc2ccccc12

>  <Energy>  (28) 
69.25617439721333

>  <Genealogy>  (28) 
Cc1c(Cl)cccc1[N-]C(=O)CSc1c(C=Cc2ccccc2)cnc2ccccc12 (protonated)
Cc1c(Cl)cccc1[N-]C(=O)CSc1c(/C=C/c2ccccc2)cnc2ccccc12 (cis-trans isomerization)
Cc1c(Cl)cccc1[N-]C(=O)CSc1c(/C=C/c2ccccc2)cnc2ccccc12 (3D coordinates assigned)
Cc1c(Cl)cccc1[N-]C(=O)CSc1c(/C=C/c2ccccc2)cnc2ccccc12 (optimized conformer: 69.25617439721333 kcal/mol)

>  <smiles>  (28) 
Cc1c(Cl)cccc1NC(=O)CSc1c(C=Cc2ccccc2)cnc2ccccc12

>  <score_type>  (28) 
oracle

>  <origin>  (28) 
adg

>  <m_score__min__energy>  (28) 
-10.67

>  <m_primary>  (28) 
energy

$$$$
28:0
     RDKit          3D

 44 47  0  0  0  0  0  0  0  0999 V2000
   59.0860   27.1900   46.8760 C   0  0  0  0  0  0  0  0  0  0  0  0
   58.4610   27.9300   45.7240 C   0  0  0  0  0  0  0  0  0  0  0  0
   58.4130   27.3140   44.4640 C   0  0  0  0  0  0  0  0  0  0  0  0
   57.8330   27.9700   43.3780 C   0  0  0  0  0  0  0  0  0  0  0  0
   57.2870   29.2420   43.5370 C   0  0  0  0  0  0  0  0  0  0  0  0
   57.3190   29.8760   44.7830 C   0  0  0  0  0  0  0  0  0  0  0  0
   56.7640   31.1590   44.8930 O   0  0  0  0  0  0  0  0  0  0  0  0
   57.4810   32.3220   45.2100 C   0  0  0  0  0  0  0  0  0  0  0  0
   57.3940   32.9310   46.4760 C   0  0  0  0  0  0  0  0  0  0  0  0
   58.1200   34.0940   46.7490 C   0  0  0  0  0  0  0  0  0  0  0  0
   58.9270   34.6630   45.7600 C   0  0  0  0  0  0  0  0  0  0  0  0
   59.0050   34.0740   44.4960 C   0  0  0  0  0  0  0  0  0  0  0  0
   58.2800   32.9100   44.2210 C   0  0  0  0  0  0  0  0  0  0  0  0
   57.9490   29.2420   45.8760 C   0  0  0  0  0  0  0  0  0  0  0  0
   58.0690   29.9400   47.1220 N   0  0  0  0  0  0  0  0  0  0  0  0
   59.2950   30.4640   47.6440 C   0  0  0  0  0  0  0  0  0  0  0  0
   59.6260   30.1630   48.8220 O   0  0  0  0  0  0  0  0  0  0  0  0
   60.1340   31.3190   46.8460 N   0  0  0  0  0  0  0  0  0  0  0  0
   61.3330   31.9430   47.3290 C   0  0  0  0  0  0  0  0  0  0  0  0
   61.8240   33.1490   46.7560 C   0  0  0  0  0  0  0  0  0  0  0  0
   63.0140   33.7320   47.2260 C   0  0  0  0  0  0  0  0  0  0  0  0
   63.6940   33.0830   48.2520 C   0  0  0  0  0  0  0  0  0  0  0  0
   63.2440   31.9230   48.7910 C   0  0  0  0  0  0  0  0  0  0  0  0
   62.0710   31.3130   48.3550 C   0  0  0  0  0  0  0  0  0  0  0  0
   64.1150   31.5040   49.7780 O   0  0  0  0  0  0  0  0  0  0  0  0
   65.1800   32.4620   49.8640 C   0  0  0  0  0  0  0  0  0  0  0  0
   64.8730   33.4530   48.8730 O   0  0  0  0  0  0  0  0  0  0  0  0
   58.7261   27.6162   47.8241 H   0  0  0  0  0  0  0  0  0  0  0  0
   58.8082   26.1270   46.8229 H   0  0  0  0  0  0  0  0  0  0  0  0
   60.1805   27.2860   46.8229 H   0  0  0  0  0  0  0  0  0  0  0  0
   58.8356   26.3071   44.3318 H   0  0  0  0  0  0  0  0  0  0  0  0
   57.8066   27.4814   42.3928 H   0  0  0  0  0  0  0  0  0  0  0  0
   56.8277   29.7509   42.6767 H   0  0  0  0  0  0  0  0  0  0  0  0
   56.7525   32.4902   47.2533 H   0  0  0  0  0  0  0  0  0  0  0  0
   58.0561   34.5615   47.7427 H   0  0  0  0  0  0  0  0  0  0  0  0
   59.5013   35.5757   45.9773 H   0  0  0  0  0  0  0  0  0  0  0  0
   59.6366   34.5256   43.7168 H   0  0  0  0  0  0  0  0  0  0  0  0
   58.3376   32.4534   43.2219 H   0  0  0  0  0  0  0  0  0  0  0  0
   59.9140   31.4290   45.8310 H   0  0  0  0  0  0  0  0  0  0  0  0
   61.2676   33.6297   45.9379 H   0  0  0  0  0  0  0  0  0  0  0  0
   63.3950   34.6704   46.7967 H   0  0  0  0  0  0  0  0  0  0  0  0
   61.7284   30.3661   48.7976 H   0  0  0  0  0  0  0  0  0  0  0  0
   65.2119   32.9149   50.8659 H   0  0  0  0  0  0  0  0  0  0  0  0
   66.1639   32.0005   49.6940 H   0  0  0  0  0  0  0  0  0  0  0  0
  1  2  1  0
  2  3  2  0
  3  4  1  0
  4  5  2  0
  5  6  1  0
  6  7  1  0
  7  8  1  0
  8  9  2  0
  9 10  1  0
 10 11  2  0
 11 12  1  0
 12 13  2  0
  6 14  2  0
 14 15  1  0
 15 16  1  0
 16 17  2  0
 16 18  1  0
 18 19  1  0
 19 20  2  0
 20 21  1  0
 21 22  2  0
 22 23  1  0
 23 24  2  0
 23 25  1  0
 25 26  1  0
 26 27  1  0
 14  2  1  0
 24 19  1  0
 13  8  1  0
 27 22  1  0
  1 28  1  0
  1 29  1  0
  1 30  1  0
  3 31  1  0
  4 32  1  0
  5 33  1  0
  9 34  1  0
 10 35  1  0
 11 36  1  0
 12 37  1  0
 13 38  1  0
 18 39  1  0
 20 40  1  0
 21 41  1  0
 24 42  1  0
 26 43  1  0
 26 44  1  0
M  CHG  1  15  -1
M  END
>  <UniqueID>  (29) 
26

>  <SMILES>  (29) 
Cc1cccc(Oc2ccccc2)c1[N-]C(=O)Nc1ccc2c(c1)OCO2

>  <Energy>  (29) 
93.8682184926193

>  <Genealogy>  (29) 
Cc1cccc(Oc2ccccc2)c1[N-]C(=O)Nc1ccc2c(c1)OCO2 (protonated)
Cc1cccc(Oc2ccccc2)c1[N-]C(=O)Nc1ccc2c(c1)OCO2 (3D coordinates assigned)
Cc1cccc(Oc2ccccc2)c1[N-]C(=O)Nc1ccc2c(c1)OCO2 (nonaromatic ring conformer: 93.8682184926193 kcal/mol)

>  <smiles>  (29) 
Cc1cccc(Oc2ccccc2)c1NC(=O)Nc1ccc2c(c1)OCO2

>  <score_type>  (29) 
oracle

>  <origin>  (29) 
adg

>  <m_score__min__energy>  (29) 
-9.7200000000000006

>  <m_primary>  (29) 
energy

$$$$
29:0
     RDKit          3D

 49 52  0  0  0  0  0  0  0  0999 V2000
   54.8310   26.0370   45.6320 N   0  0  0  0  0  0  0  0  0  0  0  0
   55.0900   24.4750   46.3270 S   0  0  0  0  0  0  0  0  0  0  0  0
   55.8390   24.6500   47.6200 O   0  0  0  0  0  0  0  0  0  0  0  0
   53.7660   23.8250   46.6170 O   0  0  0  0  0  0  0  0  0  0  0  0
   56.0220   23.4560   45.2180 C   0  0  0  0  0  0  0  0  0  0  0  0
   55.5870   22.1430   44.9730 C   0  0  0  0  0  0  0  0  0  0  0  0
   56.3140   21.2990   44.1320 C   0  0  0  0  0  0  0  0  0  0  0  0
   57.4850   21.7550   43.5260 C   0  0  0  0  0  0  0  0  0  0  0  0
   57.9290   23.0590   43.7540 C   0  0  0  0  0  0  0  0  0  0  0  0
   57.2040   23.9210   44.5910 C   0  0  0  0  0  0  0  0  0  0  0  0
   57.7100   25.2910   44.7950 C   0  0  0  0  0  0  0  0  0  0  0  0
   57.7710   26.1910   43.7220 C   0  0  0  0  0  0  0  0  0  0  0  0
   58.2550   27.4880   43.9190 C   0  0  0  0  0  0  0  0  0  0  0  0
   58.6990   27.8940   45.1910 C   0  0  0  0  0  0  0  0  0  0  0  0
   59.1800   29.2220   45.4370 N   0  0  0  0  0  0  0  0  0  0  0  0
   58.4040   30.3240   45.9230 C   0  0  0  0  0  0  0  0  0  0  0  0
   58.1470   30.4420   47.1510 O   0  0  0  0  0  0  0  0  0  0  0  0
   57.7960   31.2780   44.9450 C   0  0  0  0  0  0  0  0  0  0  0  0
   57.7090   32.7240   45.3190 C   0  0  0  0  0  0  0  0  0  0  0  0
   56.6020   33.2070   45.6800 O   0  0  0  0  0  0  0  0  0  0  0  0
   58.9060   33.5120   45.3680 N   0  0  0  0  0  0  0  0  0  0  0  0
   59.7300   33.7240   46.5220 C   0  0  0  0  0  0  0  0  0  0  0  0
   61.1190   33.5960   46.3890 C   0  0  0  0  0  0  0  0  0  0  0  0
   61.9570   33.7920   47.4930 C   0  0  0  0  0  0  0  0  0  0  0  0
   61.4110   34.1360   48.7330 C   0  0  0  0  0  0  0  0  0  0  0  0
   62.2250   34.3210   49.8030 F   0  0  0  0  0  0  0  0  0  0  0  0
   60.0300   34.2990   48.8680 C   0  0  0  0  0  0  0  0  0  0  0  0
   59.1880   34.0990   47.7680 C   0  0  0  0  0  0  0  0  0  0  0  0
   58.0120   30.9740   43.4690 C   0  0  0  0  0  0  0  0  0  0  0  0
   56.6490   30.7320   44.1050 C   0  0  0  0  0  0  0  0  0  0  0  0
   58.6220   26.9950   46.2640 C   0  0  0  0  0  0  0  0  0  0  0  0
   59.0210   27.3760   47.5030 F   0  0  0  0  0  0  0  0  0  0  0  0
   58.1440   25.6950   46.0650 C   0  0  0  0  0  0  0  0  0  0  0  0
   53.8650   26.3340   45.9010 H   0  0  0  0  0  0  0  0  0  0  0  0
   54.6651   21.7767   45.4482 H   0  0  0  0  0  0  0  0  0  0  0  0
   55.9632   20.2730   43.9468 H   0  0  0  0  0  0  0  0  0  0  0  0
   58.0592   21.0864   42.8678 H   0  0  0  0  0  0  0  0  0  0  0  0
   58.8534   23.4130   43.2743 H   0  0  0  0  0  0  0  0  0  0  0  0
   57.4372   25.8761   42.7223 H   0  0  0  0  0  0  0  0  0  0  0  0
   58.2888   28.1939   43.0760 H   0  0  0  0  0  0  0  0  0  0  0  0
   61.5534   33.3400   45.4114 H   0  0  0  0  0  0  0  0  0  0  0  0
   63.0454   33.6753   47.3848 H   0  0  0  0  0  0  0  0  0  0  0  0
   59.6036   34.5851   49.8408 H   0  0  0  0  0  0  0  0  0  0  0  0
   58.1018   34.2346   47.8760 H   0  0  0  0  0  0  0  0  0  0  0  0
   58.1459   31.7972   42.7518 H   0  0  0  0  0  0  0  0  0  0  0  0
   58.7236   30.3601   42.8973 H   0  0  0  0  0  0  0  0  0  0  0  0
   55.7987   31.3805   43.8472 H   0  0  0  0  0  0  0  0  0  0  0  0
   55.9686   29.8712   44.1830 H   0  0  0  0  0  0  0  0  0  0  0  0
   58.1088   24.9884   46.9073 H   0  0  0  0  0  0  0  0  0  0  0  0
  1  2  1  0
  2  3  2  0
  2  4  2  0
  2  5  1  0
  5  6  2  0
  6  7  1  0
  7  8  2  0
  8  9  1  0
  9 10  2  0
 10 11  1  0
 11 12  2  0
 12 13  1  0
 13 14  2  0
 14 15  1  0
 15 16  1  0
 16 17  2  0
 16 18  1  0
 18 19  1  0
 19 20  2  0
 19 21  1  0
 21 22  1  0
 22 23  2  0
 23 24  1  0
 24 25  2  0
 25 26  1  0
 25 27  1  0
 27 28  2  0
 18 29  1  0
 29 30  1  0
 14 31  1  0
 31 32  1  0
 31 33  2  0
 10  5  1  0
 33 11  1  0
 30 18  1  0
 28 22  1  0
  1 34  1  0
  6 35  1  0
  7 36  1  0
  8 37  1  0
  9 38  1  0
 12 39  1  0
 13 40  1  0
 23 41  1  0
 24 42  1  0
 27 43  1  0
 28 44  1  0
 29 45  1  0
 29 46  1  0
 30 47  1  0
 30 48  1  0
 33 49  1  0
M  CHG  3   1  -1  15  -1  21  -1
M  END
>  <UniqueID>  (30) 
27

>  <SMILES>  (30) 
[NH-]S(=O)(=O)c1ccccc1-c1ccc([N-]C(=O)C2(C(=O)[N-]c3ccc(F)cc3)CC2)c(F)c1

>  <Energy>  (30) 
332.52751519946116

>  <Genealogy>  (30) 
[NH-]S(=O)(=O)c1ccccc1-c1ccc([N-]C(=O)C2(C(=O)[N-]c3ccc(F)cc3)CC2)c(F)c1 (protonated)
[NH-]S(=O)(=O)c1ccccc1-c1ccc([N-]C(=O)C2(C(=O)[N-]c3ccc(F)cc3)CC2)c(F)c1 (3D coordinates assigned)
[NH-]S(=O)(=O)c1ccccc1-c1ccc([N-]C(=O)C2(C(=O)[N-]c3ccc(F)cc3)CC2)c(F)c1 (nonaromatic ring conformer: 332.52751519946116 kcal/mol)

>  <smiles>  (30) 
NS(=O)(=O)c1ccccc1-c1ccc(NC(=O)C2(C(=O)Nc3ccc(F)cc3)CC2)c(F)c1

>  <score_type>  (30) 
oracle

>  <origin>  (30) 
adg

>  <m_score__min__energy>  (30) 
-14.1

>  <m_primary>  (30) 
energy

$$$$
30:0
     RDKit          3D

 45 48  0  0  0  0  0  0  0  0999 V2000
   59.8860   28.5040   46.3680 O   0  0  0  0  0  0  0  0  0  0  0  0
   58.6310   28.6150   46.3470 C   0  0  0  0  0  0  0  0  0  0  0  0
   57.7790   27.6450   47.1200 C   0  0  0  0  0  0  0  0  0  0  0  0
   57.5190   26.4310   46.3430 N   0  0  0  0  0  0  0  0  0  0  0  0
   56.3320   26.0280   45.8350 C   0  0  0  0  0  0  0  0  0  0  0  0
   55.1330   26.7130   46.0030 O   0  0  0  0  0  0  0  0  0  0  0  0
   56.4780   24.8350   45.1560 C   0  0  0  0  0  0  0  0  0  0  0  0
   57.7970   24.4640   45.2950 C   0  0  0  0  0  0  0  0  0  0  0  0
   58.4150   25.4730   46.0120 C   0  0  0  0  0  0  0  0  0  0  0  0
   59.7630   25.5150   46.3630 O   0  0  0  0  0  0  0  0  0  0  0  0
   58.3920   23.2360   44.6700 C   0  0  0  0  0  0  0  0  0  0  0  0
   57.2810   22.2330   44.2970 C   0  0  0  0  0  0  0  0  0  0  0  0
   56.0920   22.9260   43.5960 C   0  0  0  0  0  0  0  0  0  0  0  0
   55.4320   23.9840   44.5050 C   0  0  0  0  0  0  0  0  0  0  0  0
   58.0320   29.7500   45.7000 N   0  0  0  0  0  0  0  0  0  0  0  0
   57.0640   29.5180   44.6240 C   0  0  0  0  0  0  0  0  0  0  0  0
   57.3830   30.4300   43.4410 C   0  0  0  0  0  0  0  0  0  0  0  0
   57.3400   31.9020   43.8680 C   0  0  0  0  0  0  0  0  0  0  0  0
   58.1160   32.1570   45.1380 C   0  0  0  0  0  0  0  0  0  0  0  0
   58.4750   33.4740   45.4680 C   0  0  0  0  0  0  0  0  0  0  0  0
   59.1150   33.7500   46.6780 C   0  0  0  0  0  0  0  0  0  0  0  0
   59.3790   32.7180   47.5810 C   0  0  0  0  0  0  0  0  0  0  0  0
   59.0130   31.4060   47.2730 C   0  0  0  0  0  0  0  0  0  0  0  0
   58.3970   31.1060   46.0430 C   0  0  0  0  0  0  0  0  0  0  0  0
   58.3003   27.3713   48.0492 H   0  0  0  0  0  0  0  0  0  0  0  0
   56.8163   28.1284   47.3427 H   0  0  0  0  0  0  0  0  0  0  0  0
   60.2820   26.3840   46.3510 H   0  0  0  0  0  0  0  0  0  0  0  0
   58.9428   23.5217   43.7617 H   0  0  0  0  0  0  0  0  0  0  0  0
   59.0742   22.7623   45.3912 H   0  0  0  0  0  0  0  0  0  0  0  0
   57.6997   21.4738   43.6200 H   0  0  0  0  0  0  0  0  0  0  0  0
   56.9096   21.7744   45.2253 H   0  0  0  0  0  0  0  0  0  0  0  0
   56.4548   23.4180   42.6815 H   0  0  0  0  0  0  0  0  0  0  0  0
   55.3393   22.1596   43.3590 H   0  0  0  0  0  0  0  0  0  0  0  0
   54.7710   24.6213   43.8993 H   0  0  0  0  0  0  0  0  0  0  0  0
   54.8502   23.4722   45.2857 H   0  0  0  0  0  0  0  0  0  0  0  0
   57.1198   28.4677   44.3018 H   0  0  0  0  0  0  0  0  0  0  0  0
   56.0506   29.7377   44.9912 H   0  0  0  0  0  0  0  0  0  0  0  0
   58.3880   30.1926   43.0622 H   0  0  0  0  0  0  0  0  0  0  0  0
   56.6317   30.2667   42.6544 H   0  0  0  0  0  0  0  0  0  0  0  0
   57.7694   32.5159   43.0626 H   0  0  0  0  0  0  0  0  0  0  0  0
   56.2891   32.1647   44.0592 H   0  0  0  0  0  0  0  0  0  0  0  0
   58.2506   34.2932   44.7690 H   0  0  0  0  0  0  0  0  0  0  0  0
   59.4115   34.7813   46.9201 H   0  0  0  0  0  0  0  0  0  0  0  0
   59.8763   32.9390   48.5369 H   0  0  0  0  0  0  0  0  0  0  0  0
   59.2074   30.6008   47.9968 H   0  0  0  0  0  0  0  0  0  0  0  0
  1  2  2  0
  2  3  1  0
  3  4  1  0
  4  5  1  0
  5  6  1  0
  5  7  2  0
  7  8  1  0
  8  9  2  0
  9 10  1  0
  8 11  1  0
 11 12  1  0
 12 13  1  0
 13 14  1  0
  2 15  1  0
 15 16  1  0
 16 17  1  0
 17 18  1  0
 18 19  1  0
 19 20  2  0
 20 21  1  0
 21 22  2  0
 22 23  1  0
 23 24  2  0
  9  4  1  0
 24 15  1  0
 14  7  1  0
 24 19  1  0
  3 25  1  0
  3 26  1  0
 10 27  1  0
 11 28  1  0
 11 29  1  0
 12 30  1  0
 12 31  1  0
 13 32  1  0
 13 33  1  0
 14 34  1  0
 14 35  1  0
 16 36  1  0
 16 37  1  0
 17 38  1  0
 17 39  1  0
 18 40  1  0
 18 41  1  0
 20 42  1  0
 21 43  1  0
 22 44  1  0
 23 45  1  0
M  CHG  1   6  -1
M  END
>  <UniqueID>  (31) 
28

>  <SMILES>  (31) 
O=C(Cn1c([O-])c2c(c1O)CCCC2)N1CCCc2ccccc21

>  <Energy>  (31) 
81.13640020533208

>  <Genealogy>  (31) 
O=C(Cn1c([O-])c2c(c1O)CCCC2)N1CCCc2ccccc21 (protonated)
O=C(Cn1c([O-])c2c(c1O)CCCC2)N1CCCc2ccccc21 (3D coordinates assigned)
O=C(Cn1c([O-])c2c(c1O)CCCC2)N1CCCc2ccccc21 (nonaromatic ring conformer: 81.13640020533208 kcal/mol)

>  <smiles>  (31) 
O=C(Cn1c(O)c2c(c1O)CCCC2)N1CCCc2ccccc21

>  <score_type>  (31) 
oracle

>  <origin>  (31) 
adg

>  <m_score__min__energy>  (31) 
-11.17

>  <m_primary>  (31) 
energy

$$$$
31:0
     RDKit          3D

 31 32  0  0  0  0  0  0  0  0999 V2000
   64.7420   32.8630   48.6190 N   0  0  0  0  0  0  0  0  0  0  0  0
   63.1890   33.4530   48.1450 S   0  0  0  0  0  0  0  0  0  0  0  0
   63.2400   33.8780   46.7040 O   0  0  0  0  0  0  0  0  0  0  0  0
   62.8190   34.6290   49.0050 O   0  0  0  0  0  0  0  0  0  0  0  0
   62.0330   32.2070   48.3390 O   0  0  0  0  0  0  0  0  0  0  0  0
   60.9170   32.0150   47.5140 C   0  0  0  0  0  0  0  0  0  0  0  0
   60.3100   30.7520   47.5060 C   0  0  0  0  0  0  0  0  0  0  0  0
   59.1920   30.5060   46.7030 C   0  0  0  0  0  0  0  0  0  0  0  0
   58.6700   31.5230   45.8980 C   0  0  0  0  0  0  0  0  0  0  0  0
   57.2330   31.2090   44.8740 S   0  0  0  0  0  0  0  0  0  0  0  0
   57.5120   29.4370   44.8640 C   0  0  0  0  0  0  0  0  0  0  0  0
   58.6040   28.9060   44.1710 C   0  0  0  0  0  0  0  0  0  0  0  0
   58.8170   27.5250   44.1560 C   0  0  0  0  0  0  0  0  0  0  0  0
   57.9420   26.6730   44.8350 C   0  0  0  0  0  0  0  0  0  0  0  0
   56.8410   27.1940   45.5380 C   0  0  0  0  0  0  0  0  0  0  0  0
   55.9140   26.2890   46.2520 C   0  0  0  0  0  0  0  0  0  0  0  0
   56.3470   25.4690   47.1040 O   0  0  0  0  0  0  0  0  0  0  0  0
   54.5490   26.3310   45.9910 O   0  0  0  0  0  0  0  0  0  0  0  0
   56.6360   28.5870   45.5490 C   0  0  0  0  0  0  0  0  0  0  0  0
   59.2730   32.7860   45.8930 C   0  0  0  0  0  0  0  0  0  0  0  0
   60.3890   33.0340   46.6970 C   0  0  0  0  0  0  0  0  0  0  0  0
   64.6800   31.8210   48.6400 H   0  0  0  0  0  0  0  0  0  0  0  0
   65.4080   33.1100   47.8550 H   0  0  0  0  0  0  0  0  0  0  0  0
   60.7164   29.9475   48.1366 H   0  0  0  0  0  0  0  0  0  0  0  0
   58.7226   29.5112   46.7046 H   0  0  0  0  0  0  0  0  0  0  0  0
   59.2953   29.5751   43.6377 H   0  0  0  0  0  0  0  0  0  0  0  0
   59.6751   27.1078   43.6086 H   0  0  0  0  0  0  0  0  0  0  0  0
   58.1156   25.5869   44.8195 H   0  0  0  0  0  0  0  0  0  0  0  0
   55.7824   29.0097   46.0992 H   0  0  0  0  0  0  0  0  0  0  0  0
   58.8677   33.5852   45.2549 H   0  0  0  0  0  0  0  0  0  0  0  0
   60.8572   34.0294   46.6918 H   0  0  0  0  0  0  0  0  0  0  0  0
  1  2  1  0
  2  3  2  0
  2  4  2  0
  2  5  1  0
  5  6  1  0
  6  7  2  0
  7  8  1  0
  8  9  2  0
  9 10  1  0
 10 11  1  0
 11 12  2  0
 12 13  1  0
 13 14  2  0
 14 15  1  0
 15 16  1  0
 16 17  2  0
 16 18  1  0
 15 19  2  0
  9 20  1  0
 20 21  2  0
 21  6  1  0
 19 11  1  0
  1 22  1  0
  1 23  1  0
  7 24  1  0
  8 25  1  0
 12 26  1  0
 13 27  1  0
 14 28  1  0
 19 29  1  0
 20 30  1  0
 21 31  1  0
M  CHG  1  18  -1
M  END
>  <UniqueID>  (32) 
29

>  <SMILES>  (32) 
NS(=O)(=O)Oc1ccc(Sc2cccc(C(=O)[O-])c2)cc1

>  <Energy>  (32) 
24.45605870731112

>  <Genealogy>  (32) 
NS(=O)(=O)Oc1ccc(Sc2cccc(C(=O)[O-])c2)cc1 (protonated)
NS(=O)(=O)Oc1ccc(Sc2cccc(C(=O)[O-])c2)cc1 (3D coordinates assigned)
NS(=O)(=O)Oc1ccc(Sc2cccc(C(=O)[O-])c2)cc1 (optimized conformer: 24.45605870731112 kcal/mol)

>  <smiles>  (32) 
NS(=O)(=O)Oc1ccc(Sc2cccc(C(=O)O)c2)cc1

>  <score_type>  (32) 
oracle

>  <origin>  (32) 
adg

>  <m_score__min__energy>  (32) 
-10.449999999999999

>  <m_primary>  (32) 
energy

$$$$
32:0
     RDKit          3D

 45 48  0  0  0  0  0  0  0  0999 V2000
   58.6802   35.2842   44.6418 H   0  0  0  0  0  0  0  0  0  0  0  0
   58.5140   34.2700   45.0340 C   0  0  0  0  0  0  0  0  0  0  0  0
   57.4740   33.5260   44.5730 N   0  0  0  0  0  0  0  0  0  0  0  0
   57.2330   32.2640   45.0280 C   0  0  0  0  0  0  0  0  0  0  0  0
   56.2380   31.5570   44.5710 N   0  0  0  0  0  0  0  0  0  0  0  0
   56.1820   30.1270   44.4290 C   0  0  0  0  0  0  0  0  0  0  0  0
   55.1720   29.4790   44.8100 O   0  0  0  0  0  0  0  0  0  0  0  0
   57.2520   29.4230   43.7920 N   0  0  0  0  0  0  0  0  0  0  0  0
   58.3870   28.8370   44.4470 C   0  0  0  0  0  0  0  0  0  0  0  0
   59.6460   29.4610   44.4360 C   0  0  0  0  0  0  0  0  0  0  0  0
   59.7809   30.4138   43.9031 H   0  0  0  0  0  0  0  0  0  0  0  0
   60.7260   28.8760   45.0990 C   0  0  0  0  0  0  0  0  0  0  0  0
   61.7123   29.3625   45.0763 H   0  0  0  0  0  0  0  0  0  0  0  0
   60.5580   27.6750   45.7910 C   0  0  0  0  0  0  0  0  0  0  0  0
   61.4175   27.2113   46.2973 H   0  0  0  0  0  0  0  0  0  0  0  0
   59.2990   27.0550   45.8450 C   0  0  0  0  0  0  0  0  0  0  0  0
   59.1230   25.7760   46.5720 C   0  0  0  0  0  0  0  0  0  0  0  0
   58.9280   25.8010   47.8160 O   0  0  0  0  0  0  0  0  0  0  0  0
   59.1850   24.4700   45.8780 C   0  0  0  0  0  0  0  0  0  0  0  0
   60.3320   23.7140   45.6200 C   0  0  0  0  0  0  0  0  0  0  0  0
   61.3564   24.0250   45.8728 H   0  0  0  0  0  0  0  0  0  0  0  0
   60.0090   22.5480   45.0170 N   0  0  0  0  0  0  0  0  0  0  0  0
   60.6650   21.7920   44.7180 H   0  0  0  0  0  0  0  0  0  0  0  0
   58.6730   22.5570   44.9010 C   0  0  0  0  0  0  0  0  0  0  0  0
   58.1300   23.7040   45.4130 C   0  0  0  0  0  0  0  0  0  0  0  0
   56.7510   23.9140   45.3890 C   0  0  0  0  0  0  0  0  0  0  0  0
   56.3071   24.8360   45.7926 H   0  0  0  0  0  0  0  0  0  0  0  0
   55.9490   22.9020   44.8290 C   0  0  0  0  0  0  0  0  0  0  0  0
   54.5190   23.0570   44.7860 C   0  0  0  0  0  0  0  0  0  0  0  0
   53.3690   23.1820   44.7490 N   0  0  0  0  0  0  0  0  0  0  0  0
   56.5530   21.7310   44.3150 C   0  0  0  0  0  0  0  0  0  0  0  0
   55.9256   20.9396   43.8789 H   0  0  0  0  0  0  0  0  0  0  0  0
   57.9110   21.5750   44.3560 N   0  0  0  0  0  0  0  0  0  0  0  0
   58.3540   20.7090   43.9760 H   0  0  0  0  0  0  0  0  0  0  0  0
   58.2140   27.6460   45.1650 C   0  0  0  0  0  0  0  0  0  0  0  0
   56.9850   27.0690   45.2060 F   0  0  0  0  0  0  0  0  0  0  0  0
   58.0710   31.7110   46.0040 C   0  0  0  0  0  0  0  0  0  0  0  0
   57.8917   30.6888   46.3687 H   0  0  0  0  0  0  0  0  0  0  0  0
   59.1410   32.4630   46.5170 C   0  0  0  0  0  0  0  0  0  0  0  0
   60.0770   31.8580   47.5320 C   0  0  0  0  0  0  0  0  0  0  0  0
   59.7000   30.5590   47.8240 F   0  0  0  0  0  0  0  0  0  0  0  0
   60.0650   32.5850   48.7090 F   0  0  0  0  0  0  0  0  0  0  0  0
   61.3610   31.8510   47.0210 F   0  0  0  0  0  0  0  0  0  0  0  0
   59.3710   33.7490   46.0040 C   0  0  0  0  0  0  0  0  0  0  0  0
   60.2231   34.3435   46.3651 H   0  0  0  0  0  0  0  0  0  0  0  0
  1  2  1  0
  2  3  1  0
  3  4  1  0
  4  5  2  0
  5  6  1  0
  6  7  2  0
  6  8  1  0
  8  9  1  0
  9 10  2  0
 10 11  1  0
 10 12  1  0
 12 13  1  0
 12 14  2  0
 14 15  1  0
 14 16  1  0
 16 17  1  0
 17 18  2  0
 17 19  1  0
 19 20  2  0
 20 21  1  0
 20 22  1  0
 22 23  1  0
 22 24  1  0
 24 25  2  0
 25 26  1  0
 26 27  1  0
 26 28  2  0
 28 29  1  0
 29 30  3  0
 28 31  1  0
 31 32  1  0
 31 33  2  0
 33 34  1  0
 16 35  2  0
 35 36  1  0
  4 37  1  0
 37 38  1  0
 37 39  2  0
 39 40  1  0
 40 41  1  0
 40 42  1  0
 40 43  1  0
 39 44  1  0
 44 45  1  0
 44  2  2  0
 35  9  1  0
 25 19  1  0
 33 24  1  0
M  CHG  3   3  -1   8  -1  33   1
M  END
>  <UniqueID>  (33) 
30

>  <SMILES>  (33) 
N#Cc1c[nH+]c2[nH]cc(C(=O)c3cccc([N-]C(=O)/N=c4/cc(C(F)(F)F)cc[n-]4)c3F)c2c1

>  <Energy>  (33) 
96.49014139577616

>  <Genealogy>  (33) 
N#Cc1c[nH+]c2[nH]cc(C(=O)c3cccc([N-]C(=O)N=c4cc(C(F)(F)F)cc[n-]4)c3F)c2c1 (protonated)
N#Cc1c[nH+]c2[nH]cc(C(=O)c3cccc([N-]C(=O)/N=c4/cc(C(F)(F)F)cc[n-]4)c3F)c2c1 (cis-trans isomerization)
N#Cc1c[nH+]c2[nH]cc(C(=O)c3cccc([N-]C(=O)/N=c4/cc(C(F)(F)F)cc[n-]4)c3F)c2c1 (3D coordinates assigned)
N#Cc1c[nH+]c2[nH]cc(C(=O)c3cccc([N-]C(=O)/N=c4/cc(C(F)(F)F)cc[n-]4)c3F)c2c1 (optimized conformer: 96.49014139577616 kcal/mol)

>  <smiles>  (33) 
N#Cc1cnc2[nH]cc(C(=O)c3cccc(NC(=O)N=c4cc(C(F)(F)F)cc[nH]4)c3F)c2c1

>  <score_type>  (33) 
oracle

>  <origin>  (33) 
adg

>  <m_score__min__energy>  (33) 
-11.06

>  <m_primary>  (33) 
energy

$$$$
33:0
     RDKit          3D

 39 41  0  0  0  0  0  0  0  0999 V2000
   56.8940   27.6280   45.6650 C   0  0  0  0  0  0  0  0  0  0  0  0
   56.0980   28.7310   45.2400 O   0  0  0  0  0  0  0  0  0  0  0  0
   56.5470   29.7550   44.3910 C   0  0  0  0  0  0  0  0  0  0  0  0
   56.1730   29.8200   43.0330 C   0  0  0  0  0  0  0  0  0  0  0  0
   56.6460   30.8520   42.2200 C   0  0  0  0  0  0  0  0  0  0  0  0
   57.5000   31.8230   42.7440 C   0  0  0  0  0  0  0  0  0  0  0  0
   57.8800   31.7670   44.0880 C   0  0  0  0  0  0  0  0  0  0  0  0
   57.3880   30.7480   44.9230 C   0  0  0  0  0  0  0  0  0  0  0  0
   57.7970   30.6580   46.2950 N   0  0  0  0  0  0  0  0  0  0  0  0
   59.1380   30.7770   46.7860 C   0  0  0  0  0  0  0  0  0  0  0  0
   60.0950   30.5560   45.9980 O   0  0  0  0  0  0  0  0  0  0  0  0
   59.4330   31.0060   48.2380 C   0  0  0  0  0  0  0  0  0  0  0  0
   58.3450   32.3230   48.8680 S   0  0  0  0  0  0  0  0  0  0  0  0
   58.9080   33.5210   47.6590 C   0  0  0  0  0  0  0  0  0  0  0  0
   58.0580   34.0310   46.3170 S   0  0  0  0  0  0  0  0  0  0  0  0
   59.2520   34.9950   45.6880 N   0  0  0  0  0  0  0  0  0  0  0  0
   60.3200   34.9410   46.4770 N   0  0  0  0  0  0  0  0  0  0  0  0
   60.1560   34.1450   47.5780 C   0  0  0  0  0  0  0  0  0  0  0  0
   61.2490   33.9230   48.5410 C   0  0  0  0  0  0  0  0  0  0  0  0
   60.9700   33.9580   49.9180 C   0  0  0  0  0  0  0  0  0  0  0  0
   59.7090   34.1980   50.3600 F   0  0  0  0  0  0  0  0  0  0  0  0
   61.9950   33.7680   50.8500 C   0  0  0  0  0  0  0  0  0  0  0  0
   63.3010   33.5340   50.4170 C   0  0  0  0  0  0  0  0  0  0  0  0
   63.5870   33.4810   49.0510 C   0  0  0  0  0  0  0  0  0  0  0  0
   62.5690   33.6710   48.1090 C   0  0  0  0  0  0  0  0  0  0  0  0
   62.9720   33.5260   46.3990 Cl  0  0  0  0  0  0  0  0  0  0  0  0
   56.9178   27.5950   46.7642 H   0  0  0  0  0  0  0  0  0  0  0  0
   56.4610   26.6932   45.2794 H   0  0  0  0  0  0  0  0  0  0  0  0
   57.9176   27.7444   45.2794 H   0  0  0  0  0  0  0  0  0  0  0  0
   55.5053   29.0539   42.6120 H   0  0  0  0  0  0  0  0  0  0  0  0
   56.3444   30.8996   41.1632 H   0  0  0  0  0  0  0  0  0  0  0  0
   57.8741   32.6323   42.0997 H   0  0  0  0  0  0  0  0  0  0  0  0
   58.5672   32.5237   44.4945 H   0  0  0  0  0  0  0  0  0  0  0  0
   59.2524   30.0785   48.8011 H   0  0  0  0  0  0  0  0  0  0  0  0
   60.4846   31.3051   48.3593 H   0  0  0  0  0  0  0  0  0  0  0  0
   59.2010   35.5520   44.8080 H   0  0  0  0  0  0  0  0  0  0  0  0
   61.7716   33.8030   51.9265 H   0  0  0  0  0  0  0  0  0  0  0  0
   64.1062   33.3911   51.1527 H   0  0  0  0  0  0  0  0  0  0  0  0
   64.6164   33.2892   48.7139 H   0  0  0  0  0  0  0  0  0  0  0  0
  1  2  1  0
  2  3  1  0
  3  4  2  0
  4  5  1  0
  5  6  2  0
  6  7  1  0
  7  8  2  0
  8  9  1  0
  9 10  1  0
 10 11  2  0
 10 12  1  0
 12 13  1  0
 13 14  1  0
 14 15  1  0
 15 16  1  0
 16 17  2  0
 17 18  1  0
 18 19  1  0
 19 20  2  0
 20 21  1  0
 20 22  1  0
 22 23  2  0
 23 24  1  0
 24 25  2  0
 25 26  1  0
  8  3  1  0
 18 14  2  0
 25 19  1  0
  1 27  1  0
  1 28  1  0
  1 29  1  0
  4 30  1  0
  5 31  1  0
  6 32  1  0
  7 33  1  0
 12 34  1  0
 12 35  1  0
 16 36  1  0
 22 37  1  0
 23 38  1  0
 24 39  1  0
M  CHG  2   9  -1  16   1
M  END
>  <UniqueID>  (34) 
31

>  <SMILES>  (34) 
COc1ccccc1[N-]C(=O)CSc1s[nH+]nc1-c1c(F)cccc1Cl

>  <Energy>  (34) 
87.06062410932056

>  <Genealogy>  (34) 
COc1ccccc1[N-]C(=O)CSc1s[nH+]nc1-c1c(F)cccc1Cl (protonated)
COc1ccccc1[N-]C(=O)CSc1s[nH+]nc1-c1c(F)cccc1Cl (3D coordinates assigned)
COc1ccccc1[N-]C(=O)CSc1s[nH+]nc1-c1c(F)cccc1Cl (optimized conformer: 87.06062410932056 kcal/mol)

>  <smiles>  (34) 
COc1ccccc1NC(=O)CSc1snnc1-c1c(F)cccc1Cl

>  <score_type>  (34) 
oracle

>  <origin>  (34) 
adg

>  <m_score__min__energy>  (34) 
-10.01

>  <m_primary>  (34) 
energy

$$$$
34:0
     RDKit          3D

 68 70  0  0  0  0  0  0  0  0999 V2000
   61.4210   34.1810   49.6750 C   0  0  0  0  0  0  0  0  0  0  0  0
   61.4840   32.7850   49.1530 C   0  0  0  0  0  0  0  0  0  0  0  0
   60.9230   31.7240   49.7640 N   0  0  0  0  0  0  0  0  0  0  0  0
   61.1840   30.6600   49.0200 N   0  0  0  0  0  0  0  0  0  0  0  0
   60.7860   29.2980   49.3730 C   0  0  0  0  0  0  0  0  0  0  0  0
   59.3400   28.9940   48.9390 C   0  0  1  0  0  0  0  0  0  0  0  0
   58.4160   30.0170   49.4380 N   0  0  0  0  0  0  0  0  0  0  0  0
   58.0790   30.1380   50.8270 C   0  0  0  0  0  0  0  0  0  0  0  0
   58.5110   29.2940   51.6590 O   0  0  0  0  0  0  0  0  0  0  0  0
   57.2570   31.3070   51.2960 C   0  0  0  0  0  0  0  0  0  0  0  0
   56.8130   31.1340   52.7310 C   0  0  0  0  0  0  0  0  0  0  0  0
   57.7440   31.4370   53.7420 C   0  0  0  0  0  0  0  0  0  0  0  0
   57.4240   31.2520   55.0850 C   0  0  0  0  0  0  0  0  0  0  0  0
   56.1730   30.7590   55.4430 C   0  0  0  0  0  0  0  0  0  0  0  0
   55.2270   30.4680   54.4590 C   0  0  0  0  0  0  0  0  0  0  0  0
   55.5190   30.6660   53.0960 C   0  0  0  0  0  0  0  0  0  0  0  0
   54.4550   30.3650   52.1060 C   0  0  0  0  0  0  0  0  0  0  0  0
   54.3640   29.2040   51.6220 O   0  0  0  0  0  0  0  0  0  0  0  0
   53.4940   31.3630   51.7430 N   0  0  0  0  0  0  0  0  0  0  0  0
   52.1060   31.0720   51.4010 C   0  0  1  0  0  0  0  0  0  0  0  0
   51.4230   30.4060   52.5920 C   0  0  0  0  0  0  0  0  0  0  0  0
   51.3920   32.3410   51.0360 C   0  0  0  0  0  0  0  0  0  0  0  0
   51.0280   33.1430   51.9360 O   0  0  0  0  0  0  0  0  0  0  0  0
   51.1290   32.6380   49.7030 O   0  0  0  0  0  0  0  0  0  0  0  0
   59.2180   28.8640   47.4460 C   0  0  0  0  0  0  0  0  0  0  0  0
   60.0910   28.2400   46.7840 O   0  0  0  0  0  0  0  0  0  0  0  0
   58.1050   29.4700   46.7800 N   0  0  0  0  0  0  0  0  0  0  0  0
   57.9730   29.5450   45.3260 C   0  0  2  0  0  0  0  0  0  0  0  0
   58.9030   30.6280   44.7370 C   0  0  0  0  0  0  0  0  0  0  0  0
   58.7200   31.9820   45.3820 C   0  0  0  0  0  0  0  0  0  0  0  0
   58.3690   33.0990   44.6020 C   0  0  0  0  0  0  0  0  0  0  0  0
   58.2270   34.3570   45.1940 C   0  0  0  0  0  0  0  0  0  0  0  0
   58.4250   34.5100   46.5690 C   0  0  0  0  0  0  0  0  0  0  0  0
   58.7640   33.4040   47.3530 C   0  0  0  0  0  0  0  0  0  0  0  0
   58.9150   32.1450   46.7630 C   0  0  0  0  0  0  0  0  0  0  0  0
   56.5380   29.8010   44.9580 C   0  0  0  0  0  0  0  0  0  0  0  0
   55.5330   28.8260   45.2320 N   0  0  0  0  0  0  0  0  0  0  0  0
   56.2130   30.9000   44.4360 O   0  0  0  0  0  0  0  0  0  0  0  0
   61.9060   31.0170   47.9380 C   0  0  0  0  0  0  0  0  0  0  0  0
   62.1160   32.3750   47.9920 C   0  0  0  0  0  0  0  0  0  0  0  0
   63.0860   33.4390   46.7400 Br  0  0  0  0  0  0  0  0  0  0  0  0
   61.4219   34.1616   50.7748 H   0  0  0  0  0  0  0  0  0  0  0  0
   62.2946   34.7459   49.3175 H   0  0  0  0  0  0  0  0  0  0  0  0
   60.5001   34.6649   49.3175 H   0  0  0  0  0  0  0  0  0  0  0  0
   61.4637   28.5887   48.8753 H   0  0  0  0  0  0  0  0  0  0  0  0
   60.8428   29.1979   50.4670 H   0  0  0  0  0  0  0  0  0  0  0  0
   59.0674   28.0253   49.3831 H   0  0  0  0  0  0  0  0  0  0  0  0
   58.0830   30.7600   48.7820 H   0  0  0  0  0  0  0  0  0  0  0  0
   57.8610   32.2229   51.2170 H   0  0  0  0  0  0  0  0  0  0  0  0
   56.3596   31.3730   50.6633 H   0  0  0  0  0  0  0  0  0  0  0  0
   58.7364   31.8246   53.4683 H   0  0  0  0  0  0  0  0  0  0  0  0
   58.1615   31.4960   55.8638 H   0  0  0  0  0  0  0  0  0  0  0  0
   55.9292   30.5983   56.5035 H   0  0  0  0  0  0  0  0  0  0  0  0
   54.2407   30.0790   54.7521 H   0  0  0  0  0  0  0  0  0  0  0  0
   52.0744   30.3913   50.5375 H   0  0  0  0  0  0  0  0  0  0  0  0
   51.8384   30.8111   53.5265 H   0  0  0  0  0  0  0  0  0  0  0  0
   50.3421   30.6064   52.5540 H   0  0  0  0  0  0  0  0  0  0  0  0
   51.5961   29.3204   52.5540 H   0  0  0  0  0  0  0  0  0  0  0  0
   58.2807   28.5816   44.8933 H   0  0  0  0  0  0  0  0  0  0  0  0
   59.9460   30.3098   44.8812 H   0  0  0  0  0  0  0  0  0  0  0  0
   58.6482   30.7351   43.6723 H   0  0  0  0  0  0  0  0  0  0  0  0
   58.2055   32.9816   43.5206 H   0  0  0  0  0  0  0  0  0  0  0  0
   57.9592   35.2275   44.5772 H   0  0  0  0  0  0  0  0  0  0  0  0
   58.3140   35.5007   47.0339 H   0  0  0  0  0  0  0  0  0  0  0  0
   58.9124   33.5239   48.4363 H   0  0  0  0  0  0  0  0  0  0  0  0
   59.1877   31.2786   47.3835 H   0  0  0  0  0  0  0  0  0  0  0  0
   55.1420   28.2310   44.4670 H   0  0  0  0  0  0  0  0  0  0  0  0
   62.2646   30.3394   47.1492 H   0  0  0  0  0  0  0  0  0  0  0  0
  1  2  1  0
  2  3  2  0
  3  4  1  0
  4  5  1  0
  5  6  1  0
  6  7  1  0
  7  8  1  0
  8  9  2  0
  8 10  1  0
 10 11  1  0
 11 12  2  0
 12 13  1  0
 13 14  2  0
 14 15  1  0
 15 16  2  0
 16 17  1  0
 17 18  2  0
 17 19  1  0
 19 20  1  0
 20 21  1  0
 20 22  1  0
 22 23  2  0
 22 24  1  0
  6 25  1  0
 25 26  2  0
 25 27  1  0
 27 28  1  0
 28 29  1  0
 29 30  1  0
 30 31  2  0
 31 32  1  0
 32 33  2  0
 33 34  1  0
 34 35  2  0
 28 36  1  0
 36 37  1  0
 36 38  2  0
  4 39  1  0
 39 40  2  0
 40 41  1  0
 40  2  1  0
 16 11  1  0
 35 30  1  0
  1 42  1  0
  1 43  1  0
  1 44  1  0
  5 45  1  0
  5 46  1  0
  6 47  1  1
  7 48  1  0
 10 49  1  0
 10 50  1  0
 12 51  1  0
 13 52  1  0
 14 53  1  0
 15 54  1  0
 20 55  1  6
 21 56  1  0
 21 57  1  0
 21 58  1  0
 28 59  1  6
 29 60  1  0
 29 61  1  0
 31 62  1  0
 32 63  1  0
 33 64  1  0
 34 65  1  0
 35 66  1  0
 37 67  1  0
 39 68  1  0
M  CHG  4  19  -1  24  -1  27  -1  37  -1
M  END
>  <UniqueID>  (35) 
32

>  <SMILES>  (35) 
Cc1nn(C[C@@H](NC(=O)Cc2ccccc2C(=O)[N-][C@@H](C)C(=O)[O-])C(=O)[N-]C(Cc2ccccc2)C([NH-])=O)cc1Br

>  <Energy>  (35) 
86.06858559007512

>  <Genealogy>  (35) 
Cc1nn(CC(NC(=O)Cc2ccccc2C(=O)[N-]C(C)C(=O)[O-])C(=O)[N-]C(Cc2ccccc2)C([NH-])=O)cc1Br (protonated)
Cc1nn(C[C@@H](NC(=O)Cc2ccccc2C(=O)[N-][C@@H](C)C(=O)[O-])C(=O)[N-]C(Cc2ccccc2)C([NH-])=O)cc1Br (chirality)
Cc1nn(C[C@@H](NC(=O)Cc2ccccc2C(=O)[N-][C@@H](C)C(=O)[O-])C(=O)[N-]C(Cc2ccccc2)C([NH-])=O)cc1Br (3D coordinates assigned)
Cc1nn(C[C@@H](NC(=O)Cc2ccccc2C(=O)[N-][C@@H](C)C(=O)[O-])C(=O)[N-]C(Cc2ccccc2)C([NH-])=O)cc1Br (optimized conformer: 86.06858559007512 kcal/mol)

>  <smiles>  (35) 
Cc1nn(CC(NC(=O)Cc2ccccc2C(=O)NC(C)C(=O)O)C(=O)NC(Cc2ccccc2)C(N)=O)cc1Br

>  <score_type>  (35) 
oracle

>  <origin>  (35) 
adg

>  <m_score__min__energy>  (35) 
-19.350000000000001

>  <m_primary>  (35) 
energy

$$$$
35:0
     RDKit          3D

 43 45  0  0  0  0  0  0  0  0999 V2000
   59.6210   34.9640   48.4540 C   0  0  0  0  0  0  0  0  0  0  0  0
   60.4010   33.8420   48.8540 O   0  0  0  0  0  0  0  0  0  0  0  0
   60.2780   32.5560   48.3060 C   0  0  0  0  0  0  0  0  0  0  0  0
   61.3620   31.8790   47.7160 C   0  0  0  0  0  0  0  0  0  0  0  0
   61.1890   30.5960   47.1860 C   0  0  0  0  0  0  0  0  0  0  0  0
   59.9340   29.9660   47.2520 C   0  0  0  0  0  0  0  0  0  0  0  0
   59.7080   28.6590   46.7010 N   0  0  0  0  0  0  0  0  0  0  0  0
   58.8800   28.3380   45.5790 C   0  0  0  0  0  0  0  0  0  0  0  0
   59.1250   28.8280   44.4440 O   0  0  0  0  0  0  0  0  0  0  0  0
   57.7790   27.3690   45.7310 C   0  0  0  0  0  0  0  0  0  0  0  0
   56.4150   27.6180   45.6090 C   0  0  0  0  0  0  0  0  0  0  0  0
   55.7740   28.8490   45.2410 N   0  0  0  0  0  0  0  0  0  0  0  0
   56.3900   29.8630   44.4290 C   0  0  0  0  0  0  0  0  0  0  0  0
   56.3200   29.8210   43.0240 C   0  0  0  0  0  0  0  0  0  0  0  0
   56.9240   30.8230   42.2570 C   0  0  0  0  0  0  0  0  0  0  0  0
   57.5880   31.8800   42.8850 C   0  0  0  0  0  0  0  0  0  0  0  0
   57.6440   31.9410   44.2790 C   0  0  0  0  0  0  0  0  0  0  0  0
   58.5440   33.3920   45.1360 Br  0  0  0  0  0  0  0  0  0  0  0  0
   57.0420   30.9390   45.0490 C   0  0  0  0  0  0  0  0  0  0  0  0
   55.7610   26.4550   45.9510 C   0  0  0  0  0  0  0  0  0  0  0  0
   54.3800   26.2910   45.9950 O   0  0  0  0  0  0  0  0  0  0  0  0
   56.6470   25.4830   46.2380 N   0  0  0  0  0  0  0  0  0  0  0  0
   56.3390   24.1440   46.7270 C   0  0  0  0  0  0  0  0  0  0  0  0
   57.8740   26.0380   46.1330 C   0  0  0  0  0  0  0  0  0  0  0  0
   59.0460   25.3510   46.4470 O   0  0  0  0  0  0  0  0  0  0  0  0
   58.8540   30.6520   47.8160 C   0  0  0  0  0  0  0  0  0  0  0  0
   59.0270   31.9340   48.3470 C   0  0  0  0  0  0  0  0  0  0  0  0
   59.2538   35.4922   49.3463 H   0  0  0  0  0  0  0  0  0  0  0  0
   60.2407   35.6460   47.8533 H   0  0  0  0  0  0  0  0  0  0  0  0
   58.7658   34.6207   47.8533 H   0  0  0  0  0  0  0  0  0  0  0  0
   62.3497   32.3611   47.6715 H   0  0  0  0  0  0  0  0  0  0  0  0
   62.0381   30.0782   46.7159 H   0  0  0  0  0  0  0  0  0  0  0  0
   54.7720   28.9720   45.5100 H   0  0  0  0  0  0  0  0  0  0  0  0
   55.7880   28.9966   42.5267 H   0  0  0  0  0  0  0  0  0  0  0  0
   56.8762   30.7788   41.1589 H   0  0  0  0  0  0  0  0  0  0  0  0
   58.0670   32.6646   42.2809 H   0  0  0  0  0  0  0  0  0  0  0  0
   57.0805   30.9958   46.1469 H   0  0  0  0  0  0  0  0  0  0  0  0
   56.3395   24.1462   47.8270 H   0  0  0  0  0  0  0  0  0  0  0  0
   55.3473   23.8392   46.3614 H   0  0  0  0  0  0  0  0  0  0  0  0
   57.0979   23.4366   46.3614 H   0  0  0  0  0  0  0  0  0  0  0  0
   59.9230   25.8240   46.6120 H   0  0  0  0  0  0  0  0  0  0  0  0
   57.8609   30.1797   47.8422 H   0  0  0  0  0  0  0  0  0  0  0  0
   58.1720   32.4569   48.8004 H   0  0  0  0  0  0  0  0  0  0  0  0
  1  2  1  0
  2  3  1  0
  3  4  2  0
  4  5  1  0
  5  6  2  0
  6  7  1  0
  7  8  1  0
  8  9  2  0
  8 10  1  0
 10 11  1  0
 11 12  1  0
 12 13  1  0
 13 14  2  0
 14 15  1  0
 15 16  2  0
 16 17  1  0
 17 18  1  0
 17 19  2  0
 11 20  2  0
 20 21  1  0
 20 22  1  0
 22 23  1  0
 22 24  1  0
 24 25  1  0
  6 26  1  0
 26 27  2  0
 27  3  1  0
 24 10  2  0
 19 13  1  0
  1 28  1  0
  1 29  1  0
  1 30  1  0
  4 31  1  0
  5 32  1  0
 12 33  1  0
 14 34  1  0
 15 35  1  0
 16 36  1  0
 19 37  1  0
 23 38  1  0
 23 39  1  0
 23 40  1  0
 25 41  1  0
 26 42  1  0
 27 43  1  0
M  CHG  2   7  -1  21  -1
M  END
>  <UniqueID>  (36) 
33

>  <SMILES>  (36) 
COc1ccc([N-]C(=O)c2c(Nc3cccc(Br)c3)c([O-])n(C)c2O)cc1

>  <Energy>  (36) 
84.52571487116613

>  <Genealogy>  (36) 
COc1ccc([N-]C(=O)c2c(Nc3cccc(Br)c3)c([O-])n(C)c2O)cc1 (protonated)
COc1ccc([N-]C(=O)c2c(Nc3cccc(Br)c3)c([O-])n(C)c2O)cc1 (3D coordinates assigned)
COc1ccc([N-]C(=O)c2c(Nc3cccc(Br)c3)c([O-])n(C)c2O)cc1 (optimized conformer: 84.52571487116613 kcal/mol)

>  <smiles>  (36) 
COc1ccc(NC(=O)c2c(Nc3cccc(Br)c3)c(O)n(C)c2O)cc1

>  <score_type>  (36) 
oracle

>  <origin>  (36) 
adg

>  <m_score__min__energy>  (36) 
-12.32

>  <m_primary>  (36) 
energy

$$$$
36:0
     RDKit          3D

 24 25  0  0  0  0  0  0  0  0999 V2000
   52.9160   25.3940   45.9570 H   0  0  0  0  0  0  0  0  0  0  0  0
   53.2870   24.4200   45.8810 N   0  0  0  0  0  0  0  0  0  0  0  0
   54.4870   24.1840   45.4610 C   0  0  0  0  0  0  0  0  0  0  0  0
   55.5460   24.8410   46.0050 N   0  0  0  0  0  0  0  0  0  0  0  0
   56.8160   24.6030   45.5800 C   0  0  0  0  0  0  0  0  0  0  0  0
   57.9550   25.3770   46.1740 C   0  0  0  0  0  0  0  0  0  0  0  0
   57.9676   25.2278   47.2638 H   0  0  0  0  0  0  0  0  0  0  0  0
   58.8998   25.0209   45.7375 H   0  0  0  0  0  0  0  0  0  0  0  0
   57.7980   26.8070   45.8810 N   0  0  0  0  0  0  0  0  0  0  0  0
   58.8660   27.6490   46.0310 C   0  0  0  0  0  0  0  0  0  0  0  0
   59.8394   27.2450   46.3462 H   0  0  0  0  0  0  0  0  0  0  0  0
   58.7300   29.0180   45.7870 C   0  0  0  0  0  0  0  0  0  0  0  0
   59.5936   29.6899   45.8997 H   0  0  0  0  0  0  0  0  0  0  0  0
   57.4890   29.5260   45.3990 C   0  0  0  0  0  0  0  0  0  0  0  0
   57.3550   30.7580   45.1770 O   0  0  0  0  0  0  0  0  0  0  0  0
   56.4020   28.6600   45.2610 C   0  0  0  0  0  0  0  0  0  0  0  0
   55.1550   29.1450   44.8800 O   0  0  0  0  0  0  0  0  0  0  0  0
   56.5750   27.2960   45.5120 C   0  0  0  0  0  0  0  0  0  0  0  0
   55.7208   26.6102   45.4120 H   0  0  0  0  0  0  0  0  0  0  0  0
   57.0360   23.6820   44.5480 C   0  0  0  0  0  0  0  0  0  0  0  0
   58.0526   23.4865   44.1762 H   0  0  0  0  0  0  0  0  0  0  0  0
   55.9370   23.0180   44.0020 C   0  0  0  0  0  0  0  0  0  0  0  0
   56.0990   22.1780   43.0780 O   0  0  0  0  0  0  0  0  0  0  0  0
   54.6870   23.2790   44.4670 N   0  0  0  0  0  0  0  0  0  0  0  0
  1  2  1  0
  2  3  2  0
  3  4  1  0
  4  5  1  0
  5  6  1  0
  6  7  1  0
  6  8  1  0
  6  9  1  0
  9 10  1  0
 10 11  1  0
 10 12  2  0
 12 13  1  0
 12 14  1  0
 14 15  2  0
 14 16  1  0
 16 17  1  0
 16 18  2  0
 18 19  1  0
  5 20  2  0
 20 21  1  0
 20 22  1  0
 22 23  2  0
 22 24  1  0
 24  3  1  0
 18  9  1  0
M  CHG  3   4  -1  17  -1  24  -1
M  END
>  <UniqueID>  (37) 
34

>  <SMILES>  (37) 
[H]/N=c1\[n-]c(Cn2ccc(=O)c([O-])c2)cc(=O)[n-]1

>  <Energy>  (37) 
25.591243829225583

>  <Genealogy>  (37) 
N=c1[n-]c(Cn2ccc(=O)c([O-])c2)cc(=O)[n-]1 (protonated)
[H]/N=c1\[n-]c(Cn2ccc(=O)c([O-])c2)cc(=O)[n-]1 (cis-trans isomerization)
[H]/N=c1\[n-]c(Cn2ccc(=O)c([O-])c2)cc(=O)[n-]1 (3D coordinates assigned)
[H]/N=c1\[n-]c(Cn2ccc(=O)c([O-])c2)cc(=O)[n-]1 (optimized conformer: 25.591243829225583 kcal/mol)

>  <smiles>  (37) 
N=c1[nH]c(Cn2ccc(=O)c(O)c2)cc(=O)[nH]1

>  <score_type>  (37) 
oracle

>  <origin>  (37) 
adg

>  <m_score__min__energy>  (37) 
-12.44

>  <m_primary>  (37) 
energy

$$$$
37:0
     RDKit          3D

 46 47  0  0  0  0  0  0  0  0999 V2000
   61.9380   31.2770   47.2460 C   0  0  0  0  0  0  0  0  0  0  0  0
   62.9120   32.1860   47.9930 C   0  0  0  0  0  0  0  0  0  0  0  0
   63.4770   33.2560   47.0530 C   0  0  0  0  0  0  0  0  0  0  0  0
   62.2170   32.8150   49.1140 N   0  0  0  0  0  0  0  0  0  0  0  0
   62.0420   34.2270   49.2470 C   0  0  0  0  0  0  0  0  0  0  0  0
   62.8720   34.9100   49.9070 O   0  0  0  0  0  0  0  0  0  0  0  0
   60.9040   34.8250   48.6900 O   0  0  0  0  0  0  0  0  0  0  0  0
   60.0430   34.2120   47.7690 C   0  0  0  0  0  0  0  0  0  0  0  0
   58.9200   33.4680   48.1750 C   0  0  0  0  0  0  0  0  0  0  0  0
   58.0850   32.8760   47.2230 C   0  0  0  0  0  0  0  0  0  0  0  0
   58.3530   33.0260   45.8530 C   0  0  0  0  0  0  0  0  0  0  0  0
   57.4900   32.3350   44.8330 C   0  0  0  0  0  0  0  0  0  0  0  0
   57.3920   30.8760   45.1600 C   0  0  0  0  0  0  0  0  0  0  0  0
   56.4040   30.2130   44.7420 O   0  0  0  0  0  0  0  0  0  0  0  0
   58.4280   30.2420   45.9230 N   0  0  0  0  0  0  0  0  0  0  0  0
   58.6180   28.8190   45.9910 C   0  0  0  0  0  0  0  0  0  0  0  0
   59.9200   28.2950   45.9510 C   0  0  0  0  0  0  0  0  0  0  0  0
   60.1280   26.9140   45.9830 C   0  0  0  0  0  0  0  0  0  0  0  0
   59.0380   26.0420   46.0420 C   0  0  0  0  0  0  0  0  0  0  0  0
   57.7310   26.5490   46.0730 C   0  0  0  0  0  0  0  0  0  0  0  0
   56.3610   25.4420   46.1200 S   0  0  0  0  0  0  0  0  0  0  0  0
   54.8910   26.3420   45.9780 N   0  0  0  0  0  0  0  0  0  0  0  0
   56.4650   24.4630   44.9850 O   0  0  0  0  0  0  0  0  0  0  0  0
   56.3580   24.6810   47.4170 O   0  0  0  0  0  0  0  0  0  0  0  0
   57.5220   27.9350   46.0350 C   0  0  0  0  0  0  0  0  0  0  0  0
   59.4670   33.7790   45.4490 C   0  0  0  0  0  0  0  0  0  0  0  0
   60.2960   34.3780   46.4020 C   0  0  0  0  0  0  0  0  0  0  0  0
   61.3334   30.7127   47.9713 H   0  0  0  0  0  0  0  0  0  0  0  0
   61.2768   31.8884   46.6144 H   0  0  0  0  0  0  0  0  0  0  0  0
   62.5024   30.5752   46.6144 H   0  0  0  0  0  0  0  0  0  0  0  0
   63.7516   31.5843   48.3712 H   0  0  0  0  0  0  0  0  0  0  0  0
   63.9093   34.0747   47.6471 H   0  0  0  0  0  0  0  0  0  0  0  0
   64.2579   32.8114   46.4186 H   0  0  0  0  0  0  0  0  0  0  0  0
   62.6694   33.6501   46.4186 H   0  0  0  0  0  0  0  0  0  0  0  0
   58.6981   33.3517   49.2461 H   0  0  0  0  0  0  0  0  0  0  0  0
   57.2133   32.2895   47.5489 H   0  0  0  0  0  0  0  0  0  0  0  0
   56.4842   32.7804   44.8429 H   0  0  0  0  0  0  0  0  0  0  0  0
   57.9374   32.4556   43.8354 H   0  0  0  0  0  0  0  0  0  0  0  0
   59.0480   30.8480   46.5070 H   0  0  0  0  0  0  0  0  0  0  0  0
   60.7818   28.9763   45.8941 H   0  0  0  0  0  0  0  0  0  0  0  0
   61.1518   26.5124   45.9617 H   0  0  0  0  0  0  0  0  0  0  0  0
   59.2055   24.9551   46.0642 H   0  0  0  0  0  0  0  0  0  0  0  0
   55.1520   27.3540   46.0150 H   0  0  0  0  0  0  0  0  0  0  0  0
   56.4970   28.3341   46.0396 H   0  0  0  0  0  0  0  0  0  0  0  0
   59.6884   33.8981   44.3781 H   0  0  0  0  0  0  0  0  0  0  0  0
   61.1537   34.9844   46.0754 H   0  0  0  0  0  0  0  0  0  0  0  0
  1  2  1  0
  2  3  1  0
  2  4  1  0
  4  5  1  0
  5  6  2  0
  5  7  1  0
  7  8  1  0
  8  9  2  0
  9 10  1  0
 10 11  2  0
 11 12  1  0
 12 13  1  0
 13 14  2  0
 13 15  1  0
 15 16  1  0
 16 17  2  0
 17 18  1  0
 18 19  2  0
 19 20  1  0
 20 21  1  0
 21 22  1  0
 21 23  2  0
 21 24  2  0
 20 25  2  0
 11 26  1  0
 26 27  2  0
 27  8  1  0
 25 16  1  0
  1 28  1  0
  1 29  1  0
  1 30  1  0
  2 31  1  0
  3 32  1  0
  3 33  1  0
  3 34  1  0
  9 35  1  0
 10 36  1  0
 12 37  1  0
 12 38  1  0
 15 39  1  0
 17 40  1  0
 18 41  1  0
 19 42  1  0
 22 43  1  0
 25 44  1  0
 26 45  1  0
 27 46  1  0
M  CHG  2   4  -1  22  -1
M  END
>  <UniqueID>  (38) 
35

>  <SMILES>  (38) 
CC(C)[N-]C(=O)Oc1ccc(CC(=O)Nc2cccc(S([NH-])(=O)=O)c2)cc1

>  <Energy>  (38) 
44.992875031365095

>  <Genealogy>  (38) 
CC(C)[N-]C(=O)Oc1ccc(CC(=O)Nc2cccc(S([NH-])(=O)=O)c2)cc1 (protonated)
CC(C)[N-]C(=O)Oc1ccc(CC(=O)Nc2cccc(S([NH-])(=O)=O)c2)cc1 (3D coordinates assigned)
CC(C)[N-]C(=O)Oc1ccc(CC(=O)Nc2cccc(S([NH-])(=O)=O)c2)cc1 (optimized conformer: 44.992875031365095 kcal/mol)

>  <smiles>  (38) 
CC(C)NC(=O)Oc1ccc(CC(=O)Nc2cccc(S(N)(=O)=O)c2)cc1

>  <score_type>  (38) 
oracle

>  <origin>  (38) 
adg

>  <m_score__min__energy>  (38) 
-12.51

>  <m_primary>  (38) 
energy

$$$$
38:0
     RDKit          3D

 44 47  0  0  1  0  0  0  0  0999 V2000
   56.4690   22.5740   43.3120 C   0  0  0  0  0  0  0  0  0  0  0  0
   55.6520   23.4730   44.1710 C   0  0  0  0  0  0  0  0  0  0  0  0
   56.3310   24.4220   44.9300 C   0  0  0  0  0  0  0  0  0  0  0  0
   55.5430   25.2420   45.7170 C   0  0  0  0  0  0  0  0  0  0  0  0
   56.1250   26.1270   46.4290 N   0  0  0  0  0  0  0  0  0  0  0  0
   57.7930   26.5430   46.2730 S   0  0  0  0  0  0  0  0  0  0  0  0
   58.4910   25.6960   45.2570 O   0  0  0  0  0  0  0  0  0  0  0  0
   58.5070   26.5410   47.6140 O   0  0  0  0  0  0  0  0  0  0  0  0
   57.8340   28.2280   45.7750 C   0  0  0  0  0  0  0  0  0  0  0  0
   57.3590   28.8280   44.6560 C   0  0  0  0  0  0  0  0  0  0  0  0
   57.5300   30.1600   44.5300 C   0  0  0  0  0  0  0  0  0  0  0  0
   57.1200   30.9870   43.4570 C   0  0  0  0  0  0  0  0  0  0  0  0
   56.5190   30.5320   42.4590 O   0  0  0  0  0  0  0  0  0  0  0  0
   57.3790   32.2840   43.5120 N   0  0  0  0  0  0  0  0  0  0  0  0
   58.0100   32.9190   44.5060 C   0  0  0  0  0  0  0  0  0  0  0  0
   58.2420   34.1530   44.5280 O   0  0  0  0  0  0  0  0  0  0  0  0
   58.4150   32.1470   45.5470 N   0  0  0  0  0  0  0  0  0  0  0  0
   59.0800   32.7340   46.6240 C   0  0  0  0  0  0  0  0  0  0  0  0
   60.3690   33.2330   46.4230 C   0  0  0  0  0  0  0  0  0  0  0  0
   61.0710   33.8260   47.4610 C   0  0  0  0  0  0  0  0  0  0  0  0
   60.5080   33.9360   48.7280 C   0  0  0  0  0  0  0  0  0  0  0  0
   59.2330   33.4430   48.9310 C   0  0  0  0  0  0  0  0  0  0  0  0
   58.5160   32.8440   47.8900 C   0  0  0  0  0  0  0  0  0  0  0  0
   58.1670   30.8120   45.5290 C   0  0  0  0  0  0  0  0  0  0  0  0
   58.5700   29.5440   46.7370 S   0  0  0  0  0  0  0  0  0  0  0  0
   54.2020   25.1440   45.7600 N   0  0  0  0  0  0  0  0  0  0  0  0
   53.5720   24.2180   45.0170 C   0  0  0  0  0  0  0  0  0  0  0  0
   52.1060   24.0860   45.0440 C   0  0  0  0  0  0  0  0  0  0  0  0
   54.3090   23.4030   44.2380 N   0  0  0  0  0  0  0  0  0  0  0  0
   57.0731   21.9093   43.9471 H   0  0  0  0  0  0  0  0  0  0  0  0
   55.8043   21.9700   42.6769 H   0  0  0  0  0  0  0  0  0  0  0  0
   57.1337   23.1781   42.6769 H   0  0  0  0  0  0  0  0  0  0  0  0
   57.4269   24.5141   44.9053 H   0  0  0  0  0  0  0  0  0  0  0  0
   56.8493   28.2459   43.8741 H   0  0  0  0  0  0  0  0  0  0  0  0
   57.0670   32.8980   42.7040 H   0  0  0  0  0  0  0  0  0  0  0  0
   60.8329   33.1545   45.4287 H   0  0  0  0  0  0  0  0  0  0  0  0
   62.0844   34.2138   47.2806 H   0  0  0  0  0  0  0  0  0  0  0  0
   61.0660   34.4057   49.5514 H   0  0  0  0  0  0  0  0  0  0  0  0
   58.7744   33.5230   49.9277 H   0  0  0  0  0  0  0  0  0  0  0  0
   57.5022   32.4586   48.0737 H   0  0  0  0  0  0  0  0  0  0  0  0
   53.6440   25.7840   46.3700 H   0  0  0  0  0  0  0  0  0  0  0  0
   51.7598   24.0548   46.0876 H   0  0  0  0  0  0  0  0  0  0  0  0
   51.6509   24.9468   44.5323 H   0  0  0  0  0  0  0  0  0  0  0  0
   51.8119   23.1577   44.5323 H   0  0  0  0  0  0  0  0  0  0  0  0
  1  2  1  0
  2  3  2  0
  3  4  1  0
  4  5  2  0
  5  6  1  0
  6  7  2  0
  6  8  2  0
  6  9  1  0
  9 10  2  0
 10 11  1  0
 11 12  1  0
 12 13  2  0
 12 14  1  0
 14 15  1  0
 15 16  2  0
 15 17  1  0
 17 18  1  0
 18 19  2  0
 19 20  1  0
 20 21  2  0
 21 22  1  0
 22 23  2  0
 17 24  1  0
 24 25  1  0
  4 26  1  0
 26 27  1  0
 27 28  1  0
 27 29  2  0
 29  2  1  0
 25  9  1  0
 24 11  2  0
 23 18  1  0
  1 30  1  0
  1 31  1  0
  1 32  1  0
  3 33  1  0
 10 34  1  0
 14 35  1  0
 19 36  1  0
 20 37  1  0
 21 38  1  0
 22 39  1  0
 23 40  1  0
 26 41  1  0
 28 42  1  0
 28 43  1  0
 28 44  1  0
M  END
>  <smiles>  (39) 
Cc1cc(=NS(=O)(=O)c2cc3c(=O)[nH]c(=O)n(-c4ccccc4)c3s2)[nH]c(C)n1

>  <score_type>  (39) 
oracle

>  <origin>  (39) 
adg

>  <m_score__min__energy>  (39) 
-9.1699999999999999

>  <m_primary>  (39) 
energy

$$$$
39:0
     RDKit          3D

 28 28  0  0  0  0  0  0  0  0999 V2000
   57.7570   32.3200   41.7710 C   0  0  0  0  0  0  0  0  0  0  0  0
   57.0530   31.2560   42.6070 C   0  0  0  0  0  0  0  0  0  0  0  0
   57.1150   31.5900   43.9810 O   0  0  0  0  0  0  0  0  0  0  0  0
   57.1130   30.4320   44.7990 C   0  0  1  0  0  0  0  0  0  0  0  0
   55.7920   30.0480   45.0740 O   0  0  0  0  0  0  0  0  0  0  0  0
   57.8280   29.3000   44.0550 C   0  0  0  0  0  0  0  0  0  0  0  0
   57.2780   27.9940   44.4230 N   0  0  0  0  0  0  0  0  0  0  0  0
   57.0610   27.6010   45.7890 C   0  0  0  0  0  0  0  0  0  0  0  0
   57.4230   28.3630   46.7260 O   0  0  0  0  0  0  0  0  0  0  0  0
   56.4180   26.3060   46.1040 C   0  0  0  0  0  0  0  0  0  0  0  0
   57.0970   25.3180   46.8310 C   0  0  0  0  0  0  0  0  0  0  0  0
   56.4420   24.1150   47.1020 C   0  0  0  0  0  0  0  0  0  0  0  0
   57.0240   23.2080   47.7530 O   0  0  0  0  0  0  0  0  0  0  0  0
   55.1710   23.9220   46.6610 N   0  0  0  0  0  0  0  0  0  0  0  0
   54.5240   24.8860   45.9590 C   0  0  0  0  0  0  0  0  0  0  0  0
   53.3470   24.6900   45.5590 O   0  0  0  0  0  0  0  0  0  0  0  0
   55.1460   26.0630   45.6850 N   0  0  0  0  0  0  0  0  0  0  0  0
   58.2399   33.0498   42.4375 H   0  0  0  0  0  0  0  0  0  0  0  0
   58.5184   31.8432   41.1363 H   0  0  0  0  0  0  0  0  0  0  0  0
   57.0204   32.8344   41.1363 H   0  0  0  0  0  0  0  0  0  0  0  0
   55.9997   31.1892   42.2970 H   0  0  0  0  0  0  0  0  0  0  0  0
   57.5539   30.2892   42.4509 H   0  0  0  0  0  0  0  0  0  0  0  0
   57.6302   30.6461   45.7459 H   0  0  0  0  0  0  0  0  0  0  0  0
   55.7790   29.7080   46.0050 H   0  0  0  0  0  0  0  0  0  0  0  0
   57.7052   29.4488   42.9720 H   0  0  0  0  0  0  0  0  0  0  0  0
   58.8926   29.3198   44.3311 H   0  0  0  0  0  0  0  0  0  0  0  0
   57.0710   27.3200   43.6530 H   0  0  0  0  0  0  0  0  0  0  0  0
   58.1259   25.4873   47.1812 H   0  0  0  0  0  0  0  0  0  0  0  0
  1  2  1  0
  2  3  1  0
  3  4  1  0
  4  5  1  0
  4  6  1  0
  6  7  1  0
  7  8  1  0
  8  9  2  0
  8 10  1  0
 10 11  2  0
 11 12  1  0
 12 13  2  0
 12 14  1  0
 14 15  1  0
 15 16  2  0
 15 17  1  0
 17 10  1  0
  1 18  1  0
  1 19  1  0
  1 20  1  0
  2 21  1  0
  2 22  1  0
  4 23  1  1
  5 24  1  0
  6 25  1  0
  6 26  1  0
  7 27  1  0
 11 28  1  0
M  CHG  2  14  -1  17  -1
M  END
>  <UniqueID>  (40) 
36

>  <SMILES>  (40) 
CCO[C@@H](O)CNC(=O)c1cc(=O)[n-]c(=O)[n-]1

>  <Energy>  (40) 
25.094074795187716

>  <Genealogy>  (40) 
CCOC(O)CNC(=O)c1cc(=O)[n-]c(=O)[n-]1 (protonated)
CCO[C@@H](O)CNC(=O)c1cc(=O)[n-]c(=O)[n-]1 (chirality)
CCO[C@@H](O)CNC(=O)c1cc(=O)[n-]c(=O)[n-]1 (3D coordinates assigned)
CCO[C@@H](O)CNC(=O)c1cc(=O)[n-]c(=O)[n-]1 (optimized conformer: 25.094074795187716 kcal/mol)

>  <smiles>  (40) 
CCOC(O)CNC(=O)c1cc(=O)[nH]c(=O)[nH]1

>  <score_type>  (40) 
oracle

>  <origin>  (40) 
adg

>  <m_score__min__energy>  (40) 
-10.289999999999999

>  <m_primary>  (40) 
energy

$$$$
40:0
     RDKit          3D

 45 47  0  0  0  0  0  0  0  0999 V2000
   54.7960   26.1830   45.9950 N   0  0  0  0  0  0  0  0  0  0  0  0
   56.3330   25.4540   46.3000 S   0  0  0  0  0  0  0  0  0  0  0  0
   56.6770   24.5180   45.1750 O   0  0  0  0  0  0  0  0  0  0  0  0
   56.2680   24.6660   47.5790 O   0  0  0  0  0  0  0  0  0  0  0  0
   57.5640   26.7080   46.4350 C   0  0  0  0  0  0  0  0  0  0  0  0
   57.4570   27.8830   45.6780 C   0  0  0  0  0  0  0  0  0  0  0  0
   58.4390   28.8720   45.7810 C   0  0  0  0  0  0  0  0  0  0  0  0
   59.5200   28.7010   46.6480 C   0  0  0  0  0  0  0  0  0  0  0  0
   59.6240   27.5460   47.4320 C   0  0  0  0  0  0  0  0  0  0  0  0
   60.7670   27.3940   48.2840 N   0  0  0  0  0  0  0  0  0  0  0  0
   60.7540   27.0820   49.6820 C   0  0  0  0  0  0  0  0  0  0  0  0
   60.3220   25.9730   50.0920 O   0  0  0  0  0  0  0  0  0  0  0  0
   61.2400   28.0970   50.6710 C   0  0  0  0  0  0  0  0  0  0  0  0
   60.1830   29.0700   50.9690 N   0  0  0  0  0  0  0  0  0  0  0  0
   59.9000   29.9920   50.0420 N   0  0  0  0  0  0  0  0  0  0  0  0
   58.9550   30.9530   50.2320 C   0  0  0  0  0  0  0  0  0  0  0  0
   58.6860   31.9400   49.1650 C   0  0  0  0  0  0  0  0  0  0  0  0
   57.6440   32.6490   49.2200 O   0  0  0  0  0  0  0  0  0  0  0  0
   59.6230   32.1180   48.0880 N   0  0  0  0  0  0  0  0  0  0  0  0
   59.3390   32.8600   46.8890 C   0  0  0  0  0  0  0  0  0  0  0  0
   59.6820   34.2210   46.8250 C   0  0  0  0  0  0  0  0  0  0  0  0
   59.4350   34.9590   45.6640 C   0  0  0  0  0  0  0  0  0  0  0  0
   58.8570   34.3440   44.5510 C   0  0  0  0  0  0  0  0  0  0  0  0
   58.5320   32.9850   44.5940 C   0  0  0  0  0  0  0  0  0  0  0  0
   57.8280   32.2080   43.1890 Cl  0  0  0  0  0  0  0  0  0  0  0  0
   58.7790   32.2420   45.7560 C   0  0  0  0  0  0  0  0  0  0  0  0
   58.2570   30.9810   51.4430 C   0  0  0  0  0  0  0  0  0  0  0  0
   58.5500   30.0360   52.4200 C   0  0  0  0  0  0  0  0  0  0  0  0
   59.5310   29.0770   52.1740 C   0  0  0  0  0  0  0  0  0  0  0  0
   59.8080   28.2310   53.0680 O   0  0  0  0  0  0  0  0  0  0  0  0
   58.6470   26.5400   47.3090 C   0  0  0  0  0  0  0  0  0  0  0  0
   54.7810   27.0880   46.5150 H   0  0  0  0  0  0  0  0  0  0  0  0
   56.6003   28.0265   45.0031 H   0  0  0  0  0  0  0  0  0  0  0  0
   58.3601   29.7880   45.1771 H   0  0  0  0  0  0  0  0  0  0  0  0
   60.2949   29.4789   46.7154 H   0  0  0  0  0  0  0  0  0  0  0  0
   61.5340   27.5859   51.5996 H   0  0  0  0  0  0  0  0  0  0  0  0
   62.1023   28.6282   50.2416 H   0  0  0  0  0  0  0  0  0  0  0  0
   60.6010   31.7740   48.2230 H   0  0  0  0  0  0  0  0  0  0  0  0
   60.1478   34.7087   47.6940 H   0  0  0  0  0  0  0  0  0  0  0  0
   59.6965   36.0268   45.6267 H   0  0  0  0  0  0  0  0  0  0  0  0
   58.6576   34.9288   43.6409 H   0  0  0  0  0  0  0  0  0  0  0  0
   58.5338   31.1700   45.7825 H   0  0  0  0  0  0  0  0  0  0  0  0
   57.4838   31.7429   51.6211 H   0  0  0  0  0  0  0  0  0  0  0  0
   58.0119   30.0452   53.3793 H   0  0  0  0  0  0  0  0  0  0  0  0
   58.7339   25.6174   47.9017 H   0  0  0  0  0  0  0  0  0  0  0  0
  1  2  1  0
  2  3  2  0
  2  4  2  0
  2  5  1  0
  5  6  2  0
  6  7  1  0
  7  8  2  0
  8  9  1  0
  9 10  1  0
 10 11  1  0
 11 12  2  0
 11 13  1  0
 13 14  1  0
 14 15  1  0
 15 16  2  0
 16 17  1  0
 17 18  2  0
 17 19  1  0
 19 20  1  0
 20 21  2  0
 21 22  1  0
 22 23  2  0
 23 24  1  0
 24 25  1  0
 24 26  2  0
 16 27  1  0
 27 28  2  0
 28 29  1  0
 29 30  2  0
  9 31  2  0
 31  5  1  0
 29 14  1  0
 26 20  1  0
  1 32  1  0
  6 33  1  0
  7 34  1  0
  8 35  1  0
 13 36  1  0
 13 37  1  0
 19 38  1  0
 21 39  1  0
 22 40  1  0
 23 41  1  0
 26 42  1  0
 27 43  1  0
 28 44  1  0
 31 45  1  0
M  CHG  2   1  -1  10  -1
M  END
>  <UniqueID>  (41) 
37

>  <SMILES>  (41) 
[NH-]S(=O)(=O)c1cccc([N-]C(=O)Cn2nc(C(=O)Nc3cccc(Cl)c3)ccc2=O)c1

>  <Energy>  (41) 
55.12475521677897

>  <Genealogy>  (41) 
[NH-]S(=O)(=O)c1cccc([N-]C(=O)Cn2nc(C(=O)Nc3cccc(Cl)c3)ccc2=O)c1 (protonated)
[NH-]S(=O)(=O)c1cccc([N-]C(=O)Cn2nc(C(=O)Nc3cccc(Cl)c3)ccc2=O)c1 (3D coordinates assigned)
[NH-]S(=O)(=O)c1cccc([N-]C(=O)Cn2nc(C(=O)Nc3cccc(Cl)c3)ccc2=O)c1 (optimized conformer: 55.12475521677897 kcal/mol)

>  <smiles>  (41) 
NS(=O)(=O)c1cccc(NC(=O)Cn2nc(C(=O)Nc3cccc(Cl)c3)ccc2=O)c1

>  <score_type>  (41) 
oracle

>  <origin>  (41) 
adg

>  <m_score__min__energy>  (41) 
-13.609999999999999

>  <m_primary>  (41) 
energy

$$$$
41:0
     RDKit          3D

 49 52  0  0  0  0  0  0  0  0999 V2000
   60.3280   30.5580   50.9090 N   0  0  0  0  0  0  0  0  0  0  0  0
   61.1140   29.5610   49.7340 S   0  0  0  0  0  0  0  0  0  0  0  0
   62.0750   30.4100   48.9480 O   0  0  0  0  0  0  0  0  0  0  0  0
   61.8680   28.4680   50.4350 O   0  0  0  0  0  0  0  0  0  0  0  0
   59.9280   28.8480   48.6450 C   0  0  0  0  0  0  0  0  0  0  0  0
   59.8670   27.4560   48.4890 C   0  0  0  0  0  0  0  0  0  0  0  0
   58.9240   26.8870   47.6300 C   0  0  0  0  0  0  0  0  0  0  0  0
   58.0430   27.7030   46.9050 C   0  0  0  0  0  0  0  0  0  0  0  0
   57.0830   27.0940   45.9660 C   0  0  0  0  0  0  0  0  0  0  0  0
   55.9680   26.7060   46.3990 O   0  0  0  0  0  0  0  0  0  0  0  0
   57.4030   26.8760   44.5850 N   0  0  0  0  0  0  0  0  0  0  0  0
   57.9720   27.8700   43.6770 C   0  0  0  0  0  0  0  0  0  0  0  0
   57.6060   29.2580   44.1130 C   0  0  0  0  0  0  0  0  0  0  0  0
   58.4930   30.2530   44.2870 N   0  0  0  0  0  0  0  0  0  0  0  0
   57.7440   31.2840   44.7440 C   0  0  0  0  0  0  0  0  0  0  0  0
   58.3200   32.5930   45.1230 C   0  0  0  0  0  0  0  0  0  0  0  0
   58.7000   33.5150   44.1320 C   0  0  0  0  0  0  0  0  0  0  0  0
   59.2670   34.7400   44.4880 C   0  0  0  0  0  0  0  0  0  0  0  0
   59.4660   35.0580   45.8330 C   0  0  0  0  0  0  0  0  0  0  0  0
   59.1030   34.1430   46.8360 C   0  0  0  0  0  0  0  0  0  0  0  0
   59.2750   34.4520   48.2250 N   0  0  0  0  0  0  0  0  0  0  0  0
   60.2400   33.8490   49.0970 C   0  0  0  0  0  0  0  0  0  0  0  0
   59.9010   33.5750   50.2770 O   0  0  0  0  0  0  0  0  0  0  0  0
   61.5920   33.4880   48.6280 C   0  0  0  0  0  0  0  0  0  0  0  0
   61.9040   32.9570   47.3800 C   0  0  0  0  0  0  0  0  0  0  0  0
   63.2790   32.7770   47.1790 C   0  0  0  0  0  0  0  0  0  0  0  0
   64.0590   33.1740   48.2580 C   0  0  0  0  0  0  0  0  0  0  0  0
   63.0340   33.7480   49.4610 S   0  0  0  0  0  0  0  0  0  0  0  0
   58.5150   32.9230   46.4770 C   0  0  0  0  0  0  0  0  0  0  0  0
   56.4280   30.9880   44.8660 N   0  0  0  0  0  0  0  0  0  0  0  0
   56.3580   29.7090   44.4640 C   0  0  0  0  0  0  0  0  0  0  0  0
   55.1860   28.9630   44.4370 O   0  0  0  0  0  0  0  0  0  0  0  0
   58.0890   29.0930   47.0810 C   0  0  0  0  0  0  0  0  0  0  0  0
   59.0280   29.6640   47.9460 C   0  0  0  0  0  0  0  0  0  0  0  0
   59.9820   31.4090   50.4110 H   0  0  0  0  0  0  0  0  0  0  0  0
   60.5634   26.8105   49.0444 H   0  0  0  0  0  0  0  0  0  0  0  0
   58.8720   25.7936   47.5215 H   0  0  0  0  0  0  0  0  0  0  0  0
   59.0674   27.7700   43.6728 H   0  0  0  0  0  0  0  0  0  0  0  0
   57.5691   27.6987   42.6679 H   0  0  0  0  0  0  0  0  0  0  0  0
   58.5497   33.2698   43.0703 H   0  0  0  0  0  0  0  0  0  0  0  0
   59.5580   35.4572   43.7063 H   0  0  0  0  0  0  0  0  0  0  0  0
   59.9079   36.0270   46.1081 H   0  0  0  0  0  0  0  0  0  0  0  0
   61.1452   32.7034   46.6250 H   0  0  0  0  0  0  0  0  0  0  0  0
   63.7016   32.3601   46.2529 H   0  0  0  0  0  0  0  0  0  0  0  0
   65.1563   33.1219   48.3153 H   0  0  0  0  0  0  0  0  0  0  0  0
   58.2030   32.2168   47.2606 H   0  0  0  0  0  0  0  0  0  0  0  0
   55.1490   28.0430   44.8570 H   0  0  0  0  0  0  0  0  0  0  0  0
   57.3834   29.7375   46.5363 H   0  0  0  0  0  0  0  0  0  0  0  0
   59.0603   30.7556   48.0780 H   0  0  0  0  0  0  0  0  0  0  0  0
  1  2  1  0
  2  3  2  0
  2  4  2  0
  2  5  1  0
  5  6  2  0
  6  7  1  0
  7  8  2  0
  8  9  1  0
  9 10  2  0
  9 11  1  0
 11 12  1  0
 12 13  1  0
 13 14  1  0
 14 15  2  0
 15 16  1  0
 16 17  2  0
 17 18  1  0
 18 19  2  0
 19 20  1  0
 20 21  1  0
 21 22  1  0
 22 23  2  0
 22 24  1  0
 24 25  2  0
 25 26  1  0
 26 27  2  0
 27 28  1  0
 20 29  2  0
 15 30  1  0
 30 31  1  0
 31 32  1  0
  8 33  1  0
 33 34  2  0
 34  5  1  0
 31 13  2  0
 29 16  1  0
 28 24  1  0
  1 35  1  0
  6 36  1  0
  7 37  1  0
 12 38  1  0
 12 39  1  0
 17 40  1  0
 18 41  1  0
 19 42  1  0
 25 43  1  0
 26 44  1  0
 27 45  1  0
 29 46  1  0
 32 47  1  0
 33 48  1  0
 34 49  1  0
M  CHG  4   1  -1  11  -1  21  -1  30  -1
M  END
>  <UniqueID>  (42) 
38

>  <SMILES>  (42) 
[NH-]S(=O)(=O)c1ccc(C(=O)[N-]Cc2nc(-c3cccc([N-]C(=O)c4cccs4)c3)[n-]c2O)cc1

>  <Energy>  (42) 
114.58449898179275

>  <Genealogy>  (42) 
[NH-]S(=O)(=O)c1ccc(C(=O)[N-]Cc2nc(-c3cccc([N-]C(=O)c4cccs4)c3)[n-]c2O)cc1 (protonated)
[NH-]S(=O)(=O)c1ccc(C(=O)[N-]Cc2nc(-c3cccc([N-]C(=O)c4cccs4)c3)[n-]c2O)cc1 (3D coordinates assigned)
[NH-]S(=O)(=O)c1ccc(C(=O)[N-]Cc2nc(-c3cccc([N-]C(=O)c4cccs4)c3)[n-]c2O)cc1 (optimized conformer: 114.58449898179275 kcal/mol)

>  <smiles>  (42) 
NS(=O)(=O)c1ccc(C(=O)NCc2nc(-c3cccc(NC(=O)c4cccs4)c3)[nH]c2O)cc1

>  <score_type>  (42) 
oracle

>  <origin>  (42) 
adg

>  <m_score__min__energy>  (42) 
-15.16

>  <m_primary>  (42) 
energy

$$$$
42:0
     RDKit          3D

 59 62  0  0  0  0  0  0  0  0999 V2000
   60.3910   33.8280   53.6090 C   0  0  0  0  0  0  0  0  0  0  0  0
   60.0830   33.5060   52.2120 C   0  0  0  0  0  0  0  0  0  0  0  0
   59.3230   34.2320   51.5180 O   0  0  0  0  0  0  0  0  0  0  0  0
   60.6550   32.3460   51.6210 N   0  0  0  0  0  0  0  0  0  0  0  0
   59.8780   31.1970   51.2020 C   0  0  0  0  0  0  0  0  0  0  0  0
   58.7850   31.5510   50.2460 C   0  0  0  0  0  0  0  0  0  0  0  0
   59.2000   31.4060   48.8070 C   0  0  0  0  0  0  0  0  0  0  0  0
   59.3830   30.1530   48.2470 C   0  0  0  0  0  0  0  0  0  0  0  0
   59.7500   30.0560   46.9150 C   0  0  0  0  0  0  0  0  0  0  0  0
   59.9410   28.6860   46.3260 C   0  0  0  0  0  0  0  0  0  0  0  0
   58.6380   27.9760   46.2090 C   0  0  0  0  0  0  0  0  0  0  0  0
   58.3630   26.9260   47.0590 C   0  0  0  0  0  0  0  0  0  0  0  0
   57.2190   26.2590   47.0010 N   0  0  0  0  0  0  0  0  0  0  0  0
   56.3110   26.6320   46.0750 C   0  0  0  0  0  0  0  0  0  0  0  0
   55.2100   25.9800   46.0300 N   0  0  0  0  0  0  0  0  0  0  0  0
   56.5170   27.6470   45.2170 N   0  0  0  0  0  0  0  0  0  0  0  0
   57.6780   28.3220   45.2790 C   0  0  0  0  0  0  0  0  0  0  0  0
   57.8930   29.2980   44.4630 N   0  0  0  0  0  0  0  0  0  0  0  0
   59.9470   31.1630   46.1140 C   0  0  0  0  0  0  0  0  0  0  0  0
   59.7610   32.4030   46.6910 C   0  0  0  0  0  0  0  0  0  0  0  0
   59.9600   33.5150   45.8900 C   0  0  0  0  0  0  0  0  0  0  0  0
   59.8000   34.7950   46.3890 C   0  0  0  0  0  0  0  0  0  0  0  0
   59.4340   34.9100   47.7130 C   0  0  0  0  0  0  0  0  0  0  0  0
   59.2340   33.7970   48.5150 C   0  0  0  0  0  0  0  0  0  0  0  0
   59.3950   32.5210   48.0150 C   0  0  0  0  0  0  0  0  0  0  0  0
   62.1040   32.2630   51.3990 C   0  0  0  0  0  0  0  0  0  0  0  0
   62.4810   32.5910   50.0060 C   0  0  0  0  0  0  0  0  0  0  0  0
   62.6230   33.8830   49.5440 C   0  0  0  0  0  0  0  0  0  0  0  0
   62.9740   34.1860   48.2450 C   0  0  0  0  0  0  0  0  0  0  0  0
   63.1930   33.1500   47.3660 C   0  0  0  0  0  0  0  0  0  0  0  0
   63.0670   31.8570   47.7660 C   0  0  0  0  0  0  0  0  0  0  0  0
   62.7140   31.5830   49.0750 C   0  0  0  0  0  0  0  0  0  0  0  0
   59.7851   33.1945   54.2735 H   0  0  0  0  0  0  0  0  0  0  0  0
   61.4585   33.6447   53.8008 H   0  0  0  0  0  0  0  0  0  0  0  0
   60.1605   34.8863   53.8008 H   0  0  0  0  0  0  0  0  0  0  0  0
   60.5514   30.4770   50.7141 H   0  0  0  0  0  0  0  0  0  0  0  0
   59.4060   30.7724   52.1003 H   0  0  0  0  0  0  0  0  0  0  0  0
   57.9266   30.8890   50.4327 H   0  0  0  0  0  0  0  0  0  0  0  0
   58.5288   32.6078   50.4121 H   0  0  0  0  0  0  0  0  0  0  0  0
   59.2387   29.2460   48.8524 H   0  0  0  0  0  0  0  0  0  0  0  0
   60.3905   28.7823   45.3267 H   0  0  0  0  0  0  0  0  0  0  0  0
   60.6010   28.1060   46.9878 H   0  0  0  0  0  0  0  0  0  0  0  0
   59.1146   26.6333   47.8069 H   0  0  0  0  0  0  0  0  0  0  0  0
   57.0580   25.4680   47.6690 H   0  0  0  0  0  0  0  0  0  0  0  0
   54.3010   26.3370   46.3740 H   0  0  0  0  0  0  0  0  0  0  0  0
   55.7820   27.8820   44.5340 H   0  0  0  0  0  0  0  0  0  0  0  0
   58.2950   29.1690   43.5170 H   0  0  0  0  0  0  0  0  0  0  0  0
   60.2403   31.0610   45.0587 H   0  0  0  0  0  0  0  0  0  0  0  0
   60.2505   33.3778   44.8380 H   0  0  0  0  0  0  0  0  0  0  0  0
   59.9578   35.6817   45.7575 H   0  0  0  0  0  0  0  0  0  0  0  0
   59.2969   35.9123   48.1450 H   0  0  0  0  0  0  0  0  0  0  0  0
   58.9423   33.9333   49.5668 H   0  0  0  0  0  0  0  0  0  0  0  0
   62.6062   32.9692   52.0765 H   0  0  0  0  0  0  0  0  0  0  0  0
   62.4145   31.2261   51.5952 H   0  0  0  0  0  0  0  0  0  0  0  0
   62.4478   34.7119   50.2456 H   0  0  0  0  0  0  0  0  0  0  0  0
   63.0765   35.2316   47.9191 H   0  0  0  0  0  0  0  0  0  0  0  0
   63.4738   33.3712   46.3257 H   0  0  0  0  0  0  0  0  0  0  0  0
   63.2441   31.0363   47.0553 H   0  0  0  0  0  0  0  0  0  0  0  0
   62.6141   30.5340   49.3906 H   0  0  0  0  0  0  0  0  0  0  0  0
  1  2  1  0
  2  3  2  0
  2  4  1  0
  4  5  1  0
  5  6  1  0
  6  7  1  0
  7  8  2  0
  8  9  1  0
  9 10  1  0
 10 11  1  0
 11 12  2  0
 12 13  1  0
 13 14  1  0
 14 15  2  3
 14 16  1  0
 16 17  1  0
 17 18  2  3
  9 19  2  0
 19 20  1  0
 20 21  2  0
 21 22  1  0
 22 23  2  0
 23 24  1  0
 24 25  2  0
  4 26  1  0
 26 27  1  0
 27 28  2  0
 28 29  1  0
 29 30  2  0
 30 31  1  0
 31 32  2  0
 25  7  1  0
 32 27  1  0
 17 11  1  0
 25 20  1  0
  1 33  1  0
  1 34  1  0
  1 35  1  0
  5 36  1  0
  5 37  1  0
  6 38  1  0
  6 39  1  0
  8 40  1  0
 10 41  1  0
 10 42  1  0
 12 43  1  0
 13 44  1  0
 15 45  1  0
 16 46  1  0
 18 47  1  0
 19 48  1  0
 21 49  1  0
 22 50  1  0
 23 51  1  0
 24 52  1  0
 26 53  1  0
 26 54  1  0
 28 55  1  0
 29 56  1  0
 30 57  1  0
 31 58  1  0
 32 59  1  0
M  END
>  <smiles>  (43) 
CC(=O)N(CCc1cc(Cc2c[nH]c(=N)[nH]c2=N)cc2ccccc12)Cc1ccccc1

>  <score_type>  (43) 
oracle

>  <origin>  (43) 
adg

>  <m_score__min__energy>  (43) 
-10.52

>  <m_primary>  (43) 
energy

$$$$
43:0
     RDKit          3D

 45 47  0  0  0  0  0  0  0  0999 V2000
   59.9034   35.6037   47.9514 H   0  0  0  0  0  0  0  0  0  0  0  0
   59.4650   34.9260   47.2040 C   0  0  0  0  0  0  0  0  0  0  0  0
   58.7990   33.7680   47.6160 C   0  0  0  0  0  0  0  0  0  0  0  0
   58.7154   33.5339   48.6875 H   0  0  0  0  0  0  0  0  0  0  0  0
   58.2390   32.9070   46.6670 C   0  0  0  0  0  0  0  0  0  0  0  0
   57.7130   31.9981   46.9943 H   0  0  0  0  0  0  0  0  0  0  0  0
   58.3460   33.1990   45.2970 C   0  0  0  0  0  0  0  0  0  0  0  0
   57.7570   32.2690   44.2690 C   0  0  0  0  0  0  0  0  0  0  0  0
   58.4966   31.4929   44.0225 H   0  0  0  0  0  0  0  0  0  0  0  0
   57.4980   32.8576   43.3766 H   0  0  0  0  0  0  0  0  0  0  0  0
   56.5390   31.6260   44.7680 N   0  0  0  0  0  0  0  0  0  0  0  0
   56.5020   29.9300   44.3750 S   0  0  0  0  0  0  0  0  0  0  0  0
   56.5550   29.7620   42.8810 O   0  0  0  0  0  0  0  0  0  0  0  0
   55.2130   29.3410   44.8730 O   0  0  0  0  0  0  0  0  0  0  0  0
   57.8420   29.0720   45.1350 C   0  0  0  0  0  0  0  0  0  0  0  0
   58.2400   27.8140   44.6730 C   0  0  0  0  0  0  0  0  0  0  0  0
   57.7064   27.3429   43.8343 H   0  0  0  0  0  0  0  0  0  0  0  0
   59.3130   27.1550   45.2740 C   0  0  0  0  0  0  0  0  0  0  0  0
   59.6217   26.1652   44.9067 H   0  0  0  0  0  0  0  0  0  0  0  0
   59.9980   27.7450   46.3400 C   0  0  0  0  0  0  0  0  0  0  0  0
   61.0400   27.0720   46.8910 F   0  0  0  0  0  0  0  0  0  0  0  0
   59.6080   29.0140   46.8210 C   0  0  0  0  0  0  0  0  0  0  0  0
   60.3200   29.6660   47.9500 C   0  0  0  0  0  0  0  0  0  0  0  0
   60.2160   29.1990   49.1170 O   0  0  0  0  0  0  0  0  0  0  0  0
   61.0460   30.8850   47.7230 N   0  0  0  0  0  0  0  0  0  0  0  0
   62.0100   31.4130   48.4300 C   0  0  0  0  0  0  0  0  0  0  0  0
   62.6370   32.5860   47.9550 C   0  0  0  0  0  0  0  0  0  0  0  0
   62.2010   33.2340   46.6670 C   0  0  0  0  0  0  0  0  0  0  0  0
   61.5998   34.1275   46.8912 H   0  0  0  0  0  0  0  0  0  0  0  0
   63.0876   33.5252   46.0846 H   0  0  0  0  0  0  0  0  0  0  0  0
   61.5972   32.5225   46.0846 H   0  0  0  0  0  0  0  0  0  0  0  0
   63.6680   33.1610   48.7110 C   0  0  0  0  0  0  0  0  0  0  0  0
   64.1547   34.0841   48.3631 H   0  0  0  0  0  0  0  0  0  0  0  0
   64.0770   32.5660   49.9010 C   0  0  0  0  0  0  0  0  0  0  0  0
   64.8813   33.0184   50.4997 H   0  0  0  0  0  0  0  0  0  0  0  0
   63.4590   31.3930   50.3270 C   0  0  0  0  0  0  0  0  0  0  0  0
   63.7846   30.9115   51.2609 H   0  0  0  0  0  0  0  0  0  0  0  0
   62.4550   30.8390   49.5950 N   0  0  0  0  0  0  0  0  0  0  0  0
   62.0710   29.9360   49.9430 H   0  0  0  0  0  0  0  0  0  0  0  0
   58.5250   29.6680   46.2040 C   0  0  0  0  0  0  0  0  0  0  0  0
   58.2110   30.6585   46.5650 H   0  0  0  0  0  0  0  0  0  0  0  0
   59.0170   34.3640   44.8910 C   0  0  0  0  0  0  0  0  0  0  0  0
   59.1044   34.6011   43.8204 H   0  0  0  0  0  0  0  0  0  0  0  0
   59.5740   35.2230   45.8420 C   0  0  0  0  0  0  0  0  0  0  0  0
   60.0989   36.1340   45.5188 H   0  0  0  0  0  0  0  0  0  0  0  0
  1  2  1  0
  2  3  2  0
  3  4  1  0
  3  5  1  0
  5  6  1  0
  5  7  2  0
  7  8  1  0
  8  9  1  0
  8 10  1  0
  8 11  1  0
 11 12  1  0
 12 13  2  0
 12 14  2  0
 12 15  1  0
 15 16  2  0
 16 17  1  0
 16 18  1  0
 18 19  1  0
 18 20  2  0
 20 21  1  0
 20 22  1  0
 22 23  1  0
 23 24  2  0
 23 25  1  0
 25 26  2  0
 26 27  1  0
 27 28  1  0
 28 29  1  0
 28 30  1  0
 28 31  1  0
 27 32  2  0
 32 33  1  0
 32 34  1  0
 34 35  1  0
 34 36  2  0
 36 37  1  0
 36 38  1  0
 38 39  1  0
 22 40  2  0
 40 41  1  0
  7 42  1  0
 42 43  1  0
 42 44  2  0
 44 45  1  0
 44  2  1  0
 40 15  1  0
 38 26  1  0
M  CHG  1  11  -1
M  END
>  <UniqueID>  (44) 
39

>  <SMILES>  (44) 
Cc1ccc[nH]/c1=N\C(=O)c1cc(S(=O)(=O)[N-]Cc2ccccc2)ccc1F

>  <Energy>  (44) 
55.527979232433076

>  <Genealogy>  (44) 
Cc1ccc[nH]c1=NC(=O)c1cc(S(=O)(=O)[N-]Cc2ccccc2)ccc1F (protonated)
Cc1ccc[nH]/c1=N\C(=O)c1cc(S(=O)(=O)[N-]Cc2ccccc2)ccc1F (cis-trans isomerization)
Cc1ccc[nH]/c1=N\C(=O)c1cc(S(=O)(=O)[N-]Cc2ccccc2)ccc1F (3D coordinates assigned)
Cc1ccc[nH]/c1=N\C(=O)c1cc(S(=O)(=O)[N-]Cc2ccccc2)ccc1F (optimized conformer: 55.527979232433076 kcal/mol)

>  <smiles>  (44) 
Cc1ccc[nH]c1=NC(=O)c1cc(S(=O)(=O)NCc2ccccc2)ccc1F

>  <score_type>  (44) 
oracle

>  <origin>  (44) 
adg

>  <m_score__min__energy>  (44) 
-10.859999999999999

>  <m_primary>  (44) 
energy

$$$$
44:0
     RDKit          3D

 50 53  0  0  0  0  0  0  0  0999 V2000
   63.4170   33.8120   46.3910 C   0  0  0  0  0  0  0  0  0  0  0  0
   62.7540   33.1570   47.5740 C   0  0  0  0  0  0  0  0  0  0  0  0
   63.4500   32.1580   48.2760 C   0  0  0  0  0  0  0  0  0  0  0  0
   62.8690   31.5270   49.3770 C   0  0  0  0  0  0  0  0  0  0  0  0
   61.5910   31.8880   49.7960 C   0  0  0  0  0  0  0  0  0  0  0  0
   60.8800   32.8690   49.1030 C   0  0  0  0  0  0  0  0  0  0  0  0
   61.4390   33.5010   47.9780 C   0  0  0  0  0  0  0  0  0  0  0  0
   60.6230   34.5530   47.2600 C   0  0  0  0  0  0  0  0  0  0  0  0
   59.3330   33.9780   46.7690 C   0  0  0  0  0  0  0  0  0  0  0  0
   58.1600   34.0980   47.4290 N   0  0  0  0  0  0  0  0  0  0  0  0
   57.1450   33.5080   46.8000 N   0  0  0  0  0  0  0  0  0  0  0  0
   57.4970   32.9040   45.6460 C   0  0  0  0  0  0  0  0  0  0  0  0
   56.6310   32.3040   44.8820 N   0  0  0  0  0  0  0  0  0  0  0  0
   56.6290   30.9190   44.4990 C   0  0  0  0  0  0  0  0  0  0  0  0
   55.5250   30.3190   44.4140 O   0  0  0  0  0  0  0  0  0  0  0  0
   57.8990   30.1340   44.2890 C   0  0  0  0  0  0  0  0  0  0  0  0
   58.0030   28.9800   45.2470 C   0  0  0  0  0  0  0  0  0  0  0  0
   57.2490   27.8120   45.2170 C   0  0  0  0  0  0  0  0  0  0  0  0
   57.6480   26.9770   46.2010 N   0  0  0  0  0  0  0  0  0  0  0  0
   57.0300   25.3810   46.4800 S   0  0  0  0  0  0  0  0  0  0  0  0
   57.7140   24.2690   45.2730 C   0  0  0  0  0  0  0  0  0  0  0  0
   57.3940   24.9280   47.8660 O   0  0  0  0  0  0  0  0  0  0  0  0
   55.5330   25.3950   46.3560 O   0  0  0  0  0  0  0  0  0  0  0  0
   58.6490   27.5980   46.8560 C   0  0  0  0  0  0  0  0  0  0  0  0
   59.4070   27.1220   47.9280 C   0  0  0  0  0  0  0  0  0  0  0  0
   60.4170   27.9570   48.4420 C   0  0  0  0  0  0  0  0  0  0  0  0
   60.6500   29.2300   47.8790 C   0  0  0  0  0  0  0  0  0  0  0  0
   59.8790   29.6800   46.7940 C   0  0  0  0  0  0  0  0  0  0  0  0
   58.8840   28.8340   46.3040 C   0  0  0  0  0  0  0  0  0  0  0  0
   59.1450   33.1110   45.3330 S   0  0  0  0  0  0  0  0  0  0  0  0
   64.1579   34.5440   46.7448 H   0  0  0  0  0  0  0  0  0  0  0  0
   63.9199   33.0463   45.7821 H   0  0  0  0  0  0  0  0  0  0  0  0
   62.6574   34.3241   45.7821 H   0  0  0  0  0  0  0  0  0  0  0  0
   64.4621   31.8708   47.9547 H   0  0  0  0  0  0  0  0  0  0  0  0
   63.4218   30.7428   49.9150 H   0  0  0  0  0  0  0  0  0  0  0  0
   61.1417   31.3999   50.6734 H   0  0  0  0  0  0  0  0  0  0  0  0
   59.8717   33.1508   49.4404 H   0  0  0  0  0  0  0  0  0  0  0  0
   60.4090   35.3795   47.9536 H   0  0  0  0  0  0  0  0  0  0  0  0
   61.1985   34.9183   46.3966 H   0  0  0  0  0  0  0  0  0  0  0  0
   56.1730   33.5170   47.1820 H   0  0  0  0  0  0  0  0  0  0  0  0
   57.9122   29.7456   43.2599 H   0  0  0  0  0  0  0  0  0  0  0  0
   58.7515   30.8060   44.4671 H   0  0  0  0  0  0  0  0  0  0  0  0
   56.4450   27.5991   44.4971 H   0  0  0  0  0  0  0  0  0  0  0  0
   58.2239   23.4400   45.7856 H   0  0  0  0  0  0  0  0  0  0  0  0
   56.9056   23.8689   44.6433 H   0  0  0  0  0  0  0  0  0  0  0  0
   58.4356   24.8101   44.6433 H   0  0  0  0  0  0  0  0  0  0  0  0
   59.2207   26.1264   48.3570 H   0  0  0  0  0  0  0  0  0  0  0  0
   61.0295   27.6146   49.2891 H   0  0  0  0  0  0  0  0  0  0  0  0
   61.4402   29.8740   48.2923 H   0  0  0  0  0  0  0  0  0  0  0  0
   60.0546   30.6687   46.3449 H   0  0  0  0  0  0  0  0  0  0  0  0
  1  2  1  0
  2  3  2  0
  3  4  1  0
  4  5  2  0
  5  6  1  0
  6  7  2  0
  7  8  1  0
  8  9  1  0
  9 10  2  0
 10 11  1  0
 11 12  1  0
 12 13  2  3
 13 14  1  0
 14 15  2  0
 14 16  1  0
 16 17  1  0
 17 18  2  0
 18 19  1  0
 19 20  1  0
 20 21  1  0
 20 22  2  0
 20 23  2  0
 19 24  1  0
 24 25  2  0
 25 26  1  0
 26 27  2  0
 27 28  1  0
 28 29  2  0
 12 30  1  0
  7  2  1  0
 30  9  1  0
 29 17  1  0
 29 24  1  0
  1 31  1  0
  1 32  1  0
  1 33  1  0
  3 34  1  0
  4 35  1  0
  5 36  1  0
  6 37  1  0
  8 38  1  0
  8 39  1  0
 11 40  1  0
 16 41  1  0
 16 42  1  0
 18 43  1  0
 21 44  1  0
 21 45  1  0
 21 46  1  0
 25 47  1  0
 26 48  1  0
 27 49  1  0
 28 50  1  0
M  END
>  <UniqueID>  (45) 
40

>  <SMILES>  (45) 
Cc1ccccc1Cc1n[nH]c(=NC(=O)Cc2cn(S(C)(=O)=O)c3ccccc23)s1

>  <Energy>  (45) 
118.65033300591034

>  <Genealogy>  (45) 
Cc1ccccc1Cc1n[nH]c(=NC(=O)Cc2cn(S(C)(=O)=O)c3ccccc23)s1 (3D coordinates assigned)
Cc1ccccc1Cc1n[nH]c(=NC(=O)Cc2cn(S(C)(=O)=O)c3ccccc23)s1 (optimized conformer: 118.65033300591034 kcal/mol)

>  <smiles>  (45) 
Cc1ccccc1Cc1n[nH]c(=NC(=O)Cc2cn(S(C)(=O)=O)c3ccccc23)s1

>  <score_type>  (45) 
oracle

>  <origin>  (45) 
adg

>  <m_score__min__energy>  (45) 
-10.27

>  <m_primary>  (45) 
energy

$$$$
45:0
     RDKit          3D

 82 86  0  0  0  0  0  0  0  0999 V2000
   57.3030   28.6310   46.3020 N   0  0  0  0  0  0  0  0  0  0  0  0
   56.7110   29.2700   44.8110 S   0  0  0  0  0  0  0  0  0  0  0  0
   55.2130   29.3720   44.8670 O   0  0  0  0  0  0  0  0  0  0  0  0
   57.0890   28.3470   43.6860 O   0  0  0  0  0  0  0  0  0  0  0  0
   57.4110   30.8610   44.5350 C   0  0  0  0  0  0  0  0  0  0  0  0
   57.3720   31.4340   43.2580 C   0  0  0  0  0  0  0  0  0  0  0  0
   57.9300   32.6950   43.0360 C   0  0  0  0  0  0  0  0  0  0  0  0
   58.5310   33.3920   44.0880 C   0  0  0  0  0  0  0  0  0  0  0  0
   58.5810   32.8290   45.3740 C   0  0  0  0  0  0  0  0  0  0  0  0
   59.2220   33.5550   46.4940 C   0  0  0  0  0  0  0  0  0  0  0  0
   59.8700   34.6080   46.2510 O   0  0  0  0  0  0  0  0  0  0  0  0
   59.1230   33.0520   47.8410 N   0  0  0  0  0  0  0  0  0  0  0  0
   59.5740   33.7420   49.0610 C   0  0  2  0  0  0  0  0  0  0  0  0
   60.8640   34.5570   48.8050 C   0  0  0  0  0  0  0  0  0  0  0  0
   62.1410   33.7670   48.9460 C   0  0  0  0  0  0  0  0  0  0  0  0
   62.4670   32.7650   48.0160 C   0  0  0  0  0  0  0  0  0  0  0  0
   63.6610   32.0480   48.1420 C   0  0  0  0  0  0  0  0  0  0  0  0
   64.5330   32.3170   49.1980 C   0  0  0  0  0  0  0  0  0  0  0  0
   64.2120   33.3010   50.1370 C   0  0  0  0  0  0  0  0  0  0  0  0
   63.0190   34.0200   50.0160 C   0  0  0  0  0  0  0  0  0  0  0  0
   59.6750   32.8230   50.3040 C   0  0  0  0  0  0  0  0  0  0  0  0
   58.5020   31.8120   50.4630 C   0  0  1  0  0  0  0  0  0  0  0  0
   57.3950   32.3360   49.7670 O   0  0  0  0  0  0  0  0  0  0  0  0
   58.8480   30.3970   49.9020 C   0  0  1  0  0  0  0  0  0  0  0  0
   60.2460   30.3150   49.2460 C   0  0  0  0  0  0  0  0  0  0  0  0
   60.2940   29.4770   47.9850 C   0  0  0  0  0  0  0  0  0  0  0  0
   60.6320   30.0600   46.7490 C   0  0  0  0  0  0  0  0  0  0  0  0
   60.6620   29.2840   45.5860 C   0  0  0  0  0  0  0  0  0  0  0  0
   60.3730   27.9200   45.6450 C   0  0  0  0  0  0  0  0  0  0  0  0
   60.0650   27.3270   46.8720 C   0  0  0  0  0  0  0  0  0  0  0  0
   60.0340   28.0980   48.0360 C   0  0  0  0  0  0  0  0  0  0  0  0
   58.7490   29.3800   50.9510 N   0  0  0  0  0  0  0  0  0  0  0  0
   58.6150   29.6910   52.3390 C   0  0  0  0  0  0  0  0  0  0  0  0
   57.4860   29.5870   52.8870 O   0  0  0  0  0  0  0  0  0  0  0  0
   59.7320   30.1070   53.0720 O   0  0  0  0  0  0  0  0  0  0  0  0
   60.9610   30.5280   52.4800 C   0  0  1  0  0  0  0  0  0  0  0  0
   61.8100   31.2530   53.5400 C   0  0  0  0  0  0  0  0  0  0  0  0
   63.3120   31.2050   53.2180 C   0  0  0  0  0  0  0  0  0  0  0  0
   63.5400   30.9940   51.8380 O   0  0  0  0  0  0  0  0  0  0  0  0
   63.1550   29.6800   51.4580 C   0  0  1  0  0  0  0  0  0  0  0  0
   64.0450   28.7300   52.0050 O   0  0  0  0  0  0  0  0  0  0  0  0
   63.2670   27.6480   52.4580 C   0  0  0  0  0  0  0  0  0  0  0  0
   61.8800   28.1550   52.7950 C   0  0  0  0  0  0  0  0  0  0  0  0
   61.7120   29.3290   51.8580 C   0  0  1  0  0  0  0  0  0  0  0  0
   58.0300   31.5530   45.5860 C   0  0  0  0  0  0  0  0  0  0  0  0
   56.6270   27.8960   46.6080 H   0  0  0  0  0  0  0  0  0  0  0  0
   56.9003   30.8892   42.4269 H   0  0  0  0  0  0  0  0  0  0  0  0
   57.8964   33.1407   42.0309 H   0  0  0  0  0  0  0  0  0  0  0  0
   58.9668   34.3858   43.9081 H   0  0  0  0  0  0  0  0  0  0  0  0
   58.7390   32.0900   47.9710 H   0  0  0  0  0  0  0  0  0  0  0  0
   58.7801   34.4588   49.3177 H   0  0  0  0  0  0  0  0  0  0  0  0
   60.8195   34.9584   47.7818 H   0  0  0  0  0  0  0  0  0  0  0  0
   60.8956   35.3427   49.5742 H   0  0  0  0  0  0  0  0  0  0  0  0
   61.7802   32.5439   47.1857 H   0  0  0  0  0  0  0  0  0  0  0  0
   63.9136   31.2698   47.4067 H   0  0  0  0  0  0  0  0  0  0  0  0
   65.4735   31.7542   49.2912 H   0  0  0  0  0  0  0  0  0  0  0  0
   64.8979   33.5098   50.9712 H   0  0  0  0  0  0  0  0  0  0  0  0
   62.7653   34.7879   50.7616 H   0  0  0  0  0  0  0  0  0  0  0  0
   60.6123   32.2517   50.2324 H   0  0  0  0  0  0  0  0  0  0  0  0
   59.6367   33.4837   51.1826 H   0  0  0  0  0  0  0  0  0  0  0  0
   58.2897   31.6831   51.5346 H   0  0  0  0  0  0  0  0  0  0  0  0
   56.6030   32.2650   50.3620 H   0  0  0  0  0  0  0  0  0  0  0  0
   58.1047   30.2048   49.1142 H   0  0  0  0  0  0  0  0  0  0  0  0
   60.5688   31.3359   48.9938 H   0  0  0  0  0  0  0  0  0  0  0  0
   60.9082   29.8255   49.9753 H   0  0  0  0  0  0  0  0  0  0  0  0
   60.8738   31.1319   46.6977 H   0  0  0  0  0  0  0  0  0  0  0  0
   60.9141   29.7500   44.6220 H   0  0  0  0  0  0  0  0  0  0  0  0
   60.3877   27.3132   44.7276 H   0  0  0  0  0  0  0  0  0  0  0  0
   59.8464   26.2501   46.9213 H   0  0  0  0  0  0  0  0  0  0  0  0
   59.8041   27.6213   49.0003 H   0  0  0  0  0  0  0  0  0  0  0  0
   60.7542   31.2305   51.6592 H   0  0  0  0  0  0  0  0  0  0  0  0
   61.4922   32.3050   53.5886 H   0  0  0  0  0  0  0  0  0  0  0  0
   61.6558   30.7416   54.5016 H   0  0  0  0  0  0  0  0  0  0  0  0
   63.7717   32.1594   53.5144 H   0  0  0  0  0  0  0  0  0  0  0  0
   63.7574   30.3665   53.7735 H   0  0  0  0  0  0  0  0  0  0  0  0
   63.1994   29.6515   50.3593 H   0  0  0  0  0  0  0  0  0  0  0  0
   63.2004   26.8841   51.6693 H   0  0  0  0  0  0  0  0  0  0  0  0
   63.7298   27.2010   53.3502 H   0  0  0  0  0  0  0  0  0  0  0  0
   61.1194   27.3838   52.6033 H   0  0  0  0  0  0  0  0  0  0  0  0
   61.7621   28.4251   53.8548 H   0  0  0  0  0  0  0  0  0  0  0  0
   61.0762   29.0725   50.9978 H   0  0  0  0  0  0  0  0  0  0  0  0
   58.0849   31.0939   46.5841 H   0  0  0  0  0  0  0  0  0  0  0  0
  1  2  1  0
  2  3  2  0
  2  4  2  0
  2  5  1  0
  5  6  2  0
  6  7  1  0
  7  8  2  0
  8  9  1  0
  9 10  1  0
 10 11  2  0
 10 12  1  0
 12 13  1  0
 13 14  1  0
 14 15  1  0
 15 16  2  0
 16 17  1  0
 17 18  2  0
 18 19  1  0
 19 20  2  0
 13 21  1  0
 21 22  1  0
 22 23  1  0
 22 24  1  0
 24 25  1  0
 25 26  1  0
 26 27  2  0
 27 28  1  0
 28 29  2  0
 29 30  1  0
 30 31  2  0
 24 32  1  0
 32 33  1  0
 33 34  2  0
 33 35  1  0
 35 36  1  0
 36 37  1  0
 37 38  1  0
 38 39  1  0
 39 40  1  0
 40 41  1  0
 41 42  1  0
 42 43  1  0
 43 44  1  0
  9 45  2  0
 45  5  1  0
 20 15  1  0
 31 26  1  0
 44 36  1  0
 44 40  1  0
  1 46  1  0
  6 47  1  0
  7 48  1  0
  8 49  1  0
 12 50  1  0
 13 51  1  1
 14 52  1  0
 14 53  1  0
 16 54  1  0
 17 55  1  0
 18 56  1  0
 19 57  1  0
 20 58  1  0
 21 59  1  0
 21 60  1  0
 22 61  1  1
 23 62  1  0
 24 63  1  6
 25 64  1  0
 25 65  1  0
 27 66  1  0
 28 67  1  0
 29 68  1  0
 30 69  1  0
 31 70  1  0
 36 71  1  6
 37 72  1  0
 37 73  1  0
 38 74  1  0
 38 75  1  0
 40 76  1  6
 42 77  1  0
 42 78  1  0
 43 79  1  0
 43 80  1  0
 44 81  1  6
 45 82  1  0
M  CHG  2   1  -1  32  -1
M  END
>  <UniqueID>  (46) 
41

>  <SMILES>  (46) 
[NH-]S(=O)(=O)c1cccc(C(=O)N[C@H](Cc2ccccc2)C[C@@H](O)C(Cc2ccccc2)[N-]C(=O)OC2CCOC3OCCC23)c1

>  <Energy>  (46) 
94.26911848832381

>  <Genealogy>  (46) 
[NH-]S(=O)(=O)c1cccc(C(=O)NC(Cc2ccccc2)CC(O)C(Cc2ccccc2)[N-]C(=O)OC2CCOC3OCCC23)c1 (protonated)
[NH-]S(=O)(=O)c1cccc(C(=O)N[C@H](Cc2ccccc2)C[C@@H](O)C(Cc2ccccc2)[N-]C(=O)OC2CCOC3OCCC23)c1 (chirality)
[NH-]S(=O)(=O)c1cccc(C(=O)N[C@H](Cc2ccccc2)C[C@@H](O)C(Cc2ccccc2)[N-]C(=O)OC2CCOC3OCCC23)c1 (3D coordinates assigned)
[NH-]S(=O)(=O)c1cccc(C(=O)N[C@H](Cc2ccccc2)C[C@@H](O)C(Cc2ccccc2)[N-]C(=O)OC2CCOC3OCCC23)c1 (nonaromatic ring conformer: 94.26911848832381 kcal/mol)

>  <smiles>  (46) 
NS(=O)(=O)c1cccc(C(=O)NC(Cc2ccccc2)CC(O)C(Cc2ccccc2)NC(=O)OC2CCOC3OCCC23)c1

>  <score_type>  (46) 
oracle

>  <origin>  (46) 
adg

>  <m_score__min__energy>  (46) 
-13.93

>  <m_primary>  (46) 
energy

$$$$
46:0
     RDKit          3D

 33 34  0  0  0  0  0  0  0  0999 V2000
   54.0610   26.2680   46.3710 H   0  0  0  0  0  0  0  0  0  0  0  0
   54.9980   26.4540   46.0380 O   0  0  0  0  0  0  0  0  0  0  0  0
   55.8920   25.4430   45.6790 C   0  0  0  0  0  0  0  0  0  0  0  0
   55.4610   24.4680   44.7710 C   0  0  0  0  0  0  0  0  0  0  0  0
   54.4372   24.5089   44.3708 H   0  0  0  0  0  0  0  0  0  0  0  0
   56.3220   23.4440   44.3700 C   0  0  0  0  0  0  0  0  0  0  0  0
   55.9772   22.6858   43.6515 H   0  0  0  0  0  0  0  0  0  0  0  0
   57.6190   23.3820   44.8800 C   0  0  0  0  0  0  0  0  0  0  0  0
   58.2958   22.5747   44.5636 H   0  0  0  0  0  0  0  0  0  0  0  0
   58.0590   24.3440   45.7920 C   0  0  0  0  0  0  0  0  0  0  0  0
   59.0780   24.2819   46.2016 H   0  0  0  0  0  0  0  0  0  0  0  0
   57.2090   25.3920   46.1910 C   0  0  0  0  0  0  0  0  0  0  0  0
   58.2690   27.5470   46.8870 C   0  0  0  0  0  0  0  0  0  0  0  0
   57.5231   26.1475   48.2527 H   0  0  0  0  0  0  0  0  0  0  0  0
   59.5640   27.6760   46.1910 C   0  0  0  0  0  0  0  0  0  0  0  0
   57.7531   28.4734   47.1795 H   0  0  0  0  0  0  0  0  0  0  0  0
   57.6750   26.3830   47.1890 C   0  0  0  0  0  0  0  0  0  0  0  0
   59.6350   28.5070   45.1910 N   0  0  0  0  0  0  0  0  0  0  0  0
   58.5290   29.2190   44.6200 C   0  0  0  0  0  0  0  0  0  0  0  0
   58.2330   30.5270   45.0380 C   0  0  0  0  0  0  0  0  0  0  0  0
   58.8376   31.0010   45.8253 H   0  0  0  0  0  0  0  0  0  0  0  0
   57.1730   31.2280   44.4570 C   0  0  0  0  0  0  0  0  0  0  0  0
   56.9377   32.2477   44.7958 H   0  0  0  0  0  0  0  0  0  0  0  0
   56.4120   30.6360   43.4470 C   0  0  0  0  0  0  0  0  0  0  0  0
   55.5746   31.1875   42.9947 H   0  0  0  0  0  0  0  0  0  0  0  0
   56.7140   29.3420   43.0100 C   0  0  0  0  0  0  0  0  0  0  0  0
   56.1171   28.8791   42.2103 H   0  0  0  0  0  0  0  0  0  0  0  0
   57.7750   28.6350   43.5890 C   0  0  0  0  0  0  0  0  0  0  0  0
   58.1320   27.0080   43.0260 Cl  0  0  0  0  0  0  0  0  0  0  0  0
   60.7560   26.8590   46.6310 C   0  0  0  0  0  0  0  0  0  0  0  0
   60.7962   26.8315   47.7299 H   0  0  0  0  0  0  0  0  0  0  0  0
   60.6621   25.8345   46.2417 H   0  0  0  0  0  0  0  0  0  0  0  0
   61.6777   27.3161   46.2417 H   0  0  0  0  0  0  0  0  0  0  0  0
  1  2  1  0
  2  3  1  0
  3  4  2  0
  4  5  1  0
  4  6  1  0
  6  7  1  0
  6  8  2  0
  8  9  1  0
  8 10  1  0
 10 11  1  0
 10 12  2  0
 12 13  1  0
 13 14  1  0
 13 15  2  0
 15 16  1  0
 15 17  1  0
 17 18  2  0
 18 19  1  0
 19 20  2  0
 20 21  1  0
 20 22  1  0
 22 23  1  0
 22 24  2  0
 24 25  1  0
 24 26  1  0
 26 27  1  0
 26 28  2  0
 28 29  1  0
 17 30  1  0
 30 31  1  0
 30 32  1  0
 30 33  1  0
 12  3  1  0
 28 19  1  0
M  END
>  <UniqueID>  (47) 
42

>  <SMILES>  (47) 
CC(/C=C\c1ccccc1O)=N\c1ccccc1Cl

>  <Energy>  (47) 
51.48872675129812

>  <Genealogy>  (47) 
CC(/C=C\c1ccccc1O)=N\c1ccccc1Cl (cis-trans isomerization)
CC(/C=C\c1ccccc1O)=N\c1ccccc1Cl (3D coordinates assigned)
CC(/C=C\c1ccccc1O)=N\c1ccccc1Cl (optimized conformer: 51.48872675129812 kcal/mol)

>  <smiles>  (47) 
CC(C=Cc1ccccc1O)=Nc1ccccc1Cl

>  <score_type>  (47) 
oracle

>  <origin>  (47) 
adg

>  <m_score__min__energy>  (47) 
-8.8699999999999992

>  <m_primary>  (47) 
energy

$$$$
47:0
     RDKit          3D

 42 44  0  0  0  0  0  0  0  0999 V2000
   57.7460   28.4690   43.3670 N   0  0  0  0  0  0  0  0  0  0  0  0
   57.1150   29.0970   44.8500 S   0  0  0  0  0  0  0  0  0  0  0  0
   56.6220   30.4990   44.6340 O   0  0  0  0  0  0  0  0  0  0  0  0
   55.9740   28.2300   45.3000 O   0  0  0  0  0  0  0  0  0  0  0  0
   58.3810   29.1050   46.0730 C   0  0  0  0  0  0  0  0  0  0  0  0
   58.5500   28.0060   46.9280 C   0  0  0  0  0  0  0  0  0  0  0  0
   59.5520   28.0220   47.9020 C   0  0  0  0  0  0  0  0  0  0  0  0
   60.4000   29.1270   48.0160 C   0  0  0  0  0  0  0  0  0  0  0  0
   60.2580   30.2180   47.1440 C   0  0  0  0  0  0  0  0  0  0  0  0
   61.1500   31.3830   47.2750 C   0  0  0  0  0  0  0  0  0  0  0  0
   62.3950   31.1580   47.8850 C   0  0  0  0  0  0  0  0  0  0  0  0
   63.3020   32.2000   48.0620 C   0  0  0  0  0  0  0  0  0  0  0  0
   64.4980   31.9660   48.6570 F   0  0  0  0  0  0  0  0  0  0  0  0
   62.9780   33.4850   47.6340 C   0  0  0  0  0  0  0  0  0  0  0  0
   61.7500   33.7280   47.0200 C   0  0  0  0  0  0  0  0  0  0  0  0
   60.8160   32.6910   46.8080 C   0  0  0  0  0  0  0  0  0  0  0  0
   59.4890   33.0790   46.1450 C   0  0  0  0  0  0  0  0  0  0  0  0
   58.3090   33.3200   47.1050 C   0  0  0  0  0  0  0  0  0  0  0  0
   56.9930   33.4810   46.3120 C   0  0  0  0  0  0  0  0  0  0  0  0
   57.2010   33.9970   44.9430 N   0  0  0  0  0  0  0  0  0  0  0  0
   58.3090   34.9590   44.8780 C   0  0  0  0  0  0  0  0  0  0  0  0
   59.6500   34.2550   45.1570 C   0  0  0  0  0  0  0  0  0  0  0  0
   59.2210   30.2180   46.2010 C   0  0  0  0  0  0  0  0  0  0  0  0
   57.0090   27.8510   42.9590 H   0  0  0  0  0  0  0  0  0  0  0  0
   57.8580   29.2780   42.7150 H   0  0  0  0  0  0  0  0  0  0  0  0
   57.8923   27.1295   46.8316 H   0  0  0  0  0  0  0  0  0  0  0  0
   59.6734   27.1640   48.5796 H   0  0  0  0  0  0  0  0  0  0  0  0
   61.1806   29.1419   48.7909 H   0  0  0  0  0  0  0  0  0  0  0  0
   62.6570   30.1460   48.2273 H   0  0  0  0  0  0  0  0  0  0  0  0
   63.6917   34.3092   47.7805 H   0  0  0  0  0  0  0  0  0  0  0  0
   61.5038   34.7493   46.6939 H   0  0  0  0  0  0  0  0  0  0  0  0
   59.2127   32.1763   45.5803 H   0  0  0  0  0  0  0  0  0  0  0  0
   58.2175   32.4633   47.7889 H   0  0  0  0  0  0  0  0  0  0  0  0
   58.4963   34.2414   47.6759 H   0  0  0  0  0  0  0  0  0  0  0  0
   56.5021   32.4989   46.2452 H   0  0  0  0  0  0  0  0  0  0  0  0
   56.3741   34.2150   46.8488 H   0  0  0  0  0  0  0  0  0  0  0  0
   56.3260   34.4850   44.6410 H   0  0  0  0  0  0  0  0  0  0  0  0
   58.3385   35.4102   43.8752 H   0  0  0  0  0  0  0  0  0  0  0  0
   58.1501   35.7373   45.6389 H   0  0  0  0  0  0  0  0  0  0  0  0
   60.0535   33.8701   44.2088 H   0  0  0  0  0  0  0  0  0  0  0  0
   60.3326   34.9893   45.6097 H   0  0  0  0  0  0  0  0  0  0  0  0
   59.0662   31.0970   45.5581 H   0  0  0  0  0  0  0  0  0  0  0  0
  1  2  1  0
  2  3  2  0
  2  4  2  0
  2  5  1  0
  5  6  2  0
  6  7  1  0
  7  8  2  0
  8  9  1  0
  9 10  1  0
 10 11  2  0
 11 12  1  0
 12 13  1  0
 12 14  2  0
 14 15  1  0
 15 16  2  0
 16 17  1  0
 17 18  1  0
 18 19  1  0
 19 20  1  0
 20 21  1  0
 21 22  1  0
  9 23  2  0
 23  5  1  0
 16 10  1  0
 22 17  1  0
  1 24  1  0
  1 25  1  0
  6 26  1  0
  7 27  1  0
  8 28  1  0
 11 29  1  0
 14 30  1  0
 15 31  1  0
 17 32  1  0
 18 33  1  0
 18 34  1  0
 19 35  1  0
 19 36  1  0
 20 37  1  0
 21 38  1  0
 21 39  1  0
 22 40  1  0
 22 41  1  0
 23 42  1  0
M  END
>  <UniqueID>  (48) 
43

>  <SMILES>  (48) 
NS(=O)(=O)c1cccc(-c2cc(F)ccc2C2CCNCC2)c1

>  <Energy>  (48) 
58.7048829850905

>  <Genealogy>  (48) 
NS(=O)(=O)c1cccc(-c2cc(F)ccc2C2CCNCC2)c1 (3D coordinates assigned)
NS(=O)(=O)c1cccc(-c2cc(F)ccc2C2CCNCC2)c1 (nonaromatic ring conformer: 58.7048829850905 kcal/mol)

>  <smiles>  (48) 
NS(=O)(=O)c1cccc(-c2cc(F)ccc2C2CCNCC2)c1

>  <score_type>  (48) 
oracle

>  <origin>  (48) 
adg

>  <m_score__min__energy>  (48) 
-9.1199999999999992

>  <m_primary>  (48) 
energy

$$$$
48:0
     RDKit          3D

 67 70  0  0  0  0  0  0  0  0999 V2000
   59.5760   35.7570   55.2400 C   0  0  0  0  0  0  0  0  0  0  0  0
   59.8980   34.1220   55.9700 S   0  0  0  0  0  0  0  0  0  0  0  0
   59.3350   33.2440   54.5190 C   0  0  0  0  0  0  0  0  0  0  0  0
   59.8320   33.5640   53.2980 N   0  0  0  0  0  0  0  0  0  0  0  0
   59.3850   32.9190   52.1880 C   0  0  0  0  0  0  0  0  0  0  0  0
   59.8620   33.1920   51.0090 N   0  0  0  0  0  0  0  0  0  0  0  0
   59.8230   32.3410   49.8470 C   0  0  0  0  0  0  0  0  0  0  0  0
   59.7770   30.9430   49.9840 C   0  0  0  0  0  0  0  0  0  0  0  0
   59.7960   30.1190   48.8610 C   0  0  0  0  0  0  0  0  0  0  0  0
   59.8820   30.6700   47.5750 C   0  0  0  0  0  0  0  0  0  0  0  0
   59.9030   29.7920   46.3830 C   0  0  0  0  0  0  0  0  0  0  0  0
   59.5380   30.2500   45.2660 O   0  0  0  0  0  0  0  0  0  0  0  0
   60.3570   28.4330   46.4890 N   0  0  0  0  0  0  0  0  0  0  0  0
   60.1050   27.4240   45.4550 C   0  0  0  0  0  0  0  0  0  0  0  0
   58.6420   27.5400   44.9740 C   0  0  0  0  0  0  0  0  0  0  0  0
   58.1170   26.1930   44.4590 C   0  0  0  0  0  0  0  0  0  0  0  0
   58.1470   25.1260   45.4970 N   0  0  0  0  0  0  0  0  0  0  0  0
   56.8220   24.9070   46.1140 C   0  0  0  0  0  0  0  0  0  0  0  0
   56.0730   26.1970   46.2490 C   0  0  0  0  0  0  0  0  0  0  0  0
   54.7260   26.2910   45.7910 N   0  0  0  0  0  0  0  0  0  0  0  0
   56.6360   27.2110   46.7490 O   0  0  0  0  0  0  0  0  0  0  0  0
   59.1730   25.3350   46.5510 C   0  0  0  0  0  0  0  0  0  0  0  0
   60.4300   26.0150   45.9980 C   0  0  0  0  0  0  0  0  0  0  0  0
   59.9490   32.0650   47.4320 C   0  0  0  0  0  0  0  0  0  0  0  0
   59.9370   32.9100   48.5590 C   0  0  0  0  0  0  0  0  0  0  0  0
   60.0520   34.4100   48.4010 C   0  0  0  0  0  0  0  0  0  0  0  0
   59.6430   34.7700   47.1320 F   0  0  0  0  0  0  0  0  0  0  0  0
   61.3680   34.7960   48.5800 F   0  0  0  0  0  0  0  0  0  0  0  0
   59.2720   35.0870   49.3230 F   0  0  0  0  0  0  0  0  0  0  0  0
   58.4470   31.9470   52.3120 N   0  0  0  0  0  0  0  0  0  0  0  0
   57.9370   31.6290   53.5330 C   0  0  0  0  0  0  0  0  0  0  0  0
   57.0400   30.6960   53.6680 N   0  0  0  0  0  0  0  0  0  0  0  0
   55.6970   30.7150   53.1530 C   0  0  0  0  0  0  0  0  0  0  0  0
   55.4950   31.0390   51.8050 C   0  0  0  0  0  0  0  0  0  0  0  0
   54.2060   31.0380   51.2610 C   0  0  0  0  0  0  0  0  0  0  0  0
   53.1060   30.6900   52.0560 C   0  0  0  0  0  0  0  0  0  0  0  0
   51.4760   30.6950   51.3880 S   0  0  0  0  0  0  0  0  0  0  0  0
   51.0270   32.3080   50.9640 N   0  0  0  0  0  0  0  0  0  0  0  0
   51.4170   29.8280   50.1620 O   0  0  0  0  0  0  0  0  0  0  0  0
   50.5140   30.1560   52.4090 O   0  0  0  0  0  0  0  0  0  0  0  0
   53.3060   30.3340   53.3950 C   0  0  0  0  0  0  0  0  0  0  0  0
   54.5930   30.3350   53.9410 C   0  0  0  0  0  0  0  0  0  0  0  0
   58.3930   32.2740   54.6360 N   0  0  0  0  0  0  0  0  0  0  0  0
   59.4307   36.4948   56.0428 H   0  0  0  0  0  0  0  0  0  0  0  0
   60.4325   36.0559   54.6179 H   0  0  0  0  0  0  0  0  0  0  0  0
   58.6701   35.7088   54.6179 H   0  0  0  0  0  0  0  0  0  0  0  0
   59.7255   30.4953   50.9875 H   0  0  0  0  0  0  0  0  0  0  0  0
   59.7431   29.0272   48.9844 H   0  0  0  0  0  0  0  0  0  0  0  0
   60.9560   28.1650   47.3020 H   0  0  0  0  0  0  0  0  0  0  0  0
   60.7613   27.5972   44.5894 H   0  0  0  0  0  0  0  0  0  0  0  0
   58.0138   27.8723   45.8136 H   0  0  0  0  0  0  0  0  0  0  0  0
   58.6039   28.2664   44.1489 H   0  0  0  0  0  0  0  0  0  0  0  0
   57.0783   26.3264   44.1222 H   0  0  0  0  0  0  0  0  0  0  0  0
   58.7751   25.8738   43.6374 H   0  0  0  0  0  0  0  0  0  0  0  0
   56.2410   24.2180   45.4834 H   0  0  0  0  0  0  0  0  0  0  0  0
   56.9687   24.4803   47.1172 H   0  0  0  0  0  0  0  0  0  0  0  0
   53.9820   26.7150   46.3900 H   0  0  0  0  0  0  0  0  0  0  0  0
   58.7456   25.9676   47.3429 H   0  0  0  0  0  0  0  0  0  0  0  0
   59.4635   24.3496   46.9442 H   0  0  0  0  0  0  0  0  0  0  0  0
   61.1748   26.1028   46.8027 H   0  0  0  0  0  0  0  0  0  0  0  0
   60.8240   25.4041   45.1725 H   0  0  0  0  0  0  0  0  0  0  0  0
   60.0118   32.5044   46.4255 H   0  0  0  0  0  0  0  0  0  0  0  0
   56.3557   31.2959   51.1700 H   0  0  0  0  0  0  0  0  0  0  0  0
   54.0557   31.3112   50.2061 H   0  0  0  0  0  0  0  0  0  0  0  0
   50.3690   32.2380   50.1530 H   0  0  0  0  0  0  0  0  0  0  0  0
   52.4463   30.0521   54.0206 H   0  0  0  0  0  0  0  0  0  0  0  0
   54.7440   30.0381   54.9894 H   0  0  0  0  0  0  0  0  0  0  0  0
  1  2  1  0
  2  3  1  0
  3  4  2  0
  4  5  1  0
  5  6  2  3
  6  7  1  0
  7  8  2  0
  8  9  1  0
  9 10  2  0
 10 11  1  0
 11 12  2  0
 11 13  1  0
 13 14  1  0
 14 15  1  0
 15 16  1  0
 16 17  1  0
 17 18  1  0
 18 19  1  0
 19 20  1  0
 19 21  2  0
 17 22  1  0
 22 23  1  0
 10 24  1  0
 24 25  2  0
 25 26  1  0
 26 27  1  0
 26 28  1  0
 26 29  1  0
  5 30  1  0
 30 31  1  0
 31 32  2  3
 32 33  1  0
 33 34  2  0
 34 35  1  0
 35 36  2  0
 36 37  1  0
 37 38  1  0
 37 39  2  0
 37 40  2  0
 36 41  1  0
 41 42  2  0
 31 43  1  0
 43  3  1  0
 25  7  1  0
 42 33  1  0
 23 14  1  0
  1 44  1  0
  1 45  1  0
  1 46  1  0
  8 47  1  0
  9 48  1  0
 13 49  1  0
 14 50  1  0
 15 51  1  0
 15 52  1  0
 16 53  1  0
 16 54  1  0
 18 55  1  0
 18 56  1  0
 20 57  1  0
 22 58  1  0
 22 59  1  0
 23 60  1  0
 23 61  1  0
 24 62  1  0
 34 63  1  0
 35 64  1  0
 38 65  1  0
 41 66  1  0
 42 67  1  0
M  CHG  4  20  -1  30  -1  38  -1  43  -1
M  END
>  <UniqueID>  (49) 
44

>  <SMILES>  (49) 
CSc1nc(=Nc2ccc(C(=O)NC3CCN(CC([NH-])=O)CC3)cc2C(F)(F)F)[n-]c(=Nc2ccc(S([NH-])(=O)=O)cc2)[n-]1

>  <Energy>  (49) 
89.36202116720942

>  <Genealogy>  (49) 
CSc1nc(=Nc2ccc(C(=O)NC3CCN(CC([NH-])=O)CC3)cc2C(F)(F)F)[n-]c(=Nc2ccc(S([NH-])(=O)=O)cc2)[n-]1 (protonated)
CSc1nc(=Nc2ccc(C(=O)NC3CCN(CC([NH-])=O)CC3)cc2C(F)(F)F)[n-]c(=Nc2ccc(S([NH-])(=O)=O)cc2)[n-]1 (3D coordinates assigned)
CSc1nc(=Nc2ccc(C(=O)NC3CCN(CC([NH-])=O)CC3)cc2C(F)(F)F)[n-]c(=Nc2ccc(S([NH-])(=O)=O)cc2)[n-]1 (nonaromatic ring conformer: 89.36202116720942 kcal/mol)

>  <smiles>  (49) 
CSc1nc(=Nc2ccc(C(=O)NC3CCN(CC(N)=O)CC3)cc2C(F)(F)F)[nH]c(=Nc2ccc(S(N)(=O)=O)cc2)[nH]1

>  <score_type>  (49) 
oracle

>  <origin>  (49) 
adg

>  <m_score__min__energy>  (49) 
-16.969999999999999

>  <m_primary>  (49) 
energy

$$$$
49:0
     RDKit          3D

 46 49  0  0  0  0  0  0  0  0999 V2000
   56.9330   34.1970   45.1900 C   0  0  0  0  0  0  0  0  0  0  0  0
   57.8490   32.7890   44.5990 S   0  0  0  0  0  0  0  0  0  0  0  0
   58.0410   32.9370   43.1160 O   0  0  0  0  0  0  0  0  0  0  0  0
   59.1980   32.7270   45.2580 O   0  0  0  0  0  0  0  0  0  0  0  0
   56.9660   31.3260   44.9070 N   0  0  0  0  0  0  0  0  0  0  0  0
   57.5500   30.1390   45.4780 C   0  0  0  0  0  0  0  0  0  0  0  0
   58.8290   30.1630   46.0610 C   0  0  0  0  0  0  0  0  0  0  0  0
   59.3930   29.0020   46.5970 C   0  0  0  0  0  0  0  0  0  0  0  0
   60.6680   29.0790   47.2470 N   0  0  0  0  0  0  0  0  0  0  0  0
   61.0110   29.6400   48.3820 C   0  0  0  0  0  0  0  0  0  0  0  0
   61.4290   30.9940   48.3390 C   0  0  0  0  0  0  0  0  0  0  0  0
   61.6390   31.6740   47.1180 C   0  0  0  0  0  0  0  0  0  0  0  0
   62.0050   33.0230   47.1110 C   0  0  0  0  0  0  0  0  0  0  0  0
   62.1570   33.7170   48.3120 C   0  0  0  0  0  0  0  0  0  0  0  0
   61.9440   33.0650   49.5270 C   0  0  0  0  0  0  0  0  0  0  0  0
   61.5840   31.7120   49.5480 C   0  0  0  0  0  0  0  0  0  0  0  0
   61.3720   31.1000   50.7360 N   0  0  0  0  0  0  0  0  0  0  0  0
   61.0670   29.7830   50.8280 C   0  0  0  0  0  0  0  0  0  0  0  0
   60.9370   29.2060   52.0960 C   0  0  0  0  0  0  0  0  0  0  0  0
   60.7540   27.8310   52.2280 C   0  0  0  0  0  0  0  0  0  0  0  0
   60.7430   27.0210   51.0940 C   0  0  0  0  0  0  0  0  0  0  0  0
   60.8600   27.5870   49.8220 C   0  0  0  0  0  0  0  0  0  0  0  0
   60.9390   28.9910   49.6560 C   0  0  0  0  0  0  0  0  0  0  0  0
   58.6550   27.8100   46.6000 C   0  0  0  0  0  0  0  0  0  0  0  0
   57.3930   27.7540   45.9930 C   0  0  0  0  0  0  0  0  0  0  0  0
   56.6190   26.4610   46.0020 C   0  0  0  0  0  0  0  0  0  0  0  0
   55.2430   26.7240   45.9970 O   0  0  0  0  0  0  0  0  0  0  0  0
   56.8380   28.9240   45.4390 C   0  0  0  0  0  0  0  0  0  0  0  0
   55.5690   28.8810   44.8670 O   0  0  0  0  0  0  0  0  0  0  0  0
   56.9321   34.1984   46.2900 H   0  0  0  0  0  0  0  0  0  0  0  0
   57.4034   35.1210   44.8225 H   0  0  0  0  0  0  0  0  0  0  0  0
   55.8977   34.1414   44.8225 H   0  0  0  0  0  0  0  0  0  0  0  0
   55.9320   31.3710   44.7660 H   0  0  0  0  0  0  0  0  0  0  0  0
   59.3927   31.1070   46.0957 H   0  0  0  0  0  0  0  0  0  0  0  0
   61.5135   31.1376   46.1659 H   0  0  0  0  0  0  0  0  0  0  0  0
   62.1739   33.5397   46.1547 H   0  0  0  0  0  0  0  0  0  0  0  0
   62.4449   34.7786   48.3009 H   0  0  0  0  0  0  0  0  0  0  0  0
   62.0593   33.6160   50.4720 H   0  0  0  0  0  0  0  0  0  0  0  0
   60.9795   29.8410   52.9932 H   0  0  0  0  0  0  0  0  0  0  0  0
   60.6186   27.3860   53.2248 H   0  0  0  0  0  0  0  0  0  0  0  0
   60.6417   25.9309   51.2009 H   0  0  0  0  0  0  0  0  0  0  0  0
   60.8912   26.9333   48.9378 H   0  0  0  0  0  0  0  0  0  0  0  0
   59.0694   26.9123   47.0822 H   0  0  0  0  0  0  0  0  0  0  0  0
   56.8806   25.8741   45.1092 H   0  0  0  0  0  0  0  0  0  0  0  0
   56.8742   25.8947   46.9099 H   0  0  0  0  0  0  0  0  0  0  0  0
   55.0970   27.4590   45.3440 H   0  0  0  0  0  0  0  0  0  0  0  0
  1  2  1  0
  2  3  2  0
  2  4  2  0
  2  5  1  0
  5  6  1  0
  6  7  2  0
  7  8  1  0
  8  9  1  0
  9 10  2  3
 10 11  1  0
 11 12  2  0
 12 13  1  0
 13 14  2  0
 14 15  1  0
 15 16  2  0
 16 17  1  0
 17 18  1  0
 18 19  2  0
 19 20  1  0
 20 21  2  0
 21 22  1  0
 22 23  2  0
  8 24  2  0
 24 25  1  0
 25 26  1  0
 26 27  1  0
 25 28  2  0
 28 29  1  0
 28  6  1  0
 23 10  1  0
 16 11  1  0
 23 18  1  0
  1 30  1  0
  1 31  1  0
  1 32  1  0
  5 33  1  0
  7 34  1  0
 12 35  1  0
 13 36  1  0
 14 37  1  0
 15 38  1  0
 19 39  1  0
 20 40  1  0
 21 41  1  0
 22 42  1  0
 24 43  1  0
 26 44  1  0
 26 45  1  0
 27 46  1  0
M  CHG  2  17  -1  29  -1
M  END
>  <UniqueID>  (50) 
45

>  <SMILES>  (50) 
CS(=O)(=O)Nc1cc(N=c2c3ccccc3[n-]c3ccccc23)cc(CO)c1[O-]

>  <Energy>  (50) 
78.19258530948223

>  <Genealogy>  (50) 
CS(=O)(=O)Nc1cc(N=c2c3ccccc3[n-]c3ccccc23)cc(CO)c1[O-] (protonated)
CS(=O)(=O)Nc1cc(N=c2c3ccccc3[n-]c3ccccc23)cc(CO)c1[O-] (3D coordinates assigned)
CS(=O)(=O)Nc1cc(N=c2c3ccccc3[n-]c3ccccc23)cc(CO)c1[O-] (optimized conformer: 78.19258530948223 kcal/mol)

>  <smiles>  (50) 
CS(=O)(=O)Nc1cc(N=c2c3ccccc3[nH]c3ccccc23)cc(CO)c1O

>  <score_type>  (50) 
oracle

>  <origin>  (50) 
adg

>  <m_score__min__energy>  (50) 
-12.07

>  <m_primary>  (50) 
energy

$$$$
50:0
     RDKit          3D

 40 43  0  0  0  0  0  0  0  0999 V2000
   56.3020   27.4410   45.6550 O   0  0  0  0  0  0  0  0  0  0  0  0
   57.0990   28.4150   45.6370 C   0  0  0  0  0  0  0  0  0  0  0  0
   56.5730   29.7310   45.4150 N   0  0  0  0  0  0  0  0  0  0  0  0
   56.9640   30.6010   44.3500 C   0  0  0  0  0  0  0  0  0  0  0  0
   57.7130   31.7500   44.6290 C   0  0  0  0  0  0  0  0  0  0  0  0
   58.1310   32.5850   43.5870 C   0  0  0  0  0  0  0  0  0  0  0  0
   57.7830   32.2840   42.2660 C   0  0  0  0  0  0  0  0  0  0  0  0
   58.1960   33.0880   41.2560 F   0  0  0  0  0  0  0  0  0  0  0  0
   57.0030   31.1570   41.9880 C   0  0  0  0  0  0  0  0  0  0  0  0
   56.5840   30.3230   43.0290 C   0  0  0  0  0  0  0  0  0  0  0  0
   58.5670   28.1520   45.8910 C   0  0  1  0  0  0  0  0  0  0  0  0
   59.3950   29.4580   46.0610 C   0  0  0  0  0  0  0  0  0  0  0  0
   59.9670   29.3070   47.4310 C   0  0  0  0  0  0  0  0  0  0  0  0
   60.8100   30.1580   48.1630 C   0  0  0  0  0  0  0  0  0  0  0  0
   61.2650   31.4580   47.6300 C   0  0  0  0  0  0  0  0  0  0  0  0
   62.6320   31.7750   47.5880 C   0  0  0  0  0  0  0  0  0  0  0  0
   63.0560   33.0040   47.0740 C   0  0  0  0  0  0  0  0  0  0  0  0
   62.1190   33.9210   46.5900 C   0  0  0  0  0  0  0  0  0  0  0  0
   60.7560   33.6090   46.6150 C   0  0  0  0  0  0  0  0  0  0  0  0
   59.5810   34.7580   46.0000 Cl  0  0  0  0  0  0  0  0  0  0  0  0
   60.3290   32.3790   47.1290 C   0  0  0  0  0  0  0  0  0  0  0  0
   61.2260   29.7240   49.4370 C   0  0  0  0  0  0  0  0  0  0  0  0
   60.7840   28.4840   49.9350 C   0  0  0  0  0  0  0  0  0  0  0  0
   59.9640   27.6920   49.1840 N   0  0  0  0  0  0  0  0  0  0  0  0
   59.5780   28.1080   47.9520 C   0  0  0  0  0  0  0  0  0  0  0  0
   58.7560   27.4090   47.0960 O   0  0  0  0  0  0  0  0  0  0  0  0
   57.9734   31.9969   45.6688 H   0  0  0  0  0  0  0  0  0  0  0  0
   58.7336   33.4786   43.8067 H   0  0  0  0  0  0  0  0  0  0  0  0
   56.7192   30.9267   40.9505 H   0  0  0  0  0  0  0  0  0  0  0  0
   55.9551   29.4471   42.8115 H   0  0  0  0  0  0  0  0  0  0  0  0
   58.9115   27.5964   45.0064 H   0  0  0  0  0  0  0  0  0  0  0  0
   60.1904   29.5249   45.3041 H   0  0  0  0  0  0  0  0  0  0  0  0
   58.7978   30.3732   45.9355 H   0  0  0  0  0  0  0  0  0  0  0  0
   63.3730   31.0529   47.9613 H   0  0  0  0  0  0  0  0  0  0  0  0
   64.1280   33.2495   47.0505 H   0  0  0  0  0  0  0  0  0  0  0  0
   62.4539   34.8890   46.1890 H   0  0  0  0  0  0  0  0  0  0  0  0
   59.2571   32.1324   47.1408 H   0  0  0  0  0  0  0  0  0  0  0  0
   61.8954   30.3534   50.0418 H   0  0  0  0  0  0  0  0  0  0  0  0
   61.1009   28.1513   50.9345 H   0  0  0  0  0  0  0  0  0  0  0  0
   59.6360   26.7730   49.5560 H   0  0  0  0  0  0  0  0  0  0  0  0
  1  2  2  0
  2  3  1  0
  3  4  1  0
  4  5  2  0
  5  6  1  0
  6  7  2  0
  7  8  1  0
  7  9  1  0
  9 10  2  0
  2 11  1  0
 11 12  1  0
 12 13  1  0
 13 14  2  0
 14 15  1  0
 15 16  2  0
 16 17  1  0
 17 18  2  0
 18 19  1  0
 19 20  1  0
 19 21  2  0
 14 22  1  0
 22 23  2  0
 23 24  1  0
 24 25  2  0
 25 26  1  0
 10  4  1  0
 26 11  1  0
 25 13  1  0
 21 15  1  0
  5 27  1  0
  6 28  1  0
  9 29  1  0
 10 30  1  0
 11 31  1  6
 12 32  1  0
 12 33  1  0
 16 34  1  0
 17 35  1  0
 18 36  1  0
 21 37  1  0
 22 38  1  0
 23 39  1  0
 24 40  1  0
M  CHG  2   3  -1  24   1
M  END
>  <UniqueID>  (51) 
46

>  <SMILES>  (51) 
O=C([N-]c1ccc(F)cc1)[C@H]1Cc2c(-c3cccc(Cl)c3)cc[nH+]c2O1

>  <Energy>  (51) 
71.63838273265459

>  <Genealogy>  (51) 
O=C([N-]c1ccc(F)cc1)C1Cc2c(-c3cccc(Cl)c3)cc[nH+]c2O1 (protonated)
O=C([N-]c1ccc(F)cc1)[C@H]1Cc2c(-c3cccc(Cl)c3)cc[nH+]c2O1 (chirality)
O=C([N-]c1ccc(F)cc1)[C@H]1Cc2c(-c3cccc(Cl)c3)cc[nH+]c2O1 (3D coordinates assigned)
O=C([N-]c1ccc(F)cc1)[C@H]1Cc2c(-c3cccc(Cl)c3)cc[nH+]c2O1 (nonaromatic ring conformer: 71.63838273265459 kcal/mol)

>  <smiles>  (51) 
O=C(Nc1ccc(F)cc1)C1Cc2c(-c3cccc(Cl)c3)ccnc2O1

>  <score_type>  (51) 
oracle

>  <origin>  (51) 
adg

>  <m_score__min__energy>  (51) 
-8.4900000000000002

>  <m_primary>  (51) 
energy

$$$$
51:0
     RDKit          3D

 40 42  0  0  1  0  0  0  0  0999 V2000
   57.1240   33.9410   45.4720 C   0  0  0  0  0  0  0  0  0  0  0  0
   58.4270   34.0100   46.0990 N   0  0  0  0  0  0  0  0  0  0  0  0
   59.5740   34.6230   45.4480 C   0  0  0  0  0  0  0  0  0  0  0  0
   58.6040   33.3780   47.4330 C   0  0  0  0  0  0  0  0  0  0  0  0
   57.5980   32.8630   47.8780 O   0  0  0  0  0  0  0  0  0  0  0  0
   59.9500   33.5000   47.9210 C   0  0  0  0  0  0  0  0  0  0  0  0
   60.1250   34.5890   48.7990 N   0  0  0  0  0  0  0  0  0  0  0  0
   61.3430   34.6170   49.2450 N   0  0  0  0  0  0  0  0  0  0  0  0
   62.0500   33.6150   48.7440 C   0  0  0  0  0  0  0  0  0  0  0  0
   63.3090   33.2550   48.9470 N   0  0  0  0  0  0  0  0  0  0  0  0
   63.7540   32.1640   48.3140 C   0  0  0  0  0  0  0  0  0  0  0  0
   62.9700   31.4680   47.5140 N   0  0  0  0  0  0  0  0  0  0  0  0
   61.6760   31.8330   47.3010 C   0  0  0  0  0  0  0  0  0  0  0  0
   61.0220   31.1690   46.5300 N   0  0  0  0  0  0  0  0  0  0  0  0
   60.1260   30.1940   46.5470 C   0  0  0  0  0  0  0  0  0  0  0  0
   60.2700   28.9210   47.1220 C   0  0  0  0  0  0  0  0  0  0  0  0
   59.3350   27.9320   46.9100 C   0  0  0  0  0  0  0  0  0  0  0  0
   58.2180   28.1750   46.1180 C   0  0  0  0  0  0  0  0  0  0  0  0
   58.0390   29.3940   45.5420 C   0  0  0  0  0  0  0  0  0  0  0  0
   56.6700   29.7450   44.5010 S   0  0  0  0  0  0  0  0  0  0  0  0
   56.9640   29.1720   42.8950 N   0  0  0  0  0  0  0  0  0  0  0  0
   56.3190   31.1720   44.5100 O   0  0  0  0  0  0  0  0  0  0  0  0
   55.5110   28.9330   45.0190 O   0  0  0  0  0  0  0  0  0  0  0  0
   58.9540   30.3720   45.7480 C   0  0  0  0  0  0  0  0  0  0  0  0
   61.1530   32.9330   47.9170 C   0  0  0  0  0  0  0  0  0  0  0  0
   56.3454   33.8998   46.2480 H   0  0  0  0  0  0  0  0  0  0  0  0
   56.9708   34.8323   44.8458 H   0  0  0  0  0  0  0  0  0  0  0  0
   57.0657   33.0385   44.8458 H   0  0  0  0  0  0  0  0  0  0  0  0
   60.2726   34.9964   46.2113 H   0  0  0  0  0  0  0  0  0  0  0  0
   60.0818   33.8760   44.8202 H   0  0  0  0  0  0  0  0  0  0  0  0
   59.2351   35.4603   44.8202 H   0  0  0  0  0  0  0  0  0  0  0  0
   59.3710   35.2550   49.0300 H   0  0  0  0  0  0  0  0  0  0  0  0
   63.9600   33.7620   49.5640 H   0  0  0  0  0  0  0  0  0  0  0  0
   64.7947   31.8408   48.4637 H   0  0  0  0  0  0  0  0  0  0  0  0
   61.1456   28.7097   47.7534 H   0  0  0  0  0  0  0  0  0  0  0  0
   59.4729   26.9426   47.3706 H   0  0  0  0  0  0  0  0  0  0  0  0
   57.4766   27.3785   45.9568 H   0  0  0  0  0  0  0  0  0  0  0  0
   56.6420   28.1790   42.7610 H   0  0  0  0  0  0  0  0  0  0  0  0
   57.9670   29.2860   42.6230 H   0  0  0  0  0  0  0  0  0  0  0  0
   58.7866   31.3518   45.2769 H   0  0  0  0  0  0  0  0  0  0  0  0
  1  2  1  0
  2  3  1  0
  2  4  1  0
  4  5  2  0
  4  6  1  0
  6  7  1  0
  7  8  1  0
  8  9  2  0
  9 10  1  0
 10 11  1  0
 11 12  2  0
 12 13  1  0
 13 14  2  0
 14 15  1  0
 15 16  2  0
 16 17  1  0
 17 18  2  0
 18 19  1  0
 19 20  1  0
 20 21  1  0
 20 22  2  0
 20 23  2  0
 19 24  2  0
 13 25  1  0
 25  6  2  0
 25  9  1  0
 24 15  1  0
  1 26  1  0
  1 27  1  0
  1 28  1  0
  3 29  1  0
  3 30  1  0
  3 31  1  0
  7 32  1  0
 10 33  1  0
 11 34  1  0
 16 35  1  0
 17 36  1  0
 18 37  1  0
 21 38  1  0
 21 39  1  0
 24 40  1  0
M  END
>  <smiles>  (52) 
CN(C)C(=O)c1[nH]nc2[nH]cnc(=Nc3cccc(S(N)(=O)=O)c3)c12

>  <score_type>  (52) 
oracle

>  <origin>  (52) 
adg

>  <m_score__min__energy>  (52) 
-8.8100000000000005

>  <m_primary>  (52) 
energy

$$$$
52:0
     RDKit          3D

 62 66  0  0  0  0  0  0  0  0999 V2000
   60.4740   31.1550   47.4930 O   0  0  0  0  0  0  0  0  0  0  0  0
   59.3130   31.6390   47.5780 C   0  0  0  0  0  0  0  0  0  0  0  0
   58.6200   31.6180   48.8300 N   0  0  0  0  0  0  0  0  0  0  0  0
   59.1040   32.2970   50.0250 C   0  0  0  0  0  0  0  0  0  0  0  0
   60.5510   31.9140   50.2730 C   0  0  0  0  0  0  0  0  0  0  0  0
   60.9340   30.5920   50.6530 C   0  0  0  0  0  0  0  0  0  0  0  0
   59.9910   29.4610   50.8470 C   0  0  0  0  0  0  0  0  0  0  0  0
   59.2880   29.0120   49.9020 O   0  0  0  0  0  0  0  0  0  0  0  0
   59.8890   28.8580   52.1440 N   0  0  0  0  0  0  0  0  0  0  0  0
   59.1510   29.4500   53.2540 C   0  0  0  0  0  0  0  0  0  0  0  0
   58.0320   30.3010   52.7420 C   0  0  0  0  0  0  0  0  0  0  0  0
   57.8600   31.6460   52.9980 C   0  0  0  0  0  0  0  0  0  0  0  0
   56.7010   32.0010   52.3430 C   0  0  0  0  0  0  0  0  0  0  0  0
   56.2340   30.8510   51.7380 C   0  0  0  0  0  0  0  0  0  0  0  0
   57.0490   29.8540   51.9950 O   0  0  0  0  0  0  0  0  0  0  0  0
   62.2510   30.3200   50.8620 N   0  0  0  0  0  0  0  0  0  0  0  0
   63.2330   31.2400   50.7090 C   0  0  0  0  0  0  0  0  0  0  0  0
   64.5640   30.8840   50.9550 C   0  0  0  0  0  0  0  0  0  0  0  0
   65.5850   31.8210   50.7850 C   0  0  0  0  0  0  0  0  0  0  0  0
   65.2790   33.1200   50.3740 C   0  0  0  0  0  0  0  0  0  0  0  0
   63.9510   33.4890   50.1340 C   0  0  0  0  0  0  0  0  0  0  0  0
   62.9130   32.5500   50.3030 C   0  0  0  0  0  0  0  0  0  0  0  0
   61.5650   32.8820   50.0810 C   0  0  0  0  0  0  0  0  0  0  0  0
   61.2620   34.0500   49.7110 O   0  0  0  0  0  0  0  0  0  0  0  0
   58.6520   32.1960   46.3810 C   0  0  0  0  0  0  0  0  0  0  0  0
   58.7440   33.5650   46.0800 C   0  0  0  0  0  0  0  0  0  0  0  0
   58.1820   34.0680   44.9030 C   0  0  0  0  0  0  0  0  0  0  0  0
   57.5450   33.2090   44.0060 C   0  0  0  0  0  0  0  0  0  0  0  0
   57.4500   31.8390   44.2870 C   0  0  0  0  0  0  0  0  0  0  0  0
   56.8520   30.8850   43.2920 C   0  0  0  0  0  0  0  0  0  0  0  0
   57.0740   29.5230   43.7540 N   0  0  0  0  0  0  0  0  0  0  0  0
   56.3880   28.9340   44.8620 C   0  0  0  0  0  0  0  0  0  0  0  0
   55.2500   29.3670   45.1910 O   0  0  0  0  0  0  0  0  0  0  0  0
   57.0230   27.8210   45.6130 C   0  0  0  0  0  0  0  0  0  0  0  0
   58.4200   27.8230   45.8060 C   0  0  0  0  0  0  0  0  0  0  0  0
   59.0430   26.7900   46.5090 C   0  0  0  0  0  0  0  0  0  0  0  0
   58.2840   25.7490   47.0430 C   0  0  0  0  0  0  0  0  0  0  0  0
   56.8990   25.7330   46.8650 C   0  0  0  0  0  0  0  0  0  0  0  0
   56.2650   26.7580   46.1550 C   0  0  0  0  0  0  0  0  0  0  0  0
   54.8820   26.7110   46.0050 O   0  0  0  0  0  0  0  0  0  0  0  0
   57.9820   31.3430   45.4880 C   0  0  0  0  0  0  0  0  0  0  0  0
   59.0319   33.3854   49.8829 H   0  0  0  0  0  0  0  0  0  0  0  0
   58.4924   31.9989   50.8893 H   0  0  0  0  0  0  0  0  0  0  0  0
   58.7377   28.6479   53.8831 H   0  0  0  0  0  0  0  0  0  0  0  0
   59.8358   30.0778   53.8431 H   0  0  0  0  0  0  0  0  0  0  0  0
   58.5113   32.2978   53.5988 H   0  0  0  0  0  0  0  0  0  0  0  0
   56.2405   32.9994   52.3089 H   0  0  0  0  0  0  0  0  0  0  0  0
   55.3183   30.7807   51.1326 H   0  0  0  0  0  0  0  0  0  0  0  0
   64.8065   29.8626   51.2834 H   0  0  0  0  0  0  0  0  0  0  0  0
   66.6303   31.5360   50.9748 H   0  0  0  0  0  0  0  0  0  0  0  0
   66.0852   33.8560   50.2384 H   0  0  0  0  0  0  0  0  0  0  0  0
   63.7161   34.5144   49.8126 H   0  0  0  0  0  0  0  0  0  0  0  0
   59.2607   34.2445   46.7738 H   0  0  0  0  0  0  0  0  0  0  0  0
   58.2420   35.1441   44.6831 H   0  0  0  0  0  0  0  0  0  0  0  0
   57.1160   33.6086   43.0752 H   0  0  0  0  0  0  0  0  0  0  0  0
   55.7719   31.0734   43.2026 H   0  0  0  0  0  0  0  0  0  0  0  0
   57.3241   31.0270   42.3087 H   0  0  0  0  0  0  0  0  0  0  0  0
   59.0248   28.6466   45.3986 H   0  0  0  0  0  0  0  0  0  0  0  0
   60.1349   26.7973   46.6420 H   0  0  0  0  0  0  0  0  0  0  0  0
   58.7761   24.9409   47.6041 H   0  0  0  0  0  0  0  0  0  0  0  0
   56.3031   24.9096   47.2856 H   0  0  0  0  0  0  0  0  0  0  0  0
   57.8731   30.2760   45.7322 H   0  0  0  0  0  0  0  0  0  0  0  0
  1  2  2  0
  2  3  1  0
  3  4  1  0
  4  5  1  0
  5  6  2  0
  6  7  1  0
  7  8  2  0
  7  9  1  0
  9 10  1  0
 10 11  1  0
 11 12  2  0
 12 13  1  0
 13 14  2  0
 14 15  1  0
  6 16  1  0
 16 17  1  0
 17 18  2  0
 18 19  1  0
 19 20  2  0
 20 21  1  0
 21 22  2  0
 22 23  1  0
 23 24  2  0
  2 25  1  0
 25 26  2  0
 26 27  1  0
 27 28  2  0
 28 29  1  0
 29 30  1  0
 30 31  1  0
 31 32  1  0
 32 33  2  0
 32 34  1  0
 34 35  2  0
 35 36  1  0
 36 37  2  0
 37 38  1  0
 38 39  2  0
 39 40  1  0
 29 41  2  0
 23  5  1  0
 41 25  1  0
 15 11  1  0
 22 17  1  0
 39 34  1  0
  4 42  1  0
  4 43  1  0
 10 44  1  0
 10 45  1  0
 12 46  1  0
 13 47  1  0
 14 48  1  0
 18 49  1  0
 19 50  1  0
 20 51  1  0
 21 52  1  0
 26 53  1  0
 27 54  1  0
 28 55  1  0
 30 56  1  0
 30 57  1  0
 35 58  1  0
 36 59  1  0
 37 60  1  0
 38 61  1  0
 41 62  1  0
M  CHG  5   3  -1   9  -1  16  -1  31  -1  40  -1
M  END
>  <UniqueID>  (53) 
47

>  <SMILES>  (53) 
O=C([N-]Cc1c(C(=O)[N-]Cc2ccco2)[n-]c2ccccc2c1=O)c1cccc(C[N-]C(=O)c2ccccc2[O-])c1

>  <Energy>  (53) 
96.80210927988874

>  <Genealogy>  (53) 
O=C([N-]Cc1c(C(=O)[N-]Cc2ccco2)[n-]c2ccccc2c1=O)c1cccc(C[N-]C(=O)c2ccccc2[O-])c1 (protonated)
O=C([N-]Cc1c(C(=O)[N-]Cc2ccco2)[n-]c2ccccc2c1=O)c1cccc(C[N-]C(=O)c2ccccc2[O-])c1 (3D coordinates assigned)
O=C([N-]Cc1c(C(=O)[N-]Cc2ccco2)[n-]c2ccccc2c1=O)c1cccc(C[N-]C(=O)c2ccccc2[O-])c1 (optimized conformer: 96.80210927988874 kcal/mol)

>  <smiles>  (53) 
O=C(NCc1c(C(=O)NCc2ccco2)[nH]c2ccccc2c1=O)c1cccc(CNC(=O)c2ccccc2O)c1

>  <score_type>  (53) 
oracle

>  <origin>  (53) 
adg

>  <m_score__min__energy>  (53) 
-18.239999999999998

>  <m_primary>  (53) 
energy

$$$$
53:0
     RDKit          3D

 53 56  0  0  0  0  0  0  0  0999 V2000
   58.5550   28.4450   48.2990 O   0  0  0  0  0  0  0  0  0  0  0  0
   59.1900   29.1470   47.4640 C   0  0  0  0  0  0  0  0  0  0  0  0
   59.0420   28.8700   46.0040 C   0  0  0  0  0  0  0  0  0  0  0  0
   57.9450   29.6860   45.4590 N   0  0  0  0  0  0  0  0  0  0  0  0
   56.7380   29.0360   44.9920 C   0  0  0  0  0  0  0  0  0  0  0  0
   56.4800   27.8450   45.3230 O   0  0  0  0  0  0  0  0  0  0  0  0
   55.7870   29.7620   44.0890 C   0  0  0  0  0  0  0  0  0  0  0  0
   56.7570   30.5470   42.7720 S   0  0  0  0  0  0  0  0  0  0  0  0
   57.6280   31.6090   43.9290 C   0  0  0  0  0  0  0  0  0  0  0  0
   57.7520   32.9720   43.6440 C   0  0  0  0  0  0  0  0  0  0  0  0
   58.4530   33.8100   44.5120 C   0  0  0  0  0  0  0  0  0  0  0  0
   59.0180   33.2960   45.6830 C   0  0  0  0  0  0  0  0  0  0  0  0
   59.8800   34.3680   46.7840 S   0  0  0  0  0  0  0  0  0  0  0  0
   60.3360   35.5980   46.0450 O   0  0  0  0  0  0  0  0  0  0  0  0
   58.9400   34.7920   47.8790 O   0  0  0  0  0  0  0  0  0  0  0  0
   61.2510   33.5360   47.4730 N   0  0  0  0  0  0  0  0  0  0  0  0
   61.6550   34.1940   48.7310 C   0  0  0  0  0  0  0  0  0  0  0  0
   62.7430   33.3790   49.4630 C   0  0  0  0  0  0  0  0  0  0  0  0
   63.5880   32.5220   48.5030 C   0  0  0  0  0  0  0  0  0  0  0  0
   63.7370   33.2070   47.1440 C   0  0  0  0  0  0  0  0  0  0  0  0
   62.3660   33.4990   46.4930 C   0  0  0  0  0  0  0  0  0  0  0  0
   58.8600   31.9380   45.9930 C   0  0  0  0  0  0  0  0  0  0  0  0
   58.1730   31.0760   45.1160 C   0  0  0  0  0  0  0  0  0  0  0  0
   60.0380   30.2180   47.8980 N   0  0  0  0  0  0  0  0  0  0  0  0
   59.8950   30.9680   49.1150 C   0  0  0  0  0  0  0  0  0  0  0  0
   58.9130   31.9670   49.2600 C   0  0  0  0  0  0  0  0  0  0  0  0
   58.8270   32.7010   50.4480 C   0  0  0  0  0  0  0  0  0  0  0  0
   59.7230   32.4570   51.4910 C   0  0  0  0  0  0  0  0  0  0  0  0
   60.7140   31.4830   51.3460 C   0  0  0  0  0  0  0  0  0  0  0  0
   60.8060   30.7460   50.1580 C   0  0  0  0  0  0  0  0  0  0  0  0
   61.7780   29.8100   50.0270 F   0  0  0  0  0  0  0  0  0  0  0  0
   59.9790   29.1223   45.4860 H   0  0  0  0  0  0  0  0  0  0  0  0
   58.8158   27.8040   45.8539 H   0  0  0  0  0  0  0  0  0  0  0  0
   55.0702   29.0511   43.6521 H   0  0  0  0  0  0  0  0  0  0  0  0
   55.2250   30.5199   44.6545 H   0  0  0  0  0  0  0  0  0  0  0  0
   57.2955   33.3852   42.7325 H   0  0  0  0  0  0  0  0  0  0  0  0
   58.5614   34.8785   44.2742 H   0  0  0  0  0  0  0  0  0  0  0  0
   60.9400   32.5570   47.6820 H   0  0  0  0  0  0  0  0  0  0  0  0
   62.0498   35.1948   48.5017 H   0  0  0  0  0  0  0  0  0  0  0  0
   60.7737   34.2652   49.3855 H   0  0  0  0  0  0  0  0  0  0  0  0
   63.4094   34.0764   49.9918 H   0  0  0  0  0  0  0  0  0  0  0  0
   62.2350   32.6958   50.1595 H   0  0  0  0  0  0  0  0  0  0  0  0
   64.5857   32.3696   48.9404 H   0  0  0  0  0  0  0  0  0  0  0  0
   63.0805   31.5573   48.3555 H   0  0  0  0  0  0  0  0  0  0  0  0
   64.2750   34.1566   47.2814 H   0  0  0  0  0  0  0  0  0  0  0  0
   64.2928   32.5292   46.4794 H   0  0  0  0  0  0  0  0  0  0  0  0
   62.4195   34.4742   45.9869 H   0  0  0  0  0  0  0  0  0  0  0  0
   62.1565   32.6801   45.7891 H   0  0  0  0  0  0  0  0  0  0  0  0
   59.2767   31.5415   46.9306 H   0  0  0  0  0  0  0  0  0  0  0  0
   58.2119   32.1707   48.4372 H   0  0  0  0  0  0  0  0  0  0  0  0
   58.0512   33.4727   50.5608 H   0  0  0  0  0  0  0  0  0  0  0  0
   59.6485   33.0314   52.4262 H   0  0  0  0  0  0  0  0  0  0  0  0
   61.4230   31.2945   52.1656 H   0  0  0  0  0  0  0  0  0  0  0  0
  1  2  2  0
  2  3  1  0
  3  4  1  0
  4  5  1  0
  5  6  2  0
  5  7  1  0
  7  8  1  0
  8  9  1  0
  9 10  2  0
 10 11  1  0
 11 12  2  0
 12 13  1  0
 13 14  2  0
 13 15  2  0
 13 16  1  0
 16 17  1  0
 17 18  1  0
 18 19  1  0
 19 20  1  0
 20 21  1  0
 12 22  1  0
 22 23  2  0
  2 24  1  0
 24 25  1  0
 25 26  2  0
 26 27  1  0
 27 28  2  0
 28 29  1  0
 29 30  2  0
 30 31  1  0
 23  4  1  0
 30 25  1  0
 23  9  1  0
 21 16  1  0
  3 32  1  0
  3 33  1  0
  7 34  1  0
  7 35  1  0
 10 36  1  0
 11 37  1  0
 16 38  1  0
 17 39  1  0
 17 40  1  0
 18 41  1  0
 18 42  1  0
 19 43  1  0
 19 44  1  0
 20 45  1  0
 20 46  1  0
 21 47  1  0
 21 48  1  0
 22 49  1  0
 26 50  1  0
 27 51  1  0
 28 52  1  0
 29 53  1  0
M  CHG  2  16   1  24  -1
M  END
>  <UniqueID>  (54) 
48

>  <SMILES>  (54) 
O=C(CN1C(=O)CSc2ccc(S(=O)(=O)[NH+]3CCCCC3)cc21)[N-]c1ccccc1F

>  <Energy>  (54) 
67.93351529189374

>  <Genealogy>  (54) 
O=C(CN1C(=O)CSc2ccc(S(=O)(=O)[NH+]3CCCCC3)cc21)[N-]c1ccccc1F (protonated)
O=C(CN1C(=O)CSc2ccc(S(=O)(=O)[NH+]3CCCCC3)cc21)[N-]c1ccccc1F (3D coordinates assigned)
O=C(CN1C(=O)CSc2ccc(S(=O)(=O)[NH+]3CCCCC3)cc21)[N-]c1ccccc1F (nonaromatic ring conformer: 67.93351529189374 kcal/mol)

>  <smiles>  (54) 
O=C(CN1C(=O)CSc2ccc(S(=O)(=O)N3CCCCC3)cc21)Nc1ccccc1F

>  <score_type>  (54) 
oracle

>  <origin>  (54) 
adg

>  <m_score__min__energy>  (54) 
-9.7699999999999996

>  <m_primary>  (54) 
energy

$$$$
54:0
     RDKit          3D

 36 38  0  0  0  0  0  0  0  0999 V2000
   57.5568   33.3942   42.8734 H   0  0  0  0  0  0  0  0  0  0  0  0
   57.5710   32.4650   43.4620 C   0  0  0  0  0  0  0  0  0  0  0  0
   57.3730   31.2340   42.8300 C   0  0  0  0  0  0  0  0  0  0  0  0
   57.2076   31.1947   41.7432 H   0  0  0  0  0  0  0  0  0  0  0  0
   57.3850   30.0520   43.5780 C   0  0  0  0  0  0  0  0  0  0  0  0
   57.2356   29.0849   43.0756 H   0  0  0  0  0  0  0  0  0  0  0  0
   57.5870   30.0940   44.9680 C   0  0  0  0  0  0  0  0  0  0  0  0
   57.6220   28.8320   45.7480 C   0  0  0  0  0  0  0  0  0  0  0  0
   58.6090   28.5890   46.7260 C   0  0  0  0  0  0  0  0  0  0  0  0
   59.6020   29.5850   47.0700 C   0  0  0  0  0  0  0  0  0  0  0  0
   60.3960   30.3800   47.3450 N   0  0  0  0  0  0  0  0  0  0  0  0
   58.5840   27.3630   47.4020 C   0  0  0  0  0  0  0  0  0  0  0  0
   59.4530   27.0900   48.2740 O   0  0  0  0  0  0  0  0  0  0  0  0
   57.6150   26.4580   47.1240 N   0  0  0  0  0  0  0  0  0  0  0  0
   56.6480   26.7070   46.2070 C   0  0  0  0  0  0  0  0  0  0  0  0
   55.7450   25.7910   45.9920 N   0  0  0  0  0  0  0  0  0  0  0  0
   55.9270   24.5270   45.3370 C   0  0  0  0  0  0  0  0  0  0  0  0
   55.4200   23.3390   45.8920 C   0  0  0  0  0  0  0  0  0  0  0  0
   54.8360   23.3752   46.8235 H   0  0  0  0  0  0  0  0  0  0  0  0
   55.6550   22.1120   45.2650 C   0  0  0  0  0  0  0  0  0  0  0  0
   55.2315   21.1898   45.6896 H   0  0  0  0  0  0  0  0  0  0  0  0
   56.4290   22.0520   44.0960 C   0  0  0  0  0  0  0  0  0  0  0  0
   56.6480   20.7410   43.4010 C   0  0  0  0  0  0  0  0  0  0  0  0
   56.7807   19.9465   44.1501 H   0  0  0  0  0  0  0  0  0  0  0  0
   55.7761   20.5095   42.7716 H   0  0  0  0  0  0  0  0  0  0  0  0
   57.5478   20.8055   42.7716 H   0  0  0  0  0  0  0  0  0  0  0  0
   56.9490   23.2370   43.5530 C   0  0  0  0  0  0  0  0  0  0  0  0
   57.5443   23.2006   42.6287 H   0  0  0  0  0  0  0  0  0  0  0  0
   56.7140   24.4630   44.1810 C   0  0  0  0  0  0  0  0  0  0  0  0
   57.1499   25.3831   43.7646 H   0  0  0  0  0  0  0  0  0  0  0  0
   56.6670   27.8860   45.5120 N   0  0  0  0  0  0  0  0  0  0  0  0
   55.9780   28.0620   44.7470 H   0  0  0  0  0  0  0  0  0  0  0  0
   57.8000   31.3350   45.5930 C   0  0  0  0  0  0  0  0  0  0  0  0
   57.9777   31.3783   46.6777 H   0  0  0  0  0  0  0  0  0  0  0  0
   57.7870   32.5150   44.8420 C   0  0  0  0  0  0  0  0  0  0  0  0
   57.9470   33.4836   45.3382 H   0  0  0  0  0  0  0  0  0  0  0  0
  1  2  1  0
  2  3  2  0
  3  4  1  0
  3  5  1  0
  5  6  1  0
  5  7  2  0
  7  8  1  0
  8  9  2  0
  9 10  1  0
 10 11  3  0
  9 12  1  0
 12 13  2  0
 12 14  1  0
 14 15  1  0
 15 16  2  0
 16 17  1  0
 17 18  2  0
 18 19  1  0
 18 20  1  0
 20 21  1  0
 20 22  2  0
 22 23  1  0
 23 24  1  0
 23 25  1  0
 23 26  1  0
 22 27  1  0
 27 28  1  0
 27 29  2  0
 29 30  1  0
 15 31  1  0
 31 32  1  0
  7 33  1  0
 33 34  1  0
 33 35  2  0
 35 36  1  0
 35  2  1  0
 31  8  1  0
 29 17  1  0
M  CHG  1  14  -1
M  END
>  <UniqueID>  (55) 
49

>  <SMILES>  (55) 
Cc1ccc(/N=c2/[n-]c(=O)c(C#N)c(-c3ccccc3)[nH]2)cc1

>  <Energy>  (55) 
54.95396375420522

>  <Genealogy>  (55) 
Cc1ccc(N=c2[n-]c(=O)c(C#N)c(-c3ccccc3)[nH]2)cc1 (protonated)
Cc1ccc(/N=c2/[n-]c(=O)c(C#N)c(-c3ccccc3)[nH]2)cc1 (cis-trans isomerization)
Cc1ccc(/N=c2/[n-]c(=O)c(C#N)c(-c3ccccc3)[nH]2)cc1 (3D coordinates assigned)
Cc1ccc(/N=c2/[n-]c(=O)c(C#N)c(-c3ccccc3)[nH]2)cc1 (optimized conformer: 54.95396375420522 kcal/mol)

>  <smiles>  (55) 
Cc1ccc(N=c2[nH]c(-c3ccccc3)c(C#N)c(=O)[nH]2)cc1

>  <score_type>  (55) 
oracle

>  <origin>  (55) 
adg

>  <m_score__min__energy>  (55) 
-8.8300000000000001

>  <m_primary>  (55) 
energy

$$$$
55:0
     RDKit          3D

 40 42  0  0  0  0  0  0  0  0999 V2000
   56.3110   22.9300   43.4370 C   0  0  0  0  0  0  0  0  0  0  0  0
   57.3800   23.4230   44.4100 C   0  0  0  0  0  0  0  0  0  0  0  0
   56.9570   23.2870   45.8480 C   0  0  0  0  0  0  0  0  0  0  0  0
   57.5100   22.4230   46.7220 N   0  0  0  0  0  0  0  0  0  0  0  0
   56.8080   22.6270   47.8540 C   0  0  0  0  0  0  0  0  0  0  0  0
   57.0370   21.9960   48.9180 O   0  0  0  0  0  0  0  0  0  0  0  0
   55.8370   23.5550   47.7540 N   0  0  0  0  0  0  0  0  0  0  0  0
   55.9310   23.9750   46.4780 C   0  0  0  0  0  0  0  0  0  0  0  0
   55.0230   24.9770   45.8820 C   0  0  0  0  0  0  0  0  0  0  0  0
   53.9730   24.6020   45.2990 O   0  0  0  0  0  0  0  0  0  0  0  0
   55.2650   26.3840   46.0220 N   0  0  0  0  0  0  0  0  0  0  0  0
   56.5440   27.0310   45.9620 C   0  0  0  0  0  0  0  0  0  0  0  0
   57.6860   26.4580   46.5440 C   0  0  0  0  0  0  0  0  0  0  0  0
   58.9260   27.0920   46.4330 C   0  0  0  0  0  0  0  0  0  0  0  0
   59.0430   28.3010   45.7390 C   0  0  0  0  0  0  0  0  0  0  0  0
   60.6470   28.9920   45.5320 Cl  0  0  0  0  0  0  0  0  0  0  0  0
   57.8980   28.8860   45.1570 C   0  0  0  0  0  0  0  0  0  0  0  0
   57.9660   30.1160   44.4240 N   0  0  0  0  0  0  0  0  0  0  0  0
   57.2150   31.2940   44.7460 C   0  0  0  0  0  0  0  0  0  0  0  0
   55.9690   31.3140   44.5470 O   0  0  0  0  0  0  0  0  0  0  0  0
   57.9030   32.4940   45.2750 C   0  0  0  0  0  0  0  0  0  0  0  0
   58.4270   33.4650   44.4000 C   0  0  0  0  0  0  0  0  0  0  0  0
   59.0770   34.5950   44.9050 C   0  0  0  0  0  0  0  0  0  0  0  0
   59.2140   34.7690   46.2840 C   0  0  0  0  0  0  0  0  0  0  0  0
   58.6990   33.8130   47.1620 C   0  0  0  0  0  0  0  0  0  0  0  0
   58.0470   32.6800   46.6630 C   0  0  0  0  0  0  0  0  0  0  0  0
   56.6660   28.2260   45.2440 C   0  0  0  0  0  0  0  0  0  0  0  0
   55.4544   22.5349   44.0028 H   0  0  0  0  0  0  0  0  0  0  0  0
   55.9782   23.7656   42.8037 H   0  0  0  0  0  0  0  0  0  0  0  0
   56.7305   22.1344   42.8037 H   0  0  0  0  0  0  0  0  0  0  0  0
   58.2966   22.8349   44.2547 H   0  0  0  0  0  0  0  0  0  0  0  0
   57.5466   24.4918   44.2102 H   0  0  0  0  0  0  0  0  0  0  0  0
   57.6041   25.5063   47.0894 H   0  0  0  0  0  0  0  0  0  0  0  0
   59.8155   26.6379   46.8940 H   0  0  0  0  0  0  0  0  0  0  0  0
   58.3243   33.3336   43.3127 H   0  0  0  0  0  0  0  0  0  0  0  0
   59.4817   35.3493   44.2142 H   0  0  0  0  0  0  0  0  0  0  0  0
   59.7272   35.6585   46.6782 H   0  0  0  0  0  0  0  0  0  0  0  0
   58.8061   33.9509   48.2480 H   0  0  0  0  0  0  0  0  0  0  0  0
   57.6444   31.9299   47.3596 H   0  0  0  0  0  0  0  0  0  0  0  0
   55.7844   28.6516   44.7424 H   0  0  0  0  0  0  0  0  0  0  0  0
  1  2  1  0
  2  3  1  0
  3  4  1  0
  4  5  1  0
  5  6  2  0
  5  7  1  0
  7  8  1  0
  8  9  1  0
  9 10  2  0
  9 11  1  0
 11 12  1  0
 12 13  2  0
 13 14  1  0
 14 15  2  0
 15 16  1  0
 15 17  1  0
 17 18  1  0
 18 19  1  0
 19 20  2  0
 19 21  1  0
 21 22  2  0
 22 23  1  0
 23 24  2  0
 24 25  1  0
 25 26  2  0
 17 27  2  0
  8  3  2  0
 27 12  1  0
 26 21  1  0
  1 28  1  0
  1 29  1  0
  1 30  1  0
  2 31  1  0
  2 32  1  0
 13 33  1  0
 14 34  1  0
 22 35  1  0
 23 36  1  0
 24 37  1  0
 25 38  1  0
 26 39  1  0
 27 40  1  0
M  CHG  4   4  -1   7  -1  11  -1  18  -1
M  END
>  <UniqueID>  (56) 
50

>  <SMILES>  (56) 
CCc1[n-]c(=O)[n-]c1C(=O)[N-]c1ccc(Cl)c([N-]C(=O)c2ccccc2)c1

>  <Energy>  (56) 
81.82607678402451

>  <Genealogy>  (56) 
CCc1[n-]c(=O)[n-]c1C(=O)[N-]c1ccc(Cl)c([N-]C(=O)c2ccccc2)c1 (protonated)
CCc1[n-]c(=O)[n-]c1C(=O)[N-]c1ccc(Cl)c([N-]C(=O)c2ccccc2)c1 (3D coordinates assigned)
CCc1[n-]c(=O)[n-]c1C(=O)[N-]c1ccc(Cl)c([N-]C(=O)c2ccccc2)c1 (optimized conformer: 81.82607678402451 kcal/mol)

>  <smiles>  (56) 
CCc1[nH]c(=O)[nH]c1C(=O)Nc1ccc(Cl)c(NC(=O)c2ccccc2)c1

>  <score_type>  (56) 
oracle

>  <origin>  (56) 
adg

>  <m_score__min__energy>  (56) 
-15.35

>  <m_primary>  (56) 
energy

$$$$
56:0
     RDKit          3D

 56 58  0  0  0  0  0  0  0  0999 V2000
   63.7650   32.6840   48.3790 C   0  0  0  0  0  0  0  0  0  0  0  0
   63.0840   33.8600   49.0690 C   0  0  0  0  0  0  0  0  0  0  0  0
   61.6730   33.6730   49.1060 O   0  0  0  0  0  0  0  0  0  0  0  0
   60.8200   34.0180   48.0490 C   0  0  0  0  0  0  0  0  0  0  0  0
   59.6420   34.3990   48.2800 O   0  0  0  0  0  0  0  0  0  0  0  0
   61.2490   33.8490   46.6510 C   0  0  0  0  0  0  0  0  0  0  0  0
   60.4520   33.9050   45.6210 N   0  0  0  0  0  0  0  0  0  0  0  0
   59.4380   34.8830   45.3490 C   0  0  0  0  0  0  0  0  0  0  0  0
   59.6990   36.1130   45.4300 O   0  0  0  0  0  0  0  0  0  0  0  0
   58.0250   34.4190   45.1370 C   0  0  0  0  0  0  0  0  0  0  0  0
   57.8960   33.4080   43.9880 C   0  0  0  0  0  0  0  0  0  0  0  0
   57.8600   32.0020   44.5220 C   0  0  0  0  0  0  0  0  0  0  0  0
   58.4020   31.7140   45.7840 C   0  0  0  0  0  0  0  0  0  0  0  0
   58.4060   30.4060   46.2710 C   0  0  0  0  0  0  0  0  0  0  0  0
   57.8610   29.3580   45.5070 C   0  0  0  0  0  0  0  0  0  0  0  0
   57.8600   27.9700   46.0280 C   0  0  0  0  0  0  0  0  0  0  0  0
   58.9390   27.4930   46.7920 C   0  0  0  0  0  0  0  0  0  0  0  0
   58.9350   26.1890   47.2940 C   0  0  0  0  0  0  0  0  0  0  0  0
   57.8460   25.3370   47.0430 C   0  0  0  0  0  0  0  0  0  0  0  0
   57.7920   23.9950   47.5460 N   0  0  0  0  0  0  0  0  0  0  0  0
   56.6140   22.8020   47.0960 S   0  0  0  0  0  0  0  0  0  0  0  0
   55.2530   23.2650   47.5380 O   0  0  0  0  0  0  0  0  0  0  0  0
   56.9220   21.5020   47.7860 O   0  0  0  0  0  0  0  0  0  0  0  0
   56.6060   22.6010   45.3470 C   0  0  0  0  0  0  0  0  0  0  0  0
   57.4400   21.6430   44.7540 C   0  0  0  0  0  0  0  0  0  0  0  0
   57.4530   21.4830   43.3640 C   0  0  0  0  0  0  0  0  0  0  0  0
   56.6320   22.2750   42.5630 C   0  0  0  0  0  0  0  0  0  0  0  0
   55.7940   23.2300   43.1470 C   0  0  0  0  0  0  0  0  0  0  0  0
   55.7790   23.3930   44.5350 C   0  0  0  0  0  0  0  0  0  0  0  0
   56.7690   25.8100   46.2850 C   0  0  0  0  0  0  0  0  0  0  0  0
   56.7760   27.1130   45.7770 C   0  0  0  0  0  0  0  0  0  0  0  0
   57.3200   29.6480   44.2410 C   0  0  0  0  0  0  0  0  0  0  0  0
   57.3300   30.9570   43.7480 C   0  0  0  0  0  0  0  0  0  0  0  0
   64.1641   31.9948   49.1377 H   0  0  0  0  0  0  0  0  0  0  0  0
   63.0340   32.1541   47.7506 H   0  0  0  0  0  0  0  0  0  0  0  0
   64.5884   33.0543   47.7506 H   0  0  0  0  0  0  0  0  0  0  0  0
   63.4642   33.9446   50.0977 H   0  0  0  0  0  0  0  0  0  0  0  0
   63.3046   34.7777   48.5041 H   0  0  0  0  0  0  0  0  0  0  0  0
   62.3165   33.6625   46.4624 H   0  0  0  0  0  0  0  0  0  0  0  0
   57.6680   33.9454   46.0634 H   0  0  0  0  0  0  0  0  0  0  0  0
   57.4235   35.3007   44.8711 H   0  0  0  0  0  0  0  0  0  0  0  0
   56.9675   33.6079   43.4330 H   0  0  0  0  0  0  0  0  0  0  0  0
   58.7663   33.5130   43.3236 H   0  0  0  0  0  0  0  0  0  0  0  0
   58.8268   32.5250   46.3938 H   0  0  0  0  0  0  0  0  0  0  0  0
   58.8386   30.1930   47.2597 H   0  0  0  0  0  0  0  0  0  0  0  0
   59.7950   28.1527   46.9968 H   0  0  0  0  0  0  0  0  0  0  0  0
   59.7876   25.8280   47.8880 H   0  0  0  0  0  0  0  0  0  0  0  0
   58.0868   21.0146   45.3839 H   0  0  0  0  0  0  0  0  0  0  0  0
   58.1114   20.7319   42.9032 H   0  0  0  0  0  0  0  0  0  0  0  0
   56.6433   22.1486   41.4703 H   0  0  0  0  0  0  0  0  0  0  0  0
   55.1460   23.8535   42.5134 H   0  0  0  0  0  0  0  0  0  0  0  0
   55.1176   24.1437   44.9922 H   0  0  0  0  0  0  0  0  0  0  0  0
   55.9102   25.1518   46.0872 H   0  0  0  0  0  0  0  0  0  0  0  0
   55.9261   27.4693   45.1764 H   0  0  0  0  0  0  0  0  0  0  0  0
   56.8860   28.8394   43.6345 H   0  0  0  0  0  0  0  0  0  0  0  0
   56.9207   31.1688   42.7492 H   0  0  0  0  0  0  0  0  0  0  0  0
  1  2  1  0
  2  3  1  0
  3  4  1  0
  4  5  2  0
  4  6  1  0
  6  7  2  3
  7  8  1  0
  8  9  2  0
  8 10  1  0
 10 11  1  0
 11 12  1  0
 12 13  2  0
 13 14  1  0
 14 15  2  0
 15 16  1  0
 16 17  2  0
 17 18  1  0
 18 19  2  0
 19 20  1  0
 20 21  1  0
 21 22  2  0
 21 23  2  0
 21 24  1  0
 24 25  2  0
 25 26  1  0
 26 27  2  0
 27 28  1  0
 28 29  2  0
 19 30  1  0
 30 31  2  0
 15 32  1  0
 32 33  2  0
 33 12  1  0
 31 16  1  0
 29 24  1  0
  1 34  1  0
  1 35  1  0
  1 36  1  0
  2 37  1  0
  2 38  1  0
  6 39  1  0
 10 40  1  0
 10 41  1  0
 11 42  1  0
 11 43  1  0
 13 44  1  0
 14 45  1  0
 17 46  1  0
 18 47  1  0
 25 48  1  0
 26 49  1  0
 27 50  1  0
 28 51  1  0
 29 52  1  0
 30 53  1  0
 31 54  1  0
 32 55  1  0
 33 56  1  0
M  CHG  1  20  -1
M  END
>  <UniqueID>  (57) 
51

>  <SMILES>  (57) 
CCOC(=O)C=NC(=O)CCc1ccc(-c2ccc([N-]S(=O)(=O)c3ccccc3)cc2)cc1

>  <Energy>  (57) 
66.82679676417783

>  <Genealogy>  (57) 
CCOC(=O)C=NC(=O)CCc1ccc(-c2ccc([N-]S(=O)(=O)c3ccccc3)cc2)cc1 (protonated)
CCOC(=O)C=NC(=O)CCc1ccc(-c2ccc([N-]S(=O)(=O)c3ccccc3)cc2)cc1 (3D coordinates assigned)
CCOC(=O)C=NC(=O)CCc1ccc(-c2ccc([N-]S(=O)(=O)c3ccccc3)cc2)cc1 (optimized conformer: 66.82679676417783 kcal/mol)

>  <smiles>  (57) 
CCOC(=O)C=NC(=O)CCc1ccc(-c2ccc(NS(=O)(=O)c3ccccc3)cc2)cc1

>  <score_type>  (57) 
oracle

>  <origin>  (57) 
adg

>  <m_score__min__energy>  (57) 
-9.7300000000000004

>  <m_primary>  (57) 
energy

$$$$
57:0
     RDKit          3D

 46 49  0  0  0  0  0  0  0  0999 V2000
   59.1010   31.3720   52.8430 C   0  0  0  0  0  0  0  0  0  0  0  0
   58.2860   31.1200   51.2780 S   0  0  0  0  0  0  0  0  0  0  0  0
   57.3900   29.9190   51.4000 O   0  0  0  0  0  0  0  0  0  0  0  0
   57.4410   32.3090   50.9230 O   0  0  0  0  0  0  0  0  0  0  0  0
   59.4370   30.8200   50.0140 N   0  0  0  0  0  0  0  0  0  0  0  0
   59.5530   29.5930   49.2710 C   0  0  0  0  0  0  0  0  0  0  0  0
   60.3460   28.5610   49.7960 C   0  0  0  0  0  0  0  0  0  0  0  0
   60.5420   27.3800   49.0820 C   0  0  0  0  0  0  0  0  0  0  0  0
   59.9650   27.2200   47.8230 C   0  0  0  0  0  0  0  0  0  0  0  0
   59.1630   28.2330   47.2730 C   0  0  0  0  0  0  0  0  0  0  0  0
   58.6260   28.0760   45.9010 C   0  0  0  0  0  0  0  0  0  0  0  0
   58.6840   26.9290   45.1150 C   0  0  0  0  0  0  0  0  0  0  0  0
   58.0990   27.1550   43.9120 N   0  0  0  0  0  0  0  0  0  0  0  0
   57.6930   28.4370   43.9970 C   0  0  0  0  0  0  0  0  0  0  0  0
   57.0040   29.1500   43.0250 C   0  0  0  0  0  0  0  0  0  0  0  0
   56.6310   30.4660   43.3340 C   0  0  0  0  0  0  0  0  0  0  0  0
   56.9480   31.0080   44.5970 C   0  0  0  0  0  0  0  0  0  0  0  0
   56.5740   32.2190   44.8870 N   0  0  0  0  0  0  0  0  0  0  0  0
   57.3890   33.4140   44.6760 C   0  0  0  0  0  0  0  0  0  0  0  0
   58.3230   33.6230   45.8390 C   0  0  0  0  0  0  0  0  0  0  0  0
   59.5210   34.3390   45.6790 C   0  0  0  0  0  0  0  0  0  0  0  0
   60.3910   34.5080   46.7600 C   0  0  0  0  0  0  0  0  0  0  0  0
   60.0750   33.9590   48.0070 C   0  0  0  0  0  0  0  0  0  0  0  0
   61.1650   34.1780   49.3650 Cl  0  0  0  0  0  0  0  0  0  0  0  0
   58.8910   33.2340   48.1700 C   0  0  0  0  0  0  0  0  0  0  0  0
   58.0200   33.0600   47.0890 C   0  0  0  0  0  0  0  0  0  0  0  0
   57.6360   30.2470   45.5010 N   0  0  0  0  0  0  0  0  0  0  0  0
   57.9950   29.0080   45.1700 N   0  0  0  0  0  0  0  0  0  0  0  0
   58.9470   29.4140   48.0100 C   0  0  0  0  0  0  0  0  0  0  0  0
   58.3987   31.1548   53.6613 H   0  0  0  0  0  0  0  0  0  0  0  0
   59.9690   30.7003   52.9168 H   0  0  0  0  0  0  0  0  0  0  0  0
   59.4383   32.4164   52.9168 H   0  0  0  0  0  0  0  0  0  0  0  0
   60.1420   31.5730   49.8460 H   0  0  0  0  0  0  0  0  0  0  0  0
   60.8181   28.6854   50.7817 H   0  0  0  0  0  0  0  0  0  0  0  0
   61.1529   26.5729   49.5126 H   0  0  0  0  0  0  0  0  0  0  0  0
   60.1393   26.2934   47.2563 H   0  0  0  0  0  0  0  0  0  0  0  0
   59.1387   25.9764   45.4246 H   0  0  0  0  0  0  0  0  0  0  0  0
   56.7604   28.7004   42.0511 H   0  0  0  0  0  0  0  0  0  0  0  0
   56.0922   31.0745   42.5928 H   0  0  0  0  0  0  0  0  0  0  0  0
   57.9781   33.2933   43.7549 H   0  0  0  0  0  0  0  0  0  0  0  0
   56.7264   34.2876   44.5883 H   0  0  0  0  0  0  0  0  0  0  0  0
   59.7756   34.7685   44.6988 H   0  0  0  0  0  0  0  0  0  0  0  0
   61.3254   35.0735   46.6297 H   0  0  0  0  0  0  0  0  0  0  0  0
   58.6437   32.7996   49.1498 H   0  0  0  0  0  0  0  0  0  0  0  0
   57.0944   32.4800   47.2189 H   0  0  0  0  0  0  0  0  0  0  0  0
   58.3004   30.2031   47.5986 H   0  0  0  0  0  0  0  0  0  0  0  0
  1  2  1  0
  2  3  2  0
  2  4  2  0
  2  5  1  0
  5  6  1  0
  6  7  2  0
  7  8  1  0
  8  9  2  0
  9 10  1  0
 10 11  1  0
 11 12  2  0
 12 13  1  0
 13 14  2  0
 14 15  1  0
 15 16  2  0
 16 17  1  0
 17 18  2  3
 18 19  1  0
 19 20  1  0
 20 21  2  0
 21 22  1  0
 22 23  2  0
 23 24  1  0
 23 25  1  0
 25 26  2  0
 17 27  1  0
 27 28  1  0
 10 29  2  0
 29  6  1  0
 28 11  1  0
 28 14  1  0
 26 20  1  0
  1 30  1  0
  1 31  1  0
  1 32  1  0
  5 33  1  0
  7 34  1  0
  8 35  1  0
  9 36  1  0
 12 37  1  0
 15 38  1  0
 16 39  1  0
 19 40  1  0
 19 41  1  0
 21 42  1  0
 22 43  1  0
 25 44  1  0
 26 45  1  0
 29 46  1  0
M  CHG  1  27  -1
M  END
>  <UniqueID>  (58) 
52

>  <SMILES>  (58) 
CS(=O)(=O)Nc1cccc(-c2cnc3ccc(=NCc4ccc(Cl)cc4)[n-]n23)c1

>  <Energy>  (58) 
87.237888652188

>  <Genealogy>  (58) 
CS(=O)(=O)Nc1cccc(-c2cnc3ccc(=NCc4ccc(Cl)cc4)[n-]n23)c1 (protonated)
CS(=O)(=O)Nc1cccc(-c2cnc3ccc(=NCc4ccc(Cl)cc4)[n-]n23)c1 (3D coordinates assigned)
CS(=O)(=O)Nc1cccc(-c2cnc3ccc(=NCc4ccc(Cl)cc4)[n-]n23)c1 (optimized conformer: 87.237888652188 kcal/mol)

>  <smiles>  (58) 
CS(=O)(=O)Nc1cccc(-c2cnc3ccc(=NCc4ccc(Cl)cc4)[nH]n23)c1

>  <score_type>  (58) 
oracle

>  <origin>  (58) 
adg

>  <m_score__min__energy>  (58) 
-11.07

>  <m_primary>  (58) 
energy

$$$$
58:0
     RDKit          3D

 58 61  0  0  0  0  0  0  0  0999 V2000
   54.7700   25.9630   45.6340 N   0  0  0  0  0  0  0  0  0  0  0  0
   55.1390   24.4470   46.3820 S   0  0  0  0  0  0  0  0  0  0  0  0
   55.8810   24.7250   47.6600 O   0  0  0  0  0  0  0  0  0  0  0  0
   53.8710   23.7110   46.7100 O   0  0  0  0  0  0  0  0  0  0  0  0
   56.1450   23.4620   45.3050 C   0  0  0  0  0  0  0  0  0  0  0  0
   55.7930   22.1190   45.0890 C   0  0  0  0  0  0  0  0  0  0  0  0
   56.5840   21.2950   44.2870 C   0  0  0  0  0  0  0  0  0  0  0  0
   57.7400   21.7990   43.6910 C   0  0  0  0  0  0  0  0  0  0  0  0
   58.1020   23.1330   43.8880 C   0  0  0  0  0  0  0  0  0  0  0  0
   57.3070   23.9780   44.6810 C   0  0  0  0  0  0  0  0  0  0  0  0
   57.7200   25.3860   44.8310 C   0  0  0  0  0  0  0  0  0  0  0  0
   57.7670   26.2330   43.7150 C   0  0  0  0  0  0  0  0  0  0  0  0
   58.1590   27.5660   43.8600 C   0  0  0  0  0  0  0  0  0  0  0  0
   58.5060   28.0730   45.1210 C   0  0  0  0  0  0  0  0  0  0  0  0
   58.9210   29.4450   45.2390 N   0  0  0  0  0  0  0  0  0  0  0  0
   58.0120   30.5610   45.2390 C   0  0  0  0  0  0  0  0  0  0  0  0
   56.8080   30.3990   44.9030 O   0  0  0  0  0  0  0  0  0  0  0  0
   58.4960   31.9490   45.5750 C   0  0  1  0  0  0  0  0  0  0  0  0
   58.2590   32.9360   44.4060 C   0  0  0  0  0  0  0  0  0  0  0  0
   58.1610   34.3990   44.8770 C   0  0  0  0  0  0  0  0  0  0  0  0
   58.9400   34.6180   46.1780 C   0  0  0  0  0  0  0  0  0  0  0  0
   58.3950   33.7890   47.2790 N   0  0  0  0  0  0  0  0  0  0  0  0
   59.2630   33.7520   48.4790 C   0  0  0  0  0  0  0  0  0  0  0  0
   60.6930   33.3400   48.1880 C   0  0  0  0  0  0  0  0  0  0  0  0
   61.7600   34.1830   48.5450 C   0  0  0  0  0  0  0  0  0  0  0  0
   63.0800   33.8100   48.2720 C   0  0  0  0  0  0  0  0  0  0  0  0
   63.3480   32.5870   47.6540 C   0  0  0  0  0  0  0  0  0  0  0  0
   62.2970   31.7290   47.3170 C   0  0  0  0  0  0  0  0  0  0  0  0
   62.5590   30.5360   46.7310 F   0  0  0  0  0  0  0  0  0  0  0  0
   60.9760   32.0980   47.5900 C   0  0  0  0  0  0  0  0  0  0  0  0
   57.8480   32.4700   46.8730 C   0  0  0  0  0  0  0  0  0  0  0  0
   58.4980   27.2110   46.2320 C   0  0  0  0  0  0  0  0  0  0  0  0
   58.1070   25.8770   46.0870 C   0  0  0  0  0  0  0  0  0  0  0  0
   54.7740   26.6920   46.3830 H   0  0  0  0  0  0  0  0  0  0  0  0
   54.8842   21.7127   45.5570 H   0  0  0  0  0  0  0  0  0  0  0  0
   56.2952   20.2461   44.1246 H   0  0  0  0  0  0  0  0  0  0  0  0
   58.3663   21.1456   43.0659 H   0  0  0  0  0  0  0  0  0  0  0  0
   59.0163   23.5255   43.4190 H   0  0  0  0  0  0  0  0  0  0  0  0
   57.4943   25.8467   42.7218 H   0  0  0  0  0  0  0  0  0  0  0  0
   58.1958   28.2230   42.9786 H   0  0  0  0  0  0  0  0  0  0  0  0
   59.9460   29.6430   45.2420 H   0  0  0  0  0  0  0  0  0  0  0  0
   59.5815   31.8822   45.7399 H   0  0  0  0  0  0  0  0  0  0  0  0
   59.0953   32.8495   43.6968 H   0  0  0  0  0  0  0  0  0  0  0  0
   57.2999   32.6722   43.9363 H   0  0  0  0  0  0  0  0  0  0  0  0
   58.5745   35.0551   44.0969 H   0  0  0  0  0  0  0  0  0  0  0  0
   57.1025   34.6341   45.0622 H   0  0  0  0  0  0  0  0  0  0  0  0
   59.9937   34.3481   46.0143 H   0  0  0  0  0  0  0  0  0  0  0  0
   58.8487   35.6765   46.4629 H   0  0  0  0  0  0  0  0  0  0  0  0
   59.2760   34.7558   48.9286 H   0  0  0  0  0  0  0  0  0  0  0  0
   58.8424   32.9931   49.1551 H   0  0  0  0  0  0  0  0  0  0  0  0
   61.5552   35.1425   49.0424 H   0  0  0  0  0  0  0  0  0  0  0  0
   63.9080   34.4809   48.5445 H   0  0  0  0  0  0  0  0  0  0  0  0
   64.3861   32.2986   47.4323 H   0  0  0  0  0  0  0  0  0  0  0  0
   60.1534   31.4134   47.3358 H   0  0  0  0  0  0  0  0  0  0  0  0
   58.0351   31.7450   47.6788 H   0  0  0  0  0  0  0  0  0  0  0  0
   56.7704   32.5920   46.6887 H   0  0  0  0  0  0  0  0  0  0  0  0
   58.8009   27.5884   47.2198 H   0  0  0  0  0  0  0  0  0  0  0  0
   58.1027   25.2093   46.9612 H   0  0  0  0  0  0  0  0  0  0  0  0
  1  2  1  0
  2  3  2  0
  2  4  2  0
  2  5  1  0
  5  6  2  0
  6  7  1  0
  7  8  2  0
  8  9  1  0
  9 10  2  0
 10 11  1  0
 11 12  2  0
 12 13  1  0
 13 14  2  0
 14 15  1  0
 15 16  1  0
 16 17  2  0
 16 18  1  0
 18 19  1  0
 19 20  1  0
 20 21  1  0
 21 22  1  0
 22 23  1  0
 23 24  1  0
 24 25  2  0
 25 26  1  0
 26 27  2  0
 27 28  1  0
 28 29  1  0
 28 30  2  0
 22 31  1  0
 14 32  1  0
 32 33  2  0
 10  5  1  0
 33 11  1  0
 31 18  1  0
 30 24  1  0
  1 34  1  0
  6 35  1  0
  7 36  1  0
  8 37  1  0
  9 38  1  0
 12 39  1  0
 13 40  1  0
 15 41  1  0
 18 42  1  1
 19 43  1  0
 19 44  1  0
 20 45  1  0
 20 46  1  0
 21 47  1  0
 21 48  1  0
 23 49  1  0
 23 50  1  0
 25 51  1  0
 26 52  1  0
 27 53  1  0
 30 54  1  0
 31 55  1  0
 31 56  1  0
 32 57  1  0
 33 58  1  0
M  CHG  1   1  -1
M  END
>  <UniqueID>  (59) 
53

>  <SMILES>  (59) 
[NH-]S(=O)(=O)c1ccccc1-c1ccc(NC(=O)[C@H]2CCCN(Cc3cccc(F)c3)C2)cc1

>  <Energy>  (59) 
82.93338432637182

>  <Genealogy>  (59) 
[NH-]S(=O)(=O)c1ccccc1-c1ccc(NC(=O)C2CCCN(Cc3cccc(F)c3)C2)cc1 (protonated)
[NH-]S(=O)(=O)c1ccccc1-c1ccc(NC(=O)[C@H]2CCCN(Cc3cccc(F)c3)C2)cc1 (chirality)
[NH-]S(=O)(=O)c1ccccc1-c1ccc(NC(=O)[C@H]2CCCN(Cc3cccc(F)c3)C2)cc1 (3D coordinates assigned)
[NH-]S(=O)(=O)c1ccccc1-c1ccc(NC(=O)[C@H]2CCCN(Cc3cccc(F)c3)C2)cc1 (nonaromatic ring conformer: 82.93338432637182 kcal/mol)

>  <smiles>  (59) 
NS(=O)(=O)c1ccccc1-c1ccc(NC(=O)C2CCCN(Cc3cccc(F)c3)C2)cc1

>  <score_type>  (59) 
oracle

>  <origin>  (59) 
adg

>  <m_score__min__energy>  (59) 
-13.4

>  <m_primary>  (59) 
energy

$$$$
59:0
     RDKit          3D

 44 46  0  0  0  0  0  0  0  0999 V2000
   56.1868   34.0722   45.1354 H   0  0  0  0  0  0  0  0  0  0  0  0
   57.2000   34.0080   45.5590 C   0  0  0  0  0  0  0  0  0  0  0  0
   57.4050   33.3770   46.7900 C   0  0  0  0  0  0  0  0  0  0  0  0
   56.5525   32.9464   47.3357 H   0  0  0  0  0  0  0  0  0  0  0  0
   58.6940   33.2930   47.3280 C   0  0  0  0  0  0  0  0  0  0  0  0
   58.8544   32.7964   48.2963 H   0  0  0  0  0  0  0  0  0  0  0  0
   59.7800   33.8410   46.6340 C   0  0  0  0  0  0  0  0  0  0  0  0
   61.4310   33.7260   47.3190 S   0  0  0  0  0  0  0  0  0  0  0  0
   61.1960   32.0230   47.8180 C   0  0  0  0  0  0  0  0  0  0  0  0
   60.7990   31.1040   46.9040 N   0  0  0  0  0  0  0  0  0  0  0  0
   60.6110   29.8000   47.2390 C   0  0  0  0  0  0  0  0  0  0  0  0
   60.2610   28.9200   46.3430 N   0  0  0  0  0  0  0  0  0  0  0  0
   58.9740   28.2920   46.2070 C   0  0  0  0  0  0  0  0  0  0  0  0
   58.7960   27.0100   46.7350 C   0  0  0  0  0  0  0  0  0  0  0  0
   59.6376   26.5024   47.2291 H   0  0  0  0  0  0  0  0  0  0  0  0
   57.5600   26.3680   46.6410 C   0  0  0  0  0  0  0  0  0  0  0  0
   57.4376   25.3536   47.0484 H   0  0  0  0  0  0  0  0  0  0  0  0
   56.4690   27.0130   46.0270 C   0  0  0  0  0  0  0  0  0  0  0  0
   55.2130   26.3960   45.9040 O   0  0  0  0  0  0  0  0  0  0  0  0
   55.0170   25.0150   45.6200 C   0  0  0  0  0  0  0  0  0  0  0  0
   54.9374   24.4544   46.5631 H   0  0  0  0  0  0  0  0  0  0  0  0
   54.0918   24.8879   45.0387 H   0  0  0  0  0  0  0  0  0  0  0  0
   55.8703   24.6355   45.0387 H   0  0  0  0  0  0  0  0  0  0  0  0
   56.6280   28.3120   45.5220 C   0  0  0  0  0  0  0  0  0  0  0  0
   55.5190   28.9340   44.9240 O   0  0  0  0  0  0  0  0  0  0  0  0
   55.5840   29.7540   43.7620 C   0  0  0  0  0  0  0  0  0  0  0  0
   55.6676   30.8090   44.0619 H   0  0  0  0  0  0  0  0  0  0  0  0
   56.4626   29.4723   43.1631 H   0  0  0  0  0  0  0  0  0  0  0  0
   54.6720   29.6143   43.1631 H   0  0  0  0  0  0  0  0  0  0  0  0
   57.8770   28.9540   45.6290 C   0  0  0  0  0  0  0  0  0  0  0  0
   57.9950   29.9824   45.2570 H   0  0  0  0  0  0  0  0  0  0  0  0
   60.8530   29.3960   48.5620 C   0  0  0  0  0  0  0  0  0  0  0  0
   60.7030   28.1840   48.8870 O   0  0  0  0  0  0  0  0  0  0  0  0
   61.2500   30.3200   49.4950 N   0  0  0  0  0  0  0  0  0  0  0  0
   61.5150   29.9050   50.8780 C   0  0  0  0  0  0  0  0  0  0  0  0
   61.0554   30.6248   51.5713 H   0  0  0  0  0  0  0  0  0  0  0  0
   61.0871   28.9062   51.0495 H   0  0  0  0  0  0  0  0  0  0  0  0
   62.6011   29.8730   51.0495 H   0  0  0  0  0  0  0  0  0  0  0  0
   61.4290   31.6270   49.1350 C   0  0  0  0  0  0  0  0  0  0  0  0
   61.7561   32.3647   49.8826 H   0  0  0  0  0  0  0  0  0  0  0  0
   59.5730   34.4760   45.4030 C   0  0  0  0  0  0  0  0  0  0  0  0
   60.4243   34.9104   44.8585 H   0  0  0  0  0  0  0  0  0  0  0  0
   58.2850   34.5580   44.8660 C   0  0  0  0  0  0  0  0  0  0  0  0
   58.1238   35.0551   43.8981 H   0  0  0  0  0  0  0  0  0  0  0  0
  1  2  1  0
  2  3  2  0
  3  4  1  0
  3  5  1  0
  5  6  1  0
  5  7  2  0
  7  8  1  0
  8  9  1  0
  9 10  1  0
 10 11  1  0
 11 12  2  0
 12 13  1  0
 13 14  2  0
 14 15  1  0
 14 16  1  0
 16 17  1  0
 16 18  2  0
 18 19  1  0
 19 20  1  0
 20 21  1  0
 20 22  1  0
 20 23  1  0
 18 24  1  0
 24 25  1  0
 25 26  1  0
 26 27  1  0
 26 28  1  0
 26 29  1  0
 24 30  2  0
 30 31  1  0
 11 32  1  0
 32 33  2  0
 32 34  1  0
 34 35  1  0
 35 36  1  0
 35 37  1  0
 35 38  1  0
 34 39  1  0
 39 40  1  0
  7 41  1  0
 41 42  1  0
 41 43  2  0
 43 44  1  0
 43  2  1  0
 39  9  2  0
 30 13  1  0
M  CHG  1  10  -1
M  END
>  <UniqueID>  (60) 
54

>  <SMILES>  (60) 
COc1ccc(/N=c2\[n-]c(Sc3ccccc3)cn(C)c2=O)cc1OC

>  <Energy>  (60) 
49.90103149312935

>  <Genealogy>  (60) 
COc1ccc(N=c2[n-]c(Sc3ccccc3)cn(C)c2=O)cc1OC (protonated)
COc1ccc(/N=c2\[n-]c(Sc3ccccc3)cn(C)c2=O)cc1OC (cis-trans isomerization)
COc1ccc(/N=c2\[n-]c(Sc3ccccc3)cn(C)c2=O)cc1OC (3D coordinates assigned)
COc1ccc(/N=c2\[n-]c(Sc3ccccc3)cn(C)c2=O)cc1OC (optimized conformer: 49.90103149312935 kcal/mol)

>  <smiles>  (60) 
COc1ccc(N=c2[nH]c(Sc3ccccc3)cn(C)c2=O)cc1OC

>  <score_type>  (60) 
oracle

>  <origin>  (60) 
adg

>  <m_score__min__energy>  (60) 
-9.9100000000000001

>  <m_primary>  (60) 
energy

$$$$
60:0
     RDKit          3D

 36 38  0  0  0  0  0  0  0  0999 V2000
   54.8023   24.3597   46.1199 H   0  0  0  0  0  0  0  0  0  0  0  0
   55.6020   25.0710   45.8660 C   0  0  0  0  0  0  0  0  0  0  0  0
   55.4500   26.4150   45.9940 N   0  0  0  0  0  0  0  0  0  0  0  0
   56.5680   27.0760   45.6190 C   0  0  0  0  0  0  0  0  0  0  0  0
   56.6860   28.3680   45.6310 N   0  0  0  0  0  0  0  0  0  0  0  0
   56.5790   29.3410   44.1990 S   0  0  0  0  0  0  0  0  0  0  0  0
   57.2160   28.6110   43.0500 O   0  0  0  0  0  0  0  0  0  0  0  0
   55.1330   29.5910   43.8760 O   0  0  0  0  0  0  0  0  0  0  0  0
   57.3730   30.8880   44.4800 C   0  0  0  0  0  0  0  0  0  0  0  0
   57.4580   31.8470   43.4620 C   0  0  0  0  0  0  0  0  0  0  0  0
   57.0073   31.6464   42.4788 H   0  0  0  0  0  0  0  0  0  0  0  0
   58.1150   33.0580   43.6950 C   0  0  0  0  0  0  0  0  0  0  0  0
   58.1825   33.8090   42.8941 H   0  0  0  0  0  0  0  0  0  0  0  0
   58.6870   33.3170   44.9450 C   0  0  0  0  0  0  0  0  0  0  0  0
   59.2051   34.2711   45.1221 H   0  0  0  0  0  0  0  0  0  0  0  0
   58.6040   32.3690   45.9720 C   0  0  0  0  0  0  0  0  0  0  0  0
   59.1910   32.6800   47.2450 N   0  0  0  0  0  0  0  0  0  0  0  0
   60.0770   34.1280   47.6050 S   0  0  0  0  0  0  0  0  0  0  0  0
   60.2600   34.9200   46.3390 O   0  0  0  0  0  0  0  0  0  0  0  0
   59.2960   34.9510   48.5890 O   0  0  0  0  0  0  0  0  0  0  0  0
   61.6350   33.7190   48.3160 C   0  0  0  0  0  0  0  0  0  0  0  0
   62.6330   33.1360   47.5210 C   0  0  0  0  0  0  0  0  0  0  0  0
   62.4316   32.9137   46.4627 H   0  0  0  0  0  0  0  0  0  0  0  0
   63.8830   32.8370   48.0710 C   0  0  0  0  0  0  0  0  0  0  0  0
   64.6632   32.3782   47.4458 H   0  0  0  0  0  0  0  0  0  0  0  0
   64.1420   33.1210   49.4160 C   0  0  0  0  0  0  0  0  0  0  0  0
   65.8610   32.7370   50.1620 Br  0  0  0  0  0  0  0  0  0  0  0  0
   63.1470   33.6960   50.2130 C   0  0  0  0  0  0  0  0  0  0  0  0
   63.3493   33.9149   51.2719 H   0  0  0  0  0  0  0  0  0  0  0  0
   61.8950   33.9930   49.6650 C   0  0  0  0  0  0  0  0  0  0  0  0
   61.1129   34.4426   50.2945 H   0  0  0  0  0  0  0  0  0  0  0  0
   57.9510   31.1470   45.7290 C   0  0  0  0  0  0  0  0  0  0  0  0
   57.8940   30.3900   46.5251 H   0  0  0  0  0  0  0  0  0  0  0  0
   57.7840   26.0330   45.1190 S   0  0  0  0  0  0  0  0  0  0  0  0
   56.8440   24.6600   45.3900 C   0  0  0  0  0  0  0  0  0  0  0  0
   57.1577   23.6195   45.2201 H   0  0  0  0  0  0  0  0  0  0  0  0
  1  2  1  0
  2  3  1  0
  3  4  1  0
  4  5  2  0
  5  6  1  0
  6  7  2  0
  6  8  2  0
  6  9  1  0
  9 10  2  0
 10 11  1  0
 10 12  1  0
 12 13  1  0
 12 14  2  0
 14 15  1  0
 14 16  1  0
 16 17  1  0
 17 18  1  0
 18 19  2  0
 18 20  2  0
 18 21  1  0
 21 22  2  0
 22 23  1  0
 22 24  1  0
 24 25  1  0
 24 26  2  0
 26 27  1  0
 26 28  1  0
 28 29  1  0
 28 30  2  0
 30 31  1  0
 16 32  2  0
 32 33  1  0
  4 34  1  0
 34 35  1  0
 35 36  1  0
 35  2  2  0
 32  9  1  0
 30 21  1  0
M  CHG  2   3  -1  17  -1
M  END
>  <UniqueID>  (61) 
55

>  <SMILES>  (61) 
O=S(=O)(/N=c1\[n-]ccs1)c1cccc([N-]S(=O)(=O)c2ccc(Br)cc2)c1

>  <Energy>  (61) 
73.48063375337165

>  <Genealogy>  (61) 
O=S(=O)(N=c1[n-]ccs1)c1cccc([N-]S(=O)(=O)c2ccc(Br)cc2)c1 (protonated)
O=S(=O)(/N=c1\[n-]ccs1)c1cccc([N-]S(=O)(=O)c2ccc(Br)cc2)c1 (cis-trans isomerization)
O=S(=O)(/N=c1\[n-]ccs1)c1cccc([N-]S(=O)(=O)c2ccc(Br)cc2)c1 (3D coordinates assigned)
O=S(=O)(/N=c1\[n-]ccs1)c1cccc([N-]S(=O)(=O)c2ccc(Br)cc2)c1 (optimized conformer: 73.48063375337165 kcal/mol)

>  <smiles>  (61) 
O=S(=O)(N=c1[nH]ccs1)c1cccc(NS(=O)(=O)c2ccc(Br)cc2)c1

>  <score_type>  (61) 
oracle

>  <origin>  (61) 
adg

>  <m_score__min__energy>  (61) 
-12.26

>  <m_primary>  (61) 
energy

$$$$
61:0
     RDKit          3D

 28 30  0  0  0  0  0  0  0  0999 V2000
   58.3280   35.0090   44.8120 O   0  0  0  0  0  0  0  0  0  0  0  0
   58.2770   33.7610   44.9810 C   0  0  0  0  0  0  0  0  0  0  0  0
   57.8270   32.9760   43.9740 N   0  0  0  0  0  0  0  0  0  0  0  0
   57.7510   31.6280   44.0970 C   0  0  0  0  0  0  0  0  0  0  0  0
   57.3290   30.9500   43.1210 O   0  0  0  0  0  0  0  0  0  0  0  0
   58.1350   31.0140   45.2610 N   0  0  0  0  0  0  0  0  0  0  0  0
   58.0550   29.5770   45.3450 C   0  0  0  0  0  0  0  0  0  0  0  0
   59.2070   28.7980   45.1730 C   0  0  0  0  0  0  0  0  0  0  0  0
   59.1280   27.4040   45.2550 C   0  0  0  0  0  0  0  0  0  0  0  0
   57.9010   26.7850   45.5120 C   0  0  0  0  0  0  0  0  0  0  0  0
   56.7460   27.5600   45.6870 C   0  0  0  0  0  0  0  0  0  0  0  0
   55.5180   26.9550   45.9440 O   0  0  0  0  0  0  0  0  0  0  0  0
   56.8260   28.9550   45.6060 C   0  0  0  0  0  0  0  0  0  0  0  0
   58.5940   31.7680   46.3190 C   0  0  0  0  0  0  0  0  0  0  0  0
   58.9800   31.1780   47.5460 C   0  0  0  0  0  0  0  0  0  0  0  0
   59.4430   31.9660   48.6010 C   0  0  0  0  0  0  0  0  0  0  0  0
   59.5270   33.3510   48.4610 C   0  0  0  0  0  0  0  0  0  0  0  0
   59.1450   33.9580   47.2650 C   0  0  0  0  0  0  0  0  0  0  0  0
   58.6760   33.1780   46.1910 C   0  0  0  0  0  0  0  0  0  0  0  0
   60.1739   29.2830   44.9734 H   0  0  0  0  0  0  0  0  0  0  0  0
   60.0327   26.7937   45.1171 H   0  0  0  0  0  0  0  0  0  0  0  0
   57.8418   25.6885   45.5770 H   0  0  0  0  0  0  0  0  0  0  0  0
   54.7540   27.4670   46.3700 H   0  0  0  0  0  0  0  0  0  0  0  0
   55.9218   29.5652   45.7476 H   0  0  0  0  0  0  0  0  0  0  0  0
   58.9145   30.0869   47.6697 H   0  0  0  0  0  0  0  0  0  0  0  0
   59.7431   31.4923   49.5474 H   0  0  0  0  0  0  0  0  0  0  0  0
   59.8953   33.9658   49.2955 H   0  0  0  0  0  0  0  0  0  0  0  0
   59.2104   35.0511   47.1604 H   0  0  0  0  0  0  0  0  0  0  0  0
  1  2  2  0
  2  3  1  0
  3  4  1  0
  4  5  2  0
  4  6  1  0
  6  7  1  0
  7  8  2  0
  8  9  1  0
  9 10  2  0
 10 11  1  0
 11 12  1  0
 11 13  2  0
  6 14  1  0
 14 15  2  0
 15 16  1  0
 16 17  2  0
 17 18  1  0
 18 19  2  0
 19  2  1  0
 13  7  1  0
 19 14  1  0
  8 20  1  0
  9 21  1  0
 10 22  1  0
 12 23  1  0
 13 24  1  0
 15 25  1  0
 16 26  1  0
 17 27  1  0
 18 28  1  0
M  CHG  1   3  -1
M  END
>  <UniqueID>  (62) 
56

>  <SMILES>  (62) 
O=c1[n-]c(=O)n(-c2cccc(O)c2)c2ccccc12

>  <Energy>  (62) 
47.490309891209456

>  <Genealogy>  (62) 
O=c1[n-]c(=O)n(-c2cccc(O)c2)c2ccccc12 (protonated)
O=c1[n-]c(=O)n(-c2cccc(O)c2)c2ccccc12 (3D coordinates assigned)
O=c1[n-]c(=O)n(-c2cccc(O)c2)c2ccccc12 (optimized conformer: 47.490309891209456 kcal/mol)

>  <smiles>  (62) 
O=c1[nH]c(=O)n(-c2cccc(O)c2)c2ccccc12

>  <score_type>  (62) 
oracle

>  <origin>  (62) 
adg

>  <m_score__min__energy>  (62) 
-8.6999999999999993

>  <m_primary>  (62) 
energy

$$$$
62:0
     RDKit          3D

 54 57  0  0  0  0  0  0  0  0999 V2000
   66.3590   31.9490   50.4730 C   0  0  0  0  0  0  0  0  0  0  0  0
   65.6220   33.0600   49.7350 C   0  0  0  0  0  0  0  0  0  0  0  0
   64.3730   32.5530   49.1740 N   0  0  0  0  0  0  0  0  0  0  0  0
   63.3550   32.0070   49.8680 C   0  0  0  0  0  0  0  0  0  0  0  0
   62.4060   31.5550   48.9660 C   0  0  0  0  0  0  0  0  0  0  0  0
   61.2080   30.6800   49.2480 C   0  0  1  0  0  0  0  0  0  0  0  0
   60.7630   30.6140   50.7040 C   0  0  0  0  0  0  0  0  0  0  0  0
   59.2910   30.2260   50.6330 C   0  0  0  0  0  0  0  0  0  0  0  0
   58.9260   30.2750   49.1480 C   0  0  0  0  0  0  0  0  0  0  0  0
   60.0060   30.9820   48.4470 N   0  0  0  0  0  0  0  0  0  0  0  0
   59.7030   32.4190   48.1860 C   0  0  0  0  0  0  0  0  0  0  0  0
   58.9850   32.7290   46.8810 C   0  0  0  0  0  0  0  0  0  0  0  0
   59.0620   34.0240   46.3350 C   0  0  0  0  0  0  0  0  0  0  0  0
   58.3280   34.3600   45.1980 C   0  0  0  0  0  0  0  0  0  0  0  0
   57.4830   33.4220   44.6090 C   0  0  0  0  0  0  0  0  0  0  0  0
   57.3790   32.1320   45.1380 C   0  0  0  0  0  0  0  0  0  0  0  0
   56.4350   31.2280   44.5480 N   0  0  0  0  0  0  0  0  0  0  0  0
   56.3170   29.8300   44.8300 C   0  0  0  0  0  0  0  0  0  0  0  0
   55.1830   29.2920   44.7250 O   0  0  0  0  0  0  0  0  0  0  0  0
   57.5020   28.9910   45.1440 C   0  0  0  0  0  0  0  0  0  0  0  0
   57.4540   28.0030   46.1470 C   0  0  0  0  0  0  0  0  0  0  0  0
   58.5820   27.2310   46.4370 C   0  0  0  0  0  0  0  0  0  0  0  0
   59.7760   27.4450   45.7460 C   0  0  0  0  0  0  0  0  0  0  0  0
   59.8490   28.4450   44.7740 C   0  0  0  0  0  0  0  0  0  0  0  0
   58.7220   29.2190   44.4780 C   0  0  0  0  0  0  0  0  0  0  0  0
   58.1290   31.7860   46.2780 C   0  0  0  0  0  0  0  0  0  0  0  0
   62.9520   31.8100   47.7160 C   0  0  0  0  0  0  0  0  0  0  0  0
   64.1360   32.4260   47.8790 N   0  0  0  0  0  0  0  0  0  0  0  0
   66.2587   32.1002   51.5579 H   0  0  0  0  0  0  0  0  0  0  0  0
   65.9267   30.9759   50.1969 H   0  0  0  0  0  0  0  0  0  0  0  0
   67.4236   31.9689   50.1969 H   0  0  0  0  0  0  0  0  0  0  0  0
   65.3993   33.8767   50.4374 H   0  0  0  0  0  0  0  0  0  0  0  0
   66.2579   33.4297   48.9171 H   0  0  0  0  0  0  0  0  0  0  0  0
   63.2890   31.9329   50.9635 H   0  0  0  0  0  0  0  0  0  0  0  0
   61.6204   29.7046   48.9506 H   0  0  0  0  0  0  0  0  0  0  0  0
   61.3396   29.8551   51.2532 H   0  0  0  0  0  0  0  0  0  0  0  0
   60.9210   31.5647   51.2343 H   0  0  0  0  0  0  0  0  0  0  0  0
   59.1411   29.2121   51.0324 H   0  0  0  0  0  0  0  0  0  0  0  0
   58.6617   30.9022   51.2302 H   0  0  0  0  0  0  0  0  0  0  0  0
   58.8280   29.2534   48.7522 H   0  0  0  0  0  0  0  0  0  0  0  0
   57.9673   30.7946   49.0033 H   0  0  0  0  0  0  0  0  0  0  0  0
   59.0728   32.7840   49.0104 H   0  0  0  0  0  0  0  0  0  0  0  0
   60.6812   32.9162   48.1085 H   0  0  0  0  0  0  0  0  0  0  0  0
   59.7072   34.7780   46.8096 H   0  0  0  0  0  0  0  0  0  0  0  0
   58.4163   35.3675   44.7654 H   0  0  0  0  0  0  0  0  0  0  0  0
   56.8938   33.6981   43.7220 H   0  0  0  0  0  0  0  0  0  0  0  0
   56.5213   27.8380   46.7063 H   0  0  0  0  0  0  0  0  0  0  0  0
   58.5290   26.4523   47.2121 H   0  0  0  0  0  0  0  0  0  0  0  0
   60.6584   26.8265   45.9670 H   0  0  0  0  0  0  0  0  0  0  0  0
   60.7940   28.6243   44.2404 H   0  0  0  0  0  0  0  0  0  0  0  0
   58.7891   30.0122   43.7189 H   0  0  0  0  0  0  0  0  0  0  0  0
   58.0463   30.7737   46.7005 H   0  0  0  0  0  0  0  0  0  0  0  0
   62.4920   31.5509   46.7510 H   0  0  0  0  0  0  0  0  0  0  0  0
   64.7900   32.7140   47.1170 H   0  0  0  0  0  0  0  0  0  0  0  0
  1  2  1  0
  2  3  1  0
  3  4  1  0
  4  5  2  0
  5  6  1  0
  6  7  1  0
  7  8  1  0
  8  9  1  0
  9 10  1  0
 10 11  1  0
 11 12  1  0
 12 13  2  0
 13 14  1  0
 14 15  2  0
 15 16  1  0
 16 17  1  0
 17 18  1  0
 18 19  2  0
 18 20  1  0
 20 21  2  0
 21 22  1  0
 22 23  2  0
 23 24  1  0
 24 25  2  0
 16 26  2  0
  5 27  1  0
 27 28  2  0
 28  3  1  0
 10  6  1  0
 26 12  1  0
 25 20  1  0
  1 29  1  0
  1 30  1  0
  1 31  1  0
  2 32  1  0
  2 33  1  0
  4 34  1  0
  6 35  1  6
  7 36  1  0
  7 37  1  0
  8 38  1  0
  8 39  1  0
  9 40  1  0
  9 41  1  0
 11 42  1  0
 11 43  1  0
 13 44  1  0
 14 45  1  0
 15 46  1  0
 21 47  1  0
 22 48  1  0
 23 49  1  0
 24 50  1  0
 25 51  1  0
 26 52  1  0
 27 53  1  0
 28 54  1  0
M  CHG  2  17  -1  28   1
M  END
>  <UniqueID>  (63) 
57

>  <SMILES>  (63) 
CCn1cc([C@H]2CCCN2Cc2cccc([N-]C(=O)c3ccccc3)c2)c[nH+]1

>  <Energy>  (63) 
101.00907439654483

>  <Genealogy>  (63) 
CCn1cc(C2CCCN2Cc2cccc([N-]C(=O)c3ccccc3)c2)c[nH+]1 (protonated)
CCn1cc([C@H]2CCCN2Cc2cccc([N-]C(=O)c3ccccc3)c2)c[nH+]1 (chirality)
CCn1cc([C@H]2CCCN2Cc2cccc([N-]C(=O)c3ccccc3)c2)c[nH+]1 (3D coordinates assigned)
CCn1cc([C@H]2CCCN2Cc2cccc([N-]C(=O)c3ccccc3)c2)c[nH+]1 (nonaromatic ring conformer: 101.00907439654483 kcal/mol)

>  <smiles>  (63) 
CCn1cc(C2CCCN2Cc2cccc(NC(=O)c3ccccc3)c2)cn1

>  <score_type>  (63) 
oracle

>  <origin>  (63) 
adg

>  <m_score__min__energy>  (63) 
-10.369999999999999

>  <m_primary>  (63) 
energy

$$$$
63:0
     RDKit          3D

 46 47  0  0  1  0  0  0  0  0999 V2000
   57.7620   32.1900   42.4690 C   0  0  0  0  0  0  0  0  0  0  0  0
   57.3960   31.2930   43.5230 N   0  0  0  0  0  0  0  0  0  0  0  0
   56.7750   30.1180   42.9550 C   0  0  0  0  0  0  0  0  0  0  0  0
   55.4780   29.7270   43.5970 C   0  0  0  0  0  0  0  0  0  0  0  0
   55.8240   29.2060   44.9170 N   0  0  0  0  0  0  0  0  0  0  0  0
   58.5290   30.8250   44.2940 C   0  0  0  0  0  0  0  0  0  0  0  0
   58.6170   31.4190   45.6760 C   0  0  0  0  0  0  0  0  0  0  0  0
   58.0910   30.5100   46.6720 N   0  0  0  0  0  0  0  0  0  0  0  0
   58.6430   29.4490   47.0900 C   0  0  0  0  0  0  0  0  0  0  0  0
   59.7130   29.5380   47.8930 N   0  0  0  0  0  0  0  0  0  0  0  0
   60.2660   28.3930   48.3130 C   0  0  0  0  0  0  0  0  0  0  0  0
   59.7550   27.1660   47.9340 C   0  0  0  0  0  0  0  0  0  0  0  0
   58.6560   27.1000   47.1080 C   0  0  0  0  0  0  0  0  0  0  0  0
   58.1440   25.9720   46.7350 N   0  0  0  0  0  0  0  0  0  0  0  0
   56.9690   25.8820   45.4940 S   0  0  0  0  0  0  0  0  0  0  0  0
   55.6200   26.3190   45.9180 O   0  0  0  0  0  0  0  0  0  0  0  0
   57.4110   26.8360   44.3920 O   0  0  0  0  0  0  0  0  0  0  0  0
   56.9760   24.2830   44.7520 C   0  0  0  0  0  0  0  0  0  0  0  0
   56.5840   24.0550   43.4640 C   0  0  0  0  0  0  0  0  0  0  0  0
   56.6330   22.7650   42.9890 C   0  0  0  0  0  0  0  0  0  0  0  0
   57.0570   21.6890   43.7450 C   0  0  0  0  0  0  0  0  0  0  0  0
   57.4540   21.9410   45.0560 C   0  0  0  0  0  0  0  0  0  0  0  0
   57.4100   23.2450   45.5550 C   0  0  0  0  0  0  0  0  0  0  0  0
   57.8050   23.4470   46.8410 F   0  0  0  0  0  0  0  0  0  0  0  0
   58.1240   28.2680   46.7050 N   0  0  0  0  0  0  0  0  0  0  0  0
   58.1442   33.1267   42.9009 H   0  0  0  0  0  0  0  0  0  0  0  0
   58.5431   31.7270   41.8481 H   0  0  0  0  0  0  0  0  0  0  0  0
   56.8799   32.4056   41.8481 H   0  0  0  0  0  0  0  0  0  0  0  0
   56.5858   30.3111   41.8887 H   0  0  0  0  0  0  0  0  0  0  0  0
   57.4715   29.2837   43.1248 H   0  0  0  0  0  0  0  0  0  0  0  0
   54.8192   30.6027   43.6922 H   0  0  0  0  0  0  0  0  0  0  0  0
   54.9403   28.9786   42.9964 H   0  0  0  0  0  0  0  0  0  0  0  0
   56.7430   29.6630   45.1760 H   0  0  0  0  0  0  0  0  0  0  0  0
   56.0200   28.1830   44.8800 H   0  0  0  0  0  0  0  0  0  0  0  0
   58.4533   29.7319   44.3914 H   0  0  0  0  0  0  0  0  0  0  0  0
   59.4338   31.1404   43.7537 H   0  0  0  0  0  0  0  0  0  0  0  0
   59.6707   31.6340   45.9075 H   0  0  0  0  0  0  0  0  0  0  0  0
   58.0187   32.3418   45.6967 H   0  0  0  0  0  0  0  0  0  0  0  0
   60.0690   30.4820   48.1580 H   0  0  0  0  0  0  0  0  0  0  0  0
   61.1451   28.4297   48.9732 H   0  0  0  0  0  0  0  0  0  0  0  0
   60.2277   26.2400   48.2933 H   0  0  0  0  0  0  0  0  0  0  0  0
   56.2385   24.8802   42.8239 H   0  0  0  0  0  0  0  0  0  0  0  0
   56.3177   22.5801   41.9515 H   0  0  0  0  0  0  0  0  0  0  0  0
   57.0801   20.6717   43.3272 H   0  0  0  0  0  0  0  0  0  0  0  0
   57.8009   21.1163   45.6960 H   0  0  0  0  0  0  0  0  0  0  0  0
   57.2850   28.1940   46.0790 H   0  0  0  0  0  0  0  0  0  0  0  0
  1  2  1  0
  2  3  1  0
  3  4  1  0
  4  5  1  0
  2  6  1  0
  6  7  1  0
  7  8  1  0
  8  9  2  0
  9 10  1  0
 10 11  1  0
 11 12  2  0
 12 13  1  0
 13 14  2  0
 14 15  1  0
 15 16  2  0
 15 17  2  0
 15 18  1  0
 18 19  2  0
 19 20  1  0
 20 21  2  0
 21 22  1  0
 22 23  2  0
 23 24  1  0
 13 25  1  0
 25  9  1  0
 23 18  1  0
  1 26  1  0
  1 27  1  0
  1 28  1  0
  3 29  1  0
  3 30  1  0
  4 31  1  0
  4 32  1  0
  5 33  1  0
  5 34  1  0
  6 35  1  0
  6 36  1  0
  7 37  1  0
  7 38  1  0
 10 39  1  0
 11 40  1  0
 12 41  1  0
 19 42  1  0
 20 43  1  0
 21 44  1  0
 22 45  1  0
 25 46  1  0
M  END
>  <smiles>  (64) 
CN(CCN)CCN=c1[nH]ccc(=NS(=O)(=O)c2ccccc2F)[nH]1

>  <score_type>  (64) 
oracle

>  <origin>  (64) 
adg

>  <m_score__min__energy>  (64) 
-8.5099999999999998

>  <m_primary>  (64) 
energy

$$$$
64:0
     RDKit          3D

 63 67  0  0  0  0  0  0  0  0999 V2000
   57.3510   19.9980   49.2580 C   0  0  0  0  0  0  0  0  0  0  0  0
   57.3400   21.2320   48.5500 O   0  0  0  0  0  0  0  0  0  0  0  0
   56.2950   21.6580   47.7230 C   0  0  0  0  0  0  0  0  0  0  0  0
   55.1350   20.8800   47.6770 C   0  0  0  0  0  0  0  0  0  0  0  0
   54.0720   21.2400   46.8460 C   0  0  0  0  0  0  0  0  0  0  0  0
   54.1560   22.3910   46.0590 C   0  0  0  0  0  0  0  0  0  0  0  0
   55.2960   23.2030   46.1130 C   0  0  0  0  0  0  0  0  0  0  0  0
   55.3400   24.3710   45.2810 N   0  0  0  0  0  0  0  0  0  0  0  0
   55.8910   25.6470   45.6310 C   0  0  0  0  0  0  0  0  0  0  0  0
   55.1370   26.5860   46.0080 O   0  0  0  0  0  0  0  0  0  0  0  0
   57.2920   25.8720   45.4530 N   0  0  0  0  0  0  0  0  0  0  0  0
   57.9690   27.0790   45.8370 C   0  0  0  0  0  0  0  0  0  0  0  0
   58.4980   27.9700   44.8670 C   0  0  0  0  0  0  0  0  0  0  0  0
   59.1260   29.1680   45.2560 C   0  0  0  0  0  0  0  0  0  0  0  0
   59.2020   29.4490   46.6240 C   0  0  0  0  0  0  0  0  0  0  0  0
   58.6930   28.5970   47.5570 C   0  0  0  0  0  0  0  0  0  0  0  0
   58.0590   27.4100   47.2060 C   0  0  0  0  0  0  0  0  0  0  0  0
   58.8940   29.0740   48.7950 N   0  0  0  0  0  0  0  0  0  0  0  0
   59.5350   30.2510   48.5740 C   0  0  0  0  0  0  0  0  0  0  0  0
   60.0200   31.1020   49.7110 C   0  0  0  0  0  0  0  0  0  0  0  0
   59.0120   32.2150   50.0100 C   0  0  0  0  0  0  0  0  0  0  0  0
   59.6670   33.5180   50.0270 N   0  0  0  0  0  0  0  0  0  0  0  0
   60.2060   34.1770   48.8740 C   0  0  0  0  0  0  0  0  0  0  0  0
   59.4920   34.9690   48.2000 O   0  0  0  0  0  0  0  0  0  0  0  0
   61.5980   33.9340   48.4760 C   0  0  0  0  0  0  0  0  0  0  0  0
   62.6110   33.4940   49.3080 C   0  0  0  0  0  0  0  0  0  0  0  0
   63.7350   33.4250   48.5170 C   0  0  0  0  0  0  0  0  0  0  0  0
   63.3420   33.8240   47.2530 C   0  0  0  0  0  0  0  0  0  0  0  0
   62.0630   34.1190   47.2600 O   0  0  0  0  0  0  0  0  0  0  0  0
   59.7390   30.5140   47.2510 N   0  0  0  0  0  0  0  0  0  0  0  0
   60.3800   31.6880   46.6430 C   0  0  0  0  0  0  0  0  0  0  0  0
   59.3500   32.6160   46.0600 C   0  0  0  0  0  0  0  0  0  0  0  0
   59.7500   33.8000   45.4150 C   0  0  0  0  0  0  0  0  0  0  0  0
   58.7880   34.6740   44.9000 C   0  0  0  0  0  0  0  0  0  0  0  0
   57.4310   34.3670   45.0010 C   0  0  0  0  0  0  0  0  0  0  0  0
   57.0260   33.1840   45.6280 C   0  0  0  0  0  0  0  0  0  0  0  0
   57.9790   32.3090   46.1560 C   0  0  0  0  0  0  0  0  0  0  0  0
   56.3750   22.8250   46.9370 C   0  0  0  0  0  0  0  0  0  0  0  0
   57.3492   20.1960   50.3400 H   0  0  0  0  0  0  0  0  0  0  0  0
   56.4580   19.4139   48.9907 H   0  0  0  0  0  0  0  0  0  0  0  0
   58.2542   19.4299   48.9907 H   0  0  0  0  0  0  0  0  0  0  0  0
   55.0587   19.9769   48.3003 H   0  0  0  0  0  0  0  0  0  0  0  0
   53.1668   20.6160   46.8111 H   0  0  0  0  0  0  0  0  0  0  0  0
   53.3228   22.6610   45.3936 H   0  0  0  0  0  0  0  0  0  0  0  0
   57.8250   25.1600   44.9080 H   0  0  0  0  0  0  0  0  0  0  0  0
   58.4162   27.7213   43.7986 H   0  0  0  0  0  0  0  0  0  0  0  0
   59.5429   29.8599   44.5094 H   0  0  0  0  0  0  0  0  0  0  0  0
   57.6384   26.7461   47.9757 H   0  0  0  0  0  0  0  0  0  0  0  0
   60.1442   30.4749   50.6062 H   0  0  0  0  0  0  0  0  0  0  0  0
   60.9823   31.5564   49.4324 H   0  0  0  0  0  0  0  0  0  0  0  0
   58.2327   32.2135   49.2337 H   0  0  0  0  0  0  0  0  0  0  0  0
   58.5681   32.0313   50.9995 H   0  0  0  0  0  0  0  0  0  0  0  0
   62.5345   33.2502   50.3779 H   0  0  0  0  0  0  0  0  0  0  0  0
   64.7435   33.1147   48.8280 H   0  0  0  0  0  0  0  0  0  0  0  0
   64.0012   33.8850   46.3746 H   0  0  0  0  0  0  0  0  0  0  0  0
   60.9545   32.2244   47.4126 H   0  0  0  0  0  0  0  0  0  0  0  0
   61.0458   31.3482   45.8361 H   0  0  0  0  0  0  0  0  0  0  0  0
   60.8193   34.0383   45.3158 H   0  0  0  0  0  0  0  0  0  0  0  0
   59.1028   35.6086   44.4126 H   0  0  0  0  0  0  0  0  0  0  0  0
   56.6792   35.0554   44.5875 H   0  0  0  0  0  0  0  0  0  0  0  0
   55.9557   32.9421   45.7055 H   0  0  0  0  0  0  0  0  0  0  0  0
   57.6577   31.3788   46.6475 H   0  0  0  0  0  0  0  0  0  0  0  0
   57.2840   23.4438   46.9668 H   0  0  0  0  0  0  0  0  0  0  0  0
  1  2  1  0
  2  3  1  0
  3  4  2  0
  4  5  1  0
  5  6  2  0
  6  7  1  0
  7  8  1  0
  8  9  1  0
  9 10  2  0
  9 11  1  0
 11 12  1  0
 12 13  2  0
 13 14  1  0
 14 15  2  0
 15 16  1  0
 16 17  2  0
 16 18  1  0
 18 19  2  0
 19 20  1  0
 20 21  1  0
 21 22  1  0
 22 23  1  0
 23 24  2  0
 23 25  1  0
 25 26  2  0
 26 27  1  0
 27 28  2  0
 28 29  1  0
 19 30  1  0
 30 31  1  0
 31 32  1  0
 32 33  2  0
 33 34  1  0
 34 35  2  0
 35 36  1  0
 36 37  2  0
  7 38  2  0
 38  3  1  0
 17 12  1  0
 29 25  1  0
 37 32  1  0
 30 15  1  0
  1 39  1  0
  1 40  1  0
  1 41  1  0
  4 42  1  0
  5 43  1  0
  6 44  1  0
 11 45  1  0
 13 46  1  0
 14 47  1  0
 17 48  1  0
 20 49  1  0
 20 50  1  0
 21 51  1  0
 21 52  1  0
 26 53  1  0
 27 54  1  0
 28 55  1  0
 31 56  1  0
 31 57  1  0
 33 58  1  0
 34 59  1  0
 35 60  1  0
 36 61  1  0
 37 62  1  0
 38 63  1  0
M  CHG  2   8  -1  22  -1
M  END
>  <UniqueID>  (65) 
58

>  <SMILES>  (65) 
COc1cccc([N-]C(=O)Nc2ccc3c(c2)nc(CC[N-]C(=O)c2ccco2)n3Cc2ccccc2)c1

>  <Energy>  (65) 
130.94310284051124

>  <Genealogy>  (65) 
COc1cccc([N-]C(=O)Nc2ccc3c(c2)nc(CC[N-]C(=O)c2ccco2)n3Cc2ccccc2)c1 (protonated)
COc1cccc([N-]C(=O)Nc2ccc3c(c2)nc(CC[N-]C(=O)c2ccco2)n3Cc2ccccc2)c1 (3D coordinates assigned)
COc1cccc([N-]C(=O)Nc2ccc3c(c2)nc(CC[N-]C(=O)c2ccco2)n3Cc2ccccc2)c1 (optimized conformer: 130.94310284051124 kcal/mol)

>  <smiles>  (65) 
COc1cccc(NC(=O)Nc2ccc3c(c2)nc(CCNC(=O)c2ccco2)n3Cc2ccccc2)c1

>  <score_type>  (65) 
oracle

>  <origin>  (65) 
adg

>  <m_score__min__energy>  (65) 
-12.140000000000001

>  <m_primary>  (65) 
energy

$$$$
65:0
     RDKit          3D

 35 37  0  0  0  0  0  0  0  0999 V2000
   57.3690   31.5840   43.0620 N   0  0  0  0  0  0  0  0  0  0  0  0
   57.3150   30.6360   43.7240 C   0  0  0  0  0  0  0  0  0  0  0  0
   57.2480   29.4530   44.5530 C   0  0  0  0  0  0  0  0  0  0  0  0
   56.0000   28.8710   44.8500 C   0  0  0  0  0  0  0  0  0  0  0  0
   54.8050   29.3960   44.3570 O   0  0  0  0  0  0  0  0  0  0  0  0
   55.9440   27.7650   45.6340 N   0  0  0  0  0  0  0  0  0  0  0  0
   57.0520   27.1920   46.1650 C   0  0  0  0  0  0  0  0  0  0  0  0
   56.9270   26.1620   46.8800 O   0  0  0  0  0  0  0  0  0  0  0  0
   58.3220   27.7470   45.9210 C   0  0  0  0  0  0  0  0  0  0  0  0
   58.4260   28.8740   45.0800 C   0  0  0  0  0  0  0  0  0  0  0  0
   59.7720   29.5020   44.7810 C   0  0  0  0  0  0  0  0  0  0  0  0
   60.9800   28.7540   45.3680 C   0  0  0  0  0  0  0  0  0  0  0  0
   60.6820   28.0450   46.6230 N   0  0  0  0  0  0  0  0  0  0  0  0
   60.7520   28.8440   47.8700 C   0  0  0  0  0  0  0  0  0  0  0  0
   60.4250   30.3090   47.6900 C   0  0  0  0  0  0  0  0  0  0  0  0
   59.0950   30.7560   47.7750 C   0  0  0  0  0  0  0  0  0  0  0  0
   58.7950   32.1140   47.6290 C   0  0  0  0  0  0  0  0  0  0  0  0
   59.8160   33.0330   47.3740 C   0  0  0  0  0  0  0  0  0  0  0  0
   59.5240   34.3490   47.2360 F   0  0  0  0  0  0  0  0  0  0  0  0
   61.1360   32.5930   47.2510 C   0  0  0  0  0  0  0  0  0  0  0  0
   61.4400   31.2370   47.3950 C   0  0  0  0  0  0  0  0  0  0  0  0
   59.5550   27.1060   46.5130 C   0  0  0  0  0  0  0  0  0  0  0  0
   53.9090   28.9450   44.4920 H   0  0  0  0  0  0  0  0  0  0  0  0
   59.8942   29.5444   43.6886 H   0  0  0  0  0  0  0  0  0  0  0  0
   59.7623   30.4937   45.2568 H   0  0  0  0  0  0  0  0  0  0  0  0
   61.3269   28.0186   44.6272 H   0  0  0  0  0  0  0  0  0  0  0  0
   61.7457   29.5093   45.5986 H   0  0  0  0  0  0  0  0  0  0  0  0
   60.0398   28.4184   48.5922 H   0  0  0  0  0  0  0  0  0  0  0  0
   61.7945   28.7946   48.2174 H   0  0  0  0  0  0  0  0  0  0  0  0
   58.2858   30.0336   47.9574 H   0  0  0  0  0  0  0  0  0  0  0  0
   57.7541   32.4590   47.7150 H   0  0  0  0  0  0  0  0  0  0  0  0
   61.9380   33.3158   47.0403 H   0  0  0  0  0  0  0  0  0  0  0  0
   62.4783   30.8934   47.2771 H   0  0  0  0  0  0  0  0  0  0  0  0
   59.8579   26.2654   45.8714 H   0  0  0  0  0  0  0  0  0  0  0  0
   59.3009   26.7692   47.5289 H   0  0  0  0  0  0  0  0  0  0  0  0
  1  2  3  0
  2  3  1  0
  3  4  2  0
  4  5  1  0
  4  6  1  0
  6  7  1  0
  7  8  2  0
  7  9  1  0
  9 10  2  0
 10 11  1  0
 11 12  1  0
 12 13  1  0
 13 14  1  0
 14 15  1  0
 15 16  2  0
 16 17  1  0
 17 18  2  0
 18 19  1  0
 18 20  1  0
 20 21  2  0
 13 22  1  0
 10  3  1  0
 21 15  1  0
 22  9  1  0
  5 23  1  0
 11 24  1  0
 11 25  1  0
 12 26  1  0
 12 27  1  0
 14 28  1  0
 14 29  1  0
 16 30  1  0
 17 31  1  0
 20 32  1  0
 21 33  1  0
 22 34  1  0
 22 35  1  0
M  CHG  1   6  -1
M  END
>  <UniqueID>  (66) 
59

>  <SMILES>  (66) 
N#Cc1c(O)[n-]c(=O)c2c1CCN(Cc1ccc(F)cc1)C2

>  <Energy>  (66) 
49.96591413878076

>  <Genealogy>  (66) 
N#Cc1c(O)[n-]c(=O)c2c1CCN(Cc1ccc(F)cc1)C2 (protonated)
N#Cc1c(O)[n-]c(=O)c2c1CCN(Cc1ccc(F)cc1)C2 (3D coordinates assigned)
N#Cc1c(O)[n-]c(=O)c2c1CCN(Cc1ccc(F)cc1)C2 (nonaromatic ring conformer: 49.96591413878076 kcal/mol)

>  <smiles>  (66) 
N#Cc1c(O)[nH]c(=O)c2c1CCN(Cc1ccc(F)cc1)C2

>  <score_type>  (66) 
oracle

>  <origin>  (66) 
adg

>  <m_score__min__energy>  (66) 
-9.1699999999999999

>  <m_primary>  (66) 
energy

$$$$
66:0
     RDKit          3D

 54 56  0  0  0  0  0  0  0  0999 V2000
   56.9750   34.3310   44.8870 C   0  0  0  0  0  0  0  0  0  0  0  0
   58.2260   33.8610   45.5710 C   0  0  0  0  0  0  0  0  0  0  0  0
   58.5040   32.4890   45.6520 C   0  0  0  0  0  0  0  0  0  0  0  0
   59.6850   32.0430   46.2520 C   0  0  0  0  0  0  0  0  0  0  0  0
   60.6260   32.9610   46.7380 C   0  0  0  0  0  0  0  0  0  0  0  0
   62.1100   32.3880   47.5060 S   0  0  0  0  0  0  0  0  0  0  0  0
   62.3860   30.9830   47.0510 O   0  0  0  0  0  0  0  0  0  0  0  0
   63.2460   33.2500   47.0330 O   0  0  0  0  0  0  0  0  0  0  0  0
   62.0570   32.4210   49.2610 N   0  0  0  0  0  0  0  0  0  0  0  0
   61.4660   31.2030   49.8560 C   0  0  0  0  0  0  0  0  0  0  0  0
   60.3600   30.5890   49.0340 C   0  0  0  0  0  0  0  0  0  0  0  0
   59.2470   31.1800   48.9900 O   0  0  0  0  0  0  0  0  0  0  0  0
   60.6190   29.4390   48.2110 N   0  0  0  0  0  0  0  0  0  0  0  0
   59.6580   28.4750   47.7250 C   0  0  0  0  0  0  0  0  0  0  0  0
   58.6120   28.9320   46.9020 C   0  0  0  0  0  0  0  0  0  0  0  0
   57.6500   28.0460   46.4030 C   0  0  0  0  0  0  0  0  0  0  0  0
   57.7210   26.6830   46.7120 C   0  0  0  0  0  0  0  0  0  0  0  0
   56.5040   25.5610   46.1100 S   0  0  0  0  0  0  0  0  0  0  0  0
   54.9780   26.3690   46.0010 N   0  0  0  0  0  0  0  0  0  0  0  0
   56.8940   25.0530   44.7490 O   0  0  0  0  0  0  0  0  0  0  0  0
   56.3910   24.3910   47.0500 O   0  0  0  0  0  0  0  0  0  0  0  0
   58.7550   26.2180   47.5350 C   0  0  0  0  0  0  0  0  0  0  0  0
   59.7140   27.1010   48.0360 C   0  0  0  0  0  0  0  0  0  0  0  0
   61.5120   33.6800   49.8090 C   0  0  0  0  0  0  0  0  0  0  0  0
   60.6280   33.4120   51.0000 C   0  0  0  0  0  0  0  0  0  0  0  0
   59.2280   33.3930   50.8600 C   0  0  0  0  0  0  0  0  0  0  0  0
   58.4130   33.1350   51.9670 C   0  0  0  0  0  0  0  0  0  0  0  0
   58.9860   32.8780   53.2170 C   0  0  0  0  0  0  0  0  0  0  0  0
   60.3770   32.8660   53.3610 C   0  0  0  0  0  0  0  0  0  0  0  0
   61.1950   33.1190   52.2550 C   0  0  0  0  0  0  0  0  0  0  0  0
   60.3420   34.3340   46.6710 C   0  0  0  0  0  0  0  0  0  0  0  0
   59.1500   34.7820   46.0890 C   0  0  0  0  0  0  0  0  0  0  0  0
   56.2271   34.6120   45.6431 H   0  0  0  0  0  0  0  0  0  0  0  0
   57.2065   35.2035   44.2583 H   0  0  0  0  0  0  0  0  0  0  0  0
   56.5747   33.5219   44.2583 H   0  0  0  0  0  0  0  0  0  0  0  0
   57.7894   31.7604   45.2415 H   0  0  0  0  0  0  0  0  0  0  0  0
   59.8773   30.9638   46.3434 H   0  0  0  0  0  0  0  0  0  0  0  0
   62.2637   30.4550   49.9751 H   0  0  0  0  0  0  0  0  0  0  0  0
   61.0184   31.5040   50.8147 H   0  0  0  0  0  0  0  0  0  0  0  0
   61.6250   29.2520   47.9950 H   0  0  0  0  0  0  0  0  0  0  0  0
   58.5495   30.0003   46.6473 H   0  0  0  0  0  0  0  0  0  0  0  0
   56.8359   28.4222   45.7661 H   0  0  0  0  0  0  0  0  0  0  0  0
   55.1710   27.3990   46.0160 H   0  0  0  0  0  0  0  0  0  0  0  0
   58.8120   25.1491   47.7885 H   0  0  0  0  0  0  0  0  0  0  0  0
   60.5210   26.7207   48.6796 H   0  0  0  0  0  0  0  0  0  0  0  0
   62.3451   34.3284   50.1179 H   0  0  0  0  0  0  0  0  0  0  0  0
   60.9108   34.1707   49.0293 H   0  0  0  0  0  0  0  0  0  0  0  0
   58.7729   33.5817   49.8765 H   0  0  0  0  0  0  0  0  0  0  0  0
   57.3188   33.1342   51.8544 H   0  0  0  0  0  0  0  0  0  0  0  0
   58.3418   32.6852   54.0875 H   0  0  0  0  0  0  0  0  0  0  0  0
   60.8272   32.6579   54.3428 H   0  0  0  0  0  0  0  0  0  0  0  0
   62.2889   33.0888   52.3665 H   0  0  0  0  0  0  0  0  0  0  0  0
   61.0596   35.0617   47.0778 H   0  0  0  0  0  0  0  0  0  0  0  0
   58.9368   35.8599   46.0375 H   0  0  0  0  0  0  0  0  0  0  0  0
  1  2  1  0
  2  3  2  0
  3  4  1  0
  4  5  2  0
  5  6  1  0
  6  7  2  0
  6  8  2  0
  6  9  1  0
  9 10  1  0
 10 11  1  0
 11 12  2  0
 11 13  1  0
 13 14  1  0
 14 15  2  0
 15 16  1  0
 16 17  2  0
 17 18  1  0
 18 19  1  0
 18 20  2  0
 18 21  2  0
 17 22  1  0
 22 23  2  0
  9 24  1  0
 24 25  1  0
 25 26  2  0
 26 27  1  0
 27 28  2  0
 28 29  1  0
 29 30  2  0
  5 31  1  0
 31 32  2  0
 32  2  1  0
 23 14  1  0
 30 25  1  0
  1 33  1  0
  1 34  1  0
  1 35  1  0
  3 36  1  0
  4 37  1  0
 10 38  1  0
 10 39  1  0
 13 40  1  0
 15 41  1  0
 16 42  1  0
 19 43  1  0
 22 44  1  0
 23 45  1  0
 24 46  1  0
 24 47  1  0
 26 48  1  0
 27 49  1  0
 28 50  1  0
 29 51  1  0
 30 52  1  0
 31 53  1  0
 32 54  1  0
M  CHG  1  19  -1
M  END
>  <UniqueID>  (67) 
60

>  <SMILES>  (67) 
Cc1ccc(S(=O)(=O)N(CC(=O)Nc2ccc(S([NH-])(=O)=O)cc2)Cc2ccccc2)cc1

>  <Energy>  (67) 
59.43855387830269

>  <Genealogy>  (67) 
Cc1ccc(S(=O)(=O)N(CC(=O)Nc2ccc(S([NH-])(=O)=O)cc2)Cc2ccccc2)cc1 (protonated)
Cc1ccc(S(=O)(=O)N(CC(=O)Nc2ccc(S([NH-])(=O)=O)cc2)Cc2ccccc2)cc1 (3D coordinates assigned)
Cc1ccc(S(=O)(=O)N(CC(=O)Nc2ccc(S([NH-])(=O)=O)cc2)Cc2ccccc2)cc1 (optimized conformer: 59.43855387830269 kcal/mol)

>  <smiles>  (67) 
Cc1ccc(S(=O)(=O)N(CC(=O)Nc2ccc(S(N)(=O)=O)cc2)Cc2ccccc2)cc1

>  <score_type>  (67) 
oracle

>  <origin>  (67) 
adg

>  <m_score__min__energy>  (67) 
-12.449999999999999

>  <m_primary>  (67) 
energy

$$$$
67:0
     RDKit          3D

 62 66  0  0  0  0  0  0  0  0999 V2000
   50.6810   33.2420   52.0260 O   0  0  0  0  0  0  0  0  0  0  0  0
   51.2270   32.3440   51.3290 C   0  0  0  0  0  0  0  0  0  0  0  0
   51.0360   32.3480   49.9520 O   0  0  0  0  0  0  0  0  0  0  0  0
   52.0670   31.3060   51.9650 C   0  0  0  0  0  0  0  0  0  0  0  0
   53.2440   30.8570   51.3420 C   0  0  0  0  0  0  0  0  0  0  0  0
   54.0300   29.8710   51.9420 C   0  0  0  0  0  0  0  0  0  0  0  0
   53.6550   29.3210   53.1800 C   0  0  0  0  0  0  0  0  0  0  0  0
   54.4170   28.2740   53.7990 N   0  0  0  0  0  0  0  0  0  0  0  0
   55.6010   28.4620   54.5820 C   0  0  0  0  0  0  0  0  0  0  0  0
   55.6780   27.9010   55.7080 O   0  0  0  0  0  0  0  0  0  0  0  0
   56.7080   29.3320   54.1200 C   0  0  0  0  0  0  0  0  0  0  0  0
   57.6360   29.8460   55.0380 C   0  0  0  0  0  0  0  0  0  0  0  0
   58.6850   30.6530   54.5990 C   0  0  0  0  0  0  0  0  0  0  0  0
   58.8210   30.9530   53.2430 C   0  0  0  0  0  0  0  0  0  0  0  0
   57.9030   30.4530   52.3010 C   0  0  0  0  0  0  0  0  0  0  0  0
   58.0430   30.8190   50.8660 C   0  0  0  0  0  0  0  0  0  0  0  0
   58.2470   29.9130   50.0130 O   0  0  0  0  0  0  0  0  0  0  0  0
   57.9330   32.1820   50.4270 N   0  0  0  0  0  0  0  0  0  0  0  0
   58.7750   32.7780   49.4240 C   0  0  0  0  0  0  0  0  0  0  0  0
   59.8380   33.6360   49.7630 C   0  0  0  0  0  0  0  0  0  0  0  0
   60.6390   34.1990   48.7660 C   0  0  0  0  0  0  0  0  0  0  0  0
   60.3750   33.9390   47.4210 C   0  0  0  0  0  0  0  0  0  0  0  0
   59.2910   33.1270   47.0580 C   0  0  0  0  0  0  0  0  0  0  0  0
   58.9920   32.8640   45.6020 C   0  0  0  0  0  0  0  0  0  0  0  0
   58.1170   31.6480   45.4270 C   0  0  0  0  0  0  0  0  0  0  0  0
   56.8260   31.8380   45.0460 N   0  0  0  0  0  0  0  0  0  0  0  0
   55.9880   30.8210   44.8460 N   0  0  0  0  0  0  0  0  0  0  0  0
   56.3820   29.5340   45.0010 C   0  0  0  0  0  0  0  0  0  0  0  0
   55.5560   28.6010   44.8110 O   0  0  0  0  0  0  0  0  0  0  0  0
   57.7040   29.2610   45.3730 C   0  0  0  0  0  0  0  0  0  0  0  0
   58.5870   30.3300   45.5990 C   0  0  0  0  0  0  0  0  0  0  0  0
   59.9740   29.9920   46.0960 C   0  0  0  0  0  0  0  0  0  0  0  0
   60.5860   28.8360   45.2830 C   0  0  0  0  0  0  0  0  0  0  0  0
   59.6030   27.6800   44.9690 C   0  0  0  0  0  0  0  0  0  0  0  0
   58.2030   27.8530   45.5840 C   0  0  0  0  0  0  0  0  0  0  0  0
   58.5100   32.5290   48.0670 C   0  0  0  0  0  0  0  0  0  0  0  0
   56.8470   29.6360   52.7540 C   0  0  0  0  0  0  0  0  0  0  0  0
   52.4770   29.7560   53.7950 C   0  0  0  0  0  0  0  0  0  0  0  0
   51.6920   30.7440   53.1980 C   0  0  0  0  0  0  0  0  0  0  0  0
   53.5481   31.2851   50.3754 H   0  0  0  0  0  0  0  0  0  0  0  0
   54.9468   29.5231   51.4435 H   0  0  0  0  0  0  0  0  0  0  0  0
   57.5358   29.6116   56.1080 H   0  0  0  0  0  0  0  0  0  0  0  0
   59.4080   31.0546   55.3243 H   0  0  0  0  0  0  0  0  0  0  0  0
   59.6547   31.5871   52.9069 H   0  0  0  0  0  0  0  0  0  0  0  0
   57.1370   32.7480   50.7920 H   0  0  0  0  0  0  0  0  0  0  0  0
   60.0396   33.8649   50.8199 H   0  0  0  0  0  0  0  0  0  0  0  0
   61.4813   34.8500   49.0428 H   0  0  0  0  0  0  0  0  0  0  0  0
   61.0197   34.3726   46.6423 H   0  0  0  0  0  0  0  0  0  0  0  0
   58.4763   33.7390   45.1795 H   0  0  0  0  0  0  0  0  0  0  0  0
   59.9441   32.6811   45.0823 H   0  0  0  0  0  0  0  0  0  0  0  0
   60.6168   30.8794   45.9993 H   0  0  0  0  0  0  0  0  0  0  0  0
   59.9025   29.6804   47.1485 H   0  0  0  0  0  0  0  0  0  0  0  0
   60.9531   29.2433   44.3294 H   0  0  0  0  0  0  0  0  0  0  0  0
   61.3860   28.4063   45.9038 H   0  0  0  0  0  0  0  0  0  0  0  0
   59.4929   27.6088   43.8768 H   0  0  0  0  0  0  0  0  0  0  0  0
   60.0328   26.7715   45.4161 H   0  0  0  0  0  0  0  0  0  0  0  0
   57.5078   27.1471   45.1061 H   0  0  0  0  0  0  0  0  0  0  0  0
   58.2618   27.6543   46.6643 H   0  0  0  0  0  0  0  0  0  0  0  0
   57.6830   31.8592   47.7888 H   0  0  0  0  0  0  0  0  0  0  0  0
   56.1236   29.2317   52.0307 H   0  0  0  0  0  0  0  0  0  0  0  0
   52.1670   29.3171   54.7548 H   0  0  0  0  0  0  0  0  0  0  0  0
   50.7727   31.0856   53.6962 H   0  0  0  0  0  0  0  0  0  0  0  0
  1  2  2  0
  2  3  1  0
  2  4  1  0
  4  5  2  0
  5  6  1  0
  6  7  2  0
  7  8  1  0
  8  9  1  0
  9 10  2  0
  9 11  1  0
 11 12  2  0
 12 13  1  0
 13 14  2  0
 14 15  1  0
 15 16  1  0
 16 17  2  0
 16 18  1  0
 18 19  1  0
 19 20  2  0
 20 21  1  0
 21 22  2  0
 22 23  1  0
 23 24  1  0
 24 25  1  0
 25 26  2  0
 26 27  1  0
 27 28  1  0
 28 29  2  0
 28 30  1  0
 30 31  2  0
 31 32  1  0
 32 33  1  0
 33 34  1  0
 34 35  1  0
 23 36  2  0
 15 37  2  0
  7 38  1  0
 38 39  2  0
 39  4  1  0
 37 11  1  0
 36 19  1  0
 31 25  1  0
 35 30  1  0
  5 40  1  0
  6 41  1  0
 12 42  1  0
 13 43  1  0
 14 44  1  0
 18 45  1  0
 20 46  1  0
 21 47  1  0
 22 48  1  0
 24 49  1  0
 24 50  1  0
 32 51  1  0
 32 52  1  0
 33 53  1  0
 33 54  1  0
 34 55  1  0
 34 56  1  0
 35 57  1  0
 35 58  1  0
 36 59  1  0
 37 60  1  0
 38 61  1  0
 39 62  1  0
M  CHG  3   3  -1   8  -1  27  -1
M  END
>  <UniqueID>  (68) 
61

>  <SMILES>  (68) 
O=C([O-])c1ccc([N-]C(=O)c2cccc(C(=O)Nc3cccc(Cc4n[n-]c(=O)c5c4CCCC5)c3)c2)cc1

>  <Energy>  (68) 
90.51565656916344

>  <Genealogy>  (68) 
O=C([O-])c1ccc([N-]C(=O)c2cccc(C(=O)Nc3cccc(Cc4n[n-]c(=O)c5c4CCCC5)c3)c2)cc1 (protonated)
O=C([O-])c1ccc([N-]C(=O)c2cccc(C(=O)Nc3cccc(Cc4n[n-]c(=O)c5c4CCCC5)c3)c2)cc1 (3D coordinates assigned)
O=C([O-])c1ccc([N-]C(=O)c2cccc(C(=O)Nc3cccc(Cc4n[n-]c(=O)c5c4CCCC5)c3)c2)cc1 (nonaromatic ring conformer: 90.51565656916344 kcal/mol)

>  <smiles>  (68) 
O=C(O)c1ccc(NC(=O)c2cccc(C(=O)Nc3cccc(Cc4n[nH]c(=O)c5c4CCCC5)c3)c2)cc1

>  <score_type>  (68) 
oracle

>  <origin>  (68) 
adg

>  <m_score__min__energy>  (68) 
-19.059999999999999

>  <m_primary>  (68) 
energy

$$$$
68:0
     RDKit          3D

 39 42  0  0  0  0  0  0  0  0999 V2000
   55.8400   25.0430   46.8120 O   0  0  0  0  0  0  0  0  0  0  0  0
   57.0700   24.7730   46.7610 C   0  0  0  0  0  0  0  0  0  0  0  0
   57.5080   23.3560   46.5770 C   0  0  0  0  0  0  0  0  0  0  0  0
   57.1460   22.8810   45.1980 C   0  0  0  0  0  0  0  0  0  0  0  0
   57.4730   21.5780   44.7880 C   0  0  0  0  0  0  0  0  0  0  0  0
   57.1660   21.1490   43.4920 C   0  0  0  0  0  0  0  0  0  0  0  0
   56.5410   22.0200   42.5970 C   0  0  0  0  0  0  0  0  0  0  0  0
   56.2250   23.3220   42.9920 C   0  0  0  0  0  0  0  0  0  0  0  0
   56.5300   23.7560   44.2860 C   0  0  0  0  0  0  0  0  0  0  0  0
   58.0340   25.7900   46.7670 O   0  0  0  0  0  0  0  0  0  0  0  0
   57.8170   27.1170   46.3700 C   0  0  0  0  0  0  0  0  0  0  0  0
   56.6350   27.4230   45.6920 C   0  0  0  0  0  0  0  0  0  0  0  0
   56.3660   28.7280   45.2650 C   0  0  0  0  0  0  0  0  0  0  0  0
   55.1670   28.9780   44.6040 O   0  0  0  0  0  0  0  0  0  0  0  0
   57.3030   29.7590   45.5070 C   0  0  0  0  0  0  0  0  0  0  0  0
   57.0970   31.0970   45.1060 C   0  0  0  0  0  0  0  0  0  0  0  0
   56.0390   31.4340   44.5070 O   0  0  0  0  0  0  0  0  0  0  0  0
   58.0870   32.0580   45.3770 C   0  0  0  0  0  0  0  0  0  0  0  0
   57.9430   33.4070   45.0030 C   0  0  0  0  0  0  0  0  0  0  0  0
   58.9540   34.3290   45.2930 C   0  0  0  0  0  0  0  0  0  0  0  0
   60.1120   33.9160   45.9560 C   0  0  0  0  0  0  0  0  0  0  0  0
   60.2670   32.5790   46.3330 C   0  0  0  0  0  0  0  0  0  0  0  0
   59.2620   31.6470   46.0480 C   0  0  0  0  0  0  0  0  0  0  0  0
   59.4220   30.3810   46.4120 O   0  0  0  0  0  0  0  0  0  0  0  0
   58.5110   29.4420   46.1760 C   0  0  0  0  0  0  0  0  0  0  0  0
   58.7610   28.1320   46.5970 C   0  0  0  0  0  0  0  0  0  0  0  0
   58.5980   23.2915   46.7100 H   0  0  0  0  0  0  0  0  0  0  0  0
   57.0031   22.7225   47.3212 H   0  0  0  0  0  0  0  0  0  0  0  0
   57.9723   20.8923   45.4883 H   0  0  0  0  0  0  0  0  0  0  0  0
   57.4171   20.1251   43.1780 H   0  0  0  0  0  0  0  0  0  0  0  0
   56.2972   21.6803   41.5796 H   0  0  0  0  0  0  0  0  0  0  0  0
   55.7355   24.0071   42.2841 H   0  0  0  0  0  0  0  0  0  0  0  0
   56.2873   24.7846   44.5911 H   0  0  0  0  0  0  0  0  0  0  0  0
   55.9043   26.6258   45.4906 H   0  0  0  0  0  0  0  0  0  0  0  0
   57.0328   33.7373   44.4811 H   0  0  0  0  0  0  0  0  0  0  0  0
   58.8369   35.3822   44.9981 H   0  0  0  0  0  0  0  0  0  0  0  0
   60.9041   34.6450   46.1821 H   0  0  0  0  0  0  0  0  0  0  0  0
   61.1807   32.2584   46.8548 H   0  0  0  0  0  0  0  0  0  0  0  0
   59.7046   27.8946   47.1101 H   0  0  0  0  0  0  0  0  0  0  0  0
  1  2  2  0
  2  3  1  0
  3  4  1  0
  4  5  2  0
  5  6  1  0
  6  7  2  0
  7  8  1  0
  8  9  2  0
  2 10  1  0
 10 11  1  0
 11 12  2  0
 12 13  1  0
 13 14  1  0
 13 15  2  0
 15 16  1  0
 16 17  2  0
 16 18  1  0
 18 19  2  0
 19 20  1  0
 20 21  2  0
 21 22  1  0
 22 23  2  0
 23 24  1  0
 24 25  1  0
 25 26  2  0
  9  4  1  0
 26 11  1  0
 25 15  1  0
 23 18  1  0
  3 27  1  0
  3 28  1  0
  5 29  1  0
  6 30  1  0
  7 31  1  0
  8 32  1  0
  9 33  1  0
 12 34  1  0
 19 35  1  0
 20 36  1  0
 21 37  1  0
 22 38  1  0
 26 39  1  0
M  CHG  1  14  -1
M  END
>  <UniqueID>  (69) 
62

>  <SMILES>  (69) 
O=C(Cc1ccccc1)Oc1cc([O-])c2c(=O)c3ccccc3oc2c1

>  <Energy>  (69) 
56.937093740521526

>  <Genealogy>  (69) 
O=C(Cc1ccccc1)Oc1cc([O-])c2c(=O)c3ccccc3oc2c1 (protonated)
O=C(Cc1ccccc1)Oc1cc([O-])c2c(=O)c3ccccc3oc2c1 (3D coordinates assigned)
O=C(Cc1ccccc1)Oc1cc([O-])c2c(=O)c3ccccc3oc2c1 (optimized conformer: 56.937093740521526 kcal/mol)

>  <smiles>  (69) 
O=C(Cc1ccccc1)Oc1cc(O)c2c(=O)c3ccccc3oc2c1

>  <score_type>  (69) 
oracle

>  <origin>  (69) 
adg

>  <m_score__min__energy>  (69) 
-11.18

>  <m_primary>  (69) 
energy

$$$$
69:0
     RDKit          3D

 47 50  0  0  0  0  0  0  0  0999 V2000
   58.4134   28.0962   43.9548 H   0  0  0  0  0  0  0  0  0  0  0  0
   58.0790   29.0580   44.3710 C   0  0  0  0  0  0  0  0  0  0  0  0
   57.1980   30.2310   43.5530 S   0  0  0  0  0  0  0  0  0  0  0  0
   57.1740   31.2830   44.8690 C   0  0  0  0  0  0  0  0  0  0  0  0
   56.5740   32.4370   44.9260 N   0  0  0  0  0  0  0  0  0  0  0  0
   57.1750   33.6940   45.2740 C   0  0  0  0  0  0  0  0  0  0  0  0
   56.6230   34.7570   44.8820 O   0  0  0  0  0  0  0  0  0  0  0  0
   58.3880   33.7770   46.1180 C   0  0  0  0  0  0  0  0  0  0  0  0
   59.6110   34.1840   45.5600 C   0  0  0  0  0  0  0  0  0  0  0  0
   59.6552   34.4969   44.5064 H   0  0  0  0  0  0  0  0  0  0  0  0
   60.7720   34.1930   46.3380 C   0  0  0  0  0  0  0  0  0  0  0  0
   61.7260   34.5106   45.8919 H   0  0  0  0  0  0  0  0  0  0  0  0
   60.7290   33.8000   47.6830 C   0  0  0  0  0  0  0  0  0  0  0  0
   61.9510   33.7460   48.4390 N   0  0  0  0  0  0  0  0  0  0  0  0
   62.1180   34.4570   49.1860 H   0  0  0  0  0  0  0  0  0  0  0  0
   63.2920   32.7380   47.9910 S   0  0  0  0  0  0  0  0  0  0  0  0
   64.1430   33.4660   46.9850 O   0  0  0  0  0  0  0  0  0  0  0  0
   62.7810   31.4660   47.3730 O   0  0  0  0  0  0  0  0  0  0  0  0
   64.2400   32.3410   49.4150 C   0  0  0  0  0  0  0  0  0  0  0  0
   65.7360   33.0040   49.7920 S   0  0  0  0  0  0  0  0  0  0  0  0
   65.9970   32.0760   51.1720 C   0  0  0  0  0  0  0  0  0  0  0  0
   66.8795   32.1290   51.8265 H   0  0  0  0  0  0  0  0  0  0  0  0
   64.9060   31.2310   51.3430 C   0  0  0  0  0  0  0  0  0  0  0  0
   64.8239   30.5155   52.1745 H   0  0  0  0  0  0  0  0  0  0  0  0
   63.9220   31.3760   50.3580 C   0  0  0  0  0  0  0  0  0  0  0  0
   62.9938   30.7861   50.3347 H   0  0  0  0  0  0  0  0  0  0  0  0
   59.4920   33.4520   48.2570 C   0  0  0  0  0  0  0  0  0  0  0  0
   59.4388   33.1873   49.3233 H   0  0  0  0  0  0  0  0  0  0  0  0
   58.3320   33.4410   47.4800 C   0  0  0  0  0  0  0  0  0  0  0  0
   57.3696   33.1678   47.9372 H   0  0  0  0  0  0  0  0  0  0  0  0
   57.8030   30.7500   45.9380 N   0  0  0  0  0  0  0  0  0  0  0  0
   58.3150   29.5150   45.6750 C   0  0  0  0  0  0  0  0  0  0  0  0
   59.0410   28.7400   46.7150 C   0  0  0  0  0  0  0  0  0  0  0  0
   59.3970   29.3620   47.9270 C   0  0  0  0  0  0  0  0  0  0  0  0
   59.1406   30.4188   48.0925 H   0  0  0  0  0  0  0  0  0  0  0  0
   60.0730   28.6500   48.9220 C   0  0  0  0  0  0  0  0  0  0  0  0
   60.3414   29.1487   49.8650 H   0  0  0  0  0  0  0  0  0  0  0  0
   60.4120   27.2990   48.7240 C   0  0  0  0  0  0  0  0  0  0  0  0
   61.0870   26.5420   49.6940 O   0  0  0  0  0  0  0  0  0  0  0  0
   61.2160   26.9200   51.0600 C   0  0  0  0  0  0  0  0  0  0  0  0
   60.9277   26.0753   51.7030 H   0  0  0  0  0  0  0  0  0  0  0  0
   62.2600   27.1983   51.2664 H   0  0  0  0  0  0  0  0  0  0  0  0
   60.5600   27.7785   51.2664 H   0  0  0  0  0  0  0  0  0  0  0  0
   60.0680   26.6820   47.5180 C   0  0  0  0  0  0  0  0  0  0  0  0
   60.3332   25.6275   47.3513 H   0  0  0  0  0  0  0  0  0  0  0  0
   59.3910   27.3900   46.5220 C   0  0  0  0  0  0  0  0  0  0  0  0
   59.1291   26.8884   45.5787 H   0  0  0  0  0  0  0  0  0  0  0  0
  1  2  1  0
  2  3  1  0
  3  4  1  0
  4  5  2  0
  5  6  1  0
  6  7  2  0
  6  8  1  0
  8  9  2  0
  9 10  1  0
  9 11  1  0
 11 12  1  0
 11 13  2  0
 13 14  1  0
 14 15  1  0
 14 16  1  0
 16 17  2  0
 16 18  2  0
 16 19  1  0
 19 20  1  0
 20 21  1  0
 21 22  1  0
 21 23  2  0
 23 24  1  0
 23 25  1  0
 25 26  1  0
 13 27  1  0
 27 28  1  0
 27 29  2  0
 29 30  1  0
  4 31  1  0
 31 32  1  0
 32 33  1  0
 33 34  2  0
 34 35  1  0
 34 36  1  0
 36 37  1  0
 36 38  2  0
 38 39  1  0
 39 40  1  0
 40 41  1  0
 40 42  1  0
 40 43  1  0
 38 44  1  0
 44 45  1  0
 44 46  2  0
 46 47  1  0
 32  2  2  0
 46 33  1  0
 29  8  1  0
 25 19  2  0
M  CHG  1  31  -1
M  END
>  <UniqueID>  (70) 
63

>  <SMILES>  (70) 
COc1ccc(-c2cs/c(=N\C(=O)c3ccc(NS(=O)(=O)c4cccs4)cc3)[n-]2)cc1

>  <Energy>  (70) 
119.79388902505255

>  <Genealogy>  (70) 
COc1ccc(-c2csc(=NC(=O)c3ccc(NS(=O)(=O)c4cccs4)cc3)[n-]2)cc1 (protonated)
COc1ccc(-c2cs/c(=N\C(=O)c3ccc(NS(=O)(=O)c4cccs4)cc3)[n-]2)cc1 (cis-trans isomerization)
COc1ccc(-c2cs/c(=N\C(=O)c3ccc(NS(=O)(=O)c4cccs4)cc3)[n-]2)cc1 (3D coordinates assigned)
COc1ccc(-c2cs/c(=N\C(=O)c3ccc(NS(=O)(=O)c4cccs4)cc3)[n-]2)cc1 (optimized conformer: 119.79388902505255 kcal/mol)

>  <smiles>  (70) 
COc1ccc(-c2csc(=NC(=O)c3ccc(NS(=O)(=O)c4cccs4)cc3)[nH]2)cc1

>  <score_type>  (70) 
oracle

>  <origin>  (70) 
adg

>  <m_score__min__energy>  (70) 
-10.720000000000001

>  <m_primary>  (70) 
energy

$$$$
70:0
     RDKit          3D

 27 28  0  0  0  0  0  0  0  0999 V2000
   57.0786   24.1780   46.9377 H   0  0  0  0  0  0  0  0  0  0  0  0
   56.9870   25.1790   46.4910 C   0  0  0  0  0  0  0  0  0  0  0  0
   58.2630   26.1940   46.0630 S   0  0  0  0  0  0  0  0  0  0  0  0
   57.2450   27.4170   45.5000 C   0  0  0  0  0  0  0  0  0  0  0  0
   57.6050   28.5620   44.9950 N   0  0  0  0  0  0  0  0  0  0  0  0
   56.8660   29.7960   44.9980 C   0  0  0  0  0  0  0  0  0  0  0  0
   55.6240   29.8040   44.7760 O   0  0  0  0  0  0  0  0  0  0  0  0
   57.5700   31.0750   45.2630 C   0  0  0  0  0  0  0  0  0  0  0  0
   58.8000   31.0910   45.9280 C   0  0  0  0  0  0  0  0  0  0  0  0
   59.2538   30.1455   46.2597 H   0  0  0  0  0  0  0  0  0  0  0  0
   59.4590   32.3040   46.1750 C   0  0  0  0  0  0  0  0  0  0  0  0
   60.7210   32.2640   46.8630 N   0  0  0  0  0  0  0  0  0  0  0  0
   61.6160   32.3490   46.3310 H   0  0  0  0  0  0  0  0  0  0  0  0
   60.8000   32.1510   47.8960 H   0  0  0  0  0  0  0  0  0  0  0  0
   58.8980   33.4930   45.7630 N   0  0  0  0  0  0  0  0  0  0  0  0
   59.5970   34.7650   46.0250 C   0  0  0  0  0  0  0  0  0  0  0  0
   59.6821   34.9198   47.1107 H   0  0  0  0  0  0  0  0  0  0  0  0
   60.6023   34.7294   45.5798 H   0  0  0  0  0  0  0  0  0  0  0  0
   59.0280   35.5945   45.5798 H   0  0  0  0  0  0  0  0  0  0  0  0
   57.6890   33.4910   45.1070 C   0  0  0  0  0  0  0  0  0  0  0  0
   57.1580   34.5680   44.7200 O   0  0  0  0  0  0  0  0  0  0  0  0
   57.0170   32.2920   44.8520 C   0  0  0  0  0  0  0  0  0  0  0  0
   56.0507   32.3058   44.3267 H   0  0  0  0  0  0  0  0  0  0  0  0
   55.9490   27.0640   45.6330 N   0  0  0  0  0  0  0  0  0  0  0  0
   55.1470   27.6700   45.3480 H   0  0  0  0  0  0  0  0  0  0  0  0
   55.7980   25.8300   46.1800 C   0  0  0  0  0  0  0  0  0  0  0  0
   54.8111   25.3800   46.3630 H   0  0  0  0  0  0  0  0  0  0  0  0
  1  2  1  0
  2  3  1  0
  3  4  1  0
  4  5  2  0
  5  6  1  0
  6  7  2  0
  6  8  1  0
  8  9  1  0
  9 10  1  0
  9 11  2  0
 11 12  1  0
 12 13  1  0
 12 14  1  0
 11 15  1  0
 15 16  1  0
 16 17  1  0
 16 18  1  0
 16 19  1  0
 15 20  1  0
 20 21  2  0
 20 22  1  0
 22 23  1  0
  4 24  1  0
 24 25  1  0
 24 26  1  0
 26 27  1  0
 26  2  2  0
 22  8  2  0
M  END
>  <UniqueID>  (71) 
64

>  <SMILES>  (71) 
Cn1c(N)cc(C(=O)/N=c2/[nH]ccs2)cc1=O

>  <Energy>  (71) 
66.19393027926549

>  <Genealogy>  (71) 
Cn1c(N)cc(C(=O)/N=c2/[nH]ccs2)cc1=O (cis-trans isomerization)
Cn1c(N)cc(C(=O)/N=c2/[nH]ccs2)cc1=O (3D coordinates assigned)
Cn1c(N)cc(C(=O)/N=c2/[nH]ccs2)cc1=O (optimized conformer: 66.19393027926549 kcal/mol)

>  <smiles>  (71) 
Cn1c(N)cc(C(=O)N=c2[nH]ccs2)cc1=O

>  <score_type>  (71) 
oracle

>  <origin>  (71) 
adg

>  <m_score__min__energy>  (71) 
-6.8099999999999996

>  <m_primary>  (71) 
energy

$$$$
71:0
     RDKit          3D

 28 29  0  0  0  0  0  0  0  0999 V2000
   54.7640   28.5790   44.4970 H   0  0  0  0  0  0  0  0  0  0  0  0
   55.5640   28.6250   45.1180 O   0  0  0  0  0  0  0  0  0  0  0  0
   56.1500   27.4640   45.6150 C   0  0  0  0  0  0  0  0  0  0  0  0
   55.3680   26.4090   45.9660 N   0  0  0  0  0  0  0  0  0  0  0  0
   55.9110   25.2630   46.4510 C   0  0  0  0  0  0  0  0  0  0  0  0
   55.1660   24.3020   46.7730 O   0  0  0  0  0  0  0  0  0  0  0  0
   57.2580   25.1510   46.5810 N   0  0  0  0  0  0  0  0  0  0  0  0
   58.0830   26.1750   46.2420 C   0  0  0  0  0  0  0  0  0  0  0  0
   59.3300   26.0250   46.3480 O   0  0  0  0  0  0  0  0  0  0  0  0
   57.5420   27.3800   45.7620 C   0  0  0  0  0  0  0  0  0  0  0  0
   58.4010   28.5160   45.3680 C   0  0  0  0  0  0  0  0  0  0  0  0
   58.6852   28.6109   44.3096 H   0  0  0  0  0  0  0  0  0  0  0  0
   58.8520   29.4360   46.2300 C   0  0  0  0  0  0  0  0  0  0  0  0
   58.5602   29.3504   47.2871 H   0  0  0  0  0  0  0  0  0  0  0  0
   59.7400   30.5830   45.8220 C   0  0  0  0  0  0  0  0  0  0  0  0
   60.5360   30.7076   46.5709 H   0  0  0  0  0  0  0  0  0  0  0  0
   60.1749   30.3605   44.8364 H   0  0  0  0  0  0  0  0  0  0  0  0
   58.9490   31.8590   45.7250 C   0  0  0  0  0  0  0  0  0  0  0  0
   58.1830   32.1330   44.5780 C   0  0  0  0  0  0  0  0  0  0  0  0
   58.1823   31.4240   43.7370 H   0  0  0  0  0  0  0  0  0  0  0  0
   57.4220   33.3040   44.5030 C   0  0  0  0  0  0  0  0  0  0  0  0
   56.8297   33.5173   43.6009 H   0  0  0  0  0  0  0  0  0  0  0  0
   57.4130   34.2040   45.5730 C   0  0  0  0  0  0  0  0  0  0  0  0
   56.8183   35.1272   45.5105 H   0  0  0  0  0  0  0  0  0  0  0  0
   58.1600   33.9300   46.7220 C   0  0  0  0  0  0  0  0  0  0  0  0
   58.1488   34.6363   47.5652 H   0  0  0  0  0  0  0  0  0  0  0  0
   58.9210   32.7610   46.8020 C   0  0  0  0  0  0  0  0  0  0  0  0
   59.5006   32.5459   47.7118 H   0  0  0  0  0  0  0  0  0  0  0  0
  1  2  1  0
  2  3  1  0
  3  4  1  0
  4  5  1  0
  5  6  2  0
  5  7  1  0
  7  8  1  0
  8  9  2  0
  8 10  1  0
 10 11  1  0
 11 12  1  0
 11 13  2  0
 13 14  1  0
 13 15  1  0
 15 16  1  0
 15 17  1  0
 15 18  1  0
 18 19  2  0
 19 20  1  0
 19 21  1  0
 21 22  1  0
 21 23  2  0
 23 24  1  0
 23 25  1  0
 25 26  1  0
 25 27  2  0
 27 28  1  0
 10  3  2  0
 27 18  1  0
M  CHG  2   4  -1   7  -1
M  END
>  <UniqueID>  (72) 
65

>  <SMILES>  (72) 
O=c1[n-]c(O)c(/C=C\Cc2ccccc2)c(=O)[n-]1

>  <Energy>  (72) 
35.71243869708355

>  <Genealogy>  (72) 
O=c1[n-]c(O)c(C=CCc2ccccc2)c(=O)[n-]1 (protonated)
O=c1[n-]c(O)c(/C=C\Cc2ccccc2)c(=O)[n-]1 (cis-trans isomerization)
O=c1[n-]c(O)c(/C=C\Cc2ccccc2)c(=O)[n-]1 (3D coordinates assigned)
O=c1[n-]c(O)c(/C=C\Cc2ccccc2)c(=O)[n-]1 (optimized conformer: 35.71243869708355 kcal/mol)

>  <smiles>  (72) 
O=c1[nH]c(O)c(C=CCc2ccccc2)c(=O)[nH]1

>  <score_type>  (72) 
oracle

>  <origin>  (72) 
adg

>  <m_score__min__energy>  (72) 
-11.359999999999999

>  <m_primary>  (72) 
energy

$$$$
72:0
     RDKit          3D

 40 42  0  0  0  0  0  0  0  0999 V2000
   55.1530   27.8780   44.9020 H   0  0  0  0  0  0  0  0  0  0  0  0
   55.5810   27.3120   45.6250 O   0  0  0  0  0  0  0  0  0  0  0  0
   56.9670   27.2330   45.7650 C   0  0  0  0  0  0  0  0  0  0  0  0
   57.5370   26.4080   46.7430 C   0  0  0  0  0  0  0  0  0  0  0  0
   56.8908   25.8135   47.4056 H   0  0  0  0  0  0  0  0  0  0  0  0
   58.9240   26.3400   46.8770 C   0  0  0  0  0  0  0  0  0  0  0  0
   59.3778   25.6970   47.6455 H   0  0  0  0  0  0  0  0  0  0  0  0
   59.7290   27.0970   46.0250 C   0  0  0  0  0  0  0  0  0  0  0  0
   60.8241   27.0515   46.1186 H   0  0  0  0  0  0  0  0  0  0  0  0
   59.1600   27.8910   45.0790 N   0  0  0  0  0  0  0  0  0  0  0  0
   57.8070   27.9790   44.9240 C   0  0  0  0  0  0  0  0  0  0  0  0
   57.2820   28.7420   44.0080 N   0  0  0  0  0  0  0  0  0  0  0  0
   56.3940   29.8540   44.2070 C   0  0  0  0  0  0  0  0  0  0  0  0
   55.1430   29.6900   44.2200 O   0  0  0  0  0  0  0  0  0  0  0  0
   56.9710   31.2000   44.3910 C   0  0  0  0  0  0  0  0  0  0  0  0
   57.0560   31.7510   45.6340 N   0  0  0  0  0  0  0  0  0  0  0  0
   57.6080   32.9840   45.6060 C   0  0  0  0  0  0  0  0  0  0  0  0
   57.8100   33.7220   46.6550 N   0  0  0  0  0  0  0  0  0  0  0  0
   59.0890   34.0700   47.2080 C   0  0  0  0  0  0  0  0  0  0  0  0
   59.2330   34.2810   48.4440 O   0  0  0  0  0  0  0  0  0  0  0  0
   60.2600   34.2410   46.2920 C   0  0  0  0  0  0  0  0  0  0  0  0
   59.9670   33.9583   45.2701 H   0  0  0  0  0  0  0  0  0  0  0  0
   60.5820   35.2926   46.3114 H   0  0  0  0  0  0  0  0  0  0  0  0
   61.3990   33.3690   46.7420 C   0  0  0  0  0  0  0  0  0  0  0  0
   62.7200   33.8490   46.7030 C   0  0  0  0  0  0  0  0  0  0  0  0
   62.9205   34.8766   46.3658 H   0  0  0  0  0  0  0  0  0  0  0  0
   63.7800   33.0230   47.0920 C   0  0  0  0  0  0  0  0  0  0  0  0
   64.8112   33.4052   47.0671 H   0  0  0  0  0  0  0  0  0  0  0  0
   63.5320   31.7140   47.5120 C   0  0  0  0  0  0  0  0  0  0  0  0
   64.3666   31.0688   47.8238 H   0  0  0  0  0  0  0  0  0  0  0  0
   62.2220   31.2240   47.5360 C   0  0  0  0  0  0  0  0  0  0  0  0
   62.0280   30.1906   47.8590 H   0  0  0  0  0  0  0  0  0  0  0  0
   61.1590   32.0460   47.1500 C   0  0  0  0  0  0  0  0  0  0  0  0
   60.1308   31.6555   47.1658 H   0  0  0  0  0  0  0  0  0  0  0  0
   58.0130   33.4590   44.0490 S   0  0  0  0  0  0  0  0  0  0  0  0
   57.4630   32.0200   43.3640 C   0  0  0  0  0  0  0  0  0  0  0  0
   57.5020   31.7210   41.9000 C   0  0  0  0  0  0  0  0  0  0  0  0
   57.6429   30.6404   41.7501 H   0  0  0  0  0  0  0  0  0  0  0  0
   56.5553   32.0351   41.4363 H   0  0  0  0  0  0  0  0  0  0  0  0
   58.3365   32.2674   41.4363 H   0  0  0  0  0  0  0  0  0  0  0  0
  1  2  1  0
  2  3  1  0
  3  4  2  0
  4  5  1  0
  4  6  1  0
  6  7  1  0
  6  8  2  0
  8  9  1  0
  8 10  1  0
 10 11  1  0
 11 12  2  0
 12 13  1  0
 13 14  2  0
 13 15  1  0
 15 16  1  0
 16 17  1  0
 17 18  2  3
 18 19  1  0
 19 20  2  0
 19 21  1  0
 21 22  1  0
 21 23  1  0
 21 24  1  0
 24 25  2  0
 25 26  1  0
 25 27  1  0
 27 28  1  0
 27 29  2  0
 29 30  1  0
 29 31  1  0
 31 32  1  0
 31 33  2  0
 33 34  1  0
 17 35  1  0
 35 36  1  0
 36 37  1  0
 37 38  1  0
 37 39  1  0
 37 40  1  0
 11  3  1  0
 36 15  2  0
 33 24  1  0
M  CHG  2  10  -1  16  -1
M  END
>  <UniqueID>  (73) 
66

>  <SMILES>  (73) 
Cc1sc(=NC(=O)Cc2ccccc2)[n-]c1C(=O)/N=c1\[n-]cccc1O

>  <Energy>  (73) 
75.10161406830974

>  <Genealogy>  (73) 
Cc1sc(=NC(=O)Cc2ccccc2)[n-]c1C(=O)N=c1[n-]cccc1O (protonated)
Cc1sc(=NC(=O)Cc2ccccc2)[n-]c1C(=O)/N=c1\[n-]cccc1O (cis-trans isomerization)
Cc1sc(=NC(=O)Cc2ccccc2)[n-]c1C(=O)/N=c1\[n-]cccc1O (3D coordinates assigned)
Cc1sc(=NC(=O)Cc2ccccc2)[n-]c1C(=O)/N=c1\[n-]cccc1O (optimized conformer: 75.10161406830974 kcal/mol)

>  <smiles>  (73) 
Cc1sc(=NC(=O)Cc2ccccc2)[nH]c1C(=O)N=c1[nH]cccc1O

>  <score_type>  (73) 
oracle

>  <origin>  (73) 
adg

>  <m_score__min__energy>  (73) 
-12.67

>  <m_primary>  (73) 
energy

$$$$
73:0
     RDKit          3D

 33 36  0  0  0  0  0  0  0  0999 V2000
   54.3210   26.3830   45.2190 H   0  0  0  0  0  0  0  0  0  0  0  0
   55.1600   25.9320   45.6480 N   0  0  0  0  0  0  0  0  0  0  0  0
   56.1910   26.6260   46.0140 C   0  0  0  0  0  0  0  0  0  0  0  0
   56.3010   27.9230   45.6230 N   0  0  0  0  0  0  0  0  0  0  0  0
   57.3570   28.7010   45.9750 C   0  0  0  0  0  0  0  0  0  0  0  0
   57.4530   30.0580   45.5540 C   0  0  0  0  0  0  0  0  0  0  0  0
   56.5020   30.7210   44.7570 O   0  0  0  0  0  0  0  0  0  0  0  0
   56.2150   30.4560   43.3880 C   0  0  0  0  0  0  0  0  0  0  0  0
   55.4084   29.7112   43.3200 H   0  0  0  0  0  0  0  0  0  0  0  0
   55.8981   31.3859   42.8931 H   0  0  0  0  0  0  0  0  0  0  0  0
   57.1167   30.0662   42.8931 H   0  0  0  0  0  0  0  0  0  0  0  0
   58.5760   30.7870   45.9620 C   0  0  0  0  0  0  0  0  0  0  0  0
   59.5600   30.2170   46.7470 C   0  0  0  0  0  0  0  0  0  0  0  0
   59.4910   28.8940   47.1720 C   0  0  0  0  0  0  0  0  0  0  0  0
   60.2859   28.4602   47.7965 H   0  0  0  0  0  0  0  0  0  0  0  0
   58.3790   28.1250   46.7830 C   0  0  0  0  0  0  0  0  0  0  0  0
   58.2700   26.8250   47.1770 N   0  0  0  0  0  0  0  0  0  0  0  0
   59.0210   26.4030   47.7710 H   0  0  0  0  0  0  0  0  0  0  0  0
   57.2020   26.0600   46.8130 C   0  0  0  0  0  0  0  0  0  0  0  0
   57.1170   24.4970   47.3140 S   0  0  0  0  0  0  0  0  0  0  0  0
   60.5780   31.2140   46.9980 C   0  0  0  0  0  0  0  0  0  0  0  0
   61.7620   31.1250   47.7310 C   0  0  0  0  0  0  0  0  0  0  0  0
   62.0487   30.1876   48.2301 H   0  0  0  0  0  0  0  0  0  0  0  0
   62.5780   32.2660   47.8140 C   0  0  0  0  0  0  0  0  0  0  0  0
   63.5167   32.2267   48.3860 H   0  0  0  0  0  0  0  0  0  0  0  0
   62.2000   33.4610   47.1680 C   0  0  0  0  0  0  0  0  0  0  0  0
   62.8462   34.3485   47.2374 H   0  0  0  0  0  0  0  0  0  0  0  0
   61.0020   33.5240   46.4360 C   0  0  0  0  0  0  0  0  0  0  0  0
   60.7016   34.4534   45.9301 H   0  0  0  0  0  0  0  0  0  0  0  0
   60.2010   32.3830   46.3640 C   0  0  0  0  0  0  0  0  0  0  0  0
   58.8950   32.2220   45.6450 C   0  0  0  0  0  0  0  0  0  0  0  0
   58.1281   32.9044   46.0403 H   0  0  0  0  0  0  0  0  0  0  0  0
   58.9343   32.4539   44.5704 H   0  0  0  0  0  0  0  0  0  0  0  0
  1  2  1  0
  2  3  2  0
  3  4  1  0
  4  5  1  0
  5  6  2  0
  6  7  1  0
  7  8  1  0
  8  9  1  0
  8 10  1  0
  8 11  1  0
  6 12  1  0
 12 13  2  0
 13 14  1  0
 14 15  1  0
 14 16  2  0
 16 17  1  0
 17 18  1  0
 17 19  1  0
 19 20  2  0
 13 21  1  0
 21 22  2  0
 22 23  1  0
 22 24  1  0
 24 25  1  0
 24 26  2  0
 26 27  1  0
 26 28  1  0
 28 29  1  0
 28 30  2  0
 30 31  1  0
 31 32  1  0
 31 33  1  0
 19  3  1  0
 30 21  1  0
 16  5  1  0
 31 12  1  0
M  CHG  1   4  -1
M  END
>  <UniqueID>  (74) 
67

>  <SMILES>  (74) 
[H]/N=c1\[n-]c2c(OC)c3c(cc2[nH]c1=S)-c1ccccc1C3

>  <Energy>  (74) 
67.05238884799923

>  <Genealogy>  (74) 
COc1c2c(cc3[nH]c(=S)c(=N)[n-]c13)-c1ccccc1C2 (protonated)
[H]/N=c1\[n-]c2c(OC)c3c(cc2[nH]c1=S)-c1ccccc1C3 (cis-trans isomerization)
[H]/N=c1\[n-]c2c(OC)c3c(cc2[nH]c1=S)-c1ccccc1C3 (3D coordinates assigned)
[H]/N=c1\[n-]c2c(OC)c3c(cc2[nH]c1=S)-c1ccccc1C3 (nonaromatic ring conformer: 67.05238884799923 kcal/mol)

>  <smiles>  (74) 
COc1c2c(cc3[nH]c(=S)c(=N)[nH]c13)-c1ccccc1C2

>  <score_type>  (74) 
oracle

>  <origin>  (74) 
adg

>  <m_score__min__energy>  (74) 
-9.6799999999999997

>  <m_primary>  (74) 
energy

$$$$
74:0
     RDKit          3D

 57 59  0  0  0  0  0  0  0  0999 V2000
   59.5450   26.3750   47.5300 C   0  0  0  0  0  0  0  0  0  0  0  0
   58.0230   26.4530   47.4870 C   0  0  0  0  0  0  0  0  0  0  0  0
   57.4620   25.4530   46.5030 C   0  0  0  0  0  0  0  0  0  0  0  0
   58.0340   24.1710   46.4250 C   0  0  0  0  0  0  0  0  0  0  0  0
   57.5170   23.2190   45.5440 C   0  0  0  0  0  0  0  0  0  0  0  0
   56.4300   23.5370   44.7310 C   0  0  0  0  0  0  0  0  0  0  0  0
   55.8440   24.8040   44.8040 C   0  0  0  0  0  0  0  0  0  0  0  0
   56.3350   25.7640   45.7080 C   0  0  0  0  0  0  0  0  0  0  0  0
   55.7490   27.0720   45.8030 N   0  0  0  0  0  0  0  0  0  0  0  0
   56.2700   28.3050   45.2860 C   0  0  0  0  0  0  0  0  0  0  0  0
   55.4890   29.1980   44.8640 O   0  0  0  0  0  0  0  0  0  0  0  0
   57.7310   28.5520   45.3340 C   0  0  0  0  0  0  0  0  0  0  0  0
   58.2520   29.2750   46.4220 C   0  0  0  0  0  0  0  0  0  0  0  0
   59.6220   29.5510   46.5190 C   0  0  0  0  0  0  0  0  0  0  0  0
   60.1100   30.3200   47.6300 N   0  0  0  0  0  0  0  0  0  0  0  0
   60.6200   31.6590   47.5130 C   0  0  0  0  0  0  0  0  0  0  0  0
   60.8020   32.1670   46.3760 O   0  0  0  0  0  0  0  0  0  0  0  0
   60.9310   32.4360   48.7330 C   0  0  0  0  0  0  0  0  0  0  0  0
   61.3530   31.8240   49.7500 O   0  0  0  0  0  0  0  0  0  0  0  0
   60.7710   33.8610   48.8170 N   0  0  0  0  0  0  0  0  0  0  0  0
   59.5700   34.6280   48.4960 C   0  0  0  0  0  0  0  0  0  0  0  0
   59.6430   35.1730   47.0670 C   0  0  0  0  0  0  0  0  0  0  0  0
   58.8460   34.3070   46.1270 C   0  0  0  0  0  0  0  0  0  0  0  0
   59.2010   34.2250   44.7710 C   0  0  0  0  0  0  0  0  0  0  0  0
   58.4790   33.4000   43.9030 C   0  0  0  0  0  0  0  0  0  0  0  0
   57.4040   32.6470   44.3850 C   0  0  0  0  0  0  0  0  0  0  0  0
   57.0540   32.7100   45.7350 C   0  0  0  0  0  0  0  0  0  0  0  0
   57.7740   33.5340   46.6070 C   0  0  0  0  0  0  0  0  0  0  0  0
   60.4800   29.1300   45.4940 C   0  0  0  0  0  0  0  0  0  0  0  0
   59.9820   28.4030   44.4110 C   0  0  0  0  0  0  0  0  0  0  0  0
   58.6150   28.0880   44.3240 C   0  0  0  0  0  0  0  0  0  0  0  0
   58.1360   27.2710   43.1530 C   0  0  0  0  0  0  0  0  0  0  0  0
   59.8818   26.3577   48.5770 H   0  0  0  0  0  0  0  0  0  0  0  0
   59.8797   25.4585   47.0220 H   0  0  0  0  0  0  0  0  0  0  0  0
   59.9716   27.2525   47.0220 H   0  0  0  0  0  0  0  0  0  0  0  0
   57.6224   26.2372   48.4885 H   0  0  0  0  0  0  0  0  0  0  0  0
   57.7307   27.4641   47.1674 H   0  0  0  0  0  0  0  0  0  0  0  0
   58.8940   23.9164   47.0619 H   0  0  0  0  0  0  0  0  0  0  0  0
   57.9679   22.2170   45.4914 H   0  0  0  0  0  0  0  0  0  0  0  0
   56.0322   22.7885   44.0299 H   0  0  0  0  0  0  0  0  0  0  0  0
   54.9942   25.0519   44.1510 H   0  0  0  0  0  0  0  0  0  0  0  0
   57.5720   29.6299   47.2104 H   0  0  0  0  0  0  0  0  0  0  0  0
   60.2050   29.8360   48.5530 H   0  0  0  0  0  0  0  0  0  0  0  0
   58.6891   33.9758   48.5894 H   0  0  0  0  0  0  0  0  0  0  0  0
   59.4933   35.4745   49.1943 H   0  0  0  0  0  0  0  0  0  0  0  0
   59.2367   36.1951   47.0489 H   0  0  0  0  0  0  0  0  0  0  0  0
   60.6938   35.1749   46.7419 H   0  0  0  0  0  0  0  0  0  0  0  0
   60.0500   34.8117   44.3902 H   0  0  0  0  0  0  0  0  0  0  0  0
   58.7570   33.3434   42.8402 H   0  0  0  0  0  0  0  0  0  0  0  0
   56.8330   32.0038   43.6992 H   0  0  0  0  0  0  0  0  0  0  0  0
   56.2120   32.1117   46.1133 H   0  0  0  0  0  0  0  0  0  0  0  0
   57.5005   33.5772   47.6716 H   0  0  0  0  0  0  0  0  0  0  0  0
   61.5516   29.3736   45.5430 H   0  0  0  0  0  0  0  0  0  0  0  0
   60.6675   28.0729   43.6166 H   0  0  0  0  0  0  0  0  0  0  0  0
   57.6115   26.3765   43.5201 H   0  0  0  0  0  0  0  0  0  0  0  0
   57.4485   27.8742   42.5418 H   0  0  0  0  0  0  0  0  0  0  0  0
   58.9981   26.9656   42.5418 H   0  0  0  0  0  0  0  0  0  0  0  0
  1  2  1  0
  2  3  1  0
  3  4  2  0
  4  5  1  0
  5  6  2  0
  6  7  1  0
  7  8  2  0
  8  9  1  0
  9 10  1  0
 10 11  2  0
 10 12  1  0
 12 13  2  0
 13 14  1  0
 14 15  1  0
 15 16  1  0
 16 17  2  0
 16 18  1  0
 18 19  2  0
 18 20  1  0
 20 21  1  0
 21 22  1  0
 22 23  1  0
 23 24  2  0
 24 25  1  0
 25 26  2  0
 26 27  1  0
 27 28  2  0
 14 29  2  0
 29 30  1  0
 30 31  2  0
 31 32  1  0
  8  3  1  0
 31 12  1  0
 28 23  1  0
  1 33  1  0
  1 34  1  0
  1 35  1  0
  2 36  1  0
  2 37  1  0
  4 38  1  0
  5 39  1  0
  6 40  1  0
  7 41  1  0
 13 42  1  0
 15 43  1  0
 21 44  1  0
 21 45  1  0
 22 46  1  0
 22 47  1  0
 24 48  1  0
 25 49  1  0
 26 50  1  0
 27 51  1  0
 28 52  1  0
 29 53  1  0
 30 54  1  0
 32 55  1  0
 32 56  1  0
 32 57  1  0
M  CHG  2   9  -1  20  -1
M  END
>  <UniqueID>  (75) 
68

>  <SMILES>  (75) 
CCc1ccccc1[N-]C(=O)c1cc(NC(=O)C(=O)[N-]CCc2ccccc2)ccc1C

>  <Energy>  (75) 
65.70088621018847

>  <Genealogy>  (75) 
CCc1ccccc1[N-]C(=O)c1cc(NC(=O)C(=O)[N-]CCc2ccccc2)ccc1C (protonated)
CCc1ccccc1[N-]C(=O)c1cc(NC(=O)C(=O)[N-]CCc2ccccc2)ccc1C (3D coordinates assigned)
CCc1ccccc1[N-]C(=O)c1cc(NC(=O)C(=O)[N-]CCc2ccccc2)ccc1C (optimized conformer: 65.70088621018847 kcal/mol)

>  <smiles>  (75) 
CCc1ccccc1NC(=O)c1cc(NC(=O)C(=O)NCCc2ccccc2)ccc1C

>  <score_type>  (75) 
oracle

>  <origin>  (75) 
adg

>  <m_score__min__energy>  (75) 
-12.140000000000001

>  <m_primary>  (75) 
energy

$$$$
75:0
     RDKit          3D

 44 46  0  0  0  0  0  0  0  0999 V2000
   63.3685   33.0905   47.4151 H   0  0  0  0  0  0  0  0  0  0  0  0
   62.3320   33.4540   47.4740 C   0  0  0  0  0  0  0  0  0  0  0  0
   61.6730   33.8490   46.3080 C   0  0  0  0  0  0  0  0  0  0  0  0
   62.1976   33.8030   45.3422 H   0  0  0  0  0  0  0  0  0  0  0  0
   60.3470   34.3040   46.3590 C   0  0  0  0  0  0  0  0  0  0  0  0
   59.6040   34.6340   45.0900 C   0  0  0  0  0  0  0  0  0  0  0  0
   59.2497   35.6740   45.1433 H   0  0  0  0  0  0  0  0  0  0  0  0
   60.2913   34.4977   44.2420 H   0  0  0  0  0  0  0  0  0  0  0  0
   58.4100   33.7150   44.8890 C   0  0  0  0  0  0  0  0  0  0  0  0
   58.5170   32.5730   44.2680 N   0  0  0  0  0  0  0  0  0  0  0  0
   57.7570   31.3920   44.5660 C   0  0  0  0  0  0  0  0  0  0  0  0
   56.5510   31.1620   43.8930 C   0  0  0  0  0  0  0  0  0  0  0  0
   56.1815   31.9008   43.1666 H   0  0  0  0  0  0  0  0  0  0  0  0
   55.8150   30.0030   44.1370 C   0  0  0  0  0  0  0  0  0  0  0  0
   54.8676   29.8350   43.6039 H   0  0  0  0  0  0  0  0  0  0  0  0
   56.2730   29.0540   45.0540 C   0  0  0  0  0  0  0  0  0  0  0  0
   55.5230   27.9010   45.2640 O   0  0  0  0  0  0  0  0  0  0  0  0
   57.4790   29.2680   45.7490 C   0  0  0  0  0  0  0  0  0  0  0  0
   57.9680   28.3130   46.6590 C   0  0  0  0  0  0  0  0  0  0  0  0
   57.3949   27.3930   46.8468 H   0  0  0  0  0  0  0  0  0  0  0  0
   59.1760   28.5260   47.3250 C   0  0  0  0  0  0  0  0  0  0  0  0
   59.5537   27.7707   48.0299 H   0  0  0  0  0  0  0  0  0  0  0  0
   59.9060   29.6930   47.1000 C   0  0  0  0  0  0  0  0  0  0  0  0
   60.8566   29.8556   47.6291 H   0  0  0  0  0  0  0  0  0  0  0  0
   59.4340   30.6560   46.2050 C   0  0  0  0  0  0  0  0  0  0  0  0
   60.0126   31.5764   46.0373 H   0  0  0  0  0  0  0  0  0  0  0  0
   58.2220   30.4560   45.5160 C   0  0  0  0  0  0  0  0  0  0  0  0
   57.0950   34.0830   45.4510 C   0  0  0  0  0  0  0  0  0  0  0  0
   56.3770   34.9390   44.8690 O   0  0  0  0  0  0  0  0  0  0  0  0
   56.6300   33.4940   46.6210 O   0  0  0  0  0  0  0  0  0  0  0  0
   59.7100   34.4100   47.6040 C   0  0  0  0  0  0  0  0  0  0  0  0
   58.6858   34.8070   47.6615 H   0  0  0  0  0  0  0  0  0  0  0  0
   60.3670   34.0150   48.7710 C   0  0  0  0  0  0  0  0  0  0  0  0
   59.8496   34.0946   49.7384 H   0  0  0  0  0  0  0  0  0  0  0  0
   61.6860   33.5150   48.7260 C   0  0  0  0  0  0  0  0  0  0  0  0
   62.3560   33.0640   49.9330 N   0  0  0  0  0  0  0  0  0  0  0  0
   61.6530   33.0680   51.2230 C   0  0  0  0  0  0  0  0  0  0  0  0
   62.3882   33.0638   52.0412 H   0  0  0  0  0  0  0  0  0  0  0  0
   61.0273   33.9697   51.2968 H   0  0  0  0  0  0  0  0  0  0  0  0
   61.0171   32.1735   51.2968 H   0  0  0  0  0  0  0  0  0  0  0  0
   63.7510   32.6100   49.8880 C   0  0  0  0  0  0  0  0  0  0  0  0
   64.1297   32.4867   50.9134 H   0  0  0  0  0  0  0  0  0  0  0  0
   63.8064   31.6474   49.3585 H   0  0  0  0  0  0  0  0  0  0  0  0
   64.3623   33.3556   49.3585 H   0  0  0  0  0  0  0  0  0  0  0  0
  1  2  1  0
  2  3  2  0
  3  4  1  0
  3  5  1  0
  5  6  1  0
  6  7  1  0
  6  8  1  0
  6  9  1  0
  9 10  2  0
 10 11  1  0
 11 12  2  0
 12 13  1  0
 12 14  1  0
 14 15  1  0
 14 16  2  0
 16 17  1  0
 16 18  1  0
 18 19  2  0
 19 20  1  0
 19 21  1  0
 21 22  1  0
 21 23  2  0
 23 24  1  0
 23 25  1  0
 25 26  1  0
 25 27  2  0
  9 28  1  0
 28 29  2  0
 28 30  1  0
  5 31  2  0
 31 32  1  0
 31 33  1  0
 33 34  1  0
 33 35  2  0
 35 36  1  0
 36 37  1  0
 37 38  1  0
 37 39  1  0
 37 40  1  0
 36 41  1  0
 41 42  1  0
 41 43  1  0
 41 44  1  0
 35  2  1  0
 27 11  1  0
 27 18  1  0
M  CHG  2  17  -1  30  -1
M  END
>  <UniqueID>  (76) 
69

>  <SMILES>  (76) 
CN(C)c1ccc(C/C(=N\c2ccc([O-])c3ccccc23)C(=O)[O-])cc1

>  <Energy>  (76) 
55.230910068636845

>  <Genealogy>  (76) 
CN(C)c1ccc(CC(=Nc2ccc([O-])c3ccccc23)C(=O)[O-])cc1 (protonated)
CN(C)c1ccc(C/C(=N\c2ccc([O-])c3ccccc23)C(=O)[O-])cc1 (cis-trans isomerization)
CN(C)c1ccc(C/C(=N\c2ccc([O-])c3ccccc23)C(=O)[O-])cc1 (3D coordinates assigned)
CN(C)c1ccc(C/C(=N\c2ccc([O-])c3ccccc23)C(=O)[O-])cc1 (optimized conformer: 55.230910068636845 kcal/mol)

>  <smiles>  (76) 
CN(C)c1ccc(CC(=Nc2ccc(O)c3ccccc23)C(=O)O)cc1

>  <score_type>  (76) 
oracle

>  <origin>  (76) 
adg

>  <m_score__min__energy>  (76) 
-12.210000000000001

>  <m_primary>  (76) 
energy

$$$$
76:0
     RDKit          3D

 33 34  0  0  0  0  0  0  0  0999 V2000
   60.2668   35.2027   47.0596 H   0  0  0  0  0  0  0  0  0  0  0  0
   60.5290   34.2220   46.6360 C   0  0  0  0  0  0  0  0  0  0  0  0
   61.8190   33.8490   46.6500 C   0  0  0  0  0  0  0  0  0  0  0  0
   62.3168   33.6666   45.6862 H   0  0  0  0  0  0  0  0  0  0  0  0
   62.6110   33.6690   47.8920 C   0  0  0  0  0  0  0  0  0  0  0  0
   62.2340   34.2310   49.1250 C   0  0  0  0  0  0  0  0  0  0  0  0
   61.3227   34.8428   49.1974 H   0  0  0  0  0  0  0  0  0  0  0  0
   63.0220   34.0090   50.2580 C   0  0  0  0  0  0  0  0  0  0  0  0
   62.7361   34.4640   51.2178 H   0  0  0  0  0  0  0  0  0  0  0  0
   64.1430   33.2330   50.1850 N   0  0  0  0  0  0  0  0  0  0  0  0
   64.9750   33.0460   51.3770 C   0  0  0  0  0  0  0  0  0  0  0  0
   64.3602   33.1842   52.2786 H   0  0  0  0  0  0  0  0  0  0  0  0
   65.3977   32.0305   51.3735 H   0  0  0  0  0  0  0  0  0  0  0  0
   65.7916   33.7830   51.3735 H   0  0  0  0  0  0  0  0  0  0  0  0
   64.5290   32.6820   48.9970 C   0  0  0  0  0  0  0  0  0  0  0  0
   65.4470   32.0779   48.9485 H   0  0  0  0  0  0  0  0  0  0  0  0
   63.7680   32.8790   47.8430 C   0  0  0  0  0  0  0  0  0  0  0  0
   64.0765   32.4141   46.8950 H   0  0  0  0  0  0  0  0  0  0  0  0
   59.4370   33.3830   46.0800 C   0  0  0  0  0  0  0  0  0  0  0  0
   58.3800   33.9180   45.3180 C   0  0  0  0  0  0  0  0  0  0  0  0
   58.3503   34.9973   45.1079 H   0  0  0  0  0  0  0  0  0  0  0  0
   57.3690   33.0880   44.8270 C   0  0  0  0  0  0  0  0  0  0  0  0
   56.5532   33.5168   44.2265 H   0  0  0  0  0  0  0  0  0  0  0  0
   57.3880   31.7070   45.0960 C   0  0  0  0  0  0  0  0  0  0  0  0
   56.3970   30.8330   44.6240 O   0  0  0  0  0  0  0  0  0  0  0  0
   56.5130   30.0540   43.4380 C   0  0  0  0  0  0  0  0  0  0  0  0
   56.6701   28.9989   43.7063 H   0  0  0  0  0  0  0  0  0  0  0  0
   55.5909   30.1483   42.8457 H   0  0  0  0  0  0  0  0  0  0  0  0
   57.3676   30.4129   42.8457 H   0  0  0  0  0  0  0  0  0  0  0  0
   58.4290   31.1780   45.8660 C   0  0  0  0  0  0  0  0  0  0  0  0
   58.4522   30.1002   46.0846 H   0  0  0  0  0  0  0  0  0  0  0  0
   59.4400   32.0070   46.3600 C   0  0  0  0  0  0  0  0  0  0  0  0
   60.2455   31.5776   46.9738 H   0  0  0  0  0  0  0  0  0  0  0  0
  1  2  1  0
  2  3  2  0
  3  4  1  0
  3  5  1  0
  5  6  2  0
  6  7  1  0
  6  8  1  0
  8  9  1  0
  8 10  2  0
 10 11  1  0
 11 12  1  0
 11 13  1  0
 11 14  1  0
 10 15  1  0
 15 16  1  0
 15 17  2  0
 17 18  1  0
  2 19  1  0
 19 20  2  0
 20 21  1  0
 20 22  1  0
 22 23  1  0
 22 24  2  0
 24 25  1  0
 25 26  1  0
 26 27  1  0
 26 28  1  0
 26 29  1  0
 24 30  1  0
 30 31  1  0
 30 32  2  0
 32 33  1  0
 17  5  1  0
 32 19  1  0
M  CHG  1  10   1
M  END
>  <UniqueID>  (77) 
70

>  <SMILES>  (77) 
COc1ccc(/C=C/c2cc[n+](C)cc2)cc1

>  <Energy>  (77) 
38.023982925356115

>  <Genealogy>  (77) 
COc1ccc(/C=C/c2cc[n+](C)cc2)cc1 (cis-trans isomerization)
COc1ccc(/C=C/c2cc[n+](C)cc2)cc1 (3D coordinates assigned)
COc1ccc(/C=C/c2cc[n+](C)cc2)cc1 (optimized conformer: 38.023982925356115 kcal/mol)

>  <smiles>  (77) 
COc1ccc(C=Cc2cc[n+](C)cc2)cc1

>  <score_type>  (77) 
oracle

>  <origin>  (77) 
adg

>  <m_score__min__energy>  (77) 
-5.1799999999999997

>  <m_primary>  (77) 
energy

$$$$
77:0
     RDKit          3D

 46 47  0  0  0  0  0  0  0  0999 V2000
   56.8690   24.3510   46.5580 C   0  0  0  0  0  0  0  0  0  0  0  0
   57.3230   25.5180   47.2380 O   0  0  0  0  0  0  0  0  0  0  0  0
   57.5120   26.7700   46.6330 C   0  0  0  0  0  0  0  0  0  0  0  0
   58.7530   27.4350   46.6570 C   0  0  0  0  0  0  0  0  0  0  0  0
   58.9170   28.6750   46.0110 C   0  0  0  0  0  0  0  0  0  0  0  0
   60.2370   29.3570   45.9500 C   0  0  0  0  0  0  0  0  0  0  0  0
   61.1220   28.9200   45.1630 O   0  0  0  0  0  0  0  0  0  0  0  0
   60.5560   30.4570   46.8190 N   0  0  0  0  0  0  0  0  0  0  0  0
   61.9350   30.8270   47.1320 C   0  0  0  0  0  0  0  0  0  0  0  0
   62.0580   32.2830   47.5160 C   0  0  0  0  0  0  0  0  0  0  0  0
   62.7600   32.5790   48.5170 O   0  0  0  0  0  0  0  0  0  0  0  0
   61.3970   33.3460   46.8080 N   0  0  0  0  0  0  0  0  0  0  0  0
   59.9970   33.4400   46.5090 C   0  0  0  0  0  0  0  0  0  0  0  0
   59.6110   33.9350   45.2580 C   0  0  0  0  0  0  0  0  0  0  0  0
   58.2600   34.0880   44.9440 C   0  0  0  0  0  0  0  0  0  0  0  0
   57.2830   33.7240   45.8720 C   0  0  0  0  0  0  0  0  0  0  0  0
   57.6550   33.1860   47.1070 C   0  0  0  0  0  0  0  0  0  0  0  0
   59.0160   33.0230   47.4320 C   0  0  0  0  0  0  0  0  0  0  0  0
   59.4260   32.4450   48.6430 O   0  0  0  0  0  0  0  0  0  0  0  0
   58.5520   32.1030   49.7140 C   0  0  0  0  0  0  0  0  0  0  0  0
   58.4990   30.6180   49.8440 C   0  0  0  0  0  0  0  0  0  0  0  0
   59.1620   29.8910   49.0590 O   0  0  0  0  0  0  0  0  0  0  0  0
   57.7640   30.0360   50.8670 O   0  0  0  0  0  0  0  0  0  0  0  0
   57.8090   29.2580   45.3720 C   0  0  0  0  0  0  0  0  0  0  0  0
   56.5620   28.6080   45.3520 C   0  0  0  0  0  0  0  0  0  0  0  0
   55.4400   29.1580   44.7130 O   0  0  0  0  0  0  0  0  0  0  0  0
   55.4520   29.7200   43.4050 C   0  0  0  0  0  0  0  0  0  0  0  0
   56.4270   27.3650   45.9810 C   0  0  0  0  0  0  0  0  0  0  0  0
   55.1990   26.7120   45.9570 O   0  0  0  0  0  0  0  0  0  0  0  0
   56.5727   23.5895   47.2944 H   0  0  0  0  0  0  0  0  0  0  0  0
   56.0049   24.6070   45.9273 H   0  0  0  0  0  0  0  0  0  0  0  0
   57.6789   23.9557   45.9273 H   0  0  0  0  0  0  0  0  0  0  0  0
   59.6035   26.9806   47.1863 H   0  0  0  0  0  0  0  0  0  0  0  0
   59.8060   30.9760   47.3220 H   0  0  0  0  0  0  0  0  0  0  0  0
   62.2871   30.2078   47.9702 H   0  0  0  0  0  0  0  0  0  0  0  0
   62.5438   30.6610   46.2310 H   0  0  0  0  0  0  0  0  0  0  0  0
   60.3779   34.2053   44.5172 H   0  0  0  0  0  0  0  0  0  0  0  0
   57.9651   34.4953   43.9656 H   0  0  0  0  0  0  0  0  0  0  0  0
   56.2185   33.8608   45.6309 H   0  0  0  0  0  0  0  0  0  0  0  0
   56.8807   32.8881   47.8294 H   0  0  0  0  0  0  0  0  0  0  0  0
   58.9272   32.5418   50.6503 H   0  0  0  0  0  0  0  0  0  0  0  0
   57.5442   32.4938   49.5098 H   0  0  0  0  0  0  0  0  0  0  0  0
   57.9188   30.2361   44.8808 H   0  0  0  0  0  0  0  0  0  0  0  0
   55.4754   30.8173   43.4776 H   0  0  0  0  0  0  0  0  0  0  0  0
   56.3429   29.3693   42.8634 H   0  0  0  0  0  0  0  0  0  0  0  0
   54.5470   29.4076   42.8634 H   0  0  0  0  0  0  0  0  0  0  0  0
  1  2  1  0
  2  3  1  0
  3  4  2  0
  4  5  1  0
  5  6  1  0
  6  7  2  0
  6  8  1  0
  8  9  1  0
  9 10  1  0
 10 11  2  0
 10 12  1  0
 12 13  1  0
 13 14  2  0
 14 15  1  0
 15 16  2  0
 16 17  1  0
 17 18  2  0
 18 19  1  0
 19 20  1  0
 20 21  1  0
 21 22  2  0
 21 23  1  0
  5 24  2  0
 24 25  1  0
 25 26  1  0
 26 27  1  0
 25 28  2  0
 28 29  1  0
 28  3  1  0
 18 13  1  0
  1 30  1  0
  1 31  1  0
  1 32  1  0
  4 33  1  0
  8 34  1  0
  9 35  1  0
  9 36  1  0
 14 37  1  0
 15 38  1  0
 16 39  1  0
 17 40  1  0
 20 41  1  0
 20 42  1  0
 24 43  1  0
 27 44  1  0
 27 45  1  0
 27 46  1  0
M  CHG  3  12  -1  23  -1  29  -1
M  END
>  <UniqueID>  (78) 
71

>  <SMILES>  (78) 
COc1cc(C(=O)NCC(=O)[N-]c2ccccc2OCC(=O)[O-])cc(OC)c1[O-]

>  <Energy>  (78) 
47.50495287261881

>  <Genealogy>  (78) 
COc1cc(C(=O)NCC(=O)[N-]c2ccccc2OCC(=O)[O-])cc(OC)c1[O-] (protonated)
COc1cc(C(=O)NCC(=O)[N-]c2ccccc2OCC(=O)[O-])cc(OC)c1[O-] (3D coordinates assigned)
COc1cc(C(=O)NCC(=O)[N-]c2ccccc2OCC(=O)[O-])cc(OC)c1[O-] (optimized conformer: 47.50495287261881 kcal/mol)

>  <smiles>  (78) 
COc1cc(C(=O)NCC(=O)Nc2ccccc2OCC(=O)O)cc(OC)c1O

>  <score_type>  (78) 
oracle

>  <origin>  (78) 
adg

>  <m_score__min__energy>  (78) 
-12.460000000000001

>  <m_primary>  (78) 
energy

$$$$
78:0
     RDKit          3D

 48 51  0  0  0  0  0  0  0  0999 V2000
   63.4630   30.3670   51.7260 C   0  0  0  0  0  0  0  0  0  0  0  0
   63.4660   31.1960   50.4760 C   0  0  0  0  0  0  0  0  0  0  0  0
   64.5360   32.0610   50.2040 C   0  0  0  0  0  0  0  0  0  0  0  0
   64.5160   32.8650   49.0630 C   0  0  0  0  0  0  0  0  0  0  0  0
   63.4260   32.8180   48.1890 C   0  0  0  0  0  0  0  0  0  0  0  0
   62.3400   31.9630   48.4480 C   0  0  0  0  0  0  0  0  0  0  0  0
   61.1770   31.9370   47.5270 C   0  0  0  0  0  0  0  0  0  0  0  0
   61.1110   31.0440   46.6370 O   0  0  0  0  0  0  0  0  0  0  0  0
   60.1040   32.8830   47.6660 N   0  0  0  0  0  0  0  0  0  0  0  0
   59.1790   33.1970   46.6110 C   0  0  0  0  0  0  0  0  0  0  0  0
   59.3140   34.4040   45.9100 C   0  0  0  0  0  0  0  0  0  0  0  0
   58.4330   34.7220   44.8740 C   0  0  0  0  0  0  0  0  0  0  0  0
   57.4160   33.8320   44.5180 C   0  0  0  0  0  0  0  0  0  0  0  0
   57.2820   32.6050   45.1930 C   0  0  0  0  0  0  0  0  0  0  0  0
   56.2900   31.6710   44.8660 O   0  0  0  0  0  0  0  0  0  0  0  0
   56.4660   30.5910   43.9530 C   0  0  0  0  0  0  0  0  0  0  0  0
   57.3330   29.5500   44.5860 C   0  0  0  0  0  0  0  0  0  0  0  0
   58.7340   29.6330   44.4840 C   0  0  0  0  0  0  0  0  0  0  0  0
   59.5190   28.6270   45.0600 C   0  0  0  0  0  0  0  0  0  0  0  0
   60.7750   28.6960   44.9720 O   0  0  0  0  0  0  0  0  0  0  0  0
   58.9030   27.5860   45.7040 N   0  0  0  0  0  0  0  0  0  0  0  0
   59.4800   26.5080   46.3250 C   0  0  0  0  0  0  0  0  0  0  0  0
   60.9610   26.2730   46.4130 C   0  0  0  0  0  0  0  0  0  0  0  0
   58.5620   25.6140   46.8830 C   0  0  0  0  0  0  0  0  0  0  0  0
   57.0000   26.1850   46.5960 S   0  0  0  0  0  0  0  0  0  0  0  0
   57.5500   27.5370   45.7780 C   0  0  0  0  0  0  0  0  0  0  0  0
   56.7630   28.4940   45.2290 N   0  0  0  0  0  0  0  0  0  0  0  0
   58.1690   32.2940   46.2310 C   0  0  0  0  0  0  0  0  0  0  0  0
   62.3640   31.1620   49.6060 C   0  0  0  0  0  0  0  0  0  0  0  0
   63.4654   31.0286   52.6048 H   0  0  0  0  0  0  0  0  0  0  0  0
   62.5626   29.7354   51.7450 H   0  0  0  0  0  0  0  0  0  0  0  0
   64.3588   29.7290   51.7450 H   0  0  0  0  0  0  0  0  0  0  0  0
   65.3934   32.1060   50.8917 H   0  0  0  0  0  0  0  0  0  0  0  0
   65.3603   33.5374   48.8510 H   0  0  0  0  0  0  0  0  0  0  0  0
   63.4177   33.4546   47.2920 H   0  0  0  0  0  0  0  0  0  0  0  0
   59.9150   33.2770   48.6160 H   0  0  0  0  0  0  0  0  0  0  0  0
   60.1187   35.1046   46.1777 H   0  0  0  0  0  0  0  0  0  0  0  0
   58.5399   35.6758   44.3366 H   0  0  0  0  0  0  0  0  0  0  0  0
   56.7185   34.0915   43.7080 H   0  0  0  0  0  0  0  0  0  0  0  0
   55.4870   30.1544   43.7062 H   0  0  0  0  0  0  0  0  0  0  0  0
   56.9418   30.9588   43.0319 H   0  0  0  0  0  0  0  0  0  0  0  0
   59.2059   30.4766   43.9590 H   0  0  0  0  0  0  0  0  0  0  0  0
   61.2625   26.2252   47.4698 H   0  0  0  0  0  0  0  0  0  0  0  0
   61.2118   25.3238   45.9168 H   0  0  0  0  0  0  0  0  0  0  0  0
   61.4933   27.0979   45.9168 H   0  0  0  0  0  0  0  0  0  0  0  0
   58.8161   24.6891   47.4214 H   0  0  0  0  0  0  0  0  0  0  0  0
   58.0750   31.3318   46.7558 H   0  0  0  0  0  0  0  0  0  0  0  0
   61.5119   30.5038   49.8312 H   0  0  0  0  0  0  0  0  0  0  0  0
  1  2  1  0
  2  3  2  0
  3  4  1  0
  4  5  2  0
  5  6  1  0
  6  7  1  0
  7  8  2  0
  7  9  1  0
  9 10  1  0
 10 11  2  0
 11 12  1  0
 12 13  2  0
 13 14  1  0
 14 15  1  0
 15 16  1  0
 16 17  1  0
 17 18  2  0
 18 19  1  0
 19 20  2  0
 19 21  1  0
 21 22  1  0
 22 23  1  0
 22 24  2  0
 24 25  1  0
 25 26  1  0
 26 27  2  0
 14 28  2  0
  6 29  2  0
 29  2  1  0
 28 10  1  0
 27 17  1  0
 26 21  1  0
  1 30  1  0
  1 31  1  0
  1 32  1  0
  3 33  1  0
  4 34  1  0
  5 35  1  0
  9 36  1  0
 11 37  1  0
 12 38  1  0
 13 39  1  0
 16 40  1  0
 16 41  1  0
 18 42  1  0
 23 43  1  0
 23 44  1  0
 23 45  1  0
 24 46  1  0
 28 47  1  0
 29 48  1  0
M  END
>  <UniqueID>  (79) 
72

>  <SMILES>  (79) 
Cc1cccc(C(=O)Nc2cccc(OCc3cc(=O)n4c(C)csc4n3)c2)c1

>  <Energy>  (79) 
92.33329406673393

>  <Genealogy>  (79) 
Cc1cccc(C(=O)Nc2cccc(OCc3cc(=O)n4c(C)csc4n3)c2)c1 (3D coordinates assigned)
Cc1cccc(C(=O)Nc2cccc(OCc3cc(=O)n4c(C)csc4n3)c2)c1 (optimized conformer: 92.33329406673393 kcal/mol)

>  <smiles>  (79) 
Cc1cccc(C(=O)Nc2cccc(OCc3cc(=O)n4c(C)csc4n3)c2)c1

>  <score_type>  (79) 
oracle

>  <origin>  (79) 
adg

>  <m_score__min__energy>  (79) 
-8.9000000000000004

>  <m_primary>  (79) 
energy

$$$$
79:0
     RDKit          3D

 36 38  0  0  0  0  0  0  0  0999 V2000
   59.5250   35.3190   47.0050 N   0  0  0  0  0  0  0  0  0  0  0  0
   60.1870   33.7370   47.2130 S   0  0  0  0  0  0  0  0  0  0  0  0
   61.6780   33.8330   47.3830 O   0  0  0  0  0  0  0  0  0  0  0  0
   59.8950   32.9090   45.9930 O   0  0  0  0  0  0  0  0  0  0  0  0
   59.4730   32.9820   48.6350 C   0  0  0  0  0  0  0  0  0  0  0  0
   59.3160   33.7110   49.8180 C   0  0  0  0  0  0  0  0  0  0  0  0
   58.7580   33.1090   50.9480 C   0  0  0  0  0  0  0  0  0  0  0  0
   58.3540   31.7600   50.9200 C   0  0  0  0  0  0  0  0  0  0  0  0
   57.7430   31.1220   52.1170 C   0  0  0  0  0  0  0  0  0  0  0  0
   57.9650   31.5380   53.4340 C   0  0  0  0  0  0  0  0  0  0  0  0
   57.0670   30.5450   54.4520 S   0  0  0  0  0  0  0  0  0  0  0  0
   56.4230   29.6390   53.1950 C   0  0  0  0  0  0  0  0  0  0  0  0
   55.5260   28.4820   53.3820 C   0  0  0  0  0  0  0  0  0  0  0  0
   54.2800   28.3780   52.8940 C   0  0  0  0  0  0  0  0  0  0  0  0
   53.4330   29.5180   52.4900 C   0  0  0  0  0  0  0  0  0  0  0  0
   53.6740   30.1570   51.2650 C   0  0  0  0  0  0  0  0  0  0  0  0
   52.8730   31.2310   50.8620 C   0  0  0  0  0  0  0  0  0  0  0  0
   51.8130   31.6580   51.6680 C   0  0  0  0  0  0  0  0  0  0  0  0
   51.0230   32.7290   51.2690 O   0  0  0  0  0  0  0  0  0  0  0  0
   51.5470   31.0030   52.8760 C   0  0  0  0  0  0  0  0  0  0  0  0
   52.3450   29.9290   53.2800 C   0  0  0  0  0  0  0  0  0  0  0  0
   56.8970   30.0610   52.0030 N   0  0  0  0  0  0  0  0  0  0  0  0
   58.5200   31.0310   49.7220 C   0  0  0  0  0  0  0  0  0  0  0  0
   58.1640   29.7240   49.6380 F   0  0  0  0  0  0  0  0  0  0  0  0
   59.0780   31.6400   48.5940 C   0  0  0  0  0  0  0  0  0  0  0  0
   59.0780   35.5830   47.9110 H   0  0  0  0  0  0  0  0  0  0  0  0
   59.6334   34.7634   49.8588 H   0  0  0  0  0  0  0  0  0  0  0  0
   58.6326   33.6951   51.8704 H   0  0  0  0  0  0  0  0  0  0  0  0
   58.6133   32.3690   53.7487 H   0  0  0  0  0  0  0  0  0  0  0  0
   55.9102   27.6352   53.9697 H   0  0  0  0  0  0  0  0  0  0  0  0
   53.8582   27.3677   52.7870 H   0  0  0  0  0  0  0  0  0  0  0  0
   54.4952   29.8128   50.6192 H   0  0  0  0  0  0  0  0  0  0  0  0
   53.0775   31.7407   49.9089 H   0  0  0  0  0  0  0  0  0  0  0  0
   50.7094   31.3337   53.5078 H   0  0  0  0  0  0  0  0  0  0  0  0
   52.1209   29.4032   54.2198 H   0  0  0  0  0  0  0  0  0  0  0  0
   59.2074   31.0605   47.6680 H   0  0  0  0  0  0  0  0  0  0  0  0
  1  2  1  0
  2  3  2  0
  2  4  2  0
  2  5  1  0
  5  6  2  0
  6  7  1  0
  7  8  2  0
  8  9  1  0
  9 10  2  0
 10 11  1  0
 11 12  1  0
 12 13  1  0
 13 14  2  3
 14 15  1  0
 15 16  2  0
 16 17  1  0
 17 18  2  0
 18 19  1  0
 18 20  1  0
 20 21  2  0
 12 22  2  0
  8 23  1  0
 23 24  1  0
 23 25  2  0
 25  5  1  0
 22  9  1  0
 21 15  1  0
  1 26  1  0
  6 27  1  0
  7 28  1  0
 10 29  1  0
 13 30  1  0
 14 31  1  0
 16 32  1  0
 17 33  1  0
 20 34  1  0
 21 35  1  0
 25 36  1  0
M  CHG  2   1  -1  19  -1
M  END
>  <UniqueID>  (80) 
73

>  <SMILES>  (80) 
[NH-]S(=O)(=O)c1ccc(-c2csc(C=Cc3ccc([O-])cc3)n2)c(F)c1

>  <Energy>  (80) 
77.21670325258931

>  <Genealogy>  (80) 
[NH-]S(=O)(=O)c1ccc(-c2csc(C=Cc3ccc([O-])cc3)n2)c(F)c1 (protonated)
[NH-]S(=O)(=O)c1ccc(-c2csc(C=Cc3ccc([O-])cc3)n2)c(F)c1 (3D coordinates assigned)
[NH-]S(=O)(=O)c1ccc(-c2csc(C=Cc3ccc([O-])cc3)n2)c(F)c1 (optimized conformer: 77.21670325258931 kcal/mol)

>  <smiles>  (80) 
NS(=O)(=O)c1ccc(-c2csc(C=Cc3ccc(O)cc3)n2)c(F)c1

>  <score_type>  (80) 
oracle

>  <origin>  (80) 
adg

>  <m_score__min__energy>  (80) 
-12.42

>  <m_primary>  (80) 
energy

$$$$
80:0
     RDKit          3D

 63 66  0  0  0  0  0  0  0  0999 V2000
   57.5100   25.7641   44.1355 H   0  0  0  0  0  0  0  0  0  0  0  0
   57.5380   26.2480   45.1230 C   0  0  0  0  0  0  0  0  0  0  0  0
   56.2840   26.8400   45.6250 C   0  0  0  0  0  0  0  0  0  0  0  0
   55.5240   26.1410   46.3470 O   0  0  0  0  0  0  0  0  0  0  0  0
   55.8910   28.1630   45.2400 N   0  0  0  0  0  0  0  0  0  0  0  0
   56.7960   29.3060   45.1660 C   0  0  0  0  0  0  0  0  0  0  0  0
   56.2830   30.1962   45.5588 H   0  0  0  0  0  0  0  0  0  0  0  0
   57.6922   29.0809   45.7628 H   0  0  0  0  0  0  0  0  0  0  0  0
   57.2290   29.5750   43.7210 C   0  0  0  0  0  0  0  0  0  0  0  0
   58.3158   29.7438   43.7035 H   0  0  0  0  0  0  0  0  0  0  0  0
   56.9474   28.6992   43.1179 H   0  0  0  0  0  0  0  0  0  0  0  0
   56.5280   30.8050   43.1180 C   0  0  0  0  0  0  0  0  0  0  0  0
   55.7330   30.4606   42.4402 H   0  0  0  0  0  0  0  0  0  0  0  0
   56.1220   31.3989   43.9501 H   0  0  0  0  0  0  0  0  0  0  0  0
   57.4920   31.7060   42.3290 C   0  0  0  0  0  0  0  0  0  0  0  0
   58.1635   31.0684   41.7353 H   0  0  0  0  0  0  0  0  0  0  0  0
   56.8848   32.3631   41.6891 H   0  0  0  0  0  0  0  0  0  0  0  0
   58.3440   32.6030   43.2410 C   0  0  0  0  0  0  0  0  0  0  0  0
   59.3495   32.1681   43.3402 H   0  0  0  0  0  0  0  0  0  0  0  0
   58.4085   33.6065   42.7951 H   0  0  0  0  0  0  0  0  0  0  0  0
   57.7260   32.7120   44.5800 N   0  0  0  0  0  0  0  0  0  0  0  0
   57.5230   34.1300   44.9920 C   0  0  0  0  0  0  0  0  0  0  0  0
   57.6248   34.7711   44.1040 H   0  0  0  0  0  0  0  0  0  0  0  0
   56.5201   34.2029   45.4381 H   0  0  0  0  0  0  0  0  0  0  0  0
   58.5320   34.5970   46.0510 C   0  0  0  0  0  0  0  0  0  0  0  0
   59.5504   34.5048   45.6455 H   0  0  0  0  0  0  0  0  0  0  0  0
   58.3179   35.6451   46.3071 H   0  0  0  0  0  0  0  0  0  0  0  0
   58.4150   33.7390   47.3280 C   0  0  0  0  0  0  0  0  0  0  0  0
   57.5619   34.1141   47.9125 H   0  0  0  0  0  0  0  0  0  0  0  0
   59.6630   33.8820   48.1680 C   0  0  0  0  0  0  0  0  0  0  0  0
   59.7280   34.0320   49.5540 C   0  0  0  0  0  0  0  0  0  0  0  0
   58.8535   34.1116   50.2165 H   0  0  0  0  0  0  0  0  0  0  0  0
   61.0130   34.0660   49.9700 N   0  0  0  0  0  0  0  0  0  0  0  0
   61.3490   34.1650   50.9530 H   0  0  0  0  0  0  0  0  0  0  0  0
   61.7650   33.9290   48.8640 C   0  0  0  0  0  0  0  0  0  0  0  0
   63.1570   33.8910   48.7920 C   0  0  0  0  0  0  0  0  0  0  0  0
   63.7749   33.9893   49.6968 H   0  0  0  0  0  0  0  0  0  0  0  0
   63.7460   33.7230   47.5260 C   0  0  0  0  0  0  0  0  0  0  0  0
   64.8416   33.6934   47.4323 H   0  0  0  0  0  0  0  0  0  0  0  0
   62.9390   33.5920   46.3740 C   0  0  0  0  0  0  0  0  0  0  0  0
   63.4106   33.4578   45.3893 H   0  0  0  0  0  0  0  0  0  0  0  0
   61.5360   33.6320   46.4770 C   0  0  0  0  0  0  0  0  0  0  0  0
   60.8983   33.5280   45.5867 H   0  0  0  0  0  0  0  0  0  0  0  0
   60.9790   33.8080   47.7460 C   0  0  0  0  0  0  0  0  0  0  0  0
   58.0970   32.2570   47.0100 C   0  0  0  0  0  0  0  0  0  0  0  0
   58.6656   31.6149   47.6987 H   0  0  0  0  0  0  0  0  0  0  0  0
   57.0144   32.1053   47.1319 H   0  0  0  0  0  0  0  0  0  0  0  0
   58.4710   31.8920   45.5670 C   0  0  0  0  0  0  0  0  0  0  0  0
   59.5493   32.0577   45.4259 H   0  0  0  0  0  0  0  0  0  0  0  0
   58.2081   30.8366   45.4024 H   0  0  0  0  0  0  0  0  0  0  0  0
   58.7110   26.2530   45.7760 C   0  0  0  0  0  0  0  0  0  0  0  0
   59.2482   25.2975   45.8677 H   0  0  0  0  0  0  0  0  0  0  0  0
   59.3320   27.4490   46.3800 C   0  0  0  0  0  0  0  0  0  0  0  0
   60.0840   28.3450   45.6000 C   0  0  0  0  0  0  0  0  0  0  0  0
   60.2351   28.1449   44.5290 H   0  0  0  0  0  0  0  0  0  0  0  0
   60.6400   29.4880   46.1790 C   0  0  0  0  0  0  0  0  0  0  0  0
   61.2409   30.1774   45.5677 H   0  0  0  0  0  0  0  0  0  0  0  0
   60.4330   29.7560   47.5350 C   0  0  0  0  0  0  0  0  0  0  0  0
   60.9890   30.8910   48.1130 O   0  0  0  0  0  0  0  0  0  0  0  0
   59.6610   28.8840   48.3100 C   0  0  0  0  0  0  0  0  0  0  0  0
   59.4932   29.0989   49.3757 H   0  0  0  0  0  0  0  0  0  0  0  0
   59.1020   27.7390   47.7320 C   0  0  0  0  0  0  0  0  0  0  0  0
   58.4807   27.0649   48.3399 H   0  0  0  0  0  0  0  0  0  0  0  0
  1  2  1  0
  2  3  1  0
  3  4  2  0
  3  5  1  0
  5  6  1  0
  6  7  1  0
  6  8  1  0
  6  9  1  0
  9 10  1  0
  9 11  1  0
  9 12  1  0
 12 13  1  0
 12 14  1  0
 12 15  1  0
 15 16  1  0
 15 17  1  0
 15 18  1  0
 18 19  1  0
 18 20  1  0
 18 21  1  0
 21 22  1  0
 22 23  1  0
 22 24  1  0
 22 25  1  0
 25 26  1  0
 25 27  1  0
 25 28  1  0
 28 29  1  0
 28 30  1  0
 30 31  2  0
 31 32  1  0
 31 33  1  0
 33 34  1  0
 33 35  1  0
 35 36  2  0
 36 37  1  0
 36 38  1  0
 38 39  1  0
 38 40  2  0
 40 41  1  0
 40 42  1  0
 42 43  1  0
 42 44  2  0
 28 45  1  0
 45 46  1  0
 45 47  1  0
 45 48  1  0
 48 49  1  0
 48 50  1  0
  2 51  2  0
 51 52  1  0
 51 53  1  0
 53 54  2  0
 54 55  1  0
 54 56  1  0
 56 57  1  0
 56 58  2  0
 58 59  1  0
 58 60  1  0
 60 61  1  0
 60 62  2  0
 62 63  1  0
 48 21  1  0
 62 53  1  0
 44 30  1  0
 44 35  1  0
M  CHG  2   5  -1  59  -1
M  END
>  <UniqueID>  (81) 
74

>  <SMILES>  (81) 
O=C(/C=C\c1ccc([O-])cc1)[N-]CCCCCN1CCC(c2c[nH]c3ccccc23)CC1

>  <Energy>  (81) 
106.42745634987655

>  <Genealogy>  (81) 
O=C(C=Cc1ccc([O-])cc1)[N-]CCCCCN1CCC(c2c[nH]c3ccccc23)CC1 (protonated)
O=C(/C=C\c1ccc([O-])cc1)[N-]CCCCCN1CCC(c2c[nH]c3ccccc23)CC1 (cis-trans isomerization)
O=C(/C=C\c1ccc([O-])cc1)[N-]CCCCCN1CCC(c2c[nH]c3ccccc23)CC1 (3D coordinates assigned)
O=C(/C=C\c1ccc([O-])cc1)[N-]CCCCCN1CCC(c2c[nH]c3ccccc23)CC1 (nonaromatic ring conformer: 106.42745634987655 kcal/mol)

>  <smiles>  (81) 
O=C(C=Cc1ccc(O)cc1)NCCCCCN1CCC(c2c[nH]c3ccccc23)CC1

>  <score_type>  (81) 
oracle

>  <origin>  (81) 
adg

>  <m_score__min__energy>  (81) 
-14.539999999999999

>  <m_primary>  (81) 
energy

$$$$
81:0
     RDKit          3D

 63 66  0  0  1  0  0  0  0  0999 V2000
   65.2550   28.9580   52.5270 C   0  0  0  0  0  0  0  0  0  0  0  0
   65.9930   30.1670   52.5180 O   0  0  0  0  0  0  0  0  0  0  0  0
   66.3050   30.8220   51.3410 C   0  0  0  0  0  0  0  0  0  0  0  0
   67.1450   30.3530   50.5120 O   0  0  0  0  0  0  0  0  0  0  0  0
   65.6600   32.0600   51.0620 N   0  0  0  0  0  0  0  0  0  0  0  0
   64.6830   32.6320   51.9990 C   0  0  0  0  0  0  0  0  0  0  0  0
   64.0410   33.8340   51.3380 C   0  0  0  0  0  0  0  0  0  0  0  0
   63.6110   33.4190   50.0210 N   0  0  0  0  0  0  0  0  0  0  0  0
   62.2570   33.3100   49.6160 C   0  0  0  0  0  0  0  0  0  0  0  0
   61.8210   33.9830   48.4660 C   0  0  0  0  0  0  0  0  0  0  0  0
   60.5080   33.8930   48.0350 C   0  0  0  0  0  0  0  0  0  0  0  0
   59.5710   33.1450   48.7110 C   0  0  0  0  0  0  0  0  0  0  0  0
   58.2250   33.0430   48.2780 N   0  0  0  0  0  0  0  0  0  0  0  0
   58.0020   32.7550   47.0430 C   0  0  0  0  0  0  0  0  0  0  0  0
   57.1580   33.4400   46.2520 N   0  0  0  0  0  0  0  0  0  0  0  0
   57.0140   33.0360   44.9650 C   0  0  0  0  0  0  0  0  0  0  0  0
   57.6880   31.9620   44.4360 C   0  0  0  0  0  0  0  0  0  0  0  0
   57.4880   31.4530   42.7930 Cl  0  0  0  0  0  0  0  0  0  0  0  0
   58.5450   31.2810   45.2680 C   0  0  0  0  0  0  0  0  0  0  0  0
   59.2360   30.2700   44.8950 N   0  0  0  0  0  0  0  0  0  0  0  0
   58.8620   28.9250   45.1250 C   0  0  0  0  0  0  0  0  0  0  0  0
   58.2660   28.2320   44.0620 C   0  0  0  0  0  0  0  0  0  0  0  0
   57.8910   26.9090   44.1790 C   0  0  0  0  0  0  0  0  0  0  0  0
   58.1280   26.2920   45.3900 C   0  0  0  0  0  0  0  0  0  0  0  0
   58.7120   26.9360   46.4620 C   0  0  0  0  0  0  0  0  0  0  0  0
   59.0930   28.2790   46.3470 C   0  0  0  0  0  0  0  0  0  0  0  0
   59.8340   29.1170   47.6640 S   0  0  0  0  0  0  0  0  0  0  0  0
   58.7430   29.8930   48.7210 N   0  0  0  0  0  0  0  0  0  0  0  0
   60.8570   30.1190   47.1980 O   0  0  0  0  0  0  0  0  0  0  0  0
   60.6070   28.1130   48.4940 O   0  0  0  0  0  0  0  0  0  0  0  0
   58.6950   31.6810   46.5600 N   0  0  0  0  0  0  0  0  0  0  0  0
   59.9980   32.4840   49.8420 C   0  0  0  0  0  0  0  0  0  0  0  0
   59.0810   31.7190   50.5510 O   0  0  0  0  0  0  0  0  0  0  0  0
   58.2200   32.2510   51.5220 C   0  0  0  0  0  0  0  0  0  0  0  0
   61.3090   32.5730   50.2720 C   0  0  0  0  0  0  0  0  0  0  0  0
   64.6760   33.0900   49.0700 C   0  0  0  0  0  0  0  0  0  0  0  0
   65.9630   32.7880   49.8240 C   0  0  0  0  0  0  0  0  0  0  0  0
   65.0674   28.6507   53.5664 H   0  0  0  0  0  0  0  0  0  0  0  0
   64.2956   29.1102   52.0108 H   0  0  0  0  0  0  0  0  0  0  0  0
   65.8288   28.1743   52.0108 H   0  0  0  0  0  0  0  0  0  0  0  0
   63.9135   31.8831   52.2378 H   0  0  0  0  0  0  0  0  0  0  0  0
   65.1823   32.9329   52.9318 H   0  0  0  0  0  0  0  0  0  0  0  0
   63.1760   34.1713   51.9280 H   0  0  0  0  0  0  0  0  0  0  0  0
   64.7533   34.6695   51.2709 H   0  0  0  0  0  0  0  0  0  0  0  0
   62.5355   34.5942   47.8951 H   0  0  0  0  0  0  0  0  0  0  0  0
   60.2054   34.4346   47.1267 H   0  0  0  0  0  0  0  0  0  0  0  0
   56.6380   34.2570   46.6380 H   0  0  0  0  0  0  0  0  0  0  0  0
   56.3251   33.5946   44.3143 H   0  0  0  0  0  0  0  0  0  0  0  0
   58.0929   28.7561   43.1105 H   0  0  0  0  0  0  0  0  0  0  0  0
   57.4231   26.3694   43.3424 H   0  0  0  0  0  0  0  0  0  0  0  0
   57.8379   25.2374   45.5067 H   0  0  0  0  0  0  0  0  0  0  0  0
   58.8780   26.3953   47.4054 H   0  0  0  0  0  0  0  0  0  0  0  0
   58.9450   29.7430   49.7380 H   0  0  0  0  0  0  0  0  0  0  0  0
   58.6730   30.9180   48.5770 H   0  0  0  0  0  0  0  0  0  0  0  0
   59.3480   31.1560   47.1820 H   0  0  0  0  0  0  0  0  0  0  0  0
   58.6057   32.0127   52.5242 H   0  0  0  0  0  0  0  0  0  0  0  0
   58.1616   33.3428   51.4017 H   0  0  0  0  0  0  0  0  0  0  0  0
   57.2174   31.8147   51.4017 H   0  0  0  0  0  0  0  0  0  0  0  0
   61.6027   32.0276   51.1810 H   0  0  0  0  0  0  0  0  0  0  0  0
   64.3814   32.2082   48.4820 H   0  0  0  0  0  0  0  0  0  0  0  0
   64.8403   33.9449   48.3976 H   0  0  0  0  0  0  0  0  0  0  0  0
   66.6202   32.1733   49.1914 H   0  0  0  0  0  0  0  0  0  0  0  0
   66.4652   33.7340   50.0749 H   0  0  0  0  0  0  0  0  0  0  0  0
  1  2  1  0
  2  3  1  0
  3  4  2  0
  3  5  1  0
  5  6  1  0
  6  7  1  0
  7  8  1  0
  8  9  1  0
  9 10  2  0
 10 11  1  0
 11 12  2  0
 12 13  1  0
 13 14  2  0
 14 15  1  0
 15 16  1  0
 16 17  2  0
 17 18  1  0
 17 19  1  0
 19 20  2  0
 20 21  1  0
 21 22  2  0
 22 23  1  0
 23 24  2  0
 24 25  1  0
 25 26  2  0
 26 27  1  0
 27 28  1  0
 27 29  2  0
 27 30  2  0
 19 31  1  0
 12 32  1  0
 32 33  1  0
 33 34  1  0
 32 35  2  0
  8 36  1  0
 36 37  1  0
 37  5  1  0
 35  9  1  0
 31 14  1  0
 26 21  1  0
  1 38  1  0
  1 39  1  0
  1 40  1  0
  6 41  1  0
  6 42  1  0
  7 43  1  0
  7 44  1  0
 10 45  1  0
 11 46  1  0
 15 47  1  0
 16 48  1  0
 22 49  1  0
 23 50  1  0
 24 51  1  0
 25 52  1  0
 28 53  1  0
 28 54  1  0
 31 55  1  0
 34 56  1  0
 34 57  1  0
 34 58  1  0
 35 59  1  0
 36 60  1  0
 36 61  1  0
 37 62  1  0
 37 63  1  0
M  END
>  <smiles>  (82) 
COC(=O)N1CCN(c2ccc(N=c3[nH]cc(Cl)c(=Nc4ccccc4S(N)(=O)=O)[nH]3)c(OC)c2)CC1

>  <score_type>  (82) 
oracle

>  <origin>  (82) 
adg

>  <m_score__min__energy>  (82) 
-9.6400000000000006

>  <m_primary>  (82) 
energy

$$$$
82:0
     RDKit          3D

 58 60  0  0  0  0  0  0  0  0999 V2000
   58.5050   32.2130   49.1270 C   0  0  0  0  0  0  0  0  0  0  0  0
   58.4650   32.5760   47.6780 C   0  0  0  0  0  0  0  0  0  0  0  0
   57.8090   31.8580   46.7470 N   0  0  0  0  0  0  0  0  0  0  0  0
   57.9600   32.5030   45.5740 C   0  0  0  0  0  0  0  0  0  0  0  0
   57.4500   31.9690   44.2690 C   0  0  0  0  0  0  0  0  0  0  0  0
   56.7430   30.6690   44.4900 C   0  0  0  0  0  0  0  0  0  0  0  0
   55.4680   30.3600   44.0710 C   0  0  0  0  0  0  0  0  0  0  0  0
   55.1500   29.1290   44.5070 N   0  0  0  0  0  0  0  0  0  0  0  0
   56.2510   28.7400   45.1820 C   0  0  0  0  0  0  0  0  0  0  0  0
   56.3410   27.6210   45.7490 O   0  0  0  0  0  0  0  0  0  0  0  0
   57.2480   29.6480   45.2050 N   0  0  0  0  0  0  0  0  0  0  0  0
   58.7410   33.6380   45.7490 C   0  0  0  0  0  0  0  0  0  0  0  0
   59.1550   34.6200   44.6960 C   0  0  0  0  0  0  0  0  0  0  0  0
   59.0300   33.7000   47.1020 C   0  0  0  0  0  0  0  0  0  0  0  0
   60.0190   34.9520   47.9310 S   0  0  0  0  0  0  0  0  0  0  0  0
   61.6110   34.0570   47.7900 C   0  0  0  0  0  0  0  0  0  0  0  0
   61.5080   32.7700   46.9630 C   0  0  0  0  0  0  0  0  0  0  0  0
   62.1950   31.5770   47.6440 C   0  0  0  0  0  0  0  0  0  0  0  0
   61.3250   30.3140   47.5470 C   0  0  0  0  0  0  0  0  0  0  0  0
   60.4540   30.2860   46.2720 C   0  0  0  0  0  0  0  0  0  0  0  0
   60.3490   28.8960   45.6020 C   0  0  0  0  0  0  0  0  0  0  0  0
   59.1770   28.0820   46.0220 N   0  0  0  0  0  0  0  0  0  0  0  0
   58.9570   28.1810   47.4910 C   0  0  0  0  0  0  0  0  0  0  0  0
   59.6550   27.0490   48.2790 C   0  0  0  0  0  0  0  0  0  0  0  0
   60.7910   26.5780   47.5830 O   0  0  0  0  0  0  0  0  0  0  0  0
   60.4020   25.9220   46.3860 C   0  0  0  0  0  0  0  0  0  0  0  0
   59.2720   26.6570   45.6250 C   0  0  0  0  0  0  0  0  0  0  0  0
   58.4047   33.1235   49.7360 H   0  0  0  0  0  0  0  0  0  0  0  0
   57.6772   31.5258   49.3558 H   0  0  0  0  0  0  0  0  0  0  0  0
   59.4626   31.7225   49.3558 H   0  0  0  0  0  0  0  0  0  0  0  0
   57.2900   30.9650   46.9000 H   0  0  0  0  0  0  0  0  0  0  0  0
   56.7504   32.6938   43.8272 H   0  0  0  0  0  0  0  0  0  0  0  0
   58.2988   31.8075   43.5882 H   0  0  0  0  0  0  0  0  0  0  0  0
   54.8151   31.0151   43.4755 H   0  0  0  0  0  0  0  0  0  0  0  0
   59.5395   35.5320   45.1760 H   0  0  0  0  0  0  0  0  0  0  0  0
   59.9423   34.1756   44.0694 H   0  0  0  0  0  0  0  0  0  0  0  0
   58.2871   34.8734   44.0694 H   0  0  0  0  0  0  0  0  0  0  0  0
   62.3451   34.7222   47.3119 H   0  0  0  0  0  0  0  0  0  0  0  0
   61.9159   33.7691   48.8069 H   0  0  0  0  0  0  0  0  0  0  0  0
   60.4448   32.5286   46.8170 H   0  0  0  0  0  0  0  0  0  0  0  0
   62.0178   32.9468   46.0044 H   0  0  0  0  0  0  0  0  0  0  0  0
   63.1602   31.3881   47.1514 H   0  0  0  0  0  0  0  0  0  0  0  0
   62.3464   31.8185   48.7064 H   0  0  0  0  0  0  0  0  0  0  0  0
   61.9834   29.4328   47.5427 H   0  0  0  0  0  0  0  0  0  0  0  0
   60.6464   30.3110   48.4128 H   0  0  0  0  0  0  0  0  0  0  0  0
   59.4397   30.6162   46.5406 H   0  0  0  0  0  0  0  0  0  0  0  0
   60.9416   30.9503   45.5434 H   0  0  0  0  0  0  0  0  0  0  0  0
   60.2882   29.0455   44.5139 H   0  0  0  0  0  0  0  0  0  0  0  0
   61.2413   28.3350   45.9169 H   0  0  0  0  0  0  0  0  0  0  0  0
   58.3280   28.4890   45.5660 H   0  0  0  0  0  0  0  0  0  0  0  0
   59.3502   29.1469   47.8409 H   0  0  0  0  0  0  0  0  0  0  0  0
   57.8755   28.0914   47.6706 H   0  0  0  0  0  0  0  0  0  0  0  0
   59.9678   27.4334   49.2611 H   0  0  0  0  0  0  0  0  0  0  0  0
   58.9466   26.2163   48.4009 H   0  0  0  0  0  0  0  0  0  0  0  0
   61.2790   25.8511   45.7258 H   0  0  0  0  0  0  0  0  0  0  0  0
   60.0147   24.9318   46.6680 H   0  0  0  0  0  0  0  0  0  0  0  0
   59.4750   26.6010   44.5453 H   0  0  0  0  0  0  0  0  0  0  0  0
   58.3184   26.1685   45.8740 H   0  0  0  0  0  0  0  0  0  0  0  0
  1  2  1  0
  2  3  1  0
  3  4  1  0
  4  5  1  0
  5  6  1  0
  6  7  2  0
  7  8  1  0
  8  9  1  0
  9 10  2  0
  9 11  1  0
  4 12  2  0
 12 13  1  0
 12 14  1  0
 14 15  1  0
 15 16  1  0
 16 17  1  0
 17 18  1  0
 18 19  1  0
 19 20  1  0
 20 21  1  0
 21 22  1  0
 22 23  1  0
 23 24  1  0
 24 25  1  0
 25 26  1  0
 26 27  1  0
 14  2  2  0
 27 22  1  0
 11  6  1  0
  1 28  1  0
  1 29  1  0
  1 30  1  0
  3 31  1  0
  5 32  1  0
  5 33  1  0
  7 34  1  0
 13 35  1  0
 13 36  1  0
 13 37  1  0
 16 38  1  0
 16 39  1  0
 17 40  1  0
 17 41  1  0
 18 42  1  0
 18 43  1  0
 19 44  1  0
 19 45  1  0
 20 46  1  0
 20 47  1  0
 21 48  1  0
 21 49  1  0
 22 50  1  0
 23 51  1  0
 23 52  1  0
 24 53  1  0
 24 54  1  0
 26 55  1  0
 26 56  1  0
 27 57  1  0
 27 58  1  0
M  CHG  3   8  -1  11  -1  22   1
M  END
>  <UniqueID>  (83) 
75

>  <SMILES>  (83) 
Cc1[nH]c(Cc2c[n-]c(=O)[n-]2)c(C)c1SCCCCCC[NH+]1CCOCC1

>  <Energy>  (83) 
111.94890027852126

>  <Genealogy>  (83) 
Cc1[nH]c(Cc2c[n-]c(=O)[n-]2)c(C)c1SCCCCCC[NH+]1CCOCC1 (protonated)
Cc1[nH]c(Cc2c[n-]c(=O)[n-]2)c(C)c1SCCCCCC[NH+]1CCOCC1 (3D coordinates assigned)
Cc1[nH]c(Cc2c[n-]c(=O)[n-]2)c(C)c1SCCCCCC[NH+]1CCOCC1 (nonaromatic ring conformer: 111.94890027852126 kcal/mol)

>  <smiles>  (83) 
Cc1[nH]c(Cc2c[nH]c(=O)[nH]2)c(C)c1SCCCCCCN1CCOCC1

>  <score_type>  (83) 
oracle

>  <origin>  (83) 
adg

>  <m_score__min__energy>  (83) 
-12.300000000000001

>  <m_primary>  (83) 
energy

$$$$
83:0
     RDKit          3D

 56 59  0  0  0  0  0  0  0  0999 V2000
   58.1470   25.9000   44.1240 C   0  0  0  0  0  0  0  0  0  0  0  0
   57.8030   27.3390   44.4120 C   0  0  0  0  0  0  0  0  0  0  0  0
   57.6370   28.2300   43.3380 C   0  0  0  0  0  0  0  0  0  0  0  0
   57.3310   29.5710   43.5660 C   0  0  0  0  0  0  0  0  0  0  0  0
   57.1760   30.0500   44.8680 C   0  0  0  0  0  0  0  0  0  0  0  0
   56.8820   31.4410   45.0650 N   0  0  0  0  0  0  0  0  0  0  0  0
   57.7040   32.5470   44.6680 C   0  0  0  0  0  0  0  0  0  0  0  0
   57.7820   32.8310   43.4430 O   0  0  0  0  0  0  0  0  0  0  0  0
   58.4160   33.3940   45.6570 C   0  0  0  0  0  0  0  0  0  0  0  0
   58.5050   32.9850   47.0000 C   0  0  0  0  0  0  0  0  0  0  0  0
   59.1800   33.7740   47.9360 C   0  0  0  0  0  0  0  0  0  0  0  0
   59.7780   34.9730   47.5410 C   0  0  0  0  0  0  0  0  0  0  0  0
   59.7080   35.3820   46.2060 C   0  0  0  0  0  0  0  0  0  0  0  0
   59.0370   34.5950   45.2660 C   0  0  0  0  0  0  0  0  0  0  0  0
   57.3650   29.1760   45.9510 C   0  0  0  0  0  0  0  0  0  0  0  0
   57.6570   27.8180   45.7380 C   0  0  0  0  0  0  0  0  0  0  0  0
   57.8630   26.9220   46.9400 C   0  0  0  0  0  0  0  0  0  0  0  0
   57.0510   25.7100   46.8260 N   0  0  0  0  0  0  0  0  0  0  0  0
   57.4100   24.4680   47.2230 C   0  0  0  0  0  0  0  0  0  0  0  0
   56.3690   23.5810   46.9980 C   0  0  0  0  0  0  0  0  0  0  0  0
   56.3630   22.1520   47.3450 C   0  0  0  0  0  0  0  0  0  0  0  0
   55.4080   21.4320   46.9540 O   0  0  0  0  0  0  0  0  0  0  0  0
   57.3920   21.5590   48.1480 N   0  0  0  0  0  0  0  0  0  0  0  0
   57.1490   20.7910   49.3620 C   0  0  0  0  0  0  0  0  0  0  0  0
   58.0260   21.3140   50.4620 C   0  0  0  0  0  0  0  0  0  0  0  0
   57.7830   22.5790   51.0250 C   0  0  0  0  0  0  0  0  0  0  0  0
   58.5820   23.0490   52.0730 C   0  0  0  0  0  0  0  0  0  0  0  0
   59.6200   22.2570   52.5720 C   0  0  0  0  0  0  0  0  0  0  0  0
   60.3940   22.7140   53.5880 F   0  0  0  0  0  0  0  0  0  0  0  0
   59.8570   20.9910   52.0280 C   0  0  0  0  0  0  0  0  0  0  0  0
   59.0610   20.5170   50.9800 C   0  0  0  0  0  0  0  0  0  0  0  0
   55.3240   24.3310   46.4910 C   0  0  0  0  0  0  0  0  0  0  0  0
   54.0430   23.8780   46.1940 O   0  0  0  0  0  0  0  0  0  0  0  0
   55.7760   25.6270   46.3930 C   0  0  0  0  0  0  0  0  0  0  0  0
   55.0310   26.7090   45.9380 O   0  0  0  0  0  0  0  0  0  0  0  0
   58.2767   25.3572   45.0719 H   0  0  0  0  0  0  0  0  0  0  0  0
   57.3341   25.4375   43.5449 H   0  0  0  0  0  0  0  0  0  0  0  0
   59.0812   25.8551   43.5449 H   0  0  0  0  0  0  0  0  0  0  0  0
   57.7497   27.8655   42.3063 H   0  0  0  0  0  0  0  0  0  0  0  0
   57.2109   30.2563   42.7140 H   0  0  0  0  0  0  0  0  0  0  0  0
   58.0408   32.0389   47.3155 H   0  0  0  0  0  0  0  0  0  0  0  0
   59.2403   33.4501   48.9855 H   0  0  0  0  0  0  0  0  0  0  0  0
   60.3038   35.5952   48.2802 H   0  0  0  0  0  0  0  0  0  0  0  0
   60.1818   36.3247   45.8949 H   0  0  0  0  0  0  0  0  0  0  0  0
   58.9940   34.9160   44.2148 H   0  0  0  0  0  0  0  0  0  0  0  0
   57.2834   29.5593   46.9788 H   0  0  0  0  0  0  0  0  0  0  0  0
   58.9246   26.6409   47.0033 H   0  0  0  0  0  0  0  0  0  0  0  0
   57.5585   27.4682   47.8450 H   0  0  0  0  0  0  0  0  0  0  0  0
   58.3837   24.2013   47.6597 H   0  0  0  0  0  0  0  0  0  0  0  0
   56.0933   20.8902   49.6548 H   0  0  0  0  0  0  0  0  0  0  0  0
   57.3780   19.7306   49.1800 H   0  0  0  0  0  0  0  0  0  0  0  0
   56.9618   23.2015   50.6402 H   0  0  0  0  0  0  0  0  0  0  0  0
   58.3931   24.0429   52.5047 H   0  0  0  0  0  0  0  0  0  0  0  0
   60.6710   20.3666   52.4249 H   0  0  0  0  0  0  0  0  0  0  0  0
   59.2458   19.5173   50.5600 H   0  0  0  0  0  0  0  0  0  0  0  0
   53.7880   22.9070   46.3320 H   0  0  0  0  0  0  0  0  0  0  0  0
  1  2  1  0
  2  3  2  0
  3  4  1  0
  4  5  2  0
  5  6  1  0
  6  7  1  0
  7  8  2  0
  7  9  1  0
  9 10  2  0
 10 11  1  0
 11 12  2  0
 12 13  1  0
 13 14  2  0
  5 15  1  0
 15 16  2  0
 16 17  1  0
 17 18  1  0
 18 19  1  0
 19 20  2  0
 20 21  1  0
 21 22  2  0
 21 23  1  0
 23 24  1  0
 24 25  1  0
 25 26  2  0
 26 27  1  0
 27 28  2  0
 28 29  1  0
 28 30  1  0
 30 31  2  0
 20 32  1  0
 32 33  1  0
 32 34  2  0
 34 35  1  0
 16  2  1  0
 34 18  1  0
 14  9  1  0
 31 25  1  0
  1 36  1  0
  1 37  1  0
  1 38  1  0
  3 39  1  0
  4 40  1  0
 10 41  1  0
 11 42  1  0
 12 43  1  0
 13 44  1  0
 14 45  1  0
 15 46  1  0
 17 47  1  0
 17 48  1  0
 19 49  1  0
 24 50  1  0
 24 51  1  0
 26 52  1  0
 27 53  1  0
 30 54  1  0
 31 55  1  0
 33 56  1  0
M  CHG  3   6  -1  23  -1  35  -1
M  END
>  <UniqueID>  (84) 
76

>  <SMILES>  (84) 
Cc1ccc([N-]C(=O)c2ccccc2)cc1Cn1cc(C(=O)[N-]Cc2ccc(F)cc2)c(O)c1[O-]

>  <Energy>  (84) 
98.35740330261734

>  <Genealogy>  (84) 
Cc1ccc([N-]C(=O)c2ccccc2)cc1Cn1cc(C(=O)[N-]Cc2ccc(F)cc2)c(O)c1[O-] (protonated)
Cc1ccc([N-]C(=O)c2ccccc2)cc1Cn1cc(C(=O)[N-]Cc2ccc(F)cc2)c(O)c1[O-] (3D coordinates assigned)
Cc1ccc([N-]C(=O)c2ccccc2)cc1Cn1cc(C(=O)[N-]Cc2ccc(F)cc2)c(O)c1[O-] (optimized conformer: 98.35740330261734 kcal/mol)

>  <smiles>  (84) 
Cc1ccc(NC(=O)c2ccccc2)cc1Cn1cc(C(=O)NCc2ccc(F)cc2)c(O)c1O

>  <score_type>  (84) 
oracle

>  <origin>  (84) 
adg

>  <m_score__min__energy>  (84) 
-15.48

>  <m_primary>  (84) 
energy

$$$$
84:0
     RDKit          3D

 33 34  0  0  0  0  0  0  0  0999 V2000
   55.1300   29.7370   43.4720 C   0  0  0  0  0  0  0  0  0  0  0  0
   55.3090   29.2120   44.7830 O   0  0  0  0  0  0  0  0  0  0  0  0
   56.4820   28.5900   45.2390 C   0  0  0  0  0  0  0  0  0  0  0  0
   57.7440   29.1990   45.1290 C   0  0  0  0  0  0  0  0  0  0  0  0
   58.9000   28.5480   45.5880 C   0  0  0  0  0  0  0  0  0  0  0  0
   60.2280   29.2610   45.4710 C   0  0  0  0  0  0  0  0  0  0  0  0
   60.1440   30.6630   46.0790 C   0  0  0  0  0  0  0  0  0  0  0  0
   60.9130   30.7260   47.3720 C   0  0  0  0  0  0  0  0  0  0  0  0
   60.5730   29.8810   48.4380 C   0  0  0  0  0  0  0  0  0  0  0  0
   61.2630   29.9620   49.6510 C   0  0  0  0  0  0  0  0  0  0  0  0
   60.7750   28.7870   51.0810 Br  0  0  0  0  0  0  0  0  0  0  0  0
   62.2960   30.8980   49.8170 C   0  0  0  0  0  0  0  0  0  0  0  0
   62.9680   30.9550   51.0400 O   0  0  0  0  0  0  0  0  0  0  0  0
   62.6300   31.7590   48.7510 C   0  0  0  0  0  0  0  0  0  0  0  0
   64.0190   33.0700   48.9040 Br  0  0  0  0  0  0  0  0  0  0  0  0
   61.9350   31.6710   47.5400 C   0  0  0  0  0  0  0  0  0  0  0  0
   58.7880   27.2760   46.1930 C   0  0  0  0  0  0  0  0  0  0  0  0
   60.3460   26.3700   46.8810 Br  0  0  0  0  0  0  0  0  0  0  0  0
   57.5230   26.6660   46.3030 C   0  0  0  0  0  0  0  0  0  0  0  0
   57.3200   24.9330   47.1080 Br  0  0  0  0  0  0  0  0  0  0  0  0
   56.3820   27.3240   45.8240 C   0  0  0  0  0  0  0  0  0  0  0  0
   55.1330   26.7190   45.9330 O   0  0  0  0  0  0  0  0  0  0  0  0
   54.7757   30.7762   43.5384 H   0  0  0  0  0  0  0  0  0  0  0  0
   56.0881   29.7101   42.9323 H   0  0  0  0  0  0  0  0  0  0  0  0
   54.3879   29.1304   42.9323 H   0  0  0  0  0  0  0  0  0  0  0  0
   57.8269   30.1986   44.6774 H   0  0  0  0  0  0  0  0  0  0  0  0
   60.9970   28.6819   46.0033 H   0  0  0  0  0  0  0  0  0  0  0  0
   60.4882   29.3521   44.4061 H   0  0  0  0  0  0  0  0  0  0  0  0
   60.5673   31.3903   45.3706 H   0  0  0  0  0  0  0  0  0  0  0  0
   59.0890   30.8994   46.2816 H   0  0  0  0  0  0  0  0  0  0  0  0
   59.7591   29.1506   48.3192 H   0  0  0  0  0  0  0  0  0  0  0  0
   62.5200   31.2430   51.9000 H   0  0  0  0  0  0  0  0  0  0  0  0
   62.1925   32.3488   46.7128 H   0  0  0  0  0  0  0  0  0  0  0  0
  1  2  1  0
  2  3  1  0
  3  4  2  0
  4  5  1  0
  5  6  1  0
  6  7  1  0
  7  8  1  0
  8  9  2  0
  9 10  1  0
 10 11  1  0
 10 12  2  0
 12 13  1  0
 12 14  1  0
 14 15  1  0
 14 16  2  0
  5 17  2  0
 17 18  1  0
 17 19  1  0
 19 20  1  0
 19 21  2  0
 21 22  1  0
 21  3  1  0
 16  8  1  0
  1 23  1  0
  1 24  1  0
  1 25  1  0
  4 26  1  0
  6 27  1  0
  6 28  1  0
  7 29  1  0
  7 30  1  0
  9 31  1  0
 13 32  1  0
 16 33  1  0
M  CHG  1  22  -1
M  END
>  <UniqueID>  (85) 
77

>  <SMILES>  (85) 
COc1cc(CCc2cc(Br)c(O)c(Br)c2)c(Br)c(Br)c1[O-]

>  <Energy>  (85) 
34.54456549068113

>  <Genealogy>  (85) 
COc1cc(CCc2cc(Br)c(O)c(Br)c2)c(Br)c(Br)c1[O-] (protonated)
COc1cc(CCc2cc(Br)c(O)c(Br)c2)c(Br)c(Br)c1[O-] (3D coordinates assigned)
COc1cc(CCc2cc(Br)c(O)c(Br)c2)c(Br)c(Br)c1[O-] (optimized conformer: 34.54456549068113 kcal/mol)

>  <smiles>  (85) 
COc1cc(CCc2cc(Br)c(O)c(Br)c2)c(Br)c(Br)c1O

>  <score_type>  (85) 
oracle

>  <origin>  (85) 
adg

>  <m_score__min__energy>  (85) 
-12.470000000000001

>  <m_primary>  (85) 
energy

$$$$
85:0
     RDKit          3D

 56 59  0  0  0  0  0  0  0  0999 V2000
   61.8300   32.1480   46.4350 O   0  0  0  0  0  0  0  0  0  0  0  0
   61.9750   31.2610   47.3240 C   0  0  0  0  0  0  0  0  0  0  0  0
   62.9830   31.4030   48.3380 N   0  0  0  0  0  0  0  0  0  0  0  0
   63.6320   32.6490   48.6340 C   0  0  0  0  0  0  0  0  0  0  0  0
   63.5450   33.6210   47.8320 O   0  0  0  0  0  0  0  0  0  0  0  0
   64.4370   32.8120   49.8660 C   0  0  0  0  0  0  0  0  0  0  0  0
   65.6270   32.0720   49.9690 C   0  0  0  0  0  0  0  0  0  0  0  0
   66.4470   32.1920   51.0910 C   0  0  0  0  0  0  0  0  0  0  0  0
   66.0950   33.0570   52.1240 C   0  0  0  0  0  0  0  0  0  0  0  0
   64.9320   33.8200   52.0330 C   0  0  0  0  0  0  0  0  0  0  0  0
   64.0910   33.7300   50.9030 C   0  0  0  0  0  0  0  0  0  0  0  0
   62.9170   34.5870   50.8340 N   0  0  0  0  0  0  0  0  0  0  0  0
   61.7190   33.8870   50.4130 C   0  0  0  0  0  0  0  0  0  0  0  0
   61.1820   32.8700   51.2250 C   0  0  0  0  0  0  0  0  0  0  0  0
   60.0190   32.1970   50.8470 C   0  0  0  0  0  0  0  0  0  0  0  0
   59.3700   32.5340   49.6580 C   0  0  0  0  0  0  0  0  0  0  0  0
   59.8710   33.5600   48.8310 C   0  0  0  0  0  0  0  0  0  0  0  0
   59.1990   33.8810   47.5410 C   0  0  0  0  0  0  0  0  0  0  0  0
   59.8970   34.5670   46.5260 C   0  0  0  0  0  0  0  0  0  0  0  0
   59.2650   34.8460   45.3130 C   0  0  0  0  0  0  0  0  0  0  0  0
   57.9730   34.4700   45.1140 N   0  0  0  0  0  0  0  0  0  0  0  0
   57.2640   33.8210   46.0760 C   0  0  0  0  0  0  0  0  0  0  0  0
   57.8610   33.5090   47.3030 C   0  0  0  0  0  0  0  0  0  0  0  0
   61.0320   34.2530   49.2350 C   0  0  0  0  0  0  0  0  0  0  0  0
   61.0930   30.1310   47.3590 N   0  0  0  0  0  0  0  0  0  0  0  0
   60.0410   29.9610   46.4020 C   0  0  0  0  0  0  0  0  0  0  0  0
   59.8850   28.7320   45.7460 C   0  0  0  0  0  0  0  0  0  0  0  0
   58.8450   28.5460   44.8280 C   0  0  0  0  0  0  0  0  0  0  0  0
   57.9650   29.6020   44.5330 C   0  0  0  0  0  0  0  0  0  0  0  0
   56.8520   29.4300   43.5740 C   0  0  0  0  0  0  0  0  0  0  0  0
   55.6250   29.6750   43.9190 N   0  0  0  0  0  0  0  0  0  0  0  0
   55.1650   29.3390   45.1750 O   0  0  0  0  0  0  0  0  0  0  0  0
   58.1430   30.8420   45.1710 C   0  0  0  0  0  0  0  0  0  0  0  0
   59.1650   31.0160   46.1120 C   0  0  0  0  0  0  0  0  0  0  0  0
   63.2120   30.5680   48.9220 H   0  0  0  0  0  0  0  0  0  0  0  0
   65.9153   31.3901   49.1554 H   0  0  0  0  0  0  0  0  0  0  0  0
   67.3731   31.6025   51.1599 H   0  0  0  0  0  0  0  0  0  0  0  0
   66.7363   33.1384   53.0140 H   0  0  0  0  0  0  0  0  0  0  0  0
   64.6658   34.5022   52.8538 H   0  0  0  0  0  0  0  0  0  0  0  0
   63.0690   35.3660   50.1490 H   0  0  0  0  0  0  0  0  0  0  0  0
   62.7830   35.0400   51.7680 H   0  0  0  0  0  0  0  0  0  0  0  0
   61.6839   32.6031   52.1667 H   0  0  0  0  0  0  0  0  0  0  0  0
   59.6133   31.3998   51.4871 H   0  0  0  0  0  0  0  0  0  0  0  0
   58.4584   31.9935   49.3633 H   0  0  0  0  0  0  0  0  0  0  0  0
   60.9382   34.8819   46.6898 H   0  0  0  0  0  0  0  0  0  0  0  0
   59.8128   35.3709   44.5166 H   0  0  0  0  0  0  0  0  0  0  0  0
   56.2170   33.5401   45.8891 H   0  0  0  0  0  0  0  0  0  0  0  0
   57.2889   32.9765   48.0770 H   0  0  0  0  0  0  0  0  0  0  0  0
   61.4062   35.0883   48.6249 H   0  0  0  0  0  0  0  0  0  0  0  0
   61.0780   29.5380   48.2200 H   0  0  0  0  0  0  0  0  0  0  0  0
   60.5843   27.9087   45.9540 H   0  0  0  0  0  0  0  0  0  0  0  0
   58.7158   27.5707   44.3359 H   0  0  0  0  0  0  0  0  0  0  0  0
   57.0679   29.0886   42.5509 H   0  0  0  0  0  0  0  0  0  0  0  0
   55.6030   29.7350   45.9990 H   0  0  0  0  0  0  0  0  0  0  0  0
   57.4746   31.6815   44.9292 H   0  0  0  0  0  0  0  0  0  0  0  0
   59.2807   31.9824   46.6246 H   0  0  0  0  0  0  0  0  0  0  0  0
  1  2  2  0
  2  3  1  0
  3  4  1  0
  4  5  2  0
  4  6  1  0
  6  7  2  0
  7  8  1  0
  8  9  2  0
  9 10  1  0
 10 11  2  0
 11 12  1  0
 12 13  1  0
 13 14  2  0
 14 15  1  0
 15 16  2  0
 16 17  1  0
 17 18  1  0
 18 19  2  0
 19 20  1  0
 20 21  2  0
 21 22  1  0
 22 23  2  0
 17 24  2  0
  2 25  1  0
 25 26  1  0
 26 27  2  0
 27 28  1  0
 28 29  2  0
 29 30  1  0
 30 31  2  3
 31 32  1  0
 29 33  1  0
 33 34  2  0
 11  6  1  0
 24 13  1  0
 34 26  1  0
 23 18  1  0
  3 35  1  0
  7 36  1  0
  8 37  1  0
  9 38  1  0
 10 39  1  0
 12 40  1  0
 12 41  1  0
 14 42  1  0
 15 43  1  0
 16 44  1  0
 19 45  1  0
 20 46  1  0
 22 47  1  0
 23 48  1  0
 24 49  1  0
 25 50  1  0
 27 51  1  0
 28 52  1  0
 30 53  1  0
 32 54  1  0
 33 55  1  0
 34 56  1  0
M  CHG  1  12   1
M  END
>  <UniqueID>  (86) 
78

>  <SMILES>  (86) 
O=C(NC(=O)c1ccccc1[NH2+]c1cccc(-c2ccncc2)c1)Nc1ccc(C=NO)cc1

>  <Energy>  (86) 
80.65289307885706

>  <Genealogy>  (86) 
O=C(NC(=O)c1ccccc1[NH2+]c1cccc(-c2ccncc2)c1)Nc1ccc(C=NO)cc1 (protonated)
O=C(NC(=O)c1ccccc1[NH2+]c1cccc(-c2ccncc2)c1)Nc1ccc(C=NO)cc1 (3D coordinates assigned)
O=C(NC(=O)c1ccccc1[NH2+]c1cccc(-c2ccncc2)c1)Nc1ccc(C=NO)cc1 (optimized conformer: 80.65289307885706 kcal/mol)

>  <smiles>  (86) 
O=C(NC(=O)c1ccccc1Nc1cccc(-c2ccncc2)c1)Nc1ccc(C=NO)cc1

>  <score_type>  (86) 
oracle

>  <origin>  (86) 
adg

>  <m_score__min__energy>  (86) 
-9.5600000000000005

>  <m_primary>  (86) 
energy

$$$$
86:0
     RDKit          3D

 62 65  0  0  0  0  0  0  0  0999 V2000
   59.2390   35.0480   45.8430 C   0  0  0  0  0  0  0  0  0  0  0  0
   58.7080   33.7210   45.3870 C   0  0  0  0  0  0  0  0  0  0  0  0
   58.3130   32.7540   46.3250 C   0  0  0  0  0  0  0  0  0  0  0  0
   57.7880   31.5320   45.8970 C   0  0  0  0  0  0  0  0  0  0  0  0
   57.6200   31.2740   44.5300 C   0  0  0  0  0  0  0  0  0  0  0  0
   56.9370   29.7390   43.9840 S   0  0  0  0  0  0  0  0  0  0  0  0
   55.7740   29.3870   44.8710 O   0  0  0  0  0  0  0  0  0  0  0  0
   56.4050   29.9120   42.5870 O   0  0  0  0  0  0  0  0  0  0  0  0
   58.1140   28.4360   43.9950 N   0  0  0  0  0  0  0  0  0  0  0  0
   57.7710   27.4530   42.9580 C   0  0  0  0  0  0  0  0  0  0  0  0
   58.1840   27.7640   45.3100 C   0  0  0  0  0  0  0  0  0  0  0  0
   58.9730   28.5690   46.3110 C   0  0  0  0  0  0  0  0  0  0  0  0
   60.0780   29.3230   45.8900 C   0  0  0  0  0  0  0  0  0  0  0  0
   60.8790   29.9780   46.8260 C   0  0  0  0  0  0  0  0  0  0  0  0
   60.5830   29.8930   48.1940 C   0  0  0  0  0  0  0  0  0  0  0  0
   61.5020   30.4620   49.2000 C   0  0  0  0  0  0  0  0  0  0  0  0
   62.6420   30.8610   48.8290 O   0  0  0  0  0  0  0  0  0  0  0  0
   61.1220   30.6080   50.5830 N   0  0  0  0  0  0  0  0  0  0  0  0
   60.1970   31.5940   51.0630 C   0  0  0  0  0  0  0  0  0  0  0  0
   59.2590   31.2410   52.0420 C   0  0  0  0  0  0  0  0  0  0  0  0
   58.3100   32.1690   52.4740 C   0  0  0  0  0  0  0  0  0  0  0  0
   58.3150   33.4670   51.9560 C   0  0  0  0  0  0  0  0  0  0  0  0
   59.2830   33.8470   51.0220 C   0  0  0  0  0  0  0  0  0  0  0  0
   60.2370   32.9170   50.5820 C   0  0  0  0  0  0  0  0  0  0  0  0
   61.2560   33.3240   49.6630 N   0  0  0  0  0  0  0  0  0  0  0  0
   62.5350   33.8020   50.1790 C   0  0  0  0  0  0  0  0  0  0  0  0
   63.6200   33.5720   49.1220 C   0  0  0  0  0  0  0  0  0  0  0  0
   63.2470   34.1610   47.8890 O   0  0  0  0  0  0  0  0  0  0  0  0
   62.0910   33.5180   47.3750 C   0  0  0  0  0  0  0  0  0  0  0  0
   60.8870   33.7200   48.3050 C   0  0  0  0  0  0  0  0  0  0  0  0
   59.4040   29.2500   48.6030 C   0  0  0  0  0  0  0  0  0  0  0  0
   58.6060   28.5840   47.6660 C   0  0  0  0  0  0  0  0  0  0  0  0
   58.0140   32.2390   43.5940 C   0  0  0  0  0  0  0  0  0  0  0  0
   58.5490   33.4570   44.0190 C   0  0  0  0  0  0  0  0  0  0  0  0
   59.2517   35.0797   46.9425 H   0  0  0  0  0  0  0  0  0  0  0  0
   60.2612   35.1850   45.4604 H   0  0  0  0  0  0  0  0  0  0  0  0
   58.5935   35.8523   45.4604 H   0  0  0  0  0  0  0  0  0  0  0  0
   58.4172   32.9591   47.4007 H   0  0  0  0  0  0  0  0  0  0  0  0
   57.5051   30.7687   46.6368 H   0  0  0  0  0  0  0  0  0  0  0  0
   57.4443   26.5167   43.4340 H   0  0  0  0  0  0  0  0  0  0  0  0
   56.9580   27.8491   42.3318 H   0  0  0  0  0  0  0  0  0  0  0  0
   58.6540   27.2573   42.3318 H   0  0  0  0  0  0  0  0  0  0  0  0
   57.1623   27.6237   45.6926 H   0  0  0  0  0  0  0  0  0  0  0  0
   58.6920   26.7980   45.1728 H   0  0  0  0  0  0  0  0  0  0  0  0
   60.3140   29.3983   44.8183 H   0  0  0  0  0  0  0  0  0  0  0  0
   61.7469   30.5639   46.4892 H   0  0  0  0  0  0  0  0  0  0  0  0
   59.2704   30.2286   52.4719 H   0  0  0  0  0  0  0  0  0  0  0  0
   57.5580   31.8786   53.2224 H   0  0  0  0  0  0  0  0  0  0  0  0
   57.5551   34.1915   52.2842 H   0  0  0  0  0  0  0  0  0  0  0  0
   59.2969   34.8754   50.6318 H   0  0  0  0  0  0  0  0  0  0  0  0
   62.4627   34.8761   50.4049 H   0  0  0  0  0  0  0  0  0  0  0  0
   62.7914   33.2548   51.0982 H   0  0  0  0  0  0  0  0  0  0  0  0
   64.5624   34.0221   49.4673 H   0  0  0  0  0  0  0  0  0  0  0  0
   63.7474   32.4895   48.9740 H   0  0  0  0  0  0  0  0  0  0  0  0
   61.8557   33.9385   46.3862 H   0  0  0  0  0  0  0  0  0  0  0  0
   62.2959   32.4400   47.2978 H   0  0  0  0  0  0  0  0  0  0  0  0
   60.5909   34.7794   48.2985 H   0  0  0  0  0  0  0  0  0  0  0  0
   60.0442   33.1046   47.9570 H   0  0  0  0  0  0  0  0  0  0  0  0
   59.1069   29.2697   49.6619 H   0  0  0  0  0  0  0  0  0  0  0  0
   57.6891   28.0711   47.9919 H   0  0  0  0  0  0  0  0  0  0  0  0
   57.9014   32.0363   42.5187 H   0  0  0  0  0  0  0  0  0  0  0  0
   58.8470   34.2127   43.2773 H   0  0  0  0  0  0  0  0  0  0  0  0
  1  2  1  0
  2  3  2  0
  3  4  1  0
  4  5  2  0
  5  6  1  0
  6  7  2  0
  6  8  2  0
  6  9  1  0
  9 10  1  0
  9 11  1  0
 11 12  1  0
 12 13  2  0
 13 14  1  0
 14 15  2  0
 15 16  1  0
 16 17  2  0
 16 18  1  0
 18 19  1  0
 19 20  2  0
 20 21  1  0
 21 22  2  0
 22 23  1  0
 23 24  2  0
 24 25  1  0
 25 26  1  0
 26 27  1  0
 27 28  1  0
 28 29  1  0
 29 30  1  0
 15 31  1  0
 31 32  2  0
  5 33  1  0
 33 34  2  0
 34  2  1  0
 32 12  1  0
 24 19  1  0
 30 25  1  0
  1 35  1  0
  1 36  1  0
  1 37  1  0
  3 38  1  0
  4 39  1  0
 10 40  1  0
 10 41  1  0
 10 42  1  0
 11 43  1  0
 11 44  1  0
 13 45  1  0
 14 46  1  0
 20 47  1  0
 21 48  1  0
 22 49  1  0
 23 50  1  0
 26 51  1  0
 26 52  1  0
 27 53  1  0
 27 54  1  0
 29 55  1  0
 29 56  1  0
 30 57  1  0
 30 58  1  0
 31 59  1  0
 32 60  1  0
 33 61  1  0
 34 62  1  0
M  CHG  1  18  -1
M  END
>  <UniqueID>  (87) 
79

>  <SMILES>  (87) 
Cc1ccc(S(=O)(=O)N(C)Cc2ccc(C(=O)[N-]c3ccccc3N3CCOCC3)cc2)cc1

>  <Energy>  (87) 
79.17601967059217

>  <Genealogy>  (87) 
Cc1ccc(S(=O)(=O)N(C)Cc2ccc(C(=O)[N-]c3ccccc3N3CCOCC3)cc2)cc1 (protonated)
Cc1ccc(S(=O)(=O)N(C)Cc2ccc(C(=O)[N-]c3ccccc3N3CCOCC3)cc2)cc1 (3D coordinates assigned)
Cc1ccc(S(=O)(=O)N(C)Cc2ccc(C(=O)[N-]c3ccccc3N3CCOCC3)cc2)cc1 (nonaromatic ring conformer: 79.17601967059217 kcal/mol)

>  <smiles>  (87) 
Cc1ccc(S(=O)(=O)N(C)Cc2ccc(C(=O)Nc3ccccc3N3CCOCC3)cc2)cc1

>  <score_type>  (87) 
oracle

>  <origin>  (87) 
adg

>  <m_score__min__energy>  (87) 
-10.289999999999999

>  <m_primary>  (87) 
energy

$$$$
87:0
     RDKit          3D

 50 53  0  0  0  0  0  0  0  0999 V2000
   60.3440   22.5480   45.4080 N   0  0  0  0  0  0  0  0  0  0  0  0
   59.2040   22.4120   44.8000 C   0  0  0  0  0  0  0  0  0  0  0  0
   58.0990   23.1310   44.9870 N   0  0  0  0  0  0  0  0  0  0  0  0
   57.1110   22.7170   44.1900 C   0  0  0  0  0  0  0  0  0  0  0  0
   55.4370   23.2700   43.9780 S   0  0  0  0  0  0  0  0  0  0  0  0
   54.7850   24.0790   45.4380 C   0  0  0  0  0  0  0  0  0  0  0  0
   55.5040   25.3380   45.6930 C   0  0  0  0  0  0  0  0  0  0  0  0
   54.7920   26.3530   45.9830 O   0  0  0  0  0  0  0  0  0  0  0  0
   56.8920   25.5260   45.6480 N   0  0  0  0  0  0  0  0  0  0  0  0
   57.5490   26.7640   45.9060 C   0  0  0  0  0  0  0  0  0  0  0  0
   57.7460   27.6650   44.8790 C   0  0  0  0  0  0  0  0  0  0  0  0
   58.3750   28.8810   45.0530 C   0  0  0  0  0  0  0  0  0  0  0  0
   58.8200   29.1800   46.3440 C   0  0  0  0  0  0  0  0  0  0  0  0
   59.4600   30.3950   46.5720 C   0  0  0  0  0  0  0  0  0  0  0  0
   59.6350   31.2180   45.6110 O   0  0  0  0  0  0  0  0  0  0  0  0
   59.8950   30.6980   47.8110 N   0  0  0  0  0  0  0  0  0  0  0  0
   60.5710   31.9670   48.0740 C   0  0  0  0  0  0  0  0  0  0  0  0
   59.5280   33.0270   48.4460 C   0  0  0  0  0  0  0  0  0  0  0  0
   58.9530   33.5430   47.1780 C   0  0  0  0  0  0  0  0  0  0  0  0
   59.7120   34.3620   46.3580 C   0  0  0  0  0  0  0  0  0  0  0  0
   59.1430   34.8190   45.1940 C   0  0  0  0  0  0  0  0  0  0  0  0
   57.8490   34.4810   44.8370 C   0  0  0  0  0  0  0  0  0  0  0  0
   57.0770   33.6600   45.6510 C   0  0  0  0  0  0  0  0  0  0  0  0
   57.6450   33.2010   46.8170 C   0  0  0  0  0  0  0  0  0  0  0  0
   59.6980   29.8140   48.8030 C   0  0  0  0  0  0  0  0  0  0  0  0
   60.1200   30.1310   49.9600 O   0  0  0  0  0  0  0  0  0  0  0  0
   59.0860   28.6310   48.6300 N   0  0  0  0  0  0  0  0  0  0  0  0
   58.6320   28.2890   47.3940 C   0  0  0  0  0  0  0  0  0  0  0  0
   57.9920   27.0700   47.1770 C   0  0  0  0  0  0  0  0  0  0  0  0
   57.6370   21.6860   43.4730 N   0  0  0  0  0  0  0  0  0  0  0  0
   58.9050   21.4970   43.8380 N   0  0  0  0  0  0  0  0  0  0  0  0
   61.2110   22.6410   44.8230 H   0  0  0  0  0  0  0  0  0  0  0  0
   53.7175   24.2961   45.2855 H   0  0  0  0  0  0  0  0  0  0  0  0
   54.9161   23.4124   46.3031 H   0  0  0  0  0  0  0  0  0  0  0  0
   57.5000   24.7200   45.4010 H   0  0  0  0  0  0  0  0  0  0  0  0
   57.3845   27.4013   43.8742 H   0  0  0  0  0  0  0  0  0  0  0  0
   58.5191   29.5808   44.2166 H   0  0  0  0  0  0  0  0  0  0  0  0
   61.2798   31.8407   48.9057 H   0  0  0  0  0  0  0  0  0  0  0  0
   61.1183   32.2870   47.1751 H   0  0  0  0  0  0  0  0  0  0  0  0
   58.7364   32.5764   49.0626 H   0  0  0  0  0  0  0  0  0  0  0  0
   59.9887   33.8410   49.0250 H   0  0  0  0  0  0  0  0  0  0  0  0
   60.7410   34.6385   46.6311 H   0  0  0  0  0  0  0  0  0  0  0  0
   59.7302   35.4696   44.5293 H   0  0  0  0  0  0  0  0  0  0  0  0
   57.4263   34.8668   43.8976 H   0  0  0  0  0  0  0  0  0  0  0  0
   56.0484   33.3870   45.3727 H   0  0  0  0  0  0  0  0  0  0  0  0
   57.0573   32.5500   47.4809 H   0  0  0  0  0  0  0  0  0  0  0  0
   58.9330   27.9460   49.4010 H   0  0  0  0  0  0  0  0  0  0  0  0
   57.8422   26.3626   48.0059 H   0  0  0  0  0  0  0  0  0  0  0  0
   57.1420   21.1090   42.7360 H   0  0  0  0  0  0  0  0  0  0  0  0
   59.5670   20.7640   43.4510 H   0  0  0  0  0  0  0  0  0  0  0  0
  1  2  2  3
  2  3  1  0
  3  4  2  0
  4  5  1  0
  5  6  1  0
  6  7  1  0
  7  8  2  0
  7  9  1  0
  9 10  1  0
 10 11  2  0
 11 12  1  0
 12 13  2  0
 13 14  1  0
 14 15  2  0
 14 16  1  0
 16 17  1  0
 17 18  1  0
 18 19  1  0
 19 20  2  0
 20 21  1  0
 21 22  2  0
 22 23  1  0
 23 24  2  0
 16 25  1  0
 25 26  2  0
 25 27  1  0
 27 28  1  0
 28 29  2  0
  4 30  1  0
 30 31  1  0
 31  2  1  0
 29 10  1  0
 28 13  1  0
 24 19  1  0
  1 32  1  0
  6 33  1  0
  6 34  1  0
  9 35  1  0
 11 36  1  0
 12 37  1  0
 17 38  1  0
 17 39  1  0
 18 40  1  0
 18 41  1  0
 20 42  1  0
 21 43  1  0
 22 44  1  0
 23 45  1  0
 24 46  1  0
 27 47  1  0
 29 48  1  0
 30 49  1  0
 31 50  1  0
M  END
>  <smiles>  (88) 
N=c1nc(SCC(=O)Nc2ccc3c(=O)n(CCc4ccccc4)c(=O)[nH]c3c2)[nH][nH]1

>  <score_type>  (88) 
oracle

>  <origin>  (88) 
adg

>  <m_score__min__energy>  (88) 
-10.07

>  <m_primary>  (88) 
energy

$$$$
88:0
     RDKit          3D

 43 45  0  0  0  0  0  0  0  0999 V2000
   65.2970   32.6580   49.9780 C   0  0  0  0  0  0  0  0  0  0  0  0
   64.1650   32.0710   49.3430 O   0  0  0  0  0  0  0  0  0  0  0  0
   63.2270   32.7830   48.5810 C   0  0  0  0  0  0  0  0  0  0  0  0
   63.4590   33.1400   47.2400 C   0  0  0  0  0  0  0  0  0  0  0  0
   62.4900   33.8490   46.5220 C   0  0  0  0  0  0  0  0  0  0  0  0
   61.2800   34.2140   47.1320 C   0  0  0  0  0  0  0  0  0  0  0  0
   60.2230   34.9540   46.3520 C   0  0  0  0  0  0  0  0  0  0  0  0
   58.8510   34.2480   46.4190 C   0  0  0  0  0  0  0  0  0  0  0  0
   58.7630   33.0440   45.5520 N   0  0  2  0  0  0  0  0  0  0  0  0
   57.7720   33.2010   44.4980 C   0  0  0  0  0  0  0  0  0  0  0  0
   57.0230   34.1690   44.5210 O   0  0  0  0  0  0  0  0  0  0  0  0
   57.6570   32.2340   43.3430 C   0  0  0  0  0  0  0  0  0  0  0  0
   57.0620   30.6480   43.8970 S   0  0  0  0  0  0  0  0  0  0  0  0
   55.8620   30.8230   44.7820 O   0  0  0  0  0  0  0  0  0  0  0  0
   56.6670   29.8320   42.6970 O   0  0  0  0  0  0  0  0  0  0  0  0
   58.3430   29.8420   44.7990 C   0  0  0  0  0  0  0  0  0  0  0  0
   58.7500   28.5490   44.4330 C   0  0  0  0  0  0  0  0  0  0  0  0
   59.7500   27.8930   45.1520 C   0  0  0  0  0  0  0  0  0  0  0  0
   60.3490   28.5180   46.2450 C   0  0  0  0  0  0  0  0  0  0  0  0
   59.9540   29.8040   46.6200 C   0  0  0  0  0  0  0  0  0  0  0  0
   58.9610   30.4850   45.8950 C   0  0  0  0  0  0  0  0  0  0  0  0
   58.5530   31.8410   46.3480 C   0  0  0  0  0  0  0  0  0  0  0  0
   58.1490   31.9530   47.5390 O   0  0  0  0  0  0  0  0  0  0  0  0
   61.0510   33.8560   48.4690 C   0  0  0  0  0  0  0  0  0  0  0  0
   62.0190   33.1480   49.1860 C   0  0  0  0  0  0  0  0  0  0  0  0
   65.1780   32.5963   51.0698 H   0  0  0  0  0  0  0  0  0  0  0  0
   66.2070   32.1182   49.6773 H   0  0  0  0  0  0  0  0  0  0  0  0
   65.3801   33.7128   49.6773 H   0  0  0  0  0  0  0  0  0  0  0  0
   64.4057   32.8606   46.7544 H   0  0  0  0  0  0  0  0  0  0  0  0
   62.6776   34.1220   45.4731 H   0  0  0  0  0  0  0  0  0  0  0  0
   60.1209   35.9678   46.7665 H   0  0  0  0  0  0  0  0  0  0  0  0
   60.5378   34.9835   45.2984 H   0  0  0  0  0  0  0  0  0  0  0  0
   58.6667   33.9425   47.4595 H   0  0  0  0  0  0  0  0  0  0  0  0
   58.0994   34.9646   46.0563 H   0  0  0  0  0  0  0  0  0  0  0  0
   59.6980   32.9130   45.1000 H   0  0  0  0  0  0  0  0  0  0  0  0
   56.9558   32.6422   42.6002 H   0  0  0  0  0  0  0  0  0  0  0  0
   58.6537   32.0990   42.8975 H   0  0  0  0  0  0  0  0  0  0  0  0
   58.2776   28.0500   43.5740 H   0  0  0  0  0  0  0  0  0  0  0  0
   60.0660   26.8818   44.8562 H   0  0  0  0  0  0  0  0  0  0  0  0
   61.1341   27.9973   46.8129 H   0  0  0  0  0  0  0  0  0  0  0  0
   60.4236   30.2876   47.4893 H   0  0  0  0  0  0  0  0  0  0  0  0
   60.1044   34.1341   48.9554 H   0  0  0  0  0  0  0  0  0  0  0  0
   61.8300   32.8752   50.2347 H   0  0  0  0  0  0  0  0  0  0  0  0
  1  2  1  0
  2  3  1  0
  3  4  2  0
  4  5  1  0
  5  6  2  0
  6  7  1  0
  7  8  1  0
  8  9  1  0
  9 10  1  0
 10 11  2  0
 10 12  1  0
 12 13  1  0
 13 14  2  0
 13 15  2  0
 13 16  1  0
 16 17  2  0
 17 18  1  0
 18 19  2  0
 19 20  1  0
 20 21  2  0
 21 22  1  0
 22 23  2  0
  6 24  1  0
 24 25  2  0
 25  3  1  0
 22  9  1  0
 21 16  1  0
  1 26  1  0
  1 27  1  0
  1 28  1  0
  4 29  1  0
  5 30  1  0
  7 31  1  0
  7 32  1  0
  8 33  1  0
  8 34  1  0
  9 35  1  6
 12 36  1  0
 12 37  1  0
 17 38  1  0
 18 39  1  0
 19 40  1  0
 20 41  1  0
 24 42  1  0
 25 43  1  0
M  CHG  1   9   1
M  END
>  <UniqueID>  (89) 
80

>  <SMILES>  (89) 
COc1ccc(CC[N@@H+]2C(=O)CS(=O)(=O)c3ccccc3C2=O)cc1

>  <Energy>  (89) 
59.769824994433506

>  <Genealogy>  (89) 
COc1ccc(CC[NH+]2C(=O)CS(=O)(=O)c3ccccc3C2=O)cc1 (protonated)
COc1ccc(CC[N@@H+]2C(=O)CS(=O)(=O)c3ccccc3C2=O)cc1 (chirality)
COc1ccc(CC[N@@H+]2C(=O)CS(=O)(=O)c3ccccc3C2=O)cc1 (3D coordinates assigned)
COc1ccc(CC[N@@H+]2C(=O)CS(=O)(=O)c3ccccc3C2=O)cc1 (nonaromatic ring conformer: 59.769824994433506 kcal/mol)

>  <smiles>  (89) 
COc1ccc(CCN2C(=O)CS(=O)(=O)c3ccccc3C2=O)cc1

>  <score_type>  (89) 
oracle

>  <origin>  (89) 
adg

>  <m_score__min__energy>  (89) 
-5.8300000000000001

>  <m_primary>  (89) 
energy

$$$$
