0:0
     RDKit          3D

 44 46  0  0  0  0  0  0  0  0999 V2000
   57.1770   34.1350   44.8910 C   0  0  0  0  0  0  0  0  0  0  0  0
   57.7270   33.2590   45.9830 C   0  0  0  0  0  0  0  0  0  0  0  0
   58.1240   33.8450   47.1960 C   0  0  0  0  0  0  0  0  0  0  0  0
   58.6320   33.0570   48.2310 C   0  0  0  0  0  0  0  0  0  0  0  0
   58.7400   31.6660   48.0730 C   0  0  0  0  0  0  0  0  0  0  0  0
   59.2340   30.8250   49.1250 N   0  0  0  0  0  0  0  0  0  0  0  0
   60.5310   30.9120   49.7320 C   0  0  0  0  0  0  0  0  0  0  0  0
   60.7760   30.2000   50.7410 O   0  0  0  0  0  0  0  0  0  0  0  0
   61.5790   31.8230   49.2210 C   0  0  0  0  0  0  0  0  0  0  0  0
   62.0400   32.8580   50.0520 C   0  0  0  0  0  0  0  0  0  0  0  0
   63.0500   33.7200   49.6170 C   0  0  0  0  0  0  0  0  0  0  0  0
   63.6010   33.5670   48.3440 C   0  0  0  0  0  0  0  0  0  0  0  0
   63.1340   32.5590   47.4970 C   0  0  0  0  0  0  0  0  0  0  0  0
   62.1240   31.6880   47.9210 C   0  0  0  0  0  0  0  0  0  0  0  0
   61.5180   30.5010   46.7690 Cl  0  0  0  0  0  0  0  0  0  0  0  0
   58.3690   31.0820   46.8590 C   0  0  0  0  0  0  0  0  0  0  0  0
   57.8290   31.8590   45.8270 C   0  0  0  0  0  0  0  0  0  0  0  0
   57.3600   31.2010   44.6480 N   0  0  0  0  0  0  0  0  0  0  0  0
   56.6860   29.6080   44.7190 S   0  0  0  0  0  0  0  0  0  0  0  0
   56.9920   28.8910   43.4340 O   0  0  0  0  0  0  0  0  0  0  0  0
   55.2000   29.7020   44.9180 O   0  0  0  0  0  0  0  0  0  0  0  0
   57.4090   28.7520   46.0420 N   0  0  0  0  0  0  0  0  0  0  0  0
   57.7350   27.3570   46.0560 C   0  0  0  0  0  0  0  0  0  0  0  0
   59.0670   26.9040   46.0910 C   0  0  0  0  0  0  0  0  0  0  0  0
   59.3460   25.5340   46.1050 C   0  0  0  0  0  0  0  0  0  0  0  0
   58.3020   24.6070   46.0820 C   0  0  0  0  0  0  0  0  0  0  0  0
   56.9770   25.0470   46.0480 C   0  0  0  0  0  0  0  0  0  0  0  0
   56.6900   26.4190   46.0350 C   0  0  0  0  0  0  0  0  0  0  0  0
   55.3660   26.8590   45.9980 O   0  0  0  0  0  0  0  0  0  0  0  0
   56.6426   34.9862   45.3380 H   0  0  0  0  0  0  0  0  0  0  0  0
   58.0038   34.5073   44.2682 H   0  0  0  0  0  0  0  0  0  0  0  0
   56.4825   33.5521   44.2682 H   0  0  0  0  0  0  0  0  0  0  0  0
   58.0341   34.9329   47.3319 H   0  0  0  0  0  0  0  0  0  0  0  0
   58.9487   33.5277   49.1734 H   0  0  0  0  0  0  0  0  0  0  0  0
   61.6025   32.9906   51.0525 H   0  0  0  0  0  0  0  0  0  0  0  0
   63.4114   34.5206   50.2791 H   0  0  0  0  0  0  0  0  0  0  0  0
   64.4032   34.2402   48.0075 H   0  0  0  0  0  0  0  0  0  0  0  0
   63.5630   32.4492   46.4901 H   0  0  0  0  0  0  0  0  0  0  0  0
   58.5026   30.0000   46.7125 H   0  0  0  0  0  0  0  0  0  0  0  0
   59.8923   27.6310   46.1074 H   0  0  0  0  0  0  0  0  0  0  0  0
   60.3891   25.1860   46.1342 H   0  0  0  0  0  0  0  0  0  0  0  0
   58.5233   23.5295   46.0907 H   0  0  0  0  0  0  0  0  0  0  0  0
   56.1562   24.3148   46.0314 H   0  0  0  0  0  0  0  0  0  0  0  0
   55.1360   27.8450   45.9670 H   0  0  0  0  0  0  0  0  0  0  0  0
  1  2  1  0
  2  3  2  0
  3  4  1  0
  4  5  2  0
  5  6  1  0
  6  7  1  0
  7  8  2  0
  7  9  1  0
  9 10  2  0
 10 11  1  0
 11 12  2  0
 12 13  1  0
 13 14  2  0
 14 15  1  0
  5 16  1  0
 16 17  2  0
 17 18  1  0
 18 19  1  0
 19 20  2  0
 19 21  2  0
 19 22  1  0
 22 23  1  0
 23 24  2  0
 24 25  1  0
 25 26  2  0
 26 27  1  0
 27 28  2  0
 28 29  1  0
 17  2  1  0
 28 23  1  0
 14  9  1  0
  1 30  1  0
  1 31  1  0
  1 32  1  0
  3 33  1  0
  4 34  1  0
 10 35  1  0
 11 36  1  0
 12 37  1  0
 13 38  1  0
 16 39  1  0
 24 40  1  0
 25 41  1  0
 26 42  1  0
 27 43  1  0
 29 44  1  0
M  CHG  3   6  -1  18  -1  22  -1
M  END
>  <UniqueID>  (1) 
1

>  <SMILES>  (1) 
Cc1ccc([N-]C(=O)c2ccccc2Cl)cc1[N-]S(=O)(=O)[N-]c1ccccc1O

>  <Energy>  (1) 
65.92091734034369

>  <Genealogy>  (1) 
Cc1ccc([N-]C(=O)c2ccccc2Cl)cc1[N-]S(=O)(=O)[N-]c1ccccc1O (protonated)
Cc1ccc([N-]C(=O)c2ccccc2Cl)cc1[N-]S(=O)(=O)[N-]c1ccccc1O (3D coordinates assigned)
Cc1ccc([N-]C(=O)c2ccccc2Cl)cc1[N-]S(=O)(=O)[N-]c1ccccc1O (optimized conformer: 65.92091734034369 kcal/mol)

>  <smiles>  (1) 
Cc1ccc(NC(=O)c2ccccc2Cl)cc1NS(=O)(=O)Nc1ccccc1O

>  <score_type>  (1) 
oracle

>  <origin>  (1) 
adg

>  <m_score__min__energy>  (1) 
-14.539999999999999

>  <m_primary>  (1) 
energy

$$$$
1:0
     RDKit          3D

 60 64  0  0  0  0  0  0  0  0999 V2000
   56.8550   20.8200   42.9870 C   0  0  0  0  0  0  0  0  0  0  0  0
   55.8980   21.8230   43.3130 O   0  0  0  0  0  0  0  0  0  0  0  0
   56.2110   23.0470   43.9240 C   0  0  0  0  0  0  0  0  0  0  0  0
   55.7000   23.3050   45.1990 C   0  0  0  0  0  0  0  0  0  0  0  0
   56.0020   24.5100   45.8340 C   0  0  0  0  0  0  0  0  0  0  0  0
   56.7880   25.4280   45.2150 N   0  0  0  0  0  0  0  0  0  0  0  0
   57.2970   25.2190   43.9670 C   0  0  0  0  0  0  0  0  0  0  0  0
   58.0620   26.1030   43.3950 N   0  0  0  0  0  0  0  0  0  0  0  0
   57.9560   27.5300   43.5290 C   0  0  0  0  0  0  0  0  0  0  0  0
   57.3760   28.1770   42.6170 O   0  0  0  0  0  0  0  0  0  0  0  0
   58.4500   28.2510   44.7260 C   0  0  0  0  0  0  0  0  0  0  0  0
   59.4350   27.6840   45.5520 C   0  0  0  0  0  0  0  0  0  0  0  0
   59.8860   28.3640   46.6870 C   0  0  0  0  0  0  0  0  0  0  0  0
   59.3460   29.6140   47.0270 C   0  0  0  0  0  0  0  0  0  0  0  0
   59.8390   30.3390   48.2200 C   0  0  0  0  0  0  0  0  0  0  0  0
   59.0220   30.6640   49.1240 O   0  0  0  0  0  0  0  0  0  0  0  0
   61.2290   30.6860   48.3640 N   0  0  0  0  0  0  0  0  0  0  0  0
   61.8850   30.5860   49.6720 C   0  0  0  0  0  0  0  0  0  0  0  0
   62.5100   31.9400   50.0250 C   0  0  0  0  0  0  0  0  0  0  0  0
   63.3880   32.4940   48.9540 N   0  0  0  0  0  0  0  0  0  0  0  0
   63.1500   33.9360   48.7320 C   0  0  0  0  0  0  0  0  0  0  0  0
   61.7080   34.1890   48.4180 C   0  0  0  0  0  0  0  0  0  0  0  0
   61.1930   34.2130   47.1770 N   0  0  0  0  0  0  0  0  0  0  0  0
   59.8930   34.4800   47.4030 C   0  0  0  0  0  0  0  0  0  0  0  0
   58.8800   34.6330   46.3020 C   0  0  0  0  0  0  0  0  0  0  0  0
   58.8260   33.5210   45.2640 C   0  0  0  0  0  0  0  0  0  0  0  0
   57.7570   33.6090   46.3430 C   0  0  0  0  0  0  0  0  0  0  0  0
   59.6350   34.6130   48.7220 N   0  0  0  0  0  0  0  0  0  0  0  0
   60.7790   34.4260   49.3130 O   0  0  0  0  0  0  0  0  0  0  0  0
   63.3610   31.7360   47.6790 C   0  0  0  0  0  0  0  0  0  0  0  0
   61.9370   31.3470   47.2610 C   0  0  0  0  0  0  0  0  0  0  0  0
   58.3630   30.1820   46.2010 C   0  0  0  0  0  0  0  0  0  0  0  0
   57.9110   29.5020   45.0680 C   0  0  0  0  0  0  0  0  0  0  0  0
   57.0200   24.0180   43.3030 C   0  0  0  0  0  0  0  0  0  0  0  0
   57.2653   20.3900   43.9126 H   0  0  0  0  0  0  0  0  0  0  0  0
   56.3696   20.0276   42.3983 H   0  0  0  0  0  0  0  0  0  0  0  0
   57.6693   21.2676   42.3983 H   0  0  0  0  0  0  0  0  0  0  0  0
   55.0626   22.5613   45.6996 H   0  0  0  0  0  0  0  0  0  0  0  0
   55.6027   24.7167   46.8379 H   0  0  0  0  0  0  0  0  0  0  0  0
   59.8543   26.6978   45.3037 H   0  0  0  0  0  0  0  0  0  0  0  0
   60.6687   27.9168   47.3173 H   0  0  0  0  0  0  0  0  0  0  0  0
   61.1427   30.3126   50.4363 H   0  0  0  0  0  0  0  0  0  0  0  0
   62.6685   29.8147   49.6354 H   0  0  0  0  0  0  0  0  0  0  0  0
   61.6985   32.6580   50.2144 H   0  0  0  0  0  0  0  0  0  0  0  0
   63.1445   31.7798   50.9092 H   0  0  0  0  0  0  0  0  0  0  0  0
   63.4253   34.4921   49.6403 H   0  0  0  0  0  0  0  0  0  0  0  0
   63.7624   34.2701   47.8815 H   0  0  0  0  0  0  0  0  0  0  0  0
   61.6830   34.0700   46.2650 H   0  0  0  0  0  0  0  0  0  0  0  0
   58.9532   35.7291   46.2459 H   0  0  0  0  0  0  0  0  0  0  0  0
   58.5738   33.7554   44.2193 H   0  0  0  0  0  0  0  0  0  0  0  0
   59.5230   32.7423   44.9208 H   0  0  0  0  0  0  0  0  0  0  0  0
   56.7316   33.9065   46.0782 H   0  0  0  0  0  0  0  0  0  0  0  0
   57.3609   32.9195   47.1031 H   0  0  0  0  0  0  0  0  0  0  0  0
   63.8038   32.3591   46.8880 H   0  0  0  0  0  0  0  0  0  0  0  0
   63.9326   30.8080   47.8279 H   0  0  0  0  0  0  0  0  0  0  0  0
   61.3861   32.2542   46.9718 H   0  0  0  0  0  0  0  0  0  0  0  0
   61.9982   30.6480   46.4139 H   0  0  0  0  0  0  0  0  0  0  0  0
   57.9460   31.1695   46.4480 H   0  0  0  0  0  0  0  0  0  0  0  0
   57.1273   29.9494   44.4390 H   0  0  0  0  0  0  0  0  0  0  0  0
   57.4327   23.8336   42.3002 H   0  0  0  0  0  0  0  0  0  0  0  0
  1  2  1  0
  2  3  1  0
  3  4  1  0
  4  5  2  0
  5  6  1  0
  6  7  1  0
  7  8  2  3
  8  9  1  0
  9 10  2  0
  9 11  1  0
 11 12  2  0
 12 13  1  0
 13 14  2  0
 14 15  1  0
 15 16  2  0
 15 17  1  0
 17 18  1  0
 18 19  1  0
 19 20  1  0
 20 21  1  0
 21 22  1  0
 22 23  2  0
 23 24  1  0
 24 25  1  0
 25 26  1  0
 26 27  1  0
 24 28  2  0
 28 29  1  0
 20 30  1  0
 30 31  1  0
 14 32  1  0
 32 33  2  0
  7 34  1  0
 34  3  2  0
 33 11  1  0
 31 17  1  0
 29 22  1  0
 27 25  1  0
  1 35  1  0
  1 36  1  0
  1 37  1  0
  4 38  1  0
  5 39  1  0
 12 40  1  0
 13 41  1  0
 18 42  1  0
 18 43  1  0
 19 44  1  0
 19 45  1  0
 21 46  1  0
 21 47  1  0
 23 48  1  0
 25 49  1  0
 26 50  1  0
 26 51  1  0
 27 52  1  0
 27 53  1  0
 30 54  1  0
 30 55  1  0
 31 56  1  0
 31 57  1  0
 32 58  1  0
 33 59  1  0
 34 60  1  0
M  CHG  2   6  -1  23   1
M  END
>  <UniqueID>  (2) 
2

>  <SMILES>  (2) 
COc1cc[n-]c(=NC(=O)c2ccc(C(=O)N3CCN(Cc4[nH+]c(C5CC5)no4)CC3)cc2)c1

>  <Energy>  (2) 
384.30809184146943

>  <Genealogy>  (2) 
COc1cc[n-]c(=NC(=O)c2ccc(C(=O)N3CCN(Cc4[nH+]c(C5CC5)no4)CC3)cc2)c1 (protonated)
COc1cc[n-]c(=NC(=O)c2ccc(C(=O)N3CCN(Cc4[nH+]c(C5CC5)no4)CC3)cc2)c1 (3D coordinates assigned)
COc1cc[n-]c(=NC(=O)c2ccc(C(=O)N3CCN(Cc4[nH+]c(C5CC5)no4)CC3)cc2)c1 (nonaromatic ring conformer: 384.30809184146943 kcal/mol)

>  <smiles>  (2) 
COc1cc[nH]c(=NC(=O)c2ccc(C(=O)N3CCN(Cc4nc(C5CC5)no4)CC3)cc2)c1

>  <score_type>  (2) 
oracle

>  <origin>  (2) 
adg

>  <m_score__min__energy>  (2) 
-10.140000000000001

>  <m_primary>  (2) 
energy

$$$$
2:0
     RDKit          3D

 56 59  0  0  0  0  0  0  0  0999 V2000
   62.0179   33.9381   45.6911 H   0  0  0  0  0  0  0  0  0  0  0  0
   61.5510   33.9240   46.6870 C   0  0  0  0  0  0  0  0  0  0  0  0
   62.2660   33.4100   47.7830 C   0  0  0  0  0  0  0  0  0  0  0  0
   63.6570   32.8570   47.5960 C   0  0  0  0  0  0  0  0  0  0  0  0
   64.5050   33.4370   48.5220 F   0  0  0  0  0  0  0  0  0  0  0  0
   63.6690   31.4850   47.7720 F   0  0  0  0  0  0  0  0  0  0  0  0
   64.1260   33.1330   46.3240 F   0  0  0  0  0  0  0  0  0  0  0  0
   61.6360   33.3320   49.0360 C   0  0  0  0  0  0  0  0  0  0  0  0
   62.1815   32.9136   49.8947 H   0  0  0  0  0  0  0  0  0  0  0  0
   60.3190   33.7820   49.2030 C   0  0  0  0  0  0  0  0  0  0  0  0
   59.6740   33.7570   50.5620 C   0  0  0  0  0  0  0  0  0  0  0  0
   58.8203   34.4506   50.5714 H   0  0  0  0  0  0  0  0  0  0  0  0
   60.4150   34.0617   51.3157 H   0  0  0  0  0  0  0  0  0  0  0  0
   59.2020   32.4040   50.8760 N   0  0  0  0  0  0  0  0  0  0  0  0
   60.0070   31.2840   50.4760 C   0  0  0  0  0  0  0  0  0  0  0  0
   60.9830   30.7850   51.3600 C   0  0  0  0  0  0  0  0  0  0  0  0
   61.2155   31.3331   52.2850 H   0  0  0  0  0  0  0  0  0  0  0  0
   61.6630   29.5870   51.0650 C   0  0  0  0  0  0  0  0  0  0  0  0
   62.6500   29.0240   52.0360 C   0  0  0  0  0  0  0  0  0  0  0  0
   62.3069   29.2197   53.0626 H   0  0  0  0  0  0  0  0  0  0  0  0
   62.7397   27.9388   51.8800 H   0  0  0  0  0  0  0  0  0  0  0  0
   63.6298   29.4991   51.8800 H   0  0  0  0  0  0  0  0  0  0  0  0
   61.3650   28.8980   49.9280 N   0  0  0  0  0  0  0  0  0  0  0  0
   60.4430   29.3860   49.0650 C   0  0  0  0  0  0  0  0  0  0  0  0
   59.9480   28.6630   47.6400 S   0  0  0  0  0  0  0  0  0  0  0  0
   58.8410   29.8780   47.2370 C   0  0  0  0  0  0  0  0  0  0  0  0
   58.0690   29.8960   45.9790 C   0  0  0  0  0  0  0  0  0  0  0  0
   57.7030   30.9960   45.4880 O   0  0  0  0  0  0  0  0  0  0  0  0
   57.8220   28.6930   45.2350 N   0  0  0  0  0  0  0  0  0  0  0  0
   57.2350   27.6220   45.6840 C   0  0  0  0  0  0  0  0  0  0  0  0
   55.8980   27.4680   45.6720 N   0  0  0  0  0  0  0  0  0  0  0  0
   55.6330   26.3000   46.2340 N   0  0  0  0  0  0  0  0  0  0  0  0
   54.6680   25.9240   46.3740 H   0  0  0  0  0  0  0  0  0  0  0  0
   56.7830   25.7070   46.6040 C   0  0  0  0  0  0  0  0  0  0  0  0
   56.8660   24.4210   47.3560 C   0  0  0  0  0  0  0  0  0  0  0  0
   56.8527   24.6266   48.4365 H   0  0  0  0  0  0  0  0  0  0  0  0
   56.0070   23.7863   47.0929 H   0  0  0  0  0  0  0  0  0  0  0  0
   57.7995   23.9020   47.0929 H   0  0  0  0  0  0  0  0  0  0  0  0
   57.8440   26.5300   46.2870 C   0  0  0  0  0  0  0  0  0  0  0  0
   58.9157   26.3613   46.4686 H   0  0  0  0  0  0  0  0  0  0  0  0
   58.8670   30.8750   48.2270 C   0  0  0  0  0  0  0  0  0  0  0  0
   58.0850   32.0740   48.1460 N   0  0  0  0  0  0  0  0  0  0  0  0
   58.0060   32.7290   48.9520 H   0  0  0  0  0  0  0  0  0  0  0  0
   57.6360   32.3620   47.2500 H   0  0  0  0  0  0  0  0  0  0  0  0
   59.7630   30.5760   49.2820 C   0  0  0  0  0  0  0  0  0  0  0  0
   57.7860   32.1910   51.1750 C   0  0  0  0  0  0  0  0  0  0  0  0
   57.6407   32.1691   52.2651 H   0  0  0  0  0  0  0  0  0  0  0  0
   57.1927   33.0100   50.7423 H   0  0  0  0  0  0  0  0  0  0  0  0
   57.4599   31.2337   50.7423 H   0  0  0  0  0  0  0  0  0  0  0  0
   59.6300   34.3230   48.1070 C   0  0  0  0  0  0  0  0  0  0  0  0
   58.5957   34.6749   48.2345 H   0  0  0  0  0  0  0  0  0  0  0  0
   60.2460   34.4200   46.8500 C   0  0  0  0  0  0  0  0  0  0  0  0
   59.4770   34.9690   45.6750 C   0  0  0  0  0  0  0  0  0  0  0  0
   59.7990   36.3010   45.5000 F   0  0  0  0  0  0  0  0  0  0  0  0
   59.7940   34.2730   44.5220 F   0  0  0  0  0  0  0  0  0  0  0  0
   58.1130   34.8590   45.8820 F   0  0  0  0  0  0  0  0  0  0  0  0
  1  2  1  0
  2  3  2  0
  3  4  1  0
  4  5  1  0
  4  6  1  0
  4  7  1  0
  3  8  1  0
  8  9  1  0
  8 10  2  0
 10 11  1  0
 11 12  1  0
 11 13  1  0
 11 14  1  0
 14 15  1  0
 15 16  2  0
 16 17  1  0
 16 18  1  0
 18 19  1  0
 19 20  1  0
 19 21  1  0
 19 22  1  0
 18 23  2  0
 23 24  1  0
 24 25  1  0
 25 26  1  0
 26 27  1  0
 27 28  2  0
 27 29  1  0
 29 30  2  0
 30 31  1  0
 31 32  1  0
 32 33  1  0
 32 34  1  0
 34 35  1  0
 35 36  1  0
 35 37  1  0
 35 38  1  0
 34 39  2  0
 39 40  1  0
 26 41  2  0
 41 42  1  0
 42 43  1  0
 42 44  1  0
 41 45  1  0
 14 46  1  0
 46 47  1  0
 46 48  1  0
 46 49  1  0
 10 50  1  0
 50 51  1  0
 50 52  2  0
 52 53  1  0
 53 54  1  0
 53 55  1  0
 53 56  1  0
 52  2  1  0
 45 15  1  0
 45 24  2  0
 39 30  1  0
M  CHG  1  31  -1
M  END
>  <UniqueID>  (3) 
3

>  <SMILES>  (3) 
Cc1cc(N(C)Cc2cc(C(F)(F)F)cc(C(F)(F)F)c2)c2c(N)c(C(=O)/N=c3\cc(C)[nH][n-]3)sc2n1

>  <Energy>  (3) 
133.96356347430364

>  <Genealogy>  (3) 
Cc1cc(N(C)Cc2cc(C(F)(F)F)cc(C(F)(F)F)c2)c2c(N)c(C(=O)N=c3cc(C)[nH][n-]3)sc2n1 (protonated)
Cc1cc(N(C)Cc2cc(C(F)(F)F)cc(C(F)(F)F)c2)c2c(N)c(C(=O)/N=c3\cc(C)[nH][n-]3)sc2n1 (cis-trans isomerization)
Cc1cc(N(C)Cc2cc(C(F)(F)F)cc(C(F)(F)F)c2)c2c(N)c(C(=O)/N=c3\cc(C)[nH][n-]3)sc2n1 (3D coordinates assigned)
Cc1cc(N(C)Cc2cc(C(F)(F)F)cc(C(F)(F)F)c2)c2c(N)c(C(=O)/N=c3\cc(C)[nH][n-]3)sc2n1 (optimized conformer: 133.96356347430364 kcal/mol)

>  <smiles>  (3) 
Cc1cc(N(C)Cc2cc(C(F)(F)F)cc(C(F)(F)F)c2)c2c(N)c(C(=O)N=c3cc(C)[nH][nH]3)sc2n1

>  <score_type>  (3) 
oracle

>  <origin>  (3) 
adg

>  <m_score__min__energy>  (3) 
-9.4299999999999997

>  <m_primary>  (3) 
energy

$$$$
3:0
     RDKit          3D

 48 49  0  0  0  0  0  0  0  0999 V2000
   60.4650   30.5040   46.4110 C   0  0  0  0  0  0  0  0  0  0  0  0
   59.4820   29.8950   45.5800 O   0  0  0  0  0  0  0  0  0  0  0  0
   58.9620   28.6040   45.7780 C   0  0  0  0  0  0  0  0  0  0  0  0
   59.7930   27.4840   45.9760 C   0  0  0  0  0  0  0  0  0  0  0  0
   59.2380   26.2120   46.1290 C   0  0  0  0  0  0  0  0  0  0  0  0
   57.8530   26.0420   46.0850 C   0  0  0  0  0  0  0  0  0  0  0  0
   57.1610   24.4350   46.2400 Cl  0  0  0  0  0  0  0  0  0  0  0  0
   57.0190   27.1490   45.9040 C   0  0  0  0  0  0  0  0  0  0  0  0
   57.5670   28.4370   45.7690 C   0  0  0  0  0  0  0  0  0  0  0  0
   56.7380   29.5830   45.5330 N   0  0  0  0  0  0  0  0  0  0  0  0
   55.9740   29.8540   44.3510 C   0  0  0  0  0  0  0  0  0  0  0  0
   54.8330   29.3410   44.2080 O   0  0  0  0  0  0  0  0  0  0  0  0
   56.4880   30.7880   43.2750 C   0  0  0  0  0  0  0  0  0  0  0  0
   57.7670   31.4830   43.5860 N   0  0  1  0  0  0  0  0  0  0  0  0
   58.3660   32.1020   42.3830 C   0  0  0  0  0  0  0  0  0  0  0  0
   57.6660   32.4310   44.6840 C   0  0  0  0  0  0  0  0  0  0  0  0
   56.6180   32.4880   45.3870 O   0  0  0  0  0  0  0  0  0  0  0  0
   58.8370   33.2530   45.0720 C   0  0  0  0  0  0  0  0  0  0  0  0
   59.0060   33.8100   46.2790 C   0  0  0  0  0  0  0  0  0  0  0  0
   60.2650   33.7380   47.0420 C   0  0  0  0  0  0  0  0  0  0  0  0
   61.4610   33.8350   46.3110 C   0  0  0  0  0  0  0  0  0  0  0  0
   62.6940   33.8290   46.9620 C   0  0  0  0  0  0  0  0  0  0  0  0
   62.7500   33.7520   48.3510 C   0  0  0  0  0  0  0  0  0  0  0  0
   61.5720   33.6410   49.0920 C   0  0  0  0  0  0  0  0  0  0  0  0
   60.3210   33.6050   48.4590 C   0  0  0  0  0  0  0  0  0  0  0  0
   59.2020   33.4460   49.2990 O   0  0  0  0  0  0  0  0  0  0  0  0
   58.9000   32.3220   50.1220 C   0  0  0  0  0  0  0  0  0  0  0  0
   57.8340   32.6130   50.9580 F   0  0  0  0  0  0  0  0  0  0  0  0
   58.5480   31.2600   49.3120 F   0  0  0  0  0  0  0  0  0  0  0  0
   60.2036   30.3421   47.4672 H   0  0  0  0  0  0  0  0  0  0  0  0
   61.4484   30.0567   46.2039 H   0  0  0  0  0  0  0  0  0  0  0  0
   60.5024   31.5837   46.2039 H   0  0  0  0  0  0  0  0  0  0  0  0
   60.8850   27.6122   46.0103 H   0  0  0  0  0  0  0  0  0  0  0  0
   59.8932   25.3422   46.2845 H   0  0  0  0  0  0  0  0  0  0  0  0
   55.9282   27.0119   45.8670 H   0  0  0  0  0  0  0  0  0  0  0  0
   56.6368   30.1990   42.3580 H   0  0  0  0  0  0  0  0  0  0  0  0
   55.7308   31.5798   43.1760 H   0  0  0  0  0  0  0  0  0  0  0  0
   58.4320   30.7370   43.9030 H   0  0  0  0  0  0  0  0  0  0  0  0
   59.1008   32.8614   42.6886 H   0  0  0  0  0  0  0  0  0  0  0  0
   58.8667   31.3279   41.7830 H   0  0  0  0  0  0  0  0  0  0  0  0
   57.5758   32.5770   41.7830 H   0  0  0  0  0  0  0  0  0  0  0  0
   59.6207   33.4169   44.3177 H   0  0  0  0  0  0  0  0  0  0  0  0
   58.1583   34.3508   46.7250 H   0  0  0  0  0  0  0  0  0  0  0  0
   61.4242   33.9165   45.2146 H   0  0  0  0  0  0  0  0  0  0  0  0
   63.6240   33.8852   46.3772 H   0  0  0  0  0  0  0  0  0  0  0  0
   63.7224   33.7786   48.8646 H   0  0  0  0  0  0  0  0  0  0  0  0
   61.6258   33.5809   50.1890 H   0  0  0  0  0  0  0  0  0  0  0  0
   59.7819   32.0727   50.7304 H   0  0  0  0  0  0  0  0  0  0  0  0
  1  2  1  0
  2  3  1  0
  3  4  2  0
  4  5  1  0
  5  6  2  0
  6  7  1  0
  6  8  1  0
  8  9  2  0
  9 10  1  0
 10 11  1  0
 11 12  2  0
 11 13  1  0
 13 14  1  0
 14 15  1  0
 14 16  1  0
 16 17  2  0
 16 18  1  0
 18 19  2  3
 19 20  1  0
 20 21  2  0
 21 22  1  0
 22 23  2  0
 23 24  1  0
 24 25  2  0
 25 26  1  0
 26 27  1  0
 27 28  1  0
 27 29  1  0
  9  3  1  0
 25 20  1  0
  1 30  1  0
  1 31  1  0
  1 32  1  0
  4 33  1  0
  5 34  1  0
  8 35  1  0
 13 36  1  0
 13 37  1  0
 14 38  1  1
 15 39  1  0
 15 40  1  0
 15 41  1  0
 18 42  1  0
 19 43  1  0
 21 44  1  0
 22 45  1  0
 23 46  1  0
 24 47  1  0
 27 48  1  0
M  CHG  2  10  -1  14   1
M  END
>  <UniqueID>  (4) 
4

>  <SMILES>  (4) 
COc1ccc(Cl)cc1[N-]C(=O)C[N@@H+](C)C(=O)C=Cc1ccccc1OC(F)F

>  <Energy>  (4) 
70.30976749589342

>  <Genealogy>  (4) 
COc1ccc(Cl)cc1[N-]C(=O)C[NH+](C)C(=O)C=Cc1ccccc1OC(F)F (protonated)
COc1ccc(Cl)cc1[N-]C(=O)C[N@@H+](C)C(=O)C=Cc1ccccc1OC(F)F (chirality)
COc1ccc(Cl)cc1[N-]C(=O)C[N@@H+](C)C(=O)C=Cc1ccccc1OC(F)F (3D coordinates assigned)
COc1ccc(Cl)cc1[N-]C(=O)C[N@@H+](C)C(=O)C=Cc1ccccc1OC(F)F (optimized conformer: 70.30976749589342 kcal/mol)

>  <smiles>  (4) 
COc1ccc(Cl)cc1NC(=O)CN(C)C(=O)C=Cc1ccccc1OC(F)F

>  <score_type>  (4) 
oracle

>  <origin>  (4) 
adg

>  <m_score__min__energy>  (4) 
-7.9000000000000004

>  <m_primary>  (4) 
energy

$$$$
4:0
     RDKit          3D

 38 39  0  0  0  0  0  0  0  0999 V2000
   62.0185   30.9689   47.5645 H   0  0  0  0  0  0  0  0  0  0  0  0
   61.2050   31.5390   47.0920 C   0  0  0  0  0  0  0  0  0  0  0  0
   60.0570   30.8780   46.6480 C   0  0  0  0  0  0  0  0  0  0  0  0
   59.9713   29.7886   46.7736 H   0  0  0  0  0  0  0  0  0  0  0  0
   59.0090   31.5960   46.0410 C   0  0  0  0  0  0  0  0  0  0  0  0
   57.7800   30.9000   45.5930 C   0  0  0  0  0  0  0  0  0  0  0  0
   56.9060   31.5260   44.9320 O   0  0  0  0  0  0  0  0  0  0  0  0
   57.5670   29.5250   45.9430 N   0  0  0  0  0  0  0  0  0  0  0  0
   56.7330   28.6940   45.3840 C   0  0  0  0  0  0  0  0  0  0  0  0
   55.4690   29.1850   44.9380 N   0  0  0  0  0  0  0  0  0  0  0  0
   54.7780   28.5390   44.4970 H   0  0  0  0  0  0  0  0  0  0  0  0
   55.2160   30.1910   45.0600 H   0  0  0  0  0  0  0  0  0  0  0  0
   57.0380   27.3010   45.2130 N   0  0  0  0  0  0  0  0  0  0  0  0
   56.6670   26.8350   44.3550 H   0  0  0  0  0  0  0  0  0  0  0  0
   57.3930   26.4290   46.3350 C   0  0  0  0  0  0  0  0  0  0  0  0
   58.1772   26.9162   46.9330 H   0  0  0  0  0  0  0  0  0  0  0  0
   56.4906   26.2583   46.9405 H   0  0  0  0  0  0  0  0  0  0  0  0
   57.9110   25.0690   45.8440 C   0  0  0  0  0  0  0  0  0  0  0  0
   58.1613   25.1562   44.7764 H   0  0  0  0  0  0  0  0  0  0  0  0
   58.7878   24.8151   46.4578 H   0  0  0  0  0  0  0  0  0  0  0  0
   56.8940   23.9300   46.0140 C   0  0  0  0  0  0  0  0  0  0  0  0
   57.0676   23.4375   46.9822 H   0  0  0  0  0  0  0  0  0  0  0  0
   55.8829   24.3610   45.9692 H   0  0  0  0  0  0  0  0  0  0  0  0
   57.0170   22.9360   44.9460 N   0  0  0  0  0  0  0  0  0  0  0  0
   56.5600   23.0450   43.6830 C   0  0  0  0  0  0  0  0  0  0  0  0
   56.0331   23.9128   43.2594 H   0  0  0  0  0  0  0  0  0  0  0  0
   56.8680   21.8790   43.0140 C   0  0  0  0  0  0  0  0  0  0  0  0
   56.6250   21.6576   41.9643 H   0  0  0  0  0  0  0  0  0  0  0  0
   57.5160   21.0570   43.8610 N   0  0  0  0  0  0  0  0  0  0  0  0
   57.8800   20.1000   43.6540 H   0  0  0  0  0  0  0  0  0  0  0  0
   57.5970   21.7230   45.0270 C   0  0  0  0  0  0  0  0  0  0  0  0
   58.0771   21.3264   45.9337 H   0  0  0  0  0  0  0  0  0  0  0  0
   59.1390   32.9890   45.8880 C   0  0  0  0  0  0  0  0  0  0  0  0
   58.3303   33.5641   45.4135 H   0  0  0  0  0  0  0  0  0  0  0  0
   60.2890   33.6470   46.3350 C   0  0  0  0  0  0  0  0  0  0  0  0
   60.3806   34.7363   46.2124 H   0  0  0  0  0  0  0  0  0  0  0  0
   61.3220   32.9240   46.9370 C   0  0  0  0  0  0  0  0  0  0  0  0
   62.7630   33.7520   47.4990 Cl  0  0  0  0  0  0  0  0  0  0  0  0
  1  2  1  0
  2  3  2  0
  3  4  1  0
  3  5  1  0
  5  6  1  0
  6  7  2  0
  6  8  1  0
  8  9  2  0
  9 10  1  0
 10 11  1  0
 10 12  1  0
  9 13  1  0
 13 14  1  0
 13 15  1  0
 15 16  1  0
 15 17  1  0
 15 18  1  0
 18 19  1  0
 18 20  1  0
 18 21  1  0
 21 22  1  0
 21 23  1  0
 21 24  1  0
 24 25  1  0
 25 26  1  0
 25 27  2  0
 27 28  1  0
 27 29  1  0
 29 30  1  0
 29 31  2  0
 31 32  1  0
  5 33  2  0
 33 34  1  0
 33 35  1  0
 35 36  1  0
 35 37  2  0
 37 38  1  0
 37  2  1  0
 31 24  1  0
M  CHG  1  29   1
M  END
>  <UniqueID>  (5) 
5

>  <SMILES>  (5) 
N/C(=N/C(=O)c1ccc(Cl)cc1)NCCCn1cc[nH+]c1

>  <Energy>  (5) 
67.24243964326219

>  <Genealogy>  (5) 
NC(=NC(=O)c1ccc(Cl)cc1)NCCCn1cc[nH+]c1 (protonated)
N/C(=N/C(=O)c1ccc(Cl)cc1)NCCCn1cc[nH+]c1 (cis-trans isomerization)
N/C(=N/C(=O)c1ccc(Cl)cc1)NCCCn1cc[nH+]c1 (3D coordinates assigned)
N/C(=N/C(=O)c1ccc(Cl)cc1)NCCCn1cc[nH+]c1 (optimized conformer: 67.24243964326219 kcal/mol)

>  <smiles>  (5) 
NC(=NC(=O)c1ccc(Cl)cc1)NCCCn1ccnc1

>  <score_type>  (5) 
oracle

>  <origin>  (5) 
adg

>  <m_score__min__energy>  (5) 
-6.2199999999999998

>  <m_primary>  (5) 
energy

$$$$
5:0
     RDKit          3D

 57 62  0  0  0  0  0  0  0  0999 V2000
   57.7530   33.5660   44.5240 O   0  0  0  0  0  0  0  0  0  0  0  0
   57.7400   32.6920   45.4310 C   0  0  0  0  0  0  0  0  0  0  0  0
   57.0000   31.4820   45.2360 N   0  0  0  0  0  0  0  0  0  0  0  0
   57.6010   30.1860   45.0660 C   0  0  0  0  0  0  0  0  0  0  0  0
   59.0020   30.0720   45.0430 C   0  0  0  0  0  0  0  0  0  0  0  0
   59.6090   28.8190   44.9050 C   0  0  0  0  0  0  0  0  0  0  0  0
   58.8200   27.6660   44.8220 C   0  0  0  0  0  0  0  0  0  0  0  0
   57.4260   27.7630   44.8730 C   0  0  0  0  0  0  0  0  0  0  0  0
   56.8160   29.0170   45.0000 C   0  0  0  0  0  0  0  0  0  0  0  0
   58.4080   32.9710   46.7130 C   0  0  0  0  0  0  0  0  0  0  0  0
   59.0220   34.2150   46.9340 C   0  0  0  0  0  0  0  0  0  0  0  0
   59.6520   34.4750   48.1540 C   0  0  0  0  0  0  0  0  0  0  0  0
   59.6260   33.5210   49.1760 C   0  0  0  0  0  0  0  0  0  0  0  0
   58.9790   32.2880   48.9800 C   0  0  0  0  0  0  0  0  0  0  0  0
   58.7660   31.3670   50.1460 C   0  0  0  0  0  0  0  0  0  0  0  0
   57.5170   31.7470   50.7980 N   0  0  0  0  0  0  0  0  0  0  0  0
   56.7560   30.9510   51.4870 C   0  0  0  0  0  0  0  0  0  0  0  0
   55.4240   31.2140   51.6440 N   0  0  0  0  0  0  0  0  0  0  0  0
   54.6920   30.3630   52.4040 C   0  0  0  0  0  0  0  0  0  0  0  0
   53.3650   30.4400   52.7640 C   0  0  0  0  0  0  0  0  0  0  0  0
   52.4180   31.3130   52.3900 C   0  0  0  0  0  0  0  0  0  0  0  0
   51.9190   31.4660   51.0090 C   0  0  0  0  0  0  0  0  0  0  0  0
   51.3950   32.6180   50.5510 N   0  0  0  0  0  0  0  0  0  0  0  0
   50.8580   32.2620   49.3640 C   0  0  0  0  0  0  0  0  0  0  0  0
   50.2650   33.0880   48.6200 O   0  0  0  0  0  0  0  0  0  0  0  0
   50.9960   30.9560   49.0370 N   0  0  0  0  0  0  0  0  0  0  0  0
   51.6520   30.4570   50.0960 C   0  0  0  0  0  0  0  0  0  0  0  0
   51.9120   29.0970   50.2610 O   0  0  0  0  0  0  0  0  0  0  0  0
   53.2010   29.3670   53.6460 C   0  0  0  0  0  0  0  0  0  0  0  0
   54.3640   28.6810   53.7610 N   0  0  0  0  0  0  0  0  0  0  0  0
   55.2430   29.3050   52.9960 N   0  0  0  0  0  0  0  0  0  0  0  0
   56.5550   29.0130   52.8330 C   0  0  0  0  0  0  0  0  0  0  0  0
   57.0710   27.9560   53.3830 N   0  0  0  0  0  0  0  0  0  0  0  0
   57.6740   27.9640   54.7140 C   0  0  0  0  0  0  0  0  0  0  0  0
   58.2940   29.3020   55.0770 C   0  0  0  0  0  0  0  0  0  0  0  0
   56.9840   28.8780   55.7170 C   0  0  0  0  0  0  0  0  0  0  0  0
   57.3110   29.8560   52.0750 N   0  0  0  0  0  0  0  0  0  0  0  0
   58.4060   32.0020   47.7300 C   0  0  0  0  0  0  0  0  0  0  0  0
   59.6251   30.9739   45.1341 H   0  0  0  0  0  0  0  0  0  0  0  0
   60.7053   28.7401   44.8618 H   0  0  0  0  0  0  0  0  0  0  0  0
   59.2978   26.6808   44.7164 H   0  0  0  0  0  0  0  0  0  0  0  0
   56.8087   26.8545   44.8134 H   0  0  0  0  0  0  0  0  0  0  0  0
   55.7195   29.0902   45.0485 H   0  0  0  0  0  0  0  0  0  0  0  0
   59.0069   34.9838   46.1474 H   0  0  0  0  0  0  0  0  0  0  0  0
   60.1698   35.4328   48.3108 H   0  0  0  0  0  0  0  0  0  0  0  0
   60.1141   33.7361   50.1380 H   0  0  0  0  0  0  0  0  0  0  0  0
   58.7018   30.3270   49.7935 H   0  0  0  0  0  0  0  0  0  0  0  0
   59.6053   31.4447   50.8528 H   0  0  0  0  0  0  0  0  0  0  0  0
   51.9829   31.9599   53.1661 H   0  0  0  0  0  0  0  0  0  0  0  0
   52.5780   28.7710   50.9510 H   0  0  0  0  0  0  0  0  0  0  0  0
   52.2662   29.1169   54.1690 H   0  0  0  0  0  0  0  0  0  0  0  0
   57.9998   26.9134   54.7232 H   0  0  0  0  0  0  0  0  0  0  0  0
   59.2140   29.3361   55.6790 H   0  0  0  0  0  0  0  0  0  0  0  0
   58.6323   30.1811   54.5089 H   0  0  0  0  0  0  0  0  0  0  0  0
   56.9552   28.6040   56.7819 H   0  0  0  0  0  0  0  0  0  0  0  0
   55.9811   29.3214   55.8043 H   0  0  0  0  0  0  0  0  0  0  0  0
   57.9542   31.0160   47.5468 H   0  0  0  0  0  0  0  0  0  0  0  0
  1  2  2  0
  2  3  1  0
  3  4  1  0
  4  5  2  0
  5  6  1  0
  6  7  2  0
  7  8  1  0
  8  9  2  0
  2 10  1  0
 10 11  2  0
 11 12  1  0
 12 13  2  0
 13 14  1  0
 14 15  1  0
 15 16  1  0
 16 17  2  3
 17 18  1  0
 18 19  2  0
 19 20  1  0
 20 21  2  3
 21 22  1  0
 22 23  1  0
 23 24  1  0
 24 25  2  0
 24 26  1  0
 26 27  1  0
 27 28  1  0
 20 29  1  0
 29 30  2  0
 30 31  1  0
 31 32  1  0
 32 33  2  3
 33 34  1  0
 34 35  1  0
 35 36  1  0
 32 37  1  0
 14 38  2  0
  9  4  1  0
 38 10  1  0
 37 17  1  0
 31 19  1  0
 36 34  1  0
 27 22  2  0
  5 39  1  0
  6 40  1  0
  7 41  1  0
  8 42  1  0
  9 43  1  0
 11 44  1  0
 12 45  1  0
 13 46  1  0
 15 47  1  0
 15 48  1  0
 21 49  1  0
 28 50  1  0
 29 51  1  0
 34 52  1  0
 35 53  1  0
 35 54  1  0
 36 55  1  0
 36 56  1  0
 38 57  1  0
M  CHG  4   3  -1  23  -1  26  -1  37  -1
M  END
>  <UniqueID>  (6) 
6

>  <SMILES>  (6) 
O=C([N-]c1ccccc1)c1cccc(CN=c2nc3c(=Cc4[n-]c(=O)[n-]c4O)cnn3c(=NC3CC3)[n-]2)c1

>  <Energy>  (6) 
415.68733849736964

>  <Genealogy>  (6) 
O=C([N-]c1ccccc1)c1cccc(CN=c2nc3c(=Cc4[n-]c(=O)[n-]c4O)cnn3c(=NC3CC3)[n-]2)c1 (protonated)
O=C([N-]c1ccccc1)c1cccc(CN=c2nc3c(=Cc4[n-]c(=O)[n-]c4O)cnn3c(=NC3CC3)[n-]2)c1 (3D coordinates assigned)
O=C([N-]c1ccccc1)c1cccc(CN=c2nc3c(=Cc4[n-]c(=O)[n-]c4O)cnn3c(=NC3CC3)[n-]2)c1 (nonaromatic ring conformer: 415.68733849736964 kcal/mol)

>  <smiles>  (6) 
O=C(Nc1ccccc1)c1cccc(CN=c2nc3c(=Cc4[nH]c(=O)[nH]c4O)cnn3c(=NC3CC3)[nH]2)c1

>  <score_type>  (6) 
oracle

>  <origin>  (6) 
adg

>  <m_score__min__energy>  (6) 
-17.5

>  <m_primary>  (6) 
energy

$$$$
6:0
     RDKit          3D

 63 67  0  0  0  0  0  0  0  0999 V2000
   57.4106   33.2435   46.2813 H   0  0  0  0  0  0  0  0  0  0  0  0
   57.4190   32.6290   45.3690 C   0  0  0  0  0  0  0  0  0  0  0  0
   57.0920   31.3210   45.3100 N   0  0  0  0  0  0  0  0  0  0  0  0
   57.2530   31.0000   44.0090 C   0  0  0  0  0  0  0  0  0  0  0  0
   56.9510   29.3480   43.3690 S   0  0  0  0  0  0  0  0  0  0  0  0
   58.4310   28.5860   44.1310 C   0  0  0  0  0  0  0  0  0  0  0  0
   58.6947   29.1490   45.0385 H   0  0  0  0  0  0  0  0  0  0  0  0
   59.2493   28.6167   43.3965 H   0  0  0  0  0  0  0  0  0  0  0  0
   58.1840   27.1270   44.5080 C   0  0  0  0  0  0  0  0  0  0  0  0
   58.9742   26.4985   44.0715 H   0  0  0  0  0  0  0  0  0  0  0  0
   57.2035   26.8132   44.1204 H   0  0  0  0  0  0  0  0  0  0  0  0
   58.1960   26.9850   45.9250 O   0  0  0  0  0  0  0  0  0  0  0  0
   58.8550   27.8500   46.8070 C   0  0  0  0  0  0  0  0  0  0  0  0
   60.1310   27.5690   47.3330 C   0  0  0  0  0  0  0  0  0  0  0  0
   60.6496   26.6417   47.0481 H   0  0  0  0  0  0  0  0  0  0  0  0
   60.7410   28.4660   48.2170 C   0  0  0  0  0  0  0  0  0  0  0  0
   61.7257   28.2281   48.6457 H   0  0  0  0  0  0  0  0  0  0  0  0
   60.1040   29.6640   48.5580 C   0  0  0  0  0  0  0  0  0  0  0  0
   60.7270   30.5550   49.4920 N   0  0  0  0  0  0  0  0  0  0  0  0
   61.5920   31.5100   49.2600 C   0  0  0  0  0  0  0  0  0  0  0  0
   61.3730   32.6370   48.3990 C   0  0  0  0  0  0  0  0  0  0  0  0
   60.2980   32.6980   47.3920 C   0  0  0  0  0  0  0  0  0  0  0  0
   60.3940   32.0300   46.3260 O   0  0  0  0  0  0  0  0  0  0  0  0
   59.1980   33.5350   47.6040 O   0  0  0  0  0  0  0  0  0  0  0  0
   59.2470   34.9360   47.3550 C   0  0  0  0  0  0  0  0  0  0  0  0
   59.9842   35.4013   48.0258 H   0  0  0  0  0  0  0  0  0  0  0  0
   58.2546   35.3741   47.5374 H   0  0  0  0  0  0  0  0  0  0  0  0
   59.6500   35.1840   45.9110 C   0  0  0  0  0  0  0  0  0  0  0  0
   60.5866   35.7603   45.8855 H   0  0  0  0  0  0  0  0  0  0  0  0
   59.7983   34.2207   45.4011 H   0  0  0  0  0  0  0  0  0  0  0  0
   58.8569   35.7505   45.4011 H   0  0  0  0  0  0  0  0  0  0  0  0
   62.3320   33.6870   48.3830 C   0  0  0  0  0  0  0  0  0  0  0  0
   62.1435   34.5817   47.7715 H   0  0  0  0  0  0  0  0  0  0  0  0
   63.4820   33.6040   49.1130 N   0  0  0  0  0  0  0  0  0  0  0  0
   63.7040   32.5010   49.8640 C   0  0  0  0  0  0  0  0  0  0  0  0
   62.8160   31.4700   49.9280 C   0  0  0  0  0  0  0  0  0  0  0  0
   63.3870   30.5490   50.7880 C   0  0  0  0  0  0  0  0  0  0  0  0
   62.9481   29.5874   51.0925 H   0  0  0  0  0  0  0  0  0  0  0  0
   64.5830   31.0430   51.1880 N   0  0  0  0  0  0  0  0  0  0  0  0
   65.2390   30.5770   51.8540 H   0  0  0  0  0  0  0  0  0  0  0  0
   64.7780   32.2360   50.6340 N   0  0  0  0  0  0  0  0  0  0  0  0
   65.9350   33.0620   50.8540 C   0  0  0  0  0  0  0  0  0  0  0  0
   67.1640   32.7310   50.2550 C   0  0  0  0  0  0  0  0  0  0  0  0
   67.2367   31.8420   49.6113 H   0  0  0  0  0  0  0  0  0  0  0  0
   68.2930   33.5250   50.4730 C   0  0  0  0  0  0  0  0  0  0  0  0
   69.2500   33.2600   49.9997 H   0  0  0  0  0  0  0  0  0  0  0  0
   68.2090   34.6550   51.2910 C   0  0  0  0  0  0  0  0  0  0  0  0
   69.0986   35.2797   51.4592 H   0  0  0  0  0  0  0  0  0  0  0  0
   66.9950   34.9910   51.8950 C   0  0  0  0  0  0  0  0  0  0  0  0
   66.9293   35.8800   52.5395 H   0  0  0  0  0  0  0  0  0  0  0  0
   65.8630   34.1980   51.6810 C   0  0  0  0  0  0  0  0  0  0  0  0
   64.9104   34.4641   52.1623 H   0  0  0  0  0  0  0  0  0  0  0  0
   58.8170   29.9280   48.0610 C   0  0  0  0  0  0  0  0  0  0  0  0
   58.2895   30.8443   48.3644 H   0  0  0  0  0  0  0  0  0  0  0  0
   58.2050   29.0310   47.1830 C   0  0  0  0  0  0  0  0  0  0  0  0
   57.2046   29.2543   46.7839 H   0  0  0  0  0  0  0  0  0  0  0  0
   57.6400   32.0510   43.2570 N   0  0  0  0  0  0  0  0  0  0  0  0
   57.9650   32.0620   41.8340 C   0  0  0  0  0  0  0  0  0  0  0  0
   59.0571   32.0990   41.7076 H   0  0  0  0  0  0  0  0  0  0  0  0
   57.5718   31.1500   41.3610 H   0  0  0  0  0  0  0  0  0  0  0  0
   57.5110   32.9453   41.3610 H   0  0  0  0  0  0  0  0  0  0  0  0
   57.7650   33.0780   44.1130 C   0  0  0  0  0  0  0  0  0  0  0  0
   58.0869   34.0981   43.8567 H   0  0  0  0  0  0  0  0  0  0  0  0
  1  2  1  0
  2  3  1  0
  3  4  2  0
  4  5  1  0
  5  6  1  0
  6  7  1  0
  6  8  1  0
  6  9  1  0
  9 10  1  0
  9 11  1  0
  9 12  1  0
 12 13  1  0
 13 14  2  0
 14 15  1  0
 14 16  1  0
 16 17  1  0
 16 18  2  0
 18 19  1  0
 19 20  2  0
 20 21  1  0
 21 22  1  0
 22 23  2  0
 22 24  1  0
 24 25  1  0
 25 26  1  0
 25 27  1  0
 25 28  1  0
 28 29  1  0
 28 30  1  0
 28 31  1  0
 21 32  2  0
 32 33  1  0
 32 34  1  0
 34 35  1  0
 35 36  2  0
 36 37  1  0
 37 38  1  0
 37 39  2  0
 39 40  1  0
 39 41  1  0
 41 42  1  0
 42 43  2  0
 43 44  1  0
 43 45  1  0
 45 46  1  0
 45 47  2  0
 47 48  1  0
 47 49  1  0
 49 50  1  0
 49 51  2  0
 51 52  1  0
 18 53  1  0
 53 54  1  0
 53 55  2  0
 55 56  1  0
  4 57  1  0
 57 58  1  0
 58 59  1  0
 58 60  1  0
 58 61  1  0
 57 62  1  0
 62 63  1  0
 62  2  2  0
 55 13  1  0
 36 20  1  0
 51 42  1  0
 41 35  1  0
M  CHG  2  34  -1  39   1
M  END
>  <UniqueID>  (7) 
7

>  <SMILES>  (7) 
CCOC(=O)c1c[n-]c2c(c[nH+]n2-c2ccccc2)/c1=N/c1ccc(OCCSc2nccn2C)cc1

>  <Energy>  (7) 
151.3518888631979

>  <Genealogy>  (7) 
CCOC(=O)c1c[n-]c2c(c[nH+]n2-c2ccccc2)c1=Nc1ccc(OCCSc2nccn2C)cc1 (protonated)
CCOC(=O)c1c[n-]c2c(c[nH+]n2-c2ccccc2)/c1=N/c1ccc(OCCSc2nccn2C)cc1 (cis-trans isomerization)
CCOC(=O)c1c[n-]c2c(c[nH+]n2-c2ccccc2)/c1=N/c1ccc(OCCSc2nccn2C)cc1 (3D coordinates assigned)
CCOC(=O)c1c[n-]c2c(c[nH+]n2-c2ccccc2)/c1=N/c1ccc(OCCSc2nccn2C)cc1 (optimized conformer: 151.3518888631979 kcal/mol)

>  <smiles>  (7) 
CCOC(=O)c1c[nH]c2c(cnn2-c2ccccc2)c1=Nc1ccc(OCCSc2nccn2C)cc1

>  <score_type>  (7) 
oracle

>  <origin>  (7) 
adg

>  <m_score__min__energy>  (7) 
-8.4600000000000009

>  <m_primary>  (7) 
energy

$$$$
7:0
     RDKit          3D

 45 48  0  0  0  0  0  0  0  0999 V2000
   57.2550   22.9910   47.8430 O   0  0  0  0  0  0  0  0  0  0  0  0
   57.1840   24.0980   47.2450 C   0  0  0  0  0  0  0  0  0  0  0  0
   58.3280   24.7670   46.9480 N   0  0  0  0  0  0  0  0  0  0  0  0
   58.3020   25.9480   46.2850 C   0  0  0  0  0  0  0  0  0  0  0  0
   59.4970   26.5960   45.9550 C   0  0  0  0  0  0  0  0  0  0  0  0
   59.4700   27.7930   45.2340 C   0  0  0  0  0  0  0  0  0  0  0  0
   58.2480   28.3550   44.8340 C   0  0  0  0  0  0  0  0  0  0  0  0
   58.2420   29.5620   44.0540 N   0  0  0  0  0  0  0  0  0  0  0  0
   58.2070   30.8800   44.6300 C   0  0  0  0  0  0  0  0  0  0  0  0
   58.4700   31.0480   46.0030 C   0  0  0  0  0  0  0  0  0  0  0  0
   58.3650   32.3040   46.5990 C   0  0  0  0  0  0  0  0  0  0  0  0
   57.9770   33.4060   45.8390 C   0  0  0  0  0  0  0  0  0  0  0  0
   57.7010   33.2570   44.4780 C   0  0  0  0  0  0  0  0  0  0  0  0
   57.8200   32.0000   43.8550 C   0  0  0  0  0  0  0  0  0  0  0  0
   57.5790   31.8840   42.4400 N   0  0  0  0  0  0  0  0  0  0  0  0
   58.1510   32.6530   41.6400 O   0  0  0  0  0  0  0  0  0  0  0  0
   56.8450   30.8350   41.9380 O   0  0  0  0  0  0  0  0  0  0  0  0
   57.0460   27.7330   45.2160 C   0  0  0  0  0  0  0  0  0  0  0  0
   57.0680   26.5210   45.9270 C   0  0  0  0  0  0  0  0  0  0  0  0
   55.8930   25.8390   46.2820 C   0  0  0  0  0  0  0  0  0  0  0  0
   54.7690   26.3690   46.0620 O   0  0  0  0  0  0  0  0  0  0  0  0
   55.9700   24.6080   46.8790 N   0  0  0  0  0  0  0  0  0  0  0  0
   54.8160   23.8350   47.1140 N   0  0  0  0  0  0  0  0  0  0  0  0
   54.1690   22.7270   45.9440 S   0  0  0  0  0  0  0  0  0  0  0  0
   53.6810   21.4910   46.6440 O   0  0  0  0  0  0  0  0  0  0  0  0
   53.0170   23.3790   45.2310 O   0  0  0  0  0  0  0  0  0  0  0  0
   55.4270   22.2670   44.7960 C   0  0  0  0  0  0  0  0  0  0  0  0
   56.3240   21.2400   45.1260 C   0  0  0  0  0  0  0  0  0  0  0  0
   57.3750   20.9210   44.2600 C   0  0  0  0  0  0  0  0  0  0  0  0
   57.5340   21.6230   43.0620 C   0  0  0  0  0  0  0  0  0  0  0  0
   56.6400   22.6410   42.7250 C   0  0  0  0  0  0  0  0  0  0  0  0
   55.5860   22.9630   43.5870 C   0  0  0  0  0  0  0  0  0  0  0  0
   60.4598   26.1626   46.2636 H   0  0  0  0  0  0  0  0  0  0  0  0
   60.4132   28.2980   44.9783 H   0  0  0  0  0  0  0  0  0  0  0  0
   58.1740   29.4800   43.0140 H   0  0  0  0  0  0  0  0  0  0  0  0
   58.7613   30.1793   46.6117 H   0  0  0  0  0  0  0  0  0  0  0  0
   58.5884   32.4252   47.6692 H   0  0  0  0  0  0  0  0  0  0  0  0
   57.8880   34.3951   46.3120 H   0  0  0  0  0  0  0  0  0  0  0  0
   57.3876   34.1302   43.8871 H   0  0  0  0  0  0  0  0  0  0  0  0
   56.0833   28.1977   44.9568 H   0  0  0  0  0  0  0  0  0  0  0  0
   56.2005   20.6847   46.0675 H   0  0  0  0  0  0  0  0  0  0  0  0
   58.0776   20.1163   44.5223 H   0  0  0  0  0  0  0  0  0  0  0  0
   58.3638   21.3734   42.3844 H   0  0  0  0  0  0  0  0  0  0  0  0
   56.7644   23.1907   41.7804 H   0  0  0  0  0  0  0  0  0  0  0  0
   54.8807   23.7628   43.3170 H   0  0  0  0  0  0  0  0  0  0  0  0
  1  2  2  0
  2  3  1  0
  3  4  1  0
  4  5  2  0
  5  6  1  0
  6  7  2  0
  7  8  1  0
  8  9  1  0
  9 10  2  0
 10 11  1  0
 11 12  2  0
 12 13  1  0
 13 14  2  0
 14 15  1  0
 15 16  2  0
 15 17  1  0
  7 18  1  0
 18 19  2  0
 19 20  1  0
 20 21  2  0
 20 22  1  0
 22 23  1  0
 23 24  1  0
 24 25  2  0
 24 26  2  0
 24 27  1  0
 27 28  2  0
 28 29  1  0
 29 30  2  0
 30 31  1  0
 31 32  2  0
 22  2  1  0
 32 27  1  0
 19  4  1  0
 14  9  1  0
  5 33  1  0
  6 34  1  0
  8 35  1  0
 10 36  1  0
 11 37  1  0
 12 38  1  0
 13 39  1  0
 18 40  1  0
 28 41  1  0
 29 42  1  0
 30 43  1  0
 31 44  1  0
 32 45  1  0
M  CHG  4   3  -1  15   1  17  -1  23  -1
M  END
>  <UniqueID>  (8) 
8

>  <SMILES>  (8) 
O=c1[n-]c2ccc(Nc3ccccc3[N+](=O)[O-])cc2c(=O)n1[N-]S(=O)(=O)c1ccccc1

>  <Energy>  (8) 
72.40063733065553

>  <Genealogy>  (8) 
O=c1[n-]c2ccc(Nc3ccccc3[N+](=O)[O-])cc2c(=O)n1[N-]S(=O)(=O)c1ccccc1 (protonated)
O=c1[n-]c2ccc(Nc3ccccc3[N+](=O)[O-])cc2c(=O)n1[N-]S(=O)(=O)c1ccccc1 (3D coordinates assigned)
O=c1[n-]c2ccc(Nc3ccccc3[N+](=O)[O-])cc2c(=O)n1[N-]S(=O)(=O)c1ccccc1 (optimized conformer: 72.40063733065553 kcal/mol)

>  <smiles>  (8) 
O=c1[nH]c2ccc(Nc3ccccc3[N+](=O)[O-])cc2c(=O)n1NS(=O)(=O)c1ccccc1

>  <score_type>  (8) 
oracle

>  <origin>  (8) 
adg

>  <m_score__min__energy>  (8) 
-13.390000000000001

>  <m_primary>  (8) 
energy

$$$$
8:0
     RDKit          3D

 57 60  0  0  1  0  0  0  0  0999 V2000
   61.4920   30.2620   50.1380 C   0  0  0  0  0  0  0  0  0  0  0  0
   61.0460   30.9120   48.9800 O   0  0  0  0  0  0  0  0  0  0  0  0
   60.3860   30.2440   47.9600 C   0  0  0  0  0  0  0  0  0  0  0  0
   60.8600   30.1970   46.6600 C   0  0  0  0  0  0  0  0  0  0  0  0
   60.6940   33.9200   46.0020 C   0  0  0  0  0  0  0  0  0  0  0  0
   59.4850   34.2890   46.5510 C   0  0  0  0  0  0  0  0  0  0  0  0
   58.2710   34.5570   45.7300 C   0  0  0  0  0  0  0  0  0  0  0  0
   57.0800   28.9890   44.6340 N   0  0  0  0  0  0  0  0  0  0  0  0
   57.2850   30.2110   44.2890 C   0  0  0  0  0  0  0  0  0  0  0  0
   57.5360   30.6050   43.0280 N   0  0  0  0  0  0  0  0  0  0  0  0
   57.7470   31.8920   42.6930 C   0  0  0  0  0  0  0  0  0  0  0  0
   58.0270   32.3410   41.3080 C   0  0  0  0  0  0  0  0  0  0  0  0
   57.7080   32.8770   43.6770 C   0  0  0  0  0  0  0  0  0  0  0  0
   57.4500   32.4750   44.9700 C   0  0  0  0  0  0  0  0  0  0  0  0
   57.4120   33.3810   45.8810 N   0  0  0  0  0  0  0  0  0  0  0  0
   58.2130   28.1240   44.9010 C   0  0  0  0  0  0  0  0  0  0  0  0
   58.9930   28.8740   45.9560 C   0  0  0  0  0  0  0  0  0  0  0  0
   60.1760   29.5190   45.6530 C   0  0  0  0  0  0  0  0  0  0  0  0
   61.7940   33.6840   46.8340 C   0  0  0  0  0  0  0  0  0  0  0  0
   61.7040   33.8100   48.2040 C   0  0  0  0  0  0  0  0  0  0  0  0
   62.8380   33.5690   49.1000 C   0  0  0  0  0  0  0  0  0  0  0  0
   63.8120   32.6900   48.6700 C   0  0  0  0  0  0  0  0  0  0  0  0
   64.8960   32.4530   49.5170 C   0  0  0  0  0  0  0  0  0  0  0  0
   65.0160   33.0640   50.7450 C   0  0  0  0  0  0  0  0  0  0  0  0
   64.0360   33.9510   51.1770 C   0  0  0  0  0  0  0  0  0  0  0  0
   62.9540   34.1870   50.3330 C   0  0  0  0  0  0  0  0  0  0  0  0
   60.4830   34.1830   48.7620 C   0  0  0  0  0  0  0  0  0  0  0  0
   58.5350   28.9300   47.2570 C   0  0  0  0  0  0  0  0  0  0  0  0
   57.2420   31.1580   45.2570 N   0  0  0  0  0  0  0  0  0  0  0  0
   59.4210   34.4080   47.9240 C   0  0  0  0  0  0  0  0  0  0  0  0
   59.1970   29.5950   48.2660 C   0  0  0  0  0  0  0  0  0  0  0  0
   61.1237   30.7988   51.0247 H   0  0  0  0  0  0  0  0  0  0  0  0
   61.1107   29.2303   50.1493 H   0  0  0  0  0  0  0  0  0  0  0  0
   62.5918   30.2466   50.1493 H   0  0  0  0  0  0  0  0  0  0  0  0
   61.8024   30.7089   46.4154 H   0  0  0  0  0  0  0  0  0  0  0  0
   60.7941   33.8112   44.9120 H   0  0  0  0  0  0  0  0  0  0  0  0
   58.5469   34.6954   44.6742 H   0  0  0  0  0  0  0  0  0  0  0  0
   57.7587   35.4739   46.0569 H   0  0  0  0  0  0  0  0  0  0  0  0
   57.5680   29.8820   42.2910 H   0  0  0  0  0  0  0  0  0  0  0  0
   58.6089   33.2741   41.3356 H   0  0  0  0  0  0  0  0  0  0  0  0
   58.6020   31.5658   40.7804 H   0  0  0  0  0  0  0  0  0  0  0  0
   57.0778   32.5163   40.7804 H   0  0  0  0  0  0  0  0  0  0  0  0
   57.8767   33.9359   43.4315 H   0  0  0  0  0  0  0  0  0  0  0  0
   58.8184   27.9789   43.9941 H   0  0  0  0  0  0  0  0  0  0  0  0
   57.9139   27.1167   45.2264 H   0  0  0  0  0  0  0  0  0  0  0  0
   60.5740   29.4977   44.6277 H   0  0  0  0  0  0  0  0  0  0  0  0
   62.7540   33.3908   46.3840 H   0  0  0  0  0  0  0  0  0  0  0  0
   63.7363   32.1926   47.6918 H   0  0  0  0  0  0  0  0  0  0  0  0
   65.6811   31.7543   49.1923 H   0  0  0  0  0  0  0  0  0  0  0  0
   65.8859   32.8508   51.3835 H   0  0  0  0  0  0  0  0  0  0  0  0
   64.1131   34.4502   52.1542 H   0  0  0  0  0  0  0  0  0  0  0  0
   62.1679   34.8855   50.6558 H   0  0  0  0  0  0  0  0  0  0  0  0
   60.3733   34.2946   49.8508 H   0  0  0  0  0  0  0  0  0  0  0  0
   57.5929   28.4172   47.5008 H   0  0  0  0  0  0  0  0  0  0  0  0
   57.0470   30.8710   46.2450 H   0  0  0  0  0  0  0  0  0  0  0  0
   58.4607   34.7009   48.3734 H   0  0  0  0  0  0  0  0  0  0  0  0
   58.7934   29.6114   49.2892 H   0  0  0  0  0  0  0  0  0  0  0  0
  1  2  1  0
  2  3  1  0
  3  4  2  0
  4  5  1  0
  5  6  2  0
  6  7  1  0
  7  8  1  0
  8  9  2  0
  9 10  1  0
 10 11  1  0
 11 12  1  0
 11 13  2  0
 13 14  1  0
 14 15  2  0
 15 16  1  0
 16 17  1  0
 17 18  2  0
 18 19  1  0
 19 20  2  0
 20 21  1  0
 21 22  2  0
 22 23  1  0
 23 24  2  0
 24 25  1  0
 25 26  2  0
 20 27  1  0
 27 28  2  0
 14 29  1  0
  6 30  1  0
 30 31  2  0
 31  3  1  0
 29  9  1  0
 28 17  1  0
 26 21  1  0
  1 32  1  0
  1 33  1  0
  1 34  1  0
  4 35  1  0
  5 36  1  0
  7 37  1  0
  7 38  1  0
 10 39  1  0
 12 40  1  0
 12 41  1  0
 12 42  1  0
 13 43  1  0
 16 44  1  0
 16 45  1  0
 18 46  1  0
 19 47  1  0
 22 48  1  0
 23 49  1  0
 24 50  1  0
 25 51  1  0
 26 52  1  0
 27 53  1  0
 28 54  1  0
 29 55  1  0
 30 56  1  0
 31 57  1  0
M  END
>  <smiles>  (9) 
COc1ccc(CN=c2[nH]c(C)cc(=NCc3ccc(-c4ccccc4)cc3)[nH]2)cc1

>  <score_type>  (9) 
oracle

>  <origin>  (9) 
adg

>  <m_score__min__energy>  (9) 
-9.1699999999999999

>  <m_primary>  (9) 
energy

$$$$
9:0
     RDKit          3D

 43 45  0  0  0  0  0  0  0  0999 V2000
   54.7510   26.2980   45.9940 N   0  0  0  0  0  0  0  0  0  0  0  0
   56.1890   25.3640   46.2100 S   0  0  0  0  0  0  0  0  0  0  0  0
   56.2690   24.8850   47.6320 O   0  0  0  0  0  0  0  0  0  0  0  0
   56.1530   24.1680   45.3000 O   0  0  0  0  0  0  0  0  0  0  0  0
   57.5920   26.3570   45.8330 C   0  0  0  0  0  0  0  0  0  0  0  0
   58.8580   25.9910   46.3040 C   0  0  0  0  0  0  0  0  0  0  0  0
   59.9730   26.7730   45.9970 C   0  0  0  0  0  0  0  0  0  0  0  0
   59.8320   27.9210   45.2120 C   0  0  0  0  0  0  0  0  0  0  0  0
   58.5680   28.2940   44.7180 C   0  0  0  0  0  0  0  0  0  0  0  0
   58.3870   29.4610   43.8960 N   0  0  0  0  0  0  0  0  0  0  0  0
   57.3760   30.8050   44.3300 S   0  0  0  0  0  0  0  0  0  0  0  0
   57.1010   31.6320   43.1060 O   0  0  0  0  0  0  0  0  0  0  0  0
   56.0740   30.2830   44.8720 O   0  0  0  0  0  0  0  0  0  0  0  0
   58.1900   31.8120   45.5220 C   0  0  0  0  0  0  0  0  0  0  0  0
   57.7510   33.1230   45.7480 C   0  0  0  0  0  0  0  0  0  0  0  0
   58.4030   33.9330   46.6810 C   0  0  0  0  0  0  0  0  0  0  0  0
   59.4900   33.4330   47.4190 C   0  0  0  0  0  0  0  0  0  0  0  0
   60.1960   34.2560   48.3630 N   0  0  0  0  0  0  0  0  0  0  0  0
   61.5270   33.9890   48.8390 C   0  0  0  0  0  0  0  0  0  0  0  0
   61.8040   34.0950   50.2110 C   0  0  0  0  0  0  0  0  0  0  0  0
   63.0960   33.8670   50.6920 C   0  0  0  0  0  0  0  0  0  0  0  0
   64.1270   33.5450   49.8050 C   0  0  0  0  0  0  0  0  0  0  0  0
   63.8680   33.4610   48.4340 C   0  0  0  0  0  0  0  0  0  0  0  0
   62.5760   33.6880   47.9490 C   0  0  0  0  0  0  0  0  0  0  0  0
   59.9360   32.1250   47.1770 C   0  0  0  0  0  0  0  0  0  0  0  0
   59.2850   31.3160   46.2420 C   0  0  0  0  0  0  0  0  0  0  0  0
   57.4520   27.5040   45.0390 C   0  0  0  0  0  0  0  0  0  0  0  0
   54.7840   27.0740   46.6930 H   0  0  0  0  0  0  0  0  0  0  0  0
   58.9748   25.0854   46.9173 H   0  0  0  0  0  0  0  0  0  0  0  0
   60.9654   26.4849   46.3740 H   0  0  0  0  0  0  0  0  0  0  0  0
   60.7137   28.5362   44.9791 H   0  0  0  0  0  0  0  0  0  0  0  0
   58.9540   29.5600   43.0240 H   0  0  0  0  0  0  0  0  0  0  0  0
   56.8894   33.5162   45.1885 H   0  0  0  0  0  0  0  0  0  0  0  0
   58.0640   34.9675   46.8390 H   0  0  0  0  0  0  0  0  0  0  0  0
   59.7110   35.1070   48.7270 H   0  0  0  0  0  0  0  0  0  0  0  0
   60.9987   34.3593   50.9122 H   0  0  0  0  0  0  0  0  0  0  0  0
   63.3019   33.9410   51.7700 H   0  0  0  0  0  0  0  0  0  0  0  0
   65.1419   33.3577   50.1857 H   0  0  0  0  0  0  0  0  0  0  0  0
   64.6816   33.2160   47.7354 H   0  0  0  0  0  0  0  0  0  0  0  0
   62.3785   33.6312   46.8684 H   0  0  0  0  0  0  0  0  0  0  0  0
   60.8043   31.7335   47.7272 H   0  0  0  0  0  0  0  0  0  0  0  0
   59.6332   30.2867   46.0707 H   0  0  0  0  0  0  0  0  0  0  0  0
   56.4579   27.7881   44.6636 H   0  0  0  0  0  0  0  0  0  0  0  0
  1  2  1  0
  2  3  2  0
  2  4  2  0
  2  5  1  0
  5  6  2  0
  6  7  1  0
  7  8  2  0
  8  9  1  0
  9 10  1  0
 10 11  1  0
 11 12  2  0
 11 13  2  0
 11 14  1  0
 14 15  2  0
 15 16  1  0
 16 17  2  0
 17 18  1  0
 18 19  1  0
 19 20  2  0
 20 21  1  0
 21 22  2  0
 22 23  1  0
 23 24  2  0
 17 25  1  0
 25 26  2  0
  9 27  2  0
 27  5  1  0
 26 14  1  0
 24 19  1  0
  1 28  1  0
  6 29  1  0
  7 30  1  0
  8 31  1  0
 10 32  1  0
 15 33  1  0
 16 34  1  0
 18 35  1  0
 20 36  1  0
 21 37  1  0
 22 38  1  0
 23 39  1  0
 24 40  1  0
 25 41  1  0
 26 42  1  0
 27 43  1  0
M  CHG  1   1  -1
M  END
>  <UniqueID>  (10) 
9

>  <SMILES>  (10) 
[NH-]S(=O)(=O)c1cccc(NS(=O)(=O)c2ccc(Nc3ccccc3)cc2)c1

>  <Energy>  (10) 
53.45143557210601

>  <Genealogy>  (10) 
[NH-]S(=O)(=O)c1cccc(NS(=O)(=O)c2ccc(Nc3ccccc3)cc2)c1 (protonated)
[NH-]S(=O)(=O)c1cccc(NS(=O)(=O)c2ccc(Nc3ccccc3)cc2)c1 (3D coordinates assigned)
[NH-]S(=O)(=O)c1cccc(NS(=O)(=O)c2ccc(Nc3ccccc3)cc2)c1 (optimized conformer: 53.45143557210601 kcal/mol)

>  <smiles>  (10) 
NS(=O)(=O)c1cccc(NS(=O)(=O)c2ccc(Nc3ccccc3)cc2)c1

>  <score_type>  (10) 
oracle

>  <origin>  (10) 
adg

>  <m_score__min__energy>  (10) 
-13.449999999999999

>  <m_primary>  (10) 
energy

$$$$
10:0
     RDKit          3D

 42 44  0  0  0  0  0  0  0  0999 V2000
   59.6840   35.4380   45.6130 O   0  0  0  0  0  0  0  0  0  0  0  0
   59.5850   34.3310   46.2090 C   0  0  0  0  0  0  0  0  0  0  0  0
   60.1420   34.1590   47.4840 O   0  0  0  0  0  0  0  0  0  0  0  0
   61.4750   33.8140   47.7500 C   0  0  0  0  0  0  0  0  0  0  0  0
   62.3820   33.4690   46.7290 C   0  0  0  0  0  0  0  0  0  0  0  0
   63.6990   33.1210   47.0460 C   0  0  0  0  0  0  0  0  0  0  0  0
   64.1170   33.1030   48.3790 C   0  0  0  0  0  0  0  0  0  0  0  0
   63.2180   33.4250   49.3980 C   0  0  0  0  0  0  0  0  0  0  0  0
   61.9000   33.7740   49.0840 C   0  0  0  0  0  0  0  0  0  0  0  0
   58.8260   33.2220   45.5870 C   0  0  0  0  0  0  0  0  0  0  0  0
   58.4850   32.0850   46.3400 C   0  0  0  0  0  0  0  0  0  0  0  0
   57.7700   31.0360   45.7550 C   0  0  0  0  0  0  0  0  0  0  0  0
   57.3810   31.1090   44.4130 C   0  0  0  0  0  0  0  0  0  0  0  0
   56.4720   29.7910   43.6830 S   0  0  0  0  0  0  0  0  0  0  0  0
   56.2680   30.0780   42.2220 O   0  0  0  0  0  0  0  0  0  0  0  0
   55.1300   29.6540   44.3440 O   0  0  0  0  0  0  0  0  0  0  0  0
   57.3410   28.2990   43.8550 N   0  0  0  0  0  0  0  0  0  0  0  0
   58.2500   28.0440   44.9390 C   0  0  0  0  0  0  0  0  0  0  0  0
   59.5560   28.5690   44.8940 C   0  0  0  0  0  0  0  0  0  0  0  0
   60.4860   28.2560   45.8850 C   0  0  0  0  0  0  0  0  0  0  0  0
   60.1320   27.4090   46.9320 C   0  0  0  0  0  0  0  0  0  0  0  0
   58.8410   26.8830   47.0010 C   0  0  0  0  0  0  0  0  0  0  0  0
   57.8820   27.2000   46.0210 C   0  0  0  0  0  0  0  0  0  0  0  0
   56.5070   26.6740   46.1880 C   0  0  0  0  0  0  0  0  0  0  0  0
   55.5270   27.2310   45.6270 O   0  0  0  0  0  0  0  0  0  0  0  0
   56.2740   25.5820   47.0170 O   0  0  0  0  0  0  0  0  0  0  0  0
   57.7210   32.2360   43.6540 C   0  0  0  0  0  0  0  0  0  0  0  0
   58.4380   33.2860   44.2350 C   0  0  0  0  0  0  0  0  0  0  0  0
   62.0535   33.4733   45.6792 H   0  0  0  0  0  0  0  0  0  0  0  0
   64.4066   32.8612   46.2449 H   0  0  0  0  0  0  0  0  0  0  0  0
   65.1549   32.8350   48.6260 H   0  0  0  0  0  0  0  0  0  0  0  0
   63.5462   33.4042   50.4477 H   0  0  0  0  0  0  0  0  0  0  0  0
   61.1928   34.0186   49.8902 H   0  0  0  0  0  0  0  0  0  0  0  0
   58.7829   32.0203   47.3969 H   0  0  0  0  0  0  0  0  0  0  0  0
   57.5120   30.1491   46.3524 H   0  0  0  0  0  0  0  0  0  0  0  0
   57.1840   27.5690   43.1240 H   0  0  0  0  0  0  0  0  0  0  0  0
   59.8461   29.2340   44.0672 H   0  0  0  0  0  0  0  0  0  0  0  0
   61.5005   28.6788   45.8395 H   0  0  0  0  0  0  0  0  0  0  0  0
   60.8709   27.1540   47.7059 H   0  0  0  0  0  0  0  0  0  0  0  0
   58.5701   26.2133   47.8305 H   0  0  0  0  0  0  0  0  0  0  0  0
   57.4227   32.2951   42.5969 H   0  0  0  0  0  0  0  0  0  0  0  0
   58.7007   34.1678   43.6322 H   0  0  0  0  0  0  0  0  0  0  0  0
  1  2  2  0
  2  3  1  0
  3  4  1  0
  4  5  2  0
  5  6  1  0
  6  7  2  0
  7  8  1  0
  8  9  2  0
  2 10  1  0
 10 11  2  0
 11 12  1  0
 12 13  2  0
 13 14  1  0
 14 15  2  0
 14 16  2  0
 14 17  1  0
 17 18  1  0
 18 19  2  0
 19 20  1  0
 20 21  2  0
 21 22  1  0
 22 23  2  0
 23 24  1  0
 24 25  2  0
 24 26  1  0
 13 27  1  0
 27 28  2  0
  9  4  1  0
 28 10  1  0
 23 18  1  0
  5 29  1  0
  6 30  1  0
  7 31  1  0
  8 32  1  0
  9 33  1  0
 11 34  1  0
 12 35  1  0
 17 36  1  0
 19 37  1  0
 20 38  1  0
 21 39  1  0
 22 40  1  0
 27 41  1  0
 28 42  1  0
M  CHG  1  26  -1
M  END
>  <UniqueID>  (11) 
10

>  <SMILES>  (11) 
O=C(Oc1ccccc1)c1ccc(S(=O)(=O)Nc2ccccc2C(=O)[O-])cc1

>  <Energy>  (11) 
58.792511003020586

>  <Genealogy>  (11) 
O=C(Oc1ccccc1)c1ccc(S(=O)(=O)Nc2ccccc2C(=O)[O-])cc1 (protonated)
O=C(Oc1ccccc1)c1ccc(S(=O)(=O)Nc2ccccc2C(=O)[O-])cc1 (3D coordinates assigned)
O=C(Oc1ccccc1)c1ccc(S(=O)(=O)Nc2ccccc2C(=O)[O-])cc1 (optimized conformer: 58.792511003020586 kcal/mol)

>  <smiles>  (11) 
O=C(Oc1ccccc1)c1ccc(S(=O)(=O)Nc2ccccc2C(=O)O)cc1

>  <score_type>  (11) 
oracle

>  <origin>  (11) 
adg

>  <m_score__min__energy>  (11) 
-13.289999999999999

>  <m_primary>  (11) 
energy

$$$$
11:0
     RDKit          3D

 58 61  0  0  0  0  0  0  0  0999 V2000
   56.8100   20.9260   42.9870 C   0  0  0  0  0  0  0  0  0  0  0  0
   56.2520   22.2120   43.2380 O   0  0  0  0  0  0  0  0  0  0  0  0
   56.7260   23.1040   44.2110 C   0  0  0  0  0  0  0  0  0  0  0  0
   56.9080   22.6310   45.5180 C   0  0  0  0  0  0  0  0  0  0  0  0
   57.3820   23.4800   46.5210 C   0  0  0  0  0  0  0  0  0  0  0  0
   57.6920   24.8180   46.2290 C   0  0  0  0  0  0  0  0  0  0  0  0
   58.1670   25.7360   47.3200 C   0  0  0  0  0  0  0  0  0  0  0  0
   58.9810   26.8040   46.7460 N   0  0  0  0  0  0  0  0  0  0  0  0
   59.0210   28.1290   47.2930 C   0  0  0  0  0  0  0  0  0  0  0  0
   58.2660   28.4460   48.2500 O   0  0  0  0  0  0  0  0  0  0  0  0
   59.9530   29.1510   46.7170 C   0  0  0  0  0  0  0  0  0  0  0  0
   59.1940   30.2060   46.0440 N   0  0  0  0  0  0  0  0  0  0  0  0
   59.2750   31.5290   46.3080 C   0  0  0  0  0  0  0  0  0  0  0  0
   58.4720   32.2590   45.4330 C   0  0  0  0  0  0  0  0  0  0  0  0
   58.3580   33.7400   45.4680 C   0  0  0  0  0  0  0  0  0  0  0  0
   57.2610   34.2660   45.1320 O   0  0  0  0  0  0  0  0  0  0  0  0
   59.4730   34.6560   45.8830 C   0  0  0  0  0  0  0  0  0  0  0  0
   59.7220   34.5630   47.3940 C   0  0  0  0  0  0  0  0  0  0  0  0
   61.1500   34.1770   47.6760 C   0  0  0  0  0  0  0  0  0  0  0  0
   61.6320   34.1330   48.9960 C   0  0  0  0  0  0  0  0  0  0  0  0
   62.9520   33.7460   49.2510 C   0  0  0  0  0  0  0  0  0  0  0  0
   63.7980   33.3950   48.1940 C   0  0  0  0  0  0  0  0  0  0  0  0
   63.3230   33.4280   46.8800 C   0  0  0  0  0  0  0  0  0  0  0  0
   62.0050   33.8140   46.6200 C   0  0  0  0  0  0  0  0  0  0  0  0
   57.8860   31.3100   44.5920 C   0  0  0  0  0  0  0  0  0  0  0  0
   57.0220   31.4180   43.4940 C   0  0  0  0  0  0  0  0  0  0  0  0
   56.6330   30.2420   42.8300 C   0  0  0  0  0  0  0  0  0  0  0  0
   57.1100   28.9880   43.2550 C   0  0  0  0  0  0  0  0  0  0  0  0
   57.9840   28.8960   44.3490 C   0  0  0  0  0  0  0  0  0  0  0  0
   58.3540   30.0780   44.9990 C   0  0  0  0  0  0  0  0  0  0  0  0
   57.4960   25.3010   44.9270 C   0  0  0  0  0  0  0  0  0  0  0  0
   57.0240   24.4510   43.9210 C   0  0  0  0  0  0  0  0  0  0  0  0
   57.0264   20.4272   43.9432 H   0  0  0  0  0  0  0  0  0  0  0  0
   56.0934   20.3212   42.4119 H   0  0  0  0  0  0  0  0  0  0  0  0
   57.7412   21.0362   42.4119 H   0  0  0  0  0  0  0  0  0  0  0  0
   56.6756   21.5825   45.7558 H   0  0  0  0  0  0  0  0  0  0  0  0
   57.5130   23.0985   47.5444 H   0  0  0  0  0  0  0  0  0  0  0  0
   57.2982   26.1741   47.8331 H   0  0  0  0  0  0  0  0  0  0  0  0
   58.7716   25.1641   48.0393 H   0  0  0  0  0  0  0  0  0  0  0  0
   59.6310   26.5590   45.9640 H   0  0  0  0  0  0  0  0  0  0  0  0
   60.5514   29.5941   47.5267 H   0  0  0  0  0  0  0  0  0  0  0  0
   60.6135   28.6622   45.9857 H   0  0  0  0  0  0  0  0  0  0  0  0
   59.8912   31.9701   47.1054 H   0  0  0  0  0  0  0  0  0  0  0  0
   60.3912   34.3715   45.3482 H   0  0  0  0  0  0  0  0  0  0  0  0
   59.1900   35.6898   45.6357 H   0  0  0  0  0  0  0  0  0  0  0  0
   59.5144   35.5400   47.8549 H   0  0  0  0  0  0  0  0  0  0  0  0
   59.0582   33.7934   47.8148 H   0  0  0  0  0  0  0  0  0  0  0  0
   60.9691   34.4037   49.8310 H   0  0  0  0  0  0  0  0  0  0  0  0
   63.3254   33.7177   50.2853 H   0  0  0  0  0  0  0  0  0  0  0  0
   64.8362   33.0933   48.3967 H   0  0  0  0  0  0  0  0  0  0  0  0
   63.9876   33.1497   46.0489 H   0  0  0  0  0  0  0  0  0  0  0  0
   61.6347   33.8339   45.5844 H   0  0  0  0  0  0  0  0  0  0  0  0
   56.6568   32.4003   43.1596 H   0  0  0  0  0  0  0  0  0  0  0  0
   55.9495   30.3022   41.9703 H   0  0  0  0  0  0  0  0  0  0  0  0
   56.7962   28.0755   42.7270 H   0  0  0  0  0  0  0  0  0  0  0  0
   58.3674   27.9216   44.6860 H   0  0  0  0  0  0  0  0  0  0  0  0
   57.7146   26.3539   44.6955 H   0  0  0  0  0  0  0  0  0  0  0  0
   56.8849   24.8353   42.8997 H   0  0  0  0  0  0  0  0  0  0  0  0
  1  2  1  0
  2  3  1  0
  3  4  2  0
  4  5  1  0
  5  6  2  0
  6  7  1  0
  7  8  1  0
  8  9  1  0
  9 10  2  0
  9 11  1  0
 11 12  1  0
 12 13  1  0
 13 14  2  0
 14 15  1  0
 15 16  2  0
 15 17  1  0
 17 18  1  0
 18 19  1  0
 19 20  2  0
 20 21  1  0
 21 22  2  0
 22 23  1  0
 23 24  2  0
 14 25  1  0
 25 26  2  0
 26 27  1  0
 27 28  2  0
 28 29  1  0
 29 30  2  0
  6 31  1  0
 31 32  2  0
 32  3  1  0
 30 12  1  0
 24 19  1  0
 30 25  1  0
  1 33  1  0
  1 34  1  0
  1 35  1  0
  4 36  1  0
  5 37  1  0
  7 38  1  0
  7 39  1  0
  8 40  1  0
 11 41  1  0
 11 42  1  0
 13 43  1  0
 17 44  1  0
 17 45  1  0
 18 46  1  0
 18 47  1  0
 20 48  1  0
 21 49  1  0
 22 50  1  0
 23 51  1  0
 24 52  1  0
 26 53  1  0
 27 54  1  0
 28 55  1  0
 29 56  1  0
 31 57  1  0
 32 58  1  0
M  END
>  <UniqueID>  (12) 
11

>  <SMILES>  (12) 
COc1ccc(CNC(=O)Cn2cc(C(=O)CCc3ccccc3)c3ccccc32)cc1

>  <Energy>  (12) 
90.26195896435377

>  <Genealogy>  (12) 
COc1ccc(CNC(=O)Cn2cc(C(=O)CCc3ccccc3)c3ccccc32)cc1 (3D coordinates assigned)
COc1ccc(CNC(=O)Cn2cc(C(=O)CCc3ccccc3)c3ccccc32)cc1 (optimized conformer: 90.26195896435377 kcal/mol)

>  <smiles>  (12) 
COc1ccc(CNC(=O)Cn2cc(C(=O)CCc3ccccc3)c3ccccc32)cc1

>  <score_type>  (12) 
oracle

>  <origin>  (12) 
adg

>  <m_score__min__energy>  (12) 
-9.5500000000000007

>  <m_primary>  (12) 
energy

$$$$
12:0
     RDKit          3D

 32 33  0  0  0  0  0  0  0  0999 V2000
   60.9050   34.0250   49.2910 C   0  0  0  0  0  0  0  0  0  0  0  0
   59.6580   34.4240   48.7330 O   0  0  0  0  0  0  0  0  0  0  0  0
   59.2220   34.0840   47.4430 C   0  0  0  0  0  0  0  0  0  0  0  0
   59.3110   34.9760   46.3580 C   0  0  0  0  0  0  0  0  0  0  0  0
   58.8590   34.5900   45.0950 C   0  0  0  0  0  0  0  0  0  0  0  0
   58.3190   33.3170   44.9000 C   0  0  0  0  0  0  0  0  0  0  0  0
   58.2290   32.4110   45.9670 C   0  0  0  0  0  0  0  0  0  0  0  0
   57.6780   31.1030   45.7310 N   0  0  0  0  0  0  0  0  0  0  0  0
   58.6370   29.6760   45.4940 S   0  0  0  0  0  0  0  0  0  0  0  0
   59.2200   29.7200   44.1080 O   0  0  0  0  0  0  0  0  0  0  0  0
   59.7680   29.6690   46.4830 O   0  0  0  0  0  0  0  0  0  0  0  0
   57.6490   28.2180   45.7480 C   0  0  0  0  0  0  0  0  0  0  0  0
   58.2030   27.0380   46.2990 C   0  0  0  0  0  0  0  0  0  0  0  0
   59.6420   26.9380   46.7090 C   0  0  0  0  0  0  0  0  0  0  0  0
   57.4050   25.9550   46.5000 N   0  0  0  0  0  0  0  0  0  0  0  0
   56.0910   25.9690   46.1680 C   0  0  0  0  0  0  0  0  0  0  0  0
   55.3830   24.9490   46.3650 O   0  0  0  0  0  0  0  0  0  0  0  0
   55.5420   27.0810   45.6220 N   0  0  0  0  0  0  0  0  0  0  0  0
   56.2820   28.1960   45.4020 C   0  0  0  0  0  0  0  0  0  0  0  0
   55.7280   29.2030   44.8890 O   0  0  0  0  0  0  0  0  0  0  0  0
   58.6780   32.8090   47.2410 C   0  0  0  0  0  0  0  0  0  0  0  0
   60.8390   34.0461   50.3888 H   0  0  0  0  0  0  0  0  0  0  0  0
   61.1462   33.0048   48.9577 H   0  0  0  0  0  0  0  0  0  0  0  0
   61.6936   34.7157   48.9577 H   0  0  0  0  0  0  0  0  0  0  0  0
   59.7375   35.9792   46.5055 H   0  0  0  0  0  0  0  0  0  0  0  0
   58.9284   35.2911   44.2502 H   0  0  0  0  0  0  0  0  0  0  0  0
   57.9616   33.0226   43.9022 H   0  0  0  0  0  0  0  0  0  0  0  0
   56.6460   31.0030   45.6040 H   0  0  0  0  0  0  0  0  0  0  0  0
   59.7110   26.9332   47.8068 H   0  0  0  0  0  0  0  0  0  0  0  0
   60.0730   26.0077   46.3105 H   0  0  0  0  0  0  0  0  0  0  0  0
   60.1975   27.7997   46.3105 H   0  0  0  0  0  0  0  0  0  0  0  0
   58.6007   32.1106   48.0873 H   0  0  0  0  0  0  0  0  0  0  0  0
  1  2  1  0
  2  3  1  0
  3  4  2  0
  4  5  1  0
  5  6  2  0
  6  7  1  0
  7  8  1  0
  8  9  1  0
  9 10  2  0
  9 11  2  0
  9 12  1  0
 12 13  2  0
 13 14  1  0
 13 15  1  0
 15 16  1  0
 16 17  2  0
 16 18  1  0
 18 19  1  0
 19 20  2  0
  7 21  2  0
 21  3  1  0
 19 12  1  0
  1 22  1  0
  1 23  1  0
  1 24  1  0
  4 25  1  0
  5 26  1  0
  6 27  1  0
  8 28  1  0
 14 29  1  0
 14 30  1  0
 14 31  1  0
 21 32  1  0
M  CHG  2  15  -1  18  -1
M  END
>  <UniqueID>  (13) 
12

>  <SMILES>  (13) 
COc1cccc(NS(=O)(=O)c2c(C)[n-]c(=O)[n-]c2=O)c1

>  <Energy>  (13) 
37.678068540509976

>  <Genealogy>  (13) 
COc1cccc(NS(=O)(=O)c2c(C)[n-]c(=O)[n-]c2=O)c1 (protonated)
COc1cccc(NS(=O)(=O)c2c(C)[n-]c(=O)[n-]c2=O)c1 (3D coordinates assigned)
COc1cccc(NS(=O)(=O)c2c(C)[n-]c(=O)[n-]c2=O)c1 (optimized conformer: 37.678068540509976 kcal/mol)

>  <smiles>  (13) 
COc1cccc(NS(=O)(=O)c2c(C)[nH]c(=O)[nH]c2=O)c1

>  <score_type>  (13) 
oracle

>  <origin>  (13) 
adg

>  <m_score__min__energy>  (13) 
-10.73

>  <m_primary>  (13) 
energy

$$$$
13:0
     RDKit          3D

 36 37  0  0  0  0  0  0  0  0999 V2000
   59.3310   30.9830   48.9190 C   0  0  0  0  0  0  0  0  0  0  0  0
   59.3550   30.2250   47.6180 C   0  0  0  0  0  0  0  0  0  0  0  0
   58.2160   29.5010   47.2250 C   0  0  0  0  0  0  0  0  0  0  0  0
   58.1940   28.8060   46.0100 C   0  0  0  0  0  0  0  0  0  0  0  0
   56.9770   28.1050   45.5640 C   0  0  0  0  0  0  0  0  0  0  0  0
   57.0070   26.8530   45.4300 O   0  0  0  0  0  0  0  0  0  0  0  0
   55.7750   28.8100   45.2250 N   0  0  0  0  0  0  0  0  0  0  0  0
   55.5980   29.6970   44.0750 C   0  0  0  0  0  0  0  0  0  0  0  0
   56.5760   30.8300   44.1180 C   0  0  0  0  0  0  0  0  0  0  0  0
   57.3940   31.2340   43.0820 C   0  0  0  0  0  0  0  0  0  0  0  0
   58.1380   32.2790   43.5880 C   0  0  0  0  0  0  0  0  0  0  0  0
   57.7260   32.4500   44.8940 C   0  0  0  0  0  0  0  0  0  0  0  0
   56.7930   31.5710   45.1800 O   0  0  0  0  0  0  0  0  0  0  0  0
   59.3350   28.7940   45.2020 C   0  0  0  0  0  0  0  0  0  0  0  0
   60.4740   29.5050   45.5820 C   0  0  0  0  0  0  0  0  0  0  0  0
   60.4980   30.2370   46.7830 C   0  0  0  0  0  0  0  0  0  0  0  0
   61.6800   30.9660   47.1650 N   0  0  0  0  0  0  0  0  0  0  0  0
   61.7800   32.6980   47.1290 S   0  0  0  0  0  0  0  0  0  0  0  0
   61.6920   33.3490   48.7830 C   0  0  0  0  0  0  0  0  0  0  0  0
   60.6280   33.2370   46.3270 O   0  0  0  0  0  0  0  0  0  0  0  0
   63.0630   33.1260   46.4730 O   0  0  0  0  0  0  0  0  0  0  0  0
   59.3535   30.2720   49.7581 H   0  0  0  0  0  0  0  0  0  0  0  0
   60.2087   31.6437   48.9746 H   0  0  0  0  0  0  0  0  0  0  0  0
   58.4133   31.5869   48.9746 H   0  0  0  0  0  0  0  0  0  0  0  0
   57.3321   29.4803   47.8795 H   0  0  0  0  0  0  0  0  0  0  0  0
   55.7530   29.1224   43.1499 H   0  0  0  0  0  0  0  0  0  0  0  0
   54.5793   30.1110   44.1043 H   0  0  0  0  0  0  0  0  0  0  0  0
   57.4422   30.8117   42.0674 H   0  0  0  0  0  0  0  0  0  0  0  0
   58.9063   32.8601   43.0569 H   0  0  0  0  0  0  0  0  0  0  0  0
   58.1189   33.2067   45.5890 H   0  0  0  0  0  0  0  0  0  0  0  0
   59.3348   28.2216   44.2627 H   0  0  0  0  0  0  0  0  0  0  0  0
   61.3634   29.4929   44.9349 H   0  0  0  0  0  0  0  0  0  0  0  0
   62.4850   30.4630   47.5990 H   0  0  0  0  0  0  0  0  0  0  0  0
   61.8030   32.5280   49.5066 H   0  0  0  0  0  0  0  0  0  0  0  0
   62.4994   34.0810   48.9324 H   0  0  0  0  0  0  0  0  0  0  0  0
   60.7193   33.8404   48.9324 H   0  0  0  0  0  0  0  0  0  0  0  0
  1  2  1  0
  2  3  2  0
  3  4  1  0
  4  5  1  0
  5  6  2  0
  5  7  1  0
  7  8  1  0
  8  9  1  0
  9 10  2  0
 10 11  1  0
 11 12  2  0
 12 13  1  0
  4 14  2  0
 14 15  1  0
 15 16  2  0
 16 17  1  0
 17 18  1  0
 18 19  1  0
 18 20  2  0
 18 21  2  0
 16  2  1  0
 13  9  1  0
  1 22  1  0
  1 23  1  0
  1 24  1  0
  3 25  1  0
  8 26  1  0
  8 27  1  0
 10 28  1  0
 11 29  1  0
 12 30  1  0
 14 31  1  0
 15 32  1  0
 17 33  1  0
 19 34  1  0
 19 35  1  0
 19 36  1  0
M  CHG  1   7  -1
M  END
>  <UniqueID>  (14) 
13

>  <SMILES>  (14) 
Cc1cc(C(=O)[N-]Cc2ccco2)ccc1NS(C)(=O)=O

>  <Energy>  (14) 
63.69685265997819

>  <Genealogy>  (14) 
Cc1cc(C(=O)[N-]Cc2ccco2)ccc1NS(C)(=O)=O (protonated)
Cc1cc(C(=O)[N-]Cc2ccco2)ccc1NS(C)(=O)=O (3D coordinates assigned)
Cc1cc(C(=O)[N-]Cc2ccco2)ccc1NS(C)(=O)=O (optimized conformer: 63.69685265997819 kcal/mol)

>  <smiles>  (14) 
Cc1cc(C(=O)NCc2ccco2)ccc1NS(C)(=O)=O

>  <score_type>  (14) 
oracle

>  <origin>  (14) 
adg

>  <m_score__min__energy>  (14) 
-9.0800000000000001

>  <m_primary>  (14) 
energy

$$$$
14:0
     RDKit          3D

 50 51  0  0  1  0  0  0  0  0999 V2000
   61.4560   26.5160   51.5100 C   0  0  0  0  0  0  0  0  0  0  0  0
   60.8030   27.7030   50.8400 C   0  0  0  0  0  0  0  0  0  0  0  0
   60.8340   27.6350   49.3350 C   0  0  0  0  0  0  0  0  0  0  0  0
   59.7640   28.5310   48.7010 C   0  0  2  0  0  0  0  0  0  0  0  0
   59.4870   28.0030   47.4280 N   0  0  0  0  0  0  0  0  0  0  0  0
   58.3900   28.0690   46.7690 C   0  0  0  0  0  0  0  0  0  0  0  0
   57.6040   26.9250   46.7500 C   0  0  0  0  0  0  0  0  0  0  0  0
   56.4100   26.9330   46.0560 C   0  0  0  0  0  0  0  0  0  0  0  0
   55.5790   25.8220   45.9990 O   0  0  0  0  0  0  0  0  0  0  0  0
   56.0850   24.6790   45.3430 C   0  0  0  0  0  0  0  0  0  0  0  0
   56.0530   28.0800   45.4140 N   0  0  0  0  0  0  0  0  0  0  0  0
   56.8310   29.1750   45.4470 C   0  0  0  0  0  0  0  0  0  0  0  0
   56.5000   30.3640   44.8020 O   0  0  0  0  0  0  0  0  0  0  0  0
   57.3100   31.4940   44.8290 C   0  0  0  0  0  0  0  0  0  0  0  0
   57.7170   32.1000   43.6580 C   0  0  0  0  0  0  0  0  0  0  0  0
   58.5190   33.2170   43.7240 C   0  0  0  0  0  0  0  0  0  0  0  0
   58.8960   33.7030   44.9560 C   0  0  0  0  0  0  0  0  0  0  0  0
   59.7100   34.8370   44.9640 O   0  0  0  0  0  0  0  0  0  0  0  0
   58.5030   33.1170   46.1510 C   0  0  0  0  0  0  0  0  0  0  0  0
   58.9290   33.6690   47.4300 C   0  0  0  0  0  0  0  0  0  0  0  0
   58.9480   34.9130   47.5790 O   0  0  0  0  0  0  0  0  0  0  0  0
   59.3310   32.8740   48.5340 N   0  0  0  0  0  0  0  0  0  0  0  0
   59.7410   33.5090   49.7720 C   0  0  0  0  0  0  0  0  0  0  0  0
   57.7010   32.0000   46.0730 C   0  0  0  0  0  0  0  0  0  0  0  0
   58.0110   29.1880   46.1240 N   0  0  0  0  0  0  0  0  0  0  0  0
   60.3470   29.8890   48.4770 C   0  0  0  0  0  0  0  0  0  0  0  0
   60.8270   30.5800   49.4170 O   0  0  0  0  0  0  0  0  0  0  0  0
   60.3850   30.4580   47.2000 O   0  0  0  0  0  0  0  0  0  0  0  0
   61.3928   26.6308   52.6022 H   0  0  0  0  0  0  0  0  0  0  0  0
   60.9383   25.5937   51.2077 H   0  0  0  0  0  0  0  0  0  0  0  0
   62.5121   26.4595   51.2077 H   0  0  0  0  0  0  0  0  0  0  0  0
   59.7532   27.7524   51.1649 H   0  0  0  0  0  0  0  0  0  0  0  0
   61.3733   28.5960   51.1357 H   0  0  0  0  0  0  0  0  0  0  0  0
   61.8244   27.9610   48.9845 H   0  0  0  0  0  0  0  0  0  0  0  0
   60.6301   26.5962   49.0361 H   0  0  0  0  0  0  0  0  0  0  0  0
   58.8724   28.5826   49.3432 H   0  0  0  0  0  0  0  0  0  0  0  0
   57.9294   26.0196   47.2833 H   0  0  0  0  0  0  0  0  0  0  0  0
   56.4115   23.9414   46.0909 H   0  0  0  0  0  0  0  0  0  0  0  0
   55.2976   24.2389   44.7135 H   0  0  0  0  0  0  0  0  0  0  0  0
   56.9402   24.9660   44.7135 H   0  0  0  0  0  0  0  0  0  0  0  0
   55.1570   28.1510   44.8680 H   0  0  0  0  0  0  0  0  0  0  0  0
   57.4045   31.6956   42.6839 H   0  0  0  0  0  0  0  0  0  0  0  0
   58.8549   33.7157   42.8029 H   0  0  0  0  0  0  0  0  0  0  0  0
   59.8300   35.4100   45.7750 H   0  0  0  0  0  0  0  0  0  0  0  0
   59.3310   31.8480   48.4550 H   0  0  0  0  0  0  0  0  0  0  0  0
   59.3645   32.9259   50.6254 H   0  0  0  0  0  0  0  0  0  0  0  0
   60.8392   33.5541   49.8147 H   0  0  0  0  0  0  0  0  0  0  0  0
   59.3302   34.5285   49.8147 H   0  0  0  0  0  0  0  0  0  0  0  0
   57.3658   31.5026   46.9951 H   0  0  0  0  0  0  0  0  0  0  0  0
   60.0200   29.9520   46.3890 H   0  0  0  0  0  0  0  0  0  0  0  0
  1  2  1  0
  2  3  1  0
  3  4  1  0
  4  5  1  0
  5  6  2  0
  6  7  1  0
  7  8  2  0
  8  9  1  0
  9 10  1  0
  8 11  1  0
 11 12  1  0
 12 13  1  0
 13 14  1  0
 14 15  2  0
 15 16  1  0
 16 17  2  0
 17 18  1  0
 17 19  1  0
 19 20  1  0
 20 21  2  0
 20 22  1  0
 22 23  1  0
 19 24  2  0
 12 25  2  0
  4 26  1  0
 26 27  2  0
 26 28  1  0
 25  6  1  0
 24 14  1  0
  1 29  1  0
  1 30  1  0
  1 31  1  0
  2 32  1  0
  2 33  1  0
  3 34  1  0
  3 35  1  0
  4 36  1  1
  7 37  1  0
 10 38  1  0
 10 39  1  0
 10 40  1  0
 11 41  1  0
 15 42  1  0
 16 43  1  0
 18 44  1  0
 22 45  1  0
 23 46  1  0
 23 47  1  0
 23 48  1  0
 24 49  1  0
 28 50  1  0
M  END
>  <smiles>  (15) 
CCCC(N=c1cc(OC)[nH]c(Oc2ccc(O)c(C(=O)NC)c2)n1)C(=O)O

>  <score_type>  (15) 
oracle

>  <origin>  (15) 
adg

>  <m_score__min__energy>  (15) 
-7.75

>  <m_primary>  (15) 
energy

$$$$
15:0
     RDKit          3D

 48 51  0  0  0  0  0  0  0  0999 V2000
   58.1380   31.8950   49.9430 C   0  0  0  0  0  0  0  0  0  0  0  0
   59.0650   32.9480   49.7070 O   0  0  0  0  0  0  0  0  0  0  0  0
   59.4590   33.3880   48.4360 C   0  0  0  0  0  0  0  0  0  0  0  0
   58.5330   33.8740   47.4820 C   0  0  0  0  0  0  0  0  0  0  0  0
   58.9660   34.3150   46.2160 C   0  0  0  0  0  0  0  0  0  0  0  0
   60.3250   34.2740   45.8740 C   0  0  0  0  0  0  0  0  0  0  0  0
   61.2220   33.7810   46.8160 C   0  0  0  0  0  0  0  0  0  0  0  0
   60.8140   33.3540   48.0710 C   0  0  0  0  0  0  0  0  0  0  0  0
   61.9290   32.8980   48.8560 N   0  0  0  0  0  0  0  0  0  0  0  0
   61.9190   32.2760   50.1830 C   0  0  0  0  0  0  0  0  0  0  0  0
   61.4550   30.8440   50.1090 C   0  0  0  0  0  0  0  0  0  0  0  0
   61.6850   29.9710   51.1840 C   0  0  0  0  0  0  0  0  0  0  0  0
   61.2750   28.6390   51.1100 C   0  0  0  0  0  0  0  0  0  0  0  0
   60.6410   28.1630   49.9600 C   0  0  0  0  0  0  0  0  0  0  0  0
   60.4160   29.0120   48.8660 C   0  0  0  0  0  0  0  0  0  0  0  0
   59.7400   28.4970   47.7050 N   0  0  0  0  0  0  0  0  0  0  0  0
   60.0680   29.0190   46.0800 S   0  0  0  0  0  0  0  0  0  0  0  0
   60.5770   27.8480   45.2890 O   0  0  0  0  0  0  0  0  0  0  0  0
   61.1330   30.0800   46.1250 O   0  0  0  0  0  0  0  0  0  0  0  0
   58.5980   29.6320   45.3050 C   0  0  0  0  0  0  0  0  0  0  0  0
   58.5390   30.9810   44.9140 C   0  0  0  0  0  0  0  0  0  0  0  0
   57.3860   31.4990   44.3240 C   0  0  0  0  0  0  0  0  0  0  0  0
   56.2730   30.6830   44.1290 C   0  0  0  0  0  0  0  0  0  0  0  0
   56.3150   29.3420   44.5140 C   0  0  0  0  0  0  0  0  0  0  0  0
   57.4670   28.8090   45.1050 C   0  0  0  0  0  0  0  0  0  0  0  0
   57.4170   26.9690   45.6450 Br  0  0  0  0  0  0  0  0  0  0  0  0
   60.8420   30.3520   48.9450 C   0  0  0  0  0  0  0  0  0  0  0  0
   63.0660   33.0370   47.9990 C   0  0  0  0  0  0  0  0  0  0  0  0
   64.2400   32.7070   48.3140 O   0  0  0  0  0  0  0  0  0  0  0  0
   62.6600   33.5930   46.7210 C   0  0  0  0  0  0  0  0  0  0  0  0
   63.3970   33.8420   45.7300 O   0  0  0  0  0  0  0  0  0  0  0  0
   58.0128   31.7527   51.0265 H   0  0  0  0  0  0  0  0  0  0  0  0
   57.1681   32.1525   49.4925 H   0  0  0  0  0  0  0  0  0  0  0  0
   58.5164   30.9656   49.4925 H   0  0  0  0  0  0  0  0  0  0  0  0
   57.4624   33.9077   47.7322 H   0  0  0  0  0  0  0  0  0  0  0  0
   58.2319   34.6945   45.4900 H   0  0  0  0  0  0  0  0  0  0  0  0
   60.6718   34.6215   44.8896 H   0  0  0  0  0  0  0  0  0  0  0  0
   62.9367   32.3026   50.5996 H   0  0  0  0  0  0  0  0  0  0  0  0
   61.2229   32.8355   50.8252 H   0  0  0  0  0  0  0  0  0  0  0  0
   62.1908   30.3385   52.0890 H   0  0  0  0  0  0  0  0  0  0  0  0
   61.4515   27.9625   51.9592 H   0  0  0  0  0  0  0  0  0  0  0  0
   60.3153   27.1134   49.9117 H   0  0  0  0  0  0  0  0  0  0  0  0
   58.9720   27.8010   47.8310 H   0  0  0  0  0  0  0  0  0  0  0  0
   59.4096   31.6338   45.0747 H   0  0  0  0  0  0  0  0  0  0  0  0
   57.3551   32.5534   44.0121 H   0  0  0  0  0  0  0  0  0  0  0  0
   55.3616   31.0957   43.6718 H   0  0  0  0  0  0  0  0  0  0  0  0
   55.4370   28.6995   44.3520 H   0  0  0  0  0  0  0  0  0  0  0  0
   60.6929   31.0213   48.0849 H   0  0  0  0  0  0  0  0  0  0  0  0
  1  2  1  0
  2  3  1  0
  3  4  2  0
  4  5  1  0
  5  6  2  0
  6  7  1  0
  7  8  2  0
  8  9  1  0
  9 10  1  0
 10 11  1  0
 11 12  2  0
 12 13  1  0
 13 14  2  0
 14 15  1  0
 15 16  1  0
 16 17  1  0
 17 18  2  0
 17 19  2  0
 17 20  1  0
 20 21  2  0
 21 22  1  0
 22 23  2  0
 23 24  1  0
 24 25  2  0
 25 26  1  0
 15 27  2  0
  9 28  1  0
 28 29  2  0
 28 30  1  0
 30 31  2  0
  8  3  1  0
 27 11  1  0
 30  7  1  0
 25 20  1  0
  1 32  1  0
  1 33  1  0
  1 34  1  0
  4 35  1  0
  5 36  1  0
  6 37  1  0
 10 38  1  0
 10 39  1  0
 12 40  1  0
 13 41  1  0
 14 42  1  0
 16 43  1  0
 21 44  1  0
 22 45  1  0
 23 46  1  0
 24 47  1  0
 27 48  1  0
M  END
>  <UniqueID>  (16) 
14

>  <SMILES>  (16) 
COc1cccc2c1N(Cc1cccc(NS(=O)(=O)c3ccccc3Br)c1)C(=O)C2=O

>  <Energy>  (16) 
82.2774043368184

>  <Genealogy>  (16) 
COc1cccc2c1N(Cc1cccc(NS(=O)(=O)c3ccccc3Br)c1)C(=O)C2=O (3D coordinates assigned)
COc1cccc2c1N(Cc1cccc(NS(=O)(=O)c3ccccc3Br)c1)C(=O)C2=O (nonaromatic ring conformer: 82.2774043368184 kcal/mol)

>  <smiles>  (16) 
COc1cccc2c1N(Cc1cccc(NS(=O)(=O)c3ccccc3Br)c1)C(=O)C2=O

>  <score_type>  (16) 
oracle

>  <origin>  (16) 
adg

>  <m_score__min__energy>  (16) 
-10.01

>  <m_primary>  (16) 
energy

$$$$
16:0
     RDKit          3D

 40 42  0  0  1  0  0  0  0  0999 V2000
   56.7860   29.0670   42.7090 N   0  0  0  0  0  0  0  0  0  0  0  0
   56.2620   29.9730   43.7220 C   0  0  0  0  0  0  0  0  0  0  0  0
   55.0230   30.0110   43.7900 O   0  0  0  0  0  0  0  0  0  0  0  0
   57.2460   30.6840   44.4830 C   0  0  0  0  0  0  0  0  0  0  0  0
   56.8860   31.9890   44.8690 C   0  0  0  0  0  0  0  0  0  0  0  0
   57.6830   32.7880   45.5610 N   0  0  0  0  0  0  0  0  0  0  0  0
   58.4790   30.2730   44.8690 C   0  0  0  0  0  0  0  0  0  0  0  0
   58.9130   29.1050   44.7340 N   0  0  0  0  0  0  0  0  0  0  0  0
   60.7660   32.6400   47.3740 C   0  0  0  0  0  0  0  0  0  0  0  0
   60.6460   31.6250   48.2880 C   0  0  0  0  0  0  0  0  0  0  0  0
   61.7710   31.2290   48.9900 C   0  0  0  0  0  0  0  0  0  0  0  0
   63.0090   31.8230   48.7990 C   0  0  0  0  0  0  0  0  0  0  0  0
   63.1330   32.8460   47.8780 C   0  0  0  0  0  0  0  0  0  0  0  0
   64.3580   33.4880   47.6380 O   0  0  0  0  0  0  0  0  0  0  0  0
   62.0050   33.2460   47.1710 C   0  0  0  0  0  0  0  0  0  0  0  0
   59.2880   31.1250   45.5850 N   0  0  0  0  0  0  0  0  0  0  0  0
   58.8990   32.3600   45.9260 C   0  0  0  0  0  0  0  0  0  0  0  0
   59.6790   33.1310   46.5950 N   0  0  0  0  0  0  0  0  0  0  0  0
   58.4540   27.9750   45.3870 C   0  0  0  0  0  0  0  0  0  0  0  0
   59.3670   27.1120   46.0150 C   0  0  0  0  0  0  0  0  0  0  0  0
   58.8600   26.0330   46.7240 C   0  0  0  0  0  0  0  0  0  0  0  0
   57.4950   25.8200   46.8070 C   0  0  0  0  0  0  0  0  0  0  0  0
   56.8460   24.4610   47.6990 Cl  0  0  0  0  0  0  0  0  0  0  0  0
   56.5840   26.6590   46.1950 C   0  0  0  0  0  0  0  0  0  0  0  0
   55.2130   26.4710   46.2590 O   0  0  0  0  0  0  0  0  0  0  0  0
   57.0740   27.7360   45.4860 C   0  0  0  0  0  0  0  0  0  0  0  0
   56.2450   28.2360   42.3960 H   0  0  0  0  0  0  0  0  0  0  0  0
   57.7160   29.2260   42.2720 H   0  0  0  0  0  0  0  0  0  0  0  0
   55.8926   32.3636   44.5812 H   0  0  0  0  0  0  0  0  0  0  0  0
   57.3650   33.7490   45.8210 H   0  0  0  0  0  0  0  0  0  0  0  0
   59.6759   31.1357   48.4597 H   0  0  0  0  0  0  0  0  0  0  0  0
   61.6798   30.4153   49.7245 H   0  0  0  0  0  0  0  0  0  0  0  0
   63.8831   31.4838   49.3742 H   0  0  0  0  0  0  0  0  0  0  0  0
   65.1890   32.9540   47.4000 H   0  0  0  0  0  0  0  0  0  0  0  0
   62.0919   34.0588   46.4349 H   0  0  0  0  0  0  0  0  0  0  0  0
   60.2430   30.8350   45.8910 H   0  0  0  0  0  0  0  0  0  0  0  0
   60.4509   27.2865   45.9467 H   0  0  0  0  0  0  0  0  0  0  0  0
   59.5504   25.3390   47.2258 H   0  0  0  0  0  0  0  0  0  0  0  0
   54.7610   26.7060   47.1560 H   0  0  0  0  0  0  0  0  0  0  0  0
   56.3706   28.4203   44.9890 H   0  0  0  0  0  0  0  0  0  0  0  0
  1  2  1  0
  2  3  2  0
  2  4  1  0
  4  5  2  0
  5  6  1  0
  6  7  1  0
  7  8  2  0
  8  9  1  0
  9 10  2  0
 10 11  1  0
 11 12  2  0
 12 13  1  0
 13 14  1  0
 13 15  2  0
  7 16  1  0
 16 17  1  0
 17 18  2  0
 18 19  1  0
 19 20  2  0
 20 21  1  0
 21 22  2  0
 22 23  1  0
 22 24  1  0
 24 25  1  0
 24 26  2  0
 17  4  1  0
 26 19  1  0
 15  9  1  0
  1 27  1  0
  1 28  1  0
  5 29  1  0
  6 30  1  0
 10 31  1  0
 11 32  1  0
 12 33  1  0
 14 34  1  0
 15 35  1  0
 16 36  1  0
 20 37  1  0
 21 38  1  0
 25 39  1  0
 26 40  1  0
M  END
>  <smiles>  (17) 
NC(=O)c1c[nH]c(=Nc2cccc(O)c2)[nH]c1=Nc1ccc(Cl)c(O)c1

>  <score_type>  (17) 
oracle

>  <origin>  (17) 
adg

>  <m_score__min__energy>  (17) 
-9.4199999999999999

>  <m_primary>  (17) 
energy

$$$$
17:0
     RDKit          3D

 48 51  0  0  0  0  0  0  0  0999 V2000
   54.0350   26.3440   46.4410 H   0  0  0  0  0  0  0  0  0  0  0  0
   54.4450   25.7720   45.7130 O   0  0  0  0  0  0  0  0  0  0  0  0
   55.1010   24.5820   46.0130 C   0  0  0  0  0  0  0  0  0  0  0  0
   54.5570   23.3150   46.0050 C   0  0  0  0  0  0  0  0  0  0  0  0
   53.1430   22.9600   45.6840 C   0  0  0  0  0  0  0  0  0  0  0  0
   52.5794   22.8185   46.6180 H   0  0  0  0  0  0  0  0  0  0  0  0
   52.6851   23.7711   45.0987 H   0  0  0  0  0  0  0  0  0  0  0  0
   53.1225   22.0288   45.0987 H   0  0  0  0  0  0  0  0  0  0  0  0
   55.4910   22.4210   46.3950 N   0  0  0  0  0  0  0  0  0  0  0  0
   56.5830   23.1830   46.6230 C   0  0  0  0  0  0  0  0  0  0  0  0
   57.6750   22.7040   47.0330 O   0  0  0  0  0  0  0  0  0  0  0  0
   56.3890   24.4980   46.3870 N   0  0  0  0  0  0  0  0  0  0  0  0
   57.3070   25.6030   46.6640 C   0  0  0  0  0  0  0  0  0  0  0  0
   56.9254   26.1931   47.5102 H   0  0  0  0  0  0  0  0  0  0  0  0
   58.2994   25.2005   46.9150 H   0  0  0  0  0  0  0  0  0  0  0  0
   57.4160   26.4820   45.4490 C   0  0  0  0  0  0  0  0  0  0  0  0
   58.2320   26.0980   44.3740 C   0  0  0  0  0  0  0  0  0  0  0  0
   58.7011   25.1031   44.3693 H   0  0  0  0  0  0  0  0  0  0  0  0
   58.4500   26.9760   43.3100 C   0  0  0  0  0  0  0  0  0  0  0  0
   59.0746   26.6635   42.4602 H   0  0  0  0  0  0  0  0  0  0  0  0
   57.8770   28.2500   43.3220 C   0  0  0  0  0  0  0  0  0  0  0  0
   58.0687   28.9445   42.4908 H   0  0  0  0  0  0  0  0  0  0  0  0
   57.0570   28.6480   44.3910 C   0  0  0  0  0  0  0  0  0  0  0  0
   56.5430   30.0290   44.4660 C   0  0  0  0  0  0  0  0  0  0  0  0
   55.3570   30.2480   44.8360 O   0  0  0  0  0  0  0  0  0  0  0  0
   57.4150   31.1230   44.1680 N   0  0  0  0  0  0  0  0  0  0  0  0
   57.8310   32.1370   45.0930 C   0  0  0  0  0  0  0  0  0  0  0  0
   57.3890   33.4460   44.8590 C   0  0  0  0  0  0  0  0  0  0  0  0
   56.7573   33.6589   43.9840 H   0  0  0  0  0  0  0  0  0  0  0  0
   57.7420   34.4830   45.7250 C   0  0  0  0  0  0  0  0  0  0  0  0
   57.3801   35.5044   45.5361 H   0  0  0  0  0  0  0  0  0  0  0  0
   58.5530   34.2240   46.8290 C   0  0  0  0  0  0  0  0  0  0  0  0
   58.8164   35.0384   47.5199 H   0  0  0  0  0  0  0  0  0  0  0  0
   59.0310   32.9340   47.0590 C   0  0  0  0  0  0  0  0  0  0  0  0
   59.6691   32.7390   47.9335 H   0  0  0  0  0  0  0  0  0  0  0  0
   58.7070   31.8790   46.1860 C   0  0  0  0  0  0  0  0  0  0  0  0
   59.3050   30.5480   46.4600 C   0  0  0  0  0  0  0  0  0  0  0  0
   60.0920   30.0550   45.6090 O   0  0  0  0  0  0  0  0  0  0  0  0
   59.0530   29.7980   47.6610 N   0  0  0  0  0  0  0  0  0  0  0  0
   59.6210   28.6880   48.0270 C   0  0  0  0  0  0  0  0  0  0  0  0
   59.8170   27.6270   47.2150 N   0  0  0  0  0  0  0  0  0  0  0  0
   60.4390   26.6110   47.8710 C   0  0  0  0  0  0  0  0  0  0  0  0
   60.6829   25.6554   47.3838 H   0  0  0  0  0  0  0  0  0  0  0  0
   60.7440   26.8690   49.2030 C   0  0  0  0  0  0  0  0  0  0  0  0
   61.2434   26.1759   49.8960 H   0  0  0  0  0  0  0  0  0  0  0  0
   60.2180   28.4230   49.5720 S   0  0  0  0  0  0  0  0  0  0  0  0
   56.8190   27.7520   45.4440 C   0  0  0  0  0  0  0  0  0  0  0  0
   56.1588   28.0475   46.2728 H   0  0  0  0  0  0  0  0  0  0  0  0
  1  2  1  0
  2  3  1  0
  3  4  2  0
  4  5  1  0
  5  6  1  0
  5  7  1  0
  5  8  1  0
  4  9  1  0
  9 10  1  0
 10 11  2  0
 10 12  1  0
 12 13  1  0
 13 14  1  0
 13 15  1  0
 13 16  1  0
 16 17  2  0
 17 18  1  0
 17 19  1  0
 19 20  1  0
 19 21  2  0
 21 22  1  0
 21 23  1  0
 23 24  1  0
 24 25  2  0
 24 26  1  0
 26 27  1  0
 27 28  2  0
 28 29  1  0
 28 30  1  0
 30 31  1  0
 30 32  2  0
 32 33  1  0
 32 34  1  0
 34 35  1  0
 34 36  2  0
 36 37  1  0
 37 38  2  0
 37 39  1  0
 39 40  2  0
 40 41  1  0
 41 42  1  0
 42 43  1  0
 42 44  2  0
 44 45  1  0
 44 46  1  0
 23 47  2  0
 47 48  1  0
 12  3  1  0
 47 16  1  0
 36 27  1  0
 46 40  1  0
M  CHG  3   9  -1  26  -1  41  -1
M  END
>  <UniqueID>  (18) 
15

>  <SMILES>  (18) 
Cc1[n-]c(=O)n(Cc2cccc(C(=O)[N-]c3ccccc3C(=O)/N=c3\[n-]ccs3)c2)c1O

>  <Energy>  (18) 
124.50964242606243

>  <Genealogy>  (18) 
Cc1[n-]c(=O)n(Cc2cccc(C(=O)[N-]c3ccccc3C(=O)N=c3[n-]ccs3)c2)c1O (protonated)
Cc1[n-]c(=O)n(Cc2cccc(C(=O)[N-]c3ccccc3C(=O)/N=c3\[n-]ccs3)c2)c1O (cis-trans isomerization)
Cc1[n-]c(=O)n(Cc2cccc(C(=O)[N-]c3ccccc3C(=O)/N=c3\[n-]ccs3)c2)c1O (3D coordinates assigned)
Cc1[n-]c(=O)n(Cc2cccc(C(=O)[N-]c3ccccc3C(=O)/N=c3\[n-]ccs3)c2)c1O (optimized conformer: 124.50964242606243 kcal/mol)

>  <smiles>  (18) 
Cc1[nH]c(=O)n(Cc2cccc(C(=O)Nc3ccccc3C(=O)N=c3[nH]ccs3)c2)c1O

>  <score_type>  (18) 
oracle

>  <origin>  (18) 
adg

>  <m_score__min__energy>  (18) 
-13.67

>  <m_primary>  (18) 
energy

$$$$
18:0
     RDKit          3D

 41 43  0  0  0  0  0  0  0  0999 V2000
   60.1840   32.0750   49.5000 O   0  0  0  0  0  0  0  0  0  0  0  0
   60.3520   31.9320   48.2570 C   0  0  0  0  0  0  0  0  0  0  0  0
   61.2740   30.8370   47.7830 C   0  0  0  0  0  0  0  0  0  0  0  0
   60.5290   29.7650   47.0160 C   0  0  0  0  0  0  0  0  0  0  0  0
   60.7910   29.6020   45.6420 C   0  0  0  0  0  0  0  0  0  0  0  0
   60.1300   28.6190   44.9030 C   0  0  0  0  0  0  0  0  0  0  0  0
   59.2100   27.7760   45.5250 C   0  0  0  0  0  0  0  0  0  0  0  0
   58.9550   27.9070   46.8910 C   0  0  0  0  0  0  0  0  0  0  0  0
   59.6120   28.8880   47.6450 C   0  0  0  0  0  0  0  0  0  0  0  0
   59.2590   28.9610   49.3710 Cl  0  0  0  0  0  0  0  0  0  0  0  0
   59.6660   32.8060   47.3330 N   0  0  0  0  0  0  0  0  0  0  0  0
   58.5200   33.6070   47.7910 C   0  0  0  0  0  0  0  0  0  0  0  0
   57.3640   33.5320   46.7820 C   0  0  0  0  0  0  0  0  0  0  0  0
   57.8200   33.6520   45.3000 C   0  0  0  0  0  0  0  0  0  0  0  0
   57.4370   32.4450   44.4630 C   0  0  0  0  0  0  0  0  0  0  0  0
   57.7640   32.3460   43.0980 C   0  0  0  0  0  0  0  0  0  0  0  0
   57.3490   31.2300   42.3690 C   0  0  0  0  0  0  0  0  0  0  0  0
   56.6100   30.2270   42.9950 C   0  0  0  0  0  0  0  0  0  0  0  0
   56.2920   30.3570   44.3500 C   0  0  0  0  0  0  0  0  0  0  0  0
   55.6230   29.4630   44.9300 O   0  0  0  0  0  0  0  0  0  0  0  0
   56.7050   31.4520   45.0420 N   0  0  0  0  0  0  0  0  0  0  0  0
   59.3230   33.9730   45.1570 C   0  0  0  0  0  0  0  0  0  0  0  0
   60.1980   33.0150   45.9760 C   0  0  0  0  0  0  0  0  0  0  0  0
   62.0402   31.2762   47.1272 H   0  0  0  0  0  0  0  0  0  0  0  0
   61.7305   30.3687   48.6675 H   0  0  0  0  0  0  0  0  0  0  0  0
   61.5237   30.2556   45.1461 H   0  0  0  0  0  0  0  0  0  0  0  0
   60.3355   28.5094   43.8279 H   0  0  0  0  0  0  0  0  0  0  0  0
   58.6849   27.0074   44.9389 H   0  0  0  0  0  0  0  0  0  0  0  0
   58.2332   27.2354   47.3788 H   0  0  0  0  0  0  0  0  0  0  0  0
   58.1763   33.2222   48.7625 H   0  0  0  0  0  0  0  0  0  0  0  0
   58.8381   34.6558   47.8854 H   0  0  0  0  0  0  0  0  0  0  0  0
   56.8523   32.5668   46.9110 H   0  0  0  0  0  0  0  0  0  0  0  0
   56.7031   34.3874   46.9856 H   0  0  0  0  0  0  0  0  0  0  0  0
   57.2649   34.5132   44.8996 H   0  0  0  0  0  0  0  0  0  0  0  0
   58.3430   33.1429   42.6084 H   0  0  0  0  0  0  0  0  0  0  0  0
   57.6046   31.1422   41.3027 H   0  0  0  0  0  0  0  0  0  0  0  0
   56.2809   29.3432   42.4289 H   0  0  0  0  0  0  0  0  0  0  0  0
   59.6039   33.8912   44.0966 H   0  0  0  0  0  0  0  0  0  0  0  0
   59.4894   34.9920   45.5364 H   0  0  0  0  0  0  0  0  0  0  0  0
   60.2430   32.0452   45.4589 H   0  0  0  0  0  0  0  0  0  0  0  0
   61.1982   33.4633   46.0684 H   0  0  0  0  0  0  0  0  0  0  0  0
  1  2  2  0
  2  3  1  0
  3  4  1  0
  4  5  2  0
  5  6  1  0
  6  7  2  0
  7  8  1  0
  8  9  2  0
  9 10  1  0
  2 11  1  0
 11 12  1  0
 12 13  1  0
 13 14  1  0
 14 15  1  0
 15 16  2  0
 16 17  1  0
 17 18  2  0
 18 19  1  0
 19 20  2  0
 19 21  1  0
 14 22  1  0
 22 23  1  0
  9  4  1  0
 23 11  1  0
 21 15  1  0
  3 24  1  0
  3 25  1  0
  5 26  1  0
  6 27  1  0
  7 28  1  0
  8 29  1  0
 12 30  1  0
 12 31  1  0
 13 32  1  0
 13 33  1  0
 14 34  1  0
 16 35  1  0
 17 36  1  0
 18 37  1  0
 22 38  1  0
 22 39  1  0
 23 40  1  0
 23 41  1  0
M  CHG  1  21  -1
M  END
>  <UniqueID>  (19) 
16

>  <SMILES>  (19) 
O=C(Cc1ccccc1Cl)N1CCC(c2cccc(=O)[n-]2)CC1

>  <Energy>  (19) 
48.38832947063335

>  <Genealogy>  (19) 
O=C(Cc1ccccc1Cl)N1CCC(c2cccc(=O)[n-]2)CC1 (protonated)
O=C(Cc1ccccc1Cl)N1CCC(c2cccc(=O)[n-]2)CC1 (3D coordinates assigned)
O=C(Cc1ccccc1Cl)N1CCC(c2cccc(=O)[n-]2)CC1 (nonaromatic ring conformer: 48.38832947063335 kcal/mol)

>  <smiles>  (19) 
O=C(Cc1ccccc1Cl)N1CCC(c2cccc(=O)[nH]2)CC1

>  <score_type>  (19) 
oracle

>  <origin>  (19) 
adg

>  <m_score__min__energy>  (19) 
-10.33

>  <m_primary>  (19) 
energy

$$$$
19:0
     RDKit          3D

 56 59  0  0  0  0  0  0  0  0999 V2000
   56.4001   28.3522   44.2225 H   0  0  0  0  0  0  0  0  0  0  0  0
   57.0350   27.9200   45.0100 C   0  0  0  0  0  0  0  0  0  0  0  0
   56.8840   26.6170   45.3590 N   0  0  0  0  0  0  0  0  0  0  0  0
   57.6450   26.0370   46.3280 C   0  0  0  0  0  0  0  0  0  0  0  0
   57.4870   24.7850   46.6410 N   0  0  0  0  0  0  0  0  0  0  0  0
   57.5090   23.6970   45.7070 C   0  0  0  0  0  0  0  0  0  0  0  0
   58.7340   23.0810   45.4180 C   0  0  0  0  0  0  0  0  0  0  0  0
   59.6504   23.4233   45.9211 H   0  0  0  0  0  0  0  0  0  0  0  0
   58.7980   22.0340   44.4940 C   0  0  0  0  0  0  0  0  0  0  0  0
   59.7607   21.5454   44.2831 H   0  0  0  0  0  0  0  0  0  0  0  0
   57.6420   21.6080   43.8390 C   0  0  0  0  0  0  0  0  0  0  0  0
   57.6929   20.7783   43.1186 H   0  0  0  0  0  0  0  0  0  0  0  0
   56.4200   22.2340   44.0970 C   0  0  0  0  0  0  0  0  0  0  0  0
   55.5123   21.8992   43.5736 H   0  0  0  0  0  0  0  0  0  0  0  0
   56.3450   23.2860   45.0190 C   0  0  0  0  0  0  0  0  0  0  0  0
   54.7640   24.1090   45.2640 S   0  0  0  0  0  0  0  0  0  0  0  0
   54.4170   23.2550   46.8320 C   0  0  0  0  0  0  0  0  0  0  0  0
   54.6836   23.9111   47.6737 H   0  0  0  0  0  0  0  0  0  0  0  0
   53.3467   23.0068   46.8853 H   0  0  0  0  0  0  0  0  0  0  0  0
   55.0109   22.3306   46.8853 H   0  0  0  0  0  0  0  0  0  0  0  0
   58.5960   26.8000   47.0080 C   0  0  0  0  0  0  0  0  0  0  0  0
   59.2011   26.3407   47.8036 H   0  0  0  0  0  0  0  0  0  0  0  0
   58.7820   28.1520   46.6790 C   0  0  0  0  0  0  0  0  0  0  0  0
   59.8330   28.9310   47.3760 C   0  0  0  0  0  0  0  0  0  0  0  0
   60.7130   28.3210   48.0420 O   0  0  0  0  0  0  0  0  0  0  0  0
   59.8320   30.3690   47.3290 N   0  0  0  0  0  0  0  0  0  0  0  0
   59.0030   30.8570   46.9200 H   0  0  0  0  0  0  0  0  0  0  0  0
   60.8740   31.1900   47.8820 C   0  0  0  0  0  0  0  0  0  0  0  0
   61.9950   31.5670   47.1190 C   0  0  0  0  0  0  0  0  0  0  0  0
   62.0950   31.2150   46.0816 H   0  0  0  0  0  0  0  0  0  0  0  0
   62.9820   32.3870   47.6740 C   0  0  0  0  0  0  0  0  0  0  0  0
   63.8616   32.6688   47.0766 H   0  0  0  0  0  0  0  0  0  0  0  0
   62.8530   32.8490   48.9860 C   0  0  0  0  0  0  0  0  0  0  0  0
   63.6346   33.4876   49.4235 H   0  0  0  0  0  0  0  0  0  0  0  0
   61.7310   32.5000   49.7430 C   0  0  0  0  0  0  0  0  0  0  0  0
   61.6010   32.9590   51.0120 F   0  0  0  0  0  0  0  0  0  0  0  0
   60.7420   31.6810   49.1910 C   0  0  0  0  0  0  0  0  0  0  0  0
   59.8545   31.4193   49.7858 H   0  0  0  0  0  0  0  0  0  0  0  0
   57.9950   28.7180   45.6470 C   0  0  0  0  0  0  0  0  0  0  0  0
   58.1260   30.1360   45.2510 C   0  0  0  0  0  0  0  0  0  0  0  0
   59.2140   30.5370   44.7590 O   0  0  0  0  0  0  0  0  0  0  0  0
   57.0400   31.0640   45.3850 N   0  0  0  0  0  0  0  0  0  0  0  0
   57.0240   32.4310   44.8680 C   0  0  0  0  0  0  0  0  0  0  0  0
   57.3287   32.4203   43.8111 H   0  0  0  0  0  0  0  0  0  0  0  0
   56.0055   32.8340   44.9690 H   0  0  0  0  0  0  0  0  0  0  0  0
   57.9700   33.3090   45.6460 C   0  0  0  0  0  0  0  0  0  0  0  0
   58.7690   34.2500   44.9780 C   0  0  0  0  0  0  0  0  0  0  0  0
   58.7288   34.3231   43.8812 H   0  0  0  0  0  0  0  0  0  0  0  0
   59.6170   35.0960   45.7030 C   0  0  0  0  0  0  0  0  0  0  0  0
   60.2399   35.8337   45.1759 H   0  0  0  0  0  0  0  0  0  0  0  0
   59.6720   35.0030   47.0970 C   0  0  0  0  0  0  0  0  0  0  0  0
   60.3338   35.6719   47.6667 H   0  0  0  0  0  0  0  0  0  0  0  0
   58.8870   34.0610   47.7670 C   0  0  0  0  0  0  0  0  0  0  0  0
   58.9321   33.9880   48.8636 H   0  0  0  0  0  0  0  0  0  0  0  0
   58.0450   33.2120   47.0450 C   0  0  0  0  0  0  0  0  0  0  0  0
   57.4375   32.4636   47.5749 H   0  0  0  0  0  0  0  0  0  0  0  0
  1  2  1  0
  2  3  1  0
  3  4  1  0
  4  5  2  0
  5  6  1  0
  6  7  2  0
  7  8  1  0
  7  9  1  0
  9 10  1  0
  9 11  2  0
 11 12  1  0
 11 13  1  0
 13 14  1  0
 13 15  2  0
 15 16  1  0
 16 17  1  0
 17 18  1  0
 17 19  1  0
 17 20  1  0
  4 21  1  0
 21 22  1  0
 21 23  2  0
 23 24  1  0
 24 25  2  0
 24 26  1  0
 26 27  1  0
 26 28  1  0
 28 29  2  0
 29 30  1  0
 29 31  1  0
 31 32  1  0
 31 33  2  0
 33 34  1  0
 33 35  1  0
 35 36  1  0
 35 37  2  0
 37 38  1  0
 23 39  1  0
 39 40  1  0
 40 41  2  0
 40 42  1  0
 42 43  1  0
 43 44  1  0
 43 45  1  0
 43 46  1  0
 46 47  2  0
 47 48  1  0
 47 49  1  0
 49 50  1  0
 49 51  2  0
 51 52  1  0
 51 53  1  0
 53 54  1  0
 53 55  2  0
 55 56  1  0
 39  2  2  0
 55 46  1  0
 15  6  1  0
 37 28  1  0
M  CHG  2   3  -1  42  -1
M  END
>  <UniqueID>  (20) 
17

>  <SMILES>  (20) 
CSc1ccccc1/N=c1/cc(C(=O)Nc2cccc(F)c2)c(C(=O)[N-]Cc2ccccc2)c[n-]1

>  <Energy>  (20) 
75.09575457147241

>  <Genealogy>  (20) 
CSc1ccccc1N=c1cc(C(=O)Nc2cccc(F)c2)c(C(=O)[N-]Cc2ccccc2)c[n-]1 (protonated)
CSc1ccccc1/N=c1/cc(C(=O)Nc2cccc(F)c2)c(C(=O)[N-]Cc2ccccc2)c[n-]1 (cis-trans isomerization)
CSc1ccccc1/N=c1/cc(C(=O)Nc2cccc(F)c2)c(C(=O)[N-]Cc2ccccc2)c[n-]1 (3D coordinates assigned)
CSc1ccccc1/N=c1/cc(C(=O)Nc2cccc(F)c2)c(C(=O)[N-]Cc2ccccc2)c[n-]1 (optimized conformer: 75.09575457147241 kcal/mol)

>  <smiles>  (20) 
CSc1ccccc1N=c1cc(C(=O)Nc2cccc(F)c2)c(C(=O)NCc2ccccc2)c[nH]1

>  <score_type>  (20) 
oracle

>  <origin>  (20) 
adg

>  <m_score__min__energy>  (20) 
-11.94

>  <m_primary>  (20) 
energy

$$$$
20:0
     RDKit          3D

 55 58  0  0  0  0  0  0  0  0999 V2000
   59.2210   28.6060   45.1730 C   0  0  0  0  0  0  0  0  0  0  0  0
   58.1510   27.5940   45.4650 C   0  0  0  0  0  0  0  0  0  0  0  0
   56.7710   27.7900   45.4270 C   0  0  0  0  0  0  0  0  0  0  0  0
   56.0210   28.9950   45.2270 N   0  0  0  0  0  0  0  0  0  0  0  0
   56.1240   29.8880   44.1130 C   0  0  0  0  0  0  0  0  0  0  0  0
   55.3830   29.7390   43.1050 O   0  0  0  0  0  0  0  0  0  0  0  0
   57.0660   31.0570   44.1810 C   0  0  0  0  0  0  0  0  0  0  0  0
   57.4770   31.3150   45.5630 N   0  0  0  0  0  0  0  0  0  0  0  0
   58.6900   32.0160   45.8790 C   0  0  0  0  0  0  0  0  0  0  0  0
   58.8090   33.3730   45.5480 C   0  0  0  0  0  0  0  0  0  0  0  0
   59.9010   34.1150   46.0010 C   0  0  0  0  0  0  0  0  0  0  0  0
   60.8980   33.5030   46.7800 C   0  0  0  0  0  0  0  0  0  0  0  0
   61.9730   34.2360   47.2960 O   0  0  0  0  0  0  0  0  0  0  0  0
   62.7750   33.8230   48.3710 C   0  0  0  0  0  0  0  0  0  0  0  0
   63.8500   32.9280   48.2000 C   0  0  0  0  0  0  0  0  0  0  0  0
   64.6460   32.5680   49.2920 C   0  0  0  0  0  0  0  0  0  0  0  0
   64.3760   33.0930   50.5580 C   0  0  0  0  0  0  0  0  0  0  0  0
   63.3170   33.9880   50.7320 C   0  0  0  0  0  0  0  0  0  0  0  0
   62.5230   34.3550   49.6420 C   0  0  0  0  0  0  0  0  0  0  0  0
   60.8240   32.1300   47.0340 C   0  0  0  0  0  0  0  0  0  0  0  0
   59.7220   31.3900   46.5980 C   0  0  0  0  0  0  0  0  0  0  0  0
   56.2360   26.5970   45.8510 C   0  0  0  0  0  0  0  0  0  0  0  0
   55.0090   26.3560   46.0070 O   0  0  0  0  0  0  0  0  0  0  0  0
   57.2230   25.7100   46.0830 N   0  0  0  0  0  0  0  0  0  0  0  0
   57.0390   24.3560   46.5250 C   0  0  0  0  0  0  0  0  0  0  0  0
   56.5550   24.0960   47.8170 C   0  0  0  0  0  0  0  0  0  0  0  0
   56.3640   22.7770   48.2430 C   0  0  0  0  0  0  0  0  0  0  0  0
   56.6420   21.7140   47.3790 C   0  0  0  0  0  0  0  0  0  0  0  0
   57.1090   21.9680   46.0860 C   0  0  0  0  0  0  0  0  0  0  0  0
   57.3040   23.2840   45.6580 C   0  0  0  0  0  0  0  0  0  0  0  0
   58.3890   26.3100   45.8450 N   0  0  0  0  0  0  0  0  0  0  0  0
   59.7140   25.7290   46.0860 C   0  0  0  0  0  0  0  0  0  0  0  0
   59.6288   28.9917   46.1190 H   0  0  0  0  0  0  0  0  0  0  0  0
   60.0262   28.1313   44.5930 H   0  0  0  0  0  0  0  0  0  0  0  0
   58.7919   29.4364   44.5930 H   0  0  0  0  0  0  0  0  0  0  0  0
   57.9573   30.8375   43.5748 H   0  0  0  0  0  0  0  0  0  0  0  0
   56.5498   31.9483   43.7948 H   0  0  0  0  0  0  0  0  0  0  0  0
   57.0170   30.7540   46.3160 H   0  0  0  0  0  0  0  0  0  0  0  0
   58.0384   33.8552   44.9286 H   0  0  0  0  0  0  0  0  0  0  0  0
   59.9816   35.1823   45.7475 H   0  0  0  0  0  0  0  0  0  0  0  0
   64.0636   32.5113   47.2046 H   0  0  0  0  0  0  0  0  0  0  0  0
   65.4855   31.8708   49.1539 H   0  0  0  0  0  0  0  0  0  0  0  0
   64.9970   32.8019   51.4180 H   0  0  0  0  0  0  0  0  0  0  0  0
   63.1080   34.4043   51.7285 H   0  0  0  0  0  0  0  0  0  0  0  0
   61.6954   35.0657   49.7830 H   0  0  0  0  0  0  0  0  0  0  0  0
   61.6376   31.6299   47.5799 H   0  0  0  0  0  0  0  0  0  0  0  0
   59.6622   30.3140   46.8184 H   0  0  0  0  0  0  0  0  0  0  0  0
   56.3255   24.9308   48.4956 H   0  0  0  0  0  0  0  0  0  0  0  0
   55.9945   22.5763   49.2594 H   0  0  0  0  0  0  0  0  0  0  0  0
   56.4933   20.6776   47.7164 H   0  0  0  0  0  0  0  0  0  0  0  0
   57.3232   21.1312   45.4049 H   0  0  0  0  0  0  0  0  0  0  0  0
   57.6664   23.4806   44.6382 H   0  0  0  0  0  0  0  0  0  0  0  0
   59.8892   25.6522   47.1692 H   0  0  0  0  0  0  0  0  0  0  0  0
   59.7626   24.7270   45.6347 H   0  0  0  0  0  0  0  0  0  0  0  0
   60.4839   26.3721   45.6347 H   0  0  0  0  0  0  0  0  0  0  0  0
  1  2  1  0
  2  3  2  0
  3  4  1  0
  4  5  1  0
  5  6  2  0
  5  7  1  0
  7  8  1  0
  8  9  1  0
  9 10  2  0
 10 11  1  0
 11 12  2  0
 12 13  1  0
 13 14  1  0
 14 15  2  0
 15 16  1  0
 16 17  2  0
 17 18  1  0
 18 19  2  0
 12 20  1  0
 20 21  2  0
  3 22  1  0
 22 23  2  0
 22 24  1  0
 24 25  1  0
 25 26  2  0
 26 27  1  0
 27 28  2  0
 28 29  1  0
 29 30  2  0
 24 31  1  0
 31 32  1  0
 31  2  1  0
 21  9  1  0
 30 25  1  0
 19 14  1  0
  1 33  1  0
  1 34  1  0
  1 35  1  0
  7 36  1  0
  7 37  1  0
  8 38  1  0
 10 39  1  0
 11 40  1  0
 15 41  1  0
 16 42  1  0
 17 43  1  0
 18 44  1  0
 19 45  1  0
 20 46  1  0
 21 47  1  0
 26 48  1  0
 27 49  1  0
 28 50  1  0
 29 51  1  0
 30 52  1  0
 32 53  1  0
 32 54  1  0
 32 55  1  0
M  CHG  1   4  -1
M  END
>  <UniqueID>  (21) 
18

>  <SMILES>  (21) 
Cc1c([N-]C(=O)CNc2ccc(Oc3ccccc3)cc2)c(=O)n(-c2ccccc2)n1C

>  <Energy>  (21) 
108.86108349209508

>  <Genealogy>  (21) 
Cc1c([N-]C(=O)CNc2ccc(Oc3ccccc3)cc2)c(=O)n(-c2ccccc2)n1C (protonated)
Cc1c([N-]C(=O)CNc2ccc(Oc3ccccc3)cc2)c(=O)n(-c2ccccc2)n1C (3D coordinates assigned)
Cc1c([N-]C(=O)CNc2ccc(Oc3ccccc3)cc2)c(=O)n(-c2ccccc2)n1C (optimized conformer: 108.86108349209508 kcal/mol)

>  <smiles>  (21) 
Cc1c(NC(=O)CNc2ccc(Oc3ccccc3)cc2)c(=O)n(-c2ccccc2)n1C

>  <score_type>  (21) 
oracle

>  <origin>  (21) 
adg

>  <m_score__min__energy>  (21) 
-11.24

>  <m_primary>  (21) 
energy

$$$$
21:0
     RDKit          3D

 41 43  0  0  0  0  0  0  0  0999 V2000
   58.0290   31.5670   46.2590 C   0  0  0  0  0  0  0  0  0  0  0  0
   57.7170   31.6800   44.7910 C   0  0  0  0  0  0  0  0  0  0  0  0
   57.0000   30.7600   44.0410 C   0  0  0  0  0  0  0  0  0  0  0  0
   56.3980   29.4830   44.4660 C   0  0  0  0  0  0  0  0  0  0  0  0
   55.2010   29.4610   44.8640 O   0  0  0  0  0  0  0  0  0  0  0  0
   57.1670   28.2750   44.4500 N   0  0  0  0  0  0  0  0  0  0  0  0
   58.1050   27.9010   45.4650 C   0  0  0  0  0  0  0  0  0  0  0  0
   59.3610   28.5190   45.4780 C   0  0  0  0  0  0  0  0  0  0  0  0
   60.3070   28.1790   46.4490 C   0  0  0  0  0  0  0  0  0  0  0  0
   60.0100   27.2030   47.4030 C   0  0  0  0  0  0  0  0  0  0  0  0
   58.7720   26.5540   47.3780 C   0  0  0  0  0  0  0  0  0  0  0  0
   57.8180   26.8900   46.4090 C   0  0  0  0  0  0  0  0  0  0  0  0
   56.3240   25.9610   46.3490 Cl  0  0  0  0  0  0  0  0  0  0  0  0
   57.0180   31.2580   42.7520 C   0  0  0  0  0  0  0  0  0  0  0  0
   57.7150   32.4080   42.7270 N   0  0  0  0  0  0  0  0  0  0  0  0
   58.1310   32.6670   43.9580 N   0  0  0  0  0  0  0  0  0  0  0  0
   59.0060   33.8030   44.2600 C   0  0  0  0  0  0  0  0  0  0  0  0
   58.6030   34.4710   45.5810 C   0  0  0  0  0  0  0  0  0  0  0  0
   59.6170   34.2260   46.6690 C   0  0  0  0  0  0  0  0  0  0  0  0
   60.9350   33.8690   46.3410 C   0  0  0  0  0  0  0  0  0  0  0  0
   61.8890   33.6980   47.3470 C   0  0  0  0  0  0  0  0  0  0  0  0
   61.5360   33.8870   48.6870 C   0  0  0  0  0  0  0  0  0  0  0  0
   60.2270   34.2450   49.0210 C   0  0  0  0  0  0  0  0  0  0  0  0
   59.2700   34.4140   48.0170 C   0  0  0  0  0  0  0  0  0  0  0  0
   57.1539   31.8839   46.8453 H   0  0  0  0  0  0  0  0  0  0  0  0
   58.2747   30.5228   46.5023 H   0  0  0  0  0  0  0  0  0  0  0  0
   58.8864   32.2117   46.5023 H   0  0  0  0  0  0  0  0  0  0  0  0
   59.6050   29.2770   44.7192 H   0  0  0  0  0  0  0  0  0  0  0  0
   61.2860   28.6803   46.4619 H   0  0  0  0  0  0  0  0  0  0  0  0
   60.7505   26.9449   48.1744 H   0  0  0  0  0  0  0  0  0  0  0  0
   58.5462   25.7763   48.1224 H   0  0  0  0  0  0  0  0  0  0  0  0
   56.5371   30.7871   41.8819 H   0  0  0  0  0  0  0  0  0  0  0  0
   60.0437   33.4468   44.3389 H   0  0  0  0  0  0  0  0  0  0  0  0
   58.9129   34.5421   43.4507 H   0  0  0  0  0  0  0  0  0  0  0  0
   58.5120   35.5550   45.4177 H   0  0  0  0  0  0  0  0  0  0  0  0
   57.6457   34.0359   45.9040 H   0  0  0  0  0  0  0  0  0  0  0  0
   61.2172   33.7235   45.2878 H   0  0  0  0  0  0  0  0  0  0  0  0
   62.9190   33.4144   47.0849 H   0  0  0  0  0  0  0  0  0  0  0  0
   62.2886   33.7539   49.4781 H   0  0  0  0  0  0  0  0  0  0  0  0
   59.9499   34.3938   50.0751 H   0  0  0  0  0  0  0  0  0  0  0  0
   58.2405   34.6955   48.2834 H   0  0  0  0  0  0  0  0  0  0  0  0
  1  2  1  0
  2  3  2  0
  3  4  1  0
  4  5  2  0
  4  6  1  0
  6  7  1  0
  7  8  2  0
  8  9  1  0
  9 10  2  0
 10 11  1  0
 11 12  2  0
 12 13  1  0
  3 14  1  0
 14 15  2  0
 15 16  1  0
 16 17  1  0
 17 18  1  0
 18 19  1  0
 19 20  2  0
 20 21  1  0
 21 22  2  0
 22 23  1  0
 23 24  2  0
 16  2  1  0
 24 19  1  0
 12  7  1  0
  1 25  1  0
  1 26  1  0
  1 27  1  0
  8 28  1  0
  9 29  1  0
 10 30  1  0
 11 31  1  0
 14 32  1  0
 17 33  1  0
 17 34  1  0
 18 35  1  0
 18 36  1  0
 20 37  1  0
 21 38  1  0
 22 39  1  0
 23 40  1  0
 24 41  1  0
M  CHG  1   6  -1
M  END
>  <UniqueID>  (22) 
19

>  <SMILES>  (22) 
Cc1c(C(=O)[N-]c2ccccc2Cl)cnn1CCc1ccccc1

>  <Energy>  (22) 
75.6559723452925

>  <Genealogy>  (22) 
Cc1c(C(=O)[N-]c2ccccc2Cl)cnn1CCc1ccccc1 (protonated)
Cc1c(C(=O)[N-]c2ccccc2Cl)cnn1CCc1ccccc1 (3D coordinates assigned)
Cc1c(C(=O)[N-]c2ccccc2Cl)cnn1CCc1ccccc1 (optimized conformer: 75.6559723452925 kcal/mol)

>  <smiles>  (22) 
Cc1c(C(=O)Nc2ccccc2Cl)cnn1CCc1ccccc1

>  <score_type>  (22) 
oracle

>  <origin>  (22) 
adg

>  <m_score__min__energy>  (22) 
-9.7699999999999996

>  <m_primary>  (22) 
energy

$$$$
22:0
     RDKit          3D

 50 53  0  0  0  0  0  0  0  0999 V2000
   54.1200   24.9440   45.6180 C   0  0  0  0  0  0  0  0  0  0  0  0
   54.8620   26.1000   45.9880 O   0  0  0  0  0  0  0  0  0  0  0  0
   56.2560   26.2240   45.8630 C   0  0  0  0  0  0  0  0  0  0  0  0
   57.1280   25.1500   46.1330 C   0  0  0  0  0  0  0  0  0  0  0  0
   58.5080   25.3150   46.0130 C   0  0  0  0  0  0  0  0  0  0  0  0
   59.0350   26.5490   45.6320 C   0  0  0  0  0  0  0  0  0  0  0  0
   58.1810   27.6200   45.3580 C   0  0  0  0  0  0  0  0  0  0  0  0
   56.7860   27.4590   45.4510 C   0  0  0  0  0  0  0  0  0  0  0  0
   55.8840   28.5470   45.1970 N   0  0  0  0  0  0  0  0  0  0  0  0
   56.1840   29.7740   44.5190 C   0  0  0  0  0  0  0  0  0  0  0  0
   55.5290   30.1240   43.5000 O   0  0  0  0  0  0  0  0  0  0  0  0
   57.2270   30.6580   45.0540 C   0  0  0  0  0  0  0  0  0  0  0  0
   57.5980   31.8950   44.5200 C   0  0  0  0  0  0  0  0  0  0  0  0
   58.6080   32.5040   45.2670 C   0  0  0  0  0  0  0  0  0  0  0  0
   59.1530   33.7140   45.0030 N   0  0  0  0  0  0  0  0  0  0  0  0
   60.1180   34.2140   45.8280 C   0  0  0  0  0  0  0  0  0  0  0  0
   60.5460   33.5060   46.9280 N   0  0  0  0  0  0  0  0  0  0  0  0
   61.5010   34.1360   47.8500 C   0  0  0  0  0  0  0  0  0  0  0  0
   62.8390   33.4820   47.6940 C   0  0  0  0  0  0  0  0  0  0  0  0
   63.7190   34.0300   46.9770 O   0  0  0  0  0  0  0  0  0  0  0  0
   63.1540   32.3090   48.4520 N   0  0  0  0  0  0  0  0  0  0  0  0
   64.4700   32.1300   49.0550 C   0  0  0  0  0  0  0  0  0  0  0  0
   64.6630   33.1440   50.1500 C   0  0  0  0  0  0  0  0  0  0  0  0
   63.5590   33.6980   50.8130 C   0  0  0  0  0  0  0  0  0  0  0  0
   63.7530   34.5850   51.8740 C   0  0  0  0  0  0  0  0  0  0  0  0
   65.0530   34.9030   52.2700 C   0  0  0  0  0  0  0  0  0  0  0  0
   66.1140   34.3460   51.6300 N   0  0  0  0  0  0  0  0  0  0  0  0
   65.9500   33.4790   50.5950 C   0  0  0  0  0  0  0  0  0  0  0  0
   60.0000   32.2720   47.2040 C   0  0  0  0  0  0  0  0  0  0  0  0
   60.3670   31.6020   48.2090 O   0  0  0  0  0  0  0  0  0  0  0  0
   59.0230   31.7710   46.3540 C   0  0  0  0  0  0  0  0  0  0  0  0
   58.1540   30.3370   46.4370 S   0  0  0  0  0  0  0  0  0  0  0  0
   53.7831   24.4191   46.5240 H   0  0  0  0  0  0  0  0  0  0  0  0
   53.2458   25.2447   45.0219 H   0  0  0  0  0  0  0  0  0  0  0  0
   54.7574   24.2744   45.0219 H   0  0  0  0  0  0  0  0  0  0  0  0
   56.7181   24.1765   46.4400 H   0  0  0  0  0  0  0  0  0  0  0  0
   59.1818   24.4704   46.2192 H   0  0  0  0  0  0  0  0  0  0  0  0
   60.1240   26.6789   45.5472 H   0  0  0  0  0  0  0  0  0  0  0  0
   58.6011   28.5944   45.0680 H   0  0  0  0  0  0  0  0  0  0  0  0
   57.1479   32.3362   43.6185 H   0  0  0  0  0  0  0  0  0  0  0  0
   60.5604   35.1974   45.6108 H   0  0  0  0  0  0  0  0  0  0  0  0
   61.5856   35.2076   47.6167 H   0  0  0  0  0  0  0  0  0  0  0  0
   61.1493   34.0167   48.8854 H   0  0  0  0  0  0  0  0  0  0  0  0
   62.3710   31.7220   48.8150 H   0  0  0  0  0  0  0  0  0  0  0  0
   64.5453   31.1167   49.4764 H   0  0  0  0  0  0  0  0  0  0  0  0
   65.2462   32.2671   48.2878 H   0  0  0  0  0  0  0  0  0  0  0  0
   62.5390   33.4338   50.4972 H   0  0  0  0  0  0  0  0  0  0  0  0
   62.8901   35.0285   52.3923 H   0  0  0  0  0  0  0  0  0  0  0  0
   65.2186   35.6049   53.1006 H   0  0  0  0  0  0  0  0  0  0  0  0
   66.8308   33.0386   50.1048 H   0  0  0  0  0  0  0  0  0  0  0  0
  1  2  1  0
  2  3  1  0
  3  4  2  0
  4  5  1  0
  5  6  2  0
  6  7  1  0
  7  8  2  0
  8  9  1  0
  9 10  1  0
 10 11  2  0
 10 12  1  0
 12 13  2  0
 13 14  1  0
 14 15  1  0
 15 16  2  0
 16 17  1  0
 17 18  1  0
 18 19  1  0
 19 20  2  0
 19 21  1  0
 21 22  1  0
 22 23  1  0
 23 24  2  0
 24 25  1  0
 25 26  2  0
 26 27  1  0
 27 28  2  0
 17 29  1  0
 29 30  2  0
 29 31  1  0
 31 32  1  0
  8  3  1  0
 32 12  1  0
 31 14  2  0
 28 23  1  0
  1 33  1  0
  1 34  1  0
  1 35  1  0
  4 36  1  0
  5 37  1  0
  6 38  1  0
  7 39  1  0
 13 40  1  0
 16 41  1  0
 18 42  1  0
 18 43  1  0
 21 44  1  0
 22 45  1  0
 22 46  1  0
 24 47  1  0
 25 48  1  0
 26 49  1  0
 28 50  1  0
M  CHG  1   9  -1
M  END
>  <UniqueID>  (23) 
20

>  <SMILES>  (23) 
COc1ccccc1[N-]C(=O)c1cc2ncn(CC(=O)NCc3cccnc3)c(=O)c2s1

>  <Energy>  (23) 
85.31371168023797

>  <Genealogy>  (23) 
COc1ccccc1[N-]C(=O)c1cc2ncn(CC(=O)NCc3cccnc3)c(=O)c2s1 (protonated)
COc1ccccc1[N-]C(=O)c1cc2ncn(CC(=O)NCc3cccnc3)c(=O)c2s1 (3D coordinates assigned)
COc1ccccc1[N-]C(=O)c1cc2ncn(CC(=O)NCc3cccnc3)c(=O)c2s1 (optimized conformer: 85.31371168023797 kcal/mol)

>  <smiles>  (23) 
COc1ccccc1NC(=O)c1cc2ncn(CC(=O)NCc3cccnc3)c(=O)c2s1

>  <score_type>  (23) 
oracle

>  <origin>  (23) 
adg

>  <m_score__min__energy>  (23) 
-10.52

>  <m_primary>  (23) 
energy

$$$$
23:0
     RDKit          3D

 41 43  0  0  0  0  0  0  0  0999 V2000
   50.6160   30.3180   47.8560 H   0  0  0  0  0  0  0  0  0  0  0  0
   51.3320   29.8970   48.4360 O   0  0  0  0  0  0  0  0  0  0  0  0
   51.6920   30.4320   49.6730 C   0  0  0  0  0  0  0  0  0  0  0  0
   52.5960   29.7320   50.4790 C   0  0  0  0  0  0  0  0  0  0  0  0
   53.0088   28.7746   50.1285 H   0  0  0  0  0  0  0  0  0  0  0  0
   52.9830   30.2390   51.7330 C   0  0  0  0  0  0  0  0  0  0  0  0
   53.9420   29.4940   52.5830 C   0  0  0  0  0  0  0  0  0  0  0  0
   53.7600   28.2670   52.8090 O   0  0  0  0  0  0  0  0  0  0  0  0
   55.0460   30.1800   53.1910 N   0  0  0  0  0  0  0  0  0  0  0  0
   56.1630   30.7740   52.5130 C   0  0  0  0  0  0  0  0  0  0  0  0
   56.2960   32.1680   52.3720 C   0  0  0  0  0  0  0  0  0  0  0  0
   55.5215   32.8368   52.7755 H   0  0  0  0  0  0  0  0  0  0  0  0
   57.4090   32.7040   51.7210 C   0  0  0  0  0  0  0  0  0  0  0  0
   57.5015   33.7935   51.6005 H   0  0  0  0  0  0  0  0  0  0  0  0
   58.4060   31.8610   51.2220 C   0  0  0  0  0  0  0  0  0  0  0  0
   59.2751   32.2874   50.6997 H   0  0  0  0  0  0  0  0  0  0  0  0
   58.3000   30.4750   51.3860 C   0  0  0  0  0  0  0  0  0  0  0  0
   59.5580   29.4140   50.7610 S   0  0  0  0  0  0  0  0  0  0  0  0
   59.8390   28.3390   51.7730 O   0  0  0  0  0  0  0  0  0  0  0  0
   60.8040   30.2120   50.4970 O   0  0  0  0  0  0  0  0  0  0  0  0
   59.0170   28.7010   49.2750 N   0  0  0  0  0  0  0  0  0  0  0  0
   59.5150   28.9750   48.1070 C   0  0  0  0  0  0  0  0  0  0  0  0
   60.2700   30.1350   47.8140 N   0  0  0  0  0  0  0  0  0  0  0  0
   60.5070   30.9020   48.4810 H   0  0  0  0  0  0  0  0  0  0  0  0
   60.6600   30.1310   46.4190 C   0  0  0  0  0  0  0  0  0  0  0  0
   61.7560   30.1585   46.3295 H   0  0  0  0  0  0  0  0  0  0  0  0
   60.2648   31.0108   45.8901 H   0  0  0  0  0  0  0  0  0  0  0  0
   60.1080   28.8220   45.8210 C   0  0  0  0  0  0  0  0  0  0  0  0
   60.9368   28.1931   45.4638 H   0  0  0  0  0  0  0  0  0  0  0  0
   59.4464   29.0337   44.9681 H   0  0  0  0  0  0  0  0  0  0  0  0
   59.3400   28.0950   46.9350 C   0  0  0  0  0  0  0  0  0  0  0  0
   59.7692   27.0999   47.1233 H   0  0  0  0  0  0  0  0  0  0  0  0
   58.2831   27.9223   46.6836 H   0  0  0  0  0  0  0  0  0  0  0  0
   57.1780   29.9360   52.0330 C   0  0  0  0  0  0  0  0  0  0  0  0
   57.0945   28.8471   52.1645 H   0  0  0  0  0  0  0  0  0  0  0  0
   52.4480   31.4660   52.1640 C   0  0  0  0  0  0  0  0  0  0  0  0
   52.7427   31.8769   53.1409 H   0  0  0  0  0  0  0  0  0  0  0  0
   51.5440   32.1680   51.3600 C   0  0  0  0  0  0  0  0  0  0  0  0
   51.0250   33.3800   51.8030 O   0  0  0  0  0  0  0  0  0  0  0  0
   51.1640   31.6550   50.1150 C   0  0  0  0  0  0  0  0  0  0  0  0
   50.2660   32.3610   49.3230 O   0  0  0  0  0  0  0  0  0  0  0  0
  1  2  1  0
  2  3  1  0
  3  4  2  0
  4  5  1  0
  4  6  1  0
  6  7  1  0
  7  8  2  0
  7  9  1  0
  9 10  1  0
 10 11  2  0
 11 12  1  0
 11 13  1  0
 13 14  1  0
 13 15  2  0
 15 16  1  0
 15 17  1  0
 17 18  1  0
 18 19  2  0
 18 20  2  0
 18 21  1  0
 21 22  2  0
 22 23  1  0
 23 24  1  0
 23 25  1  0
 25 26  1  0
 25 27  1  0
 25 28  1  0
 28 29  1  0
 28 30  1  0
 28 31  1  0
 31 32  1  0
 31 33  1  0
 17 34  2  0
 34 35  1  0
  6 36  2  0
 36 37  1  0
 36 38  1  0
 38 39  1  0
 38 40  2  0
 40 41  1  0
 40  3  1  0
 34 10  1  0
 31 22  1  0
M  CHG  3   9  -1  39  -1  41  -1
M  END
>  <UniqueID>  (24) 
21

>  <SMILES>  (24) 
O=C([N-]c1cccc(S(=O)(=O)/N=C2/CCCN2)c1)c1cc([O-])c([O-])c(O)c1

>  <Energy>  (24) 
56.76055476060039

>  <Genealogy>  (24) 
O=C([N-]c1cccc(S(=O)(=O)N=C2CCCN2)c1)c1cc([O-])c([O-])c(O)c1 (protonated)
O=C([N-]c1cccc(S(=O)(=O)/N=C2/CCCN2)c1)c1cc([O-])c([O-])c(O)c1 (cis-trans isomerization)
O=C([N-]c1cccc(S(=O)(=O)/N=C2/CCCN2)c1)c1cc([O-])c([O-])c(O)c1 (3D coordinates assigned)
O=C([N-]c1cccc(S(=O)(=O)/N=C2/CCCN2)c1)c1cc([O-])c([O-])c(O)c1 (nonaromatic ring conformer: 56.76055476060039 kcal/mol)

>  <smiles>  (24) 
O=C(Nc1cccc(S(=O)(=O)N=C2CCCN2)c1)c1cc(O)c(O)c(O)c1

>  <score_type>  (24) 
oracle

>  <origin>  (24) 
adg

>  <m_score__min__energy>  (24) 
-17.899999999999999

>  <m_primary>  (24) 
energy

$$$$
24:0
     RDKit          3D

 31 33  0  0  0  0  0  0  0  0999 V2000
   54.7760   26.3400   45.9810 N   0  0  0  0  0  0  0  0  0  0  0  0
   56.0410   25.2190   46.3420 S   0  0  0  0  0  0  0  0  0  0  0  0
   56.5080   24.5690   45.0710 O   0  0  0  0  0  0  0  0  0  0  0  0
   55.5210   24.1660   47.2800 O   0  0  0  0  0  0  0  0  0  0  0  0
   57.3960   26.0900   47.1060 C   0  0  0  0  0  0  0  0  0  0  0  0
   57.9360   27.1170   46.1690 C   0  0  0  0  0  0  0  0  0  0  0  0
   57.2230   27.6420   45.1500 N   0  0  0  0  0  0  0  0  0  0  0  0
   57.8980   28.6430   44.5230 C   0  0  0  0  0  0  0  0  0  0  0  0
   57.2850   29.4280   43.4030 C   0  0  0  0  0  0  0  0  0  0  0  0
   55.9320   30.5010   44.0060 S   0  0  0  0  0  0  0  0  0  0  0  0
   57.0170   31.7150   44.7540 C   0  0  0  0  0  0  0  0  0  0  0  0
   57.5210   31.5640   46.0070 N   0  0  0  0  0  0  0  0  0  0  0  0
   58.2900   32.6530   46.1390 C   0  0  0  0  0  0  0  0  0  0  0  0
   59.0670   33.0190   47.2340 C   0  0  0  0  0  0  0  0  0  0  0  0
   59.8070   34.2130   47.1410 C   0  0  0  0  0  0  0  0  0  0  0  0
   59.7490   35.0000   45.9660 C   0  0  0  0  0  0  0  0  0  0  0  0
   58.9510   34.5960   44.8780 C   0  0  0  0  0  0  0  0  0  0  0  0
   58.2340   33.4090   45.0080 C   0  0  0  0  0  0  0  0  0  0  0  0
   57.4280   32.8340   44.1040 N   0  0  0  0  0  0  0  0  0  0  0  0
   59.1560   28.9300   45.0500 C   0  0  0  0  0  0  0  0  0  0  0  0
   59.4160   27.8960   46.3490 S   0  0  0  0  0  0  0  0  0  0  0  0
   55.1980   27.2960   46.0070 H   0  0  0  0  0  0  0  0  0  0  0  0
   57.0409   26.5840   48.0224 H   0  0  0  0  0  0  0  0  0  0  0  0
   58.1925   25.3727   47.3532 H   0  0  0  0  0  0  0  0  0  0  0  0
   58.0602   30.0555   42.9390 H   0  0  0  0  0  0  0  0  0  0  0  0
   56.8673   28.7207   42.6714 H   0  0  0  0  0  0  0  0  0  0  0  0
   59.1017   32.3970   48.1406 H   0  0  0  0  0  0  0  0  0  0  0  0
   60.4334   34.5359   47.9856 H   0  0  0  0  0  0  0  0  0  0  0  0
   60.3301   35.9318   45.9022 H   0  0  0  0  0  0  0  0  0  0  0  0
   58.8960   35.1967   43.9581 H   0  0  0  0  0  0  0  0  0  0  0  0
   59.8539   29.6963   44.6815 H   0  0  0  0  0  0  0  0  0  0  0  0
  1  2  1  0
  2  3  2  0
  2  4  2  0
  2  5  1  0
  5  6  1  0
  6  7  2  0
  7  8  1  0
  8  9  1  0
  9 10  1  0
 10 11  1  0
 11 12  2  0
 12 13  1  0
 13 14  2  0
 14 15  1  0
 15 16  2  0
 16 17  1  0
 17 18  2  0
 18 19  1  0
  8 20  2  0
 20 21  1  0
 21  6  1  0
 19 11  1  0
 18 13  1  0
  1 22  1  0
  5 23  1  0
  5 24  1  0
  9 25  1  0
  9 26  1  0
 14 27  1  0
 15 28  1  0
 16 29  1  0
 17 30  1  0
 20 31  1  0
M  CHG  2   1  -1  19  -1
M  END
>  <UniqueID>  (25) 
22

>  <SMILES>  (25) 
[NH-]S(=O)(=O)Cc1nc(CSc2nc3ccccc3[n-]2)cs1

>  <Energy>  (25) 
84.86891563420285

>  <Genealogy>  (25) 
[NH-]S(=O)(=O)Cc1nc(CSc2nc3ccccc3[n-]2)cs1 (protonated)
[NH-]S(=O)(=O)Cc1nc(CSc2nc3ccccc3[n-]2)cs1 (3D coordinates assigned)
[NH-]S(=O)(=O)Cc1nc(CSc2nc3ccccc3[n-]2)cs1 (optimized conformer: 84.86891563420285 kcal/mol)

>  <smiles>  (25) 
NS(=O)(=O)Cc1nc(CSc2nc3ccccc3[nH]2)cs1

>  <score_type>  (25) 
oracle

>  <origin>  (25) 
adg

>  <m_score__min__energy>  (25) 
-12.449999999999999

>  <m_primary>  (25) 
energy

$$$$
25:0
     RDKit          3D

 47 49  0  0  0  0  0  0  0  0999 V2000
   65.0410   33.8670   51.6110 C   0  0  0  0  0  0  0  0  0  0  0  0
   63.7130   34.0260   51.1220 O   0  0  0  0  0  0  0  0  0  0  0  0
   63.3330   33.8370   49.7850 C   0  0  0  0  0  0  0  0  0  0  0  0
   64.1850   33.2420   48.8360 C   0  0  0  0  0  0  0  0  0  0  0  0
   63.7670   33.1000   47.5090 C   0  0  0  0  0  0  0  0  0  0  0  0
   62.5030   33.5450   47.1190 C   0  0  0  0  0  0  0  0  0  0  0  0
   61.6360   34.1180   48.0560 C   0  0  0  0  0  0  0  0  0  0  0  0
   60.3820   34.5750   47.6240 O   0  0  0  0  0  0  0  0  0  0  0  0
   59.4260   33.7910   46.9660 C   0  0  0  0  0  0  0  0  0  0  0  0
   59.0860   32.5080   47.4230 C   0  0  0  0  0  0  0  0  0  0  0  0
   58.1340   31.7620   46.7270 C   0  0  0  0  0  0  0  0  0  0  0  0
   57.5040   32.3080   45.5980 C   0  0  0  0  0  0  0  0  0  0  0  0
   56.4920   31.5970   44.8660 N   0  0  0  0  0  0  0  0  0  0  0  0
   56.6330   30.3350   44.1960 C   0  0  0  0  0  0  0  0  0  0  0  0
   55.9300   30.1210   43.1720 O   0  0  0  0  0  0  0  0  0  0  0  0
   57.5350   29.2670   44.6880 C   0  0  0  0  0  0  0  0  0  0  0  0
   58.9220   29.3810   44.5020 C   0  0  0  0  0  0  0  0  0  0  0  0
   59.7840   28.3970   44.9920 C   0  0  0  0  0  0  0  0  0  0  0  0
   59.2720   27.2950   45.6790 C   0  0  0  0  0  0  0  0  0  0  0  0
   57.8870   27.1620   45.8730 C   0  0  0  0  0  0  0  0  0  0  0  0
   57.3380   26.0580   46.6100 N   0  0  0  0  0  0  0  0  0  0  0  0
   55.8940   25.2280   46.1210 S   0  0  0  0  0  0  0  0  0  0  0  0
   56.1660   24.3840   44.5760 C   0  0  0  0  0  0  0  0  0  0  0  0
   54.7630   26.2070   45.9860 O   0  0  0  0  0  0  0  0  0  0  0  0
   55.5390   24.2110   47.1690 O   0  0  0  0  0  0  0  0  0  0  0  0
   57.0240   28.1300   45.3400 C   0  0  0  0  0  0  0  0  0  0  0  0
   57.9070   33.5680   45.1480 C   0  0  0  0  0  0  0  0  0  0  0  0
   58.8460   34.2720   45.8340 N   0  0  0  0  0  0  0  0  0  0  0  0
   62.0610   34.2670   49.3880 C   0  0  0  0  0  0  0  0  0  0  0  0
   65.0293   33.8684   52.7109 H   0  0  0  0  0  0  0  0  0  0  0  0
   65.4530   32.9131   51.2499 H   0  0  0  0  0  0  0  0  0  0  0  0
   65.6665   34.6967   51.2499 H   0  0  0  0  0  0  0  0  0  0  0  0
   65.1816   32.8880   49.1385 H   0  0  0  0  0  0  0  0  0  0  0  0
   64.4368   32.6360   46.7701 H   0  0  0  0  0  0  0  0  0  0  0  0
   62.1869   33.4448   46.0702 H   0  0  0  0  0  0  0  0  0  0  0  0
   59.5659   32.0942   48.3221 H   0  0  0  0  0  0  0  0  0  0  0  0
   57.8775   30.7465   47.0631 H   0  0  0  0  0  0  0  0  0  0  0  0
   59.3323   30.2503   43.9673 H   0  0  0  0  0  0  0  0  0  0  0  0
   60.8689   28.4908   44.8361 H   0  0  0  0  0  0  0  0  0  0  0  0
   59.9560   26.5274   46.0702 H   0  0  0  0  0  0  0  0  0  0  0  0
   57.9250   25.5940   47.3390 H   0  0  0  0  0  0  0  0  0  0  0  0
   56.4979   23.3542   44.7742 H   0  0  0  0  0  0  0  0  0  0  0  0
   55.2292   24.3628   43.9999 H   0  0  0  0  0  0  0  0  0  0  0  0
   56.9389   24.9138   43.9999 H   0  0  0  0  0  0  0  0  0  0  0  0
   55.9358   27.9990   45.4327 H   0  0  0  0  0  0  0  0  0  0  0  0
   57.4628   33.9918   44.2353 H   0  0  0  0  0  0  0  0  0  0  0  0
   61.3870   34.7263   50.1261 H   0  0  0  0  0  0  0  0  0  0  0  0
  1  2  1  0
  2  3  1  0
  3  4  2  0
  4  5  1  0
  5  6  2  0
  6  7  1  0
  7  8  1  0
  8  9  1  0
  9 10  2  0
 10 11  1  0
 11 12  2  0
 12 13  1  0
 13 14  1  0
 14 15  2  0
 14 16  1  0
 16 17  2  0
 17 18  1  0
 18 19  2  0
 19 20  1  0
 20 21  1  0
 21 22  1  0
 22 23  1  0
 22 24  2  0
 22 25  2  0
 20 26  2  0
 12 27  1  0
 27 28  2  0
  7 29  2  0
 29  3  1  0
 28  9  1  0
 26 16  1  0
  1 30  1  0
  1 31  1  0
  1 32  1  0
  4 33  1  0
  5 34  1  0
  6 35  1  0
 10 36  1  0
 11 37  1  0
 17 38  1  0
 18 39  1  0
 19 40  1  0
 21 41  1  0
 23 42  1  0
 23 43  1  0
 23 44  1  0
 26 45  1  0
 27 46  1  0
 29 47  1  0
M  CHG  1  13  -1
M  END
>  <UniqueID>  (26) 
23

>  <SMILES>  (26) 
COc1cccc(Oc2ccc([N-]C(=O)c3cccc(NS(C)(=O)=O)c3)cn2)c1

>  <Energy>  (26) 
59.5158208579265

>  <Genealogy>  (26) 
COc1cccc(Oc2ccc([N-]C(=O)c3cccc(NS(C)(=O)=O)c3)cn2)c1 (protonated)
COc1cccc(Oc2ccc([N-]C(=O)c3cccc(NS(C)(=O)=O)c3)cn2)c1 (3D coordinates assigned)
COc1cccc(Oc2ccc([N-]C(=O)c3cccc(NS(C)(=O)=O)c3)cn2)c1 (optimized conformer: 59.5158208579265 kcal/mol)

>  <smiles>  (26) 
COc1cccc(Oc2ccc(NC(=O)c3cccc(NS(C)(=O)=O)c3)cn2)c1

>  <score_type>  (26) 
oracle

>  <origin>  (26) 
adg

>  <m_score__min__energy>  (26) 
-10.77

>  <m_primary>  (26) 
energy

$$$$
26:0
     RDKit          3D

 56 57  0  0  0  0  0  0  0  0999 V2000
   59.2980   30.9980   49.6220 C   0  0  0  0  0  0  0  0  0  0  0  0
   58.6840   32.2580   49.3720 O   0  0  0  0  0  0  0  0  0  0  0  0
   58.8840   33.0250   48.2140 C   0  0  0  0  0  0  0  0  0  0  0  0
   57.9700   33.0140   47.1430 C   0  0  0  0  0  0  0  0  0  0  0  0
   58.1950   33.8020   46.0050 C   0  0  0  0  0  0  0  0  0  0  0  0
   57.1700   33.8420   44.9020 C   0  0  0  0  0  0  0  0  0  0  0  0
   57.3860   32.7350   43.9750 N   0  0  0  0  0  0  0  0  0  0  0  0
   57.2880   31.3510   44.3310 C   0  0  0  0  0  0  0  0  0  0  0  0
   56.1880   30.9070   44.7550 O   0  0  0  0  0  0  0  0  0  0  0  0
   58.4560   30.4530   44.2370 C   0  0  0  0  0  0  0  0  0  0  0  0
   59.2080   30.0760   45.2810 C   0  0  0  0  0  0  0  0  0  0  0  0
   59.0570   28.8010   46.0160 C   0  0  0  0  0  0  0  0  0  0  0  0
   59.9420   28.4430   47.0500 C   0  0  0  0  0  0  0  0  0  0  0  0
   59.7540   27.2530   47.7570 C   0  0  0  0  0  0  0  0  0  0  0  0
   58.6740   26.4200   47.4530 C   0  0  0  0  0  0  0  0  0  0  0  0
   57.7660   26.7830   46.4490 C   0  0  0  0  0  0  0  0  0  0  0  0
   56.3910   25.7510   46.0650 S   0  0  0  0  0  0  0  0  0  0  0  0
   56.6610   24.9770   44.5430 N   0  0  0  0  0  0  0  0  0  0  0  0
   56.2150   24.7050   47.1290 O   0  0  0  0  0  0  0  0  0  0  0  0
   55.1430   26.5880   45.9960 O   0  0  0  0  0  0  0  0  0  0  0  0
   57.9570   27.9770   45.7400 C   0  0  0  0  0  0  0  0  0  0  0  0
   59.3490   34.5930   45.9330 C   0  0  0  0  0  0  0  0  0  0  0  0
   60.2610   34.6070   46.9890 C   0  0  0  0  0  0  0  0  0  0  0  0
   60.0360   33.8240   48.1370 C   0  0  0  0  0  0  0  0  0  0  0  0
   60.9220   33.8140   49.2280 O   0  0  0  0  0  0  0  0  0  0  0  0
   62.3100   34.1430   49.1770 C   0  0  0  0  0  0  0  0  0  0  0  0
   63.1930   32.8860   49.1790 C   0  0  0  0  0  0  0  0  0  0  0  0
   63.3330   32.3300   47.8140 N   0  0  0  0  0  0  0  0  0  0  0  0
   62.2330   31.4010   47.4980 C   0  0  0  0  0  0  0  0  0  0  0  0
   63.3500   33.4160   46.8210 C   0  0  0  0  0  0  0  0  0  0  0  0
   59.3764   30.8372   50.7074 H   0  0  0  0  0  0  0  0  0  0  0  0
   58.6886   30.1982   49.1759 H   0  0  0  0  0  0  0  0  0  0  0  0
   60.3034   30.9851   49.1759 H   0  0  0  0  0  0  0  0  0  0  0  0
   57.0716   32.3818   47.1994 H   0  0  0  0  0  0  0  0  0  0  0  0
   56.1633   33.7602   45.3379 H   0  0  0  0  0  0  0  0  0  0  0  0
   57.2659   34.7922   44.3562 H   0  0  0  0  0  0  0  0  0  0  0  0
   58.7276   30.0672   43.2433 H   0  0  0  0  0  0  0  0  0  0  0  0
   59.9962   30.7663   45.6161 H   0  0  0  0  0  0  0  0  0  0  0  0
   60.7851   29.1029   47.3025 H   0  0  0  0  0  0  0  0  0  0  0  0
   60.4573   26.9711   48.5544 H   0  0  0  0  0  0  0  0  0  0  0  0
   58.5362   25.4773   48.0029 H   0  0  0  0  0  0  0  0  0  0  0  0
   55.8420   24.3520   44.3690 H   0  0  0  0  0  0  0  0  0  0  0  0
   56.6330   25.7210   43.8110 H   0  0  0  0  0  0  0  0  0  0  0  0
   57.2379   28.2698   44.9608 H   0  0  0  0  0  0  0  0  0  0  0  0
   59.5371   35.2062   45.0394 H   0  0  0  0  0  0  0  0  0  0  0  0
   61.1622   35.2344   46.9239 H   0  0  0  0  0  0  0  0  0  0  0  0
   62.5070   34.7154   48.2586 H   0  0  0  0  0  0  0  0  0  0  0  0
   62.5548   34.7351   50.0711 H   0  0  0  0  0  0  0  0  0  0  0  0
   64.1896   33.1478   49.5641 H   0  0  0  0  0  0  0  0  0  0  0  0
   62.7183   32.1269   49.8181 H   0  0  0  0  0  0  0  0  0  0  0  0
   61.7895   31.0265   48.4324 H   0  0  0  0  0  0  0  0  0  0  0  0
   61.4648   31.9278   46.9129 H   0  0  0  0  0  0  0  0  0  0  0  0
   62.6238   30.5555   46.9129 H   0  0  0  0  0  0  0  0  0  0  0  0
   63.3652   34.3863   47.3390 H   0  0  0  0  0  0  0  0  0  0  0  0
   64.2468   33.3227   46.1909 H   0  0  0  0  0  0  0  0  0  0  0  0
   62.4507   33.3508   46.1909 H   0  0  0  0  0  0  0  0  0  0  0  0
  1  2  1  0
  2  3  1  0
  3  4  2  0
  4  5  1  0
  5  6  1  0
  6  7  1  0
  7  8  1  0
  8  9  2  0
  8 10  1  0
 10 11  2  3
 11 12  1  0
 12 13  2  0
 13 14  1  0
 14 15  2  0
 15 16  1  0
 16 17  1  0
 17 18  1  0
 17 19  2  0
 17 20  2  0
 16 21  2  0
  5 22  2  0
 22 23  1  0
 23 24  2  0
 24 25  1  0
 25 26  1  0
 26 27  1  0
 27 28  1  0
 28 29  1  0
 28 30  1  0
 24  3  1  0
 21 12  1  0
  1 31  1  0
  1 32  1  0
  1 33  1  0
  4 34  1  0
  6 35  1  0
  6 36  1  0
 10 37  1  0
 11 38  1  0
 13 39  1  0
 14 40  1  0
 15 41  1  0
 18 42  1  0
 18 43  1  0
 21 44  1  0
 22 45  1  0
 23 46  1  0
 26 47  1  0
 26 48  1  0
 27 49  1  0
 27 50  1  0
 29 51  1  0
 29 52  1  0
 29 53  1  0
 30 54  1  0
 30 55  1  0
 30 56  1  0
M  CHG  1   7  -1
M  END
>  <UniqueID>  (27) 
24

>  <SMILES>  (27) 
COc1cc(C[N-]C(=O)C=Cc2cccc(S(N)(=O)=O)c2)ccc1OCCN(C)C

>  <Energy>  (27) 
58.08453649450793

>  <Genealogy>  (27) 
COc1cc(C[N-]C(=O)C=Cc2cccc(S(N)(=O)=O)c2)ccc1OCCN(C)C (protonated)
COc1cc(C[N-]C(=O)C=Cc2cccc(S(N)(=O)=O)c2)ccc1OCCN(C)C (3D coordinates assigned)
COc1cc(C[N-]C(=O)C=Cc2cccc(S(N)(=O)=O)c2)ccc1OCCN(C)C (optimized conformer: 58.08453649450793 kcal/mol)

>  <smiles>  (27) 
COc1cc(CNC(=O)C=Cc2cccc(S(N)(=O)=O)c2)ccc1OCCN(C)C

>  <score_type>  (27) 
oracle

>  <origin>  (27) 
adg

>  <m_score__min__energy>  (27) 
-9.4900000000000002

>  <m_primary>  (27) 
energy

$$$$
27:0
     RDKit          3D

 76 81  0  0  0  0  0  0  0  0999 V2000
   59.1890   32.4020   49.7500 C   0  0  0  0  0  0  0  0  0  0  0  0
   60.0510   31.2910   49.9670 O   0  0  0  0  0  0  0  0  0  0  0  0
   59.9080   30.0390   49.3500 C   0  0  0  0  0  0  0  0  0  0  0  0
   58.9240   29.7920   48.3730 C   0  0  0  0  0  0  0  0  0  0  0  0
   58.8020   28.5220   47.7880 C   0  0  0  0  0  0  0  0  0  0  0  0
   57.7670   28.2790   46.7190 C   0  0  0  0  0  0  0  0  0  0  0  0
   58.3880   28.2060   45.3770 N   0  0  0  0  0  0  0  0  0  0  0  0
   57.4030   28.0730   44.2800 C   0  0  0  0  0  0  0  0  0  0  0  0
   56.5910   29.3620   44.0610 C   0  0  0  0  0  0  0  0  0  0  0  0
   57.4540   30.6440   44.1090 C   0  0  0  0  0  0  0  0  0  0  0  0
   57.0880   31.4450   45.2970 N   0  0  0  0  0  0  0  0  0  0  0  0
   57.7120   33.0660   45.1980 S   0  0  0  0  0  0  0  0  0  0  0  0
   58.1070   33.3630   43.7760 O   0  0  0  0  0  0  0  0  0  0  0  0
   56.6400   34.0380   45.6040 O   0  0  0  0  0  0  0  0  0  0  0  0
   59.1010   33.2600   46.2660 C   0  0  0  0  0  0  0  0  0  0  0  0
   59.2660   34.4360   47.0130 C   0  0  0  0  0  0  0  0  0  0  0  0
   60.3890   34.6040   47.8270 C   0  0  0  0  0  0  0  0  0  0  0  0
   61.3630   33.5980   47.9000 C   0  0  0  0  0  0  0  0  0  0  0  0
   62.5010   33.7620   48.7060 C   0  0  0  0  0  0  0  0  0  0  0  0
   63.4710   32.7550   48.7650 C   0  0  0  0  0  0  0  0  0  0  0  0
   64.8910   32.9670   49.7730 Cl  0  0  0  0  0  0  0  0  0  0  0  0
   63.3110   31.5810   48.0210 C   0  0  0  0  0  0  0  0  0  0  0  0
   62.1820   31.4070   47.2150 C   0  0  0  0  0  0  0  0  0  0  0  0
   61.2030   32.4100   47.1470 C   0  0  0  0  0  0  0  0  0  0  0  0
   60.0690   32.2490   46.3370 C   0  0  0  0  0  0  0  0  0  0  0  0
   58.9620   30.3180   44.0700 C   0  0  0  0  0  0  0  0  0  0  0  0
   59.3780   29.2910   45.1470 C   0  0  0  0  0  0  0  0  0  0  0  0
   59.6730   27.4960   48.1810 C   0  0  0  0  0  0  0  0  0  0  0  0
   60.6540   27.7350   49.1440 C   0  0  0  0  0  0  0  0  0  0  0  0
   60.7810   29.0070   49.7300 C   0  0  0  0  0  0  0  0  0  0  0  0
   61.7620   29.2900   50.6920 O   0  0  0  0  0  0  0  0  0  0  0  0
   61.9550   28.5540   51.8980 C   0  0  0  0  0  0  0  0  0  0  0  0
   60.6010   28.2580   52.5400 C   0  0  0  0  0  0  0  0  0  0  0  0
   59.8990   29.5010   52.8620 N   0  0  0  0  0  0  0  0  0  0  0  0
   60.5170   30.7510   53.1890 C   0  0  0  0  0  0  0  0  0  0  0  0
   61.7140   30.8730   53.5590 O   0  0  0  0  0  0  0  0  0  0  0  0
   59.5760   31.8470   52.9910 C   0  0  0  0  0  0  0  0  0  0  0  0
   59.7280   33.2210   53.1620 C   0  0  0  0  0  0  0  0  0  0  0  0
   58.6350   34.0510   52.8510 C   0  0  0  0  0  0  0  0  0  0  0  0
   57.4280   33.4940   52.3740 C   0  0  0  0  0  0  0  0  0  0  0  0
   57.3020   32.1040   52.2040 C   0  0  0  0  0  0  0  0  0  0  0  0
   58.3960   31.3030   52.5260 C   0  0  0  0  0  0  0  0  0  0  0  0
   58.5840   29.8590   52.4280 C   0  0  0  0  0  0  0  0  0  0  0  0
   57.7360   29.0370   51.9930 O   0  0  0  0  0  0  0  0  0  0  0  0
   58.8699   32.8133   50.7190 H   0  0  0  0  0  0  0  0  0  0  0  0
   59.7249   33.1764   49.1816 H   0  0  0  0  0  0  0  0  0  0  0  0
   58.3057   32.0753   49.1816 H   0  0  0  0  0  0  0  0  0  0  0  0
   58.2453   30.6013   48.0658 H   0  0  0  0  0  0  0  0  0  0  0  0
   57.2520   27.3297   46.9278 H   0  0  0  0  0  0  0  0  0  0  0  0
   57.0551   29.1175   46.7274 H   0  0  0  0  0  0  0  0  0  0  0  0
   57.9397   27.8314   43.3507 H   0  0  0  0  0  0  0  0  0  0  0  0
   56.6979   27.2755   44.5572 H   0  0  0  0  0  0  0  0  0  0  0  0
   56.1047   29.3052   43.0760 H   0  0  0  0  0  0  0  0  0  0  0  0
   55.8605   29.4301   44.8806 H   0  0  0  0  0  0  0  0  0  0  0  0
   57.2477   31.2439   43.2104 H   0  0  0  0  0  0  0  0  0  0  0  0
   57.4630   31.0210   46.1770 H   0  0  0  0  0  0  0  0  0  0  0  0
   58.5070   35.2302   46.9575 H   0  0  0  0  0  0  0  0  0  0  0  0
   60.5094   35.5277   48.4120 H   0  0  0  0  0  0  0  0  0  0  0  0
   62.6303   34.6838   49.2922 H   0  0  0  0  0  0  0  0  0  0  0  0
   64.0761   30.7922   48.0704 H   0  0  0  0  0  0  0  0  0  0  0  0
   62.0608   30.4816   46.6327 H   0  0  0  0  0  0  0  0  0  0  0  0
   59.9389   31.3248   45.7548 H   0  0  0  0  0  0  0  0  0  0  0  0
   59.2080   29.9082   43.0793 H   0  0  0  0  0  0  0  0  0  0  0  0
   59.5090   31.2509   44.2715 H   0  0  0  0  0  0  0  0  0  0  0  0
   60.3268   28.8303   44.8346 H   0  0  0  0  0  0  0  0  0  0  0  0
   59.4612   29.8454   46.0934 H   0  0  0  0  0  0  0  0  0  0  0  0
   59.5825   26.4977   47.7279 H   0  0  0  0  0  0  0  0  0  0  0  0
   61.3321   26.9235   49.4466 H   0  0  0  0  0  0  0  0  0  0  0  0
   62.4673   27.6074   51.6711 H   0  0  0  0  0  0  0  0  0  0  0  0
   62.5673   29.1467   52.5936 H   0  0  0  0  0  0  0  0  0  0  0  0
   59.9902   27.6692   51.8398 H   0  0  0  0  0  0  0  0  0  0  0  0
   60.7660   27.6937   53.4697 H   0  0  0  0  0  0  0  0  0  0  0  0
   60.6744   33.6447   53.5293 H   0  0  0  0  0  0  0  0  0  0  0  0
   58.7212   35.1400   52.9802 H   0  0  0  0  0  0  0  0  0  0  0  0
   56.5803   34.1525   52.1337 H   0  0  0  0  0  0  0  0  0  0  0  0
   56.3676   31.6619   51.8280 H   0  0  0  0  0  0  0  0  0  0  0  0
  1  2  1  0
  2  3  1  0
  3  4  2  0
  4  5  1  0
  5  6  1  0
  6  7  1  0
  7  8  1  0
  8  9  1  0
  9 10  1  0
 10 11  1  0
 11 12  1  0
 12 13  2  0
 12 14  2  0
 12 15  1  0
 15 16  2  0
 16 17  1  0
 17 18  2  0
 18 19  1  0
 19 20  2  0
 20 21  1  0
 20 22  1  0
 22 23  2  0
 23 24  1  0
 24 25  2  0
 10 26  1  0
 26 27  1  0
  5 28  2  0
 28 29  1  0
 29 30  2  0
 30 31  1  0
 31 32  1  0
 32 33  1  0
 33 34  1  0
 34 35  1  0
 35 36  2  0
 35 37  1  0
 37 38  2  0
 38 39  1  0
 39 40  2  0
 40 41  1  0
 41 42  2  0
 42 43  1  0
 43 44  2  0
 30  3  1  0
 43 34  1  0
 27  7  1  0
 42 37  1  0
 25 15  1  0
 24 18  1  0
  1 45  1  0
  1 46  1  0
  1 47  1  0
  4 48  1  0
  6 49  1  0
  6 50  1  0
  8 51  1  0
  8 52  1  0
  9 53  1  0
  9 54  1  0
 10 55  1  0
 11 56  1  0
 16 57  1  0
 17 58  1  0
 19 59  1  0
 22 60  1  0
 23 61  1  0
 25 62  1  0
 26 63  1  0
 26 64  1  0
 27 65  1  0
 27 66  1  0
 28 67  1  0
 29 68  1  0
 32 69  1  0
 32 70  1  0
 33 71  1  0
 33 72  1  0
 38 73  1  0
 39 74  1  0
 40 75  1  0
 41 76  1  0
M  END
>  <UniqueID>  (28) 
25

>  <SMILES>  (28) 
COc1cc(CN2CCC(NS(=O)(=O)c3ccc4cc(Cl)ccc4c3)CC2)ccc1OCCN1C(=O)c2ccccc2C1=O

>  <Energy>  (28) 
123.79308546326126

>  <Genealogy>  (28) 
COc1cc(CN2CCC(NS(=O)(=O)c3ccc4cc(Cl)ccc4c3)CC2)ccc1OCCN1C(=O)c2ccccc2C1=O (3D coordinates assigned)
COc1cc(CN2CCC(NS(=O)(=O)c3ccc4cc(Cl)ccc4c3)CC2)ccc1OCCN1C(=O)c2ccccc2C1=O (nonaromatic ring conformer: 123.79308546326126 kcal/mol)

>  <smiles>  (28) 
COc1cc(CN2CCC(NS(=O)(=O)c3ccc4cc(Cl)ccc4c3)CC2)ccc1OCCN1C(=O)c2ccccc2C1=O

>  <score_type>  (28) 
oracle

>  <origin>  (28) 
adg

>  <m_score__min__energy>  (28) 
-10.6

>  <m_primary>  (28) 
energy

$$$$
28:0
     RDKit          3D

 52 54  0  0  0  0  0  0  0  0999 V2000
   51.2490   32.2860   51.2520 N   0  0  0  0  0  0  0  0  0  0  0  0
   51.6390   30.6140   51.4410 S   0  0  0  0  0  0  0  0  0  0  0  0
   51.5410   29.9240   50.1090 O   0  0  0  0  0  0  0  0  0  0  0  0
   50.6620   29.9760   52.3880 O   0  0  0  0  0  0  0  0  0  0  0  0
   53.2720   30.4580   52.0810 C   0  0  0  0  0  0  0  0  0  0  0  0
   53.5270   29.6150   53.1700 C   0  0  0  0  0  0  0  0  0  0  0  0
   54.8300   29.4680   53.6520 C   0  0  0  0  0  0  0  0  0  0  0  0
   55.8830   30.1610   53.0510 C   0  0  0  0  0  0  0  0  0  0  0  0
   55.6420   31.0190   51.9680 C   0  0  0  0  0  0  0  0  0  0  0  0
   56.7480   31.6850   51.3370 N   0  0  0  0  0  0  0  0  0  0  0  0
   58.1250   31.3750   51.5940 C   0  0  0  0  0  0  0  0  0  0  0  0
   58.4570   30.2360   52.0210 O   0  0  0  0  0  0  0  0  0  0  0  0
   59.1760   32.4050   51.3360 C   0  0  0  0  0  0  0  0  0  0  0  0
   60.3250   31.7560   50.8080 O   0  0  0  0  0  0  0  0  0  0  0  0
   60.3950   31.2390   49.5110 C   0  0  0  0  0  0  0  0  0  0  0  0
   60.5130   29.9960   49.3340 O   0  0  0  0  0  0  0  0  0  0  0  0
   60.3290   32.1690   48.3580 C   0  0  0  0  0  0  0  0  0  0  0  0
   59.3250   31.9860   47.3900 C   0  0  0  0  0  0  0  0  0  0  0  0
   59.2110   32.8570   46.2980 C   0  0  0  0  0  0  0  0  0  0  0  0
   57.9310   32.6280   45.1070 S   0  0  0  0  0  0  0  0  0  0  0  0
   58.2040   33.4790   43.8960 O   0  0  0  0  0  0  0  0  0  0  0  0
   56.6250   33.0640   45.7110 O   0  0  0  0  0  0  0  0  0  0  0  0
   57.8370   30.9460   44.6460 N   0  0  0  0  0  0  0  0  0  0  0  0
   56.7870   30.7210   43.6270 C   0  0  0  0  0  0  0  0  0  0  0  0
   55.5290   30.0650   44.2220 C   0  0  0  0  0  0  0  0  0  0  0  0
   55.7880   28.8170   44.8470 O   0  0  0  0  0  0  0  0  0  0  0  0
   57.0620   28.7410   45.4740 C   0  0  0  0  0  0  0  0  0  0  0  0
   57.6590   30.1090   45.8480 C   0  0  0  0  0  0  0  0  0  0  0  0
   60.1060   33.9230   46.1680 C   0  0  0  0  0  0  0  0  0  0  0  0
   61.1140   34.1120   47.1150 C   0  0  0  0  0  0  0  0  0  0  0  0
   61.2320   33.2460   48.2080 C   0  0  0  0  0  0  0  0  0  0  0  0
   62.2430   33.4740   49.1350 O   0  0  0  0  0  0  0  0  0  0  0  0
   54.3290   31.1510   51.4760 C   0  0  0  0  0  0  0  0  0  0  0  0
   50.2670   32.3340   50.8990 H   0  0  0  0  0  0  0  0  0  0  0  0
   52.7002   29.0679   53.6464 H   0  0  0  0  0  0  0  0  0  0  0  0
   55.0270   28.8047   54.5071 H   0  0  0  0  0  0  0  0  0  0  0  0
   56.9079   30.0331   53.4294 H   0  0  0  0  0  0  0  0  0  0  0  0
   56.5400   32.4430   50.6470 H   0  0  0  0  0  0  0  0  0  0  0  0
   58.8016   33.1435   50.6118 H   0  0  0  0  0  0  0  0  0  0  0  0
   59.4330   32.9231   52.2717 H   0  0  0  0  0  0  0  0  0  0  0  0
   58.6198   31.1479   47.4915 H   0  0  0  0  0  0  0  0  0  0  0  0
   56.5069   31.6897   43.1874 H   0  0  0  0  0  0  0  0  0  0  0  0
   57.1955   30.0388   42.8669 H   0  0  0  0  0  0  0  0  0  0  0  0
   55.1001   30.7477   44.9703 H   0  0  0  0  0  0  0  0  0  0  0  0
   54.8363   29.8744   43.3890 H   0  0  0  0  0  0  0  0  0  0  0  0
   56.9600   28.1453   46.3931 H   0  0  0  0  0  0  0  0  0  0  0  0
   57.7478   28.2832   44.7459 H   0  0  0  0  0  0  0  0  0  0  0  0
   56.9806   30.6202   46.5469 H   0  0  0  0  0  0  0  0  0  0  0  0
   58.6411   29.9501   46.3172 H   0  0  0  0  0  0  0  0  0  0  0  0
   60.0157   34.6146   45.3174 H   0  0  0  0  0  0  0  0  0  0  0  0
   61.8205   34.9474   47.0013 H   0  0  0  0  0  0  0  0  0  0  0  0
   54.1320   31.8021   50.6115 H   0  0  0  0  0  0  0  0  0  0  0  0
  1  2  1  0
  2  3  2  0
  2  4  2  0
  2  5  1  0
  5  6  2  0
  6  7  1  0
  7  8  2  0
  8  9  1  0
  9 10  1  0
 10 11  1  0
 11 12  2  0
 11 13  1  0
 13 14  1  0
 14 15  1  0
 15 16  2  0
 15 17  1  0
 17 18  2  0
 18 19  1  0
 19 20  1  0
 20 21  2  0
 20 22  2  0
 20 23  1  0
 23 24  1  0
 24 25  1  0
 25 26  1  0
 26 27  1  0
 27 28  1  0
 19 29  2  0
 29 30  1  0
 30 31  2  0
 31 32  1  0
  9 33  2  0
 33  5  1  0
 31 17  1  0
 28 23  1  0
  1 34  1  0
  6 35  1  0
  7 36  1  0
  8 37  1  0
 10 38  1  0
 13 39  1  0
 13 40  1  0
 18 41  1  0
 24 42  1  0
 24 43  1  0
 25 44  1  0
 25 45  1  0
 27 46  1  0
 27 47  1  0
 28 48  1  0
 28 49  1  0
 29 50  1  0
 30 51  1  0
 33 52  1  0
M  CHG  2   1  -1  32  -1
M  END
>  <UniqueID>  (29) 
26

>  <SMILES>  (29) 
[NH-]S(=O)(=O)c1cccc(NC(=O)COC(=O)c2cc(S(=O)(=O)N3CCOCC3)ccc2[O-])c1

>  <Energy>  (29) 
66.56798608426814

>  <Genealogy>  (29) 
[NH-]S(=O)(=O)c1cccc(NC(=O)COC(=O)c2cc(S(=O)(=O)N3CCOCC3)ccc2[O-])c1 (protonated)
[NH-]S(=O)(=O)c1cccc(NC(=O)COC(=O)c2cc(S(=O)(=O)N3CCOCC3)ccc2[O-])c1 (3D coordinates assigned)
[NH-]S(=O)(=O)c1cccc(NC(=O)COC(=O)c2cc(S(=O)(=O)N3CCOCC3)ccc2[O-])c1 (nonaromatic ring conformer: 66.56798608426814 kcal/mol)

>  <smiles>  (29) 
NS(=O)(=O)c1cccc(NC(=O)COC(=O)c2cc(S(=O)(=O)N3CCOCC3)ccc2O)c1

>  <score_type>  (29) 
oracle

>  <origin>  (29) 
adg

>  <m_score__min__energy>  (29) 
-13.630000000000001

>  <m_primary>  (29) 
energy

$$$$
29:0
     RDKit          3D

 44 46  0  0  0  0  0  0  0  0999 V2000
   58.1840   26.9140   43.7220 C   0  0  0  0  0  0  0  0  0  0  0  0
   58.7650   27.9040   44.6870 C   0  0  0  0  0  0  0  0  0  0  0  0
   60.0500   28.4260   44.4770 C   0  0  0  0  0  0  0  0  0  0  0  0
   60.6050   29.3230   45.3930 C   0  0  0  0  0  0  0  0  0  0  0  0
   59.8830   29.7130   46.5340 C   0  0  0  0  0  0  0  0  0  0  0  0
   60.4800   30.6870   47.5260 C   0  0  0  0  0  0  0  0  0  0  0  0
   59.5690   31.8030   47.8400 N   0  0  0  0  0  0  0  0  0  0  0  0
   60.2410   33.1020   48.0150 C   0  0  0  0  0  0  0  0  0  0  0  0
   60.3610   33.9110   46.7060 C   0  0  1  0  0  0  0  0  0  0  0  0
   60.1250   33.0700   45.5940 O   0  0  0  0  0  0  0  0  0  0  0  0
   59.0520   33.6130   44.8580 C   0  0  1  0  0  0  0  0  0  0  0  0
   58.1590   32.5440   44.3680 N   0  0  0  0  0  0  0  0  0  0  0  0
   58.1770   32.1980   43.0430 C   0  0  0  0  0  0  0  0  0  0  0  0
   57.3590   31.1780   42.5630 C   0  0  0  0  0  0  0  0  0  0  0  0
   56.5360   30.5080   43.4620 C   0  0  0  0  0  0  0  0  0  0  0  0
   55.7810   29.5810   43.0640 O   0  0  0  0  0  0  0  0  0  0  0  0
   56.5520   30.8510   44.7730 N   0  0  0  0  0  0  0  0  0  0  0  0
   57.3520   31.8470   45.2340 C   0  0  0  0  0  0  0  0  0  0  0  0
   57.3410   32.1160   46.4660 O   0  0  0  0  0  0  0  0  0  0  0  0
   58.2970   34.5870   45.7440 C   0  0  0  0  0  0  0  0  0  0  0  0
   59.3630   35.0770   46.6800 C   0  0  2  0  0  0  0  0  0  0  0  0
   59.9650   36.2280   46.1440 O   0  0  0  0  0  0  0  0  0  0  0  0
   58.6150   29.1540   46.7640 C   0  0  0  0  0  0  0  0  0  0  0  0
   58.0590   28.2580   45.8470 C   0  0  0  0  0  0  0  0  0  0  0  0
   57.7042   26.0964   44.2799 H   0  0  0  0  0  0  0  0  0  0  0  0
   57.4362   27.4143   43.0891 H   0  0  0  0  0  0  0  0  0  0  0  0
   58.9854   26.5051   43.0891 H   0  0  0  0  0  0  0  0  0  0  0  0
   60.6233   28.1276   43.5869 H   0  0  0  0  0  0  0  0  0  0  0  0
   61.6136   29.7266   45.2201 H   0  0  0  0  0  0  0  0  0  0  0  0
   60.7096   30.1467   48.4562 H   0  0  0  0  0  0  0  0  0  0  0  0
   61.3864   31.1134   47.0715 H   0  0  0  0  0  0  0  0  0  0  0  0
   58.7850   31.8820   47.1520 H   0  0  0  0  0  0  0  0  0  0  0  0
   59.6671   33.6965   48.7410 H   0  0  0  0  0  0  0  0  0  0  0  0
   61.2635   32.8945   48.3635 H   0  0  0  0  0  0  0  0  0  0  0  0
   61.3807   34.3204   46.6550 H   0  0  0  0  0  0  0  0  0  0  0  0
   59.4404   34.1450   43.9770 H   0  0  0  0  0  0  0  0  0  0  0  0
   58.8447   32.7314   42.3504 H   0  0  0  0  0  0  0  0  0  0  0  0
   57.3638   30.9083   41.4966 H   0  0  0  0  0  0  0  0  0  0  0  0
   57.8758   35.4147   45.1545 H   0  0  0  0  0  0  0  0  0  0  0  0
   57.4387   34.1320   46.2601 H   0  0  0  0  0  0  0  0  0  0  0  0
   58.9906   35.3470   47.6792 H   0  0  0  0  0  0  0  0  0  0  0  0
   59.7100   36.9810   46.7380 H   0  0  0  0  0  0  0  0  0  0  0  0
   58.0559   29.4234   47.6722 H   0  0  0  0  0  0  0  0  0  0  0  0
   57.0640   27.8285   46.0352 H   0  0  0  0  0  0  0  0  0  0  0  0
  1  2  1  0
  2  3  2  0
  3  4  1  0
  4  5  2  0
  5  6  1  0
  6  7  1  0
  7  8  1  0
  8  9  1  0
  9 10  1  0
 10 11  1  0
 11 12  1  0
 12 13  1  0
 13 14  2  0
 14 15  1  0
 15 16  2  0
 15 17  1  0
 17 18  1  0
 18 19  2  0
 11 20  1  0
 20 21  1  0
 21 22  1  0
  5 23  1  0
 23 24  2  0
 24  2  1  0
 21  9  1  0
 18 12  1  0
  1 25  1  0
  1 26  1  0
  1 27  1  0
  3 28  1  0
  4 29  1  0
  6 30  1  0
  6 31  1  0
  7 32  1  0
  8 33  1  0
  8 34  1  0
  9 35  1  6
 11 36  1  6
 13 37  1  0
 14 38  1  0
 20 39  1  0
 20 40  1  0
 21 41  1  1
 22 42  1  0
 23 43  1  0
 24 44  1  0
M  CHG  1  17  -1
M  END
>  <UniqueID>  (30) 
27

>  <SMILES>  (30) 
Cc1ccc(CNC[C@H]2O[C@@H](n3ccc(=O)[n-]c3=O)CC2O)cc1

>  <Energy>  (30) 
50.062854917028005

>  <Genealogy>  (30) 
Cc1ccc(CNCC2OC(n3ccc(=O)[n-]c3=O)CC2O)cc1 (protonated)
Cc1ccc(CNC[C@H]2O[C@@H](n3ccc(=O)[n-]c3=O)CC2O)cc1 (chirality)
Cc1ccc(CNC[C@H]2O[C@@H](n3ccc(=O)[n-]c3=O)CC2O)cc1 (3D coordinates assigned)
Cc1ccc(CNC[C@H]2O[C@@H](n3ccc(=O)[n-]c3=O)CC2O)cc1 (nonaromatic ring conformer: 50.062854917028005 kcal/mol)

>  <smiles>  (30) 
Cc1ccc(CNCC2OC(n3ccc(=O)[nH]c3=O)CC2O)cc1

>  <score_type>  (30) 
oracle

>  <origin>  (30) 
adg

>  <m_score__min__energy>  (30) 
-10.16

>  <m_primary>  (30) 
energy

$$$$
30:0
     RDKit          3D

 38 39  0  0  0  0  0  0  0  0999 V2000
   58.7990   27.3090   47.1290 C   0  0  0  0  0  0  0  0  0  0  0  0
   57.5630   26.4230   46.9830 C   0  0  0  0  0  0  0  0  0  0  0  0
   56.6350   26.9480   45.9180 C   0  0  0  0  0  0  0  0  0  0  0  0
   55.4090   26.6670   45.9980 O   0  0  0  0  0  0  0  0  0  0  0  0
   57.0680   27.8460   44.8790 N   0  0  0  0  0  0  0  0  0  0  0  0
   57.0230   29.1480   44.8740 C   0  0  0  0  0  0  0  0  0  0  0  0
   55.8620   29.8260   44.7210 N   0  0  0  0  0  0  0  0  0  0  0  0
   56.0190   31.1520   44.7330 N   0  0  0  0  0  0  0  0  0  0  0  0
   57.3090   31.5310   44.8720 C   0  0  0  0  0  0  0  0  0  0  0  0
   57.8320   33.1950   45.0470 S   0  0  0  0  0  0  0  0  0  0  0  0
   58.8860   33.4910   44.0170 O   0  0  0  0  0  0  0  0  0  0  0  0
   56.6690   34.1310   44.8600 O   0  0  0  0  0  0  0  0  0  0  0  0
   58.5050   33.3880   46.6350 N   0  0  0  0  0  0  0  0  0  0  0  0
   59.8920   33.1600   46.9200 C   0  0  0  0  0  0  0  0  0  0  0  0
   60.8750   34.0570   46.4670 C   0  0  0  0  0  0  0  0  0  0  0  0
   62.2220   33.8420   46.7690 C   0  0  0  0  0  0  0  0  0  0  0  0
   62.6060   32.7310   47.5430 C   0  0  0  0  0  0  0  0  0  0  0  0
   63.9480   32.4760   47.8750 O   0  0  0  0  0  0  0  0  0  0  0  0
   64.5200   32.7160   49.1590 C   0  0  0  0  0  0  0  0  0  0  0  0
   61.6230   31.8440   48.0060 C   0  0  0  0  0  0  0  0  0  0  0  0
   60.2630   32.0480   47.6940 C   0  0  0  0  0  0  0  0  0  0  0  0
   59.2540   31.1820   48.1580 O   0  0  0  0  0  0  0  0  0  0  0  0
   58.9000   31.0120   49.5290 C   0  0  0  0  0  0  0  0  0  0  0  0
   58.3360   30.2040   45.0020 S   0  0  0  0  0  0  0  0  0  0  0  0
   59.0151   27.4639   48.1964 H   0  0  0  0  0  0  0  0  0  0  0  0
   59.6592   26.8205   46.6479 H   0  0  0  0  0  0  0  0  0  0  0  0
   58.6127   28.2805   46.6479 H   0  0  0  0  0  0  0  0  0  0  0  0
   57.8815   25.4059   46.7110 H   0  0  0  0  0  0  0  0  0  0  0  0
   57.0238   26.4189   47.9418 H   0  0  0  0  0  0  0  0  0  0  0  0
   60.5818   34.9338   45.8709 H   0  0  0  0  0  0  0  0  0  0  0  0
   62.9851   34.5434   46.4006 H   0  0  0  0  0  0  0  0  0  0  0  0
   63.8060   32.4164   49.9403 H   0  0  0  0  0  0  0  0  0  0  0  0
   65.4451   32.1302   49.2636 H   0  0  0  0  0  0  0  0  0  0  0  0
   64.7501   33.7866   49.2636 H   0  0  0  0  0  0  0  0  0  0  0  0
   61.9163   30.9794   48.6195 H   0  0  0  0  0  0  0  0  0  0  0  0
   59.7077   31.3999   50.1671 H   0  0  0  0  0  0  0  0  0  0  0  0
   57.9708   31.5621   49.7387 H   0  0  0  0  0  0  0  0  0  0  0  0
   58.7484   29.9429   49.7387 H   0  0  0  0  0  0  0  0  0  0  0  0
  1  2  1  0
  2  3  1  0
  3  4  2  0
  3  5  1  0
  5  6  2  3
  6  7  1  0
  7  8  1  0
  8  9  2  0
  9 10  1  0
 10 11  2  0
 10 12  2  0
 10 13  1  0
 13 14  1  0
 14 15  2  0
 15 16  1  0
 16 17  2  0
 17 18  1  0
 18 19  1  0
 17 20  1  0
 20 21  2  0
 21 22  1  0
 22 23  1  0
  9 24  1  0
 24  6  1  0
 21 14  1  0
  1 25  1  0
  1 26  1  0
  1 27  1  0
  2 28  1  0
  2 29  1  0
 15 30  1  0
 16 31  1  0
 19 32  1  0
 19 33  1  0
 19 34  1  0
 20 35  1  0
 23 36  1  0
 23 37  1  0
 23 38  1  0
M  CHG  2   7  -1  13  -1
M  END
>  <UniqueID>  (31) 
28

>  <SMILES>  (31) 
CCC(=O)N=c1[n-]nc(S(=O)(=O)[N-]c2ccc(OC)cc2OC)s1

>  <Energy>  (31) 
79.38077229871367

>  <Genealogy>  (31) 
CCC(=O)N=c1[n-]nc(S(=O)(=O)[N-]c2ccc(OC)cc2OC)s1 (protonated)
CCC(=O)N=c1[n-]nc(S(=O)(=O)[N-]c2ccc(OC)cc2OC)s1 (3D coordinates assigned)
CCC(=O)N=c1[n-]nc(S(=O)(=O)[N-]c2ccc(OC)cc2OC)s1 (optimized conformer: 79.38077229871367 kcal/mol)

>  <smiles>  (31) 
CCC(=O)N=c1[nH]nc(S(=O)(=O)Nc2ccc(OC)cc2OC)s1

>  <score_type>  (31) 
oracle

>  <origin>  (31) 
adg

>  <m_score__min__energy>  (31) 
-10

>  <m_primary>  (31) 
energy

$$$$
31:0
     RDKit          3D

 55 58  0  0  0  0  0  0  0  0999 V2000
   52.8610   31.9860   51.0840 N   0  0  0  0  0  0  0  0  0  0  0  0
   52.9470   30.5480   52.0400 S   0  0  0  0  0  0  0  0  0  0  0  0
   52.2480   30.7880   53.3500 O   0  0  0  0  0  0  0  0  0  0  0  0
   52.2640   29.4180   51.3190 O   0  0  0  0  0  0  0  0  0  0  0  0
   54.6350   30.1300   52.3180 C   0  0  0  0  0  0  0  0  0  0  0  0
   54.9570   28.9230   52.9550 C   0  0  0  0  0  0  0  0  0  0  0  0
   56.2960   28.5680   53.1610 C   0  0  0  0  0  0  0  0  0  0  0  0
   57.3250   29.4250   52.7410 C   0  0  0  0  0  0  0  0  0  0  0  0
   58.7640   29.0060   52.8510 C   0  0  0  0  0  0  0  0  0  0  0  0
   59.5140   29.6660   51.7960 N   0  0  0  0  0  0  0  0  0  0  0  0
   60.4760   29.0190   50.9580 C   0  0  0  0  0  0  0  0  0  0  0  0
   61.6750   28.9190   51.3460 O   0  0  0  0  0  0  0  0  0  0  0  0
   60.0820   28.5230   49.6120 C   0  0  0  0  0  0  0  0  0  0  0  0
   60.7480   27.4120   49.0560 C   0  0  0  0  0  0  0  0  0  0  0  0
   60.4580   26.9870   47.7980 N   0  0  0  0  0  0  0  0  0  0  0  0
   59.5130   27.5940   47.0320 C   0  0  0  0  0  0  0  0  0  0  0  0
   59.2850   27.1500   45.7230 C   0  0  0  0  0  0  0  0  0  0  0  0
   58.3550   27.8100   44.9130 C   0  0  0  0  0  0  0  0  0  0  0  0
   57.6340   28.9040   45.4120 C   0  0  0  0  0  0  0  0  0  0  0  0
   56.5410   29.8090   44.3640 S   0  0  0  0  0  0  0  0  0  0  0  0
   55.1420   29.2970   44.5530 O   0  0  0  0  0  0  0  0  0  0  0  0
   56.9470   29.6350   42.9260 O   0  0  0  0  0  0  0  0  0  0  0  0
   56.5960   31.4980   44.7790 N   0  0  0  0  0  0  0  0  0  0  0  0
   57.7760   32.1370   44.1960 C   0  0  0  0  0  0  0  0  0  0  0  0
   58.3800   33.0710   45.2090 C   0  0  0  0  0  0  0  0  0  0  0  0
   58.8890   34.3230   44.8110 C   0  0  0  0  0  0  0  0  0  0  0  0
   59.5100   35.1610   45.7430 C   0  0  0  0  0  0  0  0  0  0  0  0
   59.6220   34.7650   47.0780 C   0  0  0  0  0  0  0  0  0  0  0  0
   59.1130   33.5230   47.4870 C   0  0  0  0  0  0  0  0  0  0  0  0
   59.2460   33.0270   49.1630 Cl  0  0  0  0  0  0  0  0  0  0  0  0
   58.5040   32.6730   46.5530 C   0  0  0  0  0  0  0  0  0  0  0  0
   57.8250   29.3200   46.7360 C   0  0  0  0  0  0  0  0  0  0  0  0
   58.7870   28.6920   47.5460 C   0  0  0  0  0  0  0  0  0  0  0  0
   59.0720   29.1540   48.8460 C   0  0  0  0  0  0  0  0  0  0  0  0
   58.4330   30.1420   49.3120 O   0  0  0  0  0  0  0  0  0  0  0  0
   56.9990   30.6400   52.1140 C   0  0  0  0  0  0  0  0  0  0  0  0
   55.6620   30.9900   51.9050 C   0  0  0  0  0  0  0  0  0  0  0  0
   53.5550   32.6630   51.4730 H   0  0  0  0  0  0  0  0  0  0  0  0
   53.1900   31.7320   50.1240 H   0  0  0  0  0  0  0  0  0  0  0  0
   54.1542   28.2519   53.2945 H   0  0  0  0  0  0  0  0  0  0  0  0
   56.5417   27.6154   53.6531 H   0  0  0  0  0  0  0  0  0  0  0  0
   59.1635   29.3020   53.8322 H   0  0  0  0  0  0  0  0  0  0  0  0
   58.8492   27.9140   52.7500 H   0  0  0  0  0  0  0  0  0  0  0  0
   61.5106   26.8833   49.6466 H   0  0  0  0  0  0  0  0  0  0  0  0
   59.8372   26.2826   45.3323 H   0  0  0  0  0  0  0  0  0  0  0  0
   58.1887   27.4693   43.8804 H   0  0  0  0  0  0  0  0  0  0  0  0
   58.5122   31.3682   43.9186 H   0  0  0  0  0  0  0  0  0  0  0  0
   57.4863   32.7014   43.2974 H   0  0  0  0  0  0  0  0  0  0  0  0
   58.7976   34.6430   43.7625 H   0  0  0  0  0  0  0  0  0  0  0  0
   59.9112   36.1343   45.4240 H   0  0  0  0  0  0  0  0  0  0  0  0
   60.1094   35.4271   47.8088 H   0  0  0  0  0  0  0  0  0  0  0  0
   58.1220   31.6920   46.8718 H   0  0  0  0  0  0  0  0  0  0  0  0
   57.2190   30.1424   47.1439 H   0  0  0  0  0  0  0  0  0  0  0  0
   57.8001   31.3188   51.7861 H   0  0  0  0  0  0  0  0  0  0  0  0
   55.4150   31.9433   51.4149 H   0  0  0  0  0  0  0  0  0  0  0  0
  1  2  1  0
  2  3  2  0
  2  4  2  0
  2  5  1  0
  5  6  2  0
  6  7  1  0
  7  8  2  0
  8  9  1  0
  9 10  1  0
 10 11  1  0
 11 12  2  0
 11 13  1  0
 13 14  2  0
 14 15  1  0
 15 16  1  0
 16 17  2  0
 17 18  1  0
 18 19  2  0
 19 20  1  0
 20 21  2  0
 20 22  2  0
 20 23  1  0
 23 24  1  0
 24 25  1  0
 25 26  2  0
 26 27  1  0
 27 28  2  0
 28 29  1  0
 29 30  1  0
 29 31  2  0
 19 32  1  0
 32 33  2  0
 33 34  1  0
 34 35  2  0
  8 36  1  0
 36 37  2  0
 37  5  1  0
 34 13  1  0
 33 16  1  0
 31 25  1  0
  1 38  1  0
  1 39  1  0
  6 40  1  0
  7 41  1  0
  9 42  1  0
  9 43  1  0
 14 44  1  0
 17 45  1  0
 18 46  1  0
 24 47  1  0
 24 48  1  0
 26 49  1  0
 27 50  1  0
 28 51  1  0
 31 52  1  0
 32 53  1  0
 36 54  1  0
 37 55  1  0
M  CHG  3  10  -1  15  -1  23  -1
M  END
>  <UniqueID>  (32) 
29

>  <SMILES>  (32) 
NS(=O)(=O)c1ccc(C[N-]C(=O)c2c[n-]c3ccc(S(=O)(=O)[N-]Cc4cccc(Cl)c4)cc3c2=O)cc1

>  <Energy>  (32) 
59.73463138042674

>  <Genealogy>  (32) 
NS(=O)(=O)c1ccc(C[N-]C(=O)c2c[n-]c3ccc(S(=O)(=O)[N-]Cc4cccc(Cl)c4)cc3c2=O)cc1 (protonated)
NS(=O)(=O)c1ccc(C[N-]C(=O)c2c[n-]c3ccc(S(=O)(=O)[N-]Cc4cccc(Cl)c4)cc3c2=O)cc1 (3D coordinates assigned)
NS(=O)(=O)c1ccc(C[N-]C(=O)c2c[n-]c3ccc(S(=O)(=O)[N-]Cc4cccc(Cl)c4)cc3c2=O)cc1 (optimized conformer: 59.73463138042674 kcal/mol)

>  <smiles>  (32) 
NS(=O)(=O)c1ccc(CNC(=O)c2c[nH]c3ccc(S(=O)(=O)NCc4cccc(Cl)c4)cc3c2=O)cc1

>  <score_type>  (32) 
oracle

>  <origin>  (32) 
adg

>  <m_score__min__energy>  (32) 
-13.699999999999999

>  <m_primary>  (32) 
energy

$$$$
32:0
     RDKit          3D

 28 30  0  0  0  0  0  0  0  0999 V2000
   54.6830   23.8870   46.5350 O   0  0  0  0  0  0  0  0  0  0  0  0
   55.8440   23.8600   46.0470 C   0  0  0  0  0  0  0  0  0  0  0  0
   56.8620   24.6710   46.6460 N   0  0  0  0  0  0  0  0  0  0  0  0
   57.3950   25.8960   46.1160 C   0  0  0  0  0  0  0  0  0  0  0  0
   56.5140   26.9260   45.7640 C   0  0  0  0  0  0  0  0  0  0  0  0
   55.1460   26.7120   45.9620 O   0  0  0  0  0  0  0  0  0  0  0  0
   57.0350   28.1310   45.2380 C   0  0  0  0  0  0  0  0  0  0  0  0
   56.2310   29.2340   44.8800 C   0  0  0  0  0  0  0  0  0  0  0  0
   56.8140   30.3980   44.3700 C   0  0  0  0  0  0  0  0  0  0  0  0
   58.1980   30.4810   44.2100 C   0  0  0  0  0  0  0  0  0  0  0  0
   59.0080   29.4000   44.5580 C   0  0  0  0  0  0  0  0  0  0  0  0
   58.4390   28.2280   45.0690 C   0  0  0  0  0  0  0  0  0  0  0  0
   59.2300   27.2120   45.3880 O   0  0  0  0  0  0  0  0  0  0  0  0
   58.7720   26.0700   45.8840 C   0  0  0  0  0  0  0  0  0  0  0  0
   59.5870   25.1390   46.1230 O   0  0  0  0  0  0  0  0  0  0  0  0
   56.1280   22.9540   44.9160 C   0  0  0  0  0  0  0  0  0  0  0  0
   57.0600   21.9360   44.9050 C   0  0  0  0  0  0  0  0  0  0  0  0
   57.0010   21.3900   43.6390 C   0  0  0  0  0  0  0  0  0  0  0  0
   56.1080   22.0320   42.9200 O   0  0  0  0  0  0  0  0  0  0  0  0
   55.5690   22.9800   43.6530 C   0  0  0  0  0  0  0  0  0  0  0  0
   54.7530   25.8970   46.4090 H   0  0  0  0  0  0  0  0  0  0  0  0
   55.1393   29.1777   45.0029 H   0  0  0  0  0  0  0  0  0  0  0  0
   56.1788   31.2525   44.0935 H   0  0  0  0  0  0  0  0  0  0  0  0
   58.6506   31.3999   43.8090 H   0  0  0  0  0  0  0  0  0  0  0  0
   60.0984   29.4690   44.4303 H   0  0  0  0  0  0  0  0  0  0  0  0
   57.7138   21.6247   45.7331 H   0  0  0  0  0  0  0  0  0  0  0  0
   57.6097   20.5448   43.2852 H   0  0  0  0  0  0  0  0  0  0  0  0
   54.7944   23.6837   43.3142 H   0  0  0  0  0  0  0  0  0  0  0  0
  1  2  2  0
  2  3  1  0
  3  4  1  0
  4  5  2  0
  5  6  1  0
  5  7  1  0
  7  8  2  0
  8  9  1  0
  9 10  2  0
 10 11  1  0
 11 12  2  0
 12 13  1  0
 13 14  1  0
 14 15  2  0
  2 16  1  0
 16 17  1  0
 17 18  2  0
 18 19  1  0
 19 20  1  0
 14  4  1  0
 20 16  2  0
 12  7  1  0
  6 21  1  0
  8 22  1  0
  9 23  1  0
 10 24  1  0
 11 25  1  0
 17 26  1  0
 18 27  1  0
 20 28  1  0
M  CHG  1   3  -1
M  END
>  <UniqueID>  (33) 
30

>  <SMILES>  (33) 
O=C([N-]c1c(O)c2ccccc2oc1=O)c1ccoc1

>  <Energy>  (33) 
71.31217349517985

>  <Genealogy>  (33) 
O=C([N-]c1c(O)c2ccccc2oc1=O)c1ccoc1 (protonated)
O=C([N-]c1c(O)c2ccccc2oc1=O)c1ccoc1 (3D coordinates assigned)
O=C([N-]c1c(O)c2ccccc2oc1=O)c1ccoc1 (optimized conformer: 71.31217349517985 kcal/mol)

>  <smiles>  (33) 
O=C(Nc1c(O)c2ccccc2oc1=O)c1ccoc1

>  <score_type>  (33) 
oracle

>  <origin>  (33) 
adg

>  <m_score__min__energy>  (33) 
-9.0999999999999996

>  <m_primary>  (33) 
energy

$$$$
33:0
     RDKit          3D

 71 74  0  0  0  0  0  0  0  0999 V2000
   56.9910   33.2990   45.9220 C   0  0  0  0  0  0  0  0  0  0  0  0
   57.8260   33.3970   47.2020 C   0  0  0  0  0  0  0  0  0  0  0  0
   59.2260   33.7700   46.9070 N   0  0  0  0  0  0  0  0  0  0  0  0
   59.3940   34.8080   45.8630 C   0  0  0  0  0  0  0  0  0  0  0  0
   59.4240   34.2670   44.4240 C   0  0  0  0  0  0  0  0  0  0  0  0
   60.2040   32.6570   46.8560 C   0  0  0  0  0  0  0  0  0  0  0  0
   61.5780   33.0550   46.3940 C   0  0  0  0  0  0  0  0  0  0  0  0
   62.2530   33.9820   47.0050 N   0  0  0  0  0  0  0  0  0  0  0  0
   63.3060   33.7170   47.9360 C   0  0  0  0  0  0  0  0  0  0  0  0
   64.4640   33.4730   47.4990 O   0  0  0  0  0  0  0  0  0  0  0  0
   63.0670   33.7120   49.3900 C   0  0  0  0  0  0  0  0  0  0  0  0
   63.9650   33.3200   50.3650 C   0  0  0  0  0  0  0  0  0  0  0  0
   65.3700   32.8570   50.1450 C   0  0  0  0  0  0  0  0  0  0  0  0
   63.3500   33.2700   51.5600 N   0  0  0  0  0  0  0  0  0  0  0  0
   62.0630   33.6320   51.3700 C   0  0  0  0  0  0  0  0  0  0  0  0
   61.0190   33.5340   52.4570 C   0  0  0  0  0  0  0  0  0  0  0  0
   59.8180   32.7320   51.9600 C   0  0  0  0  0  0  0  0  0  0  0  0
   58.4950   33.1810   52.2450 C   0  0  0  0  0  0  0  0  0  0  0  0
   58.2140   34.4580   52.7440 O   0  0  0  0  0  0  0  0  0  0  0  0
   57.4360   32.3550   52.0480 N   0  0  0  0  0  0  0  0  0  0  0  0
   57.5570   31.1070   51.5410 C   0  0  0  0  0  0  0  0  0  0  0  0
   56.5220   30.4010   51.3960 O   0  0  0  0  0  0  0  0  0  0  0  0
   58.8210   30.6190   51.1730 C   0  0  0  0  0  0  0  0  0  0  0  0
   58.9580   29.3260   50.6340 C   0  0  0  0  0  0  0  0  0  0  0  0
   60.2150   28.8310   50.2620 C   0  0  0  0  0  0  0  0  0  0  0  0
   60.3850   27.5010   49.7450 N   0  0  0  0  0  0  0  0  0  0  0  0
   60.0660   27.0080   48.1070 S   0  0  0  0  0  0  0  0  0  0  0  0
   58.9490   26.0040   48.1300 O   0  0  0  0  0  0  0  0  0  0  0  0
   61.2890   26.3400   47.5370 O   0  0  0  0  0  0  0  0  0  0  0  0
   59.5780   28.3510   47.0730 C   0  0  0  0  0  0  0  0  0  0  0  0
   58.3550   29.0060   47.2940 C   0  0  0  0  0  0  0  0  0  0  0  0
   57.9340   30.0150   46.4230 C   0  0  0  0  0  0  0  0  0  0  0  0
   58.7250   30.3630   45.3240 C   0  0  0  0  0  0  0  0  0  0  0  0
   59.9480   29.7200   45.1080 C   0  0  0  0  0  0  0  0  0  0  0  0
   60.3740   28.7150   45.9790 C   0  0  0  0  0  0  0  0  0  0  0  0
   61.3410   29.6200   50.4670 C   0  0  0  0  0  0  0  0  0  0  0  0
   61.2250   30.9050   51.0010 C   0  0  0  0  0  0  0  0  0  0  0  0
   59.9690   31.4320   51.3790 C   0  0  0  0  0  0  0  0  0  0  0  0
   61.8600   33.9500   50.0300 C   0  0  0  0  0  0  0  0  0  0  0  0
   60.5570   34.2500   49.3510 C   0  0  0  0  0  0  0  0  0  0  0  0
   55.9302   33.1745   46.1849 H   0  0  0  0  0  0  0  0  0  0  0  0
   57.1168   34.2181   45.3309 H   0  0  0  0  0  0  0  0  0  0  0  0
   57.3262   32.4340   45.3309 H   0  0  0  0  0  0  0  0  0  0  0  0
   57.3838   34.1595   47.8600 H   0  0  0  0  0  0  0  0  0  0  0  0
   57.8265   32.4115   47.6907 H   0  0  0  0  0  0  0  0  0  0  0  0
   58.5572   35.5171   45.9459 H   0  0  0  0  0  0  0  0  0  0  0  0
   60.3736   35.2753   46.0417 H   0  0  0  0  0  0  0  0  0  0  0  0
   59.4849   33.1689   44.4463 H   0  0  0  0  0  0  0  0  0  0  0  0
   58.5075   34.5728   43.8981 H   0  0  0  0  0  0  0  0  0  0  0  0
   60.3011   34.6723   43.8981 H   0  0  0  0  0  0  0  0  0  0  0  0
   60.2914   32.2300   47.8659 H   0  0  0  0  0  0  0  0  0  0  0  0
   59.8214   31.9381   46.1166 H   0  0  0  0  0  0  0  0  0  0  0  0
   62.0206   32.5517   45.5218 H   0  0  0  0  0  0  0  0  0  0  0  0
   65.8593   32.6957   51.1169 H   0  0  0  0  0  0  0  0  0  0  0  0
   65.3609   31.9143   49.5782 H   0  0  0  0  0  0  0  0  0  0  0  0
   65.9231   33.6204   49.5782 H   0  0  0  0  0  0  0  0  0  0  0  0
   63.7820   32.9580   52.4550 H   0  0  0  0  0  0  0  0  0  0  0  0
   61.4533   33.0327   53.3345 H   0  0  0  0  0  0  0  0  0  0  0  0
   60.6876   34.5466   52.7305 H   0  0  0  0  0  0  0  0  0  0  0  0
   58.1480   35.2940   52.1810 H   0  0  0  0  0  0  0  0  0  0  0  0
   58.0662   28.6955   50.5030 H   0  0  0  0  0  0  0  0  0  0  0  0
   57.7282   28.7247   48.1531 H   0  0  0  0  0  0  0  0  0  0  0  0
   56.9812   30.5347   46.6021 H   0  0  0  0  0  0  0  0  0  0  0  0
   58.3848   31.1439   44.6280 H   0  0  0  0  0  0  0  0  0  0  0  0
   60.5752   30.0063   44.2509 H   0  0  0  0  0  0  0  0  0  0  0  0
   61.3352   28.2088   45.8060 H   0  0  0  0  0  0  0  0  0  0  0  0
   62.3348   29.2276   50.2055 H   0  0  0  0  0  0  0  0  0  0  0  0
   62.1285   31.5191   51.1300 H   0  0  0  0  0  0  0  0  0  0  0  0
   59.7808   34.4287   50.1097 H   0  0  0  0  0  0  0  0  0  0  0  0
   60.6687   35.1459   48.7226 H   0  0  0  0  0  0  0  0  0  0  0  0
   60.2657   33.3954   48.7226 H   0  0  0  0  0  0  0  0  0  0  0  0
  1  2  1  0
  2  3  1  0
  3  4  1  0
  4  5  1  0
  3  6  1  0
  6  7  1  0
  7  8  2  3
  8  9  1  0
  9 10  2  0
  9 11  1  0
 11 12  2  0
 12 13  1  0
 12 14  1  0
 14 15  1  0
 15 16  1  0
 16 17  1  0
 17 18  2  0
 18 19  1  0
 18 20  1  0
 20 21  1  0
 21 22  2  0
 21 23  1  0
 23 24  2  0
 24 25  1  0
 25 26  1  0
 26 27  1  0
 27 28  2  0
 27 29  2  0
 27 30  1  0
 30 31  2  0
 31 32  1  0
 32 33  2  0
 33 34  1  0
 34 35  2  0
 25 36  2  0
 36 37  1  0
 37 38  2  0
 15 39  2  0
 39 40  1  0
 39 11  1  0
 38 17  1  0
 38 23  1  0
 35 30  1  0
  1 41  1  0
  1 42  1  0
  1 43  1  0
  2 44  1  0
  2 45  1  0
  4 46  1  0
  4 47  1  0
  5 48  1  0
  5 49  1  0
  5 50  1  0
  6 51  1  0
  6 52  1  0
  7 53  1  0
 13 54  1  0
 13 55  1  0
 13 56  1  0
 14 57  1  0
 16 58  1  0
 16 59  1  0
 19 60  1  0
 24 61  1  0
 31 62  1  0
 32 63  1  0
 33 64  1  0
 34 65  1  0
 35 66  1  0
 36 67  1  0
 37 68  1  0
 40 69  1  0
 40 70  1  0
 40 71  1  0
M  CHG  2  20  -1  26  -1
M  END
>  <UniqueID>  (34) 
31

>  <SMILES>  (34) 
CCN(CC)CC=NC(=O)c1c(C)[nH]c(Cc2c(O)[n-]c(=O)c3cc([N-]S(=O)(=O)c4ccccc4)ccc23)c1C

>  <Energy>  (34) 
130.30885767051387

>  <Genealogy>  (34) 
CCN(CC)CC=NC(=O)c1c(C)[nH]c(Cc2c(O)[n-]c(=O)c3cc([N-]S(=O)(=O)c4ccccc4)ccc23)c1C (protonated)
CCN(CC)CC=NC(=O)c1c(C)[nH]c(Cc2c(O)[n-]c(=O)c3cc([N-]S(=O)(=O)c4ccccc4)ccc23)c1C (3D coordinates assigned)
CCN(CC)CC=NC(=O)c1c(C)[nH]c(Cc2c(O)[n-]c(=O)c3cc([N-]S(=O)(=O)c4ccccc4)ccc23)c1C (optimized conformer: 130.30885767051387 kcal/mol)

>  <smiles>  (34) 
CCN(CC)CC=NC(=O)c1c(C)[nH]c(Cc2c(O)[nH]c(=O)c3cc(NS(=O)(=O)c4ccccc4)ccc23)c1C

>  <score_type>  (34) 
oracle

>  <origin>  (34) 
adg

>  <m_score__min__energy>  (34) 
-11.960000000000001

>  <m_primary>  (34) 
energy

$$$$
34:0
     RDKit          3D

 53 55  0  0  0  0  0  0  0  0999 V2000
   59.5130   29.0530   51.3500 C   0  0  0  0  0  0  0  0  0  0  0  0
   61.1970   28.8490   50.8140 S   0  0  0  0  0  0  0  0  0  0  0  0
   61.1930   28.4450   49.3690 O   0  0  0  0  0  0  0  0  0  0  0  0
   61.8790   27.7770   51.6150 O   0  0  0  0  0  0  0  0  0  0  0  0
   62.0560   30.3440   50.9690 N   0  0  0  0  0  0  0  0  0  0  0  0
   62.3780   31.2430   49.8970 C   0  0  0  0  0  0  0  0  0  0  0  0
   63.6180   31.9020   49.8220 C   0  0  0  0  0  0  0  0  0  0  0  0
   63.8940   32.7650   48.7610 C   0  0  0  0  0  0  0  0  0  0  0  0
   62.9410   32.9890   47.7630 C   0  0  0  0  0  0  0  0  0  0  0  0
   63.3880   33.9880   46.3890 Cl  0  0  0  0  0  0  0  0  0  0  0  0
   61.6890   32.3490   47.8380 C   0  0  0  0  0  0  0  0  0  0  0  0
   60.6940   32.5280   46.8250 N   0  0  0  0  0  0  0  0  0  0  0  0
   59.4450   33.7260   46.9170 S   0  0  0  0  0  0  0  0  0  0  0  0
   58.2350   33.1580   47.6050 O   0  0  0  0  0  0  0  0  0  0  0  0
   59.9470   34.9150   47.6890 O   0  0  0  0  0  0  0  0  0  0  0  0
   58.9900   34.2270   45.2650 C   0  0  0  0  0  0  0  0  0  0  0  0
   58.0960   33.1940   44.6630 C   0  0  0  0  0  0  0  0  0  0  0  0
   57.0220   32.7350   45.3530 N   0  0  0  0  0  0  0  0  0  0  0  0
   56.3050   31.7150   44.8870 N   0  0  0  0  0  0  0  0  0  0  0  0
   56.6450   31.1100   43.7210 C   0  0  0  0  0  0  0  0  0  0  0  0
   55.9020   29.8980   43.2500 C   0  0  0  0  0  0  0  0  0  0  0  0
   55.6610   28.9780   44.3630 N   0  0  0  0  0  0  0  0  0  0  0  0
   56.6990   28.3840   45.1720 C   0  0  0  0  0  0  0  0  0  0  0  0
   58.0070   28.9100   45.1890 C   0  0  0  0  0  0  0  0  0  0  0  0
   59.0220   28.2980   45.9470 C   0  0  0  0  0  0  0  0  0  0  0  0
   60.4070   28.8380   45.9530 C   0  0  0  0  0  0  0  0  0  0  0  0
   61.3060   28.5060   44.8870 N   0  0  0  0  0  0  0  0  0  0  0  0
   60.8230   29.5970   46.9240 N   0  0  0  0  0  0  0  0  0  0  0  0
   58.7120   27.1550   46.7000 C   0  0  0  0  0  0  0  0  0  0  0  0
   57.4160   26.6400   46.7040 C   0  0  0  0  0  0  0  0  0  0  0  0
   56.4140   27.2440   45.9470 C   0  0  0  0  0  0  0  0  0  0  0  0
   55.1360   26.7000   45.9610 O   0  0  0  0  0  0  0  0  0  0  0  0
   57.7110   31.5770   43.0240 N   0  0  0  0  0  0  0  0  0  0  0  0
   58.4280   32.5980   43.4910 N   0  0  0  0  0  0  0  0  0  0  0  0
   61.4240   31.4630   48.8930 C   0  0  0  0  0  0  0  0  0  0  0  0
   60.2020   30.7990   48.9450 O   0  0  0  0  0  0  0  0  0  0  0  0
   59.4761   29.0575   52.4494 H   0  0  0  0  0  0  0  0  0  0  0  0
   59.1188   30.0055   50.9660 H   0  0  0  0  0  0  0  0  0  0  0  0
   58.9028   28.2222   50.9660 H   0  0  0  0  0  0  0  0  0  0  0  0
   64.3740   31.7363   50.6036 H   0  0  0  0  0  0  0  0  0  0  0  0
   64.8684   33.2728   48.7094 H   0  0  0  0  0  0  0  0  0  0  0  0
   58.4616   35.1909   45.3061 H   0  0  0  0  0  0  0  0  0  0  0  0
   59.8959   34.3328   44.6501 H   0  0  0  0  0  0  0  0  0  0  0  0
   54.9374   30.2086   42.8221 H   0  0  0  0  0  0  0  0  0  0  0  0
   56.5073   29.3838   42.4889 H   0  0  0  0  0  0  0  0  0  0  0  0
   54.6730   28.6790   44.5160 H   0  0  0  0  0  0  0  0  0  0  0  0
   58.2370   29.8111   44.6016 H   0  0  0  0  0  0  0  0  0  0  0  0
   62.3020   28.8180   44.9140 H   0  0  0  0  0  0  0  0  0  0  0  0
   60.9720   27.9950   44.0410 H   0  0  0  0  0  0  0  0  0  0  0  0
   61.1600   29.1810   47.8200 H   0  0  0  0  0  0  0  0  0  0  0  0
   60.8040   30.6380   46.8540 H   0  0  0  0  0  0  0  0  0  0  0  0
   59.4972   26.6616   47.2916 H   0  0  0  0  0  0  0  0  0  0  0  0
   57.1832   25.7511   47.3087 H   0  0  0  0  0  0  0  0  0  0  0  0
  1  2  1  0
  2  3  2  0
  2  4  2  0
  2  5  1  0
  5  6  1  0
  6  7  2  0
  7  8  1  0
  8  9  2  0
  9 10  1  0
  9 11  1  0
 11 12  1  0
 12 13  1  0
 13 14  2  0
 13 15  2  0
 13 16  1  0
 16 17  1  0
 17 18  2  0
 18 19  1  0
 19 20  2  0
 20 21  1  0
 21 22  1  0
 22 23  1  0
 23 24  2  0
 24 25  1  0
 25 26  1  0
 26 27  1  0
 26 28  2  0
 25 29  2  0
 29 30  1  0
 30 31  2  0
 31 32  1  0
 20 33  1  0
 33 34  2  0
 11 35  2  0
 35 36  1  0
 35  6  1  0
 34 17  1  0
 31 23  1  0
  1 37  1  0
  1 38  1  0
  1 39  1  0
  7 40  1  0
  8 41  1  0
 16 42  1  0
 16 43  1  0
 21 44  1  0
 21 45  1  0
 22 46  1  0
 24 47  1  0
 27 48  1  0
 27 49  1  0
 28 50  1  0
 28 51  1  0
 29 52  1  0
 30 53  1  0
M  CHG  5   5  -1  12  -1  28   1  32  -1  36  -1
M  END
>  <UniqueID>  (35) 
32

>  <SMILES>  (35) 
CS(=O)(=O)[N-]c1ccc(Cl)c([N-]S(=O)(=O)Cc2nnc(CNc3cc(C(N)=[NH2+])ccc3[O-])nn2)c1[O-]

>  <Energy>  (35) 
60.12645939752785

>  <Genealogy>  (35) 
CS(=O)(=O)[N-]c1ccc(Cl)c([N-]S(=O)(=O)Cc2nnc(CNc3cc(C(N)=[NH2+])ccc3[O-])nn2)c1[O-] (protonated)
CS(=O)(=O)[N-]c1ccc(Cl)c([N-]S(=O)(=O)Cc2nnc(CNc3cc(C(N)=[NH2+])ccc3[O-])nn2)c1[O-] (3D coordinates assigned)
CS(=O)(=O)[N-]c1ccc(Cl)c([N-]S(=O)(=O)Cc2nnc(CNc3cc(C(N)=[NH2+])ccc3[O-])nn2)c1[O-] (optimized conformer: 60.12645939752785 kcal/mol)

>  <smiles>  (35) 
CS(=O)(=O)Nc1ccc(Cl)c(NS(=O)(=O)Cc2nnc(CNc3cc(C(=N)N)ccc3O)nn2)c1O

>  <score_type>  (35) 
oracle

>  <origin>  (35) 
adg

>  <m_score__min__energy>  (35) 
-15.5

>  <m_primary>  (35) 
energy

$$$$
35:0
     RDKit          3D

 35 36  0  0  0  0  0  0  0  0999 V2000
   61.0720   33.5350   46.7260 C   0  0  0  0  0  0  0  0  0  0  0  0
   59.4230   34.1830   46.8980 S   0  0  0  0  0  0  0  0  0  0  0  0
   59.1540   35.1260   45.7600 O   0  0  0  0  0  0  0  0  0  0  0  0
   59.2870   34.9350   48.1910 O   0  0  0  0  0  0  0  0  0  0  0  0
   58.2650   32.8930   46.8360 N   0  0  0  0  0  0  0  0  0  0  0  0
   57.9190   32.1300   45.6710 C   0  0  0  0  0  0  0  0  0  0  0  0
   57.7390   32.7230   44.4100 C   0  0  0  0  0  0  0  0  0  0  0  0
   57.3920   31.9390   43.3080 C   0  0  0  0  0  0  0  0  0  0  0  0
   57.2310   30.5590   43.4480 C   0  0  0  0  0  0  0  0  0  0  0  0
   57.4290   29.9470   44.6980 C   0  0  0  0  0  0  0  0  0  0  0  0
   57.2480   28.5310   44.8760 N   0  0  0  0  0  0  0  0  0  0  0  0
   58.1600   27.5420   44.3690 C   0  0  0  0  0  0  0  0  0  0  0  0
   59.3600   27.8530   44.1390 O   0  0  0  0  0  0  0  0  0  0  0  0
   57.7470   26.1390   44.1640 C   0  0  0  0  0  0  0  0  0  0  0  0
   57.3590   25.3380   45.1650 C   0  0  0  0  0  0  0  0  0  0  0  0
   56.0360   24.6670   45.1900 C   0  0  0  0  0  0  0  0  0  0  0  0
   54.9010   25.3870   45.6020 C   0  0  0  0  0  0  0  0  0  0  0  0
   55.0110   26.7130   46.0070 O   0  0  0  0  0  0  0  0  0  0  0  0
   53.6840   24.7870   45.6230 N   0  0  0  0  0  0  0  0  0  0  0  0
   53.5310   23.4950   45.2380 C   0  0  0  0  0  0  0  0  0  0  0  0
   52.3940   22.9600   45.2700 O   0  0  0  0  0  0  0  0  0  0  0  0
   54.6040   22.7830   44.8120 N   0  0  0  0  0  0  0  0  0  0  0  0
   55.8450   23.3340   44.7690 C   0  0  0  0  0  0  0  0  0  0  0  0
   56.8030   22.6480   44.3250 O   0  0  0  0  0  0  0  0  0  0  0  0
   57.7560   30.7440   45.8050 C   0  0  0  0  0  0  0  0  0  0  0  0
   61.5049   33.3649   47.7228 H   0  0  0  0  0  0  0  0  0  0  0  0
   61.0365   32.5839   46.1745 H   0  0  0  0  0  0  0  0  0  0  0  0
   61.6935   34.2558   46.1745 H   0  0  0  0  0  0  0  0  0  0  0  0
   57.8719   33.8084   44.2906 H   0  0  0  0  0  0  0  0  0  0  0  0
   57.2448   32.4105   42.3251 H   0  0  0  0  0  0  0  0  0  0  0  0
   56.9484   29.9489   42.5775 H   0  0  0  0  0  0  0  0  0  0  0  0
   56.4790   28.2130   45.5080 H   0  0  0  0  0  0  0  0  0  0  0  0
   57.7586   25.7329   43.1418 H   0  0  0  0  0  0  0  0  0  0  0  0
   58.0505   25.1706   46.0040 H   0  0  0  0  0  0  0  0  0  0  0  0
   57.8863   30.2752   46.7915 H   0  0  0  0  0  0  0  0  0  0  0  0
  1  2  1  0
  2  3  2  0
  2  4  2  0
  2  5  1  0
  5  6  1  0
  6  7  2  0
  7  8  1  0
  8  9  2  0
  9 10  1  0
 10 11  1  0
 11 12  1  0
 12 13  2  0
 12 14  1  0
 14 15  2  3
 15 16  1  0
 16 17  2  0
 17 18  1  0
 17 19  1  0
 19 20  1  0
 20 21  2  0
 20 22  1  0
 22 23  1  0
 23 24  2  0
 10 25  2  0
 25  6  1  0
 23 16  1  0
  1 26  1  0
  1 27  1  0
  1 28  1  0
  7 29  1  0
  8 30  1  0
  9 31  1  0
 11 32  1  0
 14 33  1  0
 15 34  1  0
 25 35  1  0
M  CHG  4   5  -1  18  -1  19  -1  22  -1
M  END
>  <UniqueID>  (36) 
33

>  <SMILES>  (36) 
CS(=O)(=O)[N-]c1cccc(NC(=O)C=Cc2c([O-])[n-]c(=O)[n-]c2=O)c1

>  <Energy>  (36) 
45.20480086115124

>  <Genealogy>  (36) 
CS(=O)(=O)[N-]c1cccc(NC(=O)C=Cc2c([O-])[n-]c(=O)[n-]c2=O)c1 (protonated)
CS(=O)(=O)[N-]c1cccc(NC(=O)C=Cc2c([O-])[n-]c(=O)[n-]c2=O)c1 (3D coordinates assigned)
CS(=O)(=O)[N-]c1cccc(NC(=O)C=Cc2c([O-])[n-]c(=O)[n-]c2=O)c1 (optimized conformer: 45.20480086115124 kcal/mol)

>  <smiles>  (36) 
CS(=O)(=O)Nc1cccc(NC(=O)C=Cc2c(O)[nH]c(=O)[nH]c2=O)c1

>  <score_type>  (36) 
oracle

>  <origin>  (36) 
adg

>  <m_score__min__energy>  (36) 
-16.420000000000002

>  <m_primary>  (36) 
energy

$$$$
36:0
     RDKit          3D

 54 57  0  0  0  0  0  0  0  0999 V2000
   56.9360   29.2840   43.6110 C   0  0  0  0  0  0  0  0  0  0  0  0
   57.7950   28.8190   44.7550 C   0  0  0  0  0  0  0  0  0  0  0  0
   59.1130   29.2870   44.8750 C   0  0  0  0  0  0  0  0  0  0  0  0
   59.9140   28.8830   45.9430 C   0  0  0  0  0  0  0  0  0  0  0  0
   59.4200   27.9870   46.9030 C   0  0  0  0  0  0  0  0  0  0  0  0
   60.2670   27.5460   48.0370 C   0  0  0  0  0  0  0  0  0  0  0  0
   60.8750   26.4450   47.9620 O   0  0  0  0  0  0  0  0  0  0  0  0
   60.3780   28.3100   49.2460 N   0  0  0  0  0  0  0  0  0  0  0  0
   59.9990   29.6830   49.4180 C   0  0  0  0  0  0  0  0  0  0  0  0
   58.8340   30.0450   50.1150 C   0  0  0  0  0  0  0  0  0  0  0  0
   58.4800   31.3910   50.2390 C   0  0  0  0  0  0  0  0  0  0  0  0
   59.2810   32.3840   49.6680 C   0  0  0  0  0  0  0  0  0  0  0  0
   60.4490   32.0340   48.9680 C   0  0  0  0  0  0  0  0  0  0  0  0
   61.2810   33.0180   48.3370 N   0  0  0  0  0  0  0  0  0  0  0  0
   61.2010   33.4620   46.9750 C   0  0  0  0  0  0  0  0  0  0  0  0
   62.2470   33.8090   46.3610 O   0  0  0  0  0  0  0  0  0  0  0  0
   59.8970   33.4640   46.2700 C   0  0  0  0  0  0  0  0  0  0  0  0
   59.4410   34.6220   45.6140 C   0  0  0  0  0  0  0  0  0  0  0  0
   58.2100   34.6230   44.9500 C   0  0  0  0  0  0  0  0  0  0  0  0
   57.4210   33.4720   44.9370 C   0  0  0  0  0  0  0  0  0  0  0  0
   57.8610   32.3160   45.5860 C   0  0  0  0  0  0  0  0  0  0  0  0
   59.0910   32.3090   46.2510 C   0  0  0  0  0  0  0  0  0  0  0  0
   60.7830   30.6810   48.8250 C   0  0  0  0  0  0  0  0  0  0  0  0
   58.0970   27.5320   46.7960 C   0  0  0  0  0  0  0  0  0  0  0  0
   57.2720   27.9580   45.7390 C   0  0  0  0  0  0  0  0  0  0  0  0
   55.9140   27.4980   45.6290 N   0  0  0  0  0  0  0  0  0  0  0  0
   55.4650   26.1470   45.7860 C   0  0  0  0  0  0  0  0  0  0  0  0
   54.2320   25.9280   45.9100 O   0  0  0  0  0  0  0  0  0  0  0  0
   56.3960   25.0030   45.8210 C   0  0  0  0  0  0  0  0  0  0  0  0
   56.5760   24.2640   46.8920 O   0  0  0  0  0  0  0  0  0  0  0  0
   57.4540   23.3250   46.6220 C   0  0  0  0  0  0  0  0  0  0  0  0
   57.8850   23.4480   45.3180 C   0  0  0  0  0  0  0  0  0  0  0  0
   57.2180   24.5390   44.8010 C   0  0  0  0  0  0  0  0  0  0  0  0
   57.3960   25.0900   43.4220 C   0  0  0  0  0  0  0  0  0  0  0  0
   56.0330   29.7728   44.0056 H   0  0  0  0  0  0  0  0  0  0  0  0
   57.5010   29.9995   42.9954 H   0  0  0  0  0  0  0  0  0  0  0  0
   56.6459   28.4198   42.9954 H   0  0  0  0  0  0  0  0  0  0  0  0
   59.5174   29.9780   44.1206 H   0  0  0  0  0  0  0  0  0  0  0  0
   60.9399   29.2695   46.0332 H   0  0  0  0  0  0  0  0  0  0  0  0
   58.1991   29.2670   50.5641 H   0  0  0  0  0  0  0  0  0  0  0  0
   57.5683   31.6700   50.7876 H   0  0  0  0  0  0  0  0  0  0  0  0
   58.9968   33.4421   49.7666 H   0  0  0  0  0  0  0  0  0  0  0  0
   60.0571   35.5332   45.6234 H   0  0  0  0  0  0  0  0  0  0  0  0
   57.8633   35.5324   44.4373 H   0  0  0  0  0  0  0  0  0  0  0  0
   56.4524   33.4751   44.4156 H   0  0  0  0  0  0  0  0  0  0  0  0
   57.2385   31.4092   45.5739 H   0  0  0  0  0  0  0  0  0  0  0  0
   59.4311   31.3963   46.7622 H   0  0  0  0  0  0  0  0  0  0  0  0
   61.6711   30.3991   48.2404 H   0  0  0  0  0  0  0  0  0  0  0  0
   57.7001   26.8338   47.5476 H   0  0  0  0  0  0  0  0  0  0  0  0
   57.7946   22.5555   47.3304 H   0  0  0  0  0  0  0  0  0  0  0  0
   58.6117   22.8074   44.7969 H   0  0  0  0  0  0  0  0  0  0  0  0
   57.7336   26.1350   43.4854 H   0  0  0  0  0  0  0  0  0  0  0  0
   58.1473   24.4940   42.8832 H   0  0  0  0  0  0  0  0  0  0  0  0
   56.4380   25.0462   42.8832 H   0  0  0  0  0  0  0  0  0  0  0  0
  1  2  1  0
  2  3  2  0
  3  4  1  0
  4  5  2  0
  5  6  1  0
  6  7  2  0
  6  8  1  0
  8  9  1  0
  9 10  2  0
 10 11  1  0
 11 12  2  0
 12 13  1  0
 13 14  1  0
 14 15  1  0
 15 16  2  0
 15 17  1  0
 17 18  2  0
 18 19  1  0
 19 20  2  0
 20 21  1  0
 21 22  2  0
 13 23  2  0
  5 24  1  0
 24 25  2  0
 25 26  1  0
 26 27  1  0
 27 28  2  0
 27 29  1  0
 29 30  1  0
 30 31  1  0
 31 32  2  0
 32 33  1  0
 33 34  1  0
 25  2  1  0
 33 29  2  0
 23  9  1  0
 22 17  1  0
  1 35  1  0
  1 36  1  0
  1 37  1  0
  3 38  1  0
  4 39  1  0
 10 40  1  0
 11 41  1  0
 12 42  1  0
 18 43  1  0
 19 44  1  0
 20 45  1  0
 21 46  1  0
 22 47  1  0
 23 48  1  0
 24 49  1  0
 31 50  1  0
 32 51  1  0
 34 52  1  0
 34 53  1  0
 34 54  1  0
M  CHG  3   8  -1  14  -1  26  -1
M  END
>  <UniqueID>  (37) 
34

>  <SMILES>  (37) 
Cc1ccc(C(=O)[N-]c2cccc([N-]C(=O)c3ccccc3)c2)cc1[N-]C(=O)c1occc1C

>  <Energy>  (37) 
101.08732742068133

>  <Genealogy>  (37) 
Cc1ccc(C(=O)[N-]c2cccc([N-]C(=O)c3ccccc3)c2)cc1[N-]C(=O)c1occc1C (protonated)
Cc1ccc(C(=O)[N-]c2cccc([N-]C(=O)c3ccccc3)c2)cc1[N-]C(=O)c1occc1C (3D coordinates assigned)
Cc1ccc(C(=O)[N-]c2cccc([N-]C(=O)c3ccccc3)c2)cc1[N-]C(=O)c1occc1C (optimized conformer: 101.08732742068133 kcal/mol)

>  <smiles>  (37) 
Cc1ccc(C(=O)Nc2cccc(NC(=O)c3ccccc3)c2)cc1NC(=O)c1occc1C

>  <score_type>  (37) 
oracle

>  <origin>  (37) 
adg

>  <m_score__min__energy>  (37) 
-14.51

>  <m_primary>  (37) 
energy

$$$$
37:0
     RDKit          3D

 38 40  0  0  0  0  0  0  0  0999 V2000
   57.2170   28.4840   43.4540 N   0  0  0  0  0  0  0  0  0  0  0  0
   56.6450   29.5610   44.2030 C   0  0  0  0  0  0  0  0  0  0  0  0
   55.6320   29.3340   44.9170 O   0  0  0  0  0  0  0  0  0  0  0  0
   57.2270   30.9250   44.1670 C   0  0  0  0  0  0  0  0  0  0  0  0
   57.5850   31.5310   42.9490 C   0  0  0  0  0  0  0  0  0  0  0  0
   58.1450   32.8110   42.9350 C   0  0  0  0  0  0  0  0  0  0  0  0
   58.3390   33.5070   44.1290 C   0  0  0  0  0  0  0  0  0  0  0  0
   57.9550   32.9400   45.3490 C   0  0  0  0  0  0  0  0  0  0  0  0
   58.1840   33.6850   46.5540 N   0  0  0  0  0  0  0  0  0  0  0  0
   59.4310   34.2360   46.9940 C   0  0  0  0  0  0  0  0  0  0  0  0
   59.7220   35.4420   46.7680 O   0  0  0  0  0  0  0  0  0  0  0  0
   60.4210   33.3530   47.6870 C   0  0  0  0  0  0  0  0  0  0  0  0
   59.7220   32.3420   48.5000 N   0  0  0  0  0  0  0  0  0  0  0  0
   59.1250   32.7260   49.7580 C   0  0  0  0  0  0  0  0  0  0  0  0
   59.2610   33.8970   50.2050 O   0  0  0  0  0  0  0  0  0  0  0  0
   58.2670   31.7550   50.5130 C   0  0  0  0  0  0  0  0  0  0  0  0
   58.6390   30.4090   50.2300 O   0  0  0  0  0  0  0  0  0  0  0  0
   59.0800   30.0100   48.9660 C   0  0  0  0  0  0  0  0  0  0  0  0
   59.0190   28.6590   48.6120 C   0  0  0  0  0  0  0  0  0  0  0  0
   59.4290   28.2470   47.3430 C   0  0  0  0  0  0  0  0  0  0  0  0
   59.9060   29.1860   46.4240 C   0  0  0  0  0  0  0  0  0  0  0  0
   60.4070   28.6660   44.8260 Cl  0  0  0  0  0  0  0  0  0  0  0  0
   59.9910   30.5360   46.7800 C   0  0  0  0  0  0  0  0  0  0  0  0
   59.5920   30.9640   48.0640 C   0  0  0  0  0  0  0  0  0  0  0  0
   57.4140   31.6400   45.3660 C   0  0  0  0  0  0  0  0  0  0  0  0
   56.7530   27.5490   43.4510 H   0  0  0  0  0  0  0  0  0  0  0  0
   58.1390   28.5760   42.9740 H   0  0  0  0  0  0  0  0  0  0  0  0
   57.4232   30.9943   42.0026 H   0  0  0  0  0  0  0  0  0  0  0  0
   58.4341   33.2720   41.9790 H   0  0  0  0  0  0  0  0  0  0  0  0
   58.7965   34.5072   44.1108 H   0  0  0  0  0  0  0  0  0  0  0  0
   61.0444   32.8467   46.9353 H   0  0  0  0  0  0  0  0  0  0  0  0
   61.0511   33.9690   48.3454 H   0  0  0  0  0  0  0  0  0  0  0  0
   58.3806   31.9393   51.5915 H   0  0  0  0  0  0  0  0  0  0  0  0
   57.2218   31.8997   50.2023 H   0  0  0  0  0  0  0  0  0  0  0  0
   58.6469   27.9186   49.3355 H   0  0  0  0  0  0  0  0  0  0  0  0
   59.3768   27.1837   47.0662 H   0  0  0  0  0  0  0  0  0  0  0  0
   60.3716   31.2693   46.0538 H   0  0  0  0  0  0  0  0  0  0  0  0
   57.1348   31.1786   46.3247 H   0  0  0  0  0  0  0  0  0  0  0  0
  1  2  1  0
  2  3  2  0
  2  4  1  0
  4  5  2  0
  5  6  1  0
  6  7  2  0
  7  8  1  0
  8  9  1  0
  9 10  1  0
 10 11  2  0
 10 12  1  0
 12 13  1  0
 13 14  1  0
 14 15  2  0
 14 16  1  0
 16 17  1  0
 17 18  1  0
 18 19  2  0
 19 20  1  0
 20 21  2  0
 21 22  1  0
 21 23  1  0
 23 24  2  0
  8 25  2  0
 25  4  1  0
 24 13  1  0
 24 18  1  0
  1 26  1  0
  1 27  1  0
  5 28  1  0
  6 29  1  0
  7 30  1  0
 12 31  1  0
 12 32  1  0
 16 33  1  0
 16 34  1  0
 19 35  1  0
 20 36  1  0
 23 37  1  0
 25 38  1  0
M  CHG  1   9  -1
M  END
>  <UniqueID>  (38) 
35

>  <SMILES>  (38) 
NC(=O)c1cccc([N-]C(=O)CN2C(=O)COc3ccc(Cl)cc32)c1

>  <Energy>  (38) 
48.511203997025056

>  <Genealogy>  (38) 
NC(=O)c1cccc([N-]C(=O)CN2C(=O)COc3ccc(Cl)cc32)c1 (protonated)
NC(=O)c1cccc([N-]C(=O)CN2C(=O)COc3ccc(Cl)cc32)c1 (3D coordinates assigned)
NC(=O)c1cccc([N-]C(=O)CN2C(=O)COc3ccc(Cl)cc32)c1 (nonaromatic ring conformer: 48.511203997025056 kcal/mol)

>  <smiles>  (38) 
NC(=O)c1cccc(NC(=O)CN2C(=O)COc3ccc(Cl)cc32)c1

>  <score_type>  (38) 
oracle

>  <origin>  (38) 
adg

>  <m_score__min__energy>  (38) 
-10.23

>  <m_primary>  (38) 
energy

$$$$
38:0
     RDKit          3D

 46 48  0  0  0  0  0  0  0  0999 V2000
   50.3630   33.8490   51.6210 H   0  0  0  0  0  0  0  0  0  0  0  0
   50.8450   33.2740   52.3000 O   0  0  0  0  0  0  0  0  0  0  0  0
   51.5290   32.1200   51.9240 C   0  0  0  0  0  0  0  0  0  0  0  0
   52.3190   31.4260   52.8530 C   0  0  0  0  0  0  0  0  0  0  0  0
   52.3878   31.7879   53.8895 H   0  0  0  0  0  0  0  0  0  0  0  0
   53.0230   30.2720   52.4690 C   0  0  0  0  0  0  0  0  0  0  0  0
   53.8620   29.5370   53.4480 C   0  0  0  0  0  0  0  0  0  0  0  0
   55.1010   29.8600   53.7000 N   0  0  0  0  0  0  0  0  0  0  0  0
   56.0950   30.3000   52.7590 C   0  0  0  0  0  0  0  0  0  0  0  0
   56.0480   31.5810   52.1850 C   0  0  0  0  0  0  0  0  0  0  0  0
   55.2413   32.2757   52.4619 H   0  0  0  0  0  0  0  0  0  0  0  0
   57.0210   31.9770   51.2640 C   0  0  0  0  0  0  0  0  0  0  0  0
   56.9901   32.9906   50.8377 H   0  0  0  0  0  0  0  0  0  0  0  0
   58.0390   31.0880   50.8790 C   0  0  0  0  0  0  0  0  0  0  0  0
   59.0600   31.5030   49.9510 N   0  0  0  0  0  0  0  0  0  0  0  0
   60.3830   30.8720   49.9810 C   0  0  0  0  0  0  0  0  0  0  0  0
   60.6704   30.6857   51.0263 H   0  0  0  0  0  0  0  0  0  0  0  0
   60.3356   29.9251   49.4232 H   0  0  0  0  0  0  0  0  0  0  0  0
   61.4360   31.7820   49.3220 C   0  0  0  0  0  0  0  0  0  0  0  0
   62.4324   31.5006   49.6935 H   0  0  0  0  0  0  0  0  0  0  0  0
   61.3685   31.6495   48.2321 H   0  0  0  0  0  0  0  0  0  0  0  0
   61.1970   33.2080   49.6270 N   0  0  0  0  0  0  0  0  0  0  0  0
   61.4220   33.5100   51.0520 C   0  0  0  0  0  0  0  0  0  0  0  0
   60.8789   32.7811   51.6715 H   0  0  0  0  0  0  0  0  0  0  0  0
   62.4977   33.4505   51.2740 H   0  0  0  0  0  0  0  0  0  0  0  0
   61.0573   34.5237   51.2740 H   0  0  0  0  0  0  0  0  0  0  0  0
   59.8720   33.6960   49.1630 C   0  0  0  0  0  0  0  0  0  0  0  0
   59.4903   34.4166   49.9013 H   0  0  0  0  0  0  0  0  0  0  0  0
   60.0273   34.1485   48.1725 H   0  0  0  0  0  0  0  0  0  0  0  0
   58.8230   32.5810   48.9860 C   0  0  0  0  0  0  0  0  0  0  0  0
   57.8183   32.9987   49.1478 H   0  0  0  0  0  0  0  0  0  0  0  0
   58.9016   32.1736   47.9673 H   0  0  0  0  0  0  0  0  0  0  0  0
   58.0640   29.7980   51.4330 C   0  0  0  0  0  0  0  0  0  0  0  0
   58.8558   29.0929   51.1399 H   0  0  0  0  0  0  0  0  0  0  0  0
   57.0900   29.4040   52.3540 C   0  0  0  0  0  0  0  0  0  0  0  0
   57.1057   28.3830   52.7631 H   0  0  0  0  0  0  0  0  0  0  0  0
   53.2710   28.3730   54.1850 C   0  0  0  0  0  0  0  0  0  0  0  0
   53.3573   28.5429   55.2684 H   0  0  0  0  0  0  0  0  0  0  0  0
   52.2102   28.2676   53.9137 H   0  0  0  0  0  0  0  0  0  0  0  0
   53.8119   27.4544   53.9137 H   0  0  0  0  0  0  0  0  0  0  0  0
   52.8980   29.7990   51.1520 C   0  0  0  0  0  0  0  0  0  0  0  0
   53.4251   28.8830   50.8468 H   0  0  0  0  0  0  0  0  0  0  0  0
   52.1070   30.4870   50.2280 C   0  0  0  0  0  0  0  0  0  0  0  0
   52.0201   30.1150   49.1965 H   0  0  0  0  0  0  0  0  0  0  0  0
   51.4260   31.6460   50.6100 C   0  0  0  0  0  0  0  0  0  0  0  0
   50.6450   32.3270   49.6820 O   0  0  0  0  0  0  0  0  0  0  0  0
  1  2  1  0
  2  3  1  0
  3  4  2  0
  4  5  1  0
  4  6  1  0
  6  7  1  0
  7  8  2  0
  8  9  1  0
  9 10  2  0
 10 11  1  0
 10 12  1  0
 12 13  1  0
 12 14  2  0
 14 15  1  0
 15 16  1  0
 16 17  1  0
 16 18  1  0
 16 19  1  0
 19 20  1  0
 19 21  1  0
 19 22  1  0
 22 23  1  0
 23 24  1  0
 23 25  1  0
 23 26  1  0
 22 27  1  0
 27 28  1  0
 27 29  1  0
 27 30  1  0
 30 31  1  0
 30 32  1  0
 14 33  1  0
 33 34  1  0
 33 35  2  0
 35 36  1  0
  7 37  1  0
 37 38  1  0
 37 39  1  0
 37 40  1  0
  6 41  2  0
 41 42  1  0
 41 43  1  0
 43 44  1  0
 43 45  2  0
 45 46  1  0
 45  3  1  0
 35  9  1  0
 30 15  1  0
M  CHG  1  46  -1
M  END
>  <UniqueID>  (39) 
36

>  <SMILES>  (39) 
C/C(=N/c1ccc(N2CCN(C)CC2)cc1)c1ccc([O-])c(O)c1

>  <Energy>  (39) 
68.40127444099652

>  <Genealogy>  (39) 
CC(=Nc1ccc(N2CCN(C)CC2)cc1)c1ccc([O-])c(O)c1 (protonated)
C/C(=N/c1ccc(N2CCN(C)CC2)cc1)c1ccc([O-])c(O)c1 (cis-trans isomerization)
C/C(=N/c1ccc(N2CCN(C)CC2)cc1)c1ccc([O-])c(O)c1 (3D coordinates assigned)
C/C(=N/c1ccc(N2CCN(C)CC2)cc1)c1ccc([O-])c(O)c1 (nonaromatic ring conformer: 68.40127444099652 kcal/mol)

>  <smiles>  (39) 
CC(=Nc1ccc(N2CCN(C)CC2)cc1)c1ccc(O)c(O)c1

>  <score_type>  (39) 
oracle

>  <origin>  (39) 
adg

>  <m_score__min__energy>  (39) 
-11.369999999999999

>  <m_primary>  (39) 
energy

$$$$
39:0
     RDKit          3D

 24 24  0  0  0  0  0  0  0  0999 V2000
   57.8040   27.5570   44.1130 C   0  0  0  0  0  0  0  0  0  0  0  0
   56.7040   28.0380   45.4290 S   0  0  0  0  0  0  0  0  0  0  0  0
   57.5140   28.6930   46.5130 O   0  0  0  0  0  0  0  0  0  0  0  0
   56.0330   26.8180   45.9940 O   0  0  0  0  0  0  0  0  0  0  0  0
   55.5080   29.1710   44.8670 N   0  0  0  0  0  0  0  0  0  0  0  0
   55.8950   29.7650   43.5860 C   0  0  0  0  0  0  0  0  0  0  0  0
   56.8790   30.8730   43.7930 C   0  0  0  0  0  0  0  0  0  0  0  0
   57.5350   31.3040   42.8070 O   0  0  0  0  0  0  0  0  0  0  0  0
   56.9600   31.5160   45.0750 N   0  0  0  0  0  0  0  0  0  0  0  0
   57.6780   32.5500   45.4210 C   0  0  0  0  0  0  0  0  0  0  0  0
   58.0460   33.5730   44.5210 C   0  0  0  0  0  0  0  0  0  0  0  0
   58.8300   34.6380   44.9710 C   0  0  0  0  0  0  0  0  0  0  0  0
   59.2440   34.6840   46.2630 N   0  0  0  0  0  0  0  0  0  0  0  0
   58.9200   33.7070   47.1490 C   0  0  0  0  0  0  0  0  0  0  0  0
   58.1400   32.6230   46.7420 C   0  0  0  0  0  0  0  0  0  0  0  0
   58.7324   27.1510   44.5411 H   0  0  0  0  0  0  0  0  0  0  0  0
   57.3196   26.7886   43.4926 H   0  0  0  0  0  0  0  0  0  0  0  0
   58.0393   28.4344   43.4926 H   0  0  0  0  0  0  0  0  0  0  0  0
   56.3513   28.9905   42.9519 H   0  0  0  0  0  0  0  0  0  0  0  0
   54.9972   30.1752   43.1006 H   0  0  0  0  0  0  0  0  0  0  0  0
   57.7176   33.5319   43.4720 H   0  0  0  0  0  0  0  0  0  0  0  0
   59.1129   35.4423   44.2759 H   0  0  0  0  0  0  0  0  0  0  0  0
   59.2727   33.7699   48.1890 H   0  0  0  0  0  0  0  0  0  0  0  0
   57.8882   31.8267   47.4578 H   0  0  0  0  0  0  0  0  0  0  0  0
  1  2  1  0
  2  3  2  0
  2  4  2  0
  2  5  1  0
  5  6  1  0
  6  7  1  0
  7  8  2  0
  7  9  1  0
  9 10  2  3
 10 11  1  0
 11 12  2  0
 12 13  1  0
 13 14  1  0
 14 15  2  0
 15 10  1  0
  1 16  1  0
  1 17  1  0
  1 18  1  0
  6 19  1  0
  6 20  1  0
 11 21  1  0
 12 22  1  0
 14 23  1  0
 15 24  1  0
M  CHG  2   5  -1  13  -1
M  END
>  <UniqueID>  (40) 
37

>  <SMILES>  (40) 
CS(=O)(=O)[N-]CC(=O)N=c1cc[n-]cc1

>  <Energy>  (40) 
23.489290994052702

>  <Genealogy>  (40) 
CS(=O)(=O)[N-]CC(=O)N=c1cc[n-]cc1 (protonated)
CS(=O)(=O)[N-]CC(=O)N=c1cc[n-]cc1 (3D coordinates assigned)
CS(=O)(=O)[N-]CC(=O)N=c1cc[n-]cc1 (optimized conformer: 23.489290994052702 kcal/mol)

>  <smiles>  (40) 
CS(=O)(=O)NCC(=O)N=c1cc[nH]cc1

>  <score_type>  (40) 
oracle

>  <origin>  (40) 
adg

>  <m_score__min__energy>  (40) 
-9.3499999999999996

>  <m_primary>  (40) 
energy

$$$$
40:0
     RDKit          3D

 48 51  0  0  0  0  0  0  0  0999 V2000
   57.4220   32.0860   41.0340 C   0  0  0  0  0  0  0  0  0  0  0  0
   57.6370   32.0540   42.5190 C   0  0  0  0  0  0  0  0  0  0  0  0
   58.3400   33.0900   43.1460 C   0  0  0  0  0  0  0  0  0  0  0  0
   58.5120   33.0880   44.5330 C   0  0  0  0  0  0  0  0  0  0  0  0
   57.9710   32.0580   45.3240 C   0  0  0  0  0  0  0  0  0  0  0  0
   58.2240   32.0490   46.7870 C   0  0  0  0  0  0  0  0  0  0  0  0
   57.4900   32.7230   47.5600 O   0  0  0  0  0  0  0  0  0  0  0  0
   59.2580   31.2710   47.3190 O   0  0  0  0  0  0  0  0  0  0  0  0
   60.5400   31.7400   47.6390 C   0  0  0  0  0  0  0  0  0  0  0  0
   61.0480   32.8240   46.9150 C   0  0  0  0  0  0  0  0  0  0  0  0
   62.2940   33.3690   47.2280 C   0  0  0  0  0  0  0  0  0  0  0  0
   63.0460   32.8440   48.2860 C   0  0  0  0  0  0  0  0  0  0  0  0
   64.2880   33.4020   48.6270 C   0  0  0  0  0  0  0  0  0  0  0  0
   65.0170   32.8860   49.7010 C   0  0  0  0  0  0  0  0  0  0  0  0
   64.5160   31.8110   50.4410 C   0  0  0  0  0  0  0  0  0  0  0  0
   63.2840   31.2430   50.1080 C   0  0  0  0  0  0  0  0  0  0  0  0
   62.5420   31.7510   49.0290 C   0  0  0  0  0  0  0  0  0  0  0  0
   61.2930   31.2040   48.7000 C   0  0  0  0  0  0  0  0  0  0  0  0
   57.2540   31.0150   44.6900 C   0  0  0  0  0  0  0  0  0  0  0  0
   56.6840   29.9570   45.4650 N   0  0  0  0  0  0  0  0  0  0  0  0
   57.0790   28.2860   45.2550 S   0  0  0  0  0  0  0  0  0  0  0  0
   57.4600   28.0120   43.8280 O   0  0  0  0  0  0  0  0  0  0  0  0
   55.8950   27.4370   45.6130 O   0  0  0  0  0  0  0  0  0  0  0  0
   58.4440   27.9150   46.3020 C   0  0  0  0  0  0  0  0  0  0  0  0
   59.5010   27.1270   45.8240 C   0  0  0  0  0  0  0  0  0  0  0  0
   60.6050   26.8670   46.6380 C   0  0  0  0  0  0  0  0  0  0  0  0
   60.6650   27.4000   47.9280 C   0  0  0  0  0  0  0  0  0  0  0  0
   59.6220   28.1970   48.4030 C   0  0  0  0  0  0  0  0  0  0  0  0
   58.5130   28.4560   47.5920 C   0  0  0  0  0  0  0  0  0  0  0  0
   57.0850   31.0260   43.2970 C   0  0  0  0  0  0  0  0  0  0  0  0
   56.3545   32.2449   40.8214 H   0  0  0  0  0  0  0  0  0  0  0  0
   58.0092   32.9066   40.5961 H   0  0  0  0  0  0  0  0  0  0  0  0
   57.7448   31.1299   40.5961 H   0  0  0  0  0  0  0  0  0  0  0  0
   58.7590   33.9096   42.5438 H   0  0  0  0  0  0  0  0  0  0  0  0
   59.0770   33.9013   45.0118 H   0  0  0  0  0  0  0  0  0  0  0  0
   60.4589   33.2513   46.0901 H   0  0  0  0  0  0  0  0  0  0  0  0
   62.6864   34.2132   46.6420 H   0  0  0  0  0  0  0  0  0  0  0  0
   64.6879   34.2471   48.0475 H   0  0  0  0  0  0  0  0  0  0  0  0
   65.9892   33.3273   49.9655 H   0  0  0  0  0  0  0  0  0  0  0  0
   65.0934   31.4114   51.2877 H   0  0  0  0  0  0  0  0  0  0  0  0
   62.8942   30.3962   50.6919 H   0  0  0  0  0  0  0  0  0  0  0  0
   60.9002   30.3519   49.2742 H   0  0  0  0  0  0  0  0  0  0  0  0
   59.4601   26.7130   44.8057 H   0  0  0  0  0  0  0  0  0  0  0  0
   61.4287   26.2417   46.2632 H   0  0  0  0  0  0  0  0  0  0  0  0
   61.5341   27.1916   48.5694 H   0  0  0  0  0  0  0  0  0  0  0  0
   59.6727   28.6217   49.4164 H   0  0  0  0  0  0  0  0  0  0  0  0
   57.6932   29.0858   47.9678 H   0  0  0  0  0  0  0  0  0  0  0  0
   56.5144   30.2210   42.8109 H   0  0  0  0  0  0  0  0  0  0  0  0
  1  2  1  0
  2  3  2  0
  3  4  1  0
  4  5  2  0
  5  6  1  0
  6  7  2  0
  6  8  1  0
  8  9  1  0
  9 10  2  0
 10 11  1  0
 11 12  2  0
 12 13  1  0
 13 14  2  0
 14 15  1  0
 15 16  2  0
 16 17  1  0
 17 18  2  0
  5 19  1  0
 19 20  1  0
 20 21  1  0
 21 22  2  0
 21 23  2  0
 21 24  1  0
 24 25  2  0
 25 26  1  0
 26 27  2  0
 27 28  1  0
 28 29  2  0
 19 30  2  0
 30  2  1  0
 18  9  1  0
 29 24  1  0
 17 12  1  0
  1 31  1  0
  1 32  1  0
  1 33  1  0
  3 34  1  0
  4 35  1  0
 10 36  1  0
 11 37  1  0
 13 38  1  0
 14 39  1  0
 15 40  1  0
 16 41  1  0
 18 42  1  0
 25 43  1  0
 26 44  1  0
 27 45  1  0
 28 46  1  0
 29 47  1  0
 30 48  1  0
M  CHG  1  20  -1
M  END
>  <UniqueID>  (41) 
38

>  <SMILES>  (41) 
Cc1ccc(C(=O)Oc2ccc3ccccc3c2)c([N-]S(=O)(=O)c2ccccc2)c1

>  <Energy>  (41) 
64.85015408883393

>  <Genealogy>  (41) 
Cc1ccc(C(=O)Oc2ccc3ccccc3c2)c([N-]S(=O)(=O)c2ccccc2)c1 (protonated)
Cc1ccc(C(=O)Oc2ccc3ccccc3c2)c([N-]S(=O)(=O)c2ccccc2)c1 (3D coordinates assigned)
Cc1ccc(C(=O)Oc2ccc3ccccc3c2)c([N-]S(=O)(=O)c2ccccc2)c1 (optimized conformer: 64.85015408883393 kcal/mol)

>  <smiles>  (41) 
Cc1ccc(C(=O)Oc2ccc3ccccc3c2)c(NS(=O)(=O)c2ccccc2)c1

>  <score_type>  (41) 
oracle

>  <origin>  (41) 
adg

>  <m_score__min__energy>  (41) 
-12.18

>  <m_primary>  (41) 
energy

$$$$
41:0
     RDKit          3D

 38 39  0  0  0  0  0  0  0  0999 V2000
   57.4540   33.2090   44.5930 C   0  0  0  0  0  0  0  0  0  0  0  0
   57.9860   33.9360   45.8280 C   0  0  0  0  0  0  0  0  0  0  0  0
   59.5190   34.0570   45.8440 C   0  0  0  0  0  0  0  0  0  0  0  0
   60.1200   34.0430   47.2590 C   0  0  0  0  0  0  0  0  0  0  0  0
   59.6720   32.9140   48.0110 O   0  0  0  0  0  0  0  0  0  0  0  0
   59.7120   31.5770   47.5820 C   0  0  0  0  0  0  0  0  0  0  0  0
   58.5060   30.8730   47.5100 C   0  0  0  0  0  0  0  0  0  0  0  0
   58.4830   29.5400   47.0910 C   0  0  0  0  0  0  0  0  0  0  0  0
   59.6770   28.8820   46.7480 C   0  0  0  0  0  0  0  0  0  0  0  0
   59.6660   27.4730   46.2830 C   0  0  0  0  0  0  0  0  0  0  0  0
   60.6930   27.0150   45.7100 O   0  0  0  0  0  0  0  0  0  0  0  0
   58.4930   26.5850   46.4660 C   0  0  0  0  0  0  0  0  0  0  0  0
   58.6520   25.2550   46.8980 C   0  0  0  0  0  0  0  0  0  0  0  0
   57.5400   24.4200   47.0500 C   0  0  0  0  0  0  0  0  0  0  0  0
   57.7230   23.1120   47.4850 O   0  0  0  0  0  0  0  0  0  0  0  0
   56.2530   24.9030   46.7630 C   0  0  0  0  0  0  0  0  0  0  0  0
   55.1310   24.0870   46.9120 O   0  0  0  0  0  0  0  0  0  0  0  0
   56.0910   26.2190   46.3170 C   0  0  0  0  0  0  0  0  0  0  0  0
   54.8220   26.7050   46.0240 O   0  0  0  0  0  0  0  0  0  0  0  0
   57.2040   27.0530   46.1640 C   0  0  0  0  0  0  0  0  0  0  0  0
   60.8870   29.5920   46.8100 C   0  0  0  0  0  0  0  0  0  0  0  0
   60.9080   30.9250   47.2290 C   0  0  0  0  0  0  0  0  0  0  0  0
   56.8316   32.3585   44.9079 H   0  0  0  0  0  0  0  0  0  0  0  0
   56.8490   33.9031   43.9912 H   0  0  0  0  0  0  0  0  0  0  0  0
   58.2986   32.8423   43.9912 H   0  0  0  0  0  0  0  0  0  0  0  0
   57.5548   34.9477   45.8513 H   0  0  0  0  0  0  0  0  0  0  0  0
   57.6949   33.3434   46.7078 H   0  0  0  0  0  0  0  0  0  0  0  0
   59.9409   33.2133   45.2781 H   0  0  0  0  0  0  0  0  0  0  0  0
   59.7718   35.0286   45.3944 H   0  0  0  0  0  0  0  0  0  0  0  0
   61.2166   34.0069   47.1804 H   0  0  0  0  0  0  0  0  0  0  0  0
   59.7925   34.9546   47.7802 H   0  0  0  0  0  0  0  0  0  0  0  0
   57.5661   31.3734   47.7859 H   0  0  0  0  0  0  0  0  0  0  0  0
   57.5252   29.0026   47.0292 H   0  0  0  0  0  0  0  0  0  0  0  0
   59.6584   24.8691   47.1178 H   0  0  0  0  0  0  0  0  0  0  0  0
   55.1970   23.1380   47.2570 H   0  0  0  0  0  0  0  0  0  0  0  0
   57.0681   28.0836   45.8042 H   0  0  0  0  0  0  0  0  0  0  0  0
   61.8263   29.0947   46.5263 H   0  0  0  0  0  0  0  0  0  0  0  0
   61.8637   31.4670   47.2831 H   0  0  0  0  0  0  0  0  0  0  0  0
  1  2  1  0
  2  3  1  0
  3  4  1  0
  4  5  1  0
  5  6  1  0
  6  7  2  0
  7  8  1  0
  8  9  2  0
  9 10  1  0
 10 11  2  0
 10 12  1  0
 12 13  2  0
 13 14  1  0
 14 15  1  0
 14 16  2  0
 16 17  1  0
 16 18  1  0
 18 19  1  0
 18 20  2  0
  9 21  1  0
 21 22  2  0
 22  6  1  0
 20 12  1  0
  1 23  1  0
  1 24  1  0
  1 25  1  0
  2 26  1  0
  2 27  1  0
  3 28  1  0
  3 29  1  0
  4 30  1  0
  4 31  1  0
  7 32  1  0
  8 33  1  0
 13 34  1  0
 17 35  1  0
 20 36  1  0
 21 37  1  0
 22 38  1  0
M  CHG  2  15  -1  19  -1
M  END
>  <UniqueID>  (42) 
39

>  <SMILES>  (42) 
CCCCOc1ccc(C(=O)c2cc([O-])c(O)c([O-])c2)cc1

>  <Energy>  (42) 
40.24250999099815

>  <Genealogy>  (42) 
CCCCOc1ccc(C(=O)c2cc([O-])c(O)c([O-])c2)cc1 (protonated)
CCCCOc1ccc(C(=O)c2cc([O-])c(O)c([O-])c2)cc1 (3D coordinates assigned)
CCCCOc1ccc(C(=O)c2cc([O-])c(O)c([O-])c2)cc1 (optimized conformer: 40.24250999099815 kcal/mol)

>  <smiles>  (42) 
CCCCOc1ccc(C(=O)c2cc(O)c(O)c(O)c2)cc1

>  <score_type>  (42) 
oracle

>  <origin>  (42) 
adg

>  <m_score__min__energy>  (42) 
-12.279999999999999

>  <m_primary>  (42) 
energy

$$$$
42:0
     RDKit          3D

 34 36  0  0  0  0  0  0  0  0999 V2000
   55.8570   29.3750   44.2090 N   0  0  0  0  0  0  0  0  0  0  0  0
   56.6170   30.4160   44.1140 C   0  0  0  0  0  0  0  0  0  0  0  0
   56.4100   31.5160   44.8690 N   0  0  0  0  0  0  0  0  0  0  0  0
   57.3650   32.3870   44.5140 C   0  0  0  0  0  0  0  0  0  0  0  0
   57.5360   34.0080   45.2350 S   0  0  0  0  0  0  0  0  0  0  0  0
   59.2420   34.3220   45.7930 C   0  0  0  0  0  0  0  0  0  0  0  0
   59.6030   33.3150   46.8500 C   0  0  0  0  0  0  0  0  0  0  0  0
   59.5640   33.6040   48.0810 O   0  0  0  0  0  0  0  0  0  0  0  0
   59.9770   32.0430   46.3790 N   0  0  0  0  0  0  0  0  0  0  0  0
   60.3400   30.9240   47.2500 C   0  0  0  0  0  0  0  0  0  0  0  0
   59.4990   29.7500   46.8630 C   0  0  0  0  0  0  0  0  0  0  0  0
   58.9300   28.8850   47.7500 C   0  0  0  0  0  0  0  0  0  0  0  0
   58.2060   27.7820   47.2780 C   0  0  0  0  0  0  0  0  0  0  0  0
   58.0910   27.6050   45.9010 C   0  0  0  0  0  0  0  0  0  0  0  0
   58.6610   28.4710   45.0050 C   0  0  0  0  0  0  0  0  0  0  0  0
   59.3750   29.5610   45.4750 C   0  0  0  0  0  0  0  0  0  0  0  0
   58.3750   28.0370   43.6990 O   0  0  0  0  0  0  0  0  0  0  0  0
   58.1550   26.6290   43.8460 C   0  0  0  0  0  0  0  0  0  0  0  0
   57.4560   26.6400   45.0920 O   0  0  0  0  0  0  0  0  0  0  0  0
   58.1450   31.8430   43.5630 N   0  0  0  0  0  0  0  0  0  0  0  0
   57.6840   30.6230   43.3150 N   0  0  0  0  0  0  0  0  0  0  0  0
   56.2800   28.4490   44.2140 H   0  0  0  0  0  0  0  0  0  0  0  0
   59.9321   34.2270   44.9417 H   0  0  0  0  0  0  0  0  0  0  0  0
   59.3173   35.3387   46.2062 H   0  0  0  0  0  0  0  0  0  0  0  0
   59.9960   31.8900   45.3400 H   0  0  0  0  0  0  0  0  0  0  0  0
   61.4048   30.6799   47.1210 H   0  0  0  0  0  0  0  0  0  0  0  0
   60.1690   31.1874   48.3042 H   0  0  0  0  0  0  0  0  0  0  0  0
   59.0388   29.0523   48.8318 H   0  0  0  0  0  0  0  0  0  0  0  0
   57.7397   27.0730   47.9779 H   0  0  0  0  0  0  0  0  0  0  0  0
   59.8386   30.2690   44.7722 H   0  0  0  0  0  0  0  0  0  0  0  0
   57.5390   26.2207   43.0313 H   0  0  0  0  0  0  0  0  0  0  0  0
   59.0595   26.0036   43.8169 H   0  0  0  0  0  0  0  0  0  0  0  0
   58.9800   32.3050   43.0920 H   0  0  0  0  0  0  0  0  0  0  0  0
   58.0830   29.9530   42.6220 H   0  0  0  0  0  0  0  0  0  0  0  0
  1  2  2  3
  2  3  1  0
  3  4  2  0
  4  5  1  0
  5  6  1  0
  6  7  1  0
  7  8  2  0
  7  9  1  0
  9 10  1  0
 10 11  1  0
 11 12  2  0
 12 13  1  0
 13 14  2  0
 14 15  1  0
 15 16  2  0
 15 17  1  0
 17 18  1  0
 18 19  1  0
  4 20  1  0
 20 21  1  0
 21  2  1  0
 16 11  1  0
 19 14  1  0
  1 22  1  0
  6 23  1  0
  6 24  1  0
  9 25  1  0
 10 26  1  0
 10 27  1  0
 12 28  1  0
 13 29  1  0
 16 30  1  0
 18 31  1  0
 18 32  1  0
 20 33  1  0
 21 34  1  0
M  END
>  <smiles>  (43) 
N=c1nc(SCC(=O)NCc2ccc3c(c2)OCO3)[nH][nH]1

>  <score_type>  (43) 
oracle

>  <origin>  (43) 
adg

>  <m_score__min__energy>  (43) 
-6.96

>  <m_primary>  (43) 
energy

$$$$
43:0
     RDKit          3D

 31 33  0  0  0  0  0  0  0  0999 V2000
   50.2940   32.7960   52.0150 O   0  0  0  0  0  0  0  0  0  0  0  0
   51.1570   32.2400   51.2850 C   0  0  0  0  0  0  0  0  0  0  0  0
   51.0360   32.3420   49.9040 O   0  0  0  0  0  0  0  0  0  0  0  0
   52.2790   31.4880   51.8860 C   0  0  0  0  0  0  0  0  0  0  0  0
   53.4260   31.1970   51.1270 C   0  0  0  0  0  0  0  0  0  0  0  0
   54.4890   30.4870   51.6930 C   0  0  0  0  0  0  0  0  0  0  0  0
   54.4300   30.0550   53.0220 C   0  0  0  0  0  0  0  0  0  0  0  0
   55.5230   29.3460   53.5420 O   0  0  0  0  0  0  0  0  0  0  0  0
   56.4820   29.8900   54.4430 C   0  0  0  0  0  0  0  0  0  0  0  0
   57.3210   30.8990   53.7180 C   0  0  0  0  0  0  0  0  0  0  0  0
   57.9900   31.9100   54.4360 C   0  0  0  0  0  0  0  0  0  0  0  0
   58.7370   32.8630   53.7320 C   0  0  0  0  0  0  0  0  0  0  0  0
   59.3500   33.7720   54.3540 O   0  0  0  0  0  0  0  0  0  0  0  0
   58.7830   32.7890   52.3730 N   0  0  0  0  0  0  0  0  0  0  0  0
   59.4540   33.6280   51.5350 C   0  0  0  0  0  0  0  0  0  0  0  0
   59.3140   33.3130   50.1840 C   0  0  0  0  0  0  0  0  0  0  0  0
   58.3250   31.9470   50.0450 S   0  0  0  0  0  0  0  0  0  0  0  0
   58.1210   31.8190   51.7060 C   0  0  0  0  0  0  0  0  0  0  0  0
   57.3870   30.8780   52.3530 N   0  0  0  0  0  0  0  0  0  0  0  0
   53.2840   30.3450   53.7870 C   0  0  0  0  0  0  0  0  0  0  0  0
   52.2200   31.0550   53.2220 C   0  0  0  0  0  0  0  0  0  0  0  0
   53.4875   31.5303   50.0805 H   0  0  0  0  0  0  0  0  0  0  0  0
   55.3803   30.2660   51.0874 H   0  0  0  0  0  0  0  0  0  0  0  0
   55.9638   30.3769   55.2823 H   0  0  0  0  0  0  0  0  0  0  0  0
   57.1237   29.0851   54.8307 H   0  0  0  0  0  0  0  0  0  0  0  0
   57.9266   31.9503   55.5334 H   0  0  0  0  0  0  0  0  0  0  0  0
   60.0530   34.4785   51.8926 H   0  0  0  0  0  0  0  0  0  0  0  0
   59.7708   33.8616   49.3471 H   0  0  0  0  0  0  0  0  0  0  0  0
   56.8780   30.1490   51.8040 H   0  0  0  0  0  0  0  0  0  0  0  0
   53.2255   30.0116   54.8336 H   0  0  0  0  0  0  0  0  0  0  0  0
   51.3293   31.2766   53.8282 H   0  0  0  0  0  0  0  0  0  0  0  0
  1  2  2  0
  2  3  1  0
  2  4  1  0
  4  5  2  0
  5  6  1  0
  6  7  2  0
  7  8  1  0
  8  9  1  0
  9 10  1  0
 10 11  2  0
 11 12  1  0
 12 13  2  0
 12 14  1  0
 14 15  1  0
 15 16  2  0
 16 17  1  0
 17 18  1  0
 18 19  2  0
  7 20  1  0
 20 21  2  0
 21  4  1  0
 19 10  1  0
 18 14  1  0
  5 22  1  0
  6 23  1  0
  9 24  1  0
  9 25  1  0
 11 26  1  0
 15 27  1  0
 16 28  1  0
 19 29  1  0
 20 30  1  0
 21 31  1  0
M  CHG  2   3  -1  19   1
M  END
>  <UniqueID>  (44) 
40

>  <SMILES>  (44) 
O=C([O-])c1ccc(OCc2cc(=O)n3ccsc3[nH+]2)cc1

>  <Energy>  (44) 
67.76012461043908

>  <Genealogy>  (44) 
O=C([O-])c1ccc(OCc2cc(=O)n3ccsc3[nH+]2)cc1 (protonated)
O=C([O-])c1ccc(OCc2cc(=O)n3ccsc3[nH+]2)cc1 (3D coordinates assigned)
O=C([O-])c1ccc(OCc2cc(=O)n3ccsc3[nH+]2)cc1 (optimized conformer: 67.76012461043908 kcal/mol)

>  <smiles>  (44) 
O=C(O)c1ccc(OCc2cc(=O)n3ccsc3n2)cc1

>  <score_type>  (44) 
oracle

>  <origin>  (44) 
adg

>  <m_score__min__energy>  (44) 
-8.4499999999999993

>  <m_primary>  (44) 
energy

$$$$
44:0
     RDKit          3D

 37 39  0  0  0  0  0  0  0  0999 V2000
   56.8689   25.3838   47.6770 H   0  0  0  0  0  0  0  0  0  0  0  0
   56.5800   25.8650   46.7310 C   0  0  0  0  0  0  0  0  0  0  0  0
   55.5760   25.4000   46.0500 N   0  0  0  0  0  0  0  0  0  0  0  0
   54.9680   24.1050   46.1950 C   0  0  0  0  0  0  0  0  0  0  0  0
   55.5080   23.0920   47.0150 C   0  0  0  0  0  0  0  0  0  0  0  0
   56.4386   23.2756   47.5721 H   0  0  0  0  0  0  0  0  0  0  0  0
   54.8640   21.8550   47.1220 C   0  0  0  0  0  0  0  0  0  0  0  0
   55.2933   21.0664   47.7575 H   0  0  0  0  0  0  0  0  0  0  0  0
   53.6770   21.6180   46.4240 C   0  0  0  0  0  0  0  0  0  0  0  0
   53.1750   20.6428   46.5075 H   0  0  0  0  0  0  0  0  0  0  0  0
   53.1280   22.6200   45.6200 C   0  0  0  0  0  0  0  0  0  0  0  0
   51.9450   22.3860   44.9300 O   0  0  0  0  0  0  0  0  0  0  0  0
   53.7690   23.8580   45.5100 C   0  0  0  0  0  0  0  0  0  0  0  0
   53.3289   24.6454   44.8805 H   0  0  0  0  0  0  0  0  0  0  0  0
   57.3310   27.0290   46.2450 C   0  0  0  0  0  0  0  0  0  0  0  0
   58.6320   27.1750   46.3730 O   0  0  0  0  0  0  0  0  0  0  0  0
   58.9430   28.3270   45.8190 C   0  0  0  0  0  0  0  0  0  0  0  0
   60.1170   28.7820   45.7910 O   0  0  0  0  0  0  0  0  0  0  0  0
   57.8690   28.9730   45.3140 N   0  0  0  0  0  0  0  0  0  0  0  0
   57.8240   30.2450   44.6410 C   0  0  0  0  0  0  0  0  0  0  0  0
   57.3840   30.3300   43.3110 C   0  0  0  0  0  0  0  0  0  0  0  0
   57.0730   29.4192   42.7784 H   0  0  0  0  0  0  0  0  0  0  0  0
   57.3390   31.5630   42.6610 C   0  0  0  0  0  0  0  0  0  0  0  0
   56.9918   31.6205   41.6188 H   0  0  0  0  0  0  0  0  0  0  0  0
   57.7330   32.7250   43.3280 C   0  0  0  0  0  0  0  0  0  0  0  0
   57.6935   33.6928   42.8066 H   0  0  0  0  0  0  0  0  0  0  0  0
   58.1800   32.6690   44.6610 C   0  0  0  0  0  0  0  0  0  0  0  0
   58.6000   33.9150   45.3570 C   0  0  0  0  0  0  0  0  0  0  0  0
   58.8260   34.9600   44.6880 O   0  0  0  0  0  0  0  0  0  0  0  0
   58.7670   33.9740   46.8470 C   0  0  0  0  0  0  0  0  0  0  0  0
   57.8368   33.6454   47.3335 H   0  0  0  0  0  0  0  0  0  0  0  0
   59.5925   33.3131   47.1499 H   0  0  0  0  0  0  0  0  0  0  0  0
   58.9941   35.0068   47.1499 H   0  0  0  0  0  0  0  0  0  0  0  0
   58.2220   31.4170   45.3080 C   0  0  0  0  0  0  0  0  0  0  0  0
   58.5711   31.3563   46.3494 H   0  0  0  0  0  0  0  0  0  0  0  0
   56.8430   28.1420   45.5860 C   0  0  0  0  0  0  0  0  0  0  0  0
   55.5190   28.3700   45.2270 O   0  0  0  0  0  0  0  0  0  0  0  0
  1  2  1  0
  2  3  2  0
  3  4  1  0
  4  5  2  0
  5  6  1  0
  5  7  1  0
  7  8  1  0
  7  9  2  0
  9 10  1  0
  9 11  1  0
 11 12  1  0
 11 13  2  0
 13 14  1  0
  2 15  1  0
 15 16  1  0
 16 17  1  0
 17 18  2  0
 17 19  1  0
 19 20  1  0
 20 21  2  0
 21 22  1  0
 21 23  1  0
 23 24  1  0
 23 25  2  0
 25 26  1  0
 25 27  1  0
 27 28  1  0
 28 29  2  0
 28 30  1  0
 30 31  1  0
 30 32  1  0
 30 33  1  0
 27 34  2  0
 34 35  1  0
 19 36  1  0
 36 37  1  0
 13  4  1  0
 36 15  2  0
 34 20  1  0
M  CHG  2  12  -1  37  -1
M  END
>  <UniqueID>  (45) 
41

>  <SMILES>  (45) 
CC(=O)c1cccc(-n2c([O-])c(/C=N/c3cccc([O-])c3)oc2=O)c1

>  <Energy>  (45) 
82.29883934330712

>  <Genealogy>  (45) 
CC(=O)c1cccc(-n2c([O-])c(C=Nc3cccc([O-])c3)oc2=O)c1 (protonated)
CC(=O)c1cccc(-n2c([O-])c(/C=N/c3cccc([O-])c3)oc2=O)c1 (cis-trans isomerization)
CC(=O)c1cccc(-n2c([O-])c(/C=N/c3cccc([O-])c3)oc2=O)c1 (3D coordinates assigned)
CC(=O)c1cccc(-n2c([O-])c(/C=N/c3cccc([O-])c3)oc2=O)c1 (optimized conformer: 82.29883934330712 kcal/mol)

>  <smiles>  (45) 
CC(=O)c1cccc(-n2c(O)c(C=Nc3cccc(O)c3)oc2=O)c1

>  <score_type>  (45) 
oracle

>  <origin>  (45) 
adg

>  <m_score__min__energy>  (45) 
-13.039999999999999

>  <m_primary>  (45) 
energy

$$$$
45:0
     RDKit          3D

 61 65  0  0  0  0  0  0  0  0999 V2000
   59.8682   28.9948   49.6416 H   0  0  0  0  0  0  0  0  0  0  0  0
   59.3870   28.8200   48.6680 C   0  0  0  0  0  0  0  0  0  0  0  0
   59.3140   27.5620   48.1680 N   0  0  0  0  0  0  0  0  0  0  0  0
   58.7250   27.2990   46.9720 C   0  0  0  0  0  0  0  0  0  0  0  0
   58.6700   25.9810   46.5050 C   0  0  0  0  0  0  0  0  0  0  0  0
   59.1035   25.1704   47.1092 H   0  0  0  0  0  0  0  0  0  0  0  0
   58.0660   25.6830   45.2710 C   0  0  0  0  0  0  0  0  0  0  0  0
   58.0090   24.2830   44.7780 C   0  0  0  0  0  0  0  0  0  0  0  0
   58.9030   23.3150   45.2710 C   0  0  0  0  0  0  0  0  0  0  0  0
   59.6514   23.5964   46.0265 H   0  0  0  0  0  0  0  0  0  0  0  0
   58.8460   21.9990   44.8070 C   0  0  0  0  0  0  0  0  0  0  0  0
   59.5476   21.2486   45.2002 H   0  0  0  0  0  0  0  0  0  0  0  0
   57.9020   21.6320   43.8460 C   0  0  0  0  0  0  0  0  0  0  0  0
   57.8631   20.5944   43.4830 H   0  0  0  0  0  0  0  0  0  0  0  0
   57.0040   22.5830   43.3430 C   0  0  0  0  0  0  0  0  0  0  0  0
   56.0390   22.2090   42.3560 N   0  0  0  0  0  0  0  0  0  0  0  0
   55.8340   22.8340   41.5450 H   0  0  0  0  0  0  0  0  0  0  0  0
   55.5230   21.3040   42.4300 H   0  0  0  0  0  0  0  0  0  0  0  0
   57.0600   23.9040   43.8110 C   0  0  0  0  0  0  0  0  0  0  0  0
   56.3548   24.6512   43.4180 H   0  0  0  0  0  0  0  0  0  0  0  0
   57.5160   26.7290   44.5110 C   0  0  0  0  0  0  0  0  0  0  0  0
   57.0402   26.5073   43.5443 H   0  0  0  0  0  0  0  0  0  0  0  0
   57.5670   28.0480   44.9700 C   0  0  0  0  0  0  0  0  0  0  0  0
   57.1323   28.8549   44.3617 H   0  0  0  0  0  0  0  0  0  0  0  0
   58.1710   28.3520   46.2060 C   0  0  0  0  0  0  0  0  0  0  0  0
   58.2500   29.6760   46.6980 C   0  0  0  0  0  0  0  0  0  0  0  0
   57.7320   30.6540   46.0020 N   0  0  0  0  0  0  0  0  0  0  0  0
   58.2670   31.9700   45.7960 C   0  0  0  0  0  0  0  0  0  0  0  0
   57.9670   32.7030   44.6360 C   0  0  0  0  0  0  0  0  0  0  0  0
   57.3543   32.2487   43.8434 H   0  0  0  0  0  0  0  0  0  0  0  0
   58.4440   34.0060   44.4860 C   0  0  0  0  0  0  0  0  0  0  0  0
   58.2220   34.5677   43.5667 H   0  0  0  0  0  0  0  0  0  0  0  0
   59.2030   34.6010   45.4990 C   0  0  0  0  0  0  0  0  0  0  0  0
   59.6570   35.9050   45.3280 O   0  0  0  0  0  0  0  0  0  0  0  0
   59.4890   33.8850   46.6780 C   0  0  0  0  0  0  0  0  0  0  0  0
   60.2650   34.5100   47.8130 C   0  0  0  0  0  0  0  0  0  0  0  0
   59.6781   34.4301   48.7399 H   0  0  0  0  0  0  0  0  0  0  0  0
   60.4551   35.5668   47.5743 H   0  0  0  0  0  0  0  0  0  0  0  0
   61.5580   33.8220   47.9960 N   0  0  0  0  0  0  0  0  0  0  0  0
   61.3560   32.4420   48.4600 C   0  0  0  0  0  0  0  0  0  0  0  0
   60.9148   31.8464   47.6473 H   0  0  0  0  0  0  0  0  0  0  0  0
   60.6811   32.4507   49.3286 H   0  0  0  0  0  0  0  0  0  0  0  0
   62.7030   31.8170   48.8760 C   0  0  0  0  0  0  0  0  0  0  0  0
   62.6596   30.7348   48.6839 H   0  0  0  0  0  0  0  0  0  0  0  0
   62.8513   32.0439   49.9421 H   0  0  0  0  0  0  0  0  0  0  0  0
   63.8660   32.3800   48.1410 N   0  0  0  0  0  0  0  0  0  0  0  0
   64.5810   31.6180   48.0500 H   0  0  0  0  0  0  0  0  0  0  0  0
   64.5170   33.4730   48.8900 C   0  0  0  0  0  0  0  0  0  0  0  0
   64.4094   33.2924   49.9697 H   0  0  0  0  0  0  0  0  0  0  0  0
   65.5850   33.5109   48.6292 H   0  0  0  0  0  0  0  0  0  0  0  0
   64.0417   34.4301   48.6292 H   0  0  0  0  0  0  0  0  0  0  0  0
   63.5030   32.7990   46.7710 C   0  0  0  0  0  0  0  0  0  0  0  0
   63.1835   31.9119   46.2044 H   0  0  0  0  0  0  0  0  0  0  0  0
   64.3892   33.2706   46.3213 H   0  0  0  0  0  0  0  0  0  0  0  0
   62.3590   33.8380   46.7500 C   0  0  0  0  0  0  0  0  0  0  0  0
   61.6958   33.6160   45.9009 H   0  0  0  0  0  0  0  0  0  0  0  0
   62.8137   34.8353   46.6566 H   0  0  0  0  0  0  0  0  0  0  0  0
   58.9980   32.5770   46.8230 C   0  0  0  0  0  0  0  0  0  0  0  0
   59.1903   32.0239   47.7542 H   0  0  0  0  0  0  0  0  0  0  0  0
   58.8550   29.8940   47.9540 C   0  0  0  0  0  0  0  0  0  0  0  0
   58.9072   30.9109   48.3702 H   0  0  0  0  0  0  0  0  0  0  0  0
  1  2  1  0
  2  3  1  0
  3  4  1  0
  4  5  2  0
  5  6  1  0
  5  7  1  0
  7  8  1  0
  8  9  2  0
  9 10  1  0
  9 11  1  0
 11 12  1  0
 11 13  2  0
 13 14  1  0
 13 15  1  0
 15 16  1  0
 16 17  1  0
 16 18  1  0
 15 19  2  0
 19 20  1  0
  7 21  2  0
 21 22  1  0
 21 23  1  0
 23 24  1  0
 23 25  2  0
 25 26  1  0
 26 27  2  0
 27 28  1  0
 28 29  2  0
 29 30  1  0
 29 31  1  0
 31 32  1  0
 31 33  2  0
 33 34  1  0
 33 35  1  0
 35 36  1  0
 36 37  1  0
 36 38  1  0
 36 39  1  0
 39 40  1  0
 40 41  1  0
 40 42  1  0
 40 43  1  0
 43 44  1  0
 43 45  1  0
 43 46  1  0
 46 47  1  0
 46 48  1  0
 48 49  1  0
 48 50  1  0
 48 51  1  0
 46 52  1  0
 52 53  1  0
 52 54  1  0
 52 55  1  0
 55 56  1  0
 55 57  1  0
 35 58  2  0
 58 59  1  0
 26 60  1  0
 60 61  1  0
 60  2  2  0
 25  4  1  0
 58 28  1  0
 19  8  1  0
 55 39  1  0
M  CHG  3   3  -1  34  -1  46   1
M  END
>  <UniqueID>  (46) 
42

>  <SMILES>  (46) 
C[NH+]1CCN(Cc2cc(/N=c3\cc[n-]c4cc(-c5cccc(N)c5)ccc34)ccc2[O-])CC1

>  <Energy>  (46) 
96.59676650357461

>  <Genealogy>  (46) 
C[NH+]1CCN(Cc2cc(N=c3cc[n-]c4cc(-c5cccc(N)c5)ccc34)ccc2[O-])CC1 (protonated)
C[NH+]1CCN(Cc2cc(/N=c3\cc[n-]c4cc(-c5cccc(N)c5)ccc34)ccc2[O-])CC1 (cis-trans isomerization)
C[NH+]1CCN(Cc2cc(/N=c3\cc[n-]c4cc(-c5cccc(N)c5)ccc34)ccc2[O-])CC1 (3D coordinates assigned)
C[NH+]1CCN(Cc2cc(/N=c3\cc[n-]c4cc(-c5cccc(N)c5)ccc34)ccc2[O-])CC1 (nonaromatic ring conformer: 96.59676650357461 kcal/mol)

>  <smiles>  (46) 
CN1CCN(Cc2cc(N=c3cc[nH]c4cc(-c5cccc(N)c5)ccc34)ccc2O)CC1

>  <score_type>  (46) 
oracle

>  <origin>  (46) 
adg

>  <m_score__min__energy>  (46) 
-10.42

>  <m_primary>  (46) 
energy

$$$$
46:0
     RDKit          3D

 65 67  0  0  0  0  0  0  0  0999 V2000
   61.8000   30.7750   47.1670 C   0  0  0  0  0  0  0  0  0  0  0  0
   60.7650   31.7860   46.7950 C   0  0  0  0  0  0  0  0  0  0  0  0
   59.5870   31.4740   46.2230 N   0  0  0  0  0  0  0  0  0  0  0  0
   58.9180   32.6000   46.0230 N   0  0  0  0  0  0  0  0  0  0  0  0
   57.5860   32.6130   45.4910 C   0  0  0  0  0  0  0  0  0  0  0  0
   56.9680   33.7020   45.3480 O   0  0  0  0  0  0  0  0  0  0  0  0
   56.9810   31.3950   45.1480 O   0  0  0  0  0  0  0  0  0  0  0  0
   57.2240   30.6310   43.9590 C   0  0  0  0  0  0  0  0  0  0  0  0
   55.9140   30.0150   43.4300 C   0  0  0  0  0  0  0  0  0  0  0  0
   57.7780   31.5990   42.9030 C   0  0  0  0  0  0  0  0  0  0  0  0
   58.2720   29.5340   44.2250 C   0  0  0  0  0  0  0  0  0  0  0  0
   59.6600   33.6500   46.4540 C   0  0  0  0  0  0  0  0  0  0  0  0
   59.2430   35.0920   46.4000 C   0  0  0  0  0  0  0  0  0  0  0  0
   60.8470   33.1580   46.9750 C   0  0  0  0  0  0  0  0  0  0  0  0
   61.9370   33.9260   47.6690 C   0  0  0  0  0  0  0  0  0  0  0  0
   61.9170   33.6930   49.1310 N   0  0  0  0  0  0  0  0  0  0  0  0
   63.1380   34.1770   49.8210 C   0  0  0  0  0  0  0  0  0  0  0  0
   64.0070   33.0230   50.2500 C   0  0  0  0  0  0  0  0  0  0  0  0
   63.4400   31.8660   50.8110 C   0  0  0  0  0  0  0  0  0  0  0  0
   64.2580   30.8210   51.2490 C   0  0  0  0  0  0  0  0  0  0  0  0
   65.6460   30.9120   51.1120 C   0  0  0  0  0  0  0  0  0  0  0  0
   66.2160   32.0430   50.5220 C   0  0  0  0  0  0  0  0  0  0  0  0
   65.4010   33.0900   50.0820 C   0  0  0  0  0  0  0  0  0  0  0  0
   60.6740   34.2110   49.7550 C   0  0  0  0  0  0  0  0  0  0  0  0
   59.7480   33.1200   50.2700 C   0  0  0  0  0  0  0  0  0  0  0  0
   59.7180   31.8650   49.6370 C   0  0  0  0  0  0  0  0  0  0  0  0
   58.9170   30.8590   50.1030 N   0  0  0  0  0  0  0  0  0  0  0  0
   58.9100   29.5620   49.4120 C   0  0  0  0  0  0  0  0  0  0  0  0
   58.0970   31.0660   51.1810 C   0  0  0  0  0  0  0  0  0  0  0  0
   57.3450   30.1450   51.6020 O   0  0  0  0  0  0  0  0  0  0  0  0
   58.0800   32.3040   51.8250 C   0  0  0  0  0  0  0  0  0  0  0  0
   58.8990   33.3390   51.3690 C   0  0  0  0  0  0  0  0  0  0  0  0
   58.8620   34.5810   52.0000 O   0  0  0  0  0  0  0  0  0  0  0  0
   61.8693   30.7073   48.2627 H   0  0  0  0  0  0  0  0  0  0  0  0
   61.5188   29.7941   46.7561 H   0  0  0  0  0  0  0  0  0  0  0  0
   62.7740   31.0791   46.7561 H   0  0  0  0  0  0  0  0  0  0  0  0
   55.2802   29.7170   44.2782 H   0  0  0  0  0  0  0  0  0  0  0  0
   55.3812   30.7570   42.8171 H   0  0  0  0  0  0  0  0  0  0  0  0
   56.1456   29.1314   42.8171 H   0  0  0  0  0  0  0  0  0  0  0  0
   58.2644   32.4489   43.4040 H   0  0  0  0  0  0  0  0  0  0  0  0
   58.5127   31.0745   42.2744 H   0  0  0  0  0  0  0  0  0  0  0  0
   56.9537   31.9668   42.2744 H   0  0  0  0  0  0  0  0  0  0  0  0
   58.3978   29.4024   45.3098 H   0  0  0  0  0  0  0  0  0  0  0  0
   57.9339   28.5877   43.7776 H   0  0  0  0  0  0  0  0  0  0  0  0
   59.2328   29.8285   43.7776 H   0  0  0  0  0  0  0  0  0  0  0  0
   59.1309   35.4798   47.4232 H   0  0  0  0  0  0  0  0  0  0  0  0
   60.0092   35.6756   45.8686 H   0  0  0  0  0  0  0  0  0  0  0  0
   58.2836   35.1766   45.8686 H   0  0  0  0  0  0  0  0  0  0  0  0
   62.9104   33.6058   47.2691 H   0  0  0  0  0  0  0  0  0  0  0  0
   61.7734   34.9985   47.4877 H   0  0  0  0  0  0  0  0  0  0  0  0
   63.7077   34.8212   49.1351 H   0  0  0  0  0  0  0  0  0  0  0  0
   62.8356   34.7407   50.7159 H   0  0  0  0  0  0  0  0  0  0  0  0
   62.3473   31.7825   50.9058 H   0  0  0  0  0  0  0  0  0  0  0  0
   63.8087   29.9252   51.7024 H   0  0  0  0  0  0  0  0  0  0  0  0
   66.2891   30.0938   51.4684 H   0  0  0  0  0  0  0  0  0  0  0  0
   67.3076   32.1096   50.4036 H   0  0  0  0  0  0  0  0  0  0  0  0
   65.8527   33.9706   49.6020 H   0  0  0  0  0  0  0  0  0  0  0  0
   60.9530   34.8573   50.6002 H   0  0  0  0  0  0  0  0  0  0  0  0
   60.1249   34.7562   48.9732 H   0  0  0  0  0  0  0  0  0  0  0  0
   60.3487   31.6894   48.7530 H   0  0  0  0  0  0  0  0  0  0  0  0
   58.9056   28.7508   50.1549 H   0  0  0  0  0  0  0  0  0  0  0  0
   58.0114   29.4871   48.7819 H   0  0  0  0  0  0  0  0  0  0  0  0
   59.8077   29.4774   48.7819 H   0  0  0  0  0  0  0  0  0  0  0  0
   57.4217   32.4644   52.6915 H   0  0  0  0  0  0  0  0  0  0  0  0
   58.2900   35.3390   51.6480 H   0  0  0  0  0  0  0  0  0  0  0  0
  1  2  1  0
  2  3  2  0
  3  4  1  0
  4  5  1  0
  5  6  2  0
  5  7  1  0
  7  8  1  0
  8  9  1  0
  8 10  1  0
  8 11  1  0
  4 12  1  0
 12 13  1  0
 12 14  2  0
 14 15  1  0
 15 16  1  0
 16 17  1  0
 17 18  1  0
 18 19  2  0
 19 20  1  0
 20 21  2  0
 21 22  1  0
 22 23  2  0
 16 24  1  0
 24 25  1  0
 25 26  2  0
 26 27  1  0
 27 28  1  0
 27 29  1  0
 29 30  2  0
 29 31  1  0
 31 32  2  0
 32 33  1  0
 14  2  1  0
 23 18  1  0
 32 25  1  0
  1 34  1  0
  1 35  1  0
  1 36  1  0
  9 37  1  0
  9 38  1  0
  9 39  1  0
 10 40  1  0
 10 41  1  0
 10 42  1  0
 11 43  1  0
 11 44  1  0
 11 45  1  0
 13 46  1  0
 13 47  1  0
 13 48  1  0
 15 49  1  0
 15 50  1  0
 17 51  1  0
 17 52  1  0
 19 53  1  0
 20 54  1  0
 21 55  1  0
 22 56  1  0
 23 57  1  0
 24 58  1  0
 24 59  1  0
 26 60  1  0
 28 61  1  0
 28 62  1  0
 28 63  1  0
 31 64  1  0
 33 65  1  0
M  END
>  <UniqueID>  (47) 
43

>  <SMILES>  (47) 
Cc1nn(C(=O)OC(C)(C)C)c(C)c1CN(Cc1ccccc1)Cc1cn(C)c(=O)cc1O

>  <Energy>  (47) 
92.71866059288534

>  <Genealogy>  (47) 
Cc1nn(C(=O)OC(C)(C)C)c(C)c1CN(Cc1ccccc1)Cc1cn(C)c(=O)cc1O (3D coordinates assigned)
Cc1nn(C(=O)OC(C)(C)C)c(C)c1CN(Cc1ccccc1)Cc1cn(C)c(=O)cc1O (optimized conformer: 92.71866059288534 kcal/mol)

>  <smiles>  (47) 
Cc1nn(C(=O)OC(C)(C)C)c(C)c1CN(Cc1ccccc1)Cc1cn(C)c(=O)cc1O

>  <score_type>  (47) 
oracle

>  <origin>  (47) 
adg

>  <m_score__min__energy>  (47) 
-9.5800000000000001

>  <m_primary>  (47) 
energy

$$$$
47:0
     RDKit          3D

 37 39  0  0  0  0  0  0  0  0999 V2000
   59.4774   31.6543   48.1077 H   0  0  0  0  0  0  0  0  0  0  0  0
   58.8560   32.1600   47.3540 C   0  0  0  0  0  0  0  0  0  0  0  0
   58.1660   31.4060   46.4010 C   0  0  0  0  0  0  0  0  0  0  0  0
   58.2312   30.3081   46.4224 H   0  0  0  0  0  0  0  0  0  0  0  0
   57.3930   32.0360   45.4200 C   0  0  0  0  0  0  0  0  0  0  0  0
   56.7170   31.2360   44.4870 O   0  0  0  0  0  0  0  0  0  0  0  0
   57.3160   30.1700   43.7580 C   0  0  0  0  0  0  0  0  0  0  0  0
   57.7304   29.4324   44.4610 H   0  0  0  0  0  0  0  0  0  0  0  0
   56.5572   29.6870   43.1248 H   0  0  0  0  0  0  0  0  0  0  0  0
   58.1232   30.5669   43.1248 H   0  0  0  0  0  0  0  0  0  0  0  0
   57.3240   33.4430   45.3980 C   0  0  0  0  0  0  0  0  0  0  0  0
   56.7246   33.9506   44.6279 H   0  0  0  0  0  0  0  0  0  0  0  0
   58.0150   34.1960   46.3520 C   0  0  0  0  0  0  0  0  0  0  0  0
   57.9737   35.2946   46.3156 H   0  0  0  0  0  0  0  0  0  0  0  0
   58.7590   33.5610   47.3530 C   0  0  0  0  0  0  0  0  0  0  0  0
   59.5040   34.3610   48.2840 N   0  0  0  0  0  0  0  0  0  0  0  0
   60.1690   33.9570   49.3360 C   0  0  0  0  0  0  0  0  0  0  0  0
   59.5980   33.9660   50.6270 C   0  0  0  0  0  0  0  0  0  0  0  0
   58.5651   34.3171   50.7683 H   0  0  0  0  0  0  0  0  0  0  0  0
   60.3440   33.5290   51.7270 C   0  0  0  0  0  0  0  0  0  0  0  0
   59.7490   33.5500   53.0990 C   0  0  0  0  0  0  0  0  0  0  0  0
   60.5539   33.5216   53.8482 H   0  0  0  0  0  0  0  0  0  0  0  0
   59.1594   34.4695   53.2289 H   0  0  0  0  0  0  0  0  0  0  0  0
   59.0961   32.6743   53.2289 H   0  0  0  0  0  0  0  0  0  0  0  0
   61.6290   33.1230   51.5570 N   0  0  0  0  0  0  0  0  0  0  0  0
   62.2260   33.1160   50.3390 C   0  0  0  0  0  0  0  0  0  0  0  0
   63.5550   32.6910   50.2240 C   0  0  0  0  0  0  0  0  0  0  0  0
   64.1050   32.3637   51.1187 H   0  0  0  0  0  0  0  0  0  0  0  0
   64.1850   32.6810   48.9780 C   0  0  0  0  0  0  0  0  0  0  0  0
   65.2294   32.3457   48.8952 H   0  0  0  0  0  0  0  0  0  0  0  0
   63.4930   33.0960   47.8330 C   0  0  0  0  0  0  0  0  0  0  0  0
   64.1430   33.0820   46.5580 N   0  0  0  0  0  0  0  0  0  0  0  0
   64.9110   32.4030   46.3570 H   0  0  0  0  0  0  0  0  0  0  0  0
   63.8630   33.7520   45.8080 H   0  0  0  0  0  0  0  0  0  0  0  0
   62.1620   33.5220   47.9400 C   0  0  0  0  0  0  0  0  0  0  0  0
   61.6193   33.8460   47.0397 H   0  0  0  0  0  0  0  0  0  0  0  0
   61.5120   33.5390   49.1920 C   0  0  0  0  0  0  0  0  0  0  0  0
  1  2  1  0
  2  3  2  0
  3  4  1  0
  3  5  1  0
  5  6  1  0
  6  7  1  0
  7  8  1  0
  7  9  1  0
  7 10  1  0
  5 11  2  0
 11 12  1  0
 11 13  1  0
 13 14  1  0
 13 15  2  0
 15 16  1  0
 16 17  2  0
 17 18  1  0
 18 19  1  0
 18 20  2  0
 20 21  1  0
 21 22  1  0
 21 23  1  0
 21 24  1  0
 20 25  1  0
 25 26  1  0
 26 27  2  0
 27 28  1  0
 27 29  1  0
 29 30  1  0
 29 31  2  0
 31 32  1  0
 32 33  1  0
 32 34  1  0
 31 35  1  0
 35 36  1  0
 35 37  2  0
 15  2  1  0
 37 17  1  0
 37 26  1  0
M  CHG  1  25  -1
M  END
>  <UniqueID>  (48) 
44

>  <SMILES>  (48) 
COc1ccc(/N=c2\cc(C)[n-]c3ccc(N)cc23)cc1

>  <Energy>  (48) 
51.037699960601344

>  <Genealogy>  (48) 
COc1ccc(N=c2cc(C)[n-]c3ccc(N)cc23)cc1 (protonated)
COc1ccc(/N=c2\cc(C)[n-]c3ccc(N)cc23)cc1 (cis-trans isomerization)
COc1ccc(/N=c2\cc(C)[n-]c3ccc(N)cc23)cc1 (3D coordinates assigned)
COc1ccc(/N=c2\cc(C)[n-]c3ccc(N)cc23)cc1 (optimized conformer: 51.037699960601344 kcal/mol)

>  <smiles>  (48) 
COc1ccc(N=c2cc(C)[nH]c3ccc(N)cc23)cc1

>  <score_type>  (48) 
oracle

>  <origin>  (48) 
adg

>  <m_score__min__energy>  (48) 
-7.3499999999999996

>  <m_primary>  (48) 
energy

$$$$
48:0
     RDKit          3D

 40 42  0  0  0  0  0  0  0  0999 V2000
   60.0671   25.4840   46.4569 H   0  0  0  0  0  0  0  0  0  0  0  0
   59.5310   26.2200   47.0740 C   0  0  0  0  0  0  0  0  0  0  0  0
   60.3080   26.9800   48.0700 C   0  0  0  0  0  0  0  0  0  0  0  0
   60.9300   26.3660   48.9780 O   0  0  0  0  0  0  0  0  0  0  0  0
   60.4020   28.4060   48.0050 N   0  0  0  0  0  0  0  0  0  0  0  0
   59.6450   29.3190   48.8570 C   0  0  0  0  0  0  0  0  0  0  0  0
   58.5710   29.1033   48.7570 H   0  0  0  0  0  0  0  0  0  0  0  0
   59.9597   29.1799   49.9018 H   0  0  0  0  0  0  0  0  0  0  0  0
   59.9070   30.7490   48.4490 C   0  0  0  0  0  0  0  0  0  0  0  0
   60.7490   31.0160   47.3540 C   0  0  0  0  0  0  0  0  0  0  0  0
   61.2422   30.1847   46.8289 H   0  0  0  0  0  0  0  0  0  0  0  0
   60.9630   32.3290   46.9290 C   0  0  0  0  0  0  0  0  0  0  0  0
   61.6199   32.5277   46.0693 H   0  0  0  0  0  0  0  0  0  0  0  0
   60.3450   33.3890   47.5930 C   0  0  0  0  0  0  0  0  0  0  0  0
   60.5149   34.4222   47.2559 H   0  0  0  0  0  0  0  0  0  0  0  0
   59.5110   33.1400   48.6850 C   0  0  0  0  0  0  0  0  0  0  0  0
   59.0312   33.9790   49.2103 H   0  0  0  0  0  0  0  0  0  0  0  0
   59.2830   31.8270   49.1140 C   0  0  0  0  0  0  0  0  0  0  0  0
   58.1990   31.5710   50.4780 Cl  0  0  0  0  0  0  0  0  0  0  0  0
   58.2140   26.3670   46.8710 C   0  0  0  0  0  0  0  0  0  0  0  0
   57.5567   25.5365   47.1680 H   0  0  0  0  0  0  0  0  0  0  0  0
   57.5810   27.5620   46.2780 C   0  0  0  0  0  0  0  0  0  0  0  0
   56.2820   27.6440   45.8220 C   0  0  0  0  0  0  0  0  0  0  0  0
   55.3100   26.6540   45.9130 O   0  0  0  0  0  0  0  0  0  0  0  0
   56.1310   28.8800   45.2430 C   0  0  0  0  0  0  0  0  0  0  0  0
   54.9690   29.3420   44.6350 O   0  0  0  0  0  0  0  0  0  0  0  0
   57.2910   29.5690   45.3070 N   0  0  0  0  0  0  0  0  0  0  0  0
   57.5580   30.8840   44.7840 C   0  0  0  0  0  0  0  0  0  0  0  0
   57.7760   31.9640   45.6570 C   0  0  0  0  0  0  0  0  0  0  0  0
   57.7513   31.8010   46.7446 H   0  0  0  0  0  0  0  0  0  0  0  0
   58.0240   33.2440   45.1520 C   0  0  0  0  0  0  0  0  0  0  0  0
   58.1965   34.0829   45.8423 H   0  0  0  0  0  0  0  0  0  0  0  0
   58.0530   33.4590   43.7720 C   0  0  0  0  0  0  0  0  0  0  0  0
   58.2506   34.4661   43.3762 H   0  0  0  0  0  0  0  0  0  0  0  0
   57.8310   32.3950   42.8950 C   0  0  0  0  0  0  0  0  0  0  0  0
   57.8511   32.5657   41.8085 H   0  0  0  0  0  0  0  0  0  0  0  0
   57.5830   31.1120   43.3960 C   0  0  0  0  0  0  0  0  0  0  0  0
   57.4068   30.2777   42.7011 H   0  0  0  0  0  0  0  0  0  0  0  0
   58.1860   28.7620   45.9230 C   0  0  0  0  0  0  0  0  0  0  0  0
   59.2384   29.0183   46.1147 H   0  0  0  0  0  0  0  0  0  0  0  0
  1  2  1  0
  2  3  1  0
  3  4  2  0
  3  5  1  0
  5  6  1  0
  6  7  1  0
  6  8  1  0
  6  9  1  0
  9 10  2  0
 10 11  1  0
 10 12  1  0
 12 13  1  0
 12 14  2  0
 14 15  1  0
 14 16  1  0
 16 17  1  0
 16 18  2  0
 18 19  1  0
  2 20  2  0
 20 21  1  0
 20 22  1  0
 22 23  1  0
 23 24  1  0
 23 25  2  0
 25 26  1  0
 25 27  1  0
 27 28  1  0
 28 29  2  0
 29 30  1  0
 29 31  1  0
 31 32  1  0
 31 33  2  0
 33 34  1  0
 33 35  1  0
 35 36  1  0
 35 37  2  0
 37 38  1  0
 27 39  1  0
 39 40  1  0
 18  9  1  0
 39 22  2  0
 37 28  1  0
M  CHG  3   5  -1  24  -1  26  -1
M  END
>  <UniqueID>  (49) 
45

>  <SMILES>  (49) 
O=C(/C=C\c1cn(-c2ccccc2)c([O-])c1[O-])[N-]Cc1ccccc1Cl

>  <Energy>  (49) 
79.90651327357459

>  <Genealogy>  (49) 
O=C(C=Cc1cn(-c2ccccc2)c([O-])c1[O-])[N-]Cc1ccccc1Cl (protonated)
O=C(/C=C\c1cn(-c2ccccc2)c([O-])c1[O-])[N-]Cc1ccccc1Cl (cis-trans isomerization)
O=C(/C=C\c1cn(-c2ccccc2)c([O-])c1[O-])[N-]Cc1ccccc1Cl (3D coordinates assigned)
O=C(/C=C\c1cn(-c2ccccc2)c([O-])c1[O-])[N-]Cc1ccccc1Cl (optimized conformer: 79.90651327357459 kcal/mol)

>  <smiles>  (49) 
O=C(C=Cc1cn(-c2ccccc2)c(O)c1O)NCc1ccccc1Cl

>  <score_type>  (49) 
oracle

>  <origin>  (49) 
adg

>  <m_score__min__energy>  (49) 
-15.56

>  <m_primary>  (49) 
energy

$$$$
49:0
     RDKit          3D

 42 44  0  0  0  0  0  0  0  0999 V2000
   61.4140   33.7910   46.3630 N   0  0  0  0  0  0  0  0  0  0  0  0
   60.3970   34.3790   45.9960 N   0  0  0  0  0  0  0  0  0  0  0  0
   59.3760   34.9610   45.6310 N   0  0  0  0  0  0  0  0  0  0  0  0
   58.2250   34.2670   45.1350 C   0  0  0  0  0  0  0  0  0  0  0  0
   57.3060   34.9370   44.5940 O   0  0  0  0  0  0  0  0  0  0  0  0
   58.0750   32.7980   45.2240 C   0  0  0  0  0  0  0  0  0  0  0  0
   57.0900   32.0310   44.6270 C   0  0  0  0  0  0  0  0  0  0  0  0
   57.3790   30.7110   44.9320 C   0  0  0  0  0  0  0  0  0  0  0  0
   56.6580   29.5350   44.4020 C   0  0  0  0  0  0  0  0  0  0  0  0
   57.2360   28.7240   43.3770 N   0  0  0  0  0  0  0  0  0  0  0  0
   55.5300   29.2220   44.8690 O   0  0  0  0  0  0  0  0  0  0  0  0
   58.5370   30.7320   45.7050 C   0  0  0  0  0  0  0  0  0  0  0  0
   59.2280   29.5780   46.3180 C   0  0  0  0  0  0  0  0  0  0  0  0
   59.7670   28.5570   45.5190 C   0  0  0  0  0  0  0  0  0  0  0  0
   60.3930   27.4580   46.1100 C   0  0  0  0  0  0  0  0  0  0  0  0
   60.4750   27.3600   47.5010 C   0  0  0  0  0  0  0  0  0  0  0  0
   59.9260   28.3590   48.3140 C   0  0  0  0  0  0  0  0  0  0  0  0
   60.0260   28.2140   49.7370 N   0  0  0  0  0  0  0  0  0  0  0  0
   59.6200   29.4370   50.8990 S   0  0  0  0  0  0  0  0  0  0  0  0
   60.4120   29.2180   52.1570 O   0  0  0  0  0  0  0  0  0  0  0  0
   58.1480   29.3670   51.1940 O   0  0  0  0  0  0  0  0  0  0  0  0
   60.0040   31.0320   50.2520 C   0  0  0  0  0  0  0  0  0  0  0  0
   61.3170   31.3470   49.8710 C   0  0  0  0  0  0  0  0  0  0  0  0
   61.6180   32.6160   49.3640 C   0  0  0  0  0  0  0  0  0  0  0  0
   60.6120   33.5760   49.2390 C   0  0  0  0  0  0  0  0  0  0  0  0
   59.3030   33.2720   49.6230 C   0  0  0  0  0  0  0  0  0  0  0  0
   58.9970   32.0050   50.1300 C   0  0  0  0  0  0  0  0  0  0  0  0
   57.7210   31.7290   50.5060 F   0  0  0  0  0  0  0  0  0  0  0  0
   59.2960   29.4660   47.7170 C   0  0  0  0  0  0  0  0  0  0  0  0
   58.9570   32.0040   45.8620 N   0  0  0  0  0  0  0  0  0  0  0  0
   56.2435   32.3976   44.0278 H   0  0  0  0  0  0  0  0  0  0  0  0
   58.1420   28.9820   42.9280 H   0  0  0  0  0  0  0  0  0  0  0  0
   56.7330   27.8760   43.0350 H   0  0  0  0  0  0  0  0  0  0  0  0
   59.6958   28.6233   44.4233 H   0  0  0  0  0  0  0  0  0  0  0  0
   60.8230   26.6668   45.4783 H   0  0  0  0  0  0  0  0  0  0  0  0
   60.9735   26.4935   47.9600 H   0  0  0  0  0  0  0  0  0  0  0  0
   62.1125   30.5939   49.9712 H   0  0  0  0  0  0  0  0  0  0  0  0
   62.6483   32.8575   49.0636 H   0  0  0  0  0  0  0  0  0  0  0  0
   60.8498   34.5723   48.8380 H   0  0  0  0  0  0  0  0  0  0  0  0
   58.5122   34.0305   49.5263 H   0  0  0  0  0  0  0  0  0  0  0  0
   58.8535   30.2494   48.3498 H   0  0  0  0  0  0  0  0  0  0  0  0
   59.7970   32.3170   46.3980 H   0  0  0  0  0  0  0  0  0  0  0  0
  1  2  2  0
  2  3  2  0
  3  4  1  0
  4  5  2  0
  4  6  1  0
  6  7  2  0
  7  8  1  0
  8  9  1  0
  9 10  1  0
  9 11  2  0
  8 12  2  0
 12 13  1  0
 13 14  2  0
 14 15  1  0
 15 16  2  0
 16 17  1  0
 17 18  1  0
 18 19  1  0
 19 20  2  0
 19 21  2  0
 19 22  1  0
 22 23  2  0
 23 24  1  0
 24 25  2  0
 25 26  1  0
 26 27  2  0
 27 28  1  0
 17 29  2  0
 12 30  1  0
 30  6  1  0
 29 13  1  0
 27 22  1  0
  7 31  1  0
 10 32  1  0
 10 33  1  0
 14 34  1  0
 15 35  1  0
 16 36  1  0
 23 37  1  0
 24 38  1  0
 25 39  1  0
 26 40  1  0
 29 41  1  0
 30 42  1  0
M  CHG  3   1  -1   2   1  18  -1
M  END
>  <UniqueID>  (50) 
46

>  <SMILES>  (50) 
[N-]=[N+]=NC(=O)c1cc(C(N)=O)c(-c2cccc([N-]S(=O)(=O)c3ccccc3F)c2)[nH]1

>  <Energy>  (50) 
81.67541438789918

>  <Genealogy>  (50) 
[N-]=[N+]=NC(=O)c1cc(C(N)=O)c(-c2cccc([N-]S(=O)(=O)c3ccccc3F)c2)[nH]1 (protonated)
[N-]=[N+]=NC(=O)c1cc(C(N)=O)c(-c2cccc([N-]S(=O)(=O)c3ccccc3F)c2)[nH]1 (3D coordinates assigned)
[N-]=[N+]=NC(=O)c1cc(C(N)=O)c(-c2cccc([N-]S(=O)(=O)c3ccccc3F)c2)[nH]1 (optimized conformer: 81.67541438789918 kcal/mol)

>  <smiles>  (50) 
[N-]=[N+]=NC(=O)c1cc(C(N)=O)c(-c2cccc(NS(=O)(=O)c3ccccc3F)c2)[nH]1

>  <score_type>  (50) 
oracle

>  <origin>  (50) 
adg

>  <m_score__min__energy>  (50) 
-11.630000000000001

>  <m_primary>  (50) 
energy

$$$$
50:0
     RDKit          3D

 41 44  0  0  0  0  0  0  0  0999 V2000
   57.8530   27.8830   46.6670 O   0  0  0  0  0  0  0  0  0  0  0  0
   56.8160   27.4960   46.0620 C   0  0  0  0  0  0  0  0  0  0  0  0
   56.2430   26.2150   46.3540 N   0  0  0  0  0  0  0  0  0  0  0  0
   56.0680   25.1290   45.4330 C   0  0  0  0  0  0  0  0  0  0  0  0
   54.8620   24.4090   45.3470 C   0  0  0  0  0  0  0  0  0  0  0  0
   54.7420   23.3420   44.4500 C   0  0  0  0  0  0  0  0  0  0  0  0
   55.8240   22.9770   43.6450 C   0  0  0  0  0  0  0  0  0  0  0  0
   57.0320   23.6730   43.7430 C   0  0  0  0  0  0  0  0  0  0  0  0
   57.1560   24.7400   44.6390 C   0  0  0  0  0  0  0  0  0  0  0  0
   56.1430   28.3700   45.1460 N   0  0  0  0  0  0  0  0  0  0  0  0
   56.7000   29.5930   44.6370 C   0  0  0  0  0  0  0  0  0  0  0  0
   56.5200   29.9780   43.2840 C   0  0  0  0  0  0  0  0  0  0  0  0
   57.0530   31.1840   42.8030 C   0  0  0  0  0  0  0  0  0  0  0  0
   57.7510   32.0040   43.6890 C   0  0  0  0  0  0  0  0  0  0  0  0
   57.9080   31.6480   45.0200 C   0  0  0  0  0  0  0  0  0  0  0  0
   57.3890   30.4510   45.5180 C   0  0  0  0  0  0  0  0  0  0  0  0
   58.6000   32.5890   45.6500 C   0  0  0  0  0  0  0  0  0  0  0  0
   59.1030   32.5890   47.0630 C   0  0  0  0  0  0  0  0  0  0  0  0
   60.5880   32.7860   47.0790 C   0  0  0  0  0  0  0  0  0  0  0  0
   61.5270   31.8020   47.3220 C   0  0  0  0  0  0  0  0  0  0  0  0
   62.7600   32.4030   47.1670 C   0  0  0  0  0  0  0  0  0  0  0  0
   62.5190   33.7200   46.8290 C   0  0  0  0  0  0  0  0  0  0  0  0
   61.1940   33.9460   46.7720 N   0  0  0  0  0  0  0  0  0  0  0  0
   58.8890   33.5570   44.6030 C   0  0  0  0  0  0  0  0  0  0  0  0
   59.5580   34.6150   44.7370 O   0  0  0  0  0  0  0  0  0  0  0  0
   58.3110   33.1290   43.3740 N   0  0  0  0  0  0  0  0  0  0  0  0
   54.0112   24.6859   45.9869 H   0  0  0  0  0  0  0  0  0  0  0  0
   53.7937   22.7893   44.3784 H   0  0  0  0  0  0  0  0  0  0  0  0
   55.7252   22.1428   42.9349 H   0  0  0  0  0  0  0  0  0  0  0  0
   57.8865   23.3813   43.1147 H   0  0  0  0  0  0  0  0  0  0  0  0
   58.1126   25.2769   44.7211 H   0  0  0  0  0  0  0  0  0  0  0  0
   55.1540   28.1360   44.8980 H   0  0  0  0  0  0  0  0  0  0  0  0
   55.9558   29.3235   42.6033 H   0  0  0  0  0  0  0  0  0  0  0  0
   56.9230   31.4759   41.7504 H   0  0  0  0  0  0  0  0  0  0  0  0
   57.5154   30.1829   46.5773 H   0  0  0  0  0  0  0  0  0  0  0  0
   58.6213   33.4055   47.6210 H   0  0  0  0  0  0  0  0  0  0  0  0
   58.8621   31.6235   47.5317 H   0  0  0  0  0  0  0  0  0  0  0  0
   61.3316   30.7521   47.5856 H   0  0  0  0  0  0  0  0  0  0  0  0
   63.7434   31.9256   47.2890 H   0  0  0  0  0  0  0  0  0  0  0  0
   63.2963   34.4737   46.6348 H   0  0  0  0  0  0  0  0  0  0  0  0
   60.7310   34.8490   46.5240 H   0  0  0  0  0  0  0  0  0  0  0  0
  1  2  2  0
  2  3  1  0
  3  4  1  0
  4  5  2  0
  5  6  1  0
  6  7  2  0
  7  8  1  0
  8  9  2  0
  2 10  1  0
 10 11  1  0
 11 12  1  0
 12 13  2  0
 13 14  1  0
 14 15  1  0
 15 16  1  0
 15 17  2  0
 17 18  1  0
 18 19  1  0
 19 20  2  0
 20 21  1  0
 21 22  2  0
 22 23  1  0
 17 24  1  0
 24 25  2  0
 24 26  1  0
  9  4  1  0
 16 11  2  0
 23 19  1  0
 26 14  2  0
  5 27  1  0
  6 28  1  0
  7 29  1  0
  8 30  1  0
  9 31  1  0
 10 32  1  0
 12 33  1  0
 13 34  1  0
 16 35  1  0
 18 36  1  0
 18 37  1  0
 20 38  1  0
 21 39  1  0
 22 40  1  0
 23 41  1  0
M  CHG  1   3  -1
M  END
>  <UniqueID>  (51) 
47

>  <SMILES>  (51) 
O=C([N-]c1ccccc1)Nc1ccc2c(c1)=C(Cc1ccc[nH]1)C(=O)N=2

>  <Energy>  (51) 
106.54329349217325

>  <Genealogy>  (51) 
O=C([N-]c1ccccc1)Nc1ccc2c(c1)=C(Cc1ccc[nH]1)C(=O)N=2 (protonated)
O=C([N-]c1ccccc1)Nc1ccc2c(c1)=C(Cc1ccc[nH]1)C(=O)N=2 (3D coordinates assigned)
O=C([N-]c1ccccc1)Nc1ccc2c(c1)=C(Cc1ccc[nH]1)C(=O)N=2 (nonaromatic ring conformer: 106.54329349217325 kcal/mol)

>  <smiles>  (51) 
O=C(Nc1ccccc1)Nc1ccc2c(c1)=C(Cc1ccc[nH]1)C(=O)N=2

>  <score_type>  (51) 
oracle

>  <origin>  (51) 
adg

>  <m_score__min__energy>  (51) 
-10.33

>  <m_primary>  (51) 
energy

$$$$
51:0
     RDKit          3D

 50 53  0  0  0  0  0  0  0  0999 V2000
   61.7340   33.5060   51.8360 C   0  0  0  0  0  0  0  0  0  0  0  0
   63.0910   32.9580   51.8110 N   0  0  0  0  0  0  0  0  0  0  0  0
   64.0190   33.9260   51.2150 C   0  0  0  0  0  0  0  0  0  0  0  0
   64.4840   33.4530   49.8360 C   0  0  0  0  0  0  0  0  0  0  0  0
   63.4090   32.7040   49.1640 N   0  0  0  0  0  0  0  0  0  0  0  0
   63.0460   33.3130   47.8770 C   0  0  0  0  0  0  0  0  0  0  0  0
   61.8220   32.6360   47.3270 C   0  0  0  0  0  0  0  0  0  0  0  0
   61.7210   31.2380   47.3340 C   0  0  0  0  0  0  0  0  0  0  0  0
   60.5980   30.6080   46.7890 C   0  0  0  0  0  0  0  0  0  0  0  0
   59.5610   31.3670   46.2150 C   0  0  0  0  0  0  0  0  0  0  0  0
   58.3700   30.6980   45.6340 C   0  0  0  0  0  0  0  0  0  0  0  0
   57.4210   31.4380   44.9080 C   0  0  0  0  0  0  0  0  0  0  0  0
   56.3020   30.8080   44.3620 C   0  0  0  0  0  0  0  0  0  0  0  0
   56.1130   29.4350   44.5300 C   0  0  0  0  0  0  0  0  0  0  0  0
   57.0470   28.6740   45.2530 C   0  0  0  0  0  0  0  0  0  0  0  0
   56.8460   27.2190   45.4370 C   0  0  0  0  0  0  0  0  0  0  0  0
   57.7820   26.2930   45.0900 N   0  0  0  0  0  0  0  0  0  0  0  0
   57.1920   25.1380   45.4230 C   0  0  0  0  0  0  0  0  0  0  0  0
   57.7010   23.8480   45.2860 C   0  0  0  0  0  0  0  0  0  0  0  0
   56.8910   22.7780   45.7100 C   0  0  0  0  0  0  0  0  0  0  0  0
   55.6080   23.0230   46.2520 C   0  0  0  0  0  0  0  0  0  0  0  0
   55.1270   24.3410   46.3750 C   0  0  0  0  0  0  0  0  0  0  0  0
   55.9570   25.3740   45.9450 C   0  0  0  0  0  0  0  0  0  0  0  0
   55.7090   26.6910   45.9660 N   0  0  0  0  0  0  0  0  0  0  0  0
   58.1740   29.3140   45.8020 C   0  0  0  0  0  0  0  0  0  0  0  0
   59.6750   32.7690   46.1970 C   0  0  0  0  0  0  0  0  0  0  0  0
   60.7980   33.3960   46.7430 C   0  0  0  0  0  0  0  0  0  0  0  0
   61.4105   33.6366   52.8792 H   0  0  0  0  0  0  0  0  0  0  0  0
   61.7222   34.4794   51.3238 H   0  0  0  0  0  0  0  0  0  0  0  0
   61.0495   32.8138   51.3238 H   0  0  0  0  0  0  0  0  0  0  0  0
   63.0670   32.1110   51.1960 H   0  0  0  0  0  0  0  0  0  0  0  0
   63.5111   34.8962   51.1114 H   0  0  0  0  0  0  0  0  0  0  0  0
   64.8975   34.0224   51.8700 H   0  0  0  0  0  0  0  0  0  0  0  0
   64.7546   34.3266   49.2248 H   0  0  0  0  0  0  0  0  0  0  0  0
   65.3565   32.7945   49.9587 H   0  0  0  0  0  0  0  0  0  0  0  0
   62.5590   32.7220   49.7760 H   0  0  0  0  0  0  0  0  0  0  0  0
   62.8378   34.3831   48.0240 H   0  0  0  0  0  0  0  0  0  0  0  0
   63.8790   33.1942   47.1685 H   0  0  0  0  0  0  0  0  0  0  0  0
   62.5295   30.6333   47.7706 H   0  0  0  0  0  0  0  0  0  0  0  0
   60.5244   29.5106   46.8090 H   0  0  0  0  0  0  0  0  0  0  0  0
   57.5612   32.5202   44.7694 H   0  0  0  0  0  0  0  0  0  0  0  0
   55.5648   31.3964   43.7961 H   0  0  0  0  0  0  0  0  0  0  0  0
   55.2288   28.9467   44.0943 H   0  0  0  0  0  0  0  0  0  0  0  0
   58.7005   23.6722   44.8615 H   0  0  0  0  0  0  0  0  0  0  0  0
   57.2581   21.7450   45.6193 H   0  0  0  0  0  0  0  0  0  0  0  0
   54.9823   22.1796   46.5793 H   0  0  0  0  0  0  0  0  0  0  0  0
   54.1317   24.5474   46.7955 H   0  0  0  0  0  0  0  0  0  0  0  0
   58.9105   28.7258   46.3691 H   0  0  0  0  0  0  0  0  0  0  0  0
   58.8742   33.3762   45.7498 H   0  0  0  0  0  0  0  0  0  0  0  0
   60.8795   34.4926   46.7146 H   0  0  0  0  0  0  0  0  0  0  0  0
  1  2  1  0
  2  3  1  0
  3  4  1  0
  4  5  1  0
  5  6  1  0
  6  7  1  0
  7  8  2  0
  8  9  1  0
  9 10  2  0
 10 11  1  0
 11 12  2  0
 12 13  1  0
 13 14  2  0
 14 15  1  0
 15 16  1  0
 16 17  2  0
 17 18  1  0
 18 19  2  0
 19 20  1  0
 20 21  2  0
 21 22  1  0
 22 23  2  0
 23 24  1  0
 15 25  2  0
 10 26  1  0
 26 27  2  0
 27  7  1  0
 25 11  1  0
 24 16  1  0
 23 18  1  0
  1 28  1  0
  1 29  1  0
  1 30  1  0
  2 31  1  0
  3 32  1  0
  3 33  1  0
  4 34  1  0
  4 35  1  0
  5 36  1  0
  6 37  1  0
  6 38  1  0
  8 39  1  0
  9 40  1  0
 12 41  1  0
 13 42  1  0
 14 43  1  0
 19 44  1  0
 20 45  1  0
 21 46  1  0
 22 47  1  0
 25 48  1  0
 26 49  1  0
 27 50  1  0
M  CHG  1  24  -1
M  END
>  <UniqueID>  (52) 
48

>  <SMILES>  (52) 
CNCCNCc1ccc(-c2cccc(-c3nc4ccccc4[n-]3)c2)cc1

>  <Energy>  (52) 
90.8424185338597

>  <Genealogy>  (52) 
CNCCNCc1ccc(-c2cccc(-c3nc4ccccc4[n-]3)c2)cc1 (protonated)
CNCCNCc1ccc(-c2cccc(-c3nc4ccccc4[n-]3)c2)cc1 (3D coordinates assigned)
CNCCNCc1ccc(-c2cccc(-c3nc4ccccc4[n-]3)c2)cc1 (optimized conformer: 90.8424185338597 kcal/mol)

>  <smiles>  (52) 
CNCCNCc1ccc(-c2cccc(-c3nc4ccccc4[nH]3)c2)cc1

>  <score_type>  (52) 
oracle

>  <origin>  (52) 
adg

>  <m_score__min__energy>  (52) 
-8.6799999999999997

>  <m_primary>  (52) 
energy

$$$$
52:0
     RDKit          3D

 60 60  0  0  0  0  0  0  0  0999 V2000
   54.7440   28.3790   44.4960 H   0  0  0  0  0  0  0  0  0  0  0  0
   54.9950   29.3370   44.7120 O   0  0  0  0  0  0  0  0  0  0  0  0
   56.3240   29.7450   44.7290 C   0  0  0  0  0  0  0  0  0  0  0  0
   56.7040   30.9990   44.7420 O   0  0  0  0  0  0  0  0  0  0  0  0
   58.0200   31.0340   44.7710 C   0  0  0  0  0  0  0  0  0  0  0  0
   58.6253   31.9523   44.7901 H   0  0  0  0  0  0  0  0  0  0  0  0
   58.5310   29.7480   44.7740 C   0  0  0  0  0  0  0  0  0  0  0  0
   59.5893   29.4492   44.7995 H   0  0  0  0  0  0  0  0  0  0  0  0
   57.4250   28.9200   44.7380 C   0  0  0  0  0  0  0  0  0  0  0  0
   57.3960   27.4890   44.7950 N   0  0  0  0  0  0  0  0  0  0  0  0
   56.6750   26.7010   45.7490 C   0  0  0  0  0  0  0  0  0  0  0  0
   55.4280   26.8290   45.8790 O   0  0  0  0  0  0  0  0  0  0  0  0
   57.4140   25.7280   46.6160 C   0  0  0  0  0  0  0  0  0  0  0  0
   57.0397   24.7123   46.4203 H   0  0  0  0  0  0  0  0  0  0  0  0
   57.2507   25.9965   47.6702 H   0  0  0  0  0  0  0  0  0  0  0  0
   58.9170   25.7770   46.3200 C   0  0  0  0  0  0  0  0  0  0  0  0
   59.0771   26.2852   45.3576 H   0  0  0  0  0  0  0  0  0  0  0  0
   59.2990   24.7462   46.2815 H   0  0  0  0  0  0  0  0  0  0  0  0
   59.6720   26.5350   47.4180 C   0  0  0  0  0  0  0  0  0  0  0  0
   60.7281   26.2275   47.4054 H   0  0  0  0  0  0  0  0  0  0  0  0
   59.2106   26.2958   48.3875 H   0  0  0  0  0  0  0  0  0  0  0  0
   59.5910   28.0210   47.2050 C   0  0  0  0  0  0  0  0  0  0  0  0
   59.8680   28.4400   46.2264 H   0  0  0  0  0  0  0  0  0  0  0  0
   59.1880   28.8480   48.1830 C   0  0  0  0  0  0  0  0  0  0  0  0
   58.2897   29.4637   48.0279 H   0  0  0  0  0  0  0  0  0  0  0  0
   59.9320   28.9540   49.4830 C   0  0  0  0  0  0  0  0  0  0  0  0
   60.7189   28.1859   49.5115 H   0  0  0  0  0  0  0  0  0  0  0  0
   59.2207   28.8053   50.3088 H   0  0  0  0  0  0  0  0  0  0  0  0
   60.5640   30.3140   49.6300 C   0  0  0  0  0  0  0  0  0  0  0  0
   60.1272   31.0025   50.3684 H   0  0  0  0  0  0  0  0  0  0  0  0
   61.6260   30.7480   48.9220 C   0  0  0  0  0  0  0  0  0  0  0  0
   62.5669   30.9173   49.4661 H   0  0  0  0  0  0  0  0  0  0  0  0
   61.6180   31.0180   47.4400 C   0  0  0  0  0  0  0  0  0  0  0  0
   60.5788   31.0144   47.0793 H   0  0  0  0  0  0  0  0  0  0  0  0
   62.2029   30.2335   46.9376 H   0  0  0  0  0  0  0  0  0  0  0  0
   62.2430   32.3560   47.1310 C   0  0  0  0  0  0  0  0  0  0  0  0
   61.7011   33.0427   46.4641 H   0  0  0  0  0  0  0  0  0  0  0  0
   63.4300   32.7540   47.6290 C   0  0  0  0  0  0  0  0  0  0  0  0
   64.3341   32.5463   47.0378 H   0  0  0  0  0  0  0  0  0  0  0  0
   63.5940   33.4660   48.9460 C   0  0  0  0  0  0  0  0  0  0  0  0
   64.4957   34.0945   48.9017 H   0  0  0  0  0  0  0  0  0  0  0  0
   63.6812   32.7073   49.7377 H   0  0  0  0  0  0  0  0  0  0  0  0
   62.4070   34.3370   49.2590 C   0  0  0  0  0  0  0  0  0  0  0  0
   62.3186   35.3292   48.7924 H   0  0  0  0  0  0  0  0  0  0  0  0
   61.4560   33.9100   50.1040 C   0  0  0  0  0  0  0  0  0  0  0  0
   61.7058   33.7743   51.1666 H   0  0  0  0  0  0  0  0  0  0  0  0
   60.0580   33.6120   49.6370 C   0  0  0  0  0  0  0  0  0  0  0  0
   59.3613   33.7652   50.4744 H   0  0  0  0  0  0  0  0  0  0  0  0
   60.0264   32.5698   49.2864 H   0  0  0  0  0  0  0  0  0  0  0  0
   59.6550   34.5050   48.4970 C   0  0  0  0  0  0  0  0  0  0  0  0
   59.8275   35.5884   48.5778 H   0  0  0  0  0  0  0  0  0  0  0  0
   59.0900   34.0140   47.3830 C   0  0  0  0  0  0  0  0  0  0  0  0
   58.3242   33.2293   47.4721 H   0  0  0  0  0  0  0  0  0  0  0  0
   59.4760   34.5080   46.0170 C   0  0  0  0  0  0  0  0  0  0  0  0
   60.3310   33.9196   45.6527 H   0  0  0  0  0  0  0  0  0  0  0  0
   59.7389   35.5731   46.0971 H   0  0  0  0  0  0  0  0  0  0  0  0
   58.3230   34.3730   45.0260 C   0  0  0  0  0  0  0  0  0  0  0  0
   57.3772   34.2623   45.5767 H   0  0  0  0  0  0  0  0  0  0  0  0
   58.2760   35.2718   44.3935 H   0  0  0  0  0  0  0  0  0  0  0  0
   58.4849   33.4877   44.3935 H   0  0  0  0  0  0  0  0  0  0  0  0
  1  2  1  0
  2  3  1  0
  3  4  1  0
  4  5  1  0
  5  6  1  0
  5  7  2  0
  7  8  1  0
  7  9  1  0
  9 10  1  0
 10 11  1  0
 11 12  2  0
 11 13  1  0
 13 14  1  0
 13 15  1  0
 13 16  1  0
 16 17  1  0
 16 18  1  0
 16 19  1  0
 19 20  1  0
 19 21  1  0
 19 22  1  0
 22 23  1  0
 22 24  2  3
 24 25  1  0
 24 26  1  0
 26 27  1  0
 26 28  1  0
 26 29  1  0
 29 30  1  0
 29 31  2  0
 31 32  1  0
 31 33  1  0
 33 34  1  0
 33 35  1  0
 33 36  1  0
 36 37  1  0
 36 38  2  0
 38 39  1  0
 38 40  1  0
 40 41  1  0
 40 42  1  0
 40 43  1  0
 43 44  1  0
 43 45  2  3
 45 46  1  0
 45 47  1  0
 47 48  1  0
 47 49  1  0
 47 50  1  0
 50 51  1  0
 50 52  2  3
 52 53  1  0
 52 54  1  0
 54 55  1  0
 54 56  1  0
 54 57  1  0
 57 58  1  0
 57 59  1  0
 57 60  1  0
  9  3  2  0
M  CHG  1  10  -1
M  END
>  <UniqueID>  (53) 
49

>  <SMILES>  (53) 
CCC=CCC=CC/C=C\C/C=C\CC=CCCCC(=O)[N-]c1ccoc1O

>  <Energy>  (53) 
56.96788021786044

>  <Genealogy>  (53) 
CCC=CCC=CCC=CCC=CCC=CCCCC(=O)[N-]c1ccoc1O (protonated)
CCC=CCC=CC/C=C\C/C=C\CC=CCCCC(=O)[N-]c1ccoc1O (cis-trans isomerization)
CCC=CCC=CC/C=C\C/C=C\CC=CCCCC(=O)[N-]c1ccoc1O (3D coordinates assigned)
CCC=CCC=CC/C=C\C/C=C\CC=CCCCC(=O)[N-]c1ccoc1O (optimized conformer: 56.96788021786044 kcal/mol)

>  <smiles>  (53) 
CCC=CCC=CCC=CCC=CCC=CCCCC(=O)Nc1ccoc1O

>  <score_type>  (53) 
oracle

>  <origin>  (53) 
adg

>  <m_score__min__energy>  (53) 
-9.2599999999999998

>  <m_primary>  (53) 
energy

$$$$
53:0
     RDKit          3D

 47 49  0  0  0  0  0  0  0  0999 V2000
   59.4130   34.5510   47.8360 C   0  0  0  0  0  0  0  0  0  0  0  0
   60.0010   34.6220   46.4310 C   0  0  0  0  0  0  0  0  0  0  0  0
   59.5060   33.5260   45.5990 N   0  0  0  0  0  0  0  0  0  0  0  0
   58.2780   33.6460   44.8630 C   0  0  0  0  0  0  0  0  0  0  0  0
   57.6960   34.7650   44.8030 O   0  0  0  0  0  0  0  0  0  0  0  0
   57.6900   32.4830   44.1560 C   0  0  0  0  0  0  0  0  0  0  0  0
   57.7600   32.4050   42.7530 C   0  0  0  0  0  0  0  0  0  0  0  0
   57.1880   31.3260   42.0750 C   0  0  0  0  0  0  0  0  0  0  0  0
   56.5420   30.3140   42.7850 C   0  0  0  0  0  0  0  0  0  0  0  0
   56.4720   30.3630   44.1820 C   0  0  0  0  0  0  0  0  0  0  0  0
   55.7700   29.3170   44.8700 N   0  0  0  0  0  0  0  0  0  0  0  0
   56.2970   28.0380   45.2490 C   0  0  0  0  0  0  0  0  0  0  0  0
   55.5290   27.1160   45.6300 O   0  0  0  0  0  0  0  0  0  0  0  0
   57.7050   27.7870   45.1950 N   0  0  0  0  0  0  0  0  0  0  0  0
   58.7080   28.4120   46.0110 C   0  0  0  0  0  0  0  0  0  0  0  0
   59.4590   29.5060   45.5420 C   0  0  0  0  0  0  0  0  0  0  0  0
   60.4150   30.1070   46.3640 C   0  0  0  0  0  0  0  0  0  0  0  0
   60.6260   29.6300   47.6580 C   0  0  0  0  0  0  0  0  0  0  0  0
   59.8680   28.5620   48.1420 C   0  0  0  0  0  0  0  0  0  0  0  0
   58.8880   27.9610   47.3290 C   0  0  0  0  0  0  0  0  0  0  0  0
   58.1190   26.8800   47.7870 O   0  0  0  0  0  0  0  0  0  0  0  0
   57.9650   25.6510   47.1260 C   0  0  0  0  0  0  0  0  0  0  0  0
   56.7860   24.8900   47.2300 C   0  0  0  0  0  0  0  0  0  0  0  0
   56.6670   23.6790   46.5420 C   0  0  0  0  0  0  0  0  0  0  0  0
   57.7160   23.2250   45.7370 C   0  0  0  0  0  0  0  0  0  0  0  0
   58.8810   23.9870   45.6140 C   0  0  0  0  0  0  0  0  0  0  0  0
   59.0030   25.1980   46.3010 C   0  0  0  0  0  0  0  0  0  0  0  0
   57.0260   31.4620   44.8630 C   0  0  0  0  0  0  0  0  0  0  0  0
   60.2204   34.6485   48.5767 H   0  0  0  0  0  0  0  0  0  0  0  0
   58.6895   35.3683   47.9724 H   0  0  0  0  0  0  0  0  0  0  0  0
   58.9049   33.5850   47.9724 H   0  0  0  0  0  0  0  0  0  0  0  0
   59.7171   35.5797   45.9703 H   0  0  0  0  0  0  0  0  0  0  0  0
   61.0954   34.5389   46.5048 H   0  0  0  0  0  0  0  0  0  0  0  0
   60.0780   32.6560   45.5040 H   0  0  0  0  0  0  0  0  0  0  0  0
   58.2685   33.1989   42.1863 H   0  0  0  0  0  0  0  0  0  0  0  0
   57.2472   31.2742   40.9778 H   0  0  0  0  0  0  0  0  0  0  0  0
   56.0849   29.4725   42.2438 H   0  0  0  0  0  0  0  0  0  0  0  0
   59.2925   29.8891   44.5244 H   0  0  0  0  0  0  0  0  0  0  0  0
   61.0029   30.9583   45.9903 H   0  0  0  0  0  0  0  0  0  0  0  0
   61.3903   30.0958   48.2975 H   0  0  0  0  0  0  0  0  0  0  0  0
   60.0371   28.1885   49.1627 H   0  0  0  0  0  0  0  0  0  0  0  0
   55.9551   25.2493   47.8549 H   0  0  0  0  0  0  0  0  0  0  0  0
   55.7472   23.0828   46.6341 H   0  0  0  0  0  0  0  0  0  0  0  0
   57.6244   22.2688   45.2009 H   0  0  0  0  0  0  0  0  0  0  0  0
   59.7036   23.6330   44.9752 H   0  0  0  0  0  0  0  0  0  0  0  0
   59.9184   25.7984   46.1935 H   0  0  0  0  0  0  0  0  0  0  0  0
   56.9398   31.5245   45.9578 H   0  0  0  0  0  0  0  0  0  0  0  0
  1  2  1  0
  2  3  1  0
  3  4  1  0
  4  5  2  0
  4  6  1  0
  6  7  2  0
  7  8  1  0
  8  9  2  0
  9 10  1  0
 10 11  1  0
 11 12  1  0
 12 13  2  0
 12 14  1  0
 14 15  1  0
 15 16  2  0
 16 17  1  0
 17 18  2  0
 18 19  1  0
 19 20  2  0
 20 21  1  0
 21 22  1  0
 22 23  2  0
 23 24  1  0
 24 25  2  0
 25 26  1  0
 26 27  2  0
 10 28  2  0
 28  6  1  0
 20 15  1  0
 27 22  1  0
  1 29  1  0
  1 30  1  0
  1 31  1  0
  2 32  1  0
  2 33  1  0
  3 34  1  0
  7 35  1  0
  8 36  1  0
  9 37  1  0
 16 38  1  0
 17 39  1  0
 18 40  1  0
 19 41  1  0
 23 42  1  0
 24 43  1  0
 25 44  1  0
 26 45  1  0
 27 46  1  0
 28 47  1  0
M  CHG  2  11  -1  14  -1
M  END
>  <UniqueID>  (54) 
50

>  <SMILES>  (54) 
CCNC(=O)c1cccc([N-]C(=O)[N-]c2ccccc2Oc2ccccc2)c1

>  <Energy>  (54) 
60.72177268904352

>  <Genealogy>  (54) 
CCNC(=O)c1cccc([N-]C(=O)[N-]c2ccccc2Oc2ccccc2)c1 (protonated)
CCNC(=O)c1cccc([N-]C(=O)[N-]c2ccccc2Oc2ccccc2)c1 (3D coordinates assigned)
CCNC(=O)c1cccc([N-]C(=O)[N-]c2ccccc2Oc2ccccc2)c1 (optimized conformer: 60.72177268904352 kcal/mol)

>  <smiles>  (54) 
CCNC(=O)c1cccc(NC(=O)Nc2ccccc2Oc2ccccc2)c1

>  <score_type>  (54) 
oracle

>  <origin>  (54) 
adg

>  <m_score__min__energy>  (54) 
-11.5

>  <m_primary>  (54) 
energy

$$$$
54:0
     RDKit          3D

 59 62  0  0  0  0  0  0  0  0999 V2000
   67.0990   30.6770   52.4730 C   0  0  0  0  0  0  0  0  0  0  0  0
   66.2990   30.3370   51.3460 O   0  0  0  0  0  0  0  0  0  0  0  0
   65.3090   31.1660   50.7910 C   0  0  0  0  0  0  0  0  0  0  0  0
   63.9410   30.8430   50.8600 C   0  0  0  0  0  0  0  0  0  0  0  0
   62.9760   31.6870   50.2910 C   0  0  0  0  0  0  0  0  0  0  0  0
   63.3800   32.8890   49.6760 C   0  0  0  0  0  0  0  0  0  0  0  0
   64.7440   33.2010   49.5920 C   0  0  0  0  0  0  0  0  0  0  0  0
   65.7130   32.3470   50.1520 C   0  0  0  0  0  0  0  0  0  0  0  0
   67.0850   32.6360   50.0920 O   0  0  0  0  0  0  0  0  0  0  0  0
   67.7160   33.7030   50.7930 C   0  0  0  0  0  0  0  0  0  0  0  0
   62.3700   33.7880   49.0000 C   0  0  0  0  0  0  0  0  0  0  0  0
   61.0100   33.5890   49.5460 N   0  0  1  0  0  0  0  0  0  0  0  0
   60.0010   34.4950   48.9330 C   0  0  0  0  0  0  0  0  0  0  0  0
   60.0680   34.6720   47.3940 C   0  0  0  0  0  0  0  0  0  0  0  0
   59.1850   33.7220   46.6270 C   0  0  0  0  0  0  0  0  0  0  0  0
   57.8470   34.0540   46.3580 C   0  0  0  0  0  0  0  0  0  0  0  0
   57.0270   33.1670   45.6560 C   0  0  0  0  0  0  0  0  0  0  0  0
   57.5340   31.9490   45.1920 C   0  0  0  0  0  0  0  0  0  0  0  0
   56.6580   31.0550   44.4890 N   0  0  0  0  0  0  0  0  0  0  0  0
   56.3440   29.7080   44.8690 C   0  0  0  0  0  0  0  0  0  0  0  0
   55.1440   29.3280   44.7990 O   0  0  0  0  0  0  0  0  0  0  0  0
   57.3880   28.7440   45.2870 C   0  0  0  0  0  0  0  0  0  0  0  0
   57.9750   28.8230   46.5630 C   0  0  0  0  0  0  0  0  0  0  0  0
   58.9620   27.9100   46.9460 C   0  0  0  0  0  0  0  0  0  0  0  0
   59.3810   26.9170   46.0580 C   0  0  0  0  0  0  0  0  0  0  0  0
   60.3370   26.0320   46.4320 F   0  0  0  0  0  0  0  0  0  0  0  0
   58.8160   26.8390   44.7820 C   0  0  0  0  0  0  0  0  0  0  0  0
   57.8290   27.7490   44.3950 C   0  0  0  0  0  0  0  0  0  0  0  0
   58.8700   31.6090   45.4670 C   0  0  0  0  0  0  0  0  0  0  0  0
   59.6920   32.4960   46.1670 C   0  0  0  0  0  0  0  0  0  0  0  0
   60.6290   32.1620   49.4950 C   0  0  0  0  0  0  0  0  0  0  0  0
   61.5170   31.3340   50.4340 C   0  0  0  0  0  0  0  0  0  0  0  0
   66.5493   30.4434   53.3967 H   0  0  0  0  0  0  0  0  0  0  0  0
   68.0343   30.0986   52.4466 H   0  0  0  0  0  0  0  0  0  0  0  0
   67.3317   31.7518   52.4466 H   0  0  0  0  0  0  0  0  0  0  0  0
   63.6251   29.9186   51.3657 H   0  0  0  0  0  0  0  0  0  0  0  0
   65.0607   34.1232   49.0829 H   0  0  0  0  0  0  0  0  0  0  0  0
   67.6186   33.5383   51.8762 H   0  0  0  0  0  0  0  0  0  0  0  0
   68.7815   33.7402   50.5221 H   0  0  0  0  0  0  0  0  0  0  0  0
   67.2353   34.6546   50.5221 H   0  0  0  0  0  0  0  0  0  0  0  0
   62.6662   34.8361   49.1538 H   0  0  0  0  0  0  0  0  0  0  0  0
   62.3500   33.5375   47.9291 H   0  0  0  0  0  0  0  0  0  0  0  0
   61.0510   33.8670   50.5580 H   0  0  0  0  0  0  0  0  0  0  0  0
   59.0046   34.0999   49.1800 H   0  0  0  0  0  0  0  0  0  0  0  0
   60.2163   35.4906   49.3482 H   0  0  0  0  0  0  0  0  0  0  0  0
   59.7625   35.7004   47.1508 H   0  0  0  0  0  0  0  0  0  0  0  0
   61.1038   34.4547   47.0943 H   0  0  0  0  0  0  0  0  0  0  0  0
   57.4426   35.0175   46.7019 H   0  0  0  0  0  0  0  0  0  0  0  0
   55.9754   33.4284   45.4669 H   0  0  0  0  0  0  0  0  0  0  0  0
   57.6553   29.6082   47.2639 H   0  0  0  0  0  0  0  0  0  0  0  0
   59.4095   27.9739   47.9488 H   0  0  0  0  0  0  0  0  0  0  0  0
   59.1491   26.0595   44.0810 H   0  0  0  0  0  0  0  0  0  0  0  0
   57.3939   27.6873   43.3866 H   0  0  0  0  0  0  0  0  0  0  0  0
   59.2697   30.6412   45.1299 H   0  0  0  0  0  0  0  0  0  0  0  0
   60.7425   32.2323   46.3589 H   0  0  0  0  0  0  0  0  0  0  0  0
   59.5786   32.0566   49.8040 H   0  0  0  0  0  0  0  0  0  0  0  0
   60.7606   31.7955   48.4662 H   0  0  0  0  0  0  0  0  0  0  0  0
   61.2067   31.5212   51.4726 H   0  0  0  0  0  0  0  0  0  0  0  0
   61.3968   30.2737   50.1671 H   0  0  0  0  0  0  0  0  0  0  0  0
  1  2  1  0
  2  3  1  0
  3  4  2  0
  4  5  1  0
  5  6  2  0
  6  7  1  0
  7  8  2  0
  8  9  1  0
  9 10  1  0
  6 11  1  0
 11 12  1  0
 12 13  1  0
 13 14  1  0
 14 15  1  0
 15 16  2  0
 16 17  1  0
 17 18  2  0
 18 19  1  0
 19 20  1  0
 20 21  2  0
 20 22  1  0
 22 23  2  0
 23 24  1  0
 24 25  2  0
 25 26  1  0
 25 27  1  0
 27 28  2  0
 18 29  1  0
 29 30  2  0
 12 31  1  0
 31 32  1  0
  8  3  1  0
 30 15  1  0
 32  5  1  0
 28 22  1  0
  1 33  1  0
  1 34  1  0
  1 35  1  0
  4 36  1  0
  7 37  1  0
 10 38  1  0
 10 39  1  0
 10 40  1  0
 11 41  1  0
 11 42  1  0
 12 43  1  1
 13 44  1  0
 13 45  1  0
 14 46  1  0
 14 47  1  0
 16 48  1  0
 17 49  1  0
 23 50  1  0
 24 51  1  0
 27 52  1  0
 28 53  1  0
 29 54  1  0
 30 55  1  0
 31 56  1  0
 31 57  1  0
 32 58  1  0
 32 59  1  0
M  CHG  2  12   1  19  -1
M  END
>  <UniqueID>  (55) 
51

>  <SMILES>  (55) 
COc1cc2c(cc1OC)C[N@@H+](CCc1ccc([N-]C(=O)c3ccc(F)cc3)cc1)CC2

>  <Energy>  (55) 
75.63332148335104

>  <Genealogy>  (55) 
COc1cc2c(cc1OC)C[NH+](CCc1ccc([N-]C(=O)c3ccc(F)cc3)cc1)CC2 (protonated)
COc1cc2c(cc1OC)C[N@@H+](CCc1ccc([N-]C(=O)c3ccc(F)cc3)cc1)CC2 (chirality)
COc1cc2c(cc1OC)C[N@@H+](CCc1ccc([N-]C(=O)c3ccc(F)cc3)cc1)CC2 (3D coordinates assigned)
COc1cc2c(cc1OC)C[N@@H+](CCc1ccc([N-]C(=O)c3ccc(F)cc3)cc1)CC2 (nonaromatic ring conformer: 75.63332148335104 kcal/mol)

>  <smiles>  (55) 
COc1cc2c(cc1OC)CN(CCc1ccc(NC(=O)c3ccc(F)cc3)cc1)CC2

>  <score_type>  (55) 
oracle

>  <origin>  (55) 
adg

>  <m_score__min__energy>  (55) 
-9.1699999999999999

>  <m_primary>  (55) 
energy

$$$$
55:0
     RDKit          3D

 54 57  0  0  0  0  0  0  0  0999 V2000
   59.6320   33.5810   49.7940 C   0  0  0  0  0  0  0  0  0  0  0  0
   59.7320   32.2100   49.1860 C   0  0  0  0  0  0  0  0  0  0  0  0
   60.0690   31.0360   49.8540 C   0  0  0  0  0  0  0  0  0  0  0  0
   60.4570   30.8970   51.3080 C   0  0  0  0  0  0  0  0  0  0  0  0
   61.8770   30.5490   51.4750 N   0  0  0  0  0  0  0  0  0  0  0  0
   62.7310   31.7420   51.5110 C   0  0  0  0  0  0  0  0  0  0  0  0
   62.8910   32.2890   50.1190 C   0  0  0  0  0  0  0  0  0  0  0  0
   63.1620   31.4250   49.0460 C   0  0  0  0  0  0  0  0  0  0  0  0
   63.3500   31.9390   47.7590 C   0  0  0  0  0  0  0  0  0  0  0  0
   63.2790   33.3170   47.5370 C   0  0  0  0  0  0  0  0  0  0  0  0
   63.4650   33.8140   46.2890 F   0  0  0  0  0  0  0  0  0  0  0  0
   63.0270   34.1850   48.6040 C   0  0  0  0  0  0  0  0  0  0  0  0
   62.8390   33.6740   49.8930 C   0  0  0  0  0  0  0  0  0  0  0  0
   60.0330   30.0480   48.8700 C   0  0  0  0  0  0  0  0  0  0  0  0
   60.3160   28.6050   49.0100 C   0  0  0  0  0  0  0  0  0  0  0  0
   61.1420   28.2230   49.8820 O   0  0  0  0  0  0  0  0  0  0  0  0
   59.7080   27.6530   48.1290 N   0  0  0  0  0  0  0  0  0  0  0  0
   59.1880   27.9100   46.8170 C   0  0  0  0  0  0  0  0  0  0  0  0
   57.8070   28.0100   46.5670 C   0  0  0  0  0  0  0  0  0  0  0  0
   57.3450   28.2910   45.2770 C   0  0  0  0  0  0  0  0  0  0  0  0
   58.2530   28.4850   44.2330 C   0  0  0  0  0  0  0  0  0  0  0  0
   59.6260   28.4120   44.4800 C   0  0  0  0  0  0  0  0  0  0  0  0
   60.0920   28.1330   45.7700 C   0  0  0  0  0  0  0  0  0  0  0  0
   59.6830   30.6180   47.7000 N   0  0  0  0  0  0  0  0  0  0  0  0
   59.4890   31.9130   47.8900 N   0  0  0  0  0  0  0  0  0  0  0  0
   59.0720   32.8140   46.8490 C   0  0  0  0  0  0  0  0  0  0  0  0
   59.6720   34.0780   46.7200 C   0  0  0  0  0  0  0  0  0  0  0  0
   59.2550   34.9580   45.7170 C   0  0  0  0  0  0  0  0  0  0  0  0
   58.2320   34.5860   44.8410 C   0  0  0  0  0  0  0  0  0  0  0  0
   57.6230   33.3350   44.9680 C   0  0  0  0  0  0  0  0  0  0  0  0
   58.0360   32.4520   45.9710 C   0  0  0  0  0  0  0  0  0  0  0  0
   57.4460   31.2340   46.0700 F   0  0  0  0  0  0  0  0  0  0  0  0
   59.6381   33.4971   50.8908 H   0  0  0  0  0  0  0  0  0  0  0  0
   60.4881   34.1900   49.4681 H   0  0  0  0  0  0  0  0  0  0  0  0
   58.6966   34.0593   49.4681 H   0  0  0  0  0  0  0  0  0  0  0  0
   60.2642   31.8520   51.8187 H   0  0  0  0  0  0  0  0  0  0  0  0
   59.8573   30.0826   51.7405 H   0  0  0  0  0  0  0  0  0  0  0  0
   62.1820   29.9430   50.6770 H   0  0  0  0  0  0  0  0  0  0  0  0
   62.2673   32.5051   52.1533 H   0  0  0  0  0  0  0  0  0  0  0  0
   63.7185   31.4728   51.9139 H   0  0  0  0  0  0  0  0  0  0  0  0
   63.2266   30.3405   49.2181 H   0  0  0  0  0  0  0  0  0  0  0  0
   63.5541   31.2575   46.9200 H   0  0  0  0  0  0  0  0  0  0  0  0
   62.9765   35.2700   48.4300 H   0  0  0  0  0  0  0  0  0  0  0  0
   62.6498   34.3596   50.7322 H   0  0  0  0  0  0  0  0  0  0  0  0
   57.0890   27.8669   47.3879 H   0  0  0  0  0  0  0  0  0  0  0  0
   56.2642   28.3594   45.0840 H   0  0  0  0  0  0  0  0  0  0  0  0
   57.8870   28.6951   43.2172 H   0  0  0  0  0  0  0  0  0  0  0  0
   60.3413   28.5739   43.6602 H   0  0  0  0  0  0  0  0  0  0  0  0
   61.1740   28.0886   45.9629 H   0  0  0  0  0  0  0  0  0  0  0  0
   59.5550   30.1260   46.7870 H   0  0  0  0  0  0  0  0  0  0  0  0
   60.4737   34.3765   47.4115 H   0  0  0  0  0  0  0  0  0  0  0  0
   59.7325   35.9439   45.6174 H   0  0  0  0  0  0  0  0  0  0  0  0
   57.9059   35.2784   44.0509 H   0  0  0  0  0  0  0  0  0  0  0  0
   56.8173   33.0440   44.2780 H   0  0  0  0  0  0  0  0  0  0  0  0
  1  2  1  0
  2  3  2  0
  3  4  1  0
  4  5  1  0
  5  6  1  0
  6  7  1  0
  7  8  2  0
  8  9  1  0
  9 10  2  0
 10 11  1  0
 10 12  1  0
 12 13  2  0
  3 14  1  0
 14 15  1  0
 15 16  2  0
 15 17  1  0
 17 18  1  0
 18 19  2  0
 19 20  1  0
 20 21  2  0
 21 22  1  0
 22 23  2  0
 14 24  2  0
 24 25  1  0
 25 26  1  0
 26 27  2  0
 27 28  1  0
 28 29  2  0
 29 30  1  0
 30 31  2  0
 31 32  1  0
 25  2  1  0
 31 26  1  0
 13  7  1  0
 23 18  1  0
  1 33  1  0
  1 34  1  0
  1 35  1  0
  4 36  1  0
  4 37  1  0
  5 38  1  0
  6 39  1  0
  6 40  1  0
  8 41  1  0
  9 42  1  0
 12 43  1  0
 13 44  1  0
 19 45  1  0
 20 46  1  0
 21 47  1  0
 22 48  1  0
 23 49  1  0
 24 50  1  0
 27 51  1  0
 28 52  1  0
 29 53  1  0
 30 54  1  0
M  CHG  2  17  -1  24   1
M  END
>  <UniqueID>  (56) 
52

>  <SMILES>  (56) 
Cc1c(CNCc2ccc(F)cc2)c(C(=O)[N-]c2ccccc2)[nH+]n1-c1ccccc1F

>  <Energy>  (56) 
96.97138227908579

>  <Genealogy>  (56) 
Cc1c(CNCc2ccc(F)cc2)c(C(=O)[N-]c2ccccc2)[nH+]n1-c1ccccc1F (protonated)
Cc1c(CNCc2ccc(F)cc2)c(C(=O)[N-]c2ccccc2)[nH+]n1-c1ccccc1F (3D coordinates assigned)
Cc1c(CNCc2ccc(F)cc2)c(C(=O)[N-]c2ccccc2)[nH+]n1-c1ccccc1F (optimized conformer: 96.97138227908579 kcal/mol)

>  <smiles>  (56) 
Cc1c(CNCc2ccc(F)cc2)c(C(=O)Nc2ccccc2)nn1-c1ccccc1F

>  <score_type>  (56) 
oracle

>  <origin>  (56) 
adg

>  <m_score__min__energy>  (56) 
-8.9800000000000004

>  <m_primary>  (56) 
energy

$$$$
56:0
     RDKit          3D

 28 30  0  0  0  0  0  0  0  0999 V2000
   54.6370   26.1920   45.7840 N   0  0  0  0  0  0  0  0  0  0  0  0
   55.9060   25.8180   46.3140 C   0  0  0  0  0  0  0  0  0  0  0  0
   56.0590   24.6740   46.8190 O   0  0  0  0  0  0  0  0  0  0  0  0
   57.0300   26.7630   46.2700 C   0  0  0  0  0  0  0  0  0  0  0  0
   56.9760   28.0660   45.7710 C   0  0  0  0  0  0  0  0  0  0  0  0
   58.2080   28.7290   45.8640 C   0  0  0  0  0  0  0  0  0  0  0  0
   58.4970   30.0400   45.4620 C   0  0  0  0  0  0  0  0  0  0  0  0
   57.2460   31.1170   44.7510 S   0  0  0  0  0  0  0  0  0  0  0  0
   58.0200   32.6030   45.3950 C   0  0  0  0  0  0  0  0  0  0  0  0
   58.0310   32.8500   46.7740 C   0  0  0  0  0  0  0  0  0  0  0  0
   58.6400   34.0050   47.2720 C   0  0  0  0  0  0  0  0  0  0  0  0
   59.2340   34.9180   46.3950 C   0  0  0  0  0  0  0  0  0  0  0  0
   59.2180   34.6770   45.0180 C   0  0  0  0  0  0  0  0  0  0  0  0
   58.6100   33.5210   44.5170 C   0  0  0  0  0  0  0  0  0  0  0  0
   59.8140   30.5060   45.6290 C   0  0  0  0  0  0  0  0  0  0  0  0
   60.7710   29.7030   46.1820 N   0  0  0  0  0  0  0  0  0  0  0  0
   60.4980   28.4290   46.5860 C   0  0  0  0  0  0  0  0  0  0  0  0
   59.2050   27.9460   46.4230 C   0  0  0  0  0  0  0  0  0  0  0  0
   58.5970   26.4330   46.8190 S   0  0  0  0  0  0  0  0  0  0  0  0
   53.9460   26.7140   46.3670 H   0  0  0  0  0  0  0  0  0  0  0  0
   56.0672   28.5220   45.3513 H   0  0  0  0  0  0  0  0  0  0  0  0
   57.5603   32.1349   47.4647 H   0  0  0  0  0  0  0  0  0  0  0  0
   58.6521   34.1962   48.3552 H   0  0  0  0  0  0  0  0  0  0  0  0
   59.7140   35.8261   46.7887 H   0  0  0  0  0  0  0  0  0  0  0  0
   59.6836   35.3965   44.3284 H   0  0  0  0  0  0  0  0  0  0  0  0
   58.5953   33.3330   43.4333 H   0  0  0  0  0  0  0  0  0  0  0  0
   60.0755   31.5262   45.3114 H   0  0  0  0  0  0  0  0  0  0  0  0
   61.2826   27.7989   47.0302 H   0  0  0  0  0  0  0  0  0  0  0  0
  1  2  1  0
  2  3  2  0
  2  4  1  0
  4  5  2  0
  5  6  1  0
  6  7  2  0
  7  8  1  0
  8  9  1  0
  9 10  2  0
 10 11  1  0
 11 12  2  0
 12 13  1  0
 13 14  2  0
  7 15  1  0
 15 16  2  0
 16 17  1  0
 17 18  2  0
 18 19  1  0
 19  4  1  0
 18  6  1  0
 14  9  1  0
  1 20  1  0
  5 21  1  0
 10 22  1  0
 11 23  1  0
 12 24  1  0
 13 25  1  0
 14 26  1  0
 15 27  1  0
 17 28  1  0
M  CHG  1   1  -1
M  END
>  <UniqueID>  (57) 
53

>  <SMILES>  (57) 
[NH-]C(=O)c1cc2c(Sc3ccccc3)cncc2s1

>  <Energy>  (57) 
57.23331196081084

>  <Genealogy>  (57) 
[NH-]C(=O)c1cc2c(Sc3ccccc3)cncc2s1 (protonated)
[NH-]C(=O)c1cc2c(Sc3ccccc3)cncc2s1 (3D coordinates assigned)
[NH-]C(=O)c1cc2c(Sc3ccccc3)cncc2s1 (optimized conformer: 57.23331196081084 kcal/mol)

>  <smiles>  (57) 
NC(=O)c1cc2c(Sc3ccccc3)cncc2s1

>  <score_type>  (57) 
oracle

>  <origin>  (57) 
adg

>  <m_score__min__energy>  (57) 
-10.67

>  <m_primary>  (57) 
energy

$$$$
57:0
     RDKit          3D

 47 49  0  0  0  0  0  0  0  0999 V2000
   59.8470   29.1530   49.3740 C   0  0  0  0  0  0  0  0  0  0  0  0
   59.8290   30.1260   50.4730 N   0  0  0  0  0  0  0  0  0  0  0  0
   59.1380   29.7650   51.7200 C   0  0  0  0  0  0  0  0  0  0  0  0
   57.8800   30.5660   51.8810 C   0  0  0  0  0  0  0  0  0  0  0  0
   57.7970   31.8570   52.3410 C   0  0  0  0  0  0  0  0  0  0  0  0
   56.5030   32.2150   52.3990 N   0  0  0  0  0  0  0  0  0  0  0  0
   55.8380   31.1190   51.9770 C   0  0  0  0  0  0  0  0  0  0  0  0
   56.6440   30.0860   51.6570 N   0  0  0  0  0  0  0  0  0  0  0  0
   60.4580   31.4230   50.3120 C   0  0  0  0  0  0  0  0  0  0  0  0
   61.6440   31.7430   51.0020 C   0  0  0  0  0  0  0  0  0  0  0  0
   62.2470   32.9910   50.8380 C   0  0  0  0  0  0  0  0  0  0  0  0
   61.6810   33.9410   49.9900 C   0  0  0  0  0  0  0  0  0  0  0  0
   60.4940   33.6550   49.2960 C   0  0  0  0  0  0  0  0  0  0  0  0
   59.8790   34.6120   48.4140 N   0  0  0  0  0  0  0  0  0  0  0  0
   60.0780   34.6170   46.6900 S   0  0  0  0  0  0  0  0  0  0  0  0
   61.5250   34.3800   46.3580 O   0  0  0  0  0  0  0  0  0  0  0  0
   59.6650   35.9580   46.1520 O   0  0  0  0  0  0  0  0  0  0  0  0
   59.1150   33.3320   45.9660 C   0  0  0  0  0  0  0  0  0  0  0  0
   59.3030   32.0050   46.3700 C   0  0  0  0  0  0  0  0  0  0  0  0
   58.5350   30.9820   45.8070 C   0  0  0  0  0  0  0  0  0  0  0  0
   57.5740   31.2700   44.8190 C   0  0  0  0  0  0  0  0  0  0  0  0
   56.7610   30.1790   44.2250 C   0  0  0  0  0  0  0  0  0  0  0  0
   57.3720   29.1900   43.3830 N   0  0  0  0  0  0  0  0  0  0  0  0
   55.4900   30.1190   44.4880 N   0  0  0  0  0  0  0  0  0  0  0  0
   54.6250   29.3380   43.7560 O   0  0  0  0  0  0  0  0  0  0  0  0
   57.3900   32.6060   44.4220 C   0  0  0  0  0  0  0  0  0  0  0  0
   58.1580   33.6280   44.9900 C   0  0  0  0  0  0  0  0  0  0  0  0
   59.8940   32.3960   49.4600 C   0  0  0  0  0  0  0  0  0  0  0  0
   59.8659   28.1337   49.7870 H   0  0  0  0  0  0  0  0  0  0  0  0
   58.9463   29.2815   48.7557 H   0  0  0  0  0  0  0  0  0  0  0  0
   60.7423   29.3147   48.7557 H   0  0  0  0  0  0  0  0  0  0  0  0
   58.8839   28.6950   51.6951 H   0  0  0  0  0  0  0  0  0  0  0  0
   59.8046   29.9798   52.5682 H   0  0  0  0  0  0  0  0  0  0  0  0
   58.6502   32.4941   52.6169 H   0  0  0  0  0  0  0  0  0  0  0  0
   54.7416   31.0726   51.9012 H   0  0  0  0  0  0  0  0  0  0  0  0
   62.0989   31.0024   51.6762 H   0  0  0  0  0  0  0  0  0  0  0  0
   63.1742   33.2260   51.3812 H   0  0  0  0  0  0  0  0  0  0  0  0
   62.1664   34.9200   49.8635 H   0  0  0  0  0  0  0  0  0  0  0  0
   59.3240   35.3970   48.8260 H   0  0  0  0  0  0  0  0  0  0  0  0
   60.0581   31.7665   47.1335 H   0  0  0  0  0  0  0  0  0  0  0  0
   58.6825   29.9435   46.1384 H   0  0  0  0  0  0  0  0  0  0  0  0
   56.8010   28.4700   42.8880 H   0  0  0  0  0  0  0  0  0  0  0  0
   58.4100   29.1160   43.3030 H   0  0  0  0  0  0  0  0  0  0  0  0
   54.8110   29.1580   42.7780 H   0  0  0  0  0  0  0  0  0  0  0  0
   56.6362   32.8496   43.6588 H   0  0  0  0  0  0  0  0  0  0  0  0
   58.0086   34.6690   44.6676 H   0  0  0  0  0  0  0  0  0  0  0  0
   58.9675   32.1642   48.9143 H   0  0  0  0  0  0  0  0  0  0  0  0
  1  2  1  0
  2  3  1  0
  3  4  1  0
  4  5  2  0
  5  6  1  0
  6  7  1  0
  7  8  2  0
  2  9  1  0
  9 10  2  0
 10 11  1  0
 11 12  2  0
 12 13  1  0
 13 14  1  0
 14 15  1  0
 15 16  2  0
 15 17  2  0
 15 18  1  0
 18 19  2  0
 19 20  1  0
 20 21  2  0
 21 22  1  0
 22 23  1  0
 22 24  2  3
 24 25  1  0
 21 26  1  0
 26 27  2  0
 13 28  2  0
  8  4  1  0
 28  9  1  0
 27 18  1  0
  1 29  1  0
  1 30  1  0
  1 31  1  0
  3 32  1  0
  3 33  1  0
  5 34  1  0
  7 35  1  0
 10 36  1  0
 11 37  1  0
 12 38  1  0
 14 39  1  0
 19 40  1  0
 20 41  1  0
 23 42  1  0
 23 43  1  0
 25 44  1  0
 26 45  1  0
 27 46  1  0
 28 47  1  0
M  CHG  1   6  -1
M  END
>  <UniqueID>  (58) 
54

>  <SMILES>  (58) 
CN(Cc1c[n-]cn1)c1cccc(NS(=O)(=O)c2ccc(C(N)=NO)cc2)c1

>  <Energy>  (58) 
81.85681887182572

>  <Genealogy>  (58) 
CN(Cc1c[n-]cn1)c1cccc(NS(=O)(=O)c2ccc(C(N)=NO)cc2)c1 (protonated)
CN(Cc1c[n-]cn1)c1cccc(NS(=O)(=O)c2ccc(C(N)=NO)cc2)c1 (3D coordinates assigned)
CN(Cc1c[n-]cn1)c1cccc(NS(=O)(=O)c2ccc(C(N)=NO)cc2)c1 (optimized conformer: 81.85681887182572 kcal/mol)

>  <smiles>  (58) 
CN(Cc1c[nH]cn1)c1cccc(NS(=O)(=O)c2ccc(C(N)=NO)cc2)c1

>  <score_type>  (58) 
oracle

>  <origin>  (58) 
adg

>  <m_score__min__energy>  (58) 
-10.49

>  <m_primary>  (58) 
energy

$$$$
58:0
     RDKit          3D

 42 44  0  0  0  0  0  0  0  0999 V2000
   56.0520   23.5380   45.1290 C   0  0  0  0  0  0  0  0  0  0  0  0
   56.2090   24.7700   46.4040 S   0  0  0  0  0  0  0  0  0  0  0  0
   55.2150   25.8640   46.1420 O   0  0  0  0  0  0  0  0  0  0  0  0
   55.9240   24.1700   47.7520 O   0  0  0  0  0  0  0  0  0  0  0  0
   57.8050   25.4500   46.3820 N   0  0  0  0  0  0  0  0  0  0  0  0
   58.1590   26.7410   45.8690 C   0  0  0  0  0  0  0  0  0  0  0  0
   59.4930   27.1160   45.6350 C   0  0  0  0  0  0  0  0  0  0  0  0
   59.7890   28.3880   45.1400 C   0  0  0  0  0  0  0  0  0  0  0  0
   58.7610   29.2920   44.8650 C   0  0  0  0  0  0  0  0  0  0  0  0
   57.4210   28.9290   45.0770 C   0  0  0  0  0  0  0  0  0  0  0  0
   56.3340   29.8910   44.7770 C   0  0  0  0  0  0  0  0  0  0  0  0
   55.1440   29.4820   44.7260 O   0  0  0  0  0  0  0  0  0  0  0  0
   56.5970   31.2720   44.4930 N   0  0  0  0  0  0  0  0  0  0  0  0
   57.5540   32.1080   45.1600 C   0  0  0  0  0  0  0  0  0  0  0  0
   58.2480   33.1250   44.4820 C   0  0  0  0  0  0  0  0  0  0  0  0
   59.1780   33.9170   45.1620 C   0  0  0  0  0  0  0  0  0  0  0  0
   59.4500   33.6880   46.5140 C   0  0  0  0  0  0  0  0  0  0  0  0
   60.3770   34.5170   47.1640 O   0  0  0  0  0  0  0  0  0  0  0  0
   61.6090   34.1050   47.6920 C   0  0  0  0  0  0  0  0  0  0  0  0
   62.5490   33.5170   46.8400 C   0  0  0  0  0  0  0  0  0  0  0  0
   63.7760   33.0830   47.3440 C   0  0  0  0  0  0  0  0  0  0  0  0
   64.0460   33.2290   48.7060 C   0  0  0  0  0  0  0  0  0  0  0  0
   63.1160   33.7820   49.5280 N   0  0  0  0  0  0  0  0  0  0  0  0
   61.9140   34.2150   49.0590 C   0  0  0  0  0  0  0  0  0  0  0  0
   58.7610   32.6680   47.1920 C   0  0  0  0  0  0  0  0  0  0  0  0
   57.8290   31.8760   46.5130 C   0  0  0  0  0  0  0  0  0  0  0  0
   57.1320   27.6550   45.5980 C   0  0  0  0  0  0  0  0  0  0  0  0
   55.9257   22.5473   45.5900 H   0  0  0  0  0  0  0  0  0  0  0  0
   55.1757   23.7662   44.5045 H   0  0  0  0  0  0  0  0  0  0  0  0
   56.9576   23.5391   44.5045 H   0  0  0  0  0  0  0  0  0  0  0  0
   60.3067   26.4054   45.8424 H   0  0  0  0  0  0  0  0  0  0  0  0
   60.8356   28.6786   44.9662 H   0  0  0  0  0  0  0  0  0  0  0  0
   59.0020   30.2939   44.4802 H   0  0  0  0  0  0  0  0  0  0  0  0
   58.0587   33.2984   43.4124 H   0  0  0  0  0  0  0  0  0  0  0  0
   59.6994   34.7260   44.6294 H   0  0  0  0  0  0  0  0  0  0  0  0
   62.3210   33.3963   45.7707 H   0  0  0  0  0  0  0  0  0  0  0  0
   64.5227   32.6305   46.6749 H   0  0  0  0  0  0  0  0  0  0  0  0
   65.0119   32.8962   49.1138 H   0  0  0  0  0  0  0  0  0  0  0  0
   61.1797   34.6520   49.7517 H   0  0  0  0  0  0  0  0  0  0  0  0
   58.9552   32.4918   48.2603 H   0  0  0  0  0  0  0  0  0  0  0  0
   57.3090   31.0660   47.0454 H   0  0  0  0  0  0  0  0  0  0  0  0
   56.0873   27.3727   45.7951 H   0  0  0  0  0  0  0  0  0  0  0  0
  1  2  1  0
  2  3  2  0
  2  4  2  0
  2  5  1  0
  5  6  1  0
  6  7  2  0
  7  8  1  0
  8  9  2  0
  9 10  1  0
 10 11  1  0
 11 12  2  0
 11 13  1  0
 13 14  1  0
 14 15  2  0
 15 16  1  0
 16 17  2  0
 17 18  1  0
 18 19  1  0
 19 20  2  0
 20 21  1  0
 21 22  2  0
 22 23  1  0
 23 24  2  0
 17 25  1  0
 25 26  2  0
 10 27  2  0
 27  6  1  0
 26 14  1  0
 24 19  1  0
  1 28  1  0
  1 29  1  0
  1 30  1  0
  7 31  1  0
  8 32  1  0
  9 33  1  0
 15 34  1  0
 16 35  1  0
 20 36  1  0
 21 37  1  0
 22 38  1  0
 24 39  1  0
 25 40  1  0
 26 41  1  0
 27 42  1  0
M  CHG  2   5  -1  13  -1
M  END
>  <UniqueID>  (59) 
55

>  <SMILES>  (59) 
CS(=O)(=O)[N-]c1cccc(C(=O)[N-]c2ccc(Oc3cccnc3)cc2)c1

>  <Energy>  (59) 
57.799471766185924

>  <Genealogy>  (59) 
CS(=O)(=O)[N-]c1cccc(C(=O)[N-]c2ccc(Oc3cccnc3)cc2)c1 (protonated)
CS(=O)(=O)[N-]c1cccc(C(=O)[N-]c2ccc(Oc3cccnc3)cc2)c1 (3D coordinates assigned)
CS(=O)(=O)[N-]c1cccc(C(=O)[N-]c2ccc(Oc3cccnc3)cc2)c1 (optimized conformer: 57.799471766185924 kcal/mol)

>  <smiles>  (59) 
CS(=O)(=O)Nc1cccc(C(=O)Nc2ccc(Oc3cccnc3)cc2)c1

>  <score_type>  (59) 
oracle

>  <origin>  (59) 
adg

>  <m_score__min__energy>  (59) 
-12.18

>  <m_primary>  (59) 
energy

$$$$
59:0
     RDKit          3D

 39 41  0  0  0  0  0  0  0  0999 V2000
   54.0990   25.7340   45.6320 O   0  0  0  0  0  0  0  0  0  0  0  0
   54.2220   24.5060   45.3810 C   0  0  0  0  0  0  0  0  0  0  0  0
   55.0750   24.0520   44.3250 N   0  0  0  0  0  0  0  0  0  0  0  0
   56.3950   23.5230   44.5140 C   0  0  0  0  0  0  0  0  0  0  0  0
   56.7970   22.4090   43.7470 C   0  0  0  0  0  0  0  0  0  0  0  0
   55.9510   21.8430   42.7920 O   0  0  0  0  0  0  0  0  0  0  0  0
   58.0560   21.8390   43.9470 C   0  0  0  0  0  0  0  0  0  0  0  0
   58.9270   22.3660   44.9000 C   0  0  0  0  0  0  0  0  0  0  0  0
   58.5560   23.4870   45.6410 C   0  0  0  0  0  0  0  0  0  0  0  0
   57.3070   24.0950   45.4410 C   0  0  0  0  0  0  0  0  0  0  0  0
   57.0060   25.3430   46.1810 C   0  0  0  0  0  0  0  0  0  0  0  0
   56.3160   25.2670   47.2350 O   0  0  0  0  0  0  0  0  0  0  0  0
   57.5140   26.6670   45.7400 C   0  0  0  0  0  0  0  0  0  0  0  0
   57.7650   27.6760   46.6850 C   0  0  0  0  0  0  0  0  0  0  0  0
   58.2420   28.9250   46.2800 C   0  0  0  0  0  0  0  0  0  0  0  0
   58.4980   29.1830   44.9300 C   0  0  0  0  0  0  0  0  0  0  0  0
   58.9610   30.4550   44.5620 O   0  0  0  0  0  0  0  0  0  0  0  0
   58.5940   31.6630   45.1740 C   0  0  0  0  0  0  0  0  0  0  0  0
   59.2800   32.1690   46.2940 C   0  0  0  0  0  0  0  0  0  0  0  0
   58.8710   33.3690   46.8860 C   0  0  0  0  0  0  0  0  0  0  0  0
   57.7730   34.0640   46.3740 C   0  0  0  0  0  0  0  0  0  0  0  0
   57.0760   33.5560   45.2740 C   0  0  0  0  0  0  0  0  0  0  0  0
   57.4820   32.3560   44.6810 C   0  0  0  0  0  0  0  0  0  0  0  0
   58.2420   28.1810   43.9780 C   0  0  0  0  0  0  0  0  0  0  0  0
   57.7640   26.9310   44.3810 C   0  0  0  0  0  0  0  0  0  0  0  0
   53.6658   23.7716   45.9821 H   0  0  0  0  0  0  0  0  0  0  0  0
   55.0300   22.2140   42.5920 H   0  0  0  0  0  0  0  0  0  0  0  0
   58.3628   20.9684   43.3487 H   0  0  0  0  0  0  0  0  0  0  0  0
   59.9077   21.8967   45.0672 H   0  0  0  0  0  0  0  0  0  0  0  0
   59.2488   23.8989   46.3896 H   0  0  0  0  0  0  0  0  0  0  0  0
   57.5844   27.4809   47.7524 H   0  0  0  0  0  0  0  0  0  0  0  0
   58.4175   29.7114   47.0289 H   0  0  0  0  0  0  0  0  0  0  0  0
   60.1399   31.6197   46.7049 H   0  0  0  0  0  0  0  0  0  0  0  0
   59.4150   33.7656   47.7559 H   0  0  0  0  0  0  0  0  0  0  0  0
   57.4569   35.0108   46.8362 H   0  0  0  0  0  0  0  0  0  0  0  0
   56.2076   34.1003   44.8744 H   0  0  0  0  0  0  0  0  0  0  0  0
   56.9242   31.9544   43.8222 H   0  0  0  0  0  0  0  0  0  0  0  0
   58.4187   28.3816   42.9110 H   0  0  0  0  0  0  0  0  0  0  0  0
   57.5820   26.1480   43.6302 H   0  0  0  0  0  0  0  0  0  0  0  0
  1  2  2  0
  2  3  1  0
  3  4  1  0
  4  5  2  0
  5  6  1  0
  5  7  1  0
  7  8  2  0
  8  9  1  0
  9 10  2  0
 10 11  1  0
 11 12  2  0
 11 13  1  0
 13 14  2  0
 14 15  1  0
 15 16  2  0
 16 17  1  0
 17 18  1  0
 18 19  2  0
 19 20  1  0
 20 21  2  0
 21 22  1  0
 22 23  2  0
 16 24  1  0
 24 25  2  0
 10  4  1  0
 25 13  1  0
 23 18  1  0
  2 26  1  0
  6 27  1  0
  7 28  1  0
  8 29  1  0
  9 30  1  0
 14 31  1  0
 15 32  1  0
 19 33  1  0
 20 34  1  0
 21 35  1  0
 22 36  1  0
 23 37  1  0
 24 38  1  0
 25 39  1  0
M  CHG  1   3  -1
M  END
>  <UniqueID>  (60) 
56

>  <SMILES>  (60) 
O=C[N-]c1c(O)cccc1C(=O)c1ccc(Oc2ccccc2)cc1

>  <Energy>  (60) 
62.41337573414874

>  <Genealogy>  (60) 
O=C[N-]c1c(O)cccc1C(=O)c1ccc(Oc2ccccc2)cc1 (protonated)
O=C[N-]c1c(O)cccc1C(=O)c1ccc(Oc2ccccc2)cc1 (3D coordinates assigned)
O=C[N-]c1c(O)cccc1C(=O)c1ccc(Oc2ccccc2)cc1 (optimized conformer: 62.41337573414874 kcal/mol)

>  <smiles>  (60) 
O=CNc1c(O)cccc1C(=O)c1ccc(Oc2ccccc2)cc1

>  <score_type>  (60) 
oracle

>  <origin>  (60) 
adg

>  <m_score__min__energy>  (60) 
-10.5

>  <m_primary>  (60) 
energy

$$$$
60:0
     RDKit          3D

 58 60  0  0  1  0  0  0  0  0999 V2000
   66.2930   28.9630   51.6280 C   0  0  0  0  0  0  0  0  0  0  0  0
   65.0850   29.8730   51.6260 C   0  0  0  0  0  0  0  0  0  0  0  0
   65.3020   30.8530   50.6420 O   0  0  0  0  0  0  0  0  0  0  0  0
   64.3190   31.7040   50.1710 C   0  0  0  0  0  0  0  0  0  0  0  0
   63.0600   31.1870   49.9460 C   0  0  0  0  0  0  0  0  0  0  0  0
   62.0680   31.9930   49.4830 C   0  0  0  0  0  0  0  0  0  0  0  0
   60.7950   31.4840   49.2520 C   0  0  0  0  0  0  0  0  0  0  0  0
   60.6190   30.2440   49.4960 N   0  0  0  0  0  0  0  0  0  0  0  0
   60.7870   29.2700   48.4520 C   0  0  0  0  0  0  0  0  0  0  0  0
   59.7760   29.4360   47.3700 C   0  0  0  0  0  0  0  0  0  0  0  0
   59.8590   30.3790   46.3800 C   0  0  0  0  0  0  0  0  0  0  0  0
   58.8930   30.5020   45.3920 C   0  0  0  0  0  0  0  0  0  0  0  0
   57.7950   29.6710   45.3640 C   0  0  0  0  0  0  0  0  0  0  0  0
   56.5530   29.7860   44.1400 S   0  0  0  0  0  0  0  0  0  0  0  0
   57.0150   28.7380   42.8380 N   0  0  0  0  0  0  0  0  0  0  0  0
   55.2140   29.3710   44.6740 O   0  0  0  0  0  0  0  0  0  0  0  0
   56.4660   31.1940   43.6150 O   0  0  0  0  0  0  0  0  0  0  0  0
   57.6920   28.7170   46.3480 C   0  0  0  0  0  0  0  0  0  0  0  0
   58.6520   28.6010   47.3240 C   0  0  0  0  0  0  0  0  0  0  0  0
   59.8800   32.3330   48.8000 N   0  0  0  0  0  0  0  0  0  0  0  0
   60.1620   33.6250   48.5730 C   0  0  0  0  0  0  0  0  0  0  0  0
   59.2140   34.4130   48.1270 N   0  0  0  0  0  0  0  0  0  0  0  0
   58.9200   34.5160   46.7310 C   0  0  0  0  0  0  0  0  0  0  0  0
   60.1190   33.9220   45.9780 C   0  0  0  0  0  0  0  0  0  0  0  0
   57.7490   33.6280   46.4130 C   0  0  0  0  0  0  0  0  0  0  0  0
   61.3810   34.1440   48.7870 N   0  0  0  0  0  0  0  0  0  0  0  0
   62.3670   33.3300   49.2510 C   0  0  0  0  0  0  0  0  0  0  0  0
   63.6210   33.8420   49.4750 C   0  0  0  0  0  0  0  0  0  0  0  0
   64.6470   33.0250   49.9500 C   0  0  0  0  0  0  0  0  0  0  0  0
   65.9240   33.5220   50.1840 O   0  0  0  0  0  0  0  0  0  0  0  0
   66.3740   33.5750   51.5150 C   0  0  0  0  0  0  0  0  0  0  0  0
   66.5848   28.7432   52.6656 H   0  0  0  0  0  0  0  0  0  0  0  0
   66.0460   28.0246   51.1099 H   0  0  0  0  0  0  0  0  0  0  0  0
   67.1268   29.4593   51.1099 H   0  0  0  0  0  0  0  0  0  0  0  0
   64.1791   29.2957   51.3891 H   0  0  0  0  0  0  0  0  0  0  0  0
   64.9450   30.3368   52.6136 H   0  0  0  0  0  0  0  0  0  0  0  0
   62.8589   30.1233   50.1411 H   0  0  0  0  0  0  0  0  0  0  0  0
   61.7923   29.3817   48.0197 H   0  0  0  0  0  0  0  0  0  0  0  0
   60.6540   28.2710   48.8928 H   0  0  0  0  0  0  0  0  0  0  0  0
   60.7211   31.0621   46.3680 H   0  0  0  0  0  0  0  0  0  0  0  0
   59.0058   31.2758   44.6184 H   0  0  0  0  0  0  0  0  0  0  0  0
   56.8900   27.7530   43.1250 H   0  0  0  0  0  0  0  0  0  0  0  0
   58.0330   28.8770   42.6720 H   0  0  0  0  0  0  0  0  0  0  0  0
   56.8280   28.0362   46.3542 H   0  0  0  0  0  0  0  0  0  0  0  0
   58.5340   27.8260   48.0957 H   0  0  0  0  0  0  0  0  0  0  0  0
   58.9200   32.0140   48.6110 H   0  0  0  0  0  0  0  0  0  0  0  0
   58.7131   35.5613   46.4580 H   0  0  0  0  0  0  0  0  0  0  0  0
   60.8611   33.5544   46.7020 H   0  0  0  0  0  0  0  0  0  0  0  0
   59.7788   33.0882   45.3463 H   0  0  0  0  0  0  0  0  0  0  0  0
   60.5762   34.6978   45.3463 H   0  0  0  0  0  0  0  0  0  0  0  0
   57.2887   33.2789   47.3491 H   0  0  0  0  0  0  0  0  0  0  0  0
   57.0081   34.1934   45.8286 H   0  0  0  0  0  0  0  0  0  0  0  0
   58.0935   32.7621   45.8286 H   0  0  0  0  0  0  0  0  0  0  0  0
   61.6050   35.1390   48.6140 H   0  0  0  0  0  0  0  0  0  0  0  0
   63.8184   34.9061   49.2781 H   0  0  0  0  0  0  0  0  0  0  0  0
   65.5163   33.4740   52.1963 H   0  0  0  0  0  0  0  0  0  0  0  0
   67.0839   32.7543   51.6950 H   0  0  0  0  0  0  0  0  0  0  0  0
   66.8738   34.5382   51.6950 H   0  0  0  0  0  0  0  0  0  0  0  0
  1  2  1  0
  2  3  1  0
  3  4  1  0
  4  5  2  0
  5  6  1  0
  6  7  1  0
  7  8  2  0
  8  9  1  0
  9 10  1  0
 10 11  2  0
 11 12  1  0
 12 13  2  0
 13 14  1  0
 14 15  1  0
 14 16  2  0
 14 17  2  0
 13 18  1  0
 18 19  2  0
  7 20  1  0
 20 21  1  0
 21 22  2  0
 22 23  1  0
 23 24  1  0
 23 25  1  0
 21 26  1  0
 26 27  1  0
 27 28  1  0
 28 29  2  0
 29 30  1  0
 30 31  1  0
 29  4  1  0
 27  6  2  0
 19 10  1  0
  1 32  1  0
  1 33  1  0
  1 34  1  0
  2 35  1  0
  2 36  1  0
  5 37  1  0
  9 38  1  0
  9 39  1  0
 11 40  1  0
 12 41  1  0
 15 42  1  0
 15 43  1  0
 18 44  1  0
 19 45  1  0
 20 46  1  0
 23 47  1  0
 24 48  1  0
 24 49  1  0
 24 50  1  0
 25 51  1  0
 25 52  1  0
 25 53  1  0
 26 54  1  0
 28 55  1  0
 31 56  1  0
 31 57  1  0
 31 58  1  0
M  END
>  <smiles>  (61) 
CCOc1cc2c(=NCc3ccc(S(N)(=O)=O)cc3)[nH]c(=NC(C)C)[nH]c2cc1OC

>  <score_type>  (61) 
oracle

>  <origin>  (61) 
adg

>  <m_score__min__energy>  (61) 
-8.5700000000000003

>  <m_primary>  (61) 
energy

$$$$
61:0
     RDKit          3D

 34 35  0  0  0  0  0  0  0  0999 V2000
   55.7490   25.4790   45.9290 C   0  0  0  0  0  0  0  0  0  0  0  0
   57.0530   26.2270   45.9690 C   0  0  0  0  0  0  0  0  0  0  0  0
   58.2390   25.5520   46.3070 C   0  0  0  0  0  0  0  0  0  0  0  0
   59.4600   26.2280   46.3150 C   0  0  0  0  0  0  0  0  0  0  0  0
   59.5150   27.5800   45.9780 C   0  0  0  0  0  0  0  0  0  0  0  0
   58.3450   28.2640   45.6400 C   0  0  0  0  0  0  0  0  0  0  0  0
   57.1040   27.5990   45.6430 C   0  0  0  0  0  0  0  0  0  0  0  0
   55.9010   28.2790   45.2540 N   0  0  0  0  0  0  0  0  0  0  0  0
   55.8350   29.4510   44.4330 C   0  0  0  0  0  0  0  0  0  0  0  0
   55.1760   30.4600   44.8020 O   0  0  0  0  0  0  0  0  0  0  0  0
   56.5370   29.4650   43.1120 C   0  0  0  0  0  0  0  0  0  0  0  0
   57.7670   30.1780   43.2150 O   0  0  0  0  0  0  0  0  0  0  0  0
   57.8380   31.5690   43.3670 C   0  0  0  0  0  0  0  0  0  0  0  0
   57.5250   32.3260   42.4070 O   0  0  0  0  0  0  0  0  0  0  0  0
   58.2820   32.1480   44.6540 C   0  0  0  0  0  0  0  0  0  0  0  0
   58.2620   31.3850   45.8330 C   0  0  0  0  0  0  0  0  0  0  0  0
   58.6680   31.9280   47.0130 N   0  0  0  0  0  0  0  0  0  0  0  0
   59.1080   33.2140   47.0960 C   0  0  0  0  0  0  0  0  0  0  0  0
   59.6150   33.8470   48.6580 Cl  0  0  0  0  0  0  0  0  0  0  0  0
   59.1480   34.0150   45.9440 C   0  0  0  0  0  0  0  0  0  0  0  0
   59.7080   35.6820   46.0020 Cl  0  0  0  0  0  0  0  0  0  0  0  0
   58.7320   33.4750   44.7250 C   0  0  0  0  0  0  0  0  0  0  0  0
   55.4071   25.2829   46.9560 H   0  0  0  0  0  0  0  0  0  0  0  0
   54.9961   26.0826   45.4009 H   0  0  0  0  0  0  0  0  0  0  0  0
   55.8899   24.5244   45.4009 H   0  0  0  0  0  0  0  0  0  0  0  0
   58.2044   24.4837   46.5669 H   0  0  0  0  0  0  0  0  0  0  0  0
   60.3815   25.6928   46.5879 H   0  0  0  0  0  0  0  0  0  0  0  0
   60.4800   28.1080   45.9783 H   0  0  0  0  0  0  0  0  0  0  0  0
   58.3935   29.3292   45.3697 H   0  0  0  0  0  0  0  0  0  0  0  0
   56.7419   28.4307   42.7986 H   0  0  0  0  0  0  0  0  0  0  0  0
   55.8951   29.9625   42.3700 H   0  0  0  0  0  0  0  0  0  0  0  0
   57.9158   30.3413   45.8024 H   0  0  0  0  0  0  0  0  0  0  0  0
   58.6360   31.3370   47.8750 H   0  0  0  0  0  0  0  0  0  0  0  0
   58.7573   34.0934   43.8157 H   0  0  0  0  0  0  0  0  0  0  0  0
  1  2  1  0
  2  3  2  0
  3  4  1  0
  4  5  2  0
  5  6  1  0
  6  7  2  0
  7  8  1  0
  8  9  1  0
  9 10  2  0
  9 11  1  0
 11 12  1  0
 12 13  1  0
 13 14  2  0
 13 15  1  0
 15 16  2  0
 16 17  1  0
 17 18  2  0
 18 19  1  0
 18 20  1  0
 20 21  1  0
 20 22  2  0
  7  2  1  0
 22 15  1  0
  1 23  1  0
  1 24  1  0
  1 25  1  0
  3 26  1  0
  4 27  1  0
  5 28  1  0
  6 29  1  0
 11 30  1  0
 11 31  1  0
 16 32  1  0
 17 33  1  0
 22 34  1  0
M  CHG  2   8  -1  17   1
M  END
>  <UniqueID>  (62) 
57

>  <SMILES>  (62) 
Cc1ccccc1[N-]C(=O)COC(=O)c1c[nH+]c(Cl)c(Cl)c1

>  <Energy>  (62) 
36.81203281407856

>  <Genealogy>  (62) 
Cc1ccccc1[N-]C(=O)COC(=O)c1c[nH+]c(Cl)c(Cl)c1 (protonated)
Cc1ccccc1[N-]C(=O)COC(=O)c1c[nH+]c(Cl)c(Cl)c1 (3D coordinates assigned)
Cc1ccccc1[N-]C(=O)COC(=O)c1c[nH+]c(Cl)c(Cl)c1 (optimized conformer: 36.81203281407856 kcal/mol)

>  <smiles>  (62) 
Cc1ccccc1NC(=O)COC(=O)c1cnc(Cl)c(Cl)c1

>  <score_type>  (62) 
oracle

>  <origin>  (62) 
adg

>  <m_score__min__energy>  (62) 
-7.5599999999999996

>  <m_primary>  (62) 
energy

$$$$
62:0
     RDKit          3D

 54 56  0  0  0  0  0  0  0  0999 V2000
   57.8250   31.9630   50.5400 C   0  0  0  0  0  0  0  0  0  0  0  0
   59.1850   32.5400   50.2670 C   0  0  0  0  0  0  0  0  0  0  0  0
   59.7500   32.3330   49.0520 N   0  0  0  0  0  0  0  0  0  0  0  0
   60.9670   32.8380   48.7130 C   0  0  0  0  0  0  0  0  0  0  0  0
   61.4670   32.5570   47.3180 C   0  0  0  0  0  0  0  0  0  0  0  0
   61.9300   31.2080   47.2330 O   0  0  0  0  0  0  0  0  0  0  0  0
   61.1100   30.0930   47.0020 C   0  0  0  0  0  0  0  0  0  0  0  0
   60.4960   29.4790   48.0980 C   0  0  0  0  0  0  0  0  0  0  0  0
   59.6510   28.3820   47.9170 C   0  0  0  0  0  0  0  0  0  0  0  0
   59.3980   27.8730   46.6320 C   0  0  0  0  0  0  0  0  0  0  0  0
   58.5150   26.6810   46.5070 C   0  0  0  0  0  0  0  0  0  0  0  0
   57.5440   26.4820   45.6000 C   0  0  0  0  0  0  0  0  0  0  0  0
   56.1970   27.0730   45.6450 C   0  0  0  0  0  0  0  0  0  0  0  0
   55.2450   26.3830   46.0970 O   0  0  0  0  0  0  0  0  0  0  0  0
   55.9500   28.4250   45.2520 N   0  0  0  0  0  0  0  0  0  0  0  0
   56.8230   29.1980   43.9700 S   0  0  0  0  0  0  0  0  0  0  0  0
   55.8920   29.4400   42.8140 O   0  0  0  0  0  0  0  0  0  0  0  0
   57.9210   28.2820   43.5070 O   0  0  0  0  0  0  0  0  0  0  0  0
   57.5300   30.7170   44.5080 C   0  0  0  0  0  0  0  0  0  0  0  0
   57.8330   30.9260   45.8610 C   0  0  0  0  0  0  0  0  0  0  0  0
   58.3490   32.1560   46.2830 C   0  0  0  0  0  0  0  0  0  0  0  0
   58.5690   33.1790   45.3540 C   0  0  0  0  0  0  0  0  0  0  0  0
   59.2280   34.7190   45.8760 Cl  0  0  0  0  0  0  0  0  0  0  0  0
   58.2710   32.9690   44.0040 C   0  0  0  0  0  0  0  0  0  0  0  0
   57.7560   31.7430   43.5790 C   0  0  0  0  0  0  0  0  0  0  0  0
   60.0730   28.4470   45.5380 C   0  0  0  0  0  0  0  0  0  0  0  0
   60.9080   29.5540   45.7180 C   0  0  0  0  0  0  0  0  0  0  0  0
   61.6740   33.6020   49.6720 C   0  0  0  0  0  0  0  0  0  0  0  0
   63.0310   34.1950   49.3890 C   0  0  0  0  0  0  0  0  0  0  0  0
   61.0920   33.8370   50.8840 N   0  0  0  0  0  0  0  0  0  0  0  0
   59.8670   33.3300   51.2110 C   0  0  0  0  0  0  0  0  0  0  0  0
   59.2720   33.6240   52.5620 C   0  0  0  0  0  0  0  0  0  0  0  0
   57.6666   31.8958   51.6265 H   0  0  0  0  0  0  0  0  0  0  0  0
   57.0555   32.6122   50.0967 H   0  0  0  0  0  0  0  0  0  0  0  0
   57.7571   30.9586   50.0967 H   0  0  0  0  0  0  0  0  0  0  0  0
   60.6482   32.7082   46.5991 H   0  0  0  0  0  0  0  0  0  0  0  0
   62.2960   33.2412   47.0844 H   0  0  0  0  0  0  0  0  0  0  0  0
   60.6802   29.8636   49.1120 H   0  0  0  0  0  0  0  0  0  0  0  0
   59.1777   27.9107   48.7910 H   0  0  0  0  0  0  0  0  0  0  0  0
   58.6752   25.8744   47.2376 H   0  0  0  0  0  0  0  0  0  0  0  0
   57.7755   25.8212   44.7517 H   0  0  0  0  0  0  0  0  0  0  0  0
   57.6647   30.1214   46.5919 H   0  0  0  0  0  0  0  0  0  0  0  0
   58.5819   32.3190   47.3456 H   0  0  0  0  0  0  0  0  0  0  0  0
   58.4431   33.7734   43.2737 H   0  0  0  0  0  0  0  0  0  0  0  0
   57.5274   31.5817   42.5152 H   0  0  0  0  0  0  0  0  0  0  0  0
   59.9423   28.0207   44.5324 H   0  0  0  0  0  0  0  0  0  0  0  0
   61.4102   30.0065   44.8502 H   0  0  0  0  0  0  0  0  0  0  0  0
   63.5394   34.4172   50.3388 H   0  0  0  0  0  0  0  0  0  0  0  0
   63.6315   33.4772   48.8108 H   0  0  0  0  0  0  0  0  0  0  0  0
   62.9122   35.1232   48.8108 H   0  0  0  0  0  0  0  0  0  0  0  0
   61.5990   34.4220   51.5850 H   0  0  0  0  0  0  0  0  0  0  0  0
   59.9616   33.2833   53.3484 H   0  0  0  0  0  0  0  0  0  0  0  0
   59.1077   34.7070   52.6625 H   0  0  0  0  0  0  0  0  0  0  0  0
   58.3119   33.0966   52.6625 H   0  0  0  0  0  0  0  0  0  0  0  0
  1  2  1  0
  2  3  2  0
  3  4  1  0
  4  5  1  0
  5  6  1  0
  6  7  1  0
  7  8  2  0
  8  9  1  0
  9 10  2  0
 10 11  1  0
 11 12  2  3
 12 13  1  0
 13 14  2  0
 13 15  1  0
 15 16  1  0
 16 17  2  0
 16 18  2  0
 16 19  1  0
 19 20  2  0
 20 21  1  0
 21 22  2  0
 22 23  1  0
 22 24  1  0
 24 25  2  0
 10 26  1  0
 26 27  2  0
  4 28  2  0
 28 29  1  0
 28 30  1  0
 30 31  2  0
 31 32  1  0
 31  2  1  0
 27  7  1  0
 25 19  1  0
  1 33  1  0
  1 34  1  0
  1 35  1  0
  5 36  1  0
  5 37  1  0
  8 38  1  0
  9 39  1  0
 11 40  1  0
 12 41  1  0
 20 42  1  0
 21 43  1  0
 24 44  1  0
 25 45  1  0
 26 46  1  0
 27 47  1  0
 29 48  1  0
 29 49  1  0
 29 50  1  0
 30 51  1  0
 32 52  1  0
 32 53  1  0
 32 54  1  0
M  CHG  2  15  -1  30   1
M  END
>  <UniqueID>  (63) 
58

>  <SMILES>  (63) 
Cc1nc(COc2ccc(C=CC(=O)[N-]S(=O)(=O)c3ccc(Cl)cc3)cc2)c(C)[nH+]c1C

>  <Energy>  (63) 
67.4602321767515

>  <Genealogy>  (63) 
Cc1nc(COc2ccc(C=CC(=O)[N-]S(=O)(=O)c3ccc(Cl)cc3)cc2)c(C)[nH+]c1C (protonated)
Cc1nc(COc2ccc(C=CC(=O)[N-]S(=O)(=O)c3ccc(Cl)cc3)cc2)c(C)[nH+]c1C (3D coordinates assigned)
Cc1nc(COc2ccc(C=CC(=O)[N-]S(=O)(=O)c3ccc(Cl)cc3)cc2)c(C)[nH+]c1C (optimized conformer: 67.4602321767515 kcal/mol)

>  <smiles>  (63) 
Cc1nc(C)c(COc2ccc(C=CC(=O)NS(=O)(=O)c3ccc(Cl)cc3)cc2)nc1C

>  <score_type>  (63) 
oracle

>  <origin>  (63) 
adg

>  <m_score__min__energy>  (63) 
-10.5

>  <m_primary>  (63) 
energy

$$$$
63:0
     RDKit          3D

 25 26  0  0  0  0  0  0  0  0999 V2000
   59.4100   28.4850   48.3940 C   0  0  0  0  0  0  0  0  0  0  0  0
   59.4600   27.8270   47.0870 N   0  0  0  0  0  0  0  0  0  0  0  0
   59.6070   28.8040   46.0400 C   0  0  0  0  0  0  0  0  0  0  0  0
   61.0330   28.9470   45.2380 S   0  0  0  0  0  0  0  0  0  0  0  0
   58.4750   29.5950   45.6250 N   0  0  0  0  0  0  0  0  0  0  0  0
   57.3260   28.9560   45.2290 C   0  0  0  0  0  0  0  0  0  0  0  0
   57.2640   27.6940   45.2110 O   0  0  0  0  0  0  0  0  0  0  0  0
   56.2050   29.7050   44.8490 C   0  0  0  0  0  0  0  0  0  0  0  0
   55.1430   29.1310   44.4860 O   0  0  0  0  0  0  0  0  0  0  0  0
   56.2610   31.0580   44.8700 N   0  0  0  0  0  0  0  0  0  0  0  0
   57.3860   31.7110   45.2510 C   0  0  0  0  0  0  0  0  0  0  0  0
   57.4100   33.1100   45.2540 C   0  0  0  0  0  0  0  0  0  0  0  0
   58.5690   33.7910   45.6300 C   0  0  0  0  0  0  0  0  0  0  0  0
   58.5850   35.1470   45.6290 F   0  0  0  0  0  0  0  0  0  0  0  0
   59.7110   33.0780   46.0010 C   0  0  0  0  0  0  0  0  0  0  0  0
   60.8380   33.7430   46.3580 F   0  0  0  0  0  0  0  0  0  0  0  0
   59.6980   31.6790   46.0020 C   0  0  0  0  0  0  0  0  0  0  0  0
   58.5310   30.9710   45.6350 C   0  0  0  0  0  0  0  0  0  0  0  0
   59.4676   27.7267   49.1887 H   0  0  0  0  0  0  0  0  0  0  0  0
   60.2580   29.1794   48.4876 H   0  0  0  0  0  0  0  0  0  0  0  0
   58.4668   29.0433   48.4876 H   0  0  0  0  0  0  0  0  0  0  0  0
   60.2730   27.1700   47.0710 H   0  0  0  0  0  0  0  0  0  0  0  0
   58.5820   27.2760   46.9410 H   0  0  0  0  0  0  0  0  0  0  0  0
   56.5132   33.6747   44.9593 H   0  0  0  0  0  0  0  0  0  0  0  0
   60.6036   31.1254   46.2908 H   0  0  0  0  0  0  0  0  0  0  0  0
  1  2  1  0
  2  3  1  0
  3  4  2  0
  3  5  1  0
  5  6  1  0
  6  7  2  0
  6  8  1  0
  8  9  2  0
  8 10  1  0
 10 11  1  0
 11 12  2  0
 12 13  1  0
 13 14  1  0
 13 15  2  0
 15 16  1  0
 15 17  1  0
 17 18  2  0
 18  5  1  0
 18 11  1  0
  1 19  1  0
  1 20  1  0
  1 21  1  0
  2 22  1  0
  2 23  1  0
 12 24  1  0
 17 25  1  0
M  CHG  2   2   1  10  -1
M  END
>  <UniqueID>  (64) 
59

>  <SMILES>  (64) 
C[NH2+]C(=S)n1c(=O)c(=O)[n-]c2cc(F)c(F)cc21

>  <Energy>  (64) 
40.40554640409416

>  <Genealogy>  (64) 
C[NH2+]C(=S)n1c(=O)c(=O)[n-]c2cc(F)c(F)cc21 (protonated)
C[NH2+]C(=S)n1c(=O)c(=O)[n-]c2cc(F)c(F)cc21 (3D coordinates assigned)
C[NH2+]C(=S)n1c(=O)c(=O)[n-]c2cc(F)c(F)cc21 (optimized conformer: 40.40554640409416 kcal/mol)

>  <smiles>  (64) 
CNC(=S)n1c(=O)c(=O)[nH]c2cc(F)c(F)cc21

>  <score_type>  (64) 
oracle

>  <origin>  (64) 
adg

>  <m_score__min__energy>  (64) 
-5.6100000000000003

>  <m_primary>  (64) 
energy

$$$$
64:0
     RDKit          3D

 48 50  0  0  0  0  0  0  0  0999 V2000
   56.6050   29.9670   43.2290 C   0  0  0  0  0  0  0  0  0  0  0  0
   57.3340   30.6840   44.3280 C   0  0  0  0  0  0  0  0  0  0  0  0
   57.0450   32.0150   44.6080 C   0  0  0  0  0  0  0  0  0  0  0  0
   57.7390   32.7180   45.6060 C   0  0  0  0  0  0  0  0  0  0  0  0
   57.3600   34.1690   45.8050 C   0  0  0  0  0  0  0  0  0  0  0  0
   58.7890   32.0770   46.3450 C   0  0  0  0  0  0  0  0  0  0  0  0
   59.5070   32.8750   47.4610 C   0  0  2  0  0  0  0  0  0  0  0  0
   60.7290   33.7210   47.0140 C   0  0  0  0  0  0  0  0  0  0  0  0
   61.9690   33.4050   47.8210 C   0  0  0  0  0  0  0  0  0  0  0  0
   62.3100   34.2010   48.9280 C   0  0  0  0  0  0  0  0  0  0  0  0
   63.4420   33.9000   49.6910 C   0  0  0  0  0  0  0  0  0  0  0  0
   64.2410   32.8020   49.3590 C   0  0  0  0  0  0  0  0  0  0  0  0
   65.6600   32.4260   50.3200 Cl  0  0  0  0  0  0  0  0  0  0  0  0
   63.9060   32.0030   48.2620 C   0  0  0  0  0  0  0  0  0  0  0  0
   62.7760   32.3000   47.4950 C   0  0  0  0  0  0  0  0  0  0  0  0
   59.7740   32.0250   48.7290 C   0  0  0  0  0  0  0  0  0  0  0  0
   59.3280   32.6650   49.9650 N   0  0  0  0  0  0  0  0  0  0  0  0
   58.5500   32.1210   50.9210 C   0  0  0  0  0  0  0  0  0  0  0  0
   58.3070   33.0850   51.8760 C   0  0  0  0  0  0  0  0  0  0  0  0
   58.9230   34.2230   51.5040 N   0  0  0  0  0  0  0  0  0  0  0  0
   59.5300   33.9460   50.3350 C   0  0  0  0  0  0  0  0  0  0  0  0
   59.0780   30.7020   46.0370 C   0  0  0  0  0  0  0  0  0  0  0  0
   60.1710   29.8910   46.6920 C   0  0  0  0  0  0  0  0  0  0  0  0
   58.3580   30.0460   45.0230 C   0  0  0  0  0  0  0  0  0  0  0  0
   55.8856   29.2594   43.6670 H   0  0  0  0  0  0  0  0  0  0  0  0
   56.0678   30.6984   42.6073 H   0  0  0  0  0  0  0  0  0  0  0  0
   57.3274   29.4177   42.6073 H   0  0  0  0  0  0  0  0  0  0  0  0
   56.2571   32.5274   44.0364 H   0  0  0  0  0  0  0  0  0  0  0  0
   57.3026   34.3887   46.8813 H   0  0  0  0  0  0  0  0  0  0  0  0
   58.1199   34.8137   45.3392 H   0  0  0  0  0  0  0  0  0  0  0  0
   56.3819   34.3597   45.3392 H   0  0  0  0  0  0  0  0  0  0  0  0
   58.7723   33.6435   47.7432 H   0  0  0  0  0  0  0  0  0  0  0  0
   60.9343   33.5138   45.9534 H   0  0  0  0  0  0  0  0  0  0  0  0
   60.4827   34.7810   47.1746 H   0  0  0  0  0  0  0  0  0  0  0  0
   61.6834   35.0647   49.1952 H   0  0  0  0  0  0  0  0  0  0  0  0
   63.7047   34.5286   50.5546 H   0  0  0  0  0  0  0  0  0  0  0  0
   64.5336   31.1379   48.0016 H   0  0  0  0  0  0  0  0  0  0  0  0
   62.5168   31.6673   46.6333 H   0  0  0  0  0  0  0  0  0  0  0  0
   59.2453   31.0662   48.6230 H   0  0  0  0  0  0  0  0  0  0  0  0
   60.8634   31.8945   48.8073 H   0  0  0  0  0  0  0  0  0  0  0  0
   58.1741   31.0874   50.9368 H   0  0  0  0  0  0  0  0  0  0  0  0
   57.7096   32.9475   52.7894 H   0  0  0  0  0  0  0  0  0  0  0  0
   58.9210   35.1360   52.0120 H   0  0  0  0  0  0  0  0  0  0  0  0
   60.1169   34.6730   49.7545 H   0  0  0  0  0  0  0  0  0  0  0  0
   60.0752   29.9621   47.7855 H   0  0  0  0  0  0  0  0  0  0  0  0
   60.0817   28.8389   46.3838 H   0  0  0  0  0  0  0  0  0  0  0  0
   61.1521   30.2814   46.3838 H   0  0  0  0  0  0  0  0  0  0  0  0
   58.6095   29.0047   44.7730 H   0  0  0  0  0  0  0  0  0  0  0  0
  1  2  1  0
  2  3  2  0
  3  4  1  0
  4  5  1  0
  4  6  2  0
  6  7  1  0
  7  8  1  0
  8  9  1  0
  9 10  2  0
 10 11  1  0
 11 12  2  0
 12 13  1  0
 12 14  1  0
 14 15  2  0
  7 16  1  0
 16 17  1  0
 17 18  1  0
 18 19  2  0
 19 20  1  0
 20 21  2  0
  6 22  1  0
 22 23  1  0
 22 24  2  0
 24  2  1  0
 15  9  1  0
 21 17  1  0
  1 25  1  0
  1 26  1  0
  1 27  1  0
  3 28  1  0
  5 29  1  0
  5 30  1  0
  5 31  1  0
  7 32  1  1
  8 33  1  0
  8 34  1  0
 10 35  1  0
 11 36  1  0
 14 37  1  0
 15 38  1  0
 16 39  1  0
 16 40  1  0
 18 41  1  0
 19 42  1  0
 20 43  1  0
 21 44  1  0
 23 45  1  0
 23 46  1  0
 23 47  1  0
 24 48  1  0
M  CHG  1  20   1
M  END
>  <UniqueID>  (65) 
60

>  <SMILES>  (65) 
Cc1cc(C)c([C@H](Cc2ccc(Cl)cc2)Cn2cc[nH+]c2)c(C)c1

>  <Energy>  (65) 
88.68797432162768

>  <Genealogy>  (65) 
Cc1cc(C)c(C(Cc2ccc(Cl)cc2)Cn2cc[nH+]c2)c(C)c1 (protonated)
Cc1cc(C)c([C@H](Cc2ccc(Cl)cc2)Cn2cc[nH+]c2)c(C)c1 (chirality)
Cc1cc(C)c([C@H](Cc2ccc(Cl)cc2)Cn2cc[nH+]c2)c(C)c1 (3D coordinates assigned)
Cc1cc(C)c([C@H](Cc2ccc(Cl)cc2)Cn2cc[nH+]c2)c(C)c1 (optimized conformer: 88.68797432162768 kcal/mol)

>  <smiles>  (65) 
Cc1cc(C)c(C(Cc2ccc(Cl)cc2)Cn2ccnc2)c(C)c1

>  <score_type>  (65) 
oracle

>  <origin>  (65) 
adg

>  <m_score__min__energy>  (65) 
-6.3799999999999999

>  <m_primary>  (65) 
energy

$$$$
65:0
     RDKit          3D

 47 49  0  0  0  0  0  0  0  0999 V2000
   55.1320   29.3390   44.8220 N   0  0  0  0  0  0  0  0  0  0  0  0
   56.8480   29.2600   45.0090 S   0  0  0  0  0  0  0  0  0  0  0  0
   57.3170   30.4160   45.8480 O   0  0  0  0  0  0  0  0  0  0  0  0
   57.5020   29.3460   43.6600 O   0  0  0  0  0  0  0  0  0  0  0  0
   57.2850   27.7420   45.7890 C   0  0  0  0  0  0  0  0  0  0  0  0
   56.4030   26.6540   45.7590 C   0  0  0  0  0  0  0  0  0  0  0  0
   56.7400   25.4600   46.4000 C   0  0  0  0  0  0  0  0  0  0  0  0
   57.9610   25.3430   47.0690 C   0  0  0  0  0  0  0  0  0  0  0  0
   58.8620   26.4220   47.0890 C   0  0  0  0  0  0  0  0  0  0  0  0
   60.1080   26.3480   47.7970 N   0  0  0  0  0  0  0  0  0  0  0  0
   60.4420   27.0290   49.0140 C   0  0  0  0  0  0  0  0  0  0  0  0
   60.8010   26.3470   50.0090 O   0  0  0  0  0  0  0  0  0  0  0  0
   60.3400   28.5260   49.1390 C   0  0  0  0  0  0  0  0  0  0  0  0
   59.0530   28.9070   49.6270 O   0  0  0  0  0  0  0  0  0  0  0  0
   58.7600   30.1800   50.1300 C   0  0  0  0  0  0  0  0  0  0  0  0
   57.7370   30.3640   50.8470 O   0  0  0  0  0  0  0  0  0  0  0  0
   59.6490   31.3140   49.8300 C   0  0  0  0  0  0  0  0  0  0  0  0
   61.0000   31.2910   50.1890 C   0  0  0  0  0  0  0  0  0  0  0  0
   61.8000   32.3890   49.8880 C   0  0  0  0  0  0  0  0  0  0  0  0
   61.2400   33.4880   49.2360 C   0  0  0  0  0  0  0  0  0  0  0  0
   61.9640   34.4850   48.9720 O   0  0  0  0  0  0  0  0  0  0  0  0
   59.9150   33.4670   48.8920 N   0  0  0  0  0  0  0  0  0  0  0  0
   59.2760   34.6140   48.2370 C   0  0  0  0  0  0  0  0  0  0  0  0
   58.7590   34.2130   46.8830 C   0  0  0  0  0  0  0  0  0  0  0  0
   59.5640   34.3780   45.7430 C   0  0  0  0  0  0  0  0  0  0  0  0
   59.0990   33.9770   44.4870 C   0  0  0  0  0  0  0  0  0  0  0  0
   57.8320   33.4000   44.3610 C   0  0  0  0  0  0  0  0  0  0  0  0
   57.0290   33.2240   45.4910 C   0  0  0  0  0  0  0  0  0  0  0  0
   57.4890   33.6240   46.7490 C   0  0  0  0  0  0  0  0  0  0  0  0
   59.1550   32.4100   49.1940 N   0  0  0  0  0  0  0  0  0  0  0  0
   58.5050   27.6260   46.4700 C   0  0  0  0  0  0  0  0  0  0  0  0
   54.7200   29.3420   45.7830 H   0  0  0  0  0  0  0  0  0  0  0  0
   55.4428   26.7404   45.2293 H   0  0  0  0  0  0  0  0  0  0  0  0
   56.0426   24.6096   46.3782 H   0  0  0  0  0  0  0  0  0  0  0  0
   58.2180   24.4042   47.5814 H   0  0  0  0  0  0  0  0  0  0  0  0
   61.1109   28.8830   49.8377 H   0  0  0  0  0  0  0  0  0  0  0  0
   60.4874   28.9739   48.1452 H   0  0  0  0  0  0  0  0  0  0  0  0
   61.4251   30.4162   50.7028 H   0  0  0  0  0  0  0  0  0  0  0  0
   62.8654   32.3905   50.1619 H   0  0  0  0  0  0  0  0  0  0  0  0
   58.4383   34.9667   48.8566 H   0  0  0  0  0  0  0  0  0  0  0  0
   60.0165   35.4184   48.1162 H   0  0  0  0  0  0  0  0  0  0  0  0
   60.5646   34.8247   45.8393 H   0  0  0  0  0  0  0  0  0  0  0  0
   59.7307   34.1157   43.5972 H   0  0  0  0  0  0  0  0  0  0  0  0
   57.4671   33.0845   43.3724 H   0  0  0  0  0  0  0  0  0  0  0  0
   56.0323   32.7695   45.3904 H   0  0  0  0  0  0  0  0  0  0  0  0
   56.8559   33.4777   47.6365 H   0  0  0  0  0  0  0  0  0  0  0  0
   59.1871   28.4877   46.5184 H   0  0  0  0  0  0  0  0  0  0  0  0
  1  2  1  0
  2  3  2  0
  2  4  2  0
  2  5  1  0
  5  6  2  0
  6  7  1  0
  7  8  2  0
  8  9  1  0
  9 10  1  0
 10 11  1  0
 11 12  2  0
 11 13  1  0
 13 14  1  0
 14 15  1  0
 15 16  2  0
 15 17  1  0
 17 18  1  0
 18 19  2  0
 19 20  1  0
 20 21  2  0
 20 22  1  0
 22 23  1  0
 23 24  1  0
 24 25  2  0
 25 26  1  0
 26 27  2  0
 27 28  1  0
 28 29  2  0
 22 30  1  0
  9 31  2  0
 31  5  1  0
 30 17  2  0
 29 24  1  0
  1 32  1  0
  6 33  1  0
  7 34  1  0
  8 35  1  0
 13 36  1  0
 13 37  1  0
 18 38  1  0
 19 39  1  0
 23 40  1  0
 23 41  1  0
 25 42  1  0
 26 43  1  0
 27 44  1  0
 28 45  1  0
 29 46  1  0
 31 47  1  0
M  CHG  2   1  -1  10  -1
M  END
>  <UniqueID>  (66) 
61

>  <SMILES>  (66) 
[NH-]S(=O)(=O)c1cccc([N-]C(=O)COC(=O)c2ccc(=O)n(Cc3ccccc3)n2)c1

>  <Energy>  (66) 
53.23074654259767

>  <Genealogy>  (66) 
[NH-]S(=O)(=O)c1cccc([N-]C(=O)COC(=O)c2ccc(=O)n(Cc3ccccc3)n2)c1 (protonated)
[NH-]S(=O)(=O)c1cccc([N-]C(=O)COC(=O)c2ccc(=O)n(Cc3ccccc3)n2)c1 (3D coordinates assigned)
[NH-]S(=O)(=O)c1cccc([N-]C(=O)COC(=O)c2ccc(=O)n(Cc3ccccc3)n2)c1 (optimized conformer: 53.23074654259767 kcal/mol)

>  <smiles>  (66) 
NS(=O)(=O)c1cccc(NC(=O)COC(=O)c2ccc(=O)n(Cc3ccccc3)n2)c1

>  <score_type>  (66) 
oracle

>  <origin>  (66) 
adg

>  <m_score__min__energy>  (66) 
-13.109999999999999

>  <m_primary>  (66) 
energy

$$$$
66:0
     RDKit          3D

 35 37  0  0  0  0  0  0  0  0999 V2000
   56.2930   21.8660   42.5500 N   0  0  0  0  0  0  0  0  0  0  0  0
   56.2270   22.3990   43.5760 C   0  0  0  0  0  0  0  0  0  0  0  0
   56.1470   23.0600   44.8530 C   0  0  0  0  0  0  0  0  0  0  0  0
   56.0310   22.3050   46.0260 C   0  0  0  0  0  0  0  0  0  0  0  0
   55.9270   22.9490   47.2610 C   0  0  0  0  0  0  0  0  0  0  0  0
   55.9450   24.3460   47.3300 C   0  0  0  0  0  0  0  0  0  0  0  0
   56.0840   25.1110   46.1640 C   0  0  0  0  0  0  0  0  0  0  0  0
   56.0590   26.5410   46.2730 N   0  0  0  0  0  0  0  0  0  0  0  0
   57.1010   27.4440   45.8810 C   0  0  0  0  0  0  0  0  0  0  0  0
   58.3070   27.1720   46.1220 O   0  0  0  0  0  0  0  0  0  0  0  0
   56.7390   28.7330   45.2700 C   0  0  0  0  0  0  0  0  0  0  0  0
   55.5170   28.9750   44.7610 N   0  0  0  0  0  0  0  0  0  0  0  0
   55.5640   30.2710   44.3900 C   0  0  0  0  0  0  0  0  0  0  0  0
   56.7510   30.8620   44.6350 N   0  0  0  0  0  0  0  0  0  0  0  0
   57.5000   29.8870   45.1800 C   0  0  0  0  0  0  0  0  0  0  0  0
   58.9130   30.0900   45.5550 C   0  0  0  0  0  0  0  0  0  0  0  0
   59.7970   29.4200   44.9610 O   0  0  0  0  0  0  0  0  0  0  0  0
   59.3210   31.0200   46.5690 N   0  0  0  0  0  0  0  0  0  0  0  0
   59.4100   32.4480   46.4480 C   0  0  0  0  0  0  0  0  0  0  0  0
   59.9950   33.1770   47.4920 C   0  0  0  0  0  0  0  0  0  0  0  0
   60.1080   34.5680   47.4060 C   0  0  0  0  0  0  0  0  0  0  0  0
   59.6190   35.2420   46.2860 C   0  0  0  0  0  0  0  0  0  0  0  0
   59.0030   34.5270   45.2550 C   0  0  0  0  0  0  0  0  0  0  0  0
   58.8880   33.1360   45.3370 C   0  0  0  0  0  0  0  0  0  0  0  0
   56.1700   24.4590   44.9200 C   0  0  0  0  0  0  0  0  0  0  0  0
   56.0218   21.2062   45.9752 H   0  0  0  0  0  0  0  0  0  0  0  0
   55.8306   22.3558   48.1823 H   0  0  0  0  0  0  0  0  0  0  0  0
   55.8495   24.8468   48.3047 H   0  0  0  0  0  0  0  0  0  0  0  0
   54.7138   30.7965   43.9307 H   0  0  0  0  0  0  0  0  0  0  0  0
   60.3674   32.6521   48.3841 H   0  0  0  0  0  0  0  0  0  0  0  0
   60.5830   35.1319   48.2223 H   0  0  0  0  0  0  0  0  0  0  0  0
   59.7183   36.3352   46.2147 H   0  0  0  0  0  0  0  0  0  0  0  0
   58.6079   35.0597   44.3774 H   0  0  0  0  0  0  0  0  0  0  0  0
   58.3884   32.5782   44.5313 H   0  0  0  0  0  0  0  0  0  0  0  0
   56.2556   25.0503   43.9964 H   0  0  0  0  0  0  0  0  0  0  0  0
  1  2  3  0
  2  3  1  0
  3  4  2  0
  4  5  1  0
  5  6  2  0
  6  7  1  0
  7  8  1  0
  8  9  1  0
  9 10  2  0
  9 11  1  0
 11 12  1  0
 12 13  2  0
 13 14  1  0
 14 15  1  0
 15 16  1  0
 16 17  2  0
 16 18  1  0
 18 19  1  0
 19 20  2  0
 20 21  1  0
 21 22  2  0
 22 23  1  0
 23 24  2  0
  7 25  2  0
 25  3  1  0
 15 11  2  0
 24 19  1  0
  4 26  1  0
  5 27  1  0
  6 28  1  0
 13 29  1  0
 20 30  1  0
 21 31  1  0
 22 32  1  0
 23 33  1  0
 24 34  1  0
 25 35  1  0
M  CHG  3   8  -1  14  -1  18  -1
M  END
>  <UniqueID>  (67) 
62

>  <SMILES>  (67) 
N#Cc1cccc([N-]C(=O)c2nc[n-]c2C(=O)[N-]c2ccccc2)c1

>  <Energy>  (67) 
74.26309054859115

>  <Genealogy>  (67) 
N#Cc1cccc([N-]C(=O)c2nc[n-]c2C(=O)[N-]c2ccccc2)c1 (protonated)
N#Cc1cccc([N-]C(=O)c2nc[n-]c2C(=O)[N-]c2ccccc2)c1 (3D coordinates assigned)
N#Cc1cccc([N-]C(=O)c2nc[n-]c2C(=O)[N-]c2ccccc2)c1 (optimized conformer: 74.26309054859115 kcal/mol)

>  <smiles>  (67) 
N#Cc1cccc(NC(=O)c2nc[nH]c2C(=O)Nc2ccccc2)c1

>  <score_type>  (67) 
oracle

>  <origin>  (67) 
adg

>  <m_score__min__energy>  (67) 
-12.050000000000001

>  <m_primary>  (67) 
energy

$$$$
67:0
     RDKit          3D

 42 44  0  0  0  0  0  0  0  0999 V2000
   55.1700   26.6370   45.9760 O   0  0  0  0  0  0  0  0  0  0  0  0
   56.4040   26.7540   46.2110 C   0  0  0  0  0  0  0  0  0  0  0  0
   57.1030   25.6730   46.8360 N   0  0  0  0  0  0  0  0  0  0  0  0
   56.5890   24.3120   46.8710 C   0  0  0  0  0  0  0  0  0  0  0  0
   56.7730   23.6800   45.5320 C   0  0  0  0  0  0  0  0  0  0  0  0
   56.0160   23.9390   44.3970 C   0  0  0  0  0  0  0  0  0  0  0  0
   56.3720   23.1390   43.3040 C   0  0  0  0  0  0  0  0  0  0  0  0
   57.3980   22.2430   43.5800 C   0  0  0  0  0  0  0  0  0  0  0  0
   57.8590   22.4440   45.1860 S   0  0  0  0  0  0  0  0  0  0  0  0
   57.1120   28.0100   45.8420 C   0  0  0  0  0  0  0  0  0  0  0  0
   58.4610   28.1760   46.2110 C   0  0  0  0  0  0  0  0  0  0  0  0
   59.1590   29.3450   45.8830 C   0  0  0  0  0  0  0  0  0  0  0  0
   60.8410   29.5250   46.3810 S   0  0  0  0  0  0  0  0  0  0  0  0
   61.7580   29.2850   45.2130 O   0  0  0  0  0  0  0  0  0  0  0  0
   61.1390   28.5000   47.4390 O   0  0  0  0  0  0  0  0  0  0  0  0
   61.1390   31.1140   47.0310 N   0  0  0  0  0  0  0  0  0  0  0  0
   59.9620   31.6450   47.7220 C   0  0  0  0  0  0  0  0  0  0  0  0
   59.2420   32.6650   46.8790 C   0  0  0  0  0  0  0  0  0  0  0  0
   59.9650   33.4880   45.9990 C   0  0  0  0  0  0  0  0  0  0  0  0
   59.2980   34.4260   45.2040 C   0  0  0  0  0  0  0  0  0  0  0  0
   57.9090   34.5520   45.2870 C   0  0  0  0  0  0  0  0  0  0  0  0
   57.1830   33.7390   46.1620 C   0  0  0  0  0  0  0  0  0  0  0  0
   57.8460   32.7990   46.9580 C   0  0  0  0  0  0  0  0  0  0  0  0
   58.5110   30.3650   45.1770 C   0  0  0  0  0  0  0  0  0  0  0  0
   57.1750   30.2170   44.8050 C   0  0  0  0  0  0  0  0  0  0  0  0
   56.4710   29.0540   45.1310 C   0  0  0  0  0  0  0  0  0  0  0  0
   55.1370   28.9570   44.7490 O   0  0  0  0  0  0  0  0  0  0  0  0
   57.1359   23.7322   47.6291 H   0  0  0  0  0  0  0  0  0  0  0  0
   55.5192   24.3290   47.1262 H   0  0  0  0  0  0  0  0  0  0  0  0
   55.2181   24.6953   44.3602 H   0  0  0  0  0  0  0  0  0  0  0  0
   55.8856   23.2128   42.3201 H   0  0  0  0  0  0  0  0  0  0  0  0
   57.8342   21.5250   42.8699 H   0  0  0  0  0  0  0  0  0  0  0  0
   58.9738   27.3759   46.7649 H   0  0  0  0  0  0  0  0  0  0  0  0
   59.2743   30.8161   47.9457 H   0  0  0  0  0  0  0  0  0  0  0  0
   60.2968   32.1358   48.6478 H   0  0  0  0  0  0  0  0  0  0  0  0
   61.0591   33.3943   45.9351 H   0  0  0  0  0  0  0  0  0  0  0  0
   59.8675   35.0649   44.5130 H   0  0  0  0  0  0  0  0  0  0  0  0
   57.3862   35.2918   44.6630 H   0  0  0  0  0  0  0  0  0  0  0  0
   56.0893   33.8384   46.2247 H   0  0  0  0  0  0  0  0  0  0  0  0
   57.2723   32.1628   47.6480 H   0  0  0  0  0  0  0  0  0  0  0  0
   59.0558   31.2841   44.9153 H   0  0  0  0  0  0  0  0  0  0  0  0
   56.6709   31.0222   44.2504 H   0  0  0  0  0  0  0  0  0  0  0  0
  1  2  2  0
  2  3  1  0
  3  4  1  0
  4  5  1  0
  5  6  2  0
  6  7  1  0
  7  8  2  0
  8  9  1  0
  2 10  1  0
 10 11  2  0
 11 12  1  0
 12 13  1  0
 13 14  2  0
 13 15  2  0
 13 16  1  0
 16 17  1  0
 17 18  1  0
 18 19  2  0
 19 20  1  0
 20 21  2  0
 21 22  1  0
 22 23  2  0
 12 24  2  0
 24 25  1  0
 25 26  2  0
 26 27  1  0
  9  5  1  0
 26 10  1  0
 23 18  1  0
  4 28  1  0
  4 29  1  0
  6 30  1  0
  7 31  1  0
  8 32  1  0
 11 33  1  0
 17 34  1  0
 17 35  1  0
 19 36  1  0
 20 37  1  0
 21 38  1  0
 22 39  1  0
 23 40  1  0
 24 41  1  0
 25 42  1  0
M  CHG  3   3  -1  16  -1  27  -1
M  END
>  <UniqueID>  (68) 
63

>  <SMILES>  (68) 
O=C([N-]Cc1cccs1)c1cc(S(=O)(=O)[N-]Cc2ccccc2)ccc1[O-]

>  <Energy>  (68) 
68.10898089408717

>  <Genealogy>  (68) 
O=C([N-]Cc1cccs1)c1cc(S(=O)(=O)[N-]Cc2ccccc2)ccc1[O-] (protonated)
O=C([N-]Cc1cccs1)c1cc(S(=O)(=O)[N-]Cc2ccccc2)ccc1[O-] (3D coordinates assigned)
O=C([N-]Cc1cccs1)c1cc(S(=O)(=O)[N-]Cc2ccccc2)ccc1[O-] (optimized conformer: 68.10898089408717 kcal/mol)

>  <smiles>  (68) 
O=C(NCc1cccs1)c1cc(S(=O)(=O)NCc2ccccc2)ccc1O

>  <score_type>  (68) 
oracle

>  <origin>  (68) 
adg

>  <m_score__min__energy>  (68) 
-14.23

>  <m_primary>  (68) 
energy

$$$$
68:0
     RDKit          3D

 52 55  0  0  1  0  0  0  0  0999 V2000
   59.2410   25.4370   45.9160 O   0  0  0  0  0  0  0  0  0  0  0  0
   58.1340   25.9340   45.6470 C   0  0  0  0  0  0  0  0  0  0  0  0
   57.8520   27.2540   46.0570 N   0  0  0  0  0  0  0  0  0  0  0  0
   58.6910   28.1270   46.7640 C   0  0  0  0  0  0  0  0  0  0  0  0
   59.3400   27.8590   47.9400 C   0  0  0  0  0  0  0  0  0  0  0  0
   60.1630   28.7920   48.5810 C   0  0  0  0  0  0  0  0  0  0  0  0
   60.3600   30.0450   48.0450 C   0  0  0  0  0  0  0  0  0  0  0  0
   61.1810   30.9440   48.7070 O   0  0  0  0  0  0  0  0  0  0  0  0
   61.7740   31.9480   47.9490 C   0  0  0  0  0  0  0  0  0  0  0  0
   60.9700   32.9760   47.4990 C   0  0  0  0  0  0  0  0  0  0  0  0
   61.5130   34.0040   46.7400 C   0  0  0  0  0  0  0  0  0  0  0  0
   60.7090   34.9240   46.3560 N   0  0  0  0  0  0  0  0  0  0  0  0
   59.3100   34.6890   46.4190 C   0  0  0  0  0  0  0  0  0  0  0  0
   58.6710   34.5700   47.4970 O   0  0  0  0  0  0  0  0  0  0  0  0
   58.5500   34.5770   45.1590 C   0  0  0  0  0  0  0  0  0  0  0  0
   58.4200   33.2870   44.4500 C   0  0  0  0  0  0  0  0  0  0  0  0
   57.2400   33.8010   45.2810 C   0  0  0  0  0  0  0  0  0  0  0  0
   62.8230   33.9730   46.4550 N   0  0  0  0  0  0  0  0  0  0  0  0
   63.6200   32.9680   46.8920 C   0  0  0  0  0  0  0  0  0  0  0  0
   63.0830   31.9630   47.6380 N   0  0  0  0  0  0  0  0  0  0  0  0
   59.7130   30.3290   46.8630 C   0  0  0  0  0  0  0  0  0  0  0  0
   58.9080   29.4100   46.2390 C   0  0  0  0  0  0  0  0  0  0  0  0
   58.1460   29.9070   44.7360 Cl  0  0  0  0  0  0  0  0  0  0  0  0
   57.1830   25.1700   44.9380 N   0  0  0  0  0  0  0  0  0  0  0  0
   57.3220   23.8580   44.4680 C   0  0  0  0  0  0  0  0  0  0  0  0
   58.4500   23.0810   44.5460 C   0  0  0  0  0  0  0  0  0  0  0  0
   58.5110   21.7780   44.0470 C   0  0  0  0  0  0  0  0  0  0  0  0
   57.4170   21.2020   43.4400 C   0  0  0  0  0  0  0  0  0  0  0  0
   56.2770   21.9670   43.3530 C   0  0  0  0  0  0  0  0  0  0  0  0
   56.2210   23.2540   43.8470 C   0  0  0  0  0  0  0  0  0  0  0  0
   55.0080   23.9190   43.7000 O   0  0  0  0  0  0  0  0  0  0  0  0
   54.2020   24.0840   44.8490 C   0  0  0  0  0  0  0  0  0  0  0  0
   52.8650   23.8450   44.5670 F   0  0  0  0  0  0  0  0  0  0  0  0
   54.3220   25.2910   45.4670 F   0  0  0  0  0  0  0  0  0  0  0  0
   54.5910   23.1200   45.7900 F   0  0  0  0  0  0  0  0  0  0  0  0
   56.8920   27.6200   45.7990 H   0  0  0  0  0  0  0  0  0  0  0  0
   59.2088   26.8685   48.4001 H   0  0  0  0  0  0  0  0  0  0  0  0
   60.6587   28.5210   49.5248 H   0  0  0  0  0  0  0  0  0  0  0  0
   59.8972   32.9807   47.7422 H   0  0  0  0  0  0  0  0  0  0  0  0
   58.8773   35.5689   44.8140 H   0  0  0  0  0  0  0  0  0  0  0  0
   58.3503   33.2703   43.3523 H   0  0  0  0  0  0  0  0  0  0  0  0
   59.0028   32.3543   44.4310 H   0  0  0  0  0  0  0  0  0  0  0  0
   56.3286   34.1671   44.7857 H   0  0  0  0  0  0  0  0  0  0  0  0
   56.6251   33.4123   46.1061 H   0  0  0  0  0  0  0  0  0  0  0  0
   63.2210   34.7440   45.8860 H   0  0  0  0  0  0  0  0  0  0  0  0
   64.6922   32.9639   46.6462 H   0  0  0  0  0  0  0  0  0  0  0  0
   59.8454   31.3209   46.4062 H   0  0  0  0  0  0  0  0  0  0  0  0
   56.2640   25.6560   44.7370 H   0  0  0  0  0  0  0  0  0  0  0  0
   59.3467   23.5033   45.0230 H   0  0  0  0  0  0  0  0  0  0  0  0
   59.4449   21.2043   44.1400 H   0  0  0  0  0  0  0  0  0  0  0  0
   57.4532   20.1768   43.0428 H   0  0  0  0  0  0  0  0  0  0  0  0
   55.3831   21.5397   42.8752 H   0  0  0  0  0  0  0  0  0  0  0  0
  1  2  2  0
  2  3  1  0
  3  4  1  0
  4  5  2  0
  5  6  1  0
  6  7  2  0
  7  8  1  0
  8  9  1  0
  9 10  2  0
 10 11  1  0
 11 12  2  0
 12 13  1  0
 13 14  2  0
 13 15  1  0
 15 16  1  0
 16 17  1  0
 11 18  1  0
 18 19  1  0
 19 20  2  0
  7 21  1  0
 21 22  2  0
 22 23  1  0
  2 24  1  0
 24 25  1  0
 25 26  2  0
 26 27  1  0
 27 28  2  0
 28 29  1  0
 29 30  2  0
 30 31  1  0
 31 32  1  0
 32 33  1  0
 32 34  1  0
 32 35  1  0
 22  4  1  0
 30 25  1  0
 20  9  1  0
 17 15  1  0
  3 36  1  0
  5 37  1  0
  6 38  1  0
 10 39  1  0
 15 40  1  0
 16 41  1  0
 16 42  1  0
 17 43  1  0
 17 44  1  0
 18 45  1  0
 19 46  1  0
 21 47  1  0
 24 48  1  0
 26 49  1  0
 27 50  1  0
 28 51  1  0
 29 52  1  0
M  END
>  <smiles>  (69) 
O=C(Nc1ccc(Oc2cc(=NC(=O)C3CC3)[nH]cn2)cc1Cl)Nc1ccccc1OC(F)(F)F

>  <score_type>  (69) 
oracle

>  <origin>  (69) 
adg

>  <m_score__min__energy>  (69) 
-8.4299999999999997

>  <m_primary>  (69) 
energy

$$$$
69:0
     RDKit          3D

 41 42  0  0  0  0  0  0  0  0999 V2000
   56.3800   31.6090   44.8700 O   0  0  0  0  0  0  0  0  0  0  0  0
   57.4320   32.1770   45.2730 C   0  0  0  0  0  0  0  0  0  0  0  0
   57.3340   33.4740   46.0130 C   0  0  0  0  0  0  0  0  0  0  0  0
   58.4790   33.6010   47.0180 C   0  0  0  0  0  0  0  0  0  0  0  0
   59.8720   34.4550   46.2980 S   0  0  0  0  0  0  0  0  0  0  0  0
   59.6420   35.9370   46.3850 O   0  0  0  0  0  0  0  0  0  0  0  0
   60.0020   34.0820   44.8480 O   0  0  0  0  0  0  0  0  0  0  0  0
   61.3460   34.0460   47.1770 C   0  0  0  0  0  0  0  0  0  0  0  0
   62.4830   33.6420   46.4620 C   0  0  0  0  0  0  0  0  0  0  0  0
   63.6640   33.3230   47.1380 C   0  0  0  0  0  0  0  0  0  0  0  0
   63.7220   33.4190   48.5300 C   0  0  0  0  0  0  0  0  0  0  0  0
   62.6000   33.8430   49.2480 C   0  0  0  0  0  0  0  0  0  0  0  0
   61.4140   34.1560   48.5780 C   0  0  0  0  0  0  0  0  0  0  0  0
   60.3440   34.5860   49.2930 F   0  0  0  0  0  0  0  0  0  0  0  0
   58.7120   31.5620   45.0690 N   0  0  0  0  0  0  0  0  0  0  0  0
   58.8350   30.2580   44.4180 C   0  0  0  0  0  0  0  0  0  0  0  0
   59.3740   29.1940   45.3840 C   0  0  0  0  0  0  0  0  0  0  0  0
   59.7950   29.8000   46.6980 C   0  0  0  0  0  0  0  0  0  0  0  0
   58.8670   29.9690   47.7390 C   0  0  0  0  0  0  0  0  0  0  0  0
   59.2620   30.5530   48.9460 C   0  0  0  0  0  0  0  0  0  0  0  0
   60.5830   30.9710   49.1240 C   0  0  0  0  0  0  0  0  0  0  0  0
   61.5120   30.8110   48.0920 C   0  0  0  0  0  0  0  0  0  0  0  0
   61.1210   30.2310   46.8830 C   0  0  0  0  0  0  0  0  0  0  0  0
   57.3875   34.3059   45.2953 H   0  0  0  0  0  0  0  0  0  0  0  0
   56.3776   33.5043   46.5555 H   0  0  0  0  0  0  0  0  0  0  0  0
   58.1267   34.1635   47.8952 H   0  0  0  0  0  0  0  0  0  0  0  0
   58.8011   32.5909   47.3112 H   0  0  0  0  0  0  0  0  0  0  0  0
   62.4451   33.5759   45.3646 H   0  0  0  0  0  0  0  0  0  0  0  0
   64.5491   32.9958   46.5727 H   0  0  0  0  0  0  0  0  0  0  0  0
   64.6501   33.1611   49.0612 H   0  0  0  0  0  0  0  0  0  0  0  0
   62.6507   33.9305   50.3433 H   0  0  0  0  0  0  0  0  0  0  0  0
   59.5600   32.0510   45.4350 H   0  0  0  0  0  0  0  0  0  0  0  0
   57.8444   29.9440   44.0574 H   0  0  0  0  0  0  0  0  0  0  0  0
   59.5439   30.3555   43.5825 H   0  0  0  0  0  0  0  0  0  0  0  0
   58.5862   28.4493   45.5705 H   0  0  0  0  0  0  0  0  0  0  0  0
   60.2560   28.7258   44.9228 H   0  0  0  0  0  0  0  0  0  0  0  0
   57.8259   29.6406   47.6038 H   0  0  0  0  0  0  0  0  0  0  0  0
   58.5310   30.6837   49.7575 H   0  0  0  0  0  0  0  0  0  0  0  0
   60.8921   31.4261   50.0765 H   0  0  0  0  0  0  0  0  0  0  0  0
   62.5516   31.1420   48.2320 H   0  0  0  0  0  0  0  0  0  0  0  0
   61.8538   30.1107   46.0715 H   0  0  0  0  0  0  0  0  0  0  0  0
  1  2  2  0
  2  3  1  0
  3  4  1  0
  4  5  1  0
  5  6  2  0
  5  7  2  0
  5  8  1  0
  8  9  2  0
  9 10  1  0
 10 11  2  0
 11 12  1  0
 12 13  2  0
 13 14  1  0
  2 15  1  0
 15 16  1  0
 16 17  1  0
 17 18  1  0
 18 19  2  0
 19 20  1  0
 20 21  2  0
 21 22  1  0
 22 23  2  0
 13  8  1  0
 23 18  1  0
  3 24  1  0
  3 25  1  0
  4 26  1  0
  4 27  1  0
  9 28  1  0
 10 29  1  0
 11 30  1  0
 12 31  1  0
 15 32  1  0
 16 33  1  0
 16 34  1  0
 17 35  1  0
 17 36  1  0
 19 37  1  0
 20 38  1  0
 21 39  1  0
 22 40  1  0
 23 41  1  0
M  END
>  <UniqueID>  (70) 
64

>  <SMILES>  (70) 
O=C(CCS(=O)(=O)c1ccccc1F)NCCc1ccccc1

>  <Energy>  (70) 
30.55823406839163

>  <Genealogy>  (70) 
O=C(CCS(=O)(=O)c1ccccc1F)NCCc1ccccc1 (3D coordinates assigned)
O=C(CCS(=O)(=O)c1ccccc1F)NCCc1ccccc1 (optimized conformer: 30.55823406839163 kcal/mol)

>  <smiles>  (70) 
O=C(CCS(=O)(=O)c1ccccc1F)NCCc1ccccc1

>  <score_type>  (70) 
oracle

>  <origin>  (70) 
adg

>  <m_score__min__energy>  (70) 
-8.4600000000000009

>  <m_primary>  (70) 
energy

$$$$
70:0
     RDKit          3D

 60 63  0  0  0  0  0  0  0  0999 V2000
   52.4590   31.3250   51.2230 C   0  0  0  0  0  0  0  0  0  0  0  0
   53.5670   30.8360   52.1080 C   0  0  0  0  0  0  0  0  0  0  0  0
   53.2850   30.3590   53.3970 C   0  0  0  0  0  0  0  0  0  0  0  0
   54.3140   29.8690   54.2050 C   0  0  0  0  0  0  0  0  0  0  0  0
   55.6300   29.8480   53.7330 C   0  0  0  0  0  0  0  0  0  0  0  0
   55.9260   30.3230   52.4430 C   0  0  0  0  0  0  0  0  0  0  0  0
   57.2670   30.2920   51.9300 N   0  0  0  0  0  0  0  0  0  0  0  0
   58.0070   31.4720   51.5800 C   0  0  0  0  0  0  0  0  0  0  0  0
   57.4170   32.5820   51.4620 O   0  0  0  0  0  0  0  0  0  0  0  0
   59.4950   31.3880   51.3820 C   0  0  0  0  0  0  0  0  0  0  0  0
   59.8400   31.0970   49.9700 N   0  0  0  0  0  0  0  0  0  0  0  0
   59.4890   29.8740   49.4420 C   0  0  0  0  0  0  0  0  0  0  0  0
   58.8030   29.0700   50.1360 O   0  0  0  0  0  0  0  0  0  0  0  0
   59.8810   29.5100   48.1780 N   0  0  0  0  0  0  0  0  0  0  0  0
   59.5860   28.1540   47.6620 C   0  0  0  0  0  0  0  0  0  0  0  0
   58.1090   27.9960   47.2720 C   0  0  0  0  0  0  0  0  0  0  0  0
   57.8310   28.3720   45.8480 C   0  0  0  0  0  0  0  0  0  0  0  0
   58.4650   27.8180   44.9090 O   0  0  0  0  0  0  0  0  0  0  0  0
   56.9190   29.4380   45.5740 N   0  0  0  0  0  0  0  0  0  0  0  0
   57.0420   30.3390   44.4360 C   0  0  0  0  0  0  0  0  0  0  0  0
   57.6340   31.6590   44.8580 C   0  0  0  0  0  0  0  0  0  0  0  0
   57.8070   31.9390   46.2260 C   0  0  0  0  0  0  0  0  0  0  0  0
   58.2770   33.1890   46.6390 C   0  0  0  0  0  0  0  0  0  0  0  0
   58.5810   34.1680   45.6910 C   0  0  0  0  0  0  0  0  0  0  0  0
   58.4540   33.8900   44.3280 C   0  0  0  0  0  0  0  0  0  0  0  0
   57.9890   32.6400   43.9030 C   0  0  0  0  0  0  0  0  0  0  0  0
   57.8410   32.3460   42.1730 Cl  0  0  0  0  0  0  0  0  0  0  0  0
   60.5820   30.3890   47.3960 C   0  0  0  0  0  0  0  0  0  0  0  0
   60.9550   30.0480   46.2370 O   0  0  0  0  0  0  0  0  0  0  0  0
   60.8900   31.6680   47.8700 C   0  0  0  0  0  0  0  0  0  0  0  0
   61.5810   32.5950   47.0630 C   0  0  0  0  0  0  0  0  0  0  0  0
   61.8740   33.8690   47.5440 C   0  0  0  0  0  0  0  0  0  0  0  0
   61.4810   34.2360   48.8270 C   0  0  0  0  0  0  0  0  0  0  0  0
   60.8000   33.3290   49.6410 C   0  0  0  0  0  0  0  0  0  0  0  0
   60.5010   32.0200   49.1830 C   0  0  0  0  0  0  0  0  0  0  0  0
   54.8850   30.7890   51.6270 C   0  0  0  0  0  0  0  0  0  0  0  0
   51.6284   31.6916   51.8440 H   0  0  0  0  0  0  0  0  0  0  0  0
   52.8307   32.1427   50.5880 H   0  0  0  0  0  0  0  0  0  0  0  0
   52.1054   30.4993   50.5880 H   0  0  0  0  0  0  0  0  0  0  0  0
   52.2511   30.3709   53.7723 H   0  0  0  0  0  0  0  0  0  0  0  0
   54.0882   29.4985   55.2158 H   0  0  0  0  0  0  0  0  0  0  0  0
   56.4359   29.4588   54.3725 H   0  0  0  0  0  0  0  0  0  0  0  0
   57.6940   29.3630   51.7200 H   0  0  0  0  0  0  0  0  0  0  0  0
   59.9486   32.3478   51.6702 H   0  0  0  0  0  0  0  0  0  0  0  0
   59.8805   30.5691   52.0071 H   0  0  0  0  0  0  0  0  0  0  0  0
   60.2094   27.9681   46.7750 H   0  0  0  0  0  0  0  0  0  0  0  0
   59.8058   27.4309   48.4613 H   0  0  0  0  0  0  0  0  0  0  0  0
   57.8190   26.9452   47.4191 H   0  0  0  0  0  0  0  0  0  0  0  0
   57.5277   28.6782   47.9097 H   0  0  0  0  0  0  0  0  0  0  0  0
   57.6936   29.8772   43.6796 H   0  0  0  0  0  0  0  0  0  0  0  0
   56.0397   30.5197   44.0203 H   0  0  0  0  0  0  0  0  0  0  0  0
   57.5708   31.1692   46.9754 H   0  0  0  0  0  0  0  0  0  0  0  0
   58.4073   33.4013   47.7104 H   0  0  0  0  0  0  0  0  0  0  0  0
   58.9216   35.1613   46.0185 H   0  0  0  0  0  0  0  0  0  0  0  0
   58.7205   34.6566   43.5855 H   0  0  0  0  0  0  0  0  0  0  0  0
   61.8908   32.3102   46.0467 H   0  0  0  0  0  0  0  0  0  0  0  0
   62.4163   34.5851   46.9091 H   0  0  0  0  0  0  0  0  0  0  0  0
   61.7078   35.2451   49.2017 H   0  0  0  0  0  0  0  0  0  0  0  0
   60.4909   33.6336   50.6518 H   0  0  0  0  0  0  0  0  0  0  0  0
   55.1031   31.1206   50.6011 H   0  0  0  0  0  0  0  0  0  0  0  0
  1  2  1  0
  2  3  2  0
  3  4  1  0
  4  5  2  0
  5  6  1  0
  6  7  1  0
  7  8  1  0
  8  9  2  0
  8 10  1  0
 10 11  1  0
 11 12  1  0
 12 13  2  0
 12 14  1  0
 14 15  1  0
 15 16  1  0
 16 17  1  0
 17 18  2  0
 17 19  1  0
 19 20  1  0
 20 21  1  0
 21 22  2  0
 22 23  1  0
 23 24  2  0
 24 25  1  0
 25 26  2  0
 26 27  1  0
 14 28  1  0
 28 29  2  0
 28 30  1  0
 30 31  2  0
 31 32  1  0
 32 33  2  0
 33 34  1  0
 34 35  2  0
  6 36  2  0
 36  2  1  0
 35 11  1  0
 26 21  1  0
 35 30  1  0
  1 37  1  0
  1 38  1  0
  1 39  1  0
  3 40  1  0
  4 41  1  0
  5 42  1  0
  7 43  1  0
 10 44  1  0
 10 45  1  0
 15 46  1  0
 15 47  1  0
 16 48  1  0
 16 49  1  0
 20 50  1  0
 20 51  1  0
 22 52  1  0
 23 53  1  0
 24 54  1  0
 25 55  1  0
 31 56  1  0
 32 57  1  0
 33 58  1  0
 34 59  1  0
 36 60  1  0
M  CHG  1  19  -1
M  END
>  <UniqueID>  (71) 
65

>  <SMILES>  (71) 
Cc1cccc(NC(=O)Cn2c(=O)n(CCC(=O)[N-]Cc3ccccc3Cl)c(=O)c3ccccc32)c1

>  <Energy>  (71) 
74.72850134289561

>  <Genealogy>  (71) 
Cc1cccc(NC(=O)Cn2c(=O)n(CCC(=O)[N-]Cc3ccccc3Cl)c(=O)c3ccccc32)c1 (protonated)
Cc1cccc(NC(=O)Cn2c(=O)n(CCC(=O)[N-]Cc3ccccc3Cl)c(=O)c3ccccc32)c1 (3D coordinates assigned)
Cc1cccc(NC(=O)Cn2c(=O)n(CCC(=O)[N-]Cc3ccccc3Cl)c(=O)c3ccccc32)c1 (optimized conformer: 74.72850134289561 kcal/mol)

>  <smiles>  (71) 
Cc1cccc(NC(=O)Cn2c(=O)n(CCC(=O)NCc3ccccc3Cl)c(=O)c3ccccc32)c1

>  <score_type>  (71) 
oracle

>  <origin>  (71) 
adg

>  <m_score__min__energy>  (71) 
-11.6

>  <m_primary>  (71) 
energy

$$$$
71:0
     RDKit          3D

 44 47  0  0  0  0  0  0  0  0999 V2000
   55.2340   29.3550   44.3900 O   0  0  0  0  0  0  0  0  0  0  0  0
   56.3240   29.7780   44.8610 C   0  0  0  0  0  0  0  0  0  0  0  0
   56.9420   29.1080   45.9670 N   0  0  0  0  0  0  0  0  0  0  0  0
   57.6420   27.8560   45.9320 C   0  0  0  0  0  0  0  0  0  0  0  0
   57.0310   26.6830   45.4510 C   0  0  0  0  0  0  0  0  0  0  0  0
   57.7310   25.4730   45.4550 C   0  0  0  0  0  0  0  0  0  0  0  0
   59.0360   25.4190   45.9470 C   0  0  0  0  0  0  0  0  0  0  0  0
   59.6430   26.5730   46.4450 C   0  0  0  0  0  0  0  0  0  0  0  0
   58.9500   27.7910   46.4480 C   0  0  0  0  0  0  0  0  0  0  0  0
   59.5930   28.9630   46.9620 N   0  0  0  0  0  0  0  0  0  0  0  0
   60.3320   29.8320   46.0450 C   0  0  0  0  0  0  0  0  0  0  0  0
   61.3550   30.6580   46.8300 C   0  0  0  0  0  0  0  0  0  0  0  0
   60.7370   31.3210   47.9170 O   0  0  0  0  0  0  0  0  0  0  0  0
   60.2610   30.3690   48.8520 C   0  0  0  0  0  0  0  0  0  0  0  0
   59.1440   29.5180   48.2400 C   0  0  0  0  0  0  0  0  0  0  0  0
   57.0350   30.8960   44.2010 C   0  0  0  0  0  0  0  0  0  0  0  0
   57.0580   30.9210   42.7980 C   0  0  0  0  0  0  0  0  0  0  0  0
   57.6560   31.9860   42.1230 C   0  0  0  0  0  0  0  0  0  0  0  0
   57.6600   32.0040   40.8630 O   0  0  0  0  0  0  0  0  0  0  0  0
   58.2290   33.0040   42.8190 N   0  0  0  0  0  0  0  0  0  0  0  0
   58.2550   33.0110   44.1830 C   0  0  0  0  0  0  0  0  0  0  0  0
   58.8790   34.0700   44.8640 C   0  0  0  0  0  0  0  0  0  0  0  0
   58.9440   34.0720   46.2570 C   0  0  0  0  0  0  0  0  0  0  0  0
   58.4010   33.0140   46.9840 C   0  0  0  0  0  0  0  0  0  0  0  0
   57.7730   31.9540   46.3240 C   0  0  0  0  0  0  0  0  0  0  0  0
   57.6680   31.9460   44.9150 C   0  0  0  0  0  0  0  0  0  0  0  0
   55.9994   26.7184   45.0707 H   0  0  0  0  0  0  0  0  0  0  0  0
   57.2520   24.5609   45.0693 H   0  0  0  0  0  0  0  0  0  0  0  0
   59.5864   24.4666   45.9423 H   0  0  0  0  0  0  0  0  0  0  0  0
   60.6698   26.5262   46.8368 H   0  0  0  0  0  0  0  0  0  0  0  0
   60.8547   29.2159   45.2985 H   0  0  0  0  0  0  0  0  0  0  0  0
   59.6288   30.5089   45.5377 H   0  0  0  0  0  0  0  0  0  0  0  0
   62.1398   29.9898   47.2141 H   0  0  0  0  0  0  0  0  0  0  0  0
   61.7900   31.4123   46.1578 H   0  0  0  0  0  0  0  0  0  0  0  0
   61.0909   29.7127   49.1529 H   0  0  0  0  0  0  0  0  0  0  0  0
   59.8594   30.9029   49.7259 H   0  0  0  0  0  0  0  0  0  0  0  0
   58.8912   28.6969   48.9270 H   0  0  0  0  0  0  0  0  0  0  0  0
   58.2562   30.1458   48.0737 H   0  0  0  0  0  0  0  0  0  0  0  0
   56.6028   30.0977   42.2280 H   0  0  0  0  0  0  0  0  0  0  0  0
   58.6650   33.7900   42.2860 H   0  0  0  0  0  0  0  0  0  0  0  0
   59.3188   34.9023   44.2949 H   0  0  0  0  0  0  0  0  0  0  0  0
   59.4247   34.9100   46.7830 H   0  0  0  0  0  0  0  0  0  0  0  0
   58.4670   33.0133   48.0820 H   0  0  0  0  0  0  0  0  0  0  0  0
   57.3569   31.1188   46.9065 H   0  0  0  0  0  0  0  0  0  0  0  0
  1  2  2  0
  2  3  1  0
  3  4  1  0
  4  5  2  0
  5  6  1  0
  6  7  2  0
  7  8  1  0
  8  9  2  0
  9 10  1  0
 10 11  1  0
 11 12  1  0
 12 13  1  0
 13 14  1  0
 14 15  1  0
  2 16  1  0
 16 17  2  0
 17 18  1  0
 18 19  2  0
 18 20  1  0
 20 21  1  0
 21 22  2  0
 22 23  1  0
 23 24  2  0
 24 25  1  0
 25 26  2  0
  9  4  1  0
 15 10  1  0
 26 16  1  0
 26 21  1  0
  5 27  1  0
  6 28  1  0
  7 29  1  0
  8 30  1  0
 11 31  1  0
 11 32  1  0
 12 33  1  0
 12 34  1  0
 14 35  1  0
 14 36  1  0
 15 37  1  0
 15 38  1  0
 17 39  1  0
 20 40  1  0
 22 41  1  0
 23 42  1  0
 24 43  1  0
 25 44  1  0
M  CHG  1   3  -1
M  END
>  <UniqueID>  (72) 
66

>  <SMILES>  (72) 
O=C([N-]c1ccccc1N1CCOCC1)c1cc(=O)[nH]c2ccccc12

>  <Energy>  (72) 
67.8031775529964

>  <Genealogy>  (72) 
O=C([N-]c1ccccc1N1CCOCC1)c1cc(=O)[nH]c2ccccc12 (protonated)
O=C([N-]c1ccccc1N1CCOCC1)c1cc(=O)[nH]c2ccccc12 (3D coordinates assigned)
O=C([N-]c1ccccc1N1CCOCC1)c1cc(=O)[nH]c2ccccc12 (nonaromatic ring conformer: 67.8031775529964 kcal/mol)

>  <smiles>  (72) 
O=C(Nc1ccccc1N1CCOCC1)c1cc(=O)[nH]c2ccccc12

>  <score_type>  (72) 
oracle

>  <origin>  (72) 
adg

>  <m_score__min__energy>  (72) 
-9.8900000000000006

>  <m_primary>  (72) 
energy

$$$$
72:0
     RDKit          3D

 33 35  0  0  0  0  0  0  0  0999 V2000
   55.3430   30.1010   43.7000 C   0  0  0  0  0  0  0  0  0  0  0  0
   55.7640   29.5460   44.9400 O   0  0  0  0  0  0  0  0  0  0  0  0
   56.9020   28.7440   45.0410 C   0  0  0  0  0  0  0  0  0  0  0  0
   58.1680   29.2150   44.6060 C   0  0  0  0  0  0  0  0  0  0  0  0
   58.3270   30.4860   44.0360 O   0  0  0  0  0  0  0  0  0  0  0  0
   58.5230   31.6730   44.7560 C   0  0  0  0  0  0  0  0  0  0  0  0
   59.1460   31.6050   46.0070 C   0  0  0  0  0  0  0  0  0  0  0  0
   59.3680   32.7670   46.7520 C   0  0  0  0  0  0  0  0  0  0  0  0
   58.9650   34.0150   46.2520 C   0  0  0  0  0  0  0  0  0  0  0  0
   59.2370   35.2670   47.0340 C   0  0  0  0  0  0  0  0  0  0  0  0
   58.3740   34.0900   44.9820 C   0  0  0  0  0  0  0  0  0  0  0  0
   58.1520   32.9270   44.2380 C   0  0  0  0  0  0  0  0  0  0  0  0
   59.3190   28.4130   44.7940 C   0  0  0  0  0  0  0  0  0  0  0  0
   59.2210   27.1310   45.3630 C   0  0  0  0  0  0  0  0  0  0  0  0
   57.9590   26.6850   45.7410 C   0  0  0  0  0  0  0  0  0  0  0  0
   57.6380   25.4880   46.2680 N   0  0  0  0  0  0  0  0  0  0  0  0
   56.2920   25.5870   46.4100 C   0  0  0  0  0  0  0  0  0  0  0  0
   55.5870   24.6530   46.8730 O   0  0  0  0  0  0  0  0  0  0  0  0
   55.7720   26.7680   46.0020 N   0  0  0  0  0  0  0  0  0  0  0  0
   56.8440   27.4570   45.5870 C   0  0  0  0  0  0  0  0  0  0  0  0
   54.6880   30.9645   43.8883 H   0  0  0  0  0  0  0  0  0  0  0  0
   56.2233   30.4267   43.1263 H   0  0  0  0  0  0  0  0  0  0  0  0
   54.7921   29.3411   43.1263 H   0  0  0  0  0  0  0  0  0  0  0  0
   59.4633   30.6307   46.4070 H   0  0  0  0  0  0  0  0  0  0  0  0
   59.8603   32.7029   47.7336 H   0  0  0  0  0  0  0  0  0  0  0  0
   59.1887   35.0448   48.1103 H   0  0  0  0  0  0  0  0  0  0  0  0
   60.2385   35.6462   46.7824 H   0  0  0  0  0  0  0  0  0  0  0  0
   58.4831   36.0275   46.7824 H   0  0  0  0  0  0  0  0  0  0  0  0
   58.0840   35.0677   44.5697 H   0  0  0  0  0  0  0  0  0  0  0  0
   57.6855   32.9930   43.2440 H   0  0  0  0  0  0  0  0  0  0  0  0
   60.3038   28.7980   44.4908 H   0  0  0  0  0  0  0  0  0  0  0  0
   60.1123   26.5020   45.5044 H   0  0  0  0  0  0  0  0  0  0  0  0
   54.7670   27.0540   45.9910 H   0  0  0  0  0  0  0  0  0  0  0  0
  1  2  1  0
  2  3  1  0
  3  4  2  0
  4  5  1  0
  5  6  1  0
  6  7  2  0
  7  8  1  0
  8  9  2  0
  9 10  1  0
  9 11  1  0
 11 12  2  0
  4 13  1  0
 13 14  2  0
 14 15  1  0
 15 16  1  0
 16 17  1  0
 17 18  2  0
 17 19  1  0
 19 20  1  0
 20  3  1  0
 12  6  1  0
 20 15  2  0
  1 21  1  0
  1 22  1  0
  1 23  1  0
  7 24  1  0
  8 25  1  0
 10 26  1  0
 10 27  1  0
 10 28  1  0
 11 29  1  0
 12 30  1  0
 13 31  1  0
 14 32  1  0
 19 33  1  0
M  CHG  1  16  -1
M  END
>  <UniqueID>  (73) 
67

>  <SMILES>  (73) 
COc1c(Oc2ccc(C)cc2)ccc2[n-]c(=O)[nH]c12

>  <Energy>  (73) 
84.32626461686186

>  <Genealogy>  (73) 
COc1c(Oc2ccc(C)cc2)ccc2[n-]c(=O)[nH]c12 (protonated)
COc1c(Oc2ccc(C)cc2)ccc2[n-]c(=O)[nH]c12 (3D coordinates assigned)
COc1c(Oc2ccc(C)cc2)ccc2[n-]c(=O)[nH]c12 (optimized conformer: 84.32626461686186 kcal/mol)

>  <smiles>  (73) 
COc1c(Oc2ccc(C)cc2)ccc2[nH]c(=O)[nH]c12

>  <score_type>  (73) 
oracle

>  <origin>  (73) 
adg

>  <m_score__min__energy>  (73) 
-9.4199999999999999

>  <m_primary>  (73) 
energy

$$$$
73:0
     RDKit          3D

 21 22  0  0  0  0  0  0  0  0999 V2000
   57.1810   34.2560   44.9680 N   0  0  0  0  0  0  0  0  0  0  0  0
   58.5750   33.3710   44.4610 S   0  0  0  0  0  0  0  0  0  0  0  0
   59.8130   34.0750   44.9390 O   0  0  0  0  0  0  0  0  0  0  0  0
   58.6100   33.3030   42.9600 O   0  0  0  0  0  0  0  0  0  0  0  0
   58.5130   31.7430   45.1300 C   0  0  0  0  0  0  0  0  0  0  0  0
   59.5770   31.2570   45.9020 C   0  0  0  0  0  0  0  0  0  0  0  0
   59.5260   29.9690   46.4430 C   0  0  0  0  0  0  0  0  0  0  0  0
   58.4070   29.1600   46.2210 C   0  0  0  0  0  0  0  0  0  0  0  0
   58.3570   27.9100   46.7470 N   0  0  0  0  0  0  0  0  0  0  0  0
   57.2830   27.1050   46.5480 C   0  0  0  0  0  0  0  0  0  0  0  0
   57.2710   25.9510   47.0520 O   0  0  0  0  0  0  0  0  0  0  0  0
   56.2240   27.5420   45.8090 N   0  0  0  0  0  0  0  0  0  0  0  0
   55.1400   26.7140   45.6160 O   0  0  0  0  0  0  0  0  0  0  0  0
   56.2250   28.7910   45.2590 C   0  0  0  0  0  0  0  0  0  0  0  0
   55.2340   29.1740   44.5790 O   0  0  0  0  0  0  0  0  0  0  0  0
   57.3280   29.6400   45.4520 C   0  0  0  0  0  0  0  0  0  0  0  0
   57.3870   30.9370   44.9100 C   0  0  0  0  0  0  0  0  0  0  0  0
   56.3550   33.6310   44.8280 H   0  0  0  0  0  0  0  0  0  0  0  0
   60.4566   31.8922   46.0831 H   0  0  0  0  0  0  0  0  0  0  0  0
   60.3666   29.5915   47.0437 H   0  0  0  0  0  0  0  0  0  0  0  0
   56.5471   31.3199   44.3117 H   0  0  0  0  0  0  0  0  0  0  0  0
  1  2  1  0
  2  3  2  0
  2  4  2  0
  2  5  1  0
  5  6  2  0
  6  7  1  0
  7  8  2  0
  8  9  1  0
  9 10  1  0
 10 11  2  0
 10 12  1  0
 12 13  1  0
 12 14  1  0
 14 15  2  0
 14 16  1  0
 16 17  2  0
 17  5  1  0
 16  8  1  0
  1 18  1  0
  6 19  1  0
  7 20  1  0
 17 21  1  0
M  CHG  3   1  -1   9  -1  13  -1
M  END
>  <UniqueID>  (74) 
68

>  <SMILES>  (74) 
[NH-]S(=O)(=O)c1ccc2[n-]c(=O)n([O-])c(=O)c2c1

>  <Energy>  (74) 
27.092586856406864

>  <Genealogy>  (74) 
[NH-]S(=O)(=O)c1ccc2[n-]c(=O)n([O-])c(=O)c2c1 (protonated)
[NH-]S(=O)(=O)c1ccc2[n-]c(=O)n([O-])c(=O)c2c1 (3D coordinates assigned)
[NH-]S(=O)(=O)c1ccc2[n-]c(=O)n([O-])c(=O)c2c1 (optimized conformer: 27.092586856406864 kcal/mol)

>  <smiles>  (74) 
NS(=O)(=O)c1ccc2[nH]c(=O)n(O)c(=O)c2c1

>  <score_type>  (74) 
oracle

>  <origin>  (74) 
adg

>  <m_score__min__energy>  (74) 
-12.390000000000001

>  <m_primary>  (74) 
energy

$$$$
74:0
     RDKit          3D

 58 62  0  0  1  0  0  0  0  0999 V2000
   58.5740   30.8700   48.4650 O   0  0  0  0  0  0  0  0  0  0  0  0
   59.7920   30.2220   47.8650 S   0  0  0  0  0  0  0  0  0  0  0  0
   60.7500   31.2930   47.5030 O   0  0  0  0  0  0  0  0  0  0  0  0
   60.1080   34.7020   47.2160 N   0  0  0  0  0  0  0  0  0  0  0  0
   59.4910   34.0140   46.3440 C   0  0  0  0  0  0  0  0  0  0  0  0
   59.4350   34.4800   45.0750 N   0  0  0  0  0  0  0  0  0  0  0  0
   58.7930   33.7960   44.0960 C   0  0  0  0  0  0  0  0  0  0  0  0
   61.5240   29.8660   52.7300 C   0  0  0  0  0  0  0  0  0  0  0  0
   61.9720   28.7240   51.3150 S   0  0  0  0  0  0  0  0  0  0  0  0
   59.3590   29.2980   46.4450 C   0  0  0  0  0  0  0  0  0  0  0  0
   59.9990   28.1290   46.1030 C   0  0  0  0  0  0  0  0  0  0  0  0
   59.6160   27.4410   44.9710 C   0  0  0  0  0  0  0  0  0  0  0  0
   58.5850   27.8900   44.1420 C   0  0  0  0  0  0  0  0  0  0  0  0
   57.9610   29.0670   44.5140 C   0  0  0  0  0  0  0  0  0  0  0  0
   58.3210   29.7810   45.6420 C   0  0  0  0  0  0  0  0  0  0  0  0
   60.5510   29.1660   48.9990 N   0  0  0  0  0  0  0  0  0  0  0  0
   60.7270   29.5310   50.1810 C   0  0  0  0  0  0  0  0  0  0  0  0
   58.9050   32.8460   46.6740 N   0  0  0  0  0  0  0  0  0  0  0  0
   58.2530   32.1150   45.7620 C   0  0  0  0  0  0  0  0  0  0  0  0
   57.6730   30.9930   46.0140 N   0  0  0  0  0  0  0  0  0  0  0  0
   61.1050   34.1520   48.0720 C   0  0  0  0  0  0  0  0  0  0  0  0
   62.3390   33.8630   47.5170 C   0  0  0  0  0  0  0  0  0  0  0  0
   63.3720   33.3220   48.2880 C   0  0  0  0  0  0  0  0  0  0  0  0
   63.1550   33.0690   49.6430 C   0  0  0  0  0  0  0  0  0  0  0  0
   64.2280   32.5150   50.4210 N   0  0  0  0  0  0  0  0  0  0  0  0
   63.9140   32.2070   51.8020 C   0  0  0  0  0  0  0  0  0  0  0  0
   65.1650   31.7100   52.4990 C   0  0  0  0  0  0  0  0  0  0  0  0
   66.2020   32.5750   52.0860 O   0  0  0  0  0  0  0  0  0  0  0  0
   66.6010   32.0980   50.8410 C   0  0  0  0  0  0  0  0  0  0  0  0
   65.5130   32.2990   49.8130 C   0  0  0  0  0  0  0  0  0  0  0  0
   61.9220   33.3620   50.1830 C   0  0  0  0  0  0  0  0  0  0  0  0
   60.8940   33.9020   49.4130 C   0  0  0  0  0  0  0  0  0  0  0  0
   60.1680   30.4850   50.9410 N   0  0  0  0  0  0  0  0  0  0  0  0
   60.5150   30.6790   52.1570 C   0  0  0  0  0  0  0  0  0  0  0  0
   58.2000   32.5930   44.4750 C   0  0  0  0  0  0  0  0  0  0  0  0
   57.3680   31.7110   43.2010 Cl  0  0  0  0  0  0  0  0  0  0  0  0
   59.9070   35.3940   44.8670 H   0  0  0  0  0  0  0  0  0  0  0  0
   58.7431   34.1690   43.0624 H   0  0  0  0  0  0  0  0  0  0  0  0
   61.9391   29.8976   53.7482 H   0  0  0  0  0  0  0  0  0  0  0  0
   60.8152   27.7437   46.7318 H   0  0  0  0  0  0  0  0  0  0  0  0
   60.1391   26.5086   44.7124 H   0  0  0  0  0  0  0  0  0  0  0  0
   58.2850   27.3362   43.2402 H   0  0  0  0  0  0  0  0  0  0  0  0
   57.1438   29.4513   43.8859 H   0  0  0  0  0  0  0  0  0  0  0  0
   58.9550   32.4960   47.6560 H   0  0  0  0  0  0  0  0  0  0  0  0
   62.5105   34.0627   46.4490 H   0  0  0  0  0  0  0  0  0  0  0  0
   64.3470   33.0978   47.8307 H   0  0  0  0  0  0  0  0  0  0  0  0
   63.5470   33.1129   52.3066 H   0  0  0  0  0  0  0  0  0  0  0  0
   63.1366   31.4297   51.8396 H   0  0  0  0  0  0  0  0  0  0  0  0
   65.0395   31.7557   53.5909 H   0  0  0  0  0  0  0  0  0  0  0  0
   65.3836   30.6629   52.2427 H   0  0  0  0  0  0  0  0  0  0  0  0
   67.5037   32.6388   50.5205 H   0  0  0  0  0  0  0  0  0  0  0  0
   66.8086   31.0212   50.9272 H   0  0  0  0  0  0  0  0  0  0  0  0
   65.7652   33.1741   49.1961 H   0  0  0  0  0  0  0  0  0  0  0  0
   65.4501   31.3857   49.2031 H   0  0  0  0  0  0  0  0  0  0  0  0
   61.7443   33.1644   51.2504 H   0  0  0  0  0  0  0  0  0  0  0  0
   59.9198   34.1278   49.8711 H   0  0  0  0  0  0  0  0  0  0  0  0
   59.3960   31.0900   50.4620 H   0  0  0  0  0  0  0  0  0  0  0  0
   60.0345   31.4696   52.7521 H   0  0  0  0  0  0  0  0  0  0  0  0
  1  2  2  0
  2  3  2  0
  2  4  1  0
  4  5  2  0
  5  6  1  0
  6  7  1  0
  7  8  2  0
  8  9  1  0
  2 10  1  0
 10 11  2  0
 11 12  1  0
 12 13  2  0
 13 14  1  0
 14 15  2  0
 15 16  1  0
 16 17  2  0
 17 18  1  0
 18 19  1  0
 19 20  2  0
 20 21  1  0
 21 22  2  0
 22 23  1  0
 23 24  2  0
 24 25  1  0
 25 26  1  0
 26 27  1  0
 27 28  1  0
 28 29  1  0
 29 30  1  0
 24 31  1  0
 31 32  2  0
 19 33  1  0
 33 34  1  0
 34 35  2  0
 35 36  1  0
  9  5  1  0
 15 10  1  0
 35 17  1  0
 32 21  1  0
 30 25  1  0
  6 37  1  0
  7 38  1  0
  8 39  1  0
 11 40  1  0
 12 41  1  0
 13 42  1  0
 14 43  1  0
 18 44  1  0
 22 45  1  0
 23 46  1  0
 26 47  1  0
 26 48  1  0
 27 49  1  0
 27 50  1  0
 29 51  1  0
 29 52  1  0
 30 53  1  0
 30 54  1  0
 31 55  1  0
 32 56  1  0
 33 57  1  0
 34 58  1  0
M  END
>  <smiles>  (75) 
O=S(=O)(N=c1[nH]ccs1)c1ccccc1N=c1[nH]c(=Nc2ccc(N3CCOCC3)cc2)[nH]cc1Cl

>  <score_type>  (75) 
oracle

>  <origin>  (75) 
adg

>  <m_score__min__energy>  (75) 
-10

>  <m_primary>  (75) 
energy

$$$$
75:0
     RDKit          3D

 31 32  0  0  0  0  0  0  0  0999 V2000
   58.8790   34.4380   46.7000 N   0  0  0  0  0  0  0  0  0  0  0  0
   58.2460   33.8810   45.1920 S   0  0  0  0  0  0  0  0  0  0  0  0
   59.2440   34.1440   44.0990 O   0  0  0  0  0  0  0  0  0  0  0  0
   56.9790   34.6280   44.8770 O   0  0  0  0  0  0  0  0  0  0  0  0
   57.9140   32.1550   45.2940 C   0  0  0  0  0  0  0  0  0  0  0  0
   57.0150   31.5550   44.4040 C   0  0  0  0  0  0  0  0  0  0  0  0
   56.7420   30.1880   44.4940 C   0  0  0  0  0  0  0  0  0  0  0  0
   57.3550   29.4000   45.4830 C   0  0  0  0  0  0  0  0  0  0  0  0
   57.0470   27.9950   45.5520 N   0  0  0  0  0  0  0  0  0  0  0  0
   57.5790   27.0780   46.5630 C   0  0  0  0  0  0  0  0  0  0  0  0
   56.9600   25.7090   46.4220 C   0  0  0  0  0  0  0  0  0  0  0  0
   57.7570   24.5580   46.5520 C   0  0  0  0  0  0  0  0  0  0  0  0
   57.1880   23.2860   46.4270 C   0  0  0  0  0  0  0  0  0  0  0  0
   57.9820   22.1540   46.5630 O   0  0  0  0  0  0  0  0  0  0  0  0
   55.8220   23.1530   46.1650 C   0  0  0  0  0  0  0  0  0  0  0  0
   55.0240   24.2900   46.0220 C   0  0  0  0  0  0  0  0  0  0  0  0
   55.5850   25.5660   46.1460 C   0  0  0  0  0  0  0  0  0  0  0  0
   54.7720   26.6840   45.9900 O   0  0  0  0  0  0  0  0  0  0  0  0
   58.2600   30.0090   46.3730 C   0  0  0  0  0  0  0  0  0  0  0  0
   58.5310   31.3780   46.2810 C   0  0  0  0  0  0  0  0  0  0  0  0
   58.5630   35.4270   46.8160 H   0  0  0  0  0  0  0  0  0  0  0  0
   56.5217   32.1624   43.6309 H   0  0  0  0  0  0  0  0  0  0  0  0
   56.0410   29.7242   43.7844 H   0  0  0  0  0  0  0  0  0  0  0  0
   56.3550   27.6040   44.8720 H   0  0  0  0  0  0  0  0  0  0  0  0
   58.6688   26.9959   46.4379 H   0  0  0  0  0  0  0  0  0  0  0  0
   57.3374   27.4736   47.5605 H   0  0  0  0  0  0  0  0  0  0  0  0
   58.8338   24.6582   46.7531 H   0  0  0  0  0  0  0  0  0  0  0  0
   55.3750   22.1523   46.0713 H   0  0  0  0  0  0  0  0  0  0  0  0
   53.9498   24.1822   45.8110 H   0  0  0  0  0  0  0  0  0  0  0  0
   58.7572   29.4042   47.1457 H   0  0  0  0  0  0  0  0  0  0  0  0
   59.2322   31.8461   46.9875 H   0  0  0  0  0  0  0  0  0  0  0  0
  1  2  1  0
  2  3  2  0
  2  4  2  0
  2  5  1  0
  5  6  2  0
  6  7  1  0
  7  8  2  0
  8  9  1  0
  9 10  1  0
 10 11  1  0
 11 12  2  0
 12 13  1  0
 13 14  1  0
 13 15  2  0
 15 16  1  0
 16 17  2  0
 17 18  1  0
  8 19  1  0
 19 20  2  0
 20  5  1  0
 17 11  1  0
  1 21  1  0
  6 22  1  0
  7 23  1  0
  9 24  1  0
 10 25  1  0
 10 26  1  0
 12 27  1  0
 15 28  1  0
 16 29  1  0
 19 30  1  0
 20 31  1  0
M  CHG  3   1  -1  14  -1  18  -1
M  END
>  <UniqueID>  (76) 
69

>  <SMILES>  (76) 
[NH-]S(=O)(=O)c1ccc(NCc2cc([O-])ccc2[O-])cc1

>  <Energy>  (76) 
31.4233229626298

>  <Genealogy>  (76) 
[NH-]S(=O)(=O)c1ccc(NCc2cc([O-])ccc2[O-])cc1 (protonated)
[NH-]S(=O)(=O)c1ccc(NCc2cc([O-])ccc2[O-])cc1 (3D coordinates assigned)
[NH-]S(=O)(=O)c1ccc(NCc2cc([O-])ccc2[O-])cc1 (optimized conformer: 31.4233229626298 kcal/mol)

>  <smiles>  (76) 
NS(=O)(=O)c1ccc(NCc2cc(O)ccc2O)cc1

>  <score_type>  (76) 
oracle

>  <origin>  (76) 
adg

>  <m_score__min__energy>  (76) 
-12.84

>  <m_primary>  (76) 
energy

$$$$
76:0
     RDKit          3D

 50 53  0  0  0  0  0  0  0  0999 V2000
   57.7320   21.4730   44.1530 C   0  0  0  0  0  0  0  0  0  0  0  0
   56.8770   21.5290   45.2880 O   0  0  0  0  0  0  0  0  0  0  0  0
   57.1020   22.4000   46.3610 C   0  0  0  0  0  0  0  0  0  0  0  0
   57.3800   21.9360   47.5020 O   0  0  0  0  0  0  0  0  0  0  0  0
   57.0130   23.8630   46.1540 C   0  0  0  0  0  0  0  0  0  0  0  0
   55.7670   24.5130   46.1570 C   0  0  0  0  0  0  0  0  0  0  0  0
   55.6860   25.8950   45.9610 C   0  0  0  0  0  0  0  0  0  0  0  0
   56.8500   26.6570   45.7580 C   0  0  0  0  0  0  0  0  0  0  0  0
   56.7670   28.1220   45.5520 C   0  0  0  0  0  0  0  0  0  0  0  0
   55.6810   28.6440   45.1800 O   0  0  0  0  0  0  0  0  0  0  0  0
   57.9060   28.9520   45.8240 N   0  0  0  0  0  0  0  0  0  0  0  0
   58.0030   30.3670   45.6140 C   0  0  0  0  0  0  0  0  0  0  0  0
   57.7460   30.8740   44.3380 C   0  0  0  0  0  0  0  0  0  0  0  0
   57.8000   32.2480   44.0950 C   0  0  0  0  0  0  0  0  0  0  0  0
   58.0940   33.1450   45.1330 C   0  0  0  0  0  0  0  0  0  0  0  0
   58.1110   34.6210   44.8420 C   0  0  0  0  0  0  0  0  0  0  0  0
   58.3740   32.6380   46.4230 C   0  0  0  0  0  0  0  0  0  0  0  0
   58.6950   33.5100   47.5180 N   0  0  0  0  0  0  0  0  0  0  0  0
   59.9730   33.5180   48.1780 C   0  0  0  0  0  0  0  0  0  0  0  0
   60.0860   33.7990   49.5670 C   0  0  0  0  0  0  0  0  0  0  0  0
   61.3420   33.8130   50.1980 C   0  0  0  0  0  0  0  0  0  0  0  0
   62.4680   33.5540   49.4220 C   0  0  0  0  0  0  0  0  0  0  0  0
   62.3690   33.2940   48.0740 C   0  0  0  0  0  0  0  0  0  0  0  0
   61.1390   33.2750   47.4220 C   0  0  0  0  0  0  0  0  0  0  0  0
   63.7210   33.0770   47.5690 C   0  0  0  0  0  0  0  0  0  0  0  0
   64.0270   32.8140   46.3770 O   0  0  0  0  0  0  0  0  0  0  0  0
   64.6700   33.2040   48.6260 N   0  0  0  0  0  0  0  0  0  0  0  0
   63.8810   33.5020   49.7780 C   0  0  0  0  0  0  0  0  0  0  0  0
   64.3590   33.6890   50.9270 O   0  0  0  0  0  0  0  0  0  0  0  0
   58.2920   31.2590   46.6620 C   0  0  0  0  0  0  0  0  0  0  0  0
   58.0960   26.0050   45.7560 C   0  0  0  0  0  0  0  0  0  0  0  0
   58.1750   24.6240   45.9520 C   0  0  0  0  0  0  0  0  0  0  0  0
   58.7784   21.4045   44.4852 H   0  0  0  0  0  0  0  0  0  0  0  0
   57.4808   20.5894   43.5479 H   0  0  0  0  0  0  0  0  0  0  0  0
   57.5982   22.3818   43.5479 H   0  0  0  0  0  0  0  0  0  0  0  0
   54.8479   23.9297   46.3149 H   0  0  0  0  0  0  0  0  0  0  0  0
   54.7037   26.3901   45.9657 H   0  0  0  0  0  0  0  0  0  0  0  0
   57.4988   30.1846   43.5172 H   0  0  0  0  0  0  0  0  0  0  0  0
   57.6104   32.6304   43.0812 H   0  0  0  0  0  0  0  0  0  0  0  0
   58.1175   35.1813   45.7886 H   0  0  0  0  0  0  0  0  0  0  0  0
   59.0121   34.8701   44.2623 H   0  0  0  0  0  0  0  0  0  0  0  0
   57.2159   34.8908   44.2623 H   0  0  0  0  0  0  0  0  0  0  0  0
   57.9240   34.0900   47.9170 H   0  0  0  0  0  0  0  0  0  0  0  0
   59.1800   34.0079   50.1548 H   0  0  0  0  0  0  0  0  0  0  0  0
   61.4324   34.0226   51.2741 H   0  0  0  0  0  0  0  0  0  0  0  0
   61.0778   33.0751   46.3421 H   0  0  0  0  0  0  0  0  0  0  0  0
   65.7070   33.1040   48.5700 H   0  0  0  0  0  0  0  0  0  0  0  0
   58.4552   30.8713   47.6784 H   0  0  0  0  0  0  0  0  0  0  0  0
   59.0160   26.5871   45.5988 H   0  0  0  0  0  0  0  0  0  0  0  0
   59.1570   24.1284   45.9480 H   0  0  0  0  0  0  0  0  0  0  0  0
  1  2  1  0
  2  3  1  0
  3  4  2  0
  3  5  1  0
  5  6  2  0
  6  7  1  0
  7  8  2  0
  8  9  1  0
  9 10  2  0
  9 11  1  0
 11 12  1  0
 12 13  2  0
 13 14  1  0
 14 15  2  0
 15 16  1  0
 15 17  1  0
 17 18  1  0
 18 19  1  0
 19 20  2  0
 20 21  1  0
 21 22  2  0
 22 23  1  0
 23 24  2  0
 23 25  1  0
 25 26  2  0
 25 27  1  0
 27 28  1  0
 28 29  2  0
 17 30  2  0
  8 31  1  0
 31 32  2  0
 32  5  1  0
 30 12  1  0
 24 19  1  0
 28 22  1  0
  1 33  1  0
  1 34  1  0
  1 35  1  0
  6 36  1  0
  7 37  1  0
 13 38  1  0
 14 39  1  0
 16 40  1  0
 16 41  1  0
 16 42  1  0
 18 43  1  0
 20 44  1  0
 21 45  1  0
 24 46  1  0
 27 47  1  0
 30 48  1  0
 31 49  1  0
 32 50  1  0
M  CHG  1  11  -1
M  END
>  <UniqueID>  (77) 
70

>  <SMILES>  (77) 
COC(=O)c1ccc(C(=O)[N-]c2ccc(C)c(Nc3ccc4c(c3)C(=O)NC4=O)c2)cc1

>  <Energy>  (77) 
95.73326386970248

>  <Genealogy>  (77) 
COC(=O)c1ccc(C(=O)[N-]c2ccc(C)c(Nc3ccc4c(c3)C(=O)NC4=O)c2)cc1 (protonated)
COC(=O)c1ccc(C(=O)[N-]c2ccc(C)c(Nc3ccc4c(c3)C(=O)NC4=O)c2)cc1 (3D coordinates assigned)
COC(=O)c1ccc(C(=O)[N-]c2ccc(C)c(Nc3ccc4c(c3)C(=O)NC4=O)c2)cc1 (nonaromatic ring conformer: 95.73326386970248 kcal/mol)

>  <smiles>  (77) 
COC(=O)c1ccc(C(=O)Nc2ccc(C)c(Nc3ccc4c(c3)C(=O)NC4=O)c2)cc1

>  <score_type>  (77) 
oracle

>  <origin>  (77) 
adg

>  <m_score__min__energy>  (77) 
-11.01

>  <m_primary>  (77) 
energy

$$$$
77:0
     RDKit          3D

 73 78  0  0  0  0  0  0  0  0999 V2000
   56.2520   25.3980   45.4660 C   0  0  0  0  0  0  0  0  0  0  0  0
   56.1560   26.8090   45.6340 O   0  0  0  0  0  0  0  0  0  0  0  0
   57.1870   27.6190   46.1320 C   0  0  0  0  0  0  0  0  0  0  0  0
   58.1300   27.1500   47.0640 C   0  0  0  0  0  0  0  0  0  0  0  0
   59.1590   27.9900   47.5180 C   0  0  0  0  0  0  0  0  0  0  0  0
   60.0900   27.5500   48.5220 N   0  0  0  0  0  0  0  0  0  0  0  0
   60.2830   28.0500   49.7140 C   0  0  0  0  0  0  0  0  0  0  0  0
   61.3320   27.6180   50.5510 C   0  0  0  0  0  0  0  0  0  0  0  0
   61.4840   28.1870   51.8120 C   0  0  0  0  0  0  0  0  0  0  0  0
   60.6100   29.1840   52.2360 C   0  0  0  0  0  0  0  0  0  0  0  0
   59.5880   29.6220   51.3840 C   0  0  0  0  0  0  0  0  0  0  0  0
   58.6710   30.7230   51.8880 C   0  0  0  0  0  0  0  0  0  0  0  0
   57.1890   30.4010   52.0180 C   0  0  0  0  0  0  0  0  0  0  0  0
   57.6780   31.3050   50.8910 C   0  0  0  0  0  0  0  0  0  0  0  0
   59.4600   29.0520   50.1430 N   0  0  0  0  0  0  0  0  0  0  0  0
   59.2020   29.3210   47.0930 C   0  0  0  0  0  0  0  0  0  0  0  0
   58.2610   29.8140   46.1710 C   0  0  0  0  0  0  0  0  0  0  0  0
   58.3090   31.1910   45.7360 N   0  0  0  0  0  0  0  0  0  0  0  0
   57.6030   31.6060   44.5190 C   0  0  0  0  0  0  0  0  0  0  0  0
   57.5470   33.1320   44.4370 C   0  0  0  0  0  0  0  0  0  0  0  0
   58.8450   33.6830   44.5130 O   0  0  0  0  0  0  0  0  0  0  0  0
   59.5460   33.3400   45.7090 C   0  0  1  0  0  0  0  0  0  0  0  0
   59.8020   34.6070   46.5390 C   0  0  0  0  0  0  0  0  0  0  0  0
   60.1430   34.2570   47.9190 N   0  0  0  0  0  0  0  0  0  0  0  0
   59.2980   34.4400   48.9270 N   0  0  0  0  0  0  0  0  0  0  0  0
   59.9070   34.0070   50.0450 C   0  0  0  0  0  0  0  0  0  0  0  0
   61.1510   33.5050   49.7440 C   0  0  0  0  0  0  0  0  0  0  0  0
   61.2930   33.7050   48.3830 C   0  0  0  0  0  0  0  0  0  0  0  0
   62.7410   33.3720   47.4240 S   0  0  0  0  0  0  0  0  0  0  0  0
   63.0910   31.6280   47.4290 C   0  0  0  0  0  0  0  0  0  0  0  0
   63.9210   34.1010   48.0000 O   0  0  0  0  0  0  0  0  0  0  0  0
   62.5300   33.8490   46.0140 O   0  0  0  0  0  0  0  0  0  0  0  0
   62.1220   32.9980   50.7700 C   0  0  0  0  0  0  0  0  0  0  0  0
   61.3940   32.6870   52.0940 C   0  0  0  0  0  0  0  0  0  0  0  0
   60.4010   33.8010   52.4810 C   0  0  0  0  0  0  0  0  0  0  0  0
   59.3030   33.9800   51.4150 C   0  0  0  0  0  0  0  0  0  0  0  0
   58.9000   32.2320   46.5850 C   0  0  0  0  0  0  0  0  0  0  0  0
   57.2650   28.9430   45.6880 C   0  0  0  0  0  0  0  0  0  0  0  0
   56.2850   24.9127   46.4526 H   0  0  0  0  0  0  0  0  0  0  0  0
   55.3765   25.0348   44.9078 H   0  0  0  0  0  0  0  0  0  0  0  0
   57.1686   25.1567   44.9078 H   0  0  0  0  0  0  0  0  0  0  0  0
   58.0608   26.1184   47.4396 H   0  0  0  0  0  0  0  0  0  0  0  0
   62.0261   26.8360   50.2095 H   0  0  0  0  0  0  0  0  0  0  0  0
   62.2950   27.8488   52.4737 H   0  0  0  0  0  0  0  0  0  0  0  0
   60.7215   29.6265   53.2369 H   0  0  0  0  0  0  0  0  0  0  0  0
   59.4353   31.1374   52.5619 H   0  0  0  0  0  0  0  0  0  0  0  0
   56.8242   29.3882   51.7918 H   0  0  0  0  0  0  0  0  0  0  0  0
   56.4404   30.4916   52.8189 H   0  0  0  0  0  0  0  0  0  0  0  0
   57.6662   30.9443   49.8519 H   0  0  0  0  0  0  0  0  0  0  0  0
   57.4286   32.3179   50.5419 H   0  0  0  0  0  0  0  0  0  0  0  0
   58.7090   29.3680   49.4910 H   0  0  0  0  0  0  0  0  0  0  0  0
   59.9815   29.9912   47.4845 H   0  0  0  0  0  0  0  0  0  0  0  0
   58.1339   31.2138   43.6390 H   0  0  0  0  0  0  0  0  0  0  0  0
   56.5773   31.2095   44.5455 H   0  0  0  0  0  0  0  0  0  0  0  0
   57.0851   33.4258   43.4829 H   0  0  0  0  0  0  0  0  0  0  0  0
   56.9518   33.5103   45.2811 H   0  0  0  0  0  0  0  0  0  0  0  0
   60.4908   32.8912   45.3684 H   0  0  0  0  0  0  0  0  0  0  0  0
   60.6347   35.1701   46.0922 H   0  0  0  0  0  0  0  0  0  0  0  0
   58.8884   35.2196   46.5432 H   0  0  0  0  0  0  0  0  0  0  0  0
   63.1626   31.2714   48.4671 H   0  0  0  0  0  0  0  0  0  0  0  0
   62.2828   31.0903   46.9115 H   0  0  0  0  0  0  0  0  0  0  0  0
   64.0440   31.4438   46.9115 H   0  0  0  0  0  0  0  0  0  0  0  0
   62.5992   32.0806   50.3949 H   0  0  0  0  0  0  0  0  0  0  0  0
   62.8817   33.7718   50.9545 H   0  0  0  0  0  0  0  0  0  0  0  0
   60.8422   31.7420   51.9827 H   0  0  0  0  0  0  0  0  0  0  0  0
   62.1504   32.6140   52.8893 H   0  0  0  0  0  0  0  0  0  0  0  0
   59.9284   33.5403   53.4395 H   0  0  0  0  0  0  0  0  0  0  0  0
   60.9589   34.7456   52.5611 H   0  0  0  0  0  0  0  0  0  0  0  0
   58.5927   33.1428   51.4818 H   0  0  0  0  0  0  0  0  0  0  0  0
   58.7820   34.9320   51.5948 H   0  0  0  0  0  0  0  0  0  0  0  0
   59.6711   31.7818   47.2275 H   0  0  0  0  0  0  0  0  0  0  0  0
   58.1089   32.6809   47.2036 H   0  0  0  0  0  0  0  0  0  0  0  0
   56.5368   29.3100   44.9497 H   0  0  0  0  0  0  0  0  0  0  0  0
  1  2  1  0
  2  3  1  0
  3  4  2  0
  4  5  1  0
  5  6  1  0
  6  7  2  3
  7  8  1  0
  8  9  2  0
  9 10  1  0
 10 11  2  0
 11 12  1  0
 12 13  1  0
 13 14  1  0
 11 15  1  0
  5 16  2  0
 16 17  1  0
 17 18  1  0
 18 19  1  0
 19 20  1  0
 20 21  1  0
 21 22  1  0
 22 23  1  0
 23 24  1  0
 24 25  1  0
 25 26  2  0
 26 27  1  0
 27 28  2  0
 28 29  1  0
 29 30  1  0
 29 31  2  0
 29 32  2  0
 27 33  1  0
 33 34  1  0
 34 35  1  0
 35 36  1  0
 22 37  1  0
 17 38  2  0
 38  3  1  0
 15  7  1  0
 37 18  1  0
 14 12  1  0
 28 24  1  0
 36 26  1  0
  1 39  1  0
  1 40  1  0
  1 41  1  0
  4 42  1  0
  8 43  1  0
  9 44  1  0
 10 45  1  0
 12 46  1  0
 13 47  1  0
 13 48  1  0
 14 49  1  0
 14 50  1  0
 15 51  1  0
 16 52  1  0
 19 53  1  0
 19 54  1  0
 20 55  1  0
 20 56  1  0
 22 57  1  6
 23 58  1  0
 23 59  1  0
 30 60  1  0
 30 61  1  0
 30 62  1  0
 33 63  1  0
 33 64  1  0
 34 65  1  0
 34 66  1  0
 35 67  1  0
 35 68  1  0
 36 69  1  0
 36 70  1  0
 37 71  1  0
 37 72  1  0
 38 73  1  0
M  END
>  <UniqueID>  (78) 
71

>  <SMILES>  (78) 
COc1cc(N=c2cccc(C3CC3)[nH]2)cc(N2CCO[C@@H](Cn3nc4c(c3S(C)(=O)=O)CCCC4)C2)c1

>  <Energy>  (78) 
392.03642260254236

>  <Genealogy>  (78) 
COc1cc(N=c2cccc(C3CC3)[nH]2)cc(N2CCO[C@@H](Cn3nc4c(c3S(C)(=O)=O)CCCC4)C2)c1 (chirality)
COc1cc(N=c2cccc(C3CC3)[nH]2)cc(N2CCO[C@@H](Cn3nc4c(c3S(C)(=O)=O)CCCC4)C2)c1 (3D coordinates assigned)
COc1cc(N=c2cccc(C3CC3)[nH]2)cc(N2CCO[C@@H](Cn3nc4c(c3S(C)(=O)=O)CCCC4)C2)c1 (nonaromatic ring conformer: 392.03642260254236 kcal/mol)

>  <smiles>  (78) 
COc1cc(N=c2cccc(C3CC3)[nH]2)cc(N2CCOC(Cn3nc4c(c3S(C)(=O)=O)CCCC4)C2)c1

>  <score_type>  (78) 
oracle

>  <origin>  (78) 
adg

>  <m_score__min__energy>  (78) 
-10.85

>  <m_primary>  (78) 
energy

$$$$
78:0
     RDKit          3D

 49 52  0  0  0  0  0  0  0  0999 V2000
   56.0320   29.2830   45.1510 O   0  0  0  0  0  0  0  0  0  0  0  0
   57.2730   29.5110   45.1220 C   0  0  0  0  0  0  0  0  0  0  0  0
   58.1990   28.4110   45.1400 N   0  0  0  0  0  0  0  0  0  0  0  0
   57.8740   27.1010   45.6360 C   0  0  0  0  0  0  0  0  0  0  0  0
   58.8990   26.1610   45.8230 C   0  0  0  0  0  0  0  0  0  0  0  0
   58.6120   24.8880   46.3240 C   0  0  0  0  0  0  0  0  0  0  0  0
   57.2950   24.5420   46.6560 C   0  0  0  0  0  0  0  0  0  0  0  0
   56.9250   22.9500   47.3180 S   0  0  0  0  0  0  0  0  0  0  0  0
   57.3410   22.9260   48.7620 O   0  0  0  0  0  0  0  0  0  0  0  0
   55.4440   22.6980   47.2560 O   0  0  0  0  0  0  0  0  0  0  0  0
   57.7690   21.6830   46.4720 N   0  0  0  0  0  0  0  0  0  0  0  0
   56.9000   20.9590   45.5390 C   0  0  0  0  0  0  0  0  0  0  0  0
   56.7700   21.6770   44.1870 C   0  0  2  0  0  0  0  0  0  0  0  0
   57.7530   22.8280   44.0430 C   0  0  0  0  0  0  0  0  0  0  0  0
   57.0130   23.7770   43.1550 C   0  0  0  0  0  0  0  0  0  0  0  0
   55.5580   23.4570   43.4450 C   0  0  0  0  0  0  0  0  0  0  0  0
   55.4630   22.1840   44.0450 O   0  0  0  0  0  0  0  0  0  0  0  0
   56.2720   25.4840   46.4950 C   0  0  0  0  0  0  0  0  0  0  0  0
   56.5580   26.7560   45.9920 C   0  0  0  0  0  0  0  0  0  0  0  0
   57.7550   30.9090   45.0190 C   0  0  0  0  0  0  0  0  0  0  0  0
   57.6740   31.6130   43.8020 C   0  0  0  0  0  0  0  0  0  0  0  0
   58.1360   32.9300   43.7080 C   0  0  0  0  0  0  0  0  0  0  0  0
   58.6890   33.5620   44.8240 C   0  0  0  0  0  0  0  0  0  0  0  0
   59.1260   34.8160   44.7300 O   0  0  0  0  0  0  0  0  0  0  0  0
   59.6630   35.4660   45.7590 C   0  0  0  0  0  0  0  0  0  0  0  0
   60.0580   36.6510   45.6100 O   0  0  0  0  0  0  0  0  0  0  0  0
   59.7890   34.8400   47.0030 C   0  0  0  0  0  0  0  0  0  0  0  0
   59.3450   33.5250   47.1470 C   0  0  0  0  0  0  0  0  0  0  0  0
   58.7850   32.8670   46.0470 C   0  0  0  0  0  0  0  0  0  0  0  0
   58.3220   31.5460   46.1400 C   0  0  0  0  0  0  0  0  0  0  0  0
   59.1210   28.5380   44.6640 H   0  0  0  0  0  0  0  0  0  0  0  0
   59.9365   26.4280   45.5734 H   0  0  0  0  0  0  0  0  0  0  0  0
   59.4219   24.1558   46.4581 H   0  0  0  0  0  0  0  0  0  0  0  0
   57.3209   19.9571   45.3685 H   0  0  0  0  0  0  0  0  0  0  0  0
   55.8973   20.9024   45.9878 H   0  0  0  0  0  0  0  0  0  0  0  0
   56.9942   20.9358   43.4058 H   0  0  0  0  0  0  0  0  0  0  0  0
   57.9739   23.2864   45.0182 H   0  0  0  0  0  0  0  0  0  0  0  0
   58.7300   22.5223   43.6404 H   0  0  0  0  0  0  0  0  0  0  0  0
   57.2463   24.8210   43.4113 H   0  0  0  0  0  0  0  0  0  0  0  0
   57.2758   23.6688   42.0924 H   0  0  0  0  0  0  0  0  0  0  0  0
   55.1457   24.2148   44.1274 H   0  0  0  0  0  0  0  0  0  0  0  0
   54.9891   23.4600   42.5035 H   0  0  0  0  0  0  0  0  0  0  0  0
   55.2386   25.2218   46.7656 H   0  0  0  0  0  0  0  0  0  0  0  0
   55.7489   27.4918   45.8738 H   0  0  0  0  0  0  0  0  0  0  0  0
   57.2432   31.1225   42.9167 H   0  0  0  0  0  0  0  0  0  0  0  0
   58.0635   33.4696   42.7522 H   0  0  0  0  0  0  0  0  0  0  0  0
   60.2316   35.3762   47.8554 H   0  0  0  0  0  0  0  0  0  0  0  0
   59.4344   33.0112   48.1155 H   0  0  0  0  0  0  0  0  0  0  0  0
   58.4022   31.0044   47.0941 H   0  0  0  0  0  0  0  0  0  0  0  0
  1  2  2  0
  2  3  1  0
  3  4  1  0
  4  5  2  0
  5  6  1  0
  6  7  2  0
  7  8  1  0
  8  9  2  0
  8 10  2  0
  8 11  1  0
 11 12  1  0
 12 13  1  0
 13 14  1  0
 14 15  1  0
 15 16  1  0
 16 17  1  0
  7 18  1  0
 18 19  2  0
  2 20  1  0
 20 21  2  0
 21 22  1  0
 22 23  2  0
 23 24  1  0
 24 25  1  0
 25 26  2  0
 25 27  1  0
 27 28  2  0
 28 29  1  0
 29 30  2  0
 19  4  1  0
 30 20  1  0
 17 13  1  0
 29 23  1  0
  3 31  1  0
  5 32  1  0
  6 33  1  0
 12 34  1  0
 12 35  1  0
 13 36  1  6
 14 37  1  0
 14 38  1  0
 15 39  1  0
 15 40  1  0
 16 41  1  0
 16 42  1  0
 18 43  1  0
 19 44  1  0
 21 45  1  0
 22 46  1  0
 27 47  1  0
 28 48  1  0
 30 49  1  0
M  CHG  1  11  -1
M  END
>  <UniqueID>  (79) 
72

>  <SMILES>  (79) 
O=C(Nc1ccc(S(=O)(=O)[N-]C[C@@H]2CCCO2)cc1)c1ccc2oc(=O)ccc2c1

>  <Energy>  (79) 
60.49899816936875

>  <Genealogy>  (79) 
O=C(Nc1ccc(S(=O)(=O)[N-]CC2CCCO2)cc1)c1ccc2oc(=O)ccc2c1 (protonated)
O=C(Nc1ccc(S(=O)(=O)[N-]C[C@@H]2CCCO2)cc1)c1ccc2oc(=O)ccc2c1 (chirality)
O=C(Nc1ccc(S(=O)(=O)[N-]C[C@@H]2CCCO2)cc1)c1ccc2oc(=O)ccc2c1 (3D coordinates assigned)
O=C(Nc1ccc(S(=O)(=O)[N-]C[C@@H]2CCCO2)cc1)c1ccc2oc(=O)ccc2c1 (nonaromatic ring conformer: 60.49899816936875 kcal/mol)

>  <smiles>  (79) 
O=C(Nc1ccc(S(=O)(=O)NCC2CCCO2)cc1)c1ccc2oc(=O)ccc2c1

>  <score_type>  (79) 
oracle

>  <origin>  (79) 
adg

>  <m_score__min__energy>  (79) 
-11.17

>  <m_primary>  (79) 
energy

$$$$
79:0
     RDKit          3D

 32 34  0  0  0  0  0  0  0  0999 V2000
   55.1340   28.4360   45.2450 H   0  0  0  0  0  0  0  0  0  0  0  0
   55.1150   29.3670   44.8510 O   0  0  0  0  0  0  0  0  0  0  0  0
   56.2560   30.1390   44.8540 N   0  0  0  0  0  0  0  0  0  0  0  0
   57.3860   29.7170   45.3360 C   0  0  0  0  0  0  0  0  0  0  0  0
   57.6550   28.2650   45.4940 C   0  0  0  0  0  0  0  0  0  0  0  0
   57.8000   27.6890   46.7660 C   0  0  0  0  0  0  0  0  0  0  0  0
   57.7015   28.3142   47.6657 H   0  0  0  0  0  0  0  0  0  0  0  0
   58.0620   26.3600   46.8890 N   0  0  0  0  0  0  0  0  0  0  0  0
   58.1940   25.5530   45.8040 C   0  0  0  0  0  0  0  0  0  0  0  0
   58.4027   24.4813   45.9380 H   0  0  0  0  0  0  0  0  0  0  0  0
   58.0650   26.0830   44.5200 C   0  0  0  0  0  0  0  0  0  0  0  0
   58.1735   25.4345   43.6381 H   0  0  0  0  0  0  0  0  0  0  0  0
   57.7970   27.4440   44.3650 C   0  0  0  0  0  0  0  0  0  0  0  0
   57.6971   27.8732   43.3572 H   0  0  0  0  0  0  0  0  0  0  0  0
   58.4100   30.7030   45.7610 C   0  0  0  0  0  0  0  0  0  0  0  0
   59.6520   30.3550   46.2930 C   0  0  0  0  0  0  0  0  0  0  0  0
   60.0589   29.3419   46.4273 H   0  0  0  0  0  0  0  0  0  0  0  0
   60.2600   31.5460   46.6140 C   0  0  0  0  0  0  0  0  0  0  0  0
   61.5010   31.7900   47.1950 C   0  0  0  0  0  0  0  0  0  0  0  0
   62.1763   30.9625   47.4583 H   0  0  0  0  0  0  0  0  0  0  0  0
   61.8650   33.1270   47.4350 C   0  0  0  0  0  0  0  0  0  0  0  0
   63.4160   33.4920   48.1650 Cl  0  0  0  0  0  0  0  0  0  0  0  0
   60.9830   34.1770   47.0940 C   0  0  0  0  0  0  0  0  0  0  0  0
   61.2757   35.2196   47.2869 H   0  0  0  0  0  0  0  0  0  0  0  0
   59.7340   33.9000   46.5100 C   0  0  0  0  0  0  0  0  0  0  0  0
   59.0403   34.7117   46.2454 H   0  0  0  0  0  0  0  0  0  0  0  0
   59.3990   32.5600   46.2750 C   0  0  0  0  0  0  0  0  0  0  0  0
   58.2650   32.0590   45.7360 N   0  0  0  0  0  0  0  0  0  0  0  0
   57.1120   32.8210   45.2490 C   0  0  0  0  0  0  0  0  0  0  0  0
   56.5359   33.2017   46.1053 H   0  0  0  0  0  0  0  0  0  0  0  0
   57.4625   33.6659   44.6381 H   0  0  0  0  0  0  0  0  0  0  0  0
   56.4721   32.1674   44.6381 H   0  0  0  0  0  0  0  0  0  0  0  0
  1  2  1  0
  2  3  1  0
  3  4  2  0
  4  5  1  0
  5  6  2  0
  6  7  1  0
  6  8  1  0
  8  9  2  0
  9 10  1  0
  9 11  1  0
 11 12  1  0
 11 13  2  0
 13 14  1  0
  4 15  1  0
 15 16  2  0
 16 17  1  0
 16 18  1  0
 18 19  2  0
 19 20  1  0
 19 21  1  0
 21 22  1  0
 21 23  2  0
 23 24  1  0
 23 25  1  0
 25 26  1  0
 25 27  2  0
 27 28  1  0
 28 29  1  0
 29 30  1  0
 29 31  1  0
 29 32  1  0
 13  5  1  0
 28 15  1  0
 27 18  1  0
M  END
>  <UniqueID>  (80) 
73

>  <SMILES>  (80) 
Cn1c(/C(=N/O)c2cccnc2)cc2cc(Cl)ccc21

>  <Energy>  (80) 
76.62125648806295

>  <Genealogy>  (80) 
Cn1c(/C(=N/O)c2cccnc2)cc2cc(Cl)ccc21 (cis-trans isomerization)
Cn1c(/C(=N/O)c2cccnc2)cc2cc(Cl)ccc21 (3D coordinates assigned)
Cn1c(/C(=N/O)c2cccnc2)cc2cc(Cl)ccc21 (optimized conformer: 76.62125648806295 kcal/mol)

>  <smiles>  (80) 
Cn1c(C(=NO)c2cccnc2)cc2cc(Cl)ccc21

>  <score_type>  (80) 
oracle

>  <origin>  (80) 
adg

>  <m_score__min__energy>  (80) 
-8.6899999999999995

>  <m_primary>  (80) 
energy

$$$$
80:0
     RDKit          3D

 39 41  0  0  0  0  0  0  0  0999 V2000
   55.8750   23.3230   43.4460 C   0  0  0  0  0  0  0  0  0  0  0  0
   54.9550   23.4450   44.6580 C   0  0  0  0  0  0  0  0  0  0  0  0
   55.7110   23.4470   45.9970 C   0  0  0  0  0  0  0  0  0  0  0  0
   57.0730   24.1150   45.8910 C   0  0  0  0  0  0  0  0  0  0  0  0
   58.1710   23.2470   45.7640 C   0  0  0  0  0  0  0  0  0  0  0  0
   59.4590   23.7600   45.6540 C   0  0  0  0  0  0  0  0  0  0  0  0
   60.4400   22.9800   45.5470 O   0  0  0  0  0  0  0  0  0  0  0  0
   59.6600   25.0680   45.6640 O   0  0  0  0  0  0  0  0  0  0  0  0
   58.6730   25.9500   45.7690 C   0  0  0  0  0  0  0  0  0  0  0  0
   59.0020   27.3070   45.7620 C   0  0  0  0  0  0  0  0  0  0  0  0
   58.0080   28.2760   45.8620 C   0  0  0  0  0  0  0  0  0  0  0  0
   58.3570   29.6720   45.8520 C   0  0  0  0  0  0  0  0  0  0  0  0
   58.6500   30.8420   45.8440 C   0  0  0  0  0  0  0  0  0  0  0  0
   58.9990   32.2380   45.8350 C   0  0  0  0  0  0  0  0  0  0  0  0
   58.2930   33.1340   45.0190 C   0  0  0  0  0  0  0  0  0  0  0  0
   58.6350   34.4890   45.0110 C   0  0  0  0  0  0  0  0  0  0  0  0
   59.6800   34.9530   45.8160 C   0  0  0  0  0  0  0  0  0  0  0  0
   60.3860   34.0620   46.6300 C   0  0  0  0  0  0  0  0  0  0  0  0
   60.0480   32.7050   46.6400 C   0  0  0  0  0  0  0  0  0  0  0  0
   56.6720   27.8900   45.9670 C   0  0  0  0  0  0  0  0  0  0  0  0
   56.3110   26.5340   45.9760 C   0  0  0  0  0  0  0  0  0  0  0  0
   54.9580   26.2260   46.0730 O   0  0  0  0  0  0  0  0  0  0  0  0
   57.3160   25.5260   45.8830 C   0  0  0  0  0  0  0  0  0  0  0  0
   56.9123   23.1855   43.7854 H   0  0  0  0  0  0  0  0  0  0  0  0
   55.5698   22.4575   42.8396 H   0  0  0  0  0  0  0  0  0  0  0  0
   55.8059   24.2382   42.8396 H   0  0  0  0  0  0  0  0  0  0  0  0
   54.3901   24.3852   44.5745 H   0  0  0  0  0  0  0  0  0  0  0  0
   54.2959   22.5643   44.6570 H   0  0  0  0  0  0  0  0  0  0  0  0
   55.1090   23.9878   46.7421 H   0  0  0  0  0  0  0  0  0  0  0  0
   55.8723   22.4000   46.2934 H   0  0  0  0  0  0  0  0  0  0  0  0
   58.0112   22.1587   45.7516 H   0  0  0  0  0  0  0  0  0  0  0  0
   60.0553   27.6126   45.6768 H   0  0  0  0  0  0  0  0  0  0  0  0
   57.4705   32.7704   44.3856 H   0  0  0  0  0  0  0  0  0  0  0  0
   58.0814   35.1915   44.3706 H   0  0  0  0  0  0  0  0  0  0  0  0
   59.9469   36.0201   45.8088 H   0  0  0  0  0  0  0  0  0  0  0  0
   61.2077   34.4286   47.2628 H   0  0  0  0  0  0  0  0  0  0  0  0
   60.6049   32.0041   47.2792 H   0  0  0  0  0  0  0  0  0  0  0  0
   55.8899   28.6597   46.0439 H   0  0  0  0  0  0  0  0  0  0  0  0
   54.3470   26.6800   46.7430 H   0  0  0  0  0  0  0  0  0  0  0  0
  1  2  1  0
  2  3  1  0
  3  4  1  0
  4  5  2  0
  5  6  1  0
  6  7  2  0
  6  8  1  0
  8  9  1  0
  9 10  2  0
 10 11  1  0
 11 12  1  0
 12 13  3  0
 13 14  1  0
 14 15  2  0
 15 16  1  0
 16 17  2  0
 17 18  1  0
 18 19  2  0
 11 20  2  0
 20 21  1  0
 21 22  1  0
 21 23  2  0
 23  4  1  0
 23  9  1  0
 19 14  1  0
  1 24  1  0
  1 25  1  0
  1 26  1  0
  2 27  1  0
  2 28  1  0
  3 29  1  0
  3 30  1  0
  5 31  1  0
 10 32  1  0
 15 33  1  0
 16 34  1  0
 17 35  1  0
 18 36  1  0
 19 37  1  0
 20 38  1  0
 22 39  1  0
M  END
>  <UniqueID>  (81) 
74

>  <SMILES>  (81) 
CCCc1cc(=O)oc2cc(C#Cc3ccccc3)cc(O)c12

>  <Energy>  (81) 
45.57611134739881

>  <Genealogy>  (81) 
CCCc1cc(=O)oc2cc(C#Cc3ccccc3)cc(O)c12 (3D coordinates assigned)
CCCc1cc(=O)oc2cc(C#Cc3ccccc3)cc(O)c12 (optimized conformer: 45.57611134739881 kcal/mol)

>  <smiles>  (81) 
CCCc1cc(=O)oc2cc(C#Cc3ccccc3)cc(O)c12

>  <score_type>  (81) 
oracle

>  <origin>  (81) 
adg

>  <m_score__min__energy>  (81) 
-7.9100000000000001

>  <m_primary>  (81) 
energy

$$$$
81:0
     RDKit          3D

 54 57  0  0  0  0  0  0  0  0999 V2000
   60.4330   31.3120   49.6470 C   0  0  0  0  0  0  0  0  0  0  0  0
   61.5750   31.9800   48.9320 C   0  0  0  0  0  0  0  0  0  0  0  0
   62.7950   32.1910   49.5950 C   0  0  0  0  0  0  0  0  0  0  0  0
   63.8620   32.8100   48.9350 C   0  0  0  0  0  0  0  0  0  0  0  0
   65.3810   33.0670   49.7740 Cl  0  0  0  0  0  0  0  0  0  0  0  0
   63.7190   33.2220   47.6080 C   0  0  0  0  0  0  0  0  0  0  0  0
   62.5120   33.0160   46.9370 C   0  0  0  0  0  0  0  0  0  0  0  0
   61.4370   32.3950   47.5890 C   0  0  0  0  0  0  0  0  0  0  0  0
   60.2030   32.1860   46.8770 N   0  0  0  0  0  0  0  0  0  0  0  0
   59.3880   33.2530   46.5850 C   0  0  0  0  0  0  0  0  0  0  0  0
   59.7180   34.5490   46.9990 O   0  0  0  0  0  0  0  0  0  0  0  0
   58.1980   33.0580   45.8620 C   0  0  0  0  0  0  0  0  0  0  0  0
   57.2820   34.2190   45.5720 C   0  0  0  0  0  0  0  0  0  0  0  0
   57.8380   31.7570   45.4800 C   0  0  0  0  0  0  0  0  0  0  0  0
   56.6240   31.5310   44.8350 O   0  0  0  0  0  0  0  0  0  0  0  0
   58.6920   30.6810   45.7620 C   0  0  0  0  0  0  0  0  0  0  0  0
   58.3520   29.3060   45.3260 C   0  0  0  0  0  0  0  0  0  0  0  0
   57.6500   28.4730   46.0430 N   0  0  0  0  0  0  0  0  0  0  0  0
   57.6140   27.0410   45.9170 C   0  0  0  0  0  0  0  0  0  0  0  0
   57.3660   26.2090   47.0240 C   0  0  0  0  0  0  0  0  0  0  0  0
   57.3210   24.8210   46.8660 C   0  0  0  0  0  0  0  0  0  0  0  0
   57.5050   24.2500   45.5990 C   0  0  0  0  0  0  0  0  0  0  0  0
   57.4370   22.5030   45.3960 S   0  0  0  0  0  0  0  0  0  0  0  0
   57.5140   21.8390   46.7420 O   0  0  0  0  0  0  0  0  0  0  0  0
   58.5990   22.0510   44.5570 O   0  0  0  0  0  0  0  0  0  0  0  0
   55.9460   22.0850   44.6160 N   0  0  0  0  0  0  0  0  0  0  0  0
   54.7810   22.4920   45.0210 C   0  0  0  0  0  0  0  0  0  0  0  0
   54.0760   21.7860   45.9480 N   0  0  0  0  0  0  0  0  0  0  0  0
   52.8580   22.2120   46.3730 C   0  0  0  0  0  0  0  0  0  0  0  0
   52.3140   23.3880   45.8570 C   0  0  0  0  0  0  0  0  0  0  0  0
   53.0470   24.0980   44.9090 C   0  0  0  0  0  0  0  0  0  0  0  0
   54.2620   23.6400   44.5090 N   0  0  0  0  0  0  0  0  0  0  0  0
   57.7050   25.0800   44.4880 C   0  0  0  0  0  0  0  0  0  0  0  0
   57.7520   26.4690   44.6470 C   0  0  0  0  0  0  0  0  0  0  0  0
   59.8690   30.9150   46.4880 C   0  0  0  0  0  0  0  0  0  0  0  0
   60.6300   29.9460   46.7670 O   0  0  0  0  0  0  0  0  0  0  0  0
   60.5802   31.3981   50.7337 H   0  0  0  0  0  0  0  0  0  0  0  0
   59.4883   31.7999   49.3651 H   0  0  0  0  0  0  0  0  0  0  0  0
   60.3952   30.2494   49.3651 H   0  0  0  0  0  0  0  0  0  0  0  0
   62.9123   31.8675   50.6398 H   0  0  0  0  0  0  0  0  0  0  0  0
   64.5586   33.7095   47.0908 H   0  0  0  0  0  0  0  0  0  0  0  0
   62.4039   33.3423   45.8921 H   0  0  0  0  0  0  0  0  0  0  0  0
   59.0730   35.1630   47.4770 H   0  0  0  0  0  0  0  0  0  0  0  0
   56.9355   34.6582   46.5191 H   0  0  0  0  0  0  0  0  0  0  0  0
   57.8260   34.9795   44.9926 H   0  0  0  0  0  0  0  0  0  0  0  0
   56.4158   33.8668   44.9926 H   0  0  0  0  0  0  0  0  0  0  0  0
   58.7119   28.9692   44.3426 H   0  0  0  0  0  0  0  0  0  0  0  0
   57.2069   26.6526   48.0179 H   0  0  0  0  0  0  0  0  0  0  0  0
   57.1408   24.1751   47.7380 H   0  0  0  0  0  0  0  0  0  0  0  0
   52.3018   21.6304   47.1229 H   0  0  0  0  0  0  0  0  0  0  0  0
   51.3291   23.7464   46.1909 H   0  0  0  0  0  0  0  0  0  0  0  0
   52.6425   25.0287   44.4845 H   0  0  0  0  0  0  0  0  0  0  0  0
   57.8254   24.6381   43.4879 H   0  0  0  0  0  0  0  0  0  0  0  0
   57.8982   27.1153   43.7690 H   0  0  0  0  0  0  0  0  0  0  0  0
  1  2  1  0
  2  3  2  0
  3  4  1  0
  4  5  1  0
  4  6  2  0
  6  7  1  0
  7  8  2  0
  8  9  1  0
  9 10  1  0
 10 11  1  0
 10 12  2  0
 12 13  1  0
 12 14  1  0
 14 15  1  0
 14 16  2  0
 16 17  1  0
 17 18  2  3
 18 19  1  0
 19 20  2  0
 20 21  1  0
 21 22  2  0
 22 23  1  0
 23 24  2  0
 23 25  2  0
 23 26  1  0
 26 27  2  3
 27 28  1  0
 28 29  2  0
 29 30  1  0
 30 31  2  0
 31 32  1  0
 22 33  1  0
 33 34  2  0
 16 35  1  0
 35 36  2  0
  8  2  1  0
 35  9  1  0
 34 19  1  0
 32 27  1  0
  1 37  1  0
  1 38  1  0
  1 39  1  0
  3 40  1  0
  6 41  1  0
  7 42  1  0
 11 43  1  0
 13 44  1  0
 13 45  1  0
 13 46  1  0
 17 47  1  0
 20 48  1  0
 21 49  1  0
 29 50  1  0
 30 51  1  0
 31 52  1  0
 33 53  1  0
 34 54  1  0
M  CHG  2  15  -1  32  -1
M  END
>  <UniqueID>  (82) 
75

>  <SMILES>  (82) 
Cc1cc(Cl)ccc1-n1c(O)c(C)c([O-])c(C=Nc2ccc(S(=O)(=O)N=c3nccc[n-]3)cc2)c1=O

>  <Energy>  (82) 
87.30825788530197

>  <Genealogy>  (82) 
Cc1cc(Cl)ccc1-n1c(O)c(C)c([O-])c(C=Nc2ccc(S(=O)(=O)N=c3nccc[n-]3)cc2)c1=O (protonated)
Cc1cc(Cl)ccc1-n1c(O)c(C)c([O-])c(C=Nc2ccc(S(=O)(=O)N=c3nccc[n-]3)cc2)c1=O (3D coordinates assigned)
Cc1cc(Cl)ccc1-n1c(O)c(C)c([O-])c(C=Nc2ccc(S(=O)(=O)N=c3nccc[n-]3)cc2)c1=O (optimized conformer: 87.30825788530197 kcal/mol)

>  <smiles>  (82) 
Cc1cc(Cl)ccc1-n1c(O)c(C)c(O)c(C=Nc2ccc(S(=O)(=O)N=c3nccc[nH]3)cc2)c1=O

>  <score_type>  (82) 
oracle

>  <origin>  (82) 
adg

>  <m_score__min__energy>  (82) 
-11.699999999999999

>  <m_primary>  (82) 
energy

$$$$
82:0
     RDKit          3D

 53 55  0  0  1  0  0  0  0  0999 V2000
   55.2670   29.7190   43.5560 C   0  0  0  0  0  0  0  0  0  0  0  0
   56.4610   30.2640   43.3770 C   0  0  0  0  0  0  0  0  0  0  0  0
   57.1260   30.9510   44.4730 C   0  0  0  0  0  0  0  0  0  0  0  0
   57.3350   30.3630   45.5670 O   0  0  0  0  0  0  0  0  0  0  0  0
   57.5510   32.2960   44.3240 N   0  0  0  0  0  0  0  0  0  0  0  0
   58.2050   33.0350   45.3450 C   0  0  0  0  0  0  0  0  0  0  0  0
   58.9980   34.1060   45.0530 C   0  0  0  0  0  0  0  0  0  0  0  0
   59.6570   34.8600   45.9970 C   0  0  0  0  0  0  0  0  0  0  0  0
   59.4970   34.4980   47.3390 C   0  0  0  0  0  0  0  0  0  0  0  0
   58.6970   33.4130   47.6690 C   0  0  0  0  0  0  0  0  0  0  0  0
   58.5820   33.1080   49.0500 N   0  0  0  0  0  0  0  0  0  0  0  0
   58.8050   31.8670   49.4070 C   0  0  0  0  0  0  0  0  0  0  0  0
   58.3770   31.3770   50.6250 C   0  0  0  0  0  0  0  0  0  0  0  0
   58.6120   30.0580   51.0090 C   0  0  0  0  0  0  0  0  0  0  0  0
   59.2780   29.2690   50.1400 N   0  0  0  0  0  0  0  0  0  0  0  0
   59.7060   29.7340   48.9370 C   0  0  0  0  0  0  0  0  0  0  0  0
   60.3430   28.9200   48.1460 N   0  0  0  0  0  0  0  0  0  0  0  0
   59.7920   28.5240   46.8830 C   0  0  0  0  0  0  0  0  0  0  0  0
   60.5850   28.6420   45.7500 C   0  0  0  0  0  0  0  0  0  0  0  0
   60.0500   28.2600   44.5360 C   0  0  0  0  0  0  0  0  0  0  0  0
   58.7510   27.7700   44.4540 C   0  0  0  0  0  0  0  0  0  0  0  0
   58.1680   27.3550   43.1320 C   0  0  0  0  0  0  0  0  0  0  0  0
   57.9440   27.6460   45.5730 C   0  0  0  0  0  0  0  0  0  0  0  0
   56.6260   27.1450   45.4750 N   0  0  0  0  0  0  0  0  0  0  0  0
   56.3050   25.5330   46.0490 S   0  0  0  0  0  0  0  0  0  0  0  0
   57.1670   24.3860   45.0110 C   0  0  0  0  0  0  0  0  0  0  0  0
   56.7270   25.3920   47.4850 O   0  0  0  0  0  0  0  0  0  0  0  0
   54.8450   25.2280   45.9950 O   0  0  0  0  0  0  0  0  0  0  0  0
   58.5070   28.0370   46.7770 C   0  0  0  0  0  0  0  0  0  0  0  0
   59.4680   31.0170   48.5850 N   0  0  0  0  0  0  0  0  0  0  0  0
   58.0510   32.6820   46.6810 C   0  0  0  0  0  0  0  0  0  0  0  0
   54.7686   29.2006   42.7236 H   0  0  0  0  0  0  0  0  0  0  0  0
   54.7738   29.7848   44.5371 H   0  0  0  0  0  0  0  0  0  0  0  0
   56.9518   30.1967   42.3949 H   0  0  0  0  0  0  0  0  0  0  0  0
   57.3630   32.7530   43.4080 H   0  0  0  0  0  0  0  0  0  0  0  0
   59.1183   34.3846   43.9957 H   0  0  0  0  0  0  0  0  0  0  0  0
   60.2857   35.7149   45.7074 H   0  0  0  0  0  0  0  0  0  0  0  0
   60.0034   35.0712   48.1296 H   0  0  0  0  0  0  0  0  0  0  0  0
   57.8360   32.0457   51.3107 H   0  0  0  0  0  0  0  0  0  0  0  0
   58.2684   29.6754   51.9814 H   0  0  0  0  0  0  0  0  0  0  0  0
   59.4430   28.2850   50.4490 H   0  0  0  0  0  0  0  0  0  0  0  0
   61.6123   29.0295   45.8176 H   0  0  0  0  0  0  0  0  0  0  0  0
   60.6580   28.3441   43.6232 H   0  0  0  0  0  0  0  0  0  0  0  0
   57.2828   26.7249   43.3033 H   0  0  0  0  0  0  0  0  0  0  0  0
   57.8765   28.2499   42.5627 H   0  0  0  0  0  0  0  0  0  0  0  0
   58.9182   26.7865   42.5627 H   0  0  0  0  0  0  0  0  0  0  0  0
   55.8930   27.7440   45.0700 H   0  0  0  0  0  0  0  0  0  0  0  0
   57.7107   23.6626   45.6363 H   0  0  0  0  0  0  0  0  0  0  0  0
   56.4449   23.8519   44.3760 H   0  0  0  0  0  0  0  0  0  0  0  0
   57.8809   24.9311   44.3760 H   0  0  0  0  0  0  0  0  0  0  0  0
   57.9002   27.9550   47.6908 H   0  0  0  0  0  0  0  0  0  0  0  0
   59.8050   31.3290   47.6720 H   0  0  0  0  0  0  0  0  0  0  0  0
   57.4183   31.8248   46.9548 H   0  0  0  0  0  0  0  0  0  0  0  0
  1  2  2  0
  2  3  1  0
  3  4  2  0
  3  5  1  0
  5  6  1  0
  6  7  2  0
  7  8  1  0
  8  9  2  0
  9 10  1  0
 10 11  1  0
 11 12  2  0
 12 13  1  0
 13 14  2  0
 14 15  1  0
 15 16  1  0
 16 17  2  0
 17 18  1  0
 18 19  2  0
 19 20  1  0
 20 21  2  0
 21 22  1  0
 21 23  1  0
 23 24  1  0
 24 25  1  0
 25 26  1  0
 25 27  2  0
 25 28  2  0
 23 29  2  0
 16 30  1  0
 10 31  2  0
 31  6  1  0
 30 12  1  0
 29 18  1  0
  1 32  1  0
  1 33  1  0
  2 34  1  0
  5 35  1  0
  7 36  1  0
  8 37  1  0
  9 38  1  0
 13 39  1  0
 14 40  1  0
 15 41  1  0
 19 42  1  0
 20 43  1  0
 22 44  1  0
 22 45  1  0
 22 46  1  0
 24 47  1  0
 26 48  1  0
 26 49  1  0
 26 50  1  0
 29 51  1  0
 30 52  1  0
 31 53  1  0
M  END
>  <smiles>  (83) 
C=CC(=O)Nc1cccc(N=c2cc[nH]c(=Nc3ccc(C)c(NS(C)(=O)=O)c3)[nH]2)c1

>  <score_type>  (83) 
oracle

>  <origin>  (83) 
adg

>  <m_score__min__energy>  (83) 
-9.4800000000000004

>  <m_primary>  (83) 
energy

$$$$
83:0
     RDKit          3D

 53 56  0  0  0  0  0  0  0  0999 V2000
   57.7210   31.3600   51.3130 C   0  0  0  0  0  0  0  0  0  0  0  0
   58.9890   31.6330   50.5570 C   0  0  0  0  0  0  0  0  0  0  0  0
   60.0440   30.7130   50.5730 C   0  0  0  0  0  0  0  0  0  0  0  0
   61.2250   30.9850   49.8790 C   0  0  0  0  0  0  0  0  0  0  0  0
   61.3730   32.1860   49.1680 C   0  0  0  0  0  0  0  0  0  0  0  0
   62.6550   32.4710   48.4360 C   0  0  0  0  0  0  0  0  0  0  0  0
   60.3200   33.1250   49.1560 C   0  0  0  0  0  0  0  0  0  0  0  0
   60.4860   34.3570   48.4360 N   0  0  0  0  0  0  0  0  0  0  0  0
   60.3830   34.5340   46.7150 S   0  0  0  0  0  0  0  0  0  0  0  0
   61.7200   34.2180   46.1050 O   0  0  0  0  0  0  0  0  0  0  0  0
   60.0220   35.9530   46.3830 O   0  0  0  0  0  0  0  0  0  0  0  0
   59.1300   33.4650   46.0900 C   0  0  0  0  0  0  0  0  0  0  0  0
   58.0790   34.0030   45.3430 C   0  0  0  0  0  0  0  0  0  0  0  0
   57.0670   33.1760   44.8550 C   0  0  0  0  0  0  0  0  0  0  0  0
   57.0860   31.8040   45.1270 C   0  0  0  0  0  0  0  0  0  0  0  0
   56.1040   31.0110   44.6240 N   0  0  0  0  0  0  0  0  0  0  0  0
   56.0770   29.6750   44.8470 C   0  0  0  0  0  0  0  0  0  0  0  0
   55.1490   28.9780   44.3560 O   0  0  0  0  0  0  0  0  0  0  0  0
   57.0670   29.0720   45.6230 C   0  0  0  0  0  0  0  0  0  0  0  0
   58.0930   29.8490   46.1850 C   0  0  0  0  0  0  0  0  0  0  0  0
   59.0720   29.1710   47.0660 C   0  0  0  0  0  0  0  0  0  0  0  0
   58.8710   29.1030   48.3080 O   0  0  0  0  0  0  0  0  0  0  0  0
   60.2200   28.5360   46.4910 N   0  0  0  0  0  0  0  0  0  0  0  0
   60.3890   27.0900   46.4120 C   0  0  0  0  0  0  0  0  0  0  0  0
   59.0570   26.4170   46.2220 C   0  0  0  0  0  0  0  0  0  0  0  0
   58.3220   25.9600   47.3280 C   0  0  0  0  0  0  0  0  0  0  0  0
   57.0770   25.3480   47.1440 C   0  0  0  0  0  0  0  0  0  0  0  0
   56.5570   25.1910   45.8560 C   0  0  0  0  0  0  0  0  0  0  0  0
   54.9970   24.4220   45.6260 Cl  0  0  0  0  0  0  0  0  0  0  0  0
   57.2820   25.6480   44.7490 C   0  0  0  0  0  0  0  0  0  0  0  0
   58.5250   26.2610   44.9300 C   0  0  0  0  0  0  0  0  0  0  0  0
   58.1260   31.2430   45.9120 C   0  0  0  0  0  0  0  0  0  0  0  0
   59.1630   32.0900   46.3610 C   0  0  0  0  0  0  0  0  0  0  0  0
   59.1310   32.8350   49.8510 C   0  0  0  0  0  0  0  0  0  0  0  0
   57.9219   31.4032   52.3936 H   0  0  0  0  0  0  0  0  0  0  0  0
   56.9670   32.1164   51.0496 H   0  0  0  0  0  0  0  0  0  0  0  0
   57.3451   30.3603   51.0496 H   0  0  0  0  0  0  0  0  0  0  0  0
   59.9424   29.7724   51.1342 H   0  0  0  0  0  0  0  0  0  0  0  0
   62.0455   30.2524   49.8897 H   0  0  0  0  0  0  0  0  0  0  0  0
   63.4605   32.6501   49.1634 H   0  0  0  0  0  0  0  0  0  0  0  0
   62.9161   31.6090   47.8045 H   0  0  0  0  0  0  0  0  0  0  0  0
   62.5263   33.3625   47.8045 H   0  0  0  0  0  0  0  0  0  0  0  0
   58.0494   35.0835   45.1388 H   0  0  0  0  0  0  0  0  0  0  0  0
   56.2512   33.6043   44.2542 H   0  0  0  0  0  0  0  0  0  0  0  0
   57.0440   27.9858   45.7951 H   0  0  0  0  0  0  0  0  0  0  0  0
   61.0426   26.8472   45.5612 H   0  0  0  0  0  0  0  0  0  0  0  0
   60.8401   26.7313   47.3489 H   0  0  0  0  0  0  0  0  0  0  0  0
   58.7267   26.0836   48.3434 H   0  0  0  0  0  0  0  0  0  0  0  0
   56.5069   24.9901   48.0140 H   0  0  0  0  0  0  0  0  0  0  0  0
   56.8729   25.5245   43.7354 H   0  0  0  0  0  0  0  0  0  0  0  0
   59.0894   26.6229   44.0579 H   0  0  0  0  0  0  0  0  0  0  0  0
   60.0047   31.6667   46.9288 H   0  0  0  0  0  0  0  0  0  0  0  0
   58.3039   33.5601   49.8398 H   0  0  0  0  0  0  0  0  0  0  0  0
  1  2  1  0
  2  3  2  0
  3  4  1  0
  4  5  2  0
  5  6  1  0
  5  7  1  0
  7  8  1  0
  8  9  1  0
  9 10  2  0
  9 11  2  0
  9 12  1  0
 12 13  2  0
 13 14  1  0
 14 15  2  0
 15 16  1  0
 16 17  1  0
 17 18  2  0
 17 19  1  0
 19 20  2  0
 20 21  1  0
 21 22  2  0
 21 23  1  0
 23 24  1  0
 24 25  1  0
 25 26  2  0
 26 27  1  0
 27 28  2  0
 28 29  1  0
 28 30  1  0
 30 31  2  0
 20 32  1  0
 32 33  2  0
  7 34  2  0
 34  2  1  0
 33 12  1  0
 32 15  1  0
 31 25  1  0
  1 35  1  0
  1 36  1  0
  1 37  1  0
  3 38  1  0
  4 39  1  0
  6 40  1  0
  6 41  1  0
  6 42  1  0
 13 43  1  0
 14 44  1  0
 19 45  1  0
 24 46  1  0
 24 47  1  0
 26 48  1  0
 27 49  1  0
 30 50  1  0
 31 51  1  0
 33 52  1  0
 34 53  1  0
M  CHG  3   8  -1  16  -1  23  -1
M  END
>  <UniqueID>  (84) 
76

>  <SMILES>  (84) 
Cc1ccc(C)c([N-]S(=O)(=O)c2ccc3[n-]c(=O)cc(C(=O)[N-]Cc4ccc(Cl)cc4)c3c2)c1

>  <Energy>  (84) 
66.97272146690808

>  <Genealogy>  (84) 
Cc1ccc(C)c([N-]S(=O)(=O)c2ccc3[n-]c(=O)cc(C(=O)[N-]Cc4ccc(Cl)cc4)c3c2)c1 (protonated)
Cc1ccc(C)c([N-]S(=O)(=O)c2ccc3[n-]c(=O)cc(C(=O)[N-]Cc4ccc(Cl)cc4)c3c2)c1 (3D coordinates assigned)
Cc1ccc(C)c([N-]S(=O)(=O)c2ccc3[n-]c(=O)cc(C(=O)[N-]Cc4ccc(Cl)cc4)c3c2)c1 (optimized conformer: 66.97272146690808 kcal/mol)

>  <smiles>  (84) 
Cc1ccc(C)c(NS(=O)(=O)c2ccc3[nH]c(=O)cc(C(=O)NCc4ccc(Cl)cc4)c3c2)c1

>  <score_type>  (84) 
oracle

>  <origin>  (84) 
adg

>  <m_score__min__energy>  (84) 
-13.890000000000001

>  <m_primary>  (84) 
energy

$$$$
84:0
     RDKit          3D

 45 48  0  0  0  0  0  0  0  0999 V2000
   53.9650   26.7270   46.3790 H   0  0  0  0  0  0  0  0  0  0  0  0
   54.6710   26.2430   45.7820 N   0  0  0  0  0  0  0  0  0  0  0  0
   56.0370   26.1550   46.1840 C   0  0  0  0  0  0  0  0  0  0  0  0
   56.3830   25.2460   46.9870 O   0  0  0  0  0  0  0  0  0  0  0  0
   57.0380   27.1160   45.6640 C   0  0  0  0  0  0  0  0  0  0  0  0
   58.3300   26.6810   45.3150 C   0  0  0  0  0  0  0  0  0  0  0  0
   58.5952   25.6184   45.4177 H   0  0  0  0  0  0  0  0  0  0  0  0
   59.2780   27.5900   44.8390 C   0  0  0  0  0  0  0  0  0  0  0  0
   60.2893   27.2428   44.5809 H   0  0  0  0  0  0  0  0  0  0  0  0
   58.9460   28.9370   44.6900 C   0  0  0  0  0  0  0  0  0  0  0  0
   59.7013   29.6503   44.3285 H   0  0  0  0  0  0  0  0  0  0  0  0
   57.6580   29.3840   44.9980 C   0  0  0  0  0  0  0  0  0  0  0  0
   57.3570   30.7840   44.8820 N   0  0  0  0  0  0  0  0  0  0  0  0
   58.0750   31.7900   45.3010 C   0  0  0  0  0  0  0  0  0  0  0  0
   57.6310   33.0500   45.0480 N   0  0  0  0  0  0  0  0  0  0  0  0
   58.3100   34.1540   45.4520 C   0  0  0  0  0  0  0  0  0  0  0  0
   57.9159   35.1549   45.2219 H   0  0  0  0  0  0  0  0  0  0  0  0
   59.5060   34.0230   46.1580 C   0  0  0  0  0  0  0  0  0  0  0  0
   60.0614   34.9178   46.4756 H   0  0  0  0  0  0  0  0  0  0  0  0
   59.9970   32.7430   46.4610 C   0  0  0  0  0  0  0  0  0  0  0  0
   61.2630   32.5790   47.2210 C   0  0  0  0  0  0  0  0  0  0  0  0
   61.5490   31.3810   47.8940 C   0  0  0  0  0  0  0  0  0  0  0  0
   60.8288   30.5502   47.8611 H   0  0  0  0  0  0  0  0  0  0  0  0
   62.7100   31.2410   48.5860 N   0  0  0  0  0  0  0  0  0  0  0  0
   63.6420   32.2300   48.6570 C   0  0  0  0  0  0  0  0  0  0  0  0
   64.7220   32.0130   49.3550 N   0  0  0  0  0  0  0  0  0  0  0  0
   65.3970   32.9290   50.2330 C   0  0  0  0  0  0  0  0  0  0  0  0
   64.6800   33.7500   51.1210 C   0  0  0  0  0  0  0  0  0  0  0  0
   63.5850   33.6653   51.1835 H   0  0  0  0  0  0  0  0  0  0  0  0
   65.3550   34.6740   51.9250 C   0  0  0  0  0  0  0  0  0  0  0  0
   64.7928   35.3012   52.6325 H   0  0  0  0  0  0  0  0  0  0  0  0
   66.7440   34.8010   51.8300 C   0  0  0  0  0  0  0  0  0  0  0  0
   67.2756   35.5216   52.4689 H   0  0  0  0  0  0  0  0  0  0  0  0
   67.4570   34.0120   50.9230 C   0  0  0  0  0  0  0  0  0  0  0  0
   68.5490   34.1179   50.8429 H   0  0  0  0  0  0  0  0  0  0  0  0
   66.7840   33.0880   50.1170 C   0  0  0  0  0  0  0  0  0  0  0  0
   67.3459   32.4840   49.3894 H   0  0  0  0  0  0  0  0  0  0  0  0
   63.3850   33.4560   48.0130 C   0  0  0  0  0  0  0  0  0  0  0  0
   64.1133   34.2780   48.0762 H   0  0  0  0  0  0  0  0  0  0  0  0
   62.2000   33.6210   47.2940 C   0  0  0  0  0  0  0  0  0  0  0  0
   61.9995   34.5735   46.7816 H   0  0  0  0  0  0  0  0  0  0  0  0
   59.2670   31.6190   46.0370 C   0  0  0  0  0  0  0  0  0  0  0  0
   59.6245   30.6072   46.2786 H   0  0  0  0  0  0  0  0  0  0  0  0
   56.7170   28.4770   45.5170 C   0  0  0  0  0  0  0  0  0  0  0  0
   55.7196   28.8359   45.8110 H   0  0  0  0  0  0  0  0  0  0  0  0
  1  2  1  0
  2  3  1  0
  3  4  2  0
  3  5  1  0
  5  6  2  0
  6  7  1  0
  6  8  1  0
  8  9  1  0
  8 10  2  0
 10 11  1  0
 10 12  1  0
 12 13  1  0
 13 14  2  0
 14 15  1  0
 15 16  1  0
 16 17  1  0
 16 18  2  0
 18 19  1  0
 18 20  1  0
 20 21  1  0
 21 22  2  0
 22 23  1  0
 22 24  1  0
 24 25  1  0
 25 26  2  3
 26 27  1  0
 27 28  2  0
 28 29  1  0
 28 30  1  0
 30 31  1  0
 30 32  2  0
 32 33  1  0
 32 34  1  0
 34 35  1  0
 34 36  2  0
 36 37  1  0
 25 38  1  0
 38 39  1  0
 38 40  2  0
 40 41  1  0
 20 42  2  0
 42 43  1  0
 12 44  2  0
 44 45  1  0
 44  5  1  0
 42 14  1  0
 40 21  1  0
 36 27  1  0
M  CHG  3   2  -1  15  -1  24  -1
M  END
>  <UniqueID>  (85) 
77

>  <SMILES>  (85) 
[NH-]C(=O)c1cccc(/N=c2\cc(-c3ccc(=Nc4ccccc4)[n-]c3)cc[n-]2)c1

>  <Energy>  (85) 
75.70557937110509

>  <Genealogy>  (85) 
[NH-]C(=O)c1cccc(N=c2cc(-c3ccc(=Nc4ccccc4)[n-]c3)cc[n-]2)c1 (protonated)
[NH-]C(=O)c1cccc(/N=c2\cc(-c3ccc(=Nc4ccccc4)[n-]c3)cc[n-]2)c1 (cis-trans isomerization)
[NH-]C(=O)c1cccc(/N=c2\cc(-c3ccc(=Nc4ccccc4)[n-]c3)cc[n-]2)c1 (3D coordinates assigned)
[NH-]C(=O)c1cccc(/N=c2\cc(-c3ccc(=Nc4ccccc4)[n-]c3)cc[n-]2)c1 (optimized conformer: 75.70557937110509 kcal/mol)

>  <smiles>  (85) 
NC(=O)c1cccc(N=c2cc(-c3ccc(=Nc4ccccc4)[nH]c3)cc[nH]2)c1

>  <score_type>  (85) 
oracle

>  <origin>  (85) 
adg

>  <m_score__min__energy>  (85) 
-14.58

>  <m_primary>  (85) 
energy

$$$$
85:0
     RDKit          3D

 56 59  0  0  0  0  0  0  0  0999 V2000
   57.0120   32.1655   46.7867 H   0  0  0  0  0  0  0  0  0  0  0  0
   57.7470   32.9790   46.6970 C   0  0  0  0  0  0  0  0  0  0  0  0
   58.3700   33.4650   47.8030 N   0  0  0  0  0  0  0  0  0  0  0  0
   59.2910   34.4620   47.7280 C   0  0  0  0  0  0  0  0  0  0  0  0
   59.8400   34.8910   48.8300 N   0  0  0  0  0  0  0  0  0  0  0  0
   60.8160   34.2050   49.6300 C   0  0  0  0  0  0  0  0  0  0  0  0
   60.5370   33.9230   50.8250 O   0  0  0  0  0  0  0  0  0  0  0  0
   62.1020   33.7600   49.0630 C   0  0  0  0  0  0  0  0  0  0  0  0
   62.4030   33.5160   47.4250 S   0  0  0  0  0  0  0  0  0  0  0  0
   64.0120   33.0590   47.5970 C   0  0  0  0  0  0  0  0  0  0  0  0
   64.6926   32.7768   46.7802 H   0  0  0  0  0  0  0  0  0  0  0  0
   64.3340   33.0990   48.9470 C   0  0  0  0  0  0  0  0  0  0  0  0
   65.3309   32.8437   49.3355 H   0  0  0  0  0  0  0  0  0  0  0  0
   63.2700   33.4950   49.7680 C   0  0  0  0  0  0  0  0  0  0  0  0
   63.3510   33.5870   50.8612 H   0  0  0  0  0  0  0  0  0  0  0  0
   59.5860   35.0130   46.4630 C   0  0  0  0  0  0  0  0  0  0  0  0
   60.3146   35.8320   46.3718 H   0  0  0  0  0  0  0  0  0  0  0  0
   58.9640   34.5250   45.3590 N   0  0  0  0  0  0  0  0  0  0  0  0
   58.0490   33.5230   45.4420 C   0  0  0  0  0  0  0  0  0  0  0  0
   57.4010   33.0000   44.1950 C   0  0  0  0  0  0  0  0  0  0  0  0
   58.0207   33.2666   43.3261 H   0  0  0  0  0  0  0  0  0  0  0  0
   56.4008   33.4477   44.0998 H   0  0  0  0  0  0  0  0  0  0  0  0
   57.2600   31.5110   44.2610 C   0  0  0  0  0  0  0  0  0  0  0  0
   56.2360   30.8790   44.8580 N   0  0  0  0  0  0  0  0  0  0  0  0
   56.5280   29.5720   44.6730 C   0  0  0  0  0  0  0  0  0  0  0  0
   55.7920   28.5970   45.1180 N   0  0  0  0  0  0  0  0  0  0  0  0
   56.2710   27.3380   45.6130 C   0  0  0  0  0  0  0  0  0  0  0  0
   55.4640   26.5750   46.2080 O   0  0  0  0  0  0  0  0  0  0  0  0
   57.6570   26.9690   45.5000 N   0  0  0  0  0  0  0  0  0  0  0  0
   58.3650   27.7040   45.2800 H   0  0  0  0  0  0  0  0  0  0  0  0
   58.1400   25.6310   45.8300 C   0  0  0  0  0  0  0  0  0  0  0  0
   57.3670   25.0988   46.4039 H   0  0  0  0  0  0  0  0  0  0  0  0
   58.3587   25.0924   44.8962 H   0  0  0  0  0  0  0  0  0  0  0  0
   59.4250   25.7120   46.6680 C   0  0  0  0  0  0  0  0  0  0  0  0
   59.1496   25.8425   47.7249 H   0  0  0  0  0  0  0  0  0  0  0  0
   59.9875   24.7801   46.5096 H   0  0  0  0  0  0  0  0  0  0  0  0
   60.3320   26.8860   46.2440 C   0  0  0  0  0  0  0  0  0  0  0  0
   61.3471   26.7078   46.6285 H   0  0  0  0  0  0  0  0  0  0  0  0
   60.3274   26.9403   45.1453 H   0  0  0  0  0  0  0  0  0  0  0  0
   59.8420   28.1810   46.7690 N   0  0  0  0  0  0  0  0  0  0  0  0
   60.3700   29.3260   45.9890 C   0  0  0  0  0  0  0  0  0  0  0  0
   61.4360   29.1536   45.7796 H   0  0  0  0  0  0  0  0  0  0  0  0
   59.7926   29.4011   45.0558 H   0  0  0  0  0  0  0  0  0  0  0  0
   60.2200   30.6530   46.7550 C   0  0  0  0  0  0  0  0  0  0  0  0
   61.1764   30.9028   47.2376 H   0  0  0  0  0  0  0  0  0  0  0  0
   59.9362   31.4441   46.0453 H   0  0  0  0  0  0  0  0  0  0  0  0
   59.2160   30.5420   47.7420 O   0  0  0  0  0  0  0  0  0  0  0  0
   59.6370   29.6440   48.7560 C   0  0  0  0  0  0  0  0  0  0  0  0
   60.4173   30.1339   49.3569 H   0  0  0  0  0  0  0  0  0  0  0  0
   58.7536   29.3908   49.3605 H   0  0  0  0  0  0  0  0  0  0  0  0
   60.2060   28.3240   48.1910 C   0  0  0  0  0  0  0  0  0  0  0  0
   61.3018   28.3299   48.2869 H   0  0  0  0  0  0  0  0  0  0  0  0
   59.7846   27.4798   48.7565 H   0  0  0  0  0  0  0  0  0  0  0  0
   57.6840   29.3510   44.0140 N   0  0  0  0  0  0  0  0  0  0  0  0
   58.1430   30.5870   43.7480 C   0  0  0  0  0  0  0  0  0  0  0  0
   59.0725   30.8216   43.2085 H   0  0  0  0  0  0  0  0  0  0  0  0
  1  2  1  0
  2  3  1  0
  3  4  1  0
  4  5  2  0
  5  6  1  0
  6  7  2  0
  6  8  1  0
  8  9  1  0
  9 10  1  0
 10 11  1  0
 10 12  2  0
 12 13  1  0
 12 14  1  0
 14 15  1  0
  4 16  1  0
 16 17  1  0
 16 18  2  0
 18 19  1  0
 19 20  1  0
 20 21  1  0
 20 22  1  0
 20 23  1  0
 23 24  1  0
 24 25  1  0
 25 26  2  3
 26 27  1  0
 27 28  2  0
 27 29  1  0
 29 30  1  0
 29 31  1  0
 31 32  1  0
 31 33  1  0
 31 34  1  0
 34 35  1  0
 34 36  1  0
 34 37  1  0
 37 38  1  0
 37 39  1  0
 37 40  1  0
 40 41  1  0
 41 42  1  0
 41 43  1  0
 41 44  1  0
 44 45  1  0
 44 46  1  0
 44 47  1  0
 47 48  1  0
 48 49  1  0
 48 50  1  0
 48 51  1  0
 51 52  1  0
 51 53  1  0
 25 54  1  0
 54 55  1  0
 55 56  1  0
 19  2  2  0
 55 23  2  0
 14  8  2  0
 51 40  1  0
M  CHG  3   3  -1  24  -1  54  -1
M  END
>  <UniqueID>  (86) 
78

>  <SMILES>  (86) 
O=C(N=c1[n-]cc(Cc2c[n-]/c(=N/C(=O)c3cccs3)cn2)[n-]1)NCCCN1CCOCC1

>  <Energy>  (86) 
131.50177989551335

>  <Genealogy>  (86) 
O=C(N=c1[n-]cc(Cc2c[n-]c(=NC(=O)c3cccs3)cn2)[n-]1)NCCCN1CCOCC1 (protonated)
O=C(N=c1[n-]cc(Cc2c[n-]/c(=N/C(=O)c3cccs3)cn2)[n-]1)NCCCN1CCOCC1 (cis-trans isomerization)
O=C(N=c1[n-]cc(Cc2c[n-]/c(=N/C(=O)c3cccs3)cn2)[n-]1)NCCCN1CCOCC1 (3D coordinates assigned)
O=C(N=c1[n-]cc(Cc2c[n-]/c(=N/C(=O)c3cccs3)cn2)[n-]1)NCCCN1CCOCC1 (nonaromatic ring conformer: 131.50177989551335 kcal/mol)

>  <smiles>  (86) 
O=C(N=c1[nH]cc(Cc2c[nH]c(=NC(=O)c3cccs3)cn2)[nH]1)NCCCN1CCOCC1

>  <score_type>  (86) 
oracle

>  <origin>  (86) 
adg

>  <m_score__min__energy>  (86) 
-13.279999999999999

>  <m_primary>  (86) 
energy

$$$$
86:0
     RDKit          3D

 65 70  0  0  0  0  0  0  0  0999 V2000
   55.4730   25.9160   46.0330 O   0  0  0  0  0  0  0  0  0  0  0  0
   56.6160   25.4790   46.3480 C   0  0  0  0  0  0  0  0  0  0  0  0
   56.8370   23.9880   46.4520 C   0  0  0  0  0  0  0  0  0  0  0  0
   56.7860   23.3110   45.1070 C   0  0  0  0  0  0  0  0  0  0  0  0
   55.8480   23.7160   44.1430 C   0  0  0  0  0  0  0  0  0  0  0  0
   55.7810   23.0640   42.9090 C   0  0  0  0  0  0  0  0  0  0  0  0
   56.6430   22.0000   42.6310 C   0  0  0  0  0  0  0  0  0  0  0  0
   57.5710   21.5840   43.5890 C   0  0  0  0  0  0  0  0  0  0  0  0
   57.6410   22.2330   44.8250 C   0  0  0  0  0  0  0  0  0  0  0  0
   57.7050   26.4060   46.5460 N   0  0  0  0  0  0  0  0  0  0  0  0
   57.4290   27.8490   46.6540 C   0  0  0  0  0  0  0  0  0  0  0  0
   58.3740   28.5200   47.6670 C   0  0  0  0  0  0  0  0  0  0  0  0
   59.7440   27.9620   47.6410 N   0  0  0  0  0  0  0  0  0  0  0  0
   60.8070   28.8690   48.1490 C   0  0  1  0  0  0  0  0  0  0  0  0
   60.6180   30.2810   47.5610 C   0  0  0  0  0  0  0  0  0  0  0  0
   59.8320   30.5180   46.4170 C   0  0  0  0  0  0  0  0  0  0  0  0
   59.4620   31.8200   46.0740 C   0  0  0  0  0  0  0  0  0  0  0  0
   59.8560   32.8940   46.8750 C   0  0  0  0  0  0  0  0  0  0  0  0
   59.3020   34.5150   46.5000 Cl  0  0  0  0  0  0  0  0  0  0  0  0
   60.6980   32.6790   47.9690 C   0  0  0  0  0  0  0  0  0  0  0  0
   61.1900   31.3870   48.2370 C   0  0  0  0  0  0  0  0  0  0  0  0
   62.1860   31.0540   49.3340 C   0  0  1  0  0  0  0  0  0  0  0  0
   63.0810   32.1630   49.9120 C   0  0  0  0  0  0  0  0  0  0  0  0
   62.5180   33.2440   50.6310 C   0  0  0  0  0  0  0  0  0  0  0  0
   63.3270   34.2020   51.2470 C   0  0  0  0  0  0  0  0  0  0  0  0
   64.7140   34.0590   51.2360 C   0  0  0  0  0  0  0  0  0  0  0  0
   65.7300   35.2570   52.0190 Cl  0  0  0  0  0  0  0  0  0  0  0  0
   65.2860   32.9270   50.6570 C   0  0  0  0  0  0  0  0  0  0  0  0
   64.4760   31.9680   50.0420 C   0  0  0  0  0  0  0  0  0  0  0  0
   61.4420   30.1220   50.2760 C   0  0  0  0  0  0  0  0  0  0  0  0
   61.1640   30.4130   51.6230 C   0  0  0  0  0  0  0  0  0  0  0  0
   60.5990   29.4360   52.4470 C   0  0  0  0  0  0  0  0  0  0  0  0
   60.3240   29.7740   54.1460 Cl  0  0  0  0  0  0  0  0  0  0  0  0
   60.2740   28.1850   51.9210 C   0  0  0  0  0  0  0  0  0  0  0  0
   60.4110   27.9410   50.5530 C   0  0  0  0  0  0  0  0  0  0  0  0
   60.8840   28.9520   49.6930 C   0  0  0  0  0  0  0  0  0  0  0  0
   60.0750   27.1140   46.4780 C   0  0  0  0  0  0  0  0  0  0  0  0
   59.0970   25.9410   46.4350 C   0  0  0  0  0  0  0  0  0  0  0  0
   57.8238   23.8065   46.9030 H   0  0  0  0  0  0  0  0  0  0  0  0
   56.0309   23.5691   47.0722 H   0  0  0  0  0  0  0  0  0  0  0  0
   55.1638   24.5494   44.3604 H   0  0  0  0  0  0  0  0  0  0  0  0
   55.0486   23.3888   42.1553 H   0  0  0  0  0  0  0  0  0  0  0  0
   56.5910   21.4899   41.6578 H   0  0  0  0  0  0  0  0  0  0  0  0
   58.2475   20.7446   43.3703 H   0  0  0  0  0  0  0  0  0  0  0  0
   58.3682   21.8983   45.5794 H   0  0  0  0  0  0  0  0  0  0  0  0
   57.5690   28.3163   45.6681 H   0  0  0  0  0  0  0  0  0  0  0  0
   56.3937   27.9815   47.0013 H   0  0  0  0  0  0  0  0  0  0  0  0
   58.4291   29.5941   47.4360 H   0  0  0  0  0  0  0  0  0  0  0  0
   57.9636   28.3349   48.6706 H   0  0  0  0  0  0  0  0  0  0  0  0
   61.7610   28.4334   47.8171 H   0  0  0  0  0  0  0  0  0  0  0  0
   59.5080   29.6737   45.7907 H   0  0  0  0  0  0  0  0  0  0  0  0
   58.8593   32.0000   45.1716 H   0  0  0  0  0  0  0  0  0  0  0  0
   60.9768   33.5196   48.6215 H   0  0  0  0  0  0  0  0  0  0  0  0
   63.0632   30.5447   48.9084 H   0  0  0  0  0  0  0  0  0  0  0  0
   61.4241   33.3315   50.7062 H   0  0  0  0  0  0  0  0  0  0  0  0
   62.8688   35.0710   51.7418 H   0  0  0  0  0  0  0  0  0  0  0  0
   66.3769   32.7883   50.6842 H   0  0  0  0  0  0  0  0  0  0  0  0
   64.9313   31.0456   49.6523 H   0  0  0  0  0  0  0  0  0  0  0  0
   61.3913   31.4100   52.0284 H   0  0  0  0  0  0  0  0  0  0  0  0
   59.9088   27.3886   52.5861 H   0  0  0  0  0  0  0  0  0  0  0  0
   60.1482   26.9541   50.1444 H   0  0  0  0  0  0  0  0  0  0  0  0
   59.9878   27.7031   45.5532 H   0  0  0  0  0  0  0  0  0  0  0  0
   61.1058   26.7404   46.5670 H   0  0  0  0  0  0  0  0  0  0  0  0
   59.2215   25.4045   45.4828 H   0  0  0  0  0  0  0  0  0  0  0  0
   59.3117   25.2764   47.2848 H   0  0  0  0  0  0  0  0  0  0  0  0
  1  2  2  0
  2  3  1  0
  3  4  1  0
  4  5  2  0
  5  6  1  0
  6  7  2  0
  7  8  1  0
  8  9  2  0
  2 10  1  0
 10 11  1  0
 11 12  1  0
 12 13  1  0
 13 14  1  0
 14 15  1  0
 15 16  2  0
 16 17  1  0
 17 18  2  0
 18 19  1  0
 18 20  1  0
 20 21  2  0
 21 22  1  0
 22 23  1  0
 23 24  2  0
 24 25  1  0
 25 26  2  0
 26 27  1  0
 26 28  1  0
 28 29  2  0
 22 30  1  0
 30 31  2  0
 31 32  1  0
 32 33  1  0
 32 34  2  0
 34 35  1  0
 35 36  2  0
 13 37  1  0
 37 38  1  0
  9  4  1  0
 38 10  1  0
 36 14  1  0
 21 15  1  0
 29 23  1  0
 36 30  1  0
  3 39  1  0
  3 40  1  0
  5 41  1  0
  6 42  1  0
  7 43  1  0
  8 44  1  0
  9 45  1  0
 11 46  1  0
 11 47  1  0
 12 48  1  0
 12 49  1  0
 14 50  1  6
 16 51  1  0
 17 52  1  0
 20 53  1  0
 22 54  1  6
 24 55  1  0
 25 56  1  0
 28 57  1  0
 29 58  1  0
 31 59  1  0
 34 60  1  0
 35 61  1  0
 37 62  1  0
 37 63  1  0
 38 64  1  0
 38 65  1  0
M  END
>  <UniqueID>  (87) 
79

>  <SMILES>  (87) 
O=C(Cc1ccccc1)N1CCN(C2c3ccc(Cl)cc3C(c3ccc(Cl)cc3)c3cc(Cl)ccc32)CC1

>  <Energy>  (87) 
123.76331078294862

>  <Genealogy>  (87) 
O=C(Cc1ccccc1)N1CCN(C2c3ccc(Cl)cc3C(c3ccc(Cl)cc3)c3cc(Cl)ccc32)CC1 (3D coordinates assigned)
O=C(Cc1ccccc1)N1CCN(C2c3ccc(Cl)cc3C(c3ccc(Cl)cc3)c3cc(Cl)ccc32)CC1 (nonaromatic ring conformer: 123.76331078294862 kcal/mol)

>  <smiles>  (87) 
O=C(Cc1ccccc1)N1CCN(C2c3ccc(Cl)cc3C(c3ccc(Cl)cc3)c3cc(Cl)ccc32)CC1

>  <score_type>  (87) 
oracle

>  <origin>  (87) 
adg

>  <m_score__min__energy>  (87) 
-9.5199999999999996

>  <m_primary>  (87) 
energy

$$$$
87:0
     RDKit          3D

 52 54  0  0  1  0  0  0  0  0999 V2000
   60.3840   29.6150   46.1180 C   0  0  0  0  0  0  0  0  0  0  0  0
   59.6310   30.5160   45.2940 O   0  0  0  0  0  0  0  0  0  0  0  0
   59.1310   31.6990   45.8270 C   0  0  0  0  0  0  0  0  0  0  0  0
   59.7900   32.2840   46.9000 C   0  0  0  0  0  0  0  0  0  0  0  0
   59.2550   33.4530   47.3930 C   0  0  0  0  0  0  0  0  0  0  0  0
   58.1230   34.0460   46.8730 C   0  0  0  0  0  0  0  0  0  0  0  0
   57.5040   33.4250   45.8050 C   0  0  0  0  0  0  0  0  0  0  0  0
   57.9970   32.2360   45.2600 C   0  0  0  0  0  0  0  0  0  0  0  0
   57.2670   31.6590   44.1280 C   0  0  0  0  0  0  0  0  0  0  0  0
   57.0050   30.1860   44.2860 C   0  0  0  0  0  0  0  0  0  0  0  0
   55.9260   29.8010   44.8130 O   0  0  0  0  0  0  0  0  0  0  0  0
   58.0130   29.3140   43.8220 N   0  0  0  0  0  0  0  0  0  0  0  0
   57.7960   27.9120   43.9580 C   0  0  0  0  0  0  0  0  0  0  0  0
   57.9750   27.1040   42.8560 C   0  0  0  0  0  0  0  0  0  0  0  0
   57.7660   25.7290   42.9730 C   0  0  0  0  0  0  0  0  0  0  0  0
   57.3880   25.2710   44.2020 C   0  0  0  0  0  0  0  0  0  0  0  0
   57.1170   23.5370   44.3800 S   0  0  0  0  0  0  0  0  0  0  0  0
   58.4580   22.8610   44.6220 O   0  0  0  0  0  0  0  0  0  0  0  0
   56.4490   22.9460   43.1970 O   0  0  0  0  0  0  0  0  0  0  0  0
   56.2200   23.3280   45.8480 N   0  0  0  0  0  0  0  0  0  0  0  0
   54.9180   23.2510   45.8200 C   0  0  0  0  0  0  0  0  0  0  0  0
   54.2780   22.7070   46.9160 C   0  0  0  0  0  0  0  0  0  0  0  0
   52.9100   22.5960   46.9570 C   0  0  0  0  0  0  0  0  0  0  0  0
   52.1820   22.0140   48.1220 C   0  0  0  0  0  0  0  0  0  0  0  0
   52.2410   23.0520   45.8600 N   0  0  0  0  0  0  0  0  0  0  0  0
   52.8840   23.5760   44.8090 C   0  0  0  0  0  0  0  0  0  0  0  0
   52.0640   24.0510   43.6480 C   0  0  0  0  0  0  0  0  0  0  0  0
   54.2250   23.7010   44.7360 N   0  0  0  0  0  0  0  0  0  0  0  0
   57.2050   26.0730   45.3100 C   0  0  0  0  0  0  0  0  0  0  0  0
   57.4100   27.4110   45.1880 C   0  0  0  0  0  0  0  0  0  0  0  0
   60.1944   29.8418   47.1775 H   0  0  0  0  0  0  0  0  0  0  0  0
   60.0783   28.5802   45.9042 H   0  0  0  0  0  0  0  0  0  0  0  0
   61.4566   29.7321   45.9042 H   0  0  0  0  0  0  0  0  0  0  0  0
   60.6953   31.8354   47.3350 H   0  0  0  0  0  0  0  0  0  0  0  0
   59.7551   33.9384   48.2440 H   0  0  0  0  0  0  0  0  0  0  0  0
   57.7266   34.9816   47.2944 H   0  0  0  0  0  0  0  0  0  0  0  0
   56.5998   33.8781   45.3725 H   0  0  0  0  0  0  0  0  0  0  0  0
   56.3020   32.1782   44.0320 H   0  0  0  0  0  0  0  0  0  0  0  0
   57.8935   31.7873   43.2330 H   0  0  0  0  0  0  0  0  0  0  0  0
   58.9030   29.6860   43.3880 H   0  0  0  0  0  0  0  0  0  0  0  0
   58.2799   27.5389   41.8927 H   0  0  0  0  0  0  0  0  0  0  0  0
   57.8991   25.0492   42.1185 H   0  0  0  0  0  0  0  0  0  0  0  0
   54.8745   22.3564   47.7712 H   0  0  0  0  0  0  0  0  0  0  0  0
   52.6356   22.3766   49.0562 H   0  0  0  0  0  0  0  0  0  0  0  0
   51.1260   22.3196   48.0844 H   0  0  0  0  0  0  0  0  0  0  0  0
   52.2476   20.9166   48.0844 H   0  0  0  0  0  0  0  0  0  0  0  0
   51.1682   24.5699   44.0197 H   0  0  0  0  0  0  0  0  0  0  0  0
   52.6612   24.7430   43.0360 H   0  0  0  0  0  0  0  0  0  0  0  0
   51.7608   23.1887   43.0360 H   0  0  0  0  0  0  0  0  0  0  0  0
   54.7130   24.1110   43.9120 H   0  0  0  0  0  0  0  0  0  0  0  0
   56.8992   25.6379   46.2729 H   0  0  0  0  0  0  0  0  0  0  0  0
   57.2719   28.0812   46.0492 H   0  0  0  0  0  0  0  0  0  0  0  0
  1  2  1  0
  2  3  1  0
  3  4  2  0
  4  5  1  0
  5  6  2  0
  6  7  1  0
  7  8  2  0
  8  9  1  0
  9 10  1  0
 10 11  2  0
 10 12  1  0
 12 13  1  0
 13 14  2  0
 14 15  1  0
 15 16  2  0
 16 17  1  0
 17 18  2  0
 17 19  2  0
 17 20  1  0
 20 21  2  0
 21 22  1  0
 22 23  2  0
 23 24  1  0
 23 25  1  0
 25 26  2  0
 26 27  1  0
 26 28  1  0
 16 29  1  0
 29 30  2  0
  8  3  1  0
 30 13  1  0
 28 21  1  0
  1 31  1  0
  1 32  1  0
  1 33  1  0
  4 34  1  0
  5 35  1  0
  6 36  1  0
  7 37  1  0
  9 38  1  0
  9 39  1  0
 12 40  1  0
 14 41  1  0
 15 42  1  0
 22 43  1  0
 24 44  1  0
 24 45  1  0
 24 46  1  0
 27 47  1  0
 27 48  1  0
 27 49  1  0
 28 50  1  0
 29 51  1  0
 30 52  1  0
M  END
>  <smiles>  (88) 
COc1ccccc1CC(=O)Nc1ccc(S(=O)(=O)N=c2cc(C)nc(C)[nH]2)cc1

>  <score_type>  (88) 
oracle

>  <origin>  (88) 
adg

>  <m_score__min__energy>  (88) 
-8.4600000000000009

>  <m_primary>  (88) 
energy

$$$$
88:0
     RDKit          3D

 47 49  0  0  0  0  0  0  0  0999 V2000
   55.5170   26.2300   45.8590 N   0  0  0  0  0  0  0  0  0  0  0  0
   56.2850   27.2680   45.8180 C   0  0  0  0  0  0  0  0  0  0  0  0
   55.9110   28.4360   45.2510 N   0  0  0  0  0  0  0  0  0  0  0  0
   57.0150   29.1860   45.4510 C   0  0  0  0  0  0  0  0  0  0  0  0
   57.1430   30.4120   45.0440 N   0  0  0  0  0  0  0  0  0  0  0  0
   56.9760   30.8400   43.6600 C   0  0  0  0  0  0  0  0  0  0  0  0
   57.7150   32.1610   43.4380 C   0  0  0  0  0  0  0  0  0  0  0  0
   58.6690   32.4090   44.5250 N   0  0  0  0  0  0  0  0  0  0  0  0
   58.2420   33.8620   45.3780 S   0  0  0  0  0  0  0  0  0  0  0  0
   56.7650   34.1300   45.2720 O   0  0  0  0  0  0  0  0  0  0  0  0
   58.9750   35.0210   44.7640 O   0  0  0  0  0  0  0  0  0  0  0  0
   58.7000   33.7180   47.0750 C   0  0  0  0  0  0  0  0  0  0  0  0
   58.1450   32.7060   47.8740 C   0  0  0  0  0  0  0  0  0  0  0  0
   58.5210   32.5860   49.2170 C   0  0  0  0  0  0  0  0  0  0  0  0
   59.4550   33.4710   49.7650 C   0  0  0  0  0  0  0  0  0  0  0  0
   60.0120   34.4780   48.9720 C   0  0  0  0  0  0  0  0  0  0  0  0
   59.6380   34.6020   47.6300 C   0  0  0  0  0  0  0  0  0  0  0  0
   57.9820   28.5090   46.1000 N   0  0  0  0  0  0  0  0  0  0  0  0
   59.2840   28.9720   46.4860 C   0  0  0  0  0  0  0  0  0  0  0  0
   60.2240   28.1460   46.6330 O   0  0  0  0  0  0  0  0  0  0  0  0
   59.5130   30.3670   46.7130 N   0  0  0  0  0  0  0  0  0  0  0  0
   60.8040   31.0200   46.5190 C   0  0  0  0  0  0  0  0  0  0  0  0
   61.4900   31.2630   47.8450 C   0  0  0  0  0  0  0  0  0  0  0  0
   61.2340   30.3930   48.9230 C   0  0  0  0  0  0  0  0  0  0  0  0
   61.8880   30.5630   50.1460 C   0  0  0  0  0  0  0  0  0  0  0  0
   62.8120   31.5950   50.3070 C   0  0  0  0  0  0  0  0  0  0  0  0
   63.0940   32.4540   49.2440 C   0  0  0  0  0  0  0  0  0  0  0  0
   62.4490   32.2920   48.0110 C   0  0  0  0  0  0  0  0  0  0  0  0
   62.8890   33.3890   46.7030 Cl  0  0  0  0  0  0  0  0  0  0  0  0
   57.5310   27.2900   46.3330 N   0  0  0  0  0  0  0  0  0  0  0  0
   54.9160   25.9690   45.0450 H   0  0  0  0  0  0  0  0  0  0  0  0
   57.3875   30.0729   42.9875 H   0  0  0  0  0  0  0  0  0  0  0  0
   55.9058   30.9803   43.4479 H   0  0  0  0  0  0  0  0  0  0  0  0
   58.2592   32.1146   42.4832 H   0  0  0  0  0  0  0  0  0  0  0  0
   56.9800   32.9791   43.4182 H   0  0  0  0  0  0  0  0  0  0  0  0
   58.6020   31.6290   45.2170 H   0  0  0  0  0  0  0  0  0  0  0  0
   57.4134   32.0061   47.4440 H   0  0  0  0  0  0  0  0  0  0  0  0
   58.0814   31.7948   49.8420 H   0  0  0  0  0  0  0  0  0  0  0  0
   59.7512   33.3745   50.8200 H   0  0  0  0  0  0  0  0  0  0  0  0
   60.7458   35.1743   49.4040 H   0  0  0  0  0  0  0  0  0  0  0  0
   60.0802   35.3943   47.0081 H   0  0  0  0  0  0  0  0  0  0  0  0
   61.4427   30.3772   45.8954 H   0  0  0  0  0  0  0  0  0  0  0  0
   60.6373   31.9893   46.0264 H   0  0  0  0  0  0  0  0  0  0  0  0
   60.5123   29.5719   48.8008 H   0  0  0  0  0  0  0  0  0  0  0  0
   61.6738   29.8820   50.9828 H   0  0  0  0  0  0  0  0  0  0  0  0
   63.3193   31.7321   51.2733 H   0  0  0  0  0  0  0  0  0  0  0  0
   63.8273   33.2634   49.3751 H   0  0  0  0  0  0  0  0  0  0  0  0
  1  2  2  3
  2  3  1  0
  3  4  1  0
  4  5  2  3
  5  6  1  0
  6  7  1  0
  7  8  1  0
  8  9  1  0
  9 10  2  0
  9 11  2  0
  9 12  1  0
 12 13  2  0
 13 14  1  0
 14 15  2  0
 15 16  1  0
 16 17  2  0
  4 18  1  0
 18 19  1  0
 19 20  2  0
 19 21  1  0
 21 22  1  0
 22 23  1  0
 23 24  2  0
 24 25  1  0
 25 26  2  0
 26 27  1  0
 27 28  2  0
 28 29  1  0
 18 30  1  0
 30  2  1  0
 17 12  1  0
 28 23  1  0
  1 31  1  0
  6 32  1  0
  6 33  1  0
  7 34  1  0
  7 35  1  0
  8 36  1  0
 13 37  1  0
 14 38  1  0
 15 39  1  0
 16 40  1  0
 17 41  1  0
 22 42  1  0
 22 43  1  0
 24 44  1  0
 25 45  1  0
 26 46  1  0
 27 47  1  0
M  CHG  3   3  -1  21  -1  30  -1
M  END
>  <UniqueID>  (89) 
80

>  <SMILES>  (89) 
N=c1[n-]c(=NCCNS(=O)(=O)c2ccccc2)n(C(=O)[N-]Cc2ccccc2Cl)[n-]1

>  <Energy>  (89) 
74.53276158707638

>  <Genealogy>  (89) 
N=c1[n-]c(=NCCNS(=O)(=O)c2ccccc2)n(C(=O)[N-]Cc2ccccc2Cl)[n-]1 (protonated)
N=c1[n-]c(=NCCNS(=O)(=O)c2ccccc2)n(C(=O)[N-]Cc2ccccc2Cl)[n-]1 (3D coordinates assigned)
N=c1[n-]c(=NCCNS(=O)(=O)c2ccccc2)n(C(=O)[N-]Cc2ccccc2Cl)[n-]1 (optimized conformer: 74.53276158707638 kcal/mol)

>  <smiles>  (89) 
N=c1[nH]c(=NCCNS(=O)(=O)c2ccccc2)n(C(=O)NCc2ccccc2Cl)[nH]1

>  <score_type>  (89) 
oracle

>  <origin>  (89) 
adg

>  <m_score__min__energy>  (89) 
-12.75

>  <m_primary>  (89) 
energy

$$$$
89:0
     RDKit          3D

 39 42  0  0  0  0  0  0  0  0999 V2000
   59.7140   31.5300   49.3180 F   0  0  0  0  0  0  0  0  0  0  0  0
   61.0380   31.7460   49.1060 C   0  0  0  0  0  0  0  0  0  0  0  0
   61.9740   31.0270   49.8550 C   0  0  0  0  0  0  0  0  0  0  0  0
   63.3400   31.2450   49.6690 C   0  0  0  0  0  0  0  0  0  0  0  0
   63.7760   32.1820   48.7280 C   0  0  0  0  0  0  0  0  0  0  0  0
   62.8460   32.9060   47.9740 C   0  0  0  0  0  0  0  0  0  0  0  0
   63.2930   33.7860   47.0430 F   0  0  0  0  0  0  0  0  0  0  0  0
   61.4670   32.6970   48.1630 C   0  0  0  0  0  0  0  0  0  0  0  0
   60.4770   33.4570   47.3670 C   0  0  0  0  0  0  0  0  0  0  0  0
   60.3550   34.8560   47.5020 C   0  0  0  0  0  0  0  0  0  0  0  0
   59.3990   35.5610   46.7390 C   0  0  0  0  0  0  0  0  0  0  0  0
   58.5880   34.8990   45.8600 N   0  0  0  0  0  0  0  0  0  0  0  0
   58.7140   33.5560   45.7290 C   0  0  0  0  0  0  0  0  0  0  0  0
   58.0070   32.7770   44.8960 N   0  0  0  0  0  0  0  0  0  0  0  0
   58.4840   31.5190   45.0850 C   0  0  0  0  0  0  0  0  0  0  0  0
   57.9860   30.3120   44.3770 C   0  0  0  0  0  0  0  0  0  0  0  0
   57.1040   30.4240   43.3670 C   0  0  0  0  0  0  0  0  0  0  0  0
   56.5240   29.2230   42.6650 C   0  0  0  0  0  0  0  0  0  0  0  0
   57.3930   28.0420   42.7770 N   0  0  0  0  0  0  0  0  0  0  0  0
   57.7540   27.7970   44.1780 C   0  0  0  0  0  0  0  0  0  0  0  0
   58.5810   28.9650   44.7280 C   0  0  0  0  0  0  0  0  0  0  0  0
   59.4970   31.5200   46.0490 C   0  0  0  0  0  0  0  0  0  0  0  0
   59.6230   32.8340   46.4490 C   0  0  0  0  0  0  0  0  0  0  0  0
   61.6328   30.2867   50.5936 H   0  0  0  0  0  0  0  0  0  0  0  0
   64.0732   30.6795   50.2628 H   0  0  0  0  0  0  0  0  0  0  0  0
   64.8529   32.3506   48.5799 H   0  0  0  0  0  0  0  0  0  0  0  0
   61.0061   35.3986   48.2032 H   0  0  0  0  0  0  0  0  0  0  0  0
   59.3060   36.6512   46.8527 H   0  0  0  0  0  0  0  0  0  0  0  0
   57.2420   33.0910   44.2610 H   0  0  0  0  0  0  0  0  0  0  0  0
   56.7951   31.4284   43.0419 H   0  0  0  0  0  0  0  0  0  0  0  0
   55.5472   28.9881   43.1130 H   0  0  0  0  0  0  0  0  0  0  0  0
   56.4253   29.4702   41.5977 H   0  0  0  0  0  0  0  0  0  0  0  0
   58.2590   28.1820   42.2030 H   0  0  0  0  0  0  0  0  0  0  0  0
   56.8800   27.2090   42.4070 H   0  0  0  0  0  0  0  0  0  0  0  0
   56.8366   27.6893   44.7753 H   0  0  0  0  0  0  0  0  0  0  0  0
   58.3531   26.8763   44.2367 H   0  0  0  0  0  0  0  0  0  0  0  0
   58.6319   28.8764   45.8232 H   0  0  0  0  0  0  0  0  0  0  0  0
   59.5803   28.9115   44.2712 H   0  0  0  0  0  0  0  0  0  0  0  0
   60.0720   30.6553   46.4118 H   0  0  0  0  0  0  0  0  0  0  0  0
  1  2  1  0
  2  3  2  0
  3  4  1  0
  4  5  2  0
  5  6  1  0
  6  7  1  0
  6  8  2  0
  8  9  1  0
  9 10  2  0
 10 11  1  0
 11 12  2  0
 12 13  1  0
 13 14  1  0
 14 15  1  0
 15 16  1  0
 16 17  2  0
 17 18  1  0
 18 19  1  0
 19 20  1  0
 20 21  1  0
 15 22  2  0
 22 23  1  0
  8  2  1  0
 23  9  1  0
 23 13  2  0
 21 16  1  0
  3 24  1  0
  4 25  1  0
  5 26  1  0
 10 27  1  0
 11 28  1  0
 14 29  1  0
 17 30  1  0
 18 31  1  0
 18 32  1  0
 19 33  1  0
 19 34  1  0
 20 35  1  0
 20 36  1  0
 21 37  1  0
 21 38  1  0
 22 39  1  0
M  CHG  1  19   1
M  END
>  <UniqueID>  (90) 
81

>  <SMILES>  (90) 
Fc1cccc(F)c1-c1ccnc2[nH]c(C3=CC[NH2+]CC3)cc12

>  <Energy>  (90) 
86.51697040751172

>  <Genealogy>  (90) 
Fc1cccc(F)c1-c1ccnc2[nH]c(C3=CC[NH2+]CC3)cc12 (protonated)
Fc1cccc(F)c1-c1ccnc2[nH]c(C3=CC[NH2+]CC3)cc12 (3D coordinates assigned)
Fc1cccc(F)c1-c1ccnc2[nH]c(C3=CC[NH2+]CC3)cc12 (nonaromatic ring conformer: 86.51697040751172 kcal/mol)

>  <smiles>  (90) 
Fc1cccc(F)c1-c1ccnc2[nH]c(C3=CCNCC3)cc12

>  <score_type>  (90) 
oracle

>  <origin>  (90) 
adg

>  <m_score__min__energy>  (90) 
-6.0599999999999996

>  <m_primary>  (90) 
energy

$$$$
90:0
     RDKit          3D

 48 50  0  0  0  0  0  0  0  0999 V2000
   61.2090   34.1400   46.8730 C   0  0  0  0  0  0  0  0  0  0  0  0
   59.7130   34.7400   46.1190 S   0  0  0  0  0  0  0  0  0  0  0  0
   59.8820   36.1660   45.6790 O   0  0  0  0  0  0  0  0  0  0  0  0
   58.6040   34.6760   47.1310 O   0  0  0  0  0  0  0  0  0  0  0  0
   59.2870   33.7470   44.7630 N   0  0  0  0  0  0  0  0  0  0  0  0
   58.5170   32.5380   44.8140 C   0  0  0  0  0  0  0  0  0  0  0  0
   58.5310   31.6870   45.9350 C   0  0  0  0  0  0  0  0  0  0  0  0
   57.7660   30.5170   45.9420 C   0  0  0  0  0  0  0  0  0  0  0  0
   56.9750   30.1800   44.8340 C   0  0  0  0  0  0  0  0  0  0  0  0
   56.1690   28.9090   44.8250 C   0  0  0  0  0  0  0  0  0  0  0  0
   56.9170   27.8310   45.4610 N   0  0  0  0  0  0  0  0  0  0  0  0
   56.3050   26.7690   46.2020 C   0  0  0  0  0  0  0  0  0  0  0  0
   55.1280   26.4060   45.9410 O   0  0  0  0  0  0  0  0  0  0  0  0
   57.0260   26.1080   47.2430 N   0  0  0  0  0  0  0  0  0  0  0  0
   58.0330   25.0840   46.9800 C   0  0  1  0  0  0  0  0  0  0  0  0
   57.4080   23.8140   46.4150 C   0  0  0  0  0  0  0  0  0  0  0  0
   58.1450   24.0450   45.0930 C   0  0  1  0  0  0  0  0  0  0  0  0
   57.2180   24.3070   43.8930 C   0  0  0  0  0  0  0  0  0  0  0  0
   56.4330   23.0470   43.5130 C   0  0  0  0  0  0  0  0  0  0  0  0
   55.1280   23.0020   44.2460 C   0  0  0  0  0  0  0  0  0  0  0  0
   54.0000   23.7490   43.9910 C   0  0  0  0  0  0  0  0  0  0  0  0
   53.0190   23.3520   44.8230 N   0  0  0  0  0  0  0  0  0  0  0  0
   53.4830   22.3740   45.5880 N   0  0  0  0  0  0  0  0  0  0  0  0
   54.7640   22.1360   45.2520 C   0  0  0  0  0  0  0  0  0  0  0  0
   58.7680   25.3180   45.6630 C   0  0  0  0  0  0  0  0  0  0  0  0
   56.9670   31.0230   43.7140 C   0  0  0  0  0  0  0  0  0  0  0  0
   57.7310   32.1930   43.7050 C   0  0  0  0  0  0  0  0  0  0  0  0
   57.7090   32.9970   42.6110 F   0  0  0  0  0  0  0  0  0  0  0  0
   61.1094   34.1799   47.9678 H   0  0  0  0  0  0  0  0  0  0  0  0
   61.3869   33.1010   46.5587 H   0  0  0  0  0  0  0  0  0  0  0  0
   62.0555   34.7682   46.5587 H   0  0  0  0  0  0  0  0  0  0  0  0
   59.1467   31.9438   46.8096 H   0  0  0  0  0  0  0  0  0  0  0  0
   57.7845   29.8568   46.8217 H   0  0  0  0  0  0  0  0  0  0  0  0
   55.2293   29.0713   45.3733 H   0  0  0  0  0  0  0  0  0  0  0  0
   55.9538   28.6291   43.7832 H   0  0  0  0  0  0  0  0  0  0  0  0
   58.5896   25.0648   47.9286 H   0  0  0  0  0  0  0  0  0  0  0  0
   56.3118   23.8510   46.3312 H   0  0  0  0  0  0  0  0  0  0  0  0
   57.5067   22.8577   46.9495 H   0  0  0  0  0  0  0  0  0  0  0  0
   58.7751   23.2502   44.6672 H   0  0  0  0  0  0  0  0  0  0  0  0
   56.5089   25.1060   44.1553 H   0  0  0  0  0  0  0  0  0  0  0  0
   57.8368   24.6040   43.0334 H   0  0  0  0  0  0  0  0  0  0  0  0
   56.2400   23.0534   42.4301 H   0  0  0  0  0  0  0  0  0  0  0  0
   57.0260   22.1619   43.7869 H   0  0  0  0  0  0  0  0  0  0  0  0
   53.9144   24.5405   43.2319 H   0  0  0  0  0  0  0  0  0  0  0  0
   55.4140   21.3740   45.7069 H   0  0  0  0  0  0  0  0  0  0  0  0
   58.4698   26.2381   45.1390 H   0  0  0  0  0  0  0  0  0  0  0  0
   59.8588   25.4592   45.6504 H   0  0  0  0  0  0  0  0  0  0  0  0
   56.3559   30.7620   42.8374 H   0  0  0  0  0  0  0  0  0  0  0  0
  1  2  1  0
  2  3  2  0
  2  4  2  0
  2  5  1  0
  5  6  1  0
  6  7  2  0
  7  8  1  0
  8  9  2  0
  9 10  1  0
 10 11  1  0
 11 12  1  0
 12 13  2  0
 12 14  1  0
 14 15  1  0
 15 16  1  0
 16 17  1  0
 17 18  1  0
 18 19  1  0
 19 20  1  0
 20 21  1  0
 21 22  2  0
 22 23  1  0
 23 24  1  0
 17 25  1  0
  9 26  1  0
 26 27  2  0
 27 28  1  0
 27  6  1  0
 25 15  1  0
 24 20  2  0
  1 29  1  0
  1 30  1  0
  1 31  1  0
  7 32  1  0
  8 33  1  0
 10 34  1  0
 10 35  1  0
 15 36  1  1
 16 37  1  0
 16 38  1  0
 17 39  1  6
 18 40  1  0
 18 41  1  0
 19 42  1  0
 19 43  1  0
 21 44  1  0
 24 45  1  0
 25 46  1  0
 25 47  1  0
 26 48  1  0
M  CHG  4   5  -1  11  -1  14  -1  23  -1
M  END
>  <UniqueID>  (91) 
82

>  <SMILES>  (91) 
CS(=O)(=O)[N-]c1ccc(C[N-]C(=O)[N-]C2CC(CCc3cn[n-]c3)C2)cc1F

>  <Energy>  (91) 
128.38094800186124

>  <Genealogy>  (91) 
CS(=O)(=O)[N-]c1ccc(C[N-]C(=O)[N-]C2CC(CCc3cn[n-]c3)C2)cc1F (protonated)
CS(=O)(=O)[N-]c1ccc(C[N-]C(=O)[N-]C2CC(CCc3cn[n-]c3)C2)cc1F (3D coordinates assigned)
CS(=O)(=O)[N-]c1ccc(C[N-]C(=O)[N-]C2CC(CCc3cn[n-]c3)C2)cc1F (nonaromatic ring conformer: 128.38094800186124 kcal/mol)

>  <smiles>  (91) 
CS(=O)(=O)Nc1ccc(CNC(=O)NC2CC(CCc3cn[nH]c3)C2)cc1F

>  <score_type>  (91) 
oracle

>  <origin>  (91) 
adg

>  <m_score__min__energy>  (91) 
-14.35

>  <m_primary>  (91) 
energy

$$$$
91:0
     RDKit          3D

 49 51  0  0  0  0  0  0  0  0999 V2000
   58.5670   31.5990   49.9640 C   0  0  0  0  0  0  0  0  0  0  0  0
   58.9750   33.0500   49.6920 C   0  0  0  0  0  0  0  0  0  0  0  0
   60.3470   33.3590   50.3030 C   0  0  0  0  0  0  0  0  0  0  0  0
   58.9580   33.3540   48.2060 C   0  0  0  0  0  0  0  0  0  0  0  0
   59.3020   34.6390   47.7500 C   0  0  0  0  0  0  0  0  0  0  0  0
   59.2960   34.9300   46.3850 C   0  0  0  0  0  0  0  0  0  0  0  0
   58.9510   33.9450   45.4580 C   0  0  0  0  0  0  0  0  0  0  0  0
   58.6080   32.6600   45.8930 C   0  0  0  0  0  0  0  0  0  0  0  0
   58.1250   31.4410   44.7170 S   0  0  0  0  0  0  0  0  0  0  0  0
   58.1740   32.0270   43.3330 O   0  0  0  0  0  0  0  0  0  0  0  0
   56.7230   30.9810   44.9970 O   0  0  0  0  0  0  0  0  0  0  0  0
   59.2090   30.0960   44.7990 N   0  0  0  0  0  0  0  0  0  0  0  0
   58.8410   28.9060   45.4970 C   0  0  0  0  0  0  0  0  0  0  0  0
   57.9350   28.0220   44.8950 C   0  0  0  0  0  0  0  0  0  0  0  0
   57.4880   26.8930   45.5840 C   0  0  0  0  0  0  0  0  0  0  0  0
   57.9350   26.6460   46.8830 C   0  0  0  0  0  0  0  0  0  0  0  0
   58.8350   27.5210   47.4930 C   0  0  0  0  0  0  0  0  0  0  0  0
   59.3120   28.6510   46.8060 C   0  0  0  0  0  0  0  0  0  0  0  0
   60.2450   29.5700   47.4950 C   0  0  0  0  0  0  0  0  0  0  0  0
   60.3140   29.5400   48.7540 O   0  0  0  0  0  0  0  0  0  0  0  0
   61.0610   30.4900   46.7480 N   0  0  0  0  0  0  0  0  0  0  0  0
   61.8720   31.5070   47.3550 C   0  0  0  0  0  0  0  0  0  0  0  0
   62.6370   31.2430   48.5060 C   0  0  0  0  0  0  0  0  0  0  0  0
   63.4380   32.2450   49.0630 C   0  0  0  0  0  0  0  0  0  0  0  0
   63.4900   33.5100   48.4720 C   0  0  0  0  0  0  0  0  0  0  0  0
   62.7490   33.7730   47.3170 C   0  0  0  0  0  0  0  0  0  0  0  0
   61.9490   32.7730   46.7550 C   0  0  0  0  0  0  0  0  0  0  0  0
   58.6030   32.3680   47.2650 C   0  0  0  0  0  0  0  0  0  0  0  0
   58.5192   31.4289   51.0497 H   0  0  0  0  0  0  0  0  0  0  0  0
   57.5798   31.4061   49.5188 H   0  0  0  0  0  0  0  0  0  0  0  0
   59.3090   30.9199   49.5188 H   0  0  0  0  0  0  0  0  0  0  0  0
   58.2348   33.7041   50.1760 H   0  0  0  0  0  0  0  0  0  0  0  0
   60.2719   33.3421   51.4003 H   0  0  0  0  0  0  0  0  0  0  0  0
   61.0740   32.6021   49.9735 H   0  0  0  0  0  0  0  0  0  0  0  0
   60.6793   34.3545   49.9735 H   0  0  0  0  0  0  0  0  0  0  0  0
   59.5776   35.4200   48.4739 H   0  0  0  0  0  0  0  0  0  0  0  0
   59.5641   35.9390   46.0385 H   0  0  0  0  0  0  0  0  0  0  0  0
   58.9488   34.1794   44.3833 H   0  0  0  0  0  0  0  0  0  0  0  0
   57.5744   28.2188   43.8746 H   0  0  0  0  0  0  0  0  0  0  0  0
   56.7836   26.1982   45.1032 H   0  0  0  0  0  0  0  0  0  0  0  0
   57.5771   25.7596   47.4272 H   0  0  0  0  0  0  0  0  0  0  0  0
   59.1743   27.3247   48.5208 H   0  0  0  0  0  0  0  0  0  0  0  0
   61.0030   30.4850   45.7060 H   0  0  0  0  0  0  0  0  0  0  0  0
   62.6050   30.2457   48.9690 H   0  0  0  0  0  0  0  0  0  0  0  0
   64.0280   32.0369   49.9678 H   0  0  0  0  0  0  0  0  0  0  0  0
   64.1145   34.2991   48.9162 H   0  0  0  0  0  0  0  0  0  0  0  0
   62.7949   34.7676   46.8493 H   0  0  0  0  0  0  0  0  0  0  0  0
   61.3774   32.9799   45.8382 H   0  0  0  0  0  0  0  0  0  0  0  0
   58.3199   31.3620   47.6083 H   0  0  0  0  0  0  0  0  0  0  0  0
  1  2  1  0
  2  3  1  0
  2  4  1  0
  4  5  2  0
  5  6  1  0
  6  7  2  0
  7  8  1  0
  8  9  1  0
  9 10  2  0
  9 11  2  0
  9 12  1  0
 12 13  1  0
 13 14  2  0
 14 15  1  0
 15 16  2  0
 16 17  1  0
 17 18  2  0
 18 19  1  0
 19 20  2  0
 19 21  1  0
 21 22  1  0
 22 23  2  0
 23 24  1  0
 24 25  2  0
 25 26  1  0
 26 27  2  0
  8 28  2  0
 28  4  1  0
 18 13  1  0
 27 22  1  0
  1 29  1  0
  1 30  1  0
  1 31  1  0
  2 32  1  0
  3 33  1  0
  3 34  1  0
  3 35  1  0
  5 36  1  0
  6 37  1  0
  7 38  1  0
 14 39  1  0
 15 40  1  0
 16 41  1  0
 17 42  1  0
 21 43  1  0
 23 44  1  0
 24 45  1  0
 25 46  1  0
 26 47  1  0
 27 48  1  0
 28 49  1  0
M  CHG  1  12  -1
M  END
>  <UniqueID>  (92) 
83

>  <SMILES>  (92) 
CC(C)c1cccc(S(=O)(=O)[N-]c2ccccc2C(=O)Nc2ccccc2)c1

>  <Energy>  (92) 
60.35870662230934

>  <Genealogy>  (92) 
CC(C)c1cccc(S(=O)(=O)[N-]c2ccccc2C(=O)Nc2ccccc2)c1 (protonated)
CC(C)c1cccc(S(=O)(=O)[N-]c2ccccc2C(=O)Nc2ccccc2)c1 (3D coordinates assigned)
CC(C)c1cccc(S(=O)(=O)[N-]c2ccccc2C(=O)Nc2ccccc2)c1 (optimized conformer: 60.35870662230934 kcal/mol)

>  <smiles>  (92) 
CC(C)c1cccc(S(=O)(=O)Nc2ccccc2C(=O)Nc2ccccc2)c1

>  <score_type>  (92) 
oracle

>  <origin>  (92) 
adg

>  <m_score__min__energy>  (92) 
-9.8900000000000006

>  <m_primary>  (92) 
energy

$$$$
92:0
     RDKit          3D

 43 44  0  0  0  0  0  0  0  0999 V2000
   56.7260   27.1530   45.7330 C   0  0  0  0  0  0  0  0  0  0  0  0
   55.8970   28.2100   45.2650 O   0  0  0  0  0  0  0  0  0  0  0  0
   56.4140   29.4090   44.7670 C   0  0  0  0  0  0  0  0  0  0  0  0
   56.3000   29.6990   43.4080 C   0  0  0  0  0  0  0  0  0  0  0  0
   56.8320   30.8970   42.9310 C   0  0  0  0  0  0  0  0  0  0  0  0
   56.7300   31.2050   41.5710 O   0  0  0  0  0  0  0  0  0  0  0  0
   57.3920   32.3190   40.9830 C   0  0  0  0  0  0  0  0  0  0  0  0
   57.4470   31.7510   43.7950 N   0  0  0  0  0  0  0  0  0  0  0  0
   57.5480   31.4610   45.1210 C   0  0  0  0  0  0  0  0  0  0  0  0
   58.1430   32.2660   45.9490 N   0  0  0  0  0  0  0  0  0  0  0  0
   57.9500   33.6840   46.0810 C   0  0  0  0  0  0  0  0  0  0  0  0
   57.1990   34.3140   45.2890 O   0  0  0  0  0  0  0  0  0  0  0  0
   58.6230   34.4010   47.1160 N   0  0  0  0  0  0  0  0  0  0  0  0
   59.5100   33.6200   48.3860 S   0  0  0  0  0  0  0  0  0  0  0  0
   58.7410   32.4090   48.8340 O   0  0  0  0  0  0  0  0  0  0  0  0
   59.6400   34.5580   49.5520 O   0  0  0  0  0  0  0  0  0  0  0  0
   61.1280   33.1550   47.8210 C   0  0  0  0  0  0  0  0  0  0  0  0
   61.8800   34.1030   47.1040 C   0  0  0  0  0  0  0  0  0  0  0  0
   63.1890   33.8250   46.7100 C   0  0  0  0  0  0  0  0  0  0  0  0
   63.7670   32.5980   47.0230 C   0  0  0  0  0  0  0  0  0  0  0  0
   63.0360   31.6410   47.7270 C   0  0  0  0  0  0  0  0  0  0  0  0
   61.7160   31.9010   48.1380 C   0  0  0  0  0  0  0  0  0  0  0  0
   60.9740   30.8050   48.8680 C   0  0  0  0  0  0  0  0  0  0  0  0
   60.2120   29.6780   47.7090 S   0  0  0  0  0  0  0  0  0  0  0  0
   58.4950   29.8680   47.7510 N   0  0  0  0  0  0  0  0  0  0  0  0
   60.7140   29.9800   46.3250 O   0  0  0  0  0  0  0  0  0  0  0  0
   60.5620   28.2600   48.0630 O   0  0  0  0  0  0  0  0  0  0  0  0
   57.0330   30.2970   45.5930 N   0  0  0  0  0  0  0  0  0  0  0  0
   56.7291   27.1490   46.8330 H   0  0  0  0  0  0  0  0  0  0  0  0
   56.3383   26.1920   45.3640 H   0  0  0  0  0  0  0  0  0  0  0  0
   57.7517   27.3006   45.3640 H   0  0  0  0  0  0  0  0  0  0  0  0
   55.8001   28.9965   42.7250 H   0  0  0  0  0  0  0  0  0  0  0  0
   57.7815   32.9744   41.7759 H   0  0  0  0  0  0  0  0  0  0  0  0
   58.2252   31.9630   40.3593 H   0  0  0  0  0  0  0  0  0  0  0  0
   56.6810   32.8807   40.3593 H   0  0  0  0  0  0  0  0  0  0  0  0
   61.4308   35.0747   46.8511 H   0  0  0  0  0  0  0  0  0  0  0  0
   63.7655   34.5768   46.1510 H   0  0  0  0  0  0  0  0  0  0  0  0
   64.8009   32.3829   46.7150 H   0  0  0  0  0  0  0  0  0  0  0  0
   63.4975   30.6709   47.9637 H   0  0  0  0  0  0  0  0  0  0  0  0
   61.6818   30.2489   49.5003 H   0  0  0  0  0  0  0  0  0  0  0  0
   60.1873   31.2617   49.4865 H   0  0  0  0  0  0  0  0  0  0  0  0
   58.2830   30.8180   47.3730 H   0  0  0  0  0  0  0  0  0  0  0  0
   58.0940   29.1780   47.0780 H   0  0  0  0  0  0  0  0  0  0  0  0
  1  2  1  0
  2  3  1  0
  3  4  1  0
  4  5  2  0
  5  6  1  0
  6  7  1  0
  5  8  1  0
  8  9  1  0
  9 10  2  3
 10 11  1  0
 11 12  2  0
 11 13  1  0
 13 14  1  0
 14 15  2  0
 14 16  2  0
 14 17  1  0
 17 18  2  0
 18 19  1  0
 19 20  2  0
 20 21  1  0
 21 22  2  0
 22 23  1  0
 23 24  1  0
 24 25  1  0
 24 26  2  0
 24 27  2  0
  9 28  1  0
 28  3  2  0
 22 17  1  0
  1 29  1  0
  1 30  1  0
  1 31  1  0
  4 32  1  0
  7 33  1  0
  7 34  1  0
  7 35  1  0
 18 36  1  0
 19 37  1  0
 20 38  1  0
 21 39  1  0
 23 40  1  0
 23 41  1  0
 25 42  1  0
 25 43  1  0
M  CHG  2   8  -1  13  -1
M  END
>  <UniqueID>  (93) 
84

>  <SMILES>  (93) 
COc1cc(OC)[n-]c(=NC(=O)[N-]S(=O)(=O)c2ccccc2CS(N)(=O)=O)n1

>  <Energy>  (93) 
38.0693113050006

>  <Genealogy>  (93) 
COc1cc(OC)[n-]c(=NC(=O)[N-]S(=O)(=O)c2ccccc2CS(N)(=O)=O)n1 (protonated)
COc1cc(OC)[n-]c(=NC(=O)[N-]S(=O)(=O)c2ccccc2CS(N)(=O)=O)n1 (3D coordinates assigned)
COc1cc(OC)[n-]c(=NC(=O)[N-]S(=O)(=O)c2ccccc2CS(N)(=O)=O)n1 (optimized conformer: 38.0693113050006 kcal/mol)

>  <smiles>  (93) 
COc1cc(OC)[nH]c(=NC(=O)NS(=O)(=O)c2ccccc2CS(N)(=O)=O)n1

>  <score_type>  (93) 
oracle

>  <origin>  (93) 
adg

>  <m_score__min__energy>  (93) 
-11.02

>  <m_primary>  (93) 
energy

$$$$
93:0
     RDKit          3D

 52 55  0  0  0  0  0  0  0  0999 V2000
   55.3770   29.1490   44.9130 N   0  0  0  0  0  0  0  0  0  0  0  0
   55.9640   30.0690   43.9990 C   0  0  0  0  0  0  0  0  0  0  0  0
   55.8830   29.8560   42.7590 O   0  0  0  0  0  0  0  0  0  0  0  0
   56.6270   31.1970   44.4940 O   0  0  0  0  0  0  0  0  0  0  0  0
   57.7570   31.7870   43.8530 C   0  0  0  0  0  0  0  0  0  0  0  0
   58.2790   32.9260   44.6700 C   0  0  0  0  0  0  0  0  0  0  0  0
   58.0880   33.1230   46.0190 C   0  0  0  0  0  0  0  0  0  0  0  0
   58.8540   34.1760   46.3500 N   0  0  0  0  0  0  0  0  0  0  0  0
   59.0950   34.6900   47.6960 C   0  0  0  0  0  0  0  0  0  0  0  0
   59.7590   33.6210   48.5790 C   0  0  2  0  0  0  0  0  0  0  0  0
   60.8180   32.8210   47.7850 C   0  0  0  0  0  0  0  0  0  0  0  0
   61.4340   31.7530   48.6050 N   0  0  0  0  0  0  0  0  0  0  0  0
   62.4270   32.2650   49.5930 C   0  0  0  0  0  0  0  0  0  0  0  0
   63.6580   32.9280   48.9170 C   0  0  0  0  0  0  0  0  0  0  0  0
   64.7910   32.5250   49.7770 C   0  0  0  0  0  0  0  0  0  0  0  0
   66.0980   33.0180   49.7370 C   0  0  0  0  0  0  0  0  0  0  0  0
   67.0490   32.4740   50.6140 C   0  0  0  0  0  0  0  0  0  0  0  0
   66.6850   31.4460   51.5030 C   0  0  0  0  0  0  0  0  0  0  0  0
   65.3690   30.9600   51.5180 C   0  0  0  0  0  0  0  0  0  0  0  0
   64.4360   31.5250   50.6440 C   0  0  0  0  0  0  0  0  0  0  0  0
   63.0180   31.1360   50.4790 C   0  0  0  0  0  0  0  0  0  0  0  0
   60.3630   30.9330   49.2210 C   0  0  0  0  0  0  0  0  0  0  0  0
   59.3120   31.8030   49.9510 C   0  0  2  0  0  0  0  0  0  0  0  0
   58.1760   30.9320   50.5050 C   0  0  0  0  0  0  0  0  0  0  0  0
   57.0720   31.7160   50.8670 O   0  0  0  0  0  0  0  0  0  0  0  0
   58.7540   32.7480   49.0570 O   0  0  0  0  0  0  0  0  0  0  0  0
   59.4870   34.5940   45.2660 N   0  0  0  0  0  0  0  0  0  0  0  0
   59.1550   33.8470   44.2220 N   0  0  0  0  0  0  0  0  0  0  0  0
   54.4450   29.3420   45.3440 H   0  0  0  0  0  0  0  0  0  0  0  0
   58.5466   31.0296   43.7394 H   0  0  0  0  0  0  0  0  0  0  0  0
   57.4527   32.1639   42.8654 H   0  0  0  0  0  0  0  0  0  0  0  0
   57.4407   32.5380   46.6889 H   0  0  0  0  0  0  0  0  0  0  0  0
   59.7556   35.5673   47.6339 H   0  0  0  0  0  0  0  0  0  0  0  0
   58.1299   34.9677   48.1449 H   0  0  0  0  0  0  0  0  0  0  0  0
   60.2717   34.1128   49.4188 H   0  0  0  0  0  0  0  0  0  0  0  0
   60.3346   32.3628   46.9096 H   0  0  0  0  0  0  0  0  0  0  0  0
   61.6130   33.5176   47.4804 H   0  0  0  0  0  0  0  0  0  0  0  0
   61.8540   32.9917   50.1877 H   0  0  0  0  0  0  0  0  0  0  0  0
   63.7914   32.5530   47.8915 H   0  0  0  0  0  0  0  0  0  0  0  0
   63.5583   34.0199   48.8281 H   0  0  0  0  0  0  0  0  0  0  0  0
   66.3756   33.8160   49.0326 H   0  0  0  0  0  0  0  0  0  0  0  0
   68.0819   32.8523   50.6064 H   0  0  0  0  0  0  0  0  0  0  0  0
   67.4341   31.0223   52.1880 H   0  0  0  0  0  0  0  0  0  0  0  0
   65.0774   30.1508   52.2036 H   0  0  0  0  0  0  0  0  0  0  0  0
   62.9348   30.1602   49.9781 H   0  0  0  0  0  0  0  0  0  0  0  0
   62.4914   31.0277   51.4387 H   0  0  0  0  0  0  0  0  0  0  0  0
   59.8594   30.3560   48.4315 H   0  0  0  0  0  0  0  0  0  0  0  0
   60.8291   30.2693   49.9642 H   0  0  0  0  0  0  0  0  0  0  0  0
   59.8198   32.3186   50.7794 H   0  0  0  0  0  0  0  0  0  0  0  0
   57.8674   30.2105   49.7342 H   0  0  0  0  0  0  0  0  0  0  0  0
   58.5416   30.4074   51.4001 H   0  0  0  0  0  0  0  0  0  0  0  0
   56.9210   32.3570   50.1230 H   0  0  0  0  0  0  0  0  0  0  0  0
  1  2  1  0
  2  3  2  0
  2  4  1  0
  4  5  1  0
  5  6  1  0
  6  7  2  0
  7  8  1  0
  8  9  1  0
  9 10  1  0
 10 11  1  0
 11 12  1  0
 12 13  1  0
 13 14  1  0
 14 15  1  0
 15 16  2  0
 16 17  1  0
 17 18  2  0
 18 19  1  0
 19 20  2  0
 20 21  1  0
 12 22  1  0
 22 23  1  0
 23 24  1  0
 24 25  1  0
 23 26  1  0
  8 27  1  0
 27 28  2  0
 28  6  1  0
 26 10  1  0
 21 13  1  0
 20 15  1  0
  1 29  1  0
  5 30  1  0
  5 31  1  0
  7 32  1  0
  9 33  1  0
  9 34  1  0
 10 35  1  1
 11 36  1  0
 11 37  1  0
 13 38  1  0
 14 39  1  0
 14 40  1  0
 16 41  1  0
 17 42  1  0
 18 43  1  0
 19 44  1  0
 21 45  1  0
 21 46  1  0
 22 47  1  0
 22 48  1  0
 23 49  1  1
 24 50  1  0
 24 51  1  0
 25 52  1  0
M  CHG  1   1  -1
M  END
>  <UniqueID>  (94) 
85

>  <SMILES>  (94) 
[NH-]C(=O)OCc1cn(C[C@@H]2CN(C3Cc4ccccc4C3)C[C@H](CO)O2)nn1

>  <Energy>  (94) 
97.66305175152799

>  <Genealogy>  (94) 
[NH-]C(=O)OCc1cn(CC2CN(C3Cc4ccccc4C3)CC(CO)O2)nn1 (protonated)
[NH-]C(=O)OCc1cn(C[C@@H]2CN(C3Cc4ccccc4C3)C[C@H](CO)O2)nn1 (chirality)
[NH-]C(=O)OCc1cn(C[C@@H]2CN(C3Cc4ccccc4C3)C[C@H](CO)O2)nn1 (3D coordinates assigned)
[NH-]C(=O)OCc1cn(C[C@@H]2CN(C3Cc4ccccc4C3)C[C@H](CO)O2)nn1 (nonaromatic ring conformer: 97.66305175152799 kcal/mol)

>  <smiles>  (94) 
NC(=O)OCc1cn(CC2CN(C3Cc4ccccc4C3)CC(CO)O2)nn1

>  <score_type>  (94) 
oracle

>  <origin>  (94) 
adg

>  <m_score__min__energy>  (94) 
-11.640000000000001

>  <m_primary>  (94) 
energy

$$$$
94:0
     RDKit          3D

 40 42  0  0  0  0  0  0  0  0999 V2000
   55.9540   29.3590   43.6880 O   0  0  0  0  0  0  0  0  0  0  0  0
   56.5920   30.0000   44.5690 C   0  0  0  0  0  0  0  0  0  0  0  0
   56.2500   31.3640   44.8540 N   0  0  0  0  0  0  0  0  0  0  0  0
   57.1640   32.4600   45.0050 C   0  0  0  0  0  0  0  0  0  0  0  0
   57.2030   33.1380   46.2300 C   0  0  0  0  0  0  0  0  0  0  0  0
   58.0930   34.2000   46.4220 C   0  0  0  0  0  0  0  0  0  0  0  0
   58.9620   34.5800   45.3970 C   0  0  0  0  0  0  0  0  0  0  0  0
   58.9490   33.8930   44.1800 C   0  0  0  0  0  0  0  0  0  0  0  0
   58.0590   32.8320   43.9830 C   0  0  0  0  0  0  0  0  0  0  0  0
   57.6630   29.3260   45.3410 C   0  0  0  0  0  0  0  0  0  0  0  0
   58.7500   30.0610   45.8480 C   0  0  0  0  0  0  0  0  0  0  0  0
   59.7570   29.4220   46.5740 C   0  0  0  0  0  0  0  0  0  0  0  0
   59.7010   28.0440   46.7930 C   0  0  0  0  0  0  0  0  0  0  0  0
   58.6370   27.2880   46.2780 C   0  0  0  0  0  0  0  0  0  0  0  0
   58.6020   25.8230   46.4930 C   0  0  0  0  0  0  0  0  0  0  0  0
   59.6790   25.2070   46.7140 O   0  0  0  0  0  0  0  0  0  0  0  0
   57.3780   25.0730   46.4610 N   0  0  0  0  0  0  0  0  0  0  0  0
   56.8990   24.3010   45.3490 C   0  0  0  0  0  0  0  0  0  0  0  0
   57.8330   23.5540   44.6200 C   0  0  0  0  0  0  0  0  0  0  0  0
   57.4170   22.6950   43.6030 C   0  0  0  0  0  0  0  0  0  0  0  0
   56.0620   22.5810   43.2950 C   0  0  0  0  0  0  0  0  0  0  0  0
   55.1210   23.3490   43.9850 C   0  0  0  0  0  0  0  0  0  0  0  0
   55.5230   24.2370   45.0000 C   0  0  0  0  0  0  0  0  0  0  0  0
   54.5010   25.1120   45.6180 C   0  0  0  0  0  0  0  0  0  0  0  0
   54.7340   26.3320   45.8170 O   0  0  0  0  0  0  0  0  0  0  0  0
   53.2500   24.6020   45.9440 O   0  0  0  0  0  0  0  0  0  0  0  0
   57.6100   27.9400   45.5720 C   0  0  0  0  0  0  0  0  0  0  0  0
   56.5302   32.8338   47.0454 H   0  0  0  0  0  0  0  0  0  0  0  0
   58.1084   34.7367   47.3820 H   0  0  0  0  0  0  0  0  0  0  0  0
   59.6565   35.4197   45.5474 H   0  0  0  0  0  0  0  0  0  0  0  0
   59.6396   34.1871   43.3759 H   0  0  0  0  0  0  0  0  0  0  0  0
   58.0581   32.2868   43.0276 H   0  0  0  0  0  0  0  0  0  0  0  0
   58.8070   31.1453   45.6715 H   0  0  0  0  0  0  0  0  0  0  0  0
   60.5980   30.0066   46.9752 H   0  0  0  0  0  0  0  0  0  0  0  0
   60.4946   27.5489   47.3719 H   0  0  0  0  0  0  0  0  0  0  0  0
   58.9044   23.6457   44.8517 H   0  0  0  0  0  0  0  0  0  0  0  0
   58.1589   22.1067   43.0432 H   0  0  0  0  0  0  0  0  0  0  0  0
   55.7337   21.8859   42.5082 H   0  0  0  0  0  0  0  0  0  0  0  0
   54.0543   23.2587   43.7322 H   0  0  0  0  0  0  0  0  0  0  0  0
   56.7551   27.3587   45.1961 H   0  0  0  0  0  0  0  0  0  0  0  0
  1  2  2  0
  2  3  1  0
  3  4  1  0
  4  5  2  0
  5  6  1  0
  6  7  2  0
  7  8  1  0
  8  9  2  0
  2 10  1  0
 10 11  2  0
 11 12  1  0
 12 13  2  0
 13 14  1  0
 14 15  1  0
 15 16  2  0
 15 17  1  0
 17 18  1  0
 18 19  2  0
 19 20  1  0
 20 21  2  0
 21 22  1  0
 22 23  2  0
 23 24  1  0
 24 25  2  0
 24 26  1  0
 14 27  2  0
  9  4  1  0
 27 10  1  0
 23 18  1  0
  5 28  1  0
  6 29  1  0
  7 30  1  0
  8 31  1  0
  9 32  1  0
 11 33  1  0
 12 34  1  0
 13 35  1  0
 19 36  1  0
 20 37  1  0
 21 38  1  0
 22 39  1  0
 27 40  1  0
M  CHG  3   3  -1  17  -1  26  -1
M  END
>  <UniqueID>  (95) 
86

>  <SMILES>  (95) 
O=C([N-]c1ccccc1)c1cccc(C(=O)[N-]c2ccccc2C(=O)[O-])c1

>  <Energy>  (95) 
60.01049734072704

>  <Genealogy>  (95) 
O=C([N-]c1ccccc1)c1cccc(C(=O)[N-]c2ccccc2C(=O)[O-])c1 (protonated)
O=C([N-]c1ccccc1)c1cccc(C(=O)[N-]c2ccccc2C(=O)[O-])c1 (3D coordinates assigned)
O=C([N-]c1ccccc1)c1cccc(C(=O)[N-]c2ccccc2C(=O)[O-])c1 (optimized conformer: 60.01049734072704 kcal/mol)

>  <smiles>  (95) 
O=C(Nc1ccccc1)c1cccc(C(=O)Nc2ccccc2C(=O)O)c1

>  <score_type>  (95) 
oracle

>  <origin>  (95) 
adg

>  <m_score__min__energy>  (95) 
-15.51

>  <m_primary>  (95) 
energy

$$$$
95:0
     RDKit          3D

 42 44  0  0  1  0  0  0  0  0999 V2000
   59.6460   34.4460   49.1930 C   0  0  0  0  0  0  0  0  0  0  0  0
   59.2360   33.3820   48.3580 O   0  0  0  0  0  0  0  0  0  0  0  0
   58.7410   33.6470   47.0850 C   0  0  0  0  0  0  0  0  0  0  0  0
   57.4550   33.2730   46.7560 C   0  0  0  0  0  0  0  0  0  0  0  0
   56.9600   33.5320   45.4980 C   0  0  0  0  0  0  0  0  0  0  0  0
   57.7570   34.1630   44.5800 C   0  0  0  0  0  0  0  0  0  0  0  0
   59.0410   34.5290   44.9260 C   0  0  0  0  0  0  0  0  0  0  0  0
   59.5660   34.2780   46.1950 C   0  0  0  0  0  0  0  0  0  0  0  0
   60.8930   34.6850   46.4730 N   0  0  0  0  0  0  0  0  0  0  0  0
   61.8020   33.8250   46.7370 C   0  0  0  0  0  0  0  0  0  0  0  0
   63.1410   34.1520   46.8240 C   0  0  0  0  0  0  0  0  0  0  0  0
   64.0420   33.1420   47.1150 C   0  0  0  0  0  0  0  0  0  0  0  0
   63.6040   31.8850   47.3030 N   0  0  0  0  0  0  0  0  0  0  0  0
   62.2990   31.5660   47.2180 C   0  0  0  0  0  0  0  0  0  0  0  0
   61.8670   30.3820   47.3940 N   0  0  0  0  0  0  0  0  0  0  0  0
   60.7150   29.9080   46.7530 C   0  0  0  0  0  0  0  0  0  0  0  0
   59.4630   30.0730   47.3530 C   0  0  0  0  0  0  0  0  0  0  0  0
   58.3150   29.6130   46.7410 C   0  0  0  0  0  0  0  0  0  0  0  0
   58.3720   28.9770   45.5180 C   0  0  0  0  0  0  0  0  0  0  0  0
   57.1710   28.5440   44.9690 O   0  0  0  0  0  0  0  0  0  0  0  0
   56.5150   29.4670   44.1100 C   0  0  0  0  0  0  0  0  0  0  0  0
   56.8900   30.7560   44.3920 F   0  0  0  0  0  0  0  0  0  0  0  0
   55.1500   29.3750   44.3620 F   0  0  0  0  0  0  0  0  0  0  0  0
   56.7300   29.1540   42.7810 F   0  0  0  0  0  0  0  0  0  0  0  0
   59.5930   28.8010   44.9060 C   0  0  0  0  0  0  0  0  0  0  0  0
   60.7340   29.2630   45.5250 C   0  0  0  0  0  0  0  0  0  0  0  0
   61.4150   32.5530   46.9340 N   0  0  0  0  0  0  0  0  0  0  0  0
   59.5321   34.1503   50.2464 H   0  0  0  0  0  0  0  0  0  0  0  0
   60.7006   34.6850   48.9913 H   0  0  0  0  0  0  0  0  0  0  0  0
   59.0245   35.3309   48.9913 H   0  0  0  0  0  0  0  0  0  0  0  0
   56.8234   32.7665   47.5007 H   0  0  0  0  0  0  0  0  0  0  0  0
   55.9346   33.2352   45.2326 H   0  0  0  0  0  0  0  0  0  0  0  0
   57.3746   34.3770   43.5710 H   0  0  0  0  0  0  0  0  0  0  0  0
   59.6708   35.0343   44.1790 H   0  0  0  0  0  0  0  0  0  0  0  0
   63.4820   35.1859   46.6665 H   0  0  0  0  0  0  0  0  0  0  0  0
   65.1158   33.3679   47.1924 H   0  0  0  0  0  0  0  0  0  0  0  0
   64.2790   31.1200   47.5230 H   0  0  0  0  0  0  0  0  0  0  0  0
   59.3920   30.5773   48.3280 H   0  0  0  0  0  0  0  0  0  0  0  0
   57.3422   29.7552   47.2344 H   0  0  0  0  0  0  0  0  0  0  0  0
   59.6569   28.2957   43.9310 H   0  0  0  0  0  0  0  0  0  0  0  0
   61.7018   29.1139   45.0238 H   0  0  0  0  0  0  0  0  0  0  0  0
   60.3840   32.3080   46.8660 H   0  0  0  0  0  0  0  0  0  0  0  0
  1  2  1  0
  2  3  1  0
  3  4  2  0
  4  5  1  0
  5  6  2  0
  6  7  1  0
  7  8  2  0
  8  9  1  0
  9 10  2  0
 10 11  1  0
 11 12  2  0
 12 13  1  0
 13 14  1  0
 14 15  2  0
 15 16  1  0
 16 17  2  0
 17 18  1  0
 18 19  2  0
 19 20  1  0
 20 21  1  0
 21 22  1  0
 21 23  1  0
 21 24  1  0
 19 25  1  0
 25 26  2  0
 14 27  1  0
  8  3  1  0
 27 10  1  0
 26 16  1  0
  1 28  1  0
  1 29  1  0
  1 30  1  0
  4 31  1  0
  5 32  1  0
  6 33  1  0
  7 34  1  0
 11 35  1  0
 12 36  1  0
 13 37  1  0
 17 38  1  0
 18 39  1  0
 25 40  1  0
 26 41  1  0
 27 42  1  0
M  END
>  <smiles>  (96) 
COc1ccccc1N=c1cc[nH]c(=Nc2ccc(OC(F)(F)F)cc2)[nH]1

>  <score_type>  (96) 
oracle

>  <origin>  (96) 
adg

>  <m_score__min__energy>  (96) 
-7.8799999999999999

>  <m_primary>  (96) 
energy

$$$$
96:0
     RDKit          3D

 40 42  0  0  0  0  0  0  0  0999 V2000
   57.0220   31.6870   42.1960 C   0  0  0  0  0  0  0  0  0  0  0  0
   57.0360   30.5190   43.5210 S   0  0  0  0  0  0  0  0  0  0  0  0
   56.7800   29.1560   42.9350 O   0  0  0  0  0  0  0  0  0  0  0  0
   55.8960   30.8730   44.4550 O   0  0  0  0  0  0  0  0  0  0  0  0
   58.4910   30.5110   44.4060 N   0  0  0  0  0  0  0  0  0  0  0  0
   58.6760   30.9800   45.7280 C   0  0  0  0  0  0  0  0  0  0  0  0
   58.9340   32.3150   45.9810 C   0  0  0  0  0  0  0  0  0  0  0  0
   59.1490   32.8070   47.2630 C   0  0  0  0  0  0  0  0  0  0  0  0
   59.4050   34.1480   47.4830 C   0  0  0  0  0  0  0  0  0  0  0  0
   59.4470   34.9550   46.5250 O   0  0  0  0  0  0  0  0  0  0  0  0
   59.6120   34.6110   48.7320 N   0  0  0  0  0  0  0  0  0  0  0  0
   59.5670   33.7590   49.7400 N   0  0  0  0  0  0  0  0  0  0  0  0
   59.3240   32.4450   49.5900 C   0  0  0  0  0  0  0  0  0  0  0  0
   59.2900   31.6650   50.5870 O   0  0  0  0  0  0  0  0  0  0  0  0
   59.1100   31.9610   48.3180 C   0  0  0  0  0  0  0  0  0  0  0  0
   58.8530   30.6250   48.0820 C   0  0  0  0  0  0  0  0  0  0  0  0
   58.6340   30.1030   46.8240 C   0  0  0  0  0  0  0  0  0  0  0  0
   58.3430   28.6850   46.6560 C   0  0  0  0  0  0  0  0  0  0  0  0
   58.9080   27.7730   47.3210 O   0  0  0  0  0  0  0  0  0  0  0  0
   57.3810   28.2460   45.7080 N   0  0  0  0  0  0  0  0  0  0  0  0
   57.1820   26.8170   45.6360 C   0  0  0  0  0  0  0  0  0  0  0  0
   56.5210   26.1350   46.6390 C   0  0  0  0  0  0  0  0  0  0  0  0
   56.3610   24.7800   46.5190 C   0  0  0  0  0  0  0  0  0  0  0  0
   56.8740   24.1600   45.3910 C   0  0  0  0  0  0  0  0  0  0  0  0
   57.5310   24.8290   44.3920 C   0  0  0  0  0  0  0  0  0  0  0  0
   57.6930   26.1960   44.5130 C   0  0  0  0  0  0  0  0  0  0  0  0
   58.5240   27.0940   43.2630 Cl  0  0  0  0  0  0  0  0  0  0  0  0
   57.0098   32.7073   42.6068 H   0  0  0  0  0  0  0  0  0  0  0  0
   57.9218   31.5513   41.5780 H   0  0  0  0  0  0  0  0  0  0  0  0
   56.1257   31.5297   41.5780 H   0  0  0  0  0  0  0  0  0  0  0  0
   59.3520   30.1370   43.9230 H   0  0  0  0  0  0  0  0  0  0  0  0
   58.9705   33.0155   45.1337 H   0  0  0  0  0  0  0  0  0  0  0  0
   59.8100   35.6220   48.9410 H   0  0  0  0  0  0  0  0  0  0  0  0
   59.7340   34.1490   50.7150 H   0  0  0  0  0  0  0  0  0  0  0  0
   58.8212   29.9407   48.9427 H   0  0  0  0  0  0  0  0  0  0  0  0
   56.8310   28.8670   45.0880 H   0  0  0  0  0  0  0  0  0  0  0  0
   56.1306   26.6699   47.5173 H   0  0  0  0  0  0  0  0  0  0  0  0
   55.8403   24.2007   47.2957 H   0  0  0  0  0  0  0  0  0  0  0  0
   56.7469   23.0718   45.2922 H   0  0  0  0  0  0  0  0  0  0  0  0
   57.9201   24.2910   43.5149 H   0  0  0  0  0  0  0  0  0  0  0  0
  1  2  1  0
  2  3  2  0
  2  4  2  0
  2  5  1  0
  5  6  1  0
  6  7  2  0
  7  8  1  0
  8  9  1  0
  9 10  2  0
  9 11  1  0
 11 12  1  0
 12 13  1  0
 13 14  2  0
 13 15  1  0
 15 16  1  0
 16 17  2  0
 17 18  1  0
 18 19  2  0
 18 20  1  0
 20 21  1  0
 21 22  2  0
 22 23  1  0
 23 24  2  0
 24 25  1  0
 25 26  2  0
 26 27  1  0
 17  6  1  0
 26 21  1  0
 15  8  2  0
  1 28  1  0
  1 29  1  0
  1 30  1  0
  5 31  1  0
  7 32  1  0
 11 33  1  0
 12 34  1  0
 16 35  1  0
 20 36  1  0
 22 37  1  0
 23 38  1  0
 24 39  1  0
 25 40  1  0
M  END
>  <smiles>  (97) 
CS(=O)(=O)Nc1cc2c(=O)[nH][nH]c(=O)c2cc1C(=O)Nc1ccccc1Cl

>  <score_type>  (97) 
oracle

>  <origin>  (97) 
adg

>  <m_score__min__energy>  (97) 
-8.4399999999999995

>  <m_primary>  (97) 
energy

$$$$
97:0
     RDKit          3D

 46 48  0  0  0  0  0  0  0  0999 V2000
   57.9470   32.3420   41.1310 C   0  0  0  0  0  0  0  0  0  0  0  0
   57.4060   31.6780   42.3920 C   0  0  0  0  0  0  0  0  0  0  0  0
   58.3280   31.8190   43.4720 O   0  0  0  0  0  0  0  0  0  0  0  0
   58.1390   31.2280   44.7250 C   0  0  0  0  0  0  0  0  0  0  0  0
   57.0110   30.7640   45.0530 O   0  0  0  0  0  0  0  0  0  0  0  0
   59.3050   31.1330   45.6790 C   0  0  1  0  0  0  0  0  0  0  0  0
   58.9560   31.5260   47.1160 C   0  0  0  0  0  0  0  0  0  0  0  0
   57.8750   32.5310   47.4280 C   0  0  0  0  0  0  0  0  0  0  0  0
   58.4400   34.2390   47.1060 S   0  0  0  0  0  0  0  0  0  0  0  0
   60.1510   33.9340   47.5780 C   0  0  0  0  0  0  0  0  0  0  0  0
   61.1360   33.8980   46.5810 C   0  0  0  0  0  0  0  0  0  0  0  0
   62.4680   33.6410   46.9160 C   0  0  0  0  0  0  0  0  0  0  0  0
   62.8260   33.4260   48.2490 C   0  0  0  0  0  0  0  0  0  0  0  0
   64.4960   33.0910   48.6660 Cl  0  0  0  0  0  0  0  0  0  0  0  0
   61.8530   33.4840   49.2510 C   0  0  0  0  0  0  0  0  0  0  0  0
   60.5170   33.7460   48.9240 C   0  0  0  0  0  0  0  0  0  0  0  0
   59.3330   33.8360   50.2220 Cl  0  0  0  0  0  0  0  0  0  0  0  0
   59.7080   31.1280   48.1020 N   0  0  0  0  0  0  0  0  0  0  0  0
   60.8060   30.2340   47.9160 C   0  0  0  0  0  0  0  0  0  0  0  0
   61.5960   29.9990   48.8670 O   0  0  0  0  0  0  0  0  0  0  0  0
   61.0000   29.6060   46.6510 N   0  0  0  0  0  0  0  0  0  0  0  0
   60.0060   29.7460   45.5900 C   0  0  1  0  0  0  0  0  0  0  0  0
   59.0410   28.5640   45.6140 C   0  0  0  0  0  0  0  0  0  0  0  0
   58.8500   27.7650   44.4680 C   0  0  0  0  0  0  0  0  0  0  0  0
   57.9920   26.6630   44.5000 C   0  0  0  0  0  0  0  0  0  0  0  0
   57.7690   25.6840   43.0610 Cl  0  0  0  0  0  0  0  0  0  0  0  0
   57.3160   26.3370   45.6760 C   0  0  0  0  0  0  0  0  0  0  0  0
   57.5020   27.1070   46.8240 C   0  0  0  0  0  0  0  0  0  0  0  0
   58.3630   28.2140   46.8050 C   0  0  0  0  0  0  0  0  0  0  0  0
   58.5500   28.9570   47.9710 O   0  0  0  0  0  0  0  0  0  0  0  0
   58.6190   33.1668   41.4104 H   0  0  0  0  0  0  0  0  0  0  0  0
   58.5025   31.6019   40.5363 H   0  0  0  0  0  0  0  0  0  0  0  0
   57.1099   32.7365   40.5363 H   0  0  0  0  0  0  0  0  0  0  0  0
   56.4518   32.1506   42.6679 H   0  0  0  0  0  0  0  0  0  0  0  0
   57.2576   30.6067   42.1915 H   0  0  0  0  0  0  0  0  0  0  0  0
   60.0328   31.8886   45.3483 H   0  0  0  0  0  0  0  0  0  0  0  0
   56.9975   32.3197   46.7992 H   0  0  0  0  0  0  0  0  0  0  0  0
   57.6203   32.4458   48.4947 H   0  0  0  0  0  0  0  0  0  0  0  0
   60.8592   34.0728   45.5309 H   0  0  0  0  0  0  0  0  0  0  0  0
   63.2357   33.6079   46.1289 H   0  0  0  0  0  0  0  0  0  0  0  0
   62.1382   33.3231   50.3011 H   0  0  0  0  0  0  0  0  0  0  0  0
   60.5002   29.7206   44.6076 H   0  0  0  0  0  0  0  0  0  0  0  0
   59.3828   28.0123   43.5380 H   0  0  0  0  0  0  0  0  0  0  0  0
   56.6362   25.4725   45.6979 H   0  0  0  0  0  0  0  0  0  0  0  0
   56.9700   26.8444   47.7503 H   0  0  0  0  0  0  0  0  0  0  0  0
   59.4480   28.9960   48.4380 H   0  0  0  0  0  0  0  0  0  0  0  0
  1  2  1  0
  2  3  1  0
  3  4  1  0
  4  5  2  0
  4  6  1  0
  6  7  1  0
  7  8  1  0
  8  9  1  0
  9 10  1  0
 10 11  2  0
 11 12  1  0
 12 13  2  0
 13 14  1  0
 13 15  1  0
 15 16  2  0
 16 17  1  0
  7 18  2  0
 18 19  1  0
 19 20  2  0
 19 21  1  0
 21 22  1  0
 22 23  1  0
 23 24  2  0
 24 25  1  0
 25 26  1  0
 25 27  2  0
 27 28  1  0
 28 29  2  0
 29 30  1  0
 22  6  1  0
 29 23  1  0
 16 10  1  0
  1 31  1  0
  1 32  1  0
  1 33  1  0
  2 34  1  0
  2 35  1  0
  6 36  1  6
  8 37  1  0
  8 38  1  0
 11 39  1  0
 12 40  1  0
 15 41  1  0
 22 42  1  6
 24 43  1  0
 27 44  1  0
 28 45  1  0
 30 46  1  0
M  CHG  1  21  -1
M  END
>  <UniqueID>  (98) 
87

>  <SMILES>  (98) 
CCOC(=O)[C@H]1C(CSc2ccc(Cl)cc2Cl)=NC(=O)[N-][C@H]1c1cc(Cl)ccc1O

>  <Energy>  (98) 
41.366297732904954

>  <Genealogy>  (98) 
CCOC(=O)C1C(CSc2ccc(Cl)cc2Cl)=NC(=O)[N-]C1c1cc(Cl)ccc1O (protonated)
CCOC(=O)[C@H]1C(CSc2ccc(Cl)cc2Cl)=NC(=O)[N-][C@H]1c1cc(Cl)ccc1O (chirality)
CCOC(=O)[C@H]1C(CSc2ccc(Cl)cc2Cl)=NC(=O)[N-][C@H]1c1cc(Cl)ccc1O (3D coordinates assigned)
CCOC(=O)[C@H]1C(CSc2ccc(Cl)cc2Cl)=NC(=O)[N-][C@H]1c1cc(Cl)ccc1O (nonaromatic ring conformer: 41.366297732904954 kcal/mol)

>  <smiles>  (98) 
CCOC(=O)C1C(CSc2ccc(Cl)cc2Cl)=NC(=O)NC1c1cc(Cl)ccc1O

>  <score_type>  (98) 
oracle

>  <origin>  (98) 
adg

>  <m_score__min__energy>  (98) 
-8.7100000000000009

>  <m_primary>  (98) 
energy

$$$$
98:0
     RDKit          3D

 34 36  0  0  0  0  0  0  0  0999 V2000
   57.0200   21.1180   43.0380 C   0  0  0  0  0  0  0  0  0  0  0  0
   55.9640   21.9130   43.5690 O   0  0  0  0  0  0  0  0  0  0  0  0
   56.1390   23.1820   44.1400 C   0  0  0  0  0  0  0  0  0  0  0  0
   57.2500   23.9960   43.8460 C   0  0  0  0  0  0  0  0  0  0  0  0
   57.3760   25.2550   44.4400 C   0  0  0  0  0  0  0  0  0  0  0  0
   56.3940   25.7290   45.3190 C   0  0  0  0  0  0  0  0  0  0  0  0
   56.5750   27.0180   45.9220 N   0  0  0  0  0  0  0  0  0  0  0  0
   56.5660   28.2840   45.2510 C   0  0  0  0  0  0  0  0  0  0  0  0
   55.5300   29.0010   45.2350 O   0  0  0  0  0  0  0  0  0  0  0  0
   57.8010   28.7480   44.5450 C   0  0  0  0  0  0  0  0  0  0  0  0
   58.3380   29.9530   45.2050 N   0  0  0  0  0  0  0  0  0  0  0  0
   59.5090   29.8830   45.9330 C   0  0  0  0  0  0  0  0  0  0  0  0
   60.1470   28.7980   46.0220 O   0  0  0  0  0  0  0  0  0  0  0  0
   59.9970   30.9820   46.5740 N   0  0  0  0  0  0  0  0  0  0  0  0
   59.3320   32.1580   46.5070 C   0  0  0  0  0  0  0  0  0  0  0  0
   59.7480   33.3290   47.1220 C   0  0  0  0  0  0  0  0  0  0  0  0
   58.5960   34.5040   46.7520 S   0  0  0  0  0  0  0  0  0  0  0  0
   57.5770   33.5350   45.8210 C   0  0  0  0  0  0  0  0  0  0  0  0
   58.1430   32.2650   45.7920 C   0  0  0  0  0  0  0  0  0  0  0  0
   57.6410   31.1390   45.1390 C   0  0  0  0  0  0  0  0  0  0  0  0
   56.5550   31.2160   44.5000 O   0  0  0  0  0  0  0  0  0  0  0  0
   55.2990   24.9040   45.6340 C   0  0  0  0  0  0  0  0  0  0  0  0
   55.1720   23.6450   45.0400 C   0  0  0  0  0  0  0  0  0  0  0  0
   57.6007   20.6808   43.8637 H   0  0  0  0  0  0  0  0  0  0  0  0
   56.5972   20.3121   42.4201 H   0  0  0  0  0  0  0  0  0  0  0  0
   57.6776   21.7472   42.4201 H   0  0  0  0  0  0  0  0  0  0  0  0
   58.0209   23.6399   43.1468 H   0  0  0  0  0  0  0  0  0  0  0  0
   58.2537   25.8787   44.2152 H   0  0  0  0  0  0  0  0  0  0  0  0
   58.5576   27.9500   44.5725 H   0  0  0  0  0  0  0  0  0  0  0  0
   57.5506   28.9896   43.5015 H   0  0  0  0  0  0  0  0  0  0  0  0
   60.6530   33.4651   47.7323 H   0  0  0  0  0  0  0  0  0  0  0  0
   56.6433   33.8476   45.3305 H   0  0  0  0  0  0  0  0  0  0  0  0
   54.5398   25.2509   46.3504 H   0  0  0  0  0  0  0  0  0  0  0  0
   54.3049   23.0128   45.2818 H   0  0  0  0  0  0  0  0  0  0  0  0
  1  2  1  0
  2  3  1  0
  3  4  2  0
  4  5  1  0
  5  6  2  0
  6  7  1  0
  7  8  1  0
  8  9  2  0
  8 10  1  0
 10 11  1  0
 11 12  1  0
 12 13  2  0
 12 14  1  0
 14 15  1  0
 15 16  2  0
 16 17  1  0
 17 18  1  0
 18 19  2  0
 19 20  1  0
 20 21  2  0
  6 22  1  0
 22 23  2  0
 23  3  1  0
 20 11  1  0
 19 15  1  0
  1 24  1  0
  1 25  1  0
  1 26  1  0
  4 27  1  0
  5 28  1  0
 10 29  1  0
 10 30  1  0
 16 31  1  0
 18 32  1  0
 22 33  1  0
 23 34  1  0
M  CHG  2   7  -1  14  -1
M  END
>  <UniqueID>  (99) 
88

>  <SMILES>  (99) 
COc1ccc([N-]C(=O)Cn2c(=O)[n-]c3cscc3c2=O)cc1

>  <Energy>  (99) 
72.8263397814633

>  <Genealogy>  (99) 
COc1ccc([N-]C(=O)Cn2c(=O)[n-]c3cscc3c2=O)cc1 (protonated)
COc1ccc([N-]C(=O)Cn2c(=O)[n-]c3cscc3c2=O)cc1 (3D coordinates assigned)
COc1ccc([N-]C(=O)Cn2c(=O)[n-]c3cscc3c2=O)cc1 (optimized conformer: 72.8263397814633 kcal/mol)

>  <smiles>  (99) 
COc1ccc(NC(=O)Cn2c(=O)[nH]c3cscc3c2=O)cc1

>  <score_type>  (99) 
oracle

>  <origin>  (99) 
adg

>  <m_score__min__energy>  (99) 
-10.880000000000001

>  <m_primary>  (99) 
energy

$$$$
