0:0
     RDKit          3D

 42 43  0  0  0  0  0  0  0  0999 V2000
   54.6640   30.0710   45.2530 H   0  0  0  0  0  0  0  0  0  0  0  0
   55.1610   29.3360   44.7010 N   0  0  0  0  0  0  0  0  0  0  0  0
   56.2620   28.8000   45.1230 C   0  0  0  0  0  0  0  0  0  0  0  0
   56.2450   27.5380   45.6290 N   0  0  0  0  0  0  0  0  0  0  0  0
   57.3750   26.9360   46.0770 C   0  0  0  0  0  0  0  0  0  0  0  0
   57.3350   25.9138   46.4815 H   0  0  0  0  0  0  0  0  0  0  0  0
   58.5910   27.6240   46.0210 C   0  0  0  0  0  0  0  0  0  0  0  0
   59.8450   26.9630   46.5100 C   0  0  0  0  0  0  0  0  0  0  0  0
   59.8524   26.9591   47.6100 H   0  0  0  0  0  0  0  0  0  0  0  0
   59.8824   25.9280   46.1394 H   0  0  0  0  0  0  0  0  0  0  0  0
   60.7200   27.5170   46.1394 H   0  0  0  0  0  0  0  0  0  0  0  0
   58.6170   28.8930   45.5220 N   0  0  0  0  0  0  0  0  0  0  0  0
   59.5240   29.4120   45.4870 H   0  0  0  0  0  0  0  0  0  0  0  0
   57.4840   29.5000   45.0610 C   0  0  0  0  0  0  0  0  0  0  0  0
   57.5710   30.9170   44.5460 C   0  0  0  0  0  0  0  0  0  0  0  0
   57.5325   30.9088   43.4467 H   0  0  0  0  0  0  0  0  0  0  0  0
   56.7265   31.4996   44.9427 H   0  0  0  0  0  0  0  0  0  0  0  0
   58.8200   31.5250   44.9810 N   0  0  0  0  0  0  0  0  0  0  0  0
   59.1480   31.7760   46.3530 C   0  0  0  0  0  0  0  0  0  0  0  0
   59.7850   30.9120   47.0130 O   0  0  0  0  0  0  0  0  0  0  0  0
   58.7540   33.0160   46.9760 N   0  0  0  0  0  0  0  0  0  0  0  0
   59.5520   33.5650   48.0840 C   0  0  0  0  0  0  0  0  0  0  0  0
   59.3237   34.6349   48.1992 H   0  0  0  0  0  0  0  0  0  0  0  0
   59.3002   33.0221   49.0069 H   0  0  0  0  0  0  0  0  0  0  0  0
   61.0240   33.3990   47.8070 C   0  0  0  0  0  0  0  0  0  0  0  0
   61.5930   33.9610   46.6530 C   0  0  0  0  0  0  0  0  0  0  0  0
   60.9588   34.5088   45.9405 H   0  0  0  0  0  0  0  0  0  0  0  0
   62.9630   33.8270   46.4060 C   0  0  0  0  0  0  0  0  0  0  0  0
   63.4052   34.2782   45.5055 H   0  0  0  0  0  0  0  0  0  0  0  0
   63.7710   33.1210   47.3010 C   0  0  0  0  0  0  0  0  0  0  0  0
   64.8487   33.0182   47.1063 H   0  0  0  0  0  0  0  0  0  0  0  0
   63.2090   32.5460   48.4430 C   0  0  0  0  0  0  0  0  0  0  0  0
   63.8441   31.9817   49.1417 H   0  0  0  0  0  0  0  0  0  0  0  0
   61.8430   32.6850   48.7010 C   0  0  0  0  0  0  0  0  0  0  0  0
   61.4068   32.2352   49.6051 H   0  0  0  0  0  0  0  0  0  0  0  0
   57.5330   33.7080   46.5400 C   0  0  0  0  0  0  0  0  0  0  0  0
   56.6978   32.9924   46.5222 H   0  0  0  0  0  0  0  0  0  0  0  0
   57.3162   34.5254   47.2435 H   0  0  0  0  0  0  0  0  0  0  0  0
   57.7220   34.2940   45.1450 C   0  0  0  0  0  0  0  0  0  0  0  0
   58.0587   35.3379   45.2283 H   0  0  0  0  0  0  0  0  0  0  0  0
   58.4766   33.7077   44.6002 H   0  0  0  0  0  0  0  0  0  0  0  0
   56.7670   34.2591   44.6002 H   0  0  0  0  0  0  0  0  0  0  0  0
  1  2  1  0
  2  3  2  0
  3  4  1  0
  4  5  1  0
  5  6  1  0
  5  7  2  0
  7  8  1  0
  8  9  1  0
  8 10  1  0
  8 11  1  0
  7 12  1  0
 12 13  1  0
 12 14  2  0
 14 15  1  0
 15 16  1  0
 15 17  1  0
 15 18  1  0
 18 19  1  0
 19 20  2  0
 19 21  1  0
 21 22  1  0
 22 23  1  0
 22 24  1  0
 22 25  1  0
 25 26  2  0
 26 27  1  0
 26 28  1  0
 28 29  1  0
 28 30  2  0
 30 31  1  0
 30 32  1  0
 32 33  1  0
 32 34  2  0
 34 35  1  0
 21 36  1  0
 36 37  1  0
 36 38  1  0
 36 39  1  0
 39 40  1  0
 39 41  1  0
 39 42  1  0
 14  3  1  0
 34 25  1  0
M  CHG  3   4  -1  12   1  18  -1
M  END
>  <UniqueID>  (1) 
1

>  <SMILES>  (1) 
[H]/N=c1\[n-]cc(C)[nH+]c1C[N-]C(=O)N(CC)Cc1ccccc1

>  <Energy>  (1) 
32.93102309967971

>  <Genealogy>  (1) 
CCN(Cc1ccccc1)C(=O)[N-]Cc1[nH+]c(C)c[n-]c1=N (protonated)
[H]/N=c1\[n-]cc(C)[nH+]c1C[N-]C(=O)N(CC)Cc1ccccc1 (cis-trans isomerization)
[H]/N=c1\[n-]cc(C)[nH+]c1C[N-]C(=O)N(CC)Cc1ccccc1 (3D coordinates assigned)
[H]/N=c1\[n-]cc(C)[nH+]c1C[N-]C(=O)N(CC)Cc1ccccc1 (optimized conformer: 32.93102309967971 kcal/mol)

>  <smiles>  (1) 
CCN(Cc1ccccc1)C(=O)NCc1nc(C)c[nH]c1=N

>  <score_type>  (1) 
oracle

>  <origin>  (1) 
adg

>  <m_score__min__energy>  (1) 
-9.4299999999999997

>  <m_primary>  (1) 
energy

$$$$
1:0
     RDKit          3D

 66 71  0  0  0  0  0  0  0  0999 V2000
   56.9623   31.5597   41.5034 H   0  0  0  0  0  0  0  0  0  0  0  0
   57.1990   31.3450   42.5560 C   0  0  0  0  0  0  0  0  0  0  0  0
   56.9450   30.1170   43.0680 N   0  0  0  0  0  0  0  0  0  0  0  0
   57.2690   29.7910   44.3470 C   0  0  0  0  0  0  0  0  0  0  0  0
   57.0470   28.4820   44.7890 C   0  0  0  0  0  0  0  0  0  0  0  0
   56.5079   27.7722   44.1444 H   0  0  0  0  0  0  0  0  0  0  0  0
   57.5050   28.0700   46.0430 C   0  0  0  0  0  0  0  0  0  0  0  0
   57.2670   26.7200   46.4760 N   0  0  0  0  0  0  0  0  0  0  0  0
   57.4270   26.4960   47.4840 H   0  0  0  0  0  0  0  0  0  0  0  0
   56.7850   25.6700   45.6200 C   0  0  0  0  0  0  0  0  0  0  0  0
   57.5300   25.2300   44.5090 C   0  0  0  0  0  0  0  0  0  0  0  0
   58.5162   25.6708   44.3012 H   0  0  0  0  0  0  0  0  0  0  0  0
   57.0210   24.2350   43.6690 C   0  0  0  0  0  0  0  0  0  0  0  0
   57.6126   23.8867   42.8096 H   0  0  0  0  0  0  0  0  0  0  0  0
   55.7620   23.6820   43.9190 C   0  0  0  0  0  0  0  0  0  0  0  0
   55.3639   22.8989   43.2570 H   0  0  0  0  0  0  0  0  0  0  0  0
   55.0090   24.1240   45.0100 C   0  0  0  0  0  0  0  0  0  0  0  0
   54.0170   23.6906   45.2050 H   0  0  0  0  0  0  0  0  0  0  0  0
   55.5160   25.1170   45.8540 C   0  0  0  0  0  0  0  0  0  0  0  0
   54.9164   25.4672   46.7071 H   0  0  0  0  0  0  0  0  0  0  0  0
   58.1800   28.9850   46.8610 C   0  0  0  0  0  0  0  0  0  0  0  0
   58.5506   28.6649   47.8460 H   0  0  0  0  0  0  0  0  0  0  0  0
   58.3870   30.3000   46.4380 C   0  0  0  0  0  0  0  0  0  0  0  0
   58.9560   30.9926   47.0756 H   0  0  0  0  0  0  0  0  0  0  0  0
   57.8740   30.7520   45.2000 C   0  0  0  0  0  0  0  0  0  0  0  0
   58.0230   32.0890   44.7110 C   0  0  0  0  0  0  0  0  0  0  0  0
   58.3410   33.1280   45.4410 N   0  0  0  0  0  0  0  0  0  0  0  0
   59.3020   33.2420   46.4990 C   0  0  0  0  0  0  0  0  0  0  0  0
   60.5400   32.6030   46.3810 C   0  0  0  0  0  0  0  0  0  0  0  0
   60.7540   31.9822   45.4985 H   0  0  0  0  0  0  0  0  0  0  0  0
   61.5080   32.7500   47.3810 C   0  0  0  0  0  0  0  0  0  0  0  0
   62.4642   32.2122   47.3004 H   0  0  0  0  0  0  0  0  0  0  0  0
   61.2640   33.5830   48.4900 C   0  0  0  0  0  0  0  0  0  0  0  0
   62.2330   33.7510   49.5390 N   0  0  0  0  0  0  0  0  0  0  0  0
   61.8770   33.9350   50.5050 H   0  0  0  0  0  0  0  0  0  0  0  0
   63.6570   33.7750   49.3380 C   0  0  0  0  0  0  0  0  0  0  0  0
   64.1390   33.8970   48.1790 O   0  0  0  0  0  0  0  0  0  0  0  0
   64.5870   33.7590   50.5150 C   0  0  0  0  0  0  0  0  0  0  0  0
   64.0353   34.0698   51.4144 H   0  0  0  0  0  0  0  0  0  0  0  0
   65.4181   34.4516   50.3162 H   0  0  0  0  0  0  0  0  0  0  0  0
   65.1350   32.4190   50.7280 N   0  0  0  0  0  0  0  0  0  0  0  0
   66.4300   32.0430   50.5720 C   0  0  0  0  0  0  0  0  0  0  0  0
   67.2206   32.7266   50.2291 H   0  0  0  0  0  0  0  0  0  0  0  0
   66.6530   30.7400   50.8810 N   0  0  0  0  0  0  0  0  0  0  0  0
   65.4290   30.3060   51.2440 C   0  0  0  0  0  0  0  0  0  0  0  0
   64.5190   31.3040   51.1590 C   0  0  0  0  0  0  0  0  0  0  0  0
   63.1930   31.0780   51.5140 C   0  0  0  0  0  0  0  0  0  0  0  0
   62.3440   32.0080   51.4390 O   0  0  0  0  0  0  0  0  0  0  0  0
   62.8400   29.8200   51.9480 N   0  0  0  0  0  0  0  0  0  0  0  0
   61.4560   29.5190   52.3470 C   0  0  0  0  0  0  0  0  0  0  0  0
   61.3859   29.5038   53.4447 H   0  0  0  0  0  0  0  0  0  0  0  0
   60.7829   30.2917   51.9473 H   0  0  0  0  0  0  0  0  0  0  0  0
   61.1646   28.5365   51.9473 H   0  0  0  0  0  0  0  0  0  0  0  0
   63.7930   28.8170   52.0300 C   0  0  0  0  0  0  0  0  0  0  0  0
   63.4620   27.6740   52.4540 O   0  0  0  0  0  0  0  0  0  0  0  0
   65.0990   29.0520   51.6580 N   0  0  0  0  0  0  0  0  0  0  0  0
   66.1220   28.0040   51.7740 C   0  0  0  0  0  0  0  0  0  0  0  0
   66.3201   27.8010   52.8368 H   0  0  0  0  0  0  0  0  0  0  0  0
   65.7632   27.0858   51.2860 H   0  0  0  0  0  0  0  0  0  0  0  0
   67.0486   28.3405   51.2860 H   0  0  0  0  0  0  0  0  0  0  0  0
   60.0240   34.2300   48.5960 C   0  0  0  0  0  0  0  0  0  0  0  0
   59.8119   34.8630   49.4703 H   0  0  0  0  0  0  0  0  0  0  0  0
   59.0560   34.0770   47.6000 C   0  0  0  0  0  0  0  0  0  0  0  0
   58.0984   34.6125   47.6790 H   0  0  0  0  0  0  0  0  0  0  0  0
   57.7590   32.3370   43.3580 C   0  0  0  0  0  0  0  0  0  0  0  0
   57.9952   33.3207   42.9262 H   0  0  0  0  0  0  0  0  0  0  0  0
  1  2  1  0
  2  3  1  0
  3  4  1  0
  4  5  2  0
  5  6  1  0
  5  7  1  0
  7  8  1  0
  8  9  1  0
  8 10  1  0
 10 11  2  0
 11 12  1  0
 11 13  1  0
 13 14  1  0
 13 15  2  0
 15 16  1  0
 15 17  1  0
 17 18  1  0
 17 19  2  0
 19 20  1  0
  7 21  2  0
 21 22  1  0
 21 23  1  0
 23 24  1  0
 23 25  2  0
 25 26  1  0
 26 27  2  0
 27 28  1  0
 28 29  2  0
 29 30  1  0
 29 31  1  0
 31 32  1  0
 31 33  2  0
 33 34  1  0
 34 35  1  0
 34 36  1  0
 36 37  2  0
 36 38  1  0
 38 39  1  0
 38 40  1  0
 38 41  1  0
 41 42  1  0
 42 43  1  0
 42 44  2  0
 44 45  1  0
 45 46  2  0
 46 47  1  0
 47 48  2  0
 47 49  1  0
 49 50  1  0
 50 51  1  0
 50 52  1  0
 50 53  1  0
 49 54  1  0
 54 55  2  0
 54 56  1  0
 56 57  1  0
 57 58  1  0
 57 59  1  0
 57 60  1  0
 33 61  1  0
 61 62  1  0
 61 63  2  0
 63 64  1  0
 26 65  1  0
 65 66  1  0
 65  2  2  0
 25  4  1  0
 63 28  1  0
 19 10  1  0
 46 41  1  0
 56 45  1  0
M  CHG  1   3  -1
M  END
>  <UniqueID>  (2) 
2

>  <SMILES>  (2) 
Cn1c(=O)c2c(ncn2CC(=O)Nc2ccc(/N=c3/cc[n-]c4cc(Nc5ccccc5)ccc34)cc2)n(C)c1=O

>  <Energy>  (2) 
150.6084225959495

>  <Genealogy>  (2) 
Cn1c(=O)c2c(ncn2CC(=O)Nc2ccc(N=c3cc[n-]c4cc(Nc5ccccc5)ccc34)cc2)n(C)c1=O (protonated)
Cn1c(=O)c2c(ncn2CC(=O)Nc2ccc(/N=c3/cc[n-]c4cc(Nc5ccccc5)ccc34)cc2)n(C)c1=O (cis-trans isomerization)
Cn1c(=O)c2c(ncn2CC(=O)Nc2ccc(/N=c3/cc[n-]c4cc(Nc5ccccc5)ccc34)cc2)n(C)c1=O (3D coordinates assigned)
Cn1c(=O)c2c(ncn2CC(=O)Nc2ccc(/N=c3/cc[n-]c4cc(Nc5ccccc5)ccc34)cc2)n(C)c1=O (optimized conformer: 150.6084225959495 kcal/mol)

>  <smiles>  (2) 
Cn1c(=O)c2c(ncn2CC(=O)Nc2ccc(N=c3cc[nH]c4cc(Nc5ccccc5)ccc34)cc2)n(C)c1=O

>  <score_type>  (2) 
oracle

>  <origin>  (2) 
adg

>  <m_score__min__energy>  (2) 
-11.380000000000001

>  <m_primary>  (2) 
energy

$$$$
2:0
     RDKit          3D

 33 35  0  0  0  0  0  0  0  0999 V2000
   56.6730   25.4090   43.9750 H   0  0  0  0  0  0  0  0  0  0  0  0
   58.3750   25.0330   45.9920 N   0  0  0  0  0  0  0  0  0  0  0  0
   57.5060   23.5650   44.2230 C   0  0  0  0  0  0  0  0  0  0  0  0
   57.7070   22.3100   43.7780 N   0  0  0  0  0  0  0  0  0  0  0  0
   58.6480   21.8370   44.5880 N   0  0  0  0  0  0  0  0  0  0  0  0
   59.0480   20.8740   44.5250 H   0  0  0  0  0  0  0  0  0  0  0  0
   59.0140   22.7410   45.4870 N   0  0  0  0  0  0  0  0  0  0  0  0
   58.3020   23.8320   45.2660 N   0  0  0  0  0  0  0  0  0  0  0  0
   56.6590   24.3980   43.7120 N   0  0  0  0  0  0  0  0  0  0  0  0
   59.1190   26.0310   45.6240 C   0  0  0  0  0  0  0  0  0  0  0  0
   60.1914   25.8681   45.4411 H   0  0  0  0  0  0  0  0  0  0  0  0
   58.5490   27.3810   45.4470 C   0  0  0  0  0  0  0  0  0  0  0  0
   57.1630   27.5790   45.3090 C   0  0  0  0  0  0  0  0  0  0  0  0
   56.4818   26.7156   45.3326 H   0  0  0  0  0  0  0  0  0  0  0  0
   56.6470   28.8680   45.1420 C   0  0  0  0  0  0  0  0  0  0  0  0
   55.5612   29.0145   45.0446 H   0  0  0  0  0  0  0  0  0  0  0  0
   57.5090   29.9770   45.0980 C   0  0  0  0  0  0  0  0  0  0  0  0
   57.0290   31.2870   44.9460 O   0  0  0  0  0  0  0  0  0  0  0  0
   57.7040   32.4520   45.3390 C   0  0  0  0  0  0  0  0  0  0  0  0
   57.8510   32.7150   46.7060 C   0  0  0  0  0  0  0  0  0  0  0  0
   57.4295   32.0182   47.4454 H   0  0  0  0  0  0  0  0  0  0  0  0
   58.5310   33.8590   47.1370 C   0  0  0  0  0  0  0  0  0  0  0  0
   58.6345   34.0646   48.2126 H   0  0  0  0  0  0  0  0  0  0  0  0
   59.0790   34.7410   46.2010 C   0  0  0  0  0  0  0  0  0  0  0  0
   59.6089   35.6433   46.5403 H   0  0  0  0  0  0  0  0  0  0  0  0
   58.9540   34.4770   44.8350 C   0  0  0  0  0  0  0  0  0  0  0  0
   59.3908   35.1687   44.0996 H   0  0  0  0  0  0  0  0  0  0  0  0
   58.2740   33.3340   44.4010 C   0  0  0  0  0  0  0  0  0  0  0  0
   58.1845   33.1239   43.3250 H   0  0  0  0  0  0  0  0  0  0  0  0
   58.8860   29.7810   45.2550 C   0  0  0  0  0  0  0  0  0  0  0  0
   59.5655   30.6460   45.2461 H   0  0  0  0  0  0  0  0  0  0  0  0
   59.4030   28.4940   45.4230 C   0  0  0  0  0  0  0  0  0  0  0  0
   60.4878   28.3522   45.5373 H   0  0  0  0  0  0  0  0  0  0  0  0
  1  2  1  0
  2  3  2  0
  3  4  1  0
  4  5  2  0
  5  6  1  0
  5  7  1  0
  7  8  1  0
  8  9  1  0
  9 10  2  0
 10 11  1  0
 10 12  1  0
 12 13  2  0
 13 14  1  0
 13 15  1  0
 15 16  1  0
 15 17  2  0
 17 18  1  0
 18 19  1  0
 19 20  2  0
 20 21  1  0
 20 22  1  0
 22 23  1  0
 22 24  2  0
 24 25  1  0
 24 26  1  0
 26 27  1  0
 26 28  2  0
 28 29  1  0
 17 30  1  0
 30 31  1  0
 30 32  2  0
 32 33  1  0
  8  3  1  0
 32 12  1  0
 28 19  1  0
M  CHG  2   5   1   7  -1
M  END
>  <UniqueID>  (3) 
3

>  <SMILES>  (3) 
[H]/N=c1\n[nH+][n-]n1/N=C/c1ccc(Oc2ccccc2)cc1

>  <Energy>  (3) 
84.70823237136618

>  <Genealogy>  (3) 
N=c1n[nH+][n-]n1N=Cc1ccc(Oc2ccccc2)cc1 (protonated)
[H]/N=c1\n[nH+][n-]n1/N=C/c1ccc(Oc2ccccc2)cc1 (cis-trans isomerization)
[H]/N=c1\n[nH+][n-]n1/N=C/c1ccc(Oc2ccccc2)cc1 (3D coordinates assigned)
[H]/N=c1\n[nH+][n-]n1/N=C/c1ccc(Oc2ccccc2)cc1 (optimized conformer: 84.70823237136618 kcal/mol)

>  <smiles>  (3) 
N=c1nn[nH]n1N=Cc1ccc(Oc2ccccc2)cc1

>  <score_type>  (3) 
oracle

>  <origin>  (3) 
adg

>  <m_score__min__energy>  (3) 
-7.8200000000000003

>  <m_primary>  (3) 
energy

$$$$
3:0
     RDKit          3D

 35 36  0  0  0  0  0  0  0  0999 V2000
   60.6060   34.3710   48.5770 C   0  0  0  0  0  0  0  0  0  0  0  0
   59.8150   34.6900   47.4380 O   0  0  0  0  0  0  0  0  0  0  0  0
   59.0200   33.7680   46.7420 C   0  0  0  0  0  0  0  0  0  0  0  0
   58.2440   34.2300   45.6730 C   0  0  0  0  0  0  0  0  0  0  0  0
   57.4360   33.3500   44.9470 C   0  0  0  0  0  0  0  0  0  0  0  0
   57.4090   31.9830   45.2740 C   0  0  0  0  0  0  0  0  0  0  0  0
   56.5680   31.0590   44.5700 N   0  0  0  0  0  0  0  0  0  0  0  0
   56.5220   29.6380   44.7550 C   0  0  0  0  0  0  0  0  0  0  0  0
   55.4010   29.0760   44.8710 O   0  0  0  0  0  0  0  0  0  0  0  0
   57.7720   28.8080   44.8650 C   0  0  0  0  0  0  0  0  0  0  0  0
   57.4730   27.4010   44.6140 N   0  0  0  0  0  0  0  0  0  0  0  0
   58.2870   26.3400   45.1360 C   0  0  0  0  0  0  0  0  0  0  0  0
   59.3040   26.6070   45.8330 O   0  0  0  0  0  0  0  0  0  0  0  0
   57.9400   24.9380   44.8610 C   0  0  0  0  0  0  0  0  0  0  0  0
   58.5220   23.8280   45.4500 C   0  0  0  0  0  0  0  0  0  0  0  0
   57.8920   22.7320   44.8970 C   0  0  0  0  0  0  0  0  0  0  0  0
   56.9700   23.2510   44.0090 C   0  0  0  0  0  0  0  0  0  0  0  0
   56.0760   22.4890   43.1950 N   0  0  0  0  0  0  0  0  0  0  0  0
   55.1100   23.0380   42.6260 O   0  0  0  0  0  0  0  0  0  0  0  0
   56.2800   21.1390   43.0320 O   0  0  0  0  0  0  0  0  0  0  0  0
   57.0180   24.5620   44.0050 O   0  0  0  0  0  0  0  0  0  0  0  0
   58.1620   31.5230   46.3590 C   0  0  0  0  0  0  0  0  0  0  0  0
   58.9690   32.4030   47.0860 C   0  0  0  0  0  0  0  0  0  0  0  0
   60.0399   34.5993   49.4921 H   0  0  0  0  0  0  0  0  0  0  0  0
   60.8589   33.3006   48.5597 H   0  0  0  0  0  0  0  0  0  0  0  0
   61.5307   34.9665   48.5597 H   0  0  0  0  0  0  0  0  0  0  0  0
   58.2701   35.2956   45.4014 H   0  0  0  0  0  0  0  0  0  0  0  0
   56.8199   33.7281   44.1179 H   0  0  0  0  0  0  0  0  0  0  0  0
   58.5068   29.1598   44.1258 H   0  0  0  0  0  0  0  0  0  0  0  0
   58.1796   28.9101   45.8816 H   0  0  0  0  0  0  0  0  0  0  0  0
   56.6480   27.1680   44.0160 H   0  0  0  0  0  0  0  0  0  0  0  0
   59.3226   23.8214   46.2043 H   0  0  0  0  0  0  0  0  0  0  0  0
   58.0832   21.6712   45.1165 H   0  0  0  0  0  0  0  0  0  0  0  0
   58.1189   30.4610   46.6424 H   0  0  0  0  0  0  0  0  0  0  0  0
   59.5665   32.0280   47.9300 H   0  0  0  0  0  0  0  0  0  0  0  0
  1  2  1  0
  2  3  1  0
  3  4  2  0
  4  5  1  0
  5  6  2  0
  6  7  1  0
  7  8  1  0
  8  9  2  0
  8 10  1  0
 10 11  1  0
 11 12  1  0
 12 13  2  0
 12 14  1  0
 14 15  2  0
 15 16  1  0
 16 17  2  0
 17 18  1  0
 18 19  2  0
 18 20  1  0
 17 21  1  0
  6 22  1  0
 22 23  2  0
 23  3  1  0
 21 14  1  0
  1 24  1  0
  1 25  1  0
  1 26  1  0
  4 27  1  0
  5 28  1  0
 10 29  1  0
 10 30  1  0
 11 31  1  0
 15 32  1  0
 16 33  1  0
 22 34  1  0
 23 35  1  0
M  CHG  3   7  -1  18   1  20  -1
M  END
>  <UniqueID>  (4) 
4

>  <SMILES>  (4) 
COc1ccc([N-]C(=O)CNC(=O)c2ccc([N+](=O)[O-])o2)cc1

>  <Energy>  (4) 
61.663372514925

>  <Genealogy>  (4) 
COc1ccc([N-]C(=O)CNC(=O)c2ccc([N+](=O)[O-])o2)cc1 (protonated)
COc1ccc([N-]C(=O)CNC(=O)c2ccc([N+](=O)[O-])o2)cc1 (3D coordinates assigned)
COc1ccc([N-]C(=O)CNC(=O)c2ccc([N+](=O)[O-])o2)cc1 (optimized conformer: 61.663372514925 kcal/mol)

>  <smiles>  (4) 
COc1ccc(NC(=O)CNC(=O)c2ccc([N+](=O)[O-])o2)cc1

>  <score_type>  (4) 
oracle

>  <origin>  (4) 
adg

>  <m_score__min__energy>  (4) 
-8.9100000000000001

>  <m_primary>  (4) 
energy

$$$$
4:0
     RDKit          3D

 44 45  0  0  0  0  0  0  0  0999 V2000
   56.6970   27.3260   42.4770 H   0  0  0  0  0  0  0  0  0  0  0  0
   57.1130   28.2120   42.3110 O   0  0  0  0  0  0  0  0  0  0  0  0
   57.1930   28.8040   43.5300 N   0  0  0  0  0  0  0  0  0  0  0  0
   56.5660   30.0880   43.6980 C   0  0  0  0  0  0  0  0  0  0  0  0
   55.5950   30.1970   44.4930 O   0  0  0  0  0  0  0  0  0  0  0  0
   57.0250   31.2950   42.9850 C   0  0  0  0  0  0  0  0  0  0  0  0
   56.4220   31.6762   42.1476 H   0  0  0  0  0  0  0  0  0  0  0  0
   58.1470   31.9440   43.3180 C   0  0  0  0  0  0  0  0  0  0  0  0
   59.0082   31.8826   42.6364 H   0  0  0  0  0  0  0  0  0  0  0  0
   58.2870   32.7410   44.5590 C   0  0  0  0  0  0  0  0  0  0  0  0
   58.9810   33.9600   44.5000 C   0  0  0  0  0  0  0  0  0  0  0  0
   59.3881   34.3098   43.5399 H   0  0  0  0  0  0  0  0  0  0  0  0
   59.1590   34.7330   45.6510 C   0  0  0  0  0  0  0  0  0  0  0  0
   59.7005   35.6887   45.5927 H   0  0  0  0  0  0  0  0  0  0  0  0
   58.6500   34.2930   46.8750 C   0  0  0  0  0  0  0  0  0  0  0  0
   58.7879   34.9031   47.7798 H   0  0  0  0  0  0  0  0  0  0  0  0
   57.9660   33.0780   46.9490 C   0  0  0  0  0  0  0  0  0  0  0  0
   57.5675   32.7311   47.9138 H   0  0  0  0  0  0  0  0  0  0  0  0
   57.7860   32.3010   45.8010 C   0  0  0  0  0  0  0  0  0  0  0  0
   57.2511   31.3421   45.8671 H   0  0  0  0  0  0  0  0  0  0  0  0
   58.2000   28.3310   44.4890 C   0  0  0  0  0  0  0  0  0  0  0  0
   58.9220   29.1396   44.6757 H   0  0  0  0  0  0  0  0  0  0  0  0
   58.6977   27.4501   44.0573 H   0  0  0  0  0  0  0  0  0  0  0  0
   57.5640   27.9160   45.8200 C   0  0  0  0  0  0  0  0  0  0  0  0
   57.5986   28.7669   46.5163 H   0  0  0  0  0  0  0  0  0  0  0  0
   58.1265   27.0628   46.2271 H   0  0  0  0  0  0  0  0  0  0  0  0
   56.1740   27.5100   45.6300 N   0  0  0  0  0  0  0  0  0  0  0  0
   55.6370   26.2740   46.1100 C   0  0  0  0  0  0  0  0  0  0  0  0
   56.2740   25.5880   46.9560 O   0  0  0  0  0  0  0  0  0  0  0  0
   54.4050   25.8360   45.6230 O   0  0  0  0  0  0  0  0  0  0  0  0
   54.0210   24.4650   45.6120 C   0  0  0  0  0  0  0  0  0  0  0  0
   53.8603   24.1199   46.6440 H   0  0  0  0  0  0  0  0  0  0  0  0
   53.0890   24.3473   45.0397 H   0  0  0  0  0  0  0  0  0  0  0  0
   55.1090   23.6520   44.9750 C   0  0  0  0  0  0  0  0  0  0  0  0
   55.3310   23.7330   43.5900 C   0  0  0  0  0  0  0  0  0  0  0  0
   54.6870   24.3719   42.9679 H   0  0  0  0  0  0  0  0  0  0  0  0
   56.3680   23.0040   43.0000 C   0  0  0  0  0  0  0  0  0  0  0  0
   56.5307   23.0610   41.9136 H   0  0  0  0  0  0  0  0  0  0  0  0
   57.1980   22.2030   43.7890 C   0  0  0  0  0  0  0  0  0  0  0  0
   58.0120   21.6283   43.3231 H   0  0  0  0  0  0  0  0  0  0  0  0
   56.9940   22.1320   45.1700 C   0  0  0  0  0  0  0  0  0  0  0  0
   57.6501   21.5042   45.7908 H   0  0  0  0  0  0  0  0  0  0  0  0
   55.9570   22.8580   45.7630 C   0  0  0  0  0  0  0  0  0  0  0  0
   55.8049   22.8069   46.8512 H   0  0  0  0  0  0  0  0  0  0  0  0
  1  2  1  0
  2  3  1  0
  3  4  1  0
  4  5  2  0
  4  6  1  0
  6  7  1  0
  6  8  2  0
  8  9  1  0
  8 10  1  0
 10 11  2  0
 11 12  1  0
 11 13  1  0
 13 14  1  0
 13 15  2  0
 15 16  1  0
 15 17  1  0
 17 18  1  0
 17 19  2  0
 19 20  1  0
  3 21  1  0
 21 22  1  0
 21 23  1  0
 21 24  1  0
 24 25  1  0
 24 26  1  0
 24 27  1  0
 27 28  1  0
 28 29  2  0
 28 30  1  0
 30 31  1  0
 31 32  1  0
 31 33  1  0
 31 34  1  0
 34 35  2  0
 35 36  1  0
 35 37  1  0
 37 38  1  0
 37 39  2  0
 39 40  1  0
 39 41  1  0
 41 42  1  0
 41 43  2  0
 43 44  1  0
 19 10  1  0
 43 34  1  0
M  CHG  1  27  -1
M  END
>  <UniqueID>  (5) 
5

>  <SMILES>  (5) 
O=C([N-]CCN(O)C(=O)/C=C/c1ccccc1)OCc1ccccc1

>  <Energy>  (5) 
42.07714212609746

>  <Genealogy>  (5) 
O=C([N-]CCN(O)C(=O)C=Cc1ccccc1)OCc1ccccc1 (protonated)
O=C([N-]CCN(O)C(=O)/C=C/c1ccccc1)OCc1ccccc1 (cis-trans isomerization)
O=C([N-]CCN(O)C(=O)/C=C/c1ccccc1)OCc1ccccc1 (3D coordinates assigned)
O=C([N-]CCN(O)C(=O)/C=C/c1ccccc1)OCc1ccccc1 (optimized conformer: 42.07714212609746 kcal/mol)

>  <smiles>  (5) 
O=C(NCCN(O)C(=O)C=Cc1ccccc1)OCc1ccccc1

>  <score_type>  (5) 
oracle

>  <origin>  (5) 
adg

>  <m_score__min__energy>  (5) 
-10.51

>  <m_primary>  (5) 
energy

$$$$
5:0
     RDKit          3D

 38 41  0  0  0  0  0  0  0  0999 V2000
   55.1420   24.4380   47.1630 O   0  0  0  0  0  0  0  0  0  0  0  0
   55.8030   24.8700   46.1830 C   0  0  0  0  0  0  0  0  0  0  0  0
   55.6810   26.2550   45.8300 N   0  0  0  0  0  0  0  0  0  0  0  0
   56.6860   27.2650   46.0060 C   0  0  0  0  0  0  0  0  0  0  0  0
   56.6860   28.4460   45.2470 C   0  0  0  0  0  0  0  0  0  0  0  0
   57.6710   29.4160   45.4510 C   0  0  0  0  0  0  0  0  0  0  0  0
   58.6650   29.2290   46.4290 C   0  0  0  0  0  0  0  0  0  0  0  0
   59.7230   30.2400   46.6660 C   0  0  0  0  0  0  0  0  0  0  0  0
   60.9790   29.9630   47.1080 N   0  0  0  0  0  0  0  0  0  0  0  0
   61.5620   31.1700   47.1700 C   0  0  0  0  0  0  0  0  0  0  0  0
   62.8590   31.4900   47.5620 C   0  0  0  0  0  0  0  0  0  0  0  0
   63.2280   32.8500   47.5390 C   0  0  0  0  0  0  0  0  0  0  0  0
   62.2990   33.8360   47.1300 C   0  0  0  0  0  0  0  0  0  0  0  0
   60.9960   33.4730   46.7420 C   0  0  0  0  0  0  0  0  0  0  0  0
   60.6690   32.1200   46.7770 C   0  0  0  0  0  0  0  0  0  0  0  0
   59.5380   31.5380   46.4680 O   0  0  0  0  0  0  0  0  0  0  0  0
   58.6430   28.0560   47.2030 C   0  0  0  0  0  0  0  0  0  0  0  0
   57.6560   27.0870   46.9970 C   0  0  0  0  0  0  0  0  0  0  0  0
   56.7200   23.9530   45.4650 C   0  0  0  0  0  0  0  0  0  0  0  0
   56.2740   23.2010   44.3620 C   0  0  0  0  0  0  0  0  0  0  0  0
   57.1490   22.3430   43.6920 C   0  0  0  0  0  0  0  0  0  0  0  0
   58.4790   22.2330   44.1060 C   0  0  0  0  0  0  0  0  0  0  0  0
   58.9380   22.9870   45.1890 C   0  0  0  0  0  0  0  0  0  0  0  0
   60.2300   22.8830   45.5870 F   0  0  0  0  0  0  0  0  0  0  0  0
   58.0650   23.8470   45.8640 C   0  0  0  0  0  0  0  0  0  0  0  0
   55.9067   28.6086   44.4879 H   0  0  0  0  0  0  0  0  0  0  0  0
   57.6692   30.3324   44.8425 H   0  0  0  0  0  0  0  0  0  0  0  0
   61.4100   29.0440   47.3480 H   0  0  0  0  0  0  0  0  0  0  0  0
   63.5687   30.7111   47.8776 H   0  0  0  0  0  0  0  0  0  0  0  0
   64.2434   33.1466   47.8406 H   0  0  0  0  0  0  0  0  0  0  0  0
   62.5978   34.8945   47.1153 H   0  0  0  0  0  0  0  0  0  0  0  0
   60.2636   34.2293   46.4232 H   0  0  0  0  0  0  0  0  0  0  0  0
   59.4085   27.8989   47.9772 H   0  0  0  0  0  0  0  0  0  0  0  0
   57.6427   26.1794   47.6183 H   0  0  0  0  0  0  0  0  0  0  0  0
   55.2304   23.2895   44.0258 H   0  0  0  0  0  0  0  0  0  0  0  0
   56.7902   21.7523   42.8362 H   0  0  0  0  0  0  0  0  0  0  0  0
   59.1646   21.5529   43.5793 H   0  0  0  0  0  0  0  0  0  0  0  0
   58.4324   24.4439   46.7118 H   0  0  0  0  0  0  0  0  0  0  0  0
  1  2  2  0
  2  3  1  0
  3  4  1  0
  4  5  2  0
  5  6  1  0
  6  7  2  0
  7  8  1  0
  8  9  2  0
  9 10  1  0
 10 11  2  0
 11 12  1  0
 12 13  2  0
 13 14  1  0
 14 15  2  0
 15 16  1  0
  7 17  1  0
 17 18  2  0
  2 19  1  0
 19 20  2  0
 20 21  1  0
 21 22  2  0
 22 23  1  0
 23 24  1  0
 23 25  2  0
 18  4  1  0
 25 19  1  0
 16  8  1  0
 15 10  1  0
  5 26  1  0
  6 27  1  0
  9 28  1  0
 11 29  1  0
 12 30  1  0
 13 31  1  0
 14 32  1  0
 17 33  1  0
 18 34  1  0
 20 35  1  0
 21 36  1  0
 22 37  1  0
 25 38  1  0
M  CHG  2   3  -1   9   1
M  END
>  <UniqueID>  (6) 
6

>  <SMILES>  (6) 
O=C([N-]c1ccc(-c2[nH+]c3ccccc3o2)cc1)c1cccc(F)c1

>  <Energy>  (6) 
90.14536415929845

>  <Genealogy>  (6) 
O=C([N-]c1ccc(-c2[nH+]c3ccccc3o2)cc1)c1cccc(F)c1 (protonated)
O=C([N-]c1ccc(-c2[nH+]c3ccccc3o2)cc1)c1cccc(F)c1 (3D coordinates assigned)
O=C([N-]c1ccc(-c2[nH+]c3ccccc3o2)cc1)c1cccc(F)c1 (optimized conformer: 90.14536415929845 kcal/mol)

>  <smiles>  (6) 
O=C(Nc1ccc(-c2nc3ccccc3o2)cc1)c1cccc(F)c1

>  <score_type>  (6) 
oracle

>  <origin>  (6) 
adg

>  <m_score__min__energy>  (6) 
-7.7000000000000002

>  <m_primary>  (6) 
energy

$$$$
6:0
     RDKit          3D

 45 47  0  0  0  0  0  0  0  0999 V2000
   59.8250   29.1500   49.7620 C   0  0  0  0  0  0  0  0  0  0  0  0
   59.7120   30.5500   49.3430 N   0  0  0  0  0  0  0  0  0  0  0  0
   58.8940   30.6620   48.1270 C   0  0  0  0  0  0  0  0  0  0  0  0
   59.6860   31.0300   46.8250 C   0  0  1  0  0  0  0  0  0  0  0  0
   58.7420   30.7350   45.6770 C   0  0  0  0  0  0  0  0  0  0  0  0
   58.6960   29.4460   45.1160 C   0  0  0  0  0  0  0  0  0  0  0  0
   57.7650   29.1420   44.1210 C   0  0  0  0  0  0  0  0  0  0  0  0
   56.8640   30.1140   43.6860 C   0  0  0  0  0  0  0  0  0  0  0  0
   56.8910   31.3950   44.2410 C   0  0  0  0  0  0  0  0  0  0  0  0
   57.8210   31.7200   45.2410 C   0  0  0  0  0  0  0  0  0  0  0  0
   57.8490   33.1430   45.7710 C   0  0  0  0  0  0  0  0  0  0  0  0
   58.9210   33.4280   46.8470 C   0  0  0  0  0  0  0  0  0  0  0  0
   60.1600   32.5170   46.6570 C   0  0  1  0  0  0  0  0  0  0  0  0
   61.4200   32.9740   47.4190 C   0  0  0  0  0  0  0  0  0  0  0  0
   62.5780   33.4310   46.7470 C   0  0  0  0  0  0  0  0  0  0  0  0
   63.7160   33.8250   47.4510 C   0  0  0  0  0  0  0  0  0  0  0  0
   63.7090   33.8380   48.8400 C   0  0  0  0  0  0  0  0  0  0  0  0
   62.5440   33.5180   49.5300 C   0  0  0  0  0  0  0  0  0  0  0  0
   61.3780   33.1390   48.8340 C   0  0  0  0  0  0  0  0  0  0  0  0
   60.1610   32.9720   49.5140 O   0  0  0  0  0  0  0  0  0  0  0  0
   59.6680   33.8370   50.5320 C   0  0  0  0  0  0  0  0  0  0  0  0
   59.8294   29.0953   50.8606 H   0  0  0  0  0  0  0  0  0  0  0  0
   58.9700   28.5798   49.3699 H   0  0  0  0  0  0  0  0  0  0  0  0
   60.7604   28.7243   49.3699 H   0  0  0  0  0  0  0  0  0  0  0  0
   60.6790   30.8940   49.1490 H   0  0  0  0  0  0  0  0  0  0  0  0
   59.2770   31.0820   50.1300 H   0  0  0  0  0  0  0  0  0  0  0  0
   58.3957   29.6955   47.9612 H   0  0  0  0  0  0  0  0  0  0  0  0
   58.1932   31.4911   48.3042 H   0  0  0  0  0  0  0  0  0  0  0  0
   60.6175   30.4461   46.8635 H   0  0  0  0  0  0  0  0  0  0  0  0
   59.3975   28.6731   45.4632 H   0  0  0  0  0  0  0  0  0  0  0  0
   57.7420   28.1347   43.6795 H   0  0  0  0  0  0  0  0  0  0  0  0
   56.1301   29.8707   42.9035 H   0  0  0  0  0  0  0  0  0  0  0  0
   56.1775   32.1559   43.8917 H   0  0  0  0  0  0  0  0  0  0  0  0
   58.0324   33.8179   44.9220 H   0  0  0  0  0  0  0  0  0  0  0  0
   56.8773   33.3034   46.2610 H   0  0  0  0  0  0  0  0  0  0  0  0
   59.2340   34.4799   46.7722 H   0  0  0  0  0  0  0  0  0  0  0  0
   58.4856   33.2229   47.8361 H   0  0  0  0  0  0  0  0  0  0  0  0
   60.5608   32.6058   45.6365 H   0  0  0  0  0  0  0  0  0  0  0  0
   62.5811   33.4765   45.6479 H   0  0  0  0  0  0  0  0  0  0  0  0
   64.6218   34.1264   46.9045 H   0  0  0  0  0  0  0  0  0  0  0  0
   64.6227   34.1008   49.3933 H   0  0  0  0  0  0  0  0  0  0  0  0
   62.5326   33.5611   50.6291 H   0  0  0  0  0  0  0  0  0  0  0  0
   59.9082   33.4156   51.5193 H   0  0  0  0  0  0  0  0  0  0  0  0
   60.1378   34.8266   50.4316 H   0  0  0  0  0  0  0  0  0  0  0  0
   58.5772   33.9371   50.4316 H   0  0  0  0  0  0  0  0  0  0  0  0
  1  2  1  0
  2  3  1  0
  3  4  1  0
  4  5  1  0
  5  6  2  0
  6  7  1  0
  7  8  2  0
  8  9  1  0
  9 10  2  0
 10 11  1  0
 11 12  1  0
 12 13  1  0
 13 14  1  0
 14 15  2  0
 15 16  1  0
 16 17  2  0
 17 18  1  0
 18 19  2  0
 19 20  1  0
 20 21  1  0
 13  4  1  0
 19 14  1  0
 10  5  1  0
  1 22  1  0
  1 23  1  0
  1 24  1  0
  2 25  1  0
  2 26  1  0
  3 27  1  0
  3 28  1  0
  4 29  1  6
  6 30  1  0
  7 31  1  0
  8 32  1  0
  9 33  1  0
 11 34  1  0
 11 35  1  0
 12 36  1  0
 12 37  1  0
 13 38  1  6
 15 39  1  0
 16 40  1  0
 17 41  1  0
 18 42  1  0
 21 43  1  0
 21 44  1  0
 21 45  1  0
M  CHG  1   2   1
M  END
>  <UniqueID>  (7) 
7

>  <SMILES>  (7) 
C[NH2+]C[C@H]1c2ccccc2CC[C@H]1c1ccccc1OC

>  <Energy>  (7) 
66.0384473002439

>  <Genealogy>  (7) 
C[NH2+]CC1c2ccccc2CCC1c1ccccc1OC (protonated)
C[NH2+]C[C@H]1c2ccccc2CC[C@H]1c1ccccc1OC (chirality)
C[NH2+]C[C@H]1c2ccccc2CC[C@H]1c1ccccc1OC (3D coordinates assigned)
C[NH2+]C[C@H]1c2ccccc2CC[C@H]1c1ccccc1OC (nonaromatic ring conformer: 66.0384473002439 kcal/mol)

>  <smiles>  (7) 
CNCC1c2ccccc2CCC1c1ccccc1OC

>  <score_type>  (7) 
oracle

>  <origin>  (7) 
adg

>  <m_score__min__energy>  (7) 
-4.9400000000000004

>  <m_primary>  (7) 
energy

$$$$
7:0
     RDKit          3D

 43 46  0  0  0  0  0  0  0  0999 V2000
   58.5060   31.0750   48.7240 N   0  0  0  0  0  0  0  0  0  0  0  0
   58.6800   32.4300   48.3010 C   0  0  0  0  0  0  0  0  0  0  0  0
   59.0330   33.2920   49.1500 O   0  0  0  0  0  0  0  0  0  0  0  0
   58.4720   32.8340   46.8880 C   0  0  0  0  0  0  0  0  0  0  0  0
   58.4270   34.1980   46.5490 C   0  0  0  0  0  0  0  0  0  0  0  0
   58.2380   34.5930   45.2230 C   0  0  0  0  0  0  0  0  0  0  0  0
   58.0790   33.6350   44.2200 C   0  0  0  0  0  0  0  0  0  0  0  0
   58.0930   32.2700   44.5410 C   0  0  0  0  0  0  0  0  0  0  0  0
   57.9460   31.2370   43.4580 C   0  0  0  0  0  0  0  0  0  0  0  0
   56.6410   30.5220   43.6100 C   0  0  0  0  0  0  0  0  0  0  0  0
   55.8970   30.3680   42.6020 O   0  0  0  0  0  0  0  0  0  0  0  0
   56.2400   30.0640   44.9110 N   0  0  0  0  0  0  0  0  0  0  0  0
   56.6770   29.0140   45.5410 C   0  0  0  0  0  0  0  0  0  0  0  0
   55.9880   27.8290   45.5160 N   0  0  0  0  0  0  0  0  0  0  0  0
   56.4410   26.7290   46.1790 C   0  0  0  0  0  0  0  0  0  0  0  0
   55.7880   25.6530   46.1500 O   0  0  0  0  0  0  0  0  0  0  0  0
   57.6300   26.8310   46.8870 C   0  0  0  0  0  0  0  0  0  0  0  0
   58.4280   25.6950   47.8300 S   0  0  0  0  0  0  0  0  0  0  0  0
   59.6910   26.7310   48.2770 C   0  0  0  0  0  0  0  0  0  0  0  0
   59.4990   27.9820   47.6760 C   0  0  0  0  0  0  0  0  0  0  0  0
   60.4190   29.1230   47.8740 C   0  0  0  0  0  0  0  0  0  0  0  0
   60.7870   29.9200   46.7750 C   0  0  0  0  0  0  0  0  0  0  0  0
   61.6580   30.9990   46.9440 C   0  0  0  0  0  0  0  0  0  0  0  0
   62.1640   31.3000   48.2120 C   0  0  0  0  0  0  0  0  0  0  0  0
   63.0070   32.3490   48.3730 F   0  0  0  0  0  0  0  0  0  0  0  0
   61.7920   30.5260   49.3120 C   0  0  0  0  0  0  0  0  0  0  0  0
   60.9210   29.4430   49.1510 C   0  0  0  0  0  0  0  0  0  0  0  0
   60.5350   28.7420   50.2470 F   0  0  0  0  0  0  0  0  0  0  0  0
   58.3270   28.0200   46.9040 C   0  0  0  0  0  0  0  0  0  0  0  0
   57.8460   29.1050   46.2430 N   0  0  0  0  0  0  0  0  0  0  0  0
   58.2980   31.8740   45.8730 C   0  0  0  0  0  0  0  0  0  0  0  0
   58.6010   30.8310   49.7350 H   0  0  0  0  0  0  0  0  0  0  0  0
   58.3750   30.2970   48.0410 H   0  0  0  0  0  0  0  0  0  0  0  0
   58.5416   34.9597   47.3343 H   0  0  0  0  0  0  0  0  0  0  0  0
   58.2143   35.6627   44.9679 H   0  0  0  0  0  0  0  0  0  0  0  0
   57.9424   33.9517   43.1755 H   0  0  0  0  0  0  0  0  0  0  0  0
   57.9789   31.7311   42.4758 H   0  0  0  0  0  0  0  0  0  0  0  0
   58.7682   30.5105   43.5366 H   0  0  0  0  0  0  0  0  0  0  0  0
   60.5304   26.4637   48.9358 H   0  0  0  0  0  0  0  0  0  0  0  0
   60.3864   29.6922   45.7762 H   0  0  0  0  0  0  0  0  0  0  0  0
   61.9462   31.6129   46.0779 H   0  0  0  0  0  0  0  0  0  0  0  0
   62.1854   30.7685   50.3102 H   0  0  0  0  0  0  0  0  0  0  0  0
   58.3228   30.8037   46.1255 H   0  0  0  0  0  0  0  0  0  0  0  0
  1  2  1  0
  2  3  2  0
  2  4  1  0
  4  5  2  0
  5  6  1  0
  6  7  2  0
  7  8  1  0
  8  9  1  0
  9 10  1  0
 10 11  2  0
 10 12  1  0
 12 13  2  3
 13 14  1  0
 14 15  1  0
 15 16  2  0
 15 17  1  0
 17 18  1  0
 18 19  1  0
 19 20  2  0
 20 21  1  0
 21 22  2  0
 22 23  1  0
 23 24  2  0
 24 25  1  0
 24 26  1  0
 26 27  2  0
 27 28  1  0
 20 29  1  0
 29 30  1  0
  8 31  2  0
 31  4  1  0
 30 13  1  0
 29 17  2  0
 27 21  1  0
  1 32  1  0
  1 33  1  0
  5 34  1  0
  6 35  1  0
  7 36  1  0
  9 37  1  0
  9 38  1  0
 19 39  1  0
 22 40  1  0
 23 41  1  0
 26 42  1  0
 31 43  1  0
M  CHG  2  14  -1  30  -1
M  END
>  <UniqueID>  (8) 
8

>  <SMILES>  (8) 
NC(=O)c1cccc(CC(=O)N=c2[n-]c(=O)c3scc(-c4ccc(F)cc4F)c3[n-]2)c1

>  <Energy>  (8) 
88.84049950453961

>  <Genealogy>  (8) 
NC(=O)c1cccc(CC(=O)N=c2[n-]c(=O)c3scc(-c4ccc(F)cc4F)c3[n-]2)c1 (protonated)
NC(=O)c1cccc(CC(=O)N=c2[n-]c(=O)c3scc(-c4ccc(F)cc4F)c3[n-]2)c1 (3D coordinates assigned)
NC(=O)c1cccc(CC(=O)N=c2[n-]c(=O)c3scc(-c4ccc(F)cc4F)c3[n-]2)c1 (optimized conformer: 88.84049950453961 kcal/mol)

>  <smiles>  (8) 
NC(=O)c1cccc(CC(=O)N=c2[nH]c(=O)c3scc(-c4ccc(F)cc4F)c3[nH]2)c1

>  <score_type>  (8) 
oracle

>  <origin>  (8) 
adg

>  <m_score__min__energy>  (8) 
-11.050000000000001

>  <m_primary>  (8) 
energy

$$$$
8:0
     RDKit          3D

 47 49  0  0  0  0  0  0  0  0999 V2000
   60.8280   28.6150   44.8730 C   0  0  0  0  0  0  0  0  0  0  0  0
   60.4250   29.1300   46.2290 C   0  0  0  0  0  0  0  0  0  0  0  0
   60.9490   30.3580   46.6720 C   0  0  0  0  0  0  0  0  0  0  0  0
   60.5970   30.8740   47.9210 C   0  0  0  0  0  0  0  0  0  0  0  0
   59.7150   30.1740   48.7420 C   0  0  0  0  0  0  0  0  0  0  0  0
   59.1820   28.9560   48.3190 C   0  0  0  0  0  0  0  0  0  0  0  0
   59.5230   28.4200   47.0650 C   0  0  0  0  0  0  0  0  0  0  0  0
   58.9160   27.0870   46.6740 C   0  0  0  0  0  0  0  0  0  0  0  0
   57.5000   27.2540   46.2770 N   0  0  0  0  0  0  0  0  0  0  0  0
   56.7250   26.0440   46.6200 C   0  0  0  0  0  0  0  0  0  0  0  0
   57.4060   27.5320   44.8280 C   0  0  0  0  0  0  0  0  0  0  0  0
   57.1640   28.9880   44.5880 C   0  0  0  0  0  0  0  0  0  0  0  0
   58.0840   29.8340   44.0860 N   0  0  0  0  0  0  0  0  0  0  0  0
   57.3860   30.9880   44.0540 C   0  0  0  0  0  0  0  0  0  0  0  0
   57.9720   32.2990   43.6270 C   0  0  0  0  0  0  0  0  0  0  0  0
   57.4150   33.4620   44.4580 C   0  0  0  0  0  0  0  0  0  0  0  0
   58.2760   33.7510   45.6610 C   0  0  0  0  0  0  0  0  0  0  0  0
   59.3420   34.6620   45.5660 C   0  0  0  0  0  0  0  0  0  0  0  0
   60.1190   34.9560   46.6910 C   0  0  0  0  0  0  0  0  0  0  0  0
   59.8340   34.3510   47.9180 C   0  0  0  0  0  0  0  0  0  0  0  0
   58.7690   33.4510   48.0230 C   0  0  0  0  0  0  0  0  0  0  0  0
   57.9900   33.1530   46.9000 C   0  0  0  0  0  0  0  0  0  0  0  0
   56.1300   30.8500   44.5220 N   0  0  0  0  0  0  0  0  0  0  0  0
   56.0300   29.5950   44.8370 O   0  0  0  0  0  0  0  0  0  0  0  0
   61.5018   27.7539   44.9932 H   0  0  0  0  0  0  0  0  0  0  0  0
   59.9310   28.3039   44.3175 H   0  0  0  0  0  0  0  0  0  0  0  0
   61.3456   29.4109   44.3175 H   0  0  0  0  0  0  0  0  0  0  0  0
   61.6432   30.9176   46.0279 H   0  0  0  0  0  0  0  0  0  0  0  0
   61.0163   31.8338   48.2571 H   0  0  0  0  0  0  0  0  0  0  0  0
   59.4386   30.5824   49.7252 H   0  0  0  0  0  0  0  0  0  0  0  0
   58.4875   28.4093   48.9738 H   0  0  0  0  0  0  0  0  0  0  0  0
   59.4810   26.6669   45.8288 H   0  0  0  0  0  0  0  0  0  0  0  0
   58.9635   26.4091   47.5390 H   0  0  0  0  0  0  0  0  0  0  0  0
   56.6625   25.9464   47.7139 H   0  0  0  0  0  0  0  0  0  0  0  0
   55.7114   26.1267   46.2008 H   0  0  0  0  0  0  0  0  0  0  0  0
   57.2240   25.1579   46.2008 H   0  0  0  0  0  0  0  0  0  0  0  0
   58.3470   27.2365   44.3410 H   0  0  0  0  0  0  0  0  0  0  0  0
   56.5658   26.9583   44.4098 H   0  0  0  0  0  0  0  0  0  0  0  0
   59.0640   32.2604   43.7535 H   0  0  0  0  0  0  0  0  0  0  0  0
   57.7052   32.4692   42.5735 H   0  0  0  0  0  0  0  0  0  0  0  0
   57.3709   34.3619   43.8269 H   0  0  0  0  0  0  0  0  0  0  0  0
   56.4130   33.1800   44.8136 H   0  0  0  0  0  0  0  0  0  0  0  0
   59.5659   35.1454   44.6036 H   0  0  0  0  0  0  0  0  0  0  0  0
   60.9562   35.6649   46.6099 H   0  0  0  0  0  0  0  0  0  0  0  0
   60.4474   34.5828   48.8012 H   0  0  0  0  0  0  0  0  0  0  0  0
   58.5436   32.9769   48.9896 H   0  0  0  0  0  0  0  0  0  0  0  0
   57.1503   32.4478   46.9872 H   0  0  0  0  0  0  0  0  0  0  0  0
  1  2  1  0
  2  3  2  0
  3  4  1  0
  4  5  2  0
  5  6  1  0
  6  7  2  0
  7  8  1  0
  8  9  1  0
  9 10  1  0
  9 11  1  0
 11 12  1  0
 12 13  2  0
 13 14  1  0
 14 15  1  0
 15 16  1  0
 16 17  1  0
 17 18  2  0
 18 19  1  0
 19 20  2  0
 20 21  1  0
 21 22  2  0
 14 23  2  0
 23 24  1  0
  7  2  1  0
 24 12  1  0
 22 17  1  0
  1 25  1  0
  1 26  1  0
  1 27  1  0
  3 28  1  0
  4 29  1  0
  5 30  1  0
  6 31  1  0
  8 32  1  0
  8 33  1  0
 10 34  1  0
 10 35  1  0
 10 36  1  0
 11 37  1  0
 11 38  1  0
 15 39  1  0
 15 40  1  0
 16 41  1  0
 16 42  1  0
 18 43  1  0
 19 44  1  0
 20 45  1  0
 21 46  1  0
 22 47  1  0
M  END
>  <UniqueID>  (9) 
9

>  <SMILES>  (9) 
Cc1ccccc1CN(C)Cc1nc(CCc2ccccc2)no1

>  <Energy>  (9) 
79.399406809686

>  <Genealogy>  (9) 
Cc1ccccc1CN(C)Cc1nc(CCc2ccccc2)no1 (3D coordinates assigned)
Cc1ccccc1CN(C)Cc1nc(CCc2ccccc2)no1 (optimized conformer: 79.399406809686 kcal/mol)

>  <smiles>  (9) 
Cc1ccccc1CN(C)Cc1nc(CCc2ccccc2)no1

>  <score_type>  (9) 
oracle

>  <origin>  (9) 
adg

>  <m_score__min__energy>  (9) 
-8.4199999999999999

>  <m_primary>  (9) 
energy

$$$$
9:0
     RDKit          3D

 62 67  0  0  0  0  0  0  0  0999 V2000
   57.0170   29.2580   43.2880 C   0  0  0  0  0  0  0  0  0  0  0  0
   57.5430   29.3510   44.6430 N   0  0  0  0  0  0  0  0  0  0  0  0
   58.1190   28.2820   45.3960 C   0  0  0  0  0  0  0  0  0  0  0  0
   57.9210   27.0640   45.1550 O   0  0  0  0  0  0  0  0  0  0  0  0
   58.9600   28.8590   46.4460 C   0  0  0  0  0  0  0  0  0  0  0  0
   59.6070   28.4720   47.6030 C   0  0  0  0  0  0  0  0  0  0  0  0
   60.0040   29.6400   48.2270 C   0  0  0  0  0  0  0  0  0  0  0  0
   59.6350   30.7350   47.3970 C   0  0  0  0  0  0  0  0  0  0  0  0
   59.7630   32.2510   47.6920 C   0  0  0  0  0  0  0  0  0  0  0  0
   58.8810   33.1230   46.7700 C   0  0  0  0  0  0  0  0  0  0  0  0
   57.4760   33.1450   46.9430 C   0  0  0  0  0  0  0  0  0  0  0  0
   56.6520   33.8390   46.0540 C   0  0  0  0  0  0  0  0  0  0  0  0
   57.2000   34.4760   44.9420 C   0  0  0  0  0  0  0  0  0  0  0  0
   58.5720   34.3970   44.7030 C   0  0  0  0  0  0  0  0  0  0  0  0
   59.4020   33.7050   45.5880 C   0  0  0  0  0  0  0  0  0  0  0  0
   61.2840   32.5380   47.5630 C   0  0  0  0  0  0  0  0  0  0  0  0
   61.8160   33.8500   47.5400 C   0  0  0  0  0  0  0  0  0  0  0  0
   63.1820   34.0720   47.3390 C   0  0  0  0  0  0  0  0  0  0  0  0
   64.0430   32.9980   47.1280 C   0  0  0  0  0  0  0  0  0  0  0  0
   63.5420   31.7000   47.1100 C   0  0  0  0  0  0  0  0  0  0  0  0
   62.1770   31.4720   47.3110 C   0  0  0  0  0  0  0  0  0  0  0  0
   59.2080   32.6080   49.0860 C   0  0  0  0  0  0  0  0  0  0  0  0
   59.8540   33.5960   49.8680 C   0  0  0  0  0  0  0  0  0  0  0  0
   59.4380   33.8640   51.1740 C   0  0  0  0  0  0  0  0  0  0  0  0
   58.4020   33.1260   51.7440 C   0  0  0  0  0  0  0  0  0  0  0  0
   57.7960   32.1020   51.0170 C   0  0  0  0  0  0  0  0  0  0  0  0
   58.2070   31.8270   49.7100 C   0  0  0  0  0  0  0  0  0  0  0  0
   58.9610   30.1860   46.3460 N   0  0  0  0  0  0  0  0  0  0  0  0
   58.0990   30.5210   45.2510 C   0  0  0  0  0  0  0  0  0  0  0  0
   57.8240   31.6880   44.8720 O   0  0  0  0  0  0  0  0  0  0  0  0
   60.5820   29.5500   49.4980 C   0  0  0  0  0  0  0  0  0  0  0  0
   60.9340   30.5840   50.1200 O   0  0  0  0  0  0  0  0  0  0  0  0
   60.7530   28.3120   50.0700 N   0  0  0  0  0  0  0  0  0  0  0  0
   61.3920   28.2050   51.3940 C   0  0  0  0  0  0  0  0  0  0  0  0
   60.3950   27.1660   49.3900 C   0  0  0  0  0  0  0  0  0  0  0  0
   60.6050   26.0370   49.9200 O   0  0  0  0  0  0  0  0  0  0  0  0
   59.8080   27.2360   48.1460 N   0  0  0  0  0  0  0  0  0  0  0  0
   59.4140   26.0180   47.4240 C   0  0  0  0  0  0  0  0  0  0  0  0
   55.9345   29.0666   43.3272 H   0  0  0  0  0  0  0  0  0  0  0  0
   57.2033   30.2030   42.7567 H   0  0  0  0  0  0  0  0  0  0  0  0
   57.5160   28.4342   42.7567 H   0  0  0  0  0  0  0  0  0  0  0  0
   57.0263   32.6072   47.7907 H   0  0  0  0  0  0  0  0  0  0  0  0
   55.5674   33.8829   46.2320 H   0  0  0  0  0  0  0  0  0  0  0  0
   56.5521   35.0397   44.2546 H   0  0  0  0  0  0  0  0  0  0  0  0
   59.0020   34.8816   43.8140 H   0  0  0  0  0  0  0  0  0  0  0  0
   60.4748   33.6106   45.3642 H   0  0  0  0  0  0  0  0  0  0  0  0
   61.1437   34.7089   47.6826 H   0  0  0  0  0  0  0  0  0  0  0  0
   63.5777   35.0983   47.3476 H   0  0  0  0  0  0  0  0  0  0  0  0
   65.1178   33.1756   46.9757 H   0  0  0  0  0  0  0  0  0  0  0  0
   64.2208   30.8518   46.9374 H   0  0  0  0  0  0  0  0  0  0  0  0
   61.7908   30.4428   47.2722 H   0  0  0  0  0  0  0  0  0  0  0  0
   60.6957   34.1607   49.4406 H   0  0  0  0  0  0  0  0  0  0  0  0
   59.9290   34.6592   51.7541 H   0  0  0  0  0  0  0  0  0  0  0  0
   58.0629   33.3511   52.7659 H   0  0  0  0  0  0  0  0  0  0  0  0
   56.9909   31.5081   51.4743 H   0  0  0  0  0  0  0  0  0  0  0  0
   57.7466   30.9932   49.1597 H   0  0  0  0  0  0  0  0  0  0  0  0
   60.6322   28.3322   52.1792 H   0  0  0  0  0  0  0  0  0  0  0  0
   61.8620   27.2156   51.4954 H   0  0  0  0  0  0  0  0  0  0  0  0
   62.1587   28.9873   51.4954 H   0  0  0  0  0  0  0  0  0  0  0  0
   59.1589   25.2294   48.1472 H   0  0  0  0  0  0  0  0  0  0  0  0
   58.5396   26.2329   46.7922 H   0  0  0  0  0  0  0  0  0  0  0  0
   60.2487   25.6801   46.7922 H   0  0  0  0  0  0  0  0  0  0  0  0
  1  2  1  0
  2  3  1  0
  3  4  2  0
  3  5  1  0
  5  6  2  0
  6  7  1  0
  7  8  2  0
  8  9  1  0
  9 10  1  0
 10 11  2  0
 11 12  1  0
 12 13  2  0
 13 14  1  0
 14 15  2  0
  9 16  1  0
 16 17  2  0
 17 18  1  0
 18 19  2  0
 19 20  1  0
 20 21  2  0
  9 22  1  0
 22 23  2  0
 23 24  1  0
 24 25  2  0
 25 26  1  0
 26 27  2  0
  8 28  1  0
 28 29  1  0
 29 30  2  0
  7 31  1  0
 31 32  2  0
 31 33  1  0
 33 34  1  0
 33 35  1  0
 35 36  2  0
 35 37  1  0
 37 38  1  0
 29  2  1  0
 28  5  1  0
 37  6  1  0
 15 10  1  0
 21 16  1  0
 27 22  1  0
  1 39  1  0
  1 40  1  0
  1 41  1  0
 11 42  1  0
 12 43  1  0
 13 44  1  0
 14 45  1  0
 15 46  1  0
 17 47  1  0
 18 48  1  0
 19 49  1  0
 20 50  1  0
 21 51  1  0
 23 52  1  0
 24 53  1  0
 25 54  1  0
 26 55  1  0
 27 56  1  0
 34 57  1  0
 34 58  1  0
 34 59  1  0
 38 60  1  0
 38 61  1  0
 38 62  1  0
M  END
>  <UniqueID>  (10) 
10

>  <SMILES>  (10) 
CN1C(=O)c2c3c(c(C(c4ccccc4)(c4ccccc4)c4ccccc4)n2C1=O)c(=O)n(C)c(=O)n3C

>  <Energy>  (10) 
191.09049383927365

>  <Genealogy>  (10) 
CN1C(=O)c2c3c(c(C(c4ccccc4)(c4ccccc4)c4ccccc4)n2C1=O)c(=O)n(C)c(=O)n3C (3D coordinates assigned)
CN1C(=O)c2c3c(c(C(c4ccccc4)(c4ccccc4)c4ccccc4)n2C1=O)c(=O)n(C)c(=O)n3C (nonaromatic ring conformer: 191.09049383927365 kcal/mol)

>  <smiles>  (10) 
CN1C(=O)c2c3c(c(C(c4ccccc4)(c4ccccc4)c4ccccc4)n2C1=O)c(=O)n(C)c(=O)n3C

>  <score_type>  (10) 
oracle

>  <origin>  (10) 
adg

>  <m_score__min__energy>  (10) 
-9.7699999999999996

>  <m_primary>  (10) 
energy

$$$$
10:0
     RDKit          3D

 43 45  0  0  1  0  0  0  0  0999 V2000
   56.6780   21.2890   43.0890 C   0  0  0  0  0  0  0  0  0  0  0  0
   56.5570   22.6560   43.6580 C   0  0  0  0  0  0  0  0  0  0  0  0
   56.2460   23.0650   44.9280 C   0  0  0  0  0  0  0  0  0  0  0  0
   56.2630   24.4450   44.9500 C   0  0  0  0  0  0  0  0  0  0  0  0
   56.0340   25.2560   45.9170 N   0  0  0  0  0  0  0  0  0  0  0  0
   56.7790   26.4780   45.9470 C   0  0  0  0  0  0  0  0  0  0  0  0
   58.0390   26.5260   46.5230 C   0  0  0  0  0  0  0  0  0  0  0  0
   58.6760   27.7490   46.5030 C   0  0  0  0  0  0  0  0  0  0  0  0
   60.0250   27.9090   47.0910 C   0  0  0  0  0  0  0  0  0  0  0  0
   60.7050   29.1720   46.6520 C   0  0  0  0  0  0  0  0  0  0  0  0
   59.8800   27.9640   48.5990 C   0  0  0  0  0  0  0  0  0  0  0  0
   60.9180   26.7140   46.7750 C   0  0  0  0  0  0  0  0  0  0  0  0
   58.1120   28.8420   45.9560 N   0  0  0  0  0  0  0  0  0  0  0  0
   56.8750   28.7780   45.3960 C   0  0  0  0  0  0  0  0  0  0  0  0
   56.3250   29.8150   44.8690 N   0  0  0  0  0  0  0  0  0  0  0  0
   57.1050   31.0850   44.8420 C   0  0  0  0  0  0  0  0  0  0  0  0
   57.4470   31.7910   43.6060 C   0  0  0  0  0  0  0  0  0  0  0  0
   58.1390   32.8950   43.7750 C   0  0  0  0  0  0  0  0  0  0  0  0
   58.5090   33.3380   45.0490 C   0  0  0  0  0  0  0  0  0  0  0  0
   59.4580   34.8070   45.6400 Br  0  0  0  0  0  0  0  0  0  0  0  0
   57.7770   32.0160   46.1580 S   0  0  0  0  0  0  0  0  0  0  0  0
   56.2330   27.5890   45.4040 N   0  0  0  0  0  0  0  0  0  0  0  0
   56.5780   24.8390   43.7120 N   0  0  0  0  0  0  0  0  0  0  0  0
   56.7550   23.7690   42.9360 N   0  0  0  0  0  0  0  0  0  0  0  0
   56.7429   20.5560   43.9066 H   0  0  0  0  0  0  0  0  0  0  0  0
   55.7957   21.0702   42.4696 H   0  0  0  0  0  0  0  0  0  0  0  0
   57.5850   21.2286   42.4696 H   0  0  0  0  0  0  0  0  0  0  0  0
   56.0218   22.4081   45.7814 H   0  0  0  0  0  0  0  0  0  0  0  0
   58.5055   25.6366   46.9718 H   0  0  0  0  0  0  0  0  0  0  0  0
   61.0151   29.7479   47.5364 H   0  0  0  0  0  0  0  0  0  0  0  0
   61.5901   28.9213   46.0489 H   0  0  0  0  0  0  0  0  0  0  0  0
   60.0085   29.7729   46.0489 H   0  0  0  0  0  0  0  0  0  0  0  0
   60.8095   27.6114   49.0698 H   0  0  0  0  0  0  0  0  0  0  0  0
   59.6812   29.0000   48.9107 H   0  0  0  0  0  0  0  0  0  0  0  0
   59.0441   27.3205   48.9107 H   0  0  0  0  0  0  0  0  0  0  0  0
   61.2614   26.2545   47.7136 H   0  0  0  0  0  0  0  0  0  0  0  0
   60.3489   25.9751   46.1917 H   0  0  0  0  0  0  0  0  0  0  0  0
   61.7879   27.0504   46.1917 H   0  0  0  0  0  0  0  0  0  0  0  0
   58.5740   29.7770   45.9280 H   0  0  0  0  0  0  0  0  0  0  0  0
   57.1478   31.4255   42.6126 H   0  0  0  0  0  0  0  0  0  0  0  0
   58.4341   33.4844   42.8944 H   0  0  0  0  0  0  0  0  0  0  0  0
   56.6720   25.8440   43.3980 H   0  0  0  0  0  0  0  0  0  0  0  0
   57.0110   23.8700   41.9150 H   0  0  0  0  0  0  0  0  0  0  0  0
  1  2  1  0
  2  3  2  0
  3  4  1  0
  4  5  2  0
  5  6  1  0
  6  7  1  0
  7  8  2  0
  8  9  1  0
  9 10  1  0
  9 11  1  0
  9 12  1  0
  8 13  1  0
 13 14  1  0
 14 15  2  0
 15 16  1  0
 16 17  2  0
 17 18  1  0
 18 19  2  0
 19 20  1  0
 19 21  1  0
 14 22  1  0
  4 23  1  0
 23 24  1  0
 24  2  1  0
 22  6  2  0
 21 16  1  0
  1 25  1  0
  1 26  1  0
  1 27  1  0
  3 28  1  0
  7 29  1  0
 10 30  1  0
 10 31  1  0
 10 32  1  0
 11 33  1  0
 11 34  1  0
 11 35  1  0
 12 36  1  0
 12 37  1  0
 12 38  1  0
 13 39  1  0
 17 40  1  0
 18 41  1  0
 23 42  1  0
 24 43  1  0
M  END
>  <smiles>  (11) 
Cc1cc(=Nc2cc(C(C)(C)C)[nH]c(=Nc3ccc(Br)s3)n2)[nH][nH]1

>  <score_type>  (11) 
oracle

>  <origin>  (11) 
adg

>  <m_score__min__energy>  (11) 
-8.4499999999999993

>  <m_primary>  (11) 
energy

$$$$
11:0
     RDKit          3D

 40 42  0  0  0  0  0  0  0  0999 V2000
   56.2740   30.4540   43.6530 C   0  0  0  0  0  0  0  0  0  0  0  0
   57.3290   30.1670   44.6800 C   0  0  0  0  0  0  0  0  0  0  0  0
   58.5150   30.9180   44.7120 C   0  0  0  0  0  0  0  0  0  0  0  0
   59.5050   30.6280   45.6540 C   0  0  0  0  0  0  0  0  0  0  0  0
   59.3260   29.5830   46.5700 C   0  0  0  0  0  0  0  0  0  0  0  0
   60.6630   29.1330   47.6880 S   0  0  0  0  0  0  0  0  0  0  0  0
   60.7920   30.7140   48.6280 C   0  0  2  0  0  0  0  0  0  0  0  0
   59.4410   31.2370   49.0550 C   0  0  0  0  0  0  0  0  0  0  0  0
   58.5260   30.4580   49.2810 O   0  0  0  0  0  0  0  0  0  0  0  0
   59.2730   32.6830   49.4310 C   0  0  0  0  0  0  0  0  0  0  0  0
   59.9580   33.6290   48.4250 C   0  0  2  0  0  0  0  0  0  0  0  0
   59.1460   33.7920   47.1390 C   0  0  0  0  0  0  0  0  0  0  0  0
   57.8060   33.3530   47.1290 C   0  0  0  0  0  0  0  0  0  0  0  0
   57.0060   33.5160   45.9960 C   0  0  0  0  0  0  0  0  0  0  0  0
   57.5180   34.1450   44.8620 C   0  0  0  0  0  0  0  0  0  0  0  0
   58.8330   34.6120   44.8610 C   0  0  0  0  0  0  0  0  0  0  0  0
   59.6480   34.4270   45.9810 C   0  0  0  0  0  0  0  0  0  0  0  0
   61.4390   33.2280   48.2350 C   0  0  0  0  0  0  0  0  0  0  0  0
   61.6050   31.7640   47.9050 C   0  0  0  0  0  0  0  0  0  0  0  0
   62.5230   31.4260   47.1720 O   0  0  0  0  0  0  0  0  0  0  0  0
   58.1600   28.8090   46.5130 C   0  0  0  0  0  0  0  0  0  0  0  0
   57.1620   29.1040   45.5800 C   0  0  0  0  0  0  0  0  0  0  0  0
   55.3310   30.7105   44.1579 H   0  0  0  0  0  0  0  0  0  0  0  0
   56.5944   31.2976   43.0240 H   0  0  0  0  0  0  0  0  0  0  0  0
   56.1229   29.5643   43.0240 H   0  0  0  0  0  0  0  0  0  0  0  0
   58.6650   31.7371   43.9932 H   0  0  0  0  0  0  0  0  0  0  0  0
   60.4298   31.2231   45.6767 H   0  0  0  0  0  0  0  0  0  0  0  0
   61.3479   30.4753   49.5467 H   0  0  0  0  0  0  0  0  0  0  0  0
   59.7141   32.8440   50.4257 H   0  0  0  0  0  0  0  0  0  0  0  0
   58.1966   32.9098   49.4292 H   0  0  0  0  0  0  0  0  0  0  0  0
   59.9810   34.6481   48.8385 H   0  0  0  0  0  0  0  0  0  0  0  0
   57.3850   32.8755   48.0261 H   0  0  0  0  0  0  0  0  0  0  0  0
   55.9696   33.1473   45.9983 H   0  0  0  0  0  0  0  0  0  0  0  0
   56.8869   34.2729   43.9702 H   0  0  0  0  0  0  0  0  0  0  0  0
   59.2299   35.1282   43.9744 H   0  0  0  0  0  0  0  0  0  0  0  0
   60.6900   34.7790   45.9609 H   0  0  0  0  0  0  0  0  0  0  0  0
   61.9848   33.4438   49.1653 H   0  0  0  0  0  0  0  0  0  0  0  0
   61.8359   33.8080   47.3888 H   0  0  0  0  0  0  0  0  0  0  0  0
   58.0291   27.9648   47.2060 H   0  0  0  0  0  0  0  0  0  0  0  0
   56.2427   28.5007   45.5514 H   0  0  0  0  0  0  0  0  0  0  0  0
  1  2  1  0
  2  3  2  0
  3  4  1  0
  4  5  2  0
  5  6  1  0
  6  7  1  0
  7  8  1  0
  8  9  2  0
  8 10  1  0
 10 11  1  0
 11 12  1  0
 12 13  2  0
 13 14  1  0
 14 15  2  0
 15 16  1  0
 16 17  2  0
 11 18  1  0
 18 19  1  0
 19 20  2  0
  5 21  1  0
 21 22  2  0
 22  2  1  0
 19  7  1  0
 17 12  1  0
  1 23  1  0
  1 24  1  0
  1 25  1  0
  3 26  1  0
  4 27  1  0
  7 28  1  1
 10 29  1  0
 10 30  1  0
 11 31  1  1
 13 32  1  0
 14 33  1  0
 15 34  1  0
 16 35  1  0
 17 36  1  0
 18 37  1  0
 18 38  1  0
 21 39  1  0
 22 40  1  0
M  END
>  <UniqueID>  (12) 
11

>  <SMILES>  (12) 
Cc1ccc(SC2C(=O)CC(c3ccccc3)CC2=O)cc1

>  <Energy>  (12) 
41.43809365810353

>  <Genealogy>  (12) 
Cc1ccc(SC2C(=O)CC(c3ccccc3)CC2=O)cc1 (3D coordinates assigned)
Cc1ccc(SC2C(=O)CC(c3ccccc3)CC2=O)cc1 (nonaromatic ring conformer: 41.43809365810353 kcal/mol)

>  <smiles>  (12) 
Cc1ccc(SC2C(=O)CC(c3ccccc3)CC2=O)cc1

>  <score_type>  (12) 
oracle

>  <origin>  (12) 
adg

>  <m_score__min__energy>  (12) 
-7.5700000000000003

>  <m_primary>  (12) 
energy

$$$$
12:0
     RDKit          3D

 32 33  0  0  1  0  0  0  0  0999 V2000
   58.1180   27.3910   44.2150 C   0  0  0  0  0  0  0  0  0  0  0  0
   57.0720   28.5730   45.0620 S   0  0  0  0  0  0  0  0  0  0  0  0
   57.3530   30.2460   44.5270 C   0  0  0  0  0  0  0  0  0  0  0  0
   57.3620   31.2080   45.4640 N   0  0  0  0  0  0  0  0  0  0  0  0
   57.5600   32.4940   45.2060 C   0  0  0  0  0  0  0  0  0  0  0  0
   57.5680   33.4130   46.0940 N   0  0  0  0  0  0  0  0  0  0  0  0
   58.6100   34.4070   46.2570 C   0  0  0  0  0  0  0  0  0  0  0  0
   59.2200   34.1690   47.6200 C   0  0  0  0  0  0  0  0  0  0  0  0
   60.6800   33.9910   47.5960 C   0  0  0  0  0  0  0  0  0  0  0  0
   61.4210   33.8440   46.4340 C   0  0  0  0  0  0  0  0  0  0  0  0
   62.7850   33.6790   46.4320 C   0  0  0  0  0  0  0  0  0  0  0  0
   63.4280   33.6610   47.6410 C   0  0  0  0  0  0  0  0  0  0  0  0
   62.7040   33.8060   48.8270 C   0  0  0  0  0  0  0  0  0  0  0  0
   61.3340   33.9730   48.8300 C   0  0  0  0  0  0  0  0  0  0  0  0
   57.7700   32.8590   43.8870 C   0  0  0  0  0  0  0  0  0  0  0  0
   57.7580   31.8600   42.9290 C   0  0  0  0  0  0  0  0  0  0  0  0
   58.0250   32.3450   41.2720 Cl  0  0  0  0  0  0  0  0  0  0  0  0
   57.5550   30.5650   43.2260 N   0  0  0  0  0  0  0  0  0  0  0  0
   58.6571   26.7818   44.9555 H   0  0  0  0  0  0  0  0  0  0  0  0
   57.4970   26.7375   43.5847 H   0  0  0  0  0  0  0  0  0  0  0  0
   58.8422   27.9279   43.5847 H   0  0  0  0  0  0  0  0  0  0  0  0
   59.3730   34.2899   45.4734 H   0  0  0  0  0  0  0  0  0  0  0  0
   58.2043   35.4262   46.1749 H   0  0  0  0  0  0  0  0  0  0  0  0
   58.9868   35.0330   48.2596 H   0  0  0  0  0  0  0  0  0  0  0  0
   58.7900   33.2319   48.0034 H   0  0  0  0  0  0  0  0  0  0  0  0
   60.8929   33.8602   45.4692 H   0  0  0  0  0  0  0  0  0  0  0  0
   63.3422   33.5651   45.4904 H   0  0  0  0  0  0  0  0  0  0  0  0
   64.5197   33.5318   47.6785 H   0  0  0  0  0  0  0  0  0  0  0  0
   63.2416   33.7865   49.7865 H   0  0  0  0  0  0  0  0  0  0  0  0
   60.7766   34.0879   49.7714 H   0  0  0  0  0  0  0  0  0  0  0  0
   57.9409   33.9095   43.6093 H   0  0  0  0  0  0  0  0  0  0  0  0
   57.5460   29.8050   42.4990 H   0  0  0  0  0  0  0  0  0  0  0  0
  1  2  1  0
  2  3  1  0
  3  4  2  0
  4  5  1  0
  5  6  2  0
  6  7  1  0
  7  8  1  0
  8  9  1  0
  9 10  2  0
 10 11  1  0
 11 12  2  0
 12 13  1  0
 13 14  2  0
  5 15  1  0
 15 16  2  0
 16 17  1  0
 16 18  1  0
 18  3  1  0
 14  9  1  0
  1 19  1  0
  1 20  1  0
  1 21  1  0
  7 22  1  0
  7 23  1  0
  8 24  1  0
  8 25  1  0
 10 26  1  0
 11 27  1  0
 12 28  1  0
 13 29  1  0
 14 30  1  0
 15 31  1  0
 18 32  1  0
M  END
>  <smiles>  (13) 
CSc1nc(=NCCc2ccccc2)cc(Cl)[nH]1

>  <score_type>  (13) 
oracle

>  <origin>  (13) 
adg

>  <m_score__min__energy>  (13) 
-7.3499999999999996

>  <m_primary>  (13) 
energy

$$$$
13:0
     RDKit          3D

 36 36  0  0  0  0  0  0  0  0999 V2000
   60.8890   26.3530   46.6290 C   0  0  0  0  0  0  0  0  0  0  0  0
   59.8000   27.1840   46.0200 C   0  0  0  0  0  0  0  0  0  0  0  0
   60.1160   28.3540   45.3130 C   0  0  0  0  0  0  0  0  0  0  0  0
   59.0990   29.1610   44.7940 C   0  0  0  0  0  0  0  0  0  0  0  0
   57.7560   28.8100   44.9800 C   0  0  0  0  0  0  0  0  0  0  0  0
   56.4660   29.8370   44.3560 S   0  0  0  0  0  0  0  0  0  0  0  0
   55.1480   29.3390   44.8760 O   0  0  0  0  0  0  0  0  0  0  0  0
   56.4390   29.7730   42.8540 O   0  0  0  0  0  0  0  0  0  0  0  0
   56.6910   31.4870   44.8580 N   0  0  0  0  0  0  0  0  0  0  0  0
   57.6870   32.1650   44.0250 C   0  0  0  0  0  0  0  0  0  0  0  0
   58.2860   33.3480   44.7930 C   0  0  0  0  0  0  0  0  0  0  0  0
   57.6730   33.4880   46.1920 C   0  0  0  0  0  0  0  0  0  0  0  0
   58.5500   34.2990   47.0680 N   0  0  0  0  0  0  0  0  0  0  0  0
   59.1850   33.4540   48.0920 C   0  0  0  0  0  0  0  0  0  0  0  0
   59.5910   34.9860   46.2830 C   0  0  0  0  0  0  0  0  0  0  0  0
   57.4370   27.6490   45.6980 C   0  0  0  0  0  0  0  0  0  0  0  0
   58.4540   26.8450   46.2220 C   0  0  0  0  0  0  0  0  0  0  0  0
   60.8204   26.4053   47.7256 H   0  0  0  0  0  0  0  0  0  0  0  0
   60.7780   25.3080   46.3041 H   0  0  0  0  0  0  0  0  0  0  0  0
   61.8677   26.7360   46.3041 H   0  0  0  0  0  0  0  0  0  0  0  0
   61.1686   28.6377   45.1664 H   0  0  0  0  0  0  0  0  0  0  0  0
   59.3546   30.0748   44.2376 H   0  0  0  0  0  0  0  0  0  0  0  0
   58.4869   31.4570   43.7627 H   0  0  0  0  0  0  0  0  0  0  0  0
   57.2039   32.5339   43.1082 H   0  0  0  0  0  0  0  0  0  0  0  0
   59.3707   33.1949   44.8932 H   0  0  0  0  0  0  0  0  0  0  0  0
   58.0668   34.2673   44.2301 H   0  0  0  0  0  0  0  0  0  0  0  0
   56.6919   33.9785   46.1091 H   0  0  0  0  0  0  0  0  0  0  0  0
   57.5621   32.4859   46.6319 H   0  0  0  0  0  0  0  0  0  0  0  0
   58.9097   33.8203   49.0920 H   0  0  0  0  0  0  0  0  0  0  0  0
   58.8420   32.4155   47.9747 H   0  0  0  0  0  0  0  0  0  0  0  0
   60.2780   33.4946   47.9747 H   0  0  0  0  0  0  0  0  0  0  0  0
   60.3111   35.4612   46.9654 H   0  0  0  0  0  0  0  0  0  0  0  0
   60.1142   34.2552   45.6488 H   0  0  0  0  0  0  0  0  0  0  0  0
   59.1248   35.7544   45.6488 H   0  0  0  0  0  0  0  0  0  0  0  0
   56.3839   27.3697   45.8496 H   0  0  0  0  0  0  0  0  0  0  0  0
   58.1972   25.9421   46.7955 H   0  0  0  0  0  0  0  0  0  0  0  0
  1  2  1  0
  2  3  2  0
  3  4  1  0
  4  5  2  0
  5  6  1  0
  6  7  2  0
  6  8  2  0
  6  9  1  0
  9 10  1  0
 10 11  1  0
 11 12  1  0
 12 13  1  0
 13 14  1  0
 13 15  1  0
  5 16  1  0
 16 17  2  0
 17  2  1  0
  1 18  1  0
  1 19  1  0
  1 20  1  0
  3 21  1  0
  4 22  1  0
 10 23  1  0
 10 24  1  0
 11 25  1  0
 11 26  1  0
 12 27  1  0
 12 28  1  0
 14 29  1  0
 14 30  1  0
 14 31  1  0
 15 32  1  0
 15 33  1  0
 15 34  1  0
 16 35  1  0
 17 36  1  0
M  CHG  1   9  -1
M  END
>  <UniqueID>  (14) 
12

>  <SMILES>  (14) 
Cc1ccc(S(=O)(=O)[N-]CCCN(C)C)cc1

>  <Energy>  (14) 
26.786636491198507

>  <Genealogy>  (14) 
Cc1ccc(S(=O)(=O)[N-]CCCN(C)C)cc1 (protonated)
Cc1ccc(S(=O)(=O)[N-]CCCN(C)C)cc1 (3D coordinates assigned)
Cc1ccc(S(=O)(=O)[N-]CCCN(C)C)cc1 (optimized conformer: 26.786636491198507 kcal/mol)

>  <smiles>  (14) 
Cc1ccc(S(=O)(=O)NCCCN(C)C)cc1

>  <score_type>  (14) 
oracle

>  <origin>  (14) 
adg

>  <m_score__min__energy>  (14) 
-8.0099999999999998

>  <m_primary>  (14) 
energy

$$$$
14:0
     RDKit          3D

 49 53  0  0  0  0  0  0  0  0999 V2000
   55.5064   30.0073   44.3278 H   0  0  0  0  0  0  0  0  0  0  0  0
   56.1340   29.3640   44.9620 C   0  0  0  0  0  0  0  0  0  0  0  0
   55.8980   28.0520   45.2100 N   0  0  0  0  0  0  0  0  0  0  0  0
   56.8650   27.6390   46.0100 N   0  0  0  0  0  0  0  0  0  0  0  0
   58.9470   27.2370   47.6820 C   0  0  0  0  0  0  0  0  0  0  0  0
   59.9200   27.0240   48.5180 N   0  0  0  0  0  0  0  0  0  0  0  0
   55.9760   24.8740   44.9670 C   0  0  0  0  0  0  0  0  0  0  0  0
   54.8982   24.7334   44.7982 H   0  0  0  0  0  0  0  0  0  0  0  0
   56.3936   25.5561   44.2118 H   0  0  0  0  0  0  0  0  0  0  0  0
   56.6720   23.5430   44.8570 C   0  0  0  0  0  0  0  0  0  0  0  0
   57.2350   22.9340   45.9880 C   0  0  0  0  0  0  0  0  0  0  0  0
   57.1905   23.4337   46.9669 H   0  0  0  0  0  0  0  0  0  0  0  0
   57.8530   21.6870   45.8610 C   0  0  0  0  0  0  0  0  0  0  0  0
   58.2991   21.2042   46.7430 H   0  0  0  0  0  0  0  0  0  0  0  0
   57.9050   21.0680   44.6510 N   0  0  0  0  0  0  0  0  0  0  0  0
   58.3690   20.1360   44.5730 H   0  0  0  0  0  0  0  0  0  0  0  0
   57.3640   21.6370   43.5400 C   0  0  0  0  0  0  0  0  0  0  0  0
   57.4209   21.1149   42.5735 H   0  0  0  0  0  0  0  0  0  0  0  0
   56.7360   22.8830   43.6230 C   0  0  0  0  0  0  0  0  0  0  0  0
   56.2952   23.3420   42.7258 H   0  0  0  0  0  0  0  0  0  0  0  0
   58.0800   26.2180   47.4020 N   0  0  0  0  0  0  0  0  0  0  0  0
   57.0230   26.4110   46.5600 C   0  0  0  0  0  0  0  0  0  0  0  0
   56.1830   25.4550   46.2930 N   0  0  0  0  0  0  0  0  0  0  0  0
   60.5550   28.0090   49.3500 C   0  0  0  0  0  0  0  0  0  0  0  0
   60.7320   29.3360   48.9200 C   0  0  0  0  0  0  0  0  0  0  0  0
   60.3651   29.6443   47.9299 H   0  0  0  0  0  0  0  0  0  0  0  0
   61.3720   30.2650   49.7450 C   0  0  0  0  0  0  0  0  0  0  0  0
   61.4923   31.3061   49.4107 H   0  0  0  0  0  0  0  0  0  0  0  0
   61.8590   29.8720   50.9940 C   0  0  0  0  0  0  0  0  0  0  0  0
   62.3538   30.6062   51.6468 H   0  0  0  0  0  0  0  0  0  0  0  0
   61.7180   28.5460   51.4150 C   0  0  0  0  0  0  0  0  0  0  0  0
   62.3480   28.0490   52.9750 Cl  0  0  0  0  0  0  0  0  0  0  0  0
   61.0770   27.6150   50.5900 C   0  0  0  0  0  0  0  0  0  0  0  0
   60.9822   26.5687   50.9161 H   0  0  0  0  0  0  0  0  0  0  0  0
   58.7530   28.4700   47.1220 N   0  0  0  0  0  0  0  0  0  0  0  0
   57.7080   28.6370   46.2780 C   0  0  0  0  0  0  0  0  0  0  0  0
   57.2890   29.7810   45.6280 C   0  0  0  0  0  0  0  0  0  0  0  0
   57.8810   31.1410   45.6480 C   0  0  0  0  0  0  0  0  0  0  0  0
   58.9410   31.4570   46.5170 C   0  0  0  0  0  0  0  0  0  0  0  0
   59.3426   30.6859   47.1909 H   0  0  0  0  0  0  0  0  0  0  0  0
   59.4880   32.7430   46.5310 C   0  0  0  0  0  0  0  0  0  0  0  0
   60.3147   32.9799   47.2169 H   0  0  0  0  0  0  0  0  0  0  0  0
   58.9870   33.7300   45.6750 C   0  0  0  0  0  0  0  0  0  0  0  0
   59.5520   35.0540   45.6910 C   0  0  0  0  0  0  0  0  0  0  0  0
   60.0060   36.1180   45.7030 N   0  0  0  0  0  0  0  0  0  0  0  0
   57.9400   33.4240   44.8000 C   0  0  0  0  0  0  0  0  0  0  0  0
   57.5473   34.1967   44.1227 H   0  0  0  0  0  0  0  0  0  0  0  0
   57.3910   32.1380   44.7840 C   0  0  0  0  0  0  0  0  0  0  0  0
   56.5697   31.9038   44.0907 H   0  0  0  0  0  0  0  0  0  0  0  0
  1  2  1  0
  2  3  1  0
  3  4  1  0
  4  5  1  0
  5  6  2  0
  6  7  1  0
  7  8  1  0
  7  9  1  0
  7 10  1  0
 10 11  2  0
 11 12  1  0
 11 13  1  0
 13 14  1  0
 13 15  2  0
 15 16  1  0
 15 17  1  0
 17 18  1  0
 17 19  2  0
 19 20  1  0
  5 21  1  0
 21 22  1  0
 22 23  2  0
 23 24  1  0
 24 25  2  0
 25 26  1  0
 25 27  1  0
 27 28  1  0
 27 29  2  0
 29 30  1  0
 29 31  1  0
 31 32  1  0
 31 33  2  0
 33 34  1  0
 22 35  1  0
 35 36  2  0
 36 37  1  0
 37 38  1  0
 38 39  2  0
 39 40  1  0
 39 41  1  0
 41 42  1  0
 41 43  2  0
 43 44  1  0
 44 45  3  0
 43 46  1  0
 46 47  1  0
 46 48  2  0
 48 49  1  0
 37  2  2  0
 48 38  1  0
 36  4  1  0
 19 10  1  0
 33 24  1  0
M  CHG  3   3  -1  15   1  21  -1
M  END
>  <UniqueID>  (15) 
13

>  <SMILES>  (15) 
N#Cc1ccc(-c2c[n-]n3/c(=N/Cc4cc[nH+]cc4)[n-]/c(=N/c4cccc(Cl)c4)nc23)cc1

>  <Energy>  (15) 
100.82624766788197

>  <Genealogy>  (15) 
N#Cc1ccc(-c2c[n-]n3c(=NCc4cc[nH+]cc4)[n-]c(=Nc4cccc(Cl)c4)nc23)cc1 (protonated)
N#Cc1ccc(-c2c[n-]n3/c(=N/Cc4cc[nH+]cc4)[n-]/c(=N/c4cccc(Cl)c4)nc23)cc1 (cis-trans isomerization)
N#Cc1ccc(-c2c[n-]n3/c(=N/Cc4cc[nH+]cc4)[n-]/c(=N/c4cccc(Cl)c4)nc23)cc1 (3D coordinates assigned)
N#Cc1ccc(-c2c[n-]n3/c(=N/Cc4cc[nH+]cc4)[n-]/c(=N/c4cccc(Cl)c4)nc23)cc1 (optimized conformer: 100.82624766788197 kcal/mol)

>  <smiles>  (15) 
N#Cc1ccc(-c2c[nH]n3c(=NCc4ccncc4)[nH]c(=Nc4cccc(Cl)c4)nc23)cc1

>  <score_type>  (15) 
oracle

>  <origin>  (15) 
adg

>  <m_score__min__energy>  (15) 
-11.75

>  <m_primary>  (15) 
energy

$$$$
15:0
     RDKit          3D

 47 48  0  0  0  0  0  0  0  0999 V2000
   57.7350   23.9830   46.4350 C   0  0  0  0  0  0  0  0  0  0  0  0
   57.4030   25.0080   47.5140 C   0  0  0  0  0  0  0  0  0  0  0  0
   57.8840   26.3460   47.1040 N   0  0  0  0  0  0  0  0  0  0  0  0
   59.3390   26.3390   46.8440 C   0  0  0  0  0  0  0  0  0  0  0  0
   60.1020   27.1350   47.9010 C   0  0  0  0  0  0  0  0  0  0  0  0
   56.9790   26.9280   45.7120 S   0  0  0  0  0  0  0  0  0  0  0  0
   57.3760   26.1630   44.4800 O   0  0  0  0  0  0  0  0  0  0  0  0
   55.5110   26.6910   45.9370 O   0  0  0  0  0  0  0  0  0  0  0  0
   57.2580   28.6470   45.4130 C   0  0  0  0  0  0  0  0  0  0  0  0
   56.3780   29.3690   44.5970 C   0  0  0  0  0  0  0  0  0  0  0  0
   56.6290   30.7110   44.3050 C   0  0  0  0  0  0  0  0  0  0  0  0
   57.7700   31.3490   44.8200 C   0  0  0  0  0  0  0  0  0  0  0  0
   58.0720   32.7110   44.4820 N   0  0  0  0  0  0  0  0  0  0  0  0
   58.6110   33.6440   45.4310 C   0  0  0  0  0  0  0  0  0  0  0  0
   59.2190   35.0660   44.8880 S   0  0  0  0  0  0  0  0  0  0  0  0
   58.3750   33.4430   46.8350 N   0  0  0  0  0  0  0  0  0  0  0  0
   59.3400   33.7380   47.8600 C   0  0  0  0  0  0  0  0  0  0  0  0
   60.3170   34.4930   47.6100 O   0  0  0  0  0  0  0  0  0  0  0  0
   59.2030   33.1560   49.2160 C   0  0  0  0  0  0  0  0  0  0  0  0
   59.6640   33.8480   50.3540 C   0  0  0  0  0  0  0  0  0  0  0  0
   59.5180   33.2910   51.6290 C   0  0  0  0  0  0  0  0  0  0  0  0
   58.9070   32.0450   51.7830 C   0  0  0  0  0  0  0  0  0  0  0  0
   58.4350   31.3540   50.6650 C   0  0  0  0  0  0  0  0  0  0  0  0
   58.5770   31.9080   49.3880 C   0  0  0  0  0  0  0  0  0  0  0  0
   58.6200   30.6410   45.6810 C   0  0  0  0  0  0  0  0  0  0  0  0
   58.3700   29.2960   45.9710 C   0  0  0  0  0  0  0  0  0  0  0  0
   58.0410   23.0384   46.9083 H   0  0  0  0  0  0  0  0  0  0  0  0
   56.8473   23.8088   45.8091 H   0  0  0  0  0  0  0  0  0  0  0  0
   58.5562   24.3624   45.8091 H   0  0  0  0  0  0  0  0  0  0  0  0
   56.3135   25.0418   47.6619 H   0  0  0  0  0  0  0  0  0  0  0  0
   57.8973   24.7179   48.4529 H   0  0  0  0  0  0  0  0  0  0  0  0
   59.6982   25.2993   46.8516 H   0  0  0  0  0  0  0  0  0  0  0  0
   59.5162   26.8082   45.8650 H   0  0  0  0  0  0  0  0  0  0  0  0
   59.7885   26.8080   48.9034 H   0  0  0  0  0  0  0  0  0  0  0  0
   61.1819   26.9636   47.7804 H   0  0  0  0  0  0  0  0  0  0  0  0
   59.8851   28.2066   47.7804 H   0  0  0  0  0  0  0  0  0  0  0  0
   55.4851   28.8765   44.1843 H   0  0  0  0  0  0  0  0  0  0  0  0
   55.9294   31.2721   43.6680 H   0  0  0  0  0  0  0  0  0  0  0  0
   57.8320   33.0530   43.5220 H   0  0  0  0  0  0  0  0  0  0  0  0
   57.4990   32.9400   47.0990 H   0  0  0  0  0  0  0  0  0  0  0  0
   60.1416   34.8322   50.2389 H   0  0  0  0  0  0  0  0  0  0  0  0
   59.8851   33.8355   52.5115 H   0  0  0  0  0  0  0  0  0  0  0  0
   58.7973   31.6072   52.7861 H   0  0  0  0  0  0  0  0  0  0  0  0
   57.9514   30.3738   50.7883 H   0  0  0  0  0  0  0  0  0  0  0  0
   58.1961   31.3633   48.5115 H   0  0  0  0  0  0  0  0  0  0  0  0
   59.4878   31.1458   46.1306 H   0  0  0  0  0  0  0  0  0  0  0  0
   59.0478   28.7446   46.6392 H   0  0  0  0  0  0  0  0  0  0  0  0
  1  2  1  0
  2  3  1  0
  3  4  1  0
  4  5  1  0
  3  6  1  0
  6  7  2  0
  6  8  2  0
  6  9  1  0
  9 10  2  0
 10 11  1  0
 11 12  2  0
 12 13  1  0
 13 14  1  0
 14 15  2  0
 14 16  1  0
 16 17  1  0
 17 18  2  0
 17 19  1  0
 19 20  2  0
 20 21  1  0
 21 22  2  0
 22 23  1  0
 23 24  2  0
 12 25  1  0
 25 26  2  0
 26  9  1  0
 24 19  1  0
  1 27  1  0
  1 28  1  0
  1 29  1  0
  2 30  1  0
  2 31  1  0
  4 32  1  0
  4 33  1  0
  5 34  1  0
  5 35  1  0
  5 36  1  0
 10 37  1  0
 11 38  1  0
 13 39  1  0
 16 40  1  0
 20 41  1  0
 21 42  1  0
 22 43  1  0
 23 44  1  0
 24 45  1  0
 25 46  1  0
 26 47  1  0
M  END
>  <UniqueID>  (16) 
14

>  <SMILES>  (16) 
CCN(CC)S(=O)(=O)c1ccc(NC(=S)NC(=O)c2ccccc2)cc1

>  <Energy>  (16) 
53.492077524181006

>  <Genealogy>  (16) 
CCN(CC)S(=O)(=O)c1ccc(NC(=S)NC(=O)c2ccccc2)cc1 (3D coordinates assigned)
CCN(CC)S(=O)(=O)c1ccc(NC(=S)NC(=O)c2ccccc2)cc1 (optimized conformer: 53.492077524181006 kcal/mol)

>  <smiles>  (16) 
CCN(CC)S(=O)(=O)c1ccc(NC(=S)NC(=O)c2ccccc2)cc1

>  <score_type>  (16) 
oracle

>  <origin>  (16) 
adg

>  <m_score__min__energy>  (16) 
-7.7199999999999998

>  <m_primary>  (16) 
energy

$$$$
16:0
     RDKit          3D

 35 36  0  0  0  0  0  0  0  0999 V2000
   56.2280   29.0183   43.0560 H   0  0  0  0  0  0  0  0  0  0  0  0
   56.2510   29.7210   43.9020 C   0  0  0  0  0  0  0  0  0  0  0  0
   55.4660   29.5360   44.8700 O   0  0  0  0  0  0  0  0  0  0  0  0
   57.2000   30.8500   43.8670 C   0  0  0  0  0  0  0  0  0  0  0  0
   58.1151   30.7186   43.2709 H   0  0  0  0  0  0  0  0  0  0  0  0
   57.0440   32.0230   44.4990 C   0  0  0  0  0  0  0  0  0  0  0  0
   56.0878   32.5492   44.3616 H   0  0  0  0  0  0  0  0  0  0  0  0
   58.0550   32.6640   45.3650 C   0  0  0  0  0  0  0  0  0  0  0  0
   58.5160   33.9600   45.0750 C   0  0  0  0  0  0  0  0  0  0  0  0
   58.1450   34.4855   44.1827 H   0  0  0  0  0  0  0  0  0  0  0  0
   59.4420   34.5840   45.9130 C   0  0  0  0  0  0  0  0  0  0  0  0
   59.8091   35.5927   45.6725 H   0  0  0  0  0  0  0  0  0  0  0  0
   59.9020   33.9280   47.0560 C   0  0  0  0  0  0  0  0  0  0  0  0
   60.8010   34.5370   47.8690 F   0  0  0  0  0  0  0  0  0  0  0  0
   59.4320   32.6500   47.3680 C   0  0  0  0  0  0  0  0  0  0  0  0
   59.7924   32.1414   48.2743 H   0  0  0  0  0  0  0  0  0  0  0  0
   58.4990   32.0080   46.5290 C   0  0  0  0  0  0  0  0  0  0  0  0
   58.0030   30.7220   46.8100 O   0  0  0  0  0  0  0  0  0  0  0  0
   58.8020   29.5830   47.1360 C   0  0  0  0  0  0  0  0  0  0  0  0
   58.6388   29.3208   48.1918 H   0  0  0  0  0  0  0  0  0  0  0  0
   59.8575   29.8359   46.9572 H   0  0  0  0  0  0  0  0  0  0  0  0
   58.4410   28.3930   46.2700 C   0  0  0  0  0  0  0  0  0  0  0  0
   57.4480   27.5020   46.7210 C   0  0  0  0  0  0  0  0  0  0  0  0
   56.9497   27.6856   47.6843 H   0  0  0  0  0  0  0  0  0  0  0  0
   57.0890   26.3890   45.9600 C   0  0  0  0  0  0  0  0  0  0  0  0
   56.3011   25.7098   46.3175 H   0  0  0  0  0  0  0  0  0  0  0  0
   57.7280   26.1370   44.7470 C   0  0  0  0  0  0  0  0  0  0  0  0
   57.4366   25.2645   44.1438 H   0  0  0  0  0  0  0  0  0  0  0  0
   58.7360   26.9890   44.2970 C   0  0  0  0  0  0  0  0  0  0  0  0
   59.2381   26.7814   43.3406 H   0  0  0  0  0  0  0  0  0  0  0  0
   59.1170   28.1120   45.0550 C   0  0  0  0  0  0  0  0  0  0  0  0
   60.2270   28.9930   44.5420 C   0  0  0  0  0  0  0  0  0  0  0  0
   60.7736   29.4268   45.3924 H   0  0  0  0  0  0  0  0  0  0  0  0
   60.9172   28.3941   43.9296 H   0  0  0  0  0  0  0  0  0  0  0  0
   59.8004   29.8011   43.9296 H   0  0  0  0  0  0  0  0  0  0  0  0
  1  2  1  0
  2  3  2  0
  2  4  1  0
  4  5  1  0
  4  6  2  0
  6  7  1  0
  6  8  1  0
  8  9  2  0
  9 10  1  0
  9 11  1  0
 11 12  1  0
 11 13  2  0
 13 14  1  0
 13 15  1  0
 15 16  1  0
 15 17  2  0
 17 18  1  0
 18 19  1  0
 19 20  1  0
 19 21  1  0
 19 22  1  0
 22 23  2  0
 23 24  1  0
 23 25  1  0
 25 26  1  0
 25 27  2  0
 27 28  1  0
 27 29  1  0
 29 30  1  0
 29 31  2  0
 31 32  1  0
 32 33  1  0
 32 34  1  0
 32 35  1  0
 17  8  1  0
 31 22  1  0
M  END
>  <UniqueID>  (17) 
15

>  <SMILES>  (17) 
Cc1ccccc1COc1cc(F)ccc1/C=C\C=O

>  <Energy>  (17) 
44.50768374543296

>  <Genealogy>  (17) 
Cc1ccccc1COc1cc(F)ccc1/C=C\C=O (cis-trans isomerization)
Cc1ccccc1COc1cc(F)ccc1/C=C\C=O (3D coordinates assigned)
Cc1ccccc1COc1cc(F)ccc1/C=C\C=O (optimized conformer: 44.50768374543296 kcal/mol)

>  <smiles>  (17) 
Cc1ccccc1COc1cc(F)ccc1C=CC=O

>  <score_type>  (17) 
oracle

>  <origin>  (17) 
adg

>  <m_score__min__energy>  (17) 
-6.8399999999999999

>  <m_primary>  (17) 
energy

$$$$
17:0
     RDKit          3D

 45 47  0  0  0  0  0  0  0  0999 V2000
   56.4020   23.5620   46.5900 C   0  0  0  0  0  0  0  0  0  0  0  0
   56.0500   24.8720   47.1170 N   0  0  0  0  0  0  0  0  0  0  0  0
   56.1760   26.0730   46.3490 C   0  0  0  0  0  0  0  0  0  0  0  0
   55.1470   26.6930   45.9640 O   0  0  0  0  0  0  0  0  0  0  0  0
   57.5430   26.5970   46.0080 C   0  0  2  0  0  0  0  0  0  0  0  0
   58.5720   26.2900   47.1340 C   0  0  0  0  0  0  0  0  0  0  0  0
   59.0930   27.6380   47.4970 C   0  0  0  0  0  0  0  0  0  0  0  0
   60.1040   27.9460   48.4100 C   0  0  0  0  0  0  0  0  0  0  0  0
   60.4910   29.2880   48.5550 C   0  0  0  0  0  0  0  0  0  0  0  0
   59.8760   30.2890   47.7790 C   0  0  0  0  0  0  0  0  0  0  0  0
   58.8660   29.9540   46.8630 C   0  0  0  0  0  0  0  0  0  0  0  0
   58.4750   28.6140   46.7620 C   0  0  0  0  0  0  0  0  0  0  0  0
   57.5140   28.0560   45.8780 N   0  0  0  0  0  0  0  0  0  0  0  0
   56.7070   28.7650   44.9260 C   0  0  0  0  0  0  0  0  0  0  0  0
   55.5190   29.0650   45.2230 O   0  0  0  0  0  0  0  0  0  0  0  0
   57.2790   29.2200   43.6140 C   0  0  0  0  0  0  0  0  0  0  0  0
   57.8810   30.6260   43.7430 C   0  0  0  0  0  0  0  0  0  0  0  0
   56.9600   31.5860   44.5100 C   0  0  0  0  0  0  0  0  0  0  0  0
   57.7260   32.7160   45.1470 C   0  0  0  0  0  0  0  0  0  0  0  0
   58.5330   33.5550   44.3600 C   0  0  0  0  0  0  0  0  0  0  0  0
   59.2660   34.5880   44.9550 C   0  0  0  0  0  0  0  0  0  0  0  0
   59.2030   34.7860   46.3360 C   0  0  0  0  0  0  0  0  0  0  0  0
   58.4090   33.9510   47.1270 C   0  0  0  0  0  0  0  0  0  0  0  0
   57.6740   32.9170   46.5370 C   0  0  0  0  0  0  0  0  0  0  0  0
   56.5882   22.8692   47.4239 H   0  0  0  0  0  0  0  0  0  0  0  0
   55.5746   23.1802   45.9739 H   0  0  0  0  0  0  0  0  0  0  0  0
   57.3093   23.6463   45.9739 H   0  0  0  0  0  0  0  0  0  0  0  0
   57.8352   26.1062   45.0679 H   0  0  0  0  0  0  0  0  0  0  0  0
   58.0830   25.8112   47.9952 H   0  0  0  0  0  0  0  0  0  0  0  0
   59.3622   25.5933   46.8175 H   0  0  0  0  0  0  0  0  0  0  0  0
   60.5865   27.1547   49.0025 H   0  0  0  0  0  0  0  0  0  0  0  0
   61.2763   29.5578   49.2764 H   0  0  0  0  0  0  0  0  0  0  0  0
   60.1881   31.3379   47.8908 H   0  0  0  0  0  0  0  0  0  0  0  0
   58.3930   30.7268   46.2392 H   0  0  0  0  0  0  0  0  0  0  0  0
   58.0654   28.5179   43.3000 H   0  0  0  0  0  0  0  0  0  0  0  0
   56.4720   29.2480   42.8671 H   0  0  0  0  0  0  0  0  0  0  0  0
   58.8396   30.5527   44.2775 H   0  0  0  0  0  0  0  0  0  0  0  0
   58.0167   31.0285   42.7283 H   0  0  0  0  0  0  0  0  0  0  0  0
   56.2235   32.0068   43.8096 H   0  0  0  0  0  0  0  0  0  0  0  0
   56.4672   31.0159   45.3113 H   0  0  0  0  0  0  0  0  0  0  0  0
   58.5888   33.3993   43.2725 H   0  0  0  0  0  0  0  0  0  0  0  0
   59.8927   35.2450   44.3340 H   0  0  0  0  0  0  0  0  0  0  0  0
   59.7786   35.5996   46.8015 H   0  0  0  0  0  0  0  0  0  0  0  0
   58.3619   34.1070   48.2149 H   0  0  0  0  0  0  0  0  0  0  0  0
   57.0534   32.2592   47.1631 H   0  0  0  0  0  0  0  0  0  0  0  0
  1  2  1  0
  2  3  1  0
  3  4  2  0
  3  5  1  0
  5  6  1  0
  6  7  1  0
  7  8  2  0
  8  9  1  0
  9 10  2  0
 10 11  1  0
 11 12  2  0
 12 13  1  0
 13 14  1  0
 14 15  2  0
 14 16  1  0
 16 17  1  0
 17 18  1  0
 18 19  1  0
 19 20  2  0
 20 21  1  0
 21 22  2  0
 22 23  1  0
 23 24  2  0
 13  5  1  0
 24 19  1  0
 12  7  1  0
  1 25  1  0
  1 26  1  0
  1 27  1  0
  5 28  1  6
  6 29  1  0
  6 30  1  0
  8 31  1  0
  9 32  1  0
 10 33  1  0
 11 34  1  0
 16 35  1  0
 16 36  1  0
 17 37  1  0
 17 38  1  0
 18 39  1  0
 18 40  1  0
 20 41  1  0
 21 42  1  0
 22 43  1  0
 23 44  1  0
 24 45  1  0
M  CHG  1   2  -1
M  END
>  <UniqueID>  (18) 
16

>  <SMILES>  (18) 
C[N-]C(=O)[C@@H]1Cc2ccccc2N1C(=O)CCCc1ccccc1

>  <Energy>  (18) 
57.10032318332054

>  <Genealogy>  (18) 
C[N-]C(=O)C1Cc2ccccc2N1C(=O)CCCc1ccccc1 (protonated)
C[N-]C(=O)[C@@H]1Cc2ccccc2N1C(=O)CCCc1ccccc1 (chirality)
C[N-]C(=O)[C@@H]1Cc2ccccc2N1C(=O)CCCc1ccccc1 (3D coordinates assigned)
C[N-]C(=O)[C@@H]1Cc2ccccc2N1C(=O)CCCc1ccccc1 (nonaromatic ring conformer: 57.10032318332054 kcal/mol)

>  <smiles>  (18) 
CNC(=O)C1Cc2ccccc2N1C(=O)CCCc1ccccc1

>  <score_type>  (18) 
oracle

>  <origin>  (18) 
adg

>  <m_score__min__energy>  (18) 
-10.84

>  <m_primary>  (18) 
energy

$$$$
18:0
     RDKit          3D

 28 28  0  0  0  0  0  0  0  0999 V2000
   54.7600   27.1400   45.9980 H   0  0  0  0  0  0  0  0  0  0  0  0
   54.5170   26.1570   45.9530 O   0  0  0  0  0  0  0  0  0  0  0  0
   55.4700   25.1710   46.0920 N   0  0  0  0  0  0  0  0  0  0  0  0
   56.6110   25.2320   45.4800 C   0  0  0  0  0  0  0  0  0  0  0  0
   57.0586   24.3152   45.0688 H   0  0  0  0  0  0  0  0  0  0  0  0
   57.3100   26.5110   45.3310 C   0  0  0  0  0  0  0  0  0  0  0  0
   58.5240   26.5310   44.9940 O   0  0  0  0  0  0  0  0  0  0  0  0
   56.6090   27.7260   45.6250 N   0  0  0  0  0  0  0  0  0  0  0  0
   57.1090   29.0620   45.4650 C   0  0  0  0  0  0  0  0  0  0  0  0
   56.5170   29.9800   44.5810 C   0  0  0  0  0  0  0  0  0  0  0  0
   55.6536   29.6743   43.9718 H   0  0  0  0  0  0  0  0  0  0  0  0
   57.0200   31.2800   44.4720 C   0  0  0  0  0  0  0  0  0  0  0  0
   56.5551   31.9878   43.7700 H   0  0  0  0  0  0  0  0  0  0  0  0
   58.1160   31.6900   45.2530 C   0  0  0  0  0  0  0  0  0  0  0  0
   58.6730   33.0970   45.1460 C   0  0  0  0  0  0  0  0  0  0  0  0
   59.3473   33.1244   44.2773 H   0  0  0  0  0  0  0  0  0  0  0  0
   57.5570   34.1190   44.9020 C   0  0  0  0  0  0  0  0  0  0  0  0
   57.1683   34.4750   45.8675 H   0  0  0  0  0  0  0  0  0  0  0  0
   57.9575   34.9701   44.3317 H   0  0  0  0  0  0  0  0  0  0  0  0
   56.7443   33.6454   44.3317 H   0  0  0  0  0  0  0  0  0  0  0  0
   59.4930   33.4620   46.3900 C   0  0  0  0  0  0  0  0  0  0  0  0
   58.9207   33.2072   47.2942 H   0  0  0  0  0  0  0  0  0  0  0  0
   60.4384   32.8997   46.3839 H   0  0  0  0  0  0  0  0  0  0  0  0
   59.7079   34.5408   46.3839 H   0  0  0  0  0  0  0  0  0  0  0  0
   58.6870   30.7740   46.1540 C   0  0  0  0  0  0  0  0  0  0  0  0
   59.5383   31.0819   46.7789 H   0  0  0  0  0  0  0  0  0  0  0  0
   58.1820   29.4760   46.2620 C   0  0  0  0  0  0  0  0  0  0  0  0
   58.6315   28.7737   46.9794 H   0  0  0  0  0  0  0  0  0  0  0  0
  1  2  1  0
  2  3  1  0
  3  4  2  0
  4  5  1  0
  4  6  1  0
  6  7  2  0
  6  8  1  0
  8  9  1  0
  9 10  2  0
 10 11  1  0
 10 12  1  0
 12 13  1  0
 12 14  2  0
 14 15  1  0
 15 16  1  0
 15 17  1  0
 17 18  1  0
 17 19  1  0
 17 20  1  0
 15 21  1  0
 21 22  1  0
 21 23  1  0
 21 24  1  0
 14 25  1  0
 25 26  1  0
 25 27  2  0
 27 28  1  0
 27  9  1  0
M  CHG  1   8  -1
M  END
>  <UniqueID>  (19) 
17

>  <SMILES>  (19) 
CC(C)c1ccc([N-]C(=O)/C=N/O)cc1

>  <Energy>  (19) 
23.822649005077174

>  <Genealogy>  (19) 
CC(C)c1ccc([N-]C(=O)C=NO)cc1 (protonated)
CC(C)c1ccc([N-]C(=O)/C=N/O)cc1 (cis-trans isomerization)
CC(C)c1ccc([N-]C(=O)/C=N/O)cc1 (3D coordinates assigned)
CC(C)c1ccc([N-]C(=O)/C=N/O)cc1 (optimized conformer: 23.822649005077174 kcal/mol)

>  <smiles>  (19) 
CC(C)c1ccc(NC(=O)C=NO)cc1

>  <score_type>  (19) 
oracle

>  <origin>  (19) 
adg

>  <m_score__min__energy>  (19) 
-8.7300000000000004

>  <m_primary>  (19) 
energy

$$$$
19:0
     RDKit          3D

 65 70  0  0  0  0  0  0  0  0999 V2000
   55.8368   28.8457   53.3396 H   0  0  0  0  0  0  0  0  0  0  0  0
   56.3170   29.6640   52.7830 C   0  0  0  0  0  0  0  0  0  0  0  0
   57.2580   29.3850   51.8410 N   0  0  0  0  0  0  0  0  0  0  0  0
   57.8890   30.3620   51.1240 C   0  0  0  0  0  0  0  0  0  0  0  0
   58.9020   29.9940   50.1570 N   0  0  0  0  0  0  0  0  0  0  0  0
   60.2770   29.7860   50.6690 C   0  0  0  0  0  0  0  0  0  0  0  0
   60.2659   28.9305   51.3604 H   0  0  0  0  0  0  0  0  0  0  0  0
   60.5829   30.7184   51.1661 H   0  0  0  0  0  0  0  0  0  0  0  0
   61.2940   29.5070   49.5730 C   0  0  0  0  0  0  0  0  0  0  0  0
   61.2512   28.4459   49.2864 H   0  0  0  0  0  0  0  0  0  0  0  0
   62.3096   29.7336   49.9297 H   0  0  0  0  0  0  0  0  0  0  0  0
   60.9650   30.3420   48.4250 N   0  0  0  0  0  0  0  0  0  0  0  0
   61.5250   31.6730   48.3440 C   0  0  0  0  0  0  0  0  0  0  0  0
   60.8330   32.6470   47.6760 N   0  0  0  0  0  0  0  0  0  0  0  0
   61.3470   33.8920   47.4530 C   0  0  0  0  0  0  0  0  0  0  0  0
   60.4570   35.0710   46.4380 S   0  0  0  0  0  0  0  0  0  0  0  0
   59.2390   33.8600   45.9020 C   0  0  0  0  0  0  0  0  0  0  0  0
   58.2940   33.3350   46.7980 C   0  0  0  0  0  0  0  0  0  0  0  0
   58.3293   33.6161   47.8609 H   0  0  0  0  0  0  0  0  0  0  0  0
   57.3090   32.4560   46.3410 C   0  0  0  0  0  0  0  0  0  0  0  0
   56.5454   32.0775   47.0365 H   0  0  0  0  0  0  0  0  0  0  0  0
   57.2920   32.0550   44.9960 C   0  0  0  0  0  0  0  0  0  0  0  0
   56.3150   31.1290   44.5110 N   0  0  0  0  0  0  0  0  0  0  0  0
   56.6810   29.8780   43.9240 C   0  0  0  0  0  0  0  0  0  0  0  0
   56.2420   29.5800   42.7850 O   0  0  0  0  0  0  0  0  0  0  0  0
   57.5570   28.9400   44.6640 C   0  0  0  0  0  0  0  0  0  0  0  0
   58.9510   28.9920   44.5260 C   0  0  0  0  0  0  0  0  0  0  0  0
   59.4135   29.7430   43.8687 H   0  0  0  0  0  0  0  0  0  0  0  0
   59.7490   28.0870   45.2260 C   0  0  0  0  0  0  0  0  0  0  0  0
   60.8426   28.1166   45.1115 H   0  0  0  0  0  0  0  0  0  0  0  0
   59.1780   27.1690   46.0490 N   0  0  0  0  0  0  0  0  0  0  0  0
   57.8310   27.0850   46.2240 C   0  0  0  0  0  0  0  0  0  0  0  0
   57.3670   26.1650   47.0240 N   0  0  0  0  0  0  0  0  0  0  0  0
   56.2970   25.2390   46.7750 C   0  0  0  0  0  0  0  0  0  0  0  0
   55.2530   25.6400   46.1900 O   0  0  0  0  0  0  0  0  0  0  0  0
   56.4350   23.8490   47.0840 N   0  0  0  0  0  0  0  0  0  0  0  0
   55.6360   23.1950   46.9260 H   0  0  0  0  0  0  0  0  0  0  0  0
   57.3500   23.4500   47.3720 H   0  0  0  0  0  0  0  0  0  0  0  0
   56.9940   27.9640   45.5080 C   0  0  0  0  0  0  0  0  0  0  0  0
   55.9013   27.8876   45.6085 H   0  0  0  0  0  0  0  0  0  0  0  0
   58.2580   32.5520   44.1140 C   0  0  0  0  0  0  0  0  0  0  0  0
   58.2669   32.2176   43.0661 H   0  0  0  0  0  0  0  0  0  0  0  0
   59.2110   33.4710   44.5590 C   0  0  0  0  0  0  0  0  0  0  0  0
   59.9415   33.8899   43.8512 H   0  0  0  0  0  0  0  0  0  0  0  0
   62.6240   34.2080   47.9330 C   0  0  0  0  0  0  0  0  0  0  0  0
   63.0664   35.2012   47.7661 H   0  0  0  0  0  0  0  0  0  0  0  0
   63.2940   33.2460   48.6100 N   0  0  0  0  0  0  0  0  0  0  0  0
   64.5250   33.2740   49.1440 C   0  0  0  0  0  0  0  0  0  0  0  0
   65.2119   34.1329   49.1649 H   0  0  0  0  0  0  0  0  0  0  0  0
   64.7630   32.0140   49.6630 C   0  0  0  0  0  0  0  0  0  0  0  0
   65.6884   31.7071   50.1723 H   0  0  0  0  0  0  0  0  0  0  0  0
   63.6910   31.2130   49.4530 N   0  0  0  0  0  0  0  0  0  0  0  0
   62.8090   32.0110   48.8150 C   0  0  0  0  0  0  0  0  0  0  0  0
   59.7400   29.9270   47.7480 C   0  0  0  0  0  0  0  0  0  0  0  0
   59.8583   28.8951   47.3857 H   0  0  0  0  0  0  0  0  0  0  0  0
   59.5526   30.6061   46.9032 H   0  0  0  0  0  0  0  0  0  0  0  0
   58.5410   29.9910   48.7150 C   0  0  0  0  0  0  0  0  0  0  0  0
   57.9008   29.1170   48.5244 H   0  0  0  0  0  0  0  0  0  0  0  0
   58.0371   30.9492   48.5202 H   0  0  0  0  0  0  0  0  0  0  0  0
   57.5410   31.7070   51.3600 C   0  0  0  0  0  0  0  0  0  0  0  0
   58.0278   32.5121   50.7901 H   0  0  0  0  0  0  0  0  0  0  0  0
   56.5740   32.0130   52.3220 C   0  0  0  0  0  0  0  0  0  0  0  0
   56.2973   33.0610   52.5095 H   0  0  0  0  0  0  0  0  0  0  0  0
   55.9600   30.9900   53.0440 C   0  0  0  0  0  0  0  0  0  0  0  0
   55.2047   31.2235   53.8088 H   0  0  0  0  0  0  0  0  0  0  0  0
  1  2  1  0
  2  3  2  0
  3  4  1  0
  4  5  1  0
  5  6  1  0
  6  7  1  0
  6  8  1  0
  6  9  1  0
  9 10  1  0
  9 11  1  0
  9 12  1  0
 12 13  1  0
 13 14  2  0
 14 15  1  0
 15 16  1  0
 16 17  1  0
 17 18  2  0
 18 19  1  0
 18 20  1  0
 20 21  1  0
 20 22  2  0
 22 23  1  0
 23 24  1  0
 24 25  2  0
 24 26  1  0
 26 27  1  0
 27 28  1  0
 27 29  2  0
 29 30  1  0
 29 31  1  0
 31 32  1  0
 32 33  2  0
 33 34  1  0
 34 35  2  0
 34 36  1  0
 36 37  1  0
 36 38  1  0
 32 39  1  0
 39 40  1  0
 22 41  1  0
 41 42  1  0
 41 43  2  0
 43 44  1  0
 15 45  2  0
 45 46  1  0
 45 47  1  0
 47 48  1  0
 48 49  1  0
 48 50  2  0
 50 51  1  0
 50 52  1  0
 52 53  2  0
 12 54  1  0
 54 55  1  0
 54 56  1  0
 54 57  1  0
 57 58  1  0
 57 59  1  0
  4 60  2  0
 60 61  1  0
 60 62  1  0
 62 63  1  0
 62 64  2  0
 64 65  1  0
 64  2  1  0
 57  5  1  0
 53 13  1  0
 43 17  1  0
 53 47  1  0
 39 26  2  0
M  CHG  2  23  -1  31  -1
M  END
>  <UniqueID>  (20) 
18

>  <SMILES>  (20) 
NC(=O)/N=c1\cc(C(=O)[N-]c2ccc(Sc3cn4ccnc4c(N4CCN(c5ccccn5)CC4)n3)cc2)cc[n-]1

>  <Energy>  (20) 
134.88153881609537

>  <Genealogy>  (20) 
NC(=O)N=c1cc(C(=O)[N-]c2ccc(Sc3cn4ccnc4c(N4CCN(c5ccccn5)CC4)n3)cc2)cc[n-]1 (protonated)
NC(=O)/N=c1\cc(C(=O)[N-]c2ccc(Sc3cn4ccnc4c(N4CCN(c5ccccn5)CC4)n3)cc2)cc[n-]1 (cis-trans isomerization)
NC(=O)/N=c1\cc(C(=O)[N-]c2ccc(Sc3cn4ccnc4c(N4CCN(c5ccccn5)CC4)n3)cc2)cc[n-]1 (3D coordinates assigned)
NC(=O)/N=c1\cc(C(=O)[N-]c2ccc(Sc3cn4ccnc4c(N4CCN(c5ccccn5)CC4)n3)cc2)cc[n-]1 (nonaromatic ring conformer: 134.88153881609537 kcal/mol)

>  <smiles>  (20) 
NC(=O)N=c1cc(C(=O)Nc2ccc(Sc3cn4ccnc4c(N4CCN(c5ccccn5)CC4)n3)cc2)cc[nH]1

>  <score_type>  (20) 
oracle

>  <origin>  (20) 
adg

>  <m_score__min__energy>  (20) 
-13.460000000000001

>  <m_primary>  (20) 
energy

$$$$
20:0
     RDKit          3D

 44 48  0  0  0  0  0  0  0  0999 V2000
   66.6609   33.7844   49.6140 H   0  0  0  0  0  0  0  0  0  0  0  0
   65.7990   33.1130   49.7420 C   0  0  0  0  0  0  0  0  0  0  0  0
   64.7090   33.1330   49.0080 O   0  0  0  0  0  0  0  0  0  0  0  0
   63.8980   32.1970   49.4430 C   0  0  0  0  0  0  0  0  0  0  0  0
   62.5780   31.9220   48.8620 C   0  0  0  0  0  0  0  0  0  0  0  0
   61.9040   30.7570   49.0470 N   0  0  0  0  0  0  0  0  0  0  0  0
   60.7790   30.9090   48.3700 N   0  0  0  0  0  0  0  0  0  0  0  0
   59.7470   30.0190   48.2290 C   0  0  0  0  0  0  0  0  0  0  0  0
   59.8100   28.8540   48.8100 N   0  0  0  0  0  0  0  0  0  0  0  0
   59.7940   27.5640   48.1720 C   0  0  0  0  0  0  0  0  0  0  0  0
   60.4810   26.6120   48.6350 O   0  0  0  0  0  0  0  0  0  0  0  0
   58.9640   27.3520   46.9620 C   0  0  0  0  0  0  0  0  0  0  0  0
   59.4900   27.6050   45.6830 C   0  0  0  0  0  0  0  0  0  0  0  0
   60.5251   27.9625   45.5794 H   0  0  0  0  0  0  0  0  0  0  0  0
   58.7090   27.4060   44.5440 C   0  0  0  0  0  0  0  0  0  0  0  0
   59.1309   27.6067   43.5481 H   0  0  0  0  0  0  0  0  0  0  0  0
   57.3940   26.9530   44.6640 C   0  0  0  0  0  0  0  0  0  0  0  0
   56.7847   26.7987   43.7613 H   0  0  0  0  0  0  0  0  0  0  0  0
   56.8460   26.6940   45.9250 C   0  0  0  0  0  0  0  0  0  0  0  0
   55.5190   26.2410   45.9930 O   0  0  0  0  0  0  0  0  0  0  0  0
   55.0920   24.9380   45.6160 C   0  0  0  0  0  0  0  0  0  0  0  0
   54.8963   24.3408   46.5188 H   0  0  0  0  0  0  0  0  0  0  0  0
   54.1712   25.0124   45.0188 H   0  0  0  0  0  0  0  0  0  0  0  0
   55.8782   24.4530   45.0188 H   0  0  0  0  0  0  0  0  0  0  0  0
   57.6350   26.8950   47.0740 C   0  0  0  0  0  0  0  0  0  0  0  0
   57.2103   26.6935   48.0685 H   0  0  0  0  0  0  0  0  0  0  0  0
   58.6630   30.3880   47.4660 N   0  0  0  0  0  0  0  0  0  0  0  0
   58.6630   31.6240   46.8880 C   0  0  0  0  0  0  0  0  0  0  0  0
   57.7040   32.1470   46.1060 N   0  0  0  0  0  0  0  0  0  0  0  0
   58.1320   33.3630   45.7730 N   0  0  0  0  0  0  0  0  0  0  0  0
   57.4090   34.2530   44.8740 C   0  0  0  0  0  0  0  0  0  0  0  0
   56.8236   34.9736   45.4639 H   0  0  0  0  0  0  0  0  0  0  0  0
   58.1259   34.7949   44.2397 H   0  0  0  0  0  0  0  0  0  0  0  0
   56.7317   33.6623   44.2397 H   0  0  0  0  0  0  0  0  0  0  0  0
   59.3520   33.6170   46.3100 C   0  0  0  0  0  0  0  0  0  0  0  0
   59.9467   34.5343   46.1883 H   0  0  0  0  0  0  0  0  0  0  0  0
   59.6980   32.5040   47.0350 C   0  0  0  0  0  0  0  0  0  0  0  0
   60.7800   32.1210   47.8000 C   0  0  0  0  0  0  0  0  0  0  0  0
   61.9010   32.8010   48.0820 N   0  0  0  0  0  0  0  0  0  0  0  0
   62.1780   33.7610   47.7780 H   0  0  0  0  0  0  0  0  0  0  0  0
   64.4700   31.5290   50.5060 C   0  0  0  0  0  0  0  0  0  0  0  0
   64.0364   30.6971   51.0804 H   0  0  0  0  0  0  0  0  0  0  0  0
   65.6990   32.1230   50.6970 C   0  0  0  0  0  0  0  0  0  0  0  0
   66.4489   31.8604   51.4577 H   0  0  0  0  0  0  0  0  0  0  0  0
  1  2  1  0
  2  3  1  0
  3  4  1  0
  4  5  1  0
  5  6  2  0
  6  7  1  0
  7  8  1  0
  8  9  2  0
  9 10  1  0
 10 11  2  0
 10 12  1  0
 12 13  2  0
 13 14  1  0
 13 15  1  0
 15 16  1  0
 15 17  2  0
 17 18  1  0
 17 19  1  0
 19 20  1  0
 20 21  1  0
 21 22  1  0
 21 23  1  0
 21 24  1  0
 19 25  2  0
 25 26  1  0
  8 27  1  0
 27 28  1  0
 28 29  2  0
 29 30  1  0
 30 31  1  0
 31 32  1  0
 31 33  1  0
 31 34  1  0
 30 35  1  0
 35 36  1  0
 35 37  2  0
 37 38  1  0
 38 39  2  0
 39 40  1  0
  4 41  2  0
 41 42  1  0
 41 43  1  0
 43 44  1  0
 43  2  2  0
 39  5  1  0
 38  7  1  0
 25 12  1  0
 37 28  1  0
M  CHG  2  27  -1  39   1
M  END
>  <UniqueID>  (21) 
19

>  <SMILES>  (21) 
COc1cccc(C(=O)/N=c2\[n-]c3nn(C)cc3c3[nH+]c(-c4ccco4)nn23)c1

>  <Energy>  (21) 
160.21403727419033

>  <Genealogy>  (21) 
COc1cccc(C(=O)N=c2[n-]c3nn(C)cc3c3[nH+]c(-c4ccco4)nn23)c1 (protonated)
COc1cccc(C(=O)/N=c2\[n-]c3nn(C)cc3c3[nH+]c(-c4ccco4)nn23)c1 (cis-trans isomerization)
COc1cccc(C(=O)/N=c2\[n-]c3nn(C)cc3c3[nH+]c(-c4ccco4)nn23)c1 (3D coordinates assigned)
COc1cccc(C(=O)/N=c2\[n-]c3nn(C)cc3c3[nH+]c(-c4ccco4)nn23)c1 (optimized conformer: 160.21403727419033 kcal/mol)

>  <smiles>  (21) 
COc1cccc(C(=O)N=c2[nH]c3nn(C)cc3c3nc(-c4ccco4)nn23)c1

>  <score_type>  (21) 
oracle

>  <origin>  (21) 
adg

>  <m_score__min__energy>  (21) 
-7.6200000000000001

>  <m_primary>  (21) 
energy

$$$$
21:0
     RDKit          3D

 24 25  0  0  0  0  0  0  0  0999 V2000
   56.6150   30.1150   42.6740 S   0  0  0  0  0  0  0  0  0  0  0  0
   56.7940   30.8360   44.1030 C   0  0  0  0  0  0  0  0  0  0  0  0
   56.9360   31.4050   45.2340 N   0  0  0  0  0  0  0  0  0  0  0  0
   57.8520   32.4850   45.4820 C   0  0  0  0  0  0  0  0  0  0  0  0
   57.9770   33.5720   44.5900 C   0  0  0  0  0  0  0  0  0  0  0  0
   58.8710   34.6100   44.8620 C   0  0  0  0  0  0  0  0  0  0  0  0
   59.6470   34.5810   46.0210 C   0  0  0  0  0  0  0  0  0  0  0  0
   59.5330   33.5110   46.9120 C   0  0  0  0  0  0  0  0  0  0  0  0
   58.6430   32.4610   46.6460 C   0  0  0  0  0  0  0  0  0  0  0  0
   58.5310   31.0990   47.8120 S   0  0  0  0  0  0  0  0  0  0  0  0
   58.9730   29.8810   46.5750 C   0  0  0  0  0  0  0  0  0  0  0  0
   60.2210   29.9310   45.9470 C   0  0  0  0  0  0  0  0  0  0  0  0
   60.5430   28.9660   44.9910 C   0  0  0  0  0  0  0  0  0  0  0  0
   59.6190   27.9690   44.6720 C   0  0  0  0  0  0  0  0  0  0  0  0
   58.3800   27.9540   45.3180 C   0  0  0  0  0  0  0  0  0  0  0  0
   58.0850   28.9030   46.2470 N   0  0  0  0  0  0  0  0  0  0  0  0
   57.3667   33.6017   43.6753 H   0  0  0  0  0  0  0  0  0  0  0  0
   58.9635   35.4524   44.1607 H   0  0  0  0  0  0  0  0  0  0  0  0
   60.3489   35.4009   46.2334 H   0  0  0  0  0  0  0  0  0  0  0  0
   60.1443   33.4923   47.8263 H   0  0  0  0  0  0  0  0  0  0  0  0
   60.9412   30.7219   46.2033 H   0  0  0  0  0  0  0  0  0  0  0  0
   61.5221   28.9910   44.4903 H   0  0  0  0  0  0  0  0  0  0  0  0
   59.8637   27.2039   43.9205 H   0  0  0  0  0  0  0  0  0  0  0  0
   57.6429   27.1745   45.0752 H   0  0  0  0  0  0  0  0  0  0  0  0
  1  2  2  0
  2  3  2  0
  3  4  1  0
  4  5  2  0
  5  6  1  0
  6  7  2  0
  7  8  1  0
  8  9  2  0
  9 10  1  0
 10 11  1  0
 11 12  2  0
 12 13  1  0
 13 14  2  0
 14 15  1  0
 15 16  2  0
  9  4  1  0
 16 11  1  0
  5 17  1  0
  6 18  1  0
  7 19  1  0
  8 20  1  0
 12 21  1  0
 13 22  1  0
 14 23  1  0
 15 24  1  0
M  END
>  <UniqueID>  (22) 
20

>  <SMILES>  (22) 
S=C=Nc1ccccc1Sc1ccccn1

>  <Energy>  (22) 
22.491402211871186

>  <Genealogy>  (22) 
S=C=Nc1ccccc1Sc1ccccn1 (3D coordinates assigned)
S=C=Nc1ccccc1Sc1ccccn1 (optimized conformer: 22.491402211871186 kcal/mol)

>  <smiles>  (22) 
S=C=Nc1ccccc1Sc1ccccn1

>  <score_type>  (22) 
oracle

>  <origin>  (22) 
adg

>  <m_score__min__energy>  (22) 
-6.1900000000000004

>  <m_primary>  (22) 
energy

$$$$
22:0
     RDKit          3D

 49 52  0  0  0  0  0  0  0  0999 V2000
   60.2601   22.5913   45.5487 H   0  0  0  0  0  0  0  0  0  0  0  0
   59.2770   22.9690   45.2310 C   0  0  0  0  0  0  0  0  0  0  0  0
   58.4360   22.1550   44.4660 C   0  0  0  0  0  0  0  0  0  0  0  0
   58.7559   21.1367   44.2003 H   0  0  0  0  0  0  0  0  0  0  0  0
   57.1850   22.6280   44.0340 C   0  0  0  0  0  0  0  0  0  0  0  0
   56.3220   21.7870   43.2470 N   0  0  0  0  0  0  0  0  0  0  0  0
   56.2570   20.5580   43.4660 O   0  0  0  0  0  0  0  0  0  0  0  0
   55.5570   22.3200   42.2360 O   0  0  0  0  0  0  0  0  0  0  0  0
   56.8000   23.9370   44.3730 C   0  0  0  0  0  0  0  0  0  0  0  0
   55.8282   24.3248   44.0336 H   0  0  0  0  0  0  0  0  0  0  0  0
   57.6420   24.7500   45.1380 C   0  0  0  0  0  0  0  0  0  0  0  0
   57.3359   25.7777   45.3830 H   0  0  0  0  0  0  0  0  0  0  0  0
   58.8790   24.2600   45.5960 C   0  0  0  0  0  0  0  0  0  0  0  0
   59.7860   25.0720   46.3610 N   0  0  0  0  0  0  0  0  0  0  0  0
   59.6210   26.3170   46.7010 C   0  0  0  0  0  0  0  0  0  0  0  0
   58.9370   27.1810   45.9060 N   0  0  0  0  0  0  0  0  0  0  0  0
   58.7510   28.4720   46.2840 C   0  0  0  0  0  0  0  0  0  0  0  0
   58.0360   29.3910   45.4310 N   0  0  0  0  0  0  0  0  0  0  0  0
   57.6360   29.0020   44.0700 C   0  0  0  0  0  0  0  0  0  0  0  0
   58.3889   29.3707   43.3578 H   0  0  0  0  0  0  0  0  0  0  0  0
   57.5638   27.9050   44.0336 H   0  0  0  0  0  0  0  0  0  0  0  0
   56.2580   29.5890   43.6910 C   0  0  0  0  0  0  0  0  0  0  0  0
   56.2554   29.7884   42.6092 H   0  0  0  0  0  0  0  0  0  0  0  0
   55.5071   28.8441   43.9933 H   0  0  0  0  0  0  0  0  0  0  0  0
   55.9120   30.8410   44.3910 N   0  0  0  0  0  0  0  0  0  0  0  0
   55.3410   30.6100   45.2370 H   0  0  0  0  0  0  0  0  0  0  0  0
   57.0960   31.5950   44.8190 C   0  0  0  0  0  0  0  0  0  0  0  0
   57.7354   31.7945   43.9465 H   0  0  0  0  0  0  0  0  0  0  0  0
   56.7742   32.5444   45.2718 H   0  0  0  0  0  0  0  0  0  0  0  0
   57.8870   30.7890   45.8530 C   0  0  0  0  0  0  0  0  0  0  0  0
   58.8847   31.2370   45.9712 H   0  0  0  0  0  0  0  0  0  0  0  0
   57.3388   30.8099   46.8064 H   0  0  0  0  0  0  0  0  0  0  0  0
   59.2500   28.8920   47.4760 N   0  0  0  0  0  0  0  0  0  0  0  0
   59.9270   28.0370   48.2880 C   0  0  0  0  0  0  0  0  0  0  0  0
   60.4480   28.4920   49.5550 N   0  0  0  0  0  0  0  0  0  0  0  0
   60.2200   29.8800   49.9810 C   0  0  0  0  0  0  0  0  0  0  0  0
   60.2833   30.5423   49.1050 H   0  0  0  0  0  0  0  0  0  0  0  0
   59.2229   29.9514   50.4399 H   0  0  0  0  0  0  0  0  0  0  0  0
   61.2710   30.3060   51.0120 C   0  0  0  0  0  0  0  0  0  0  0  0
   62.2496   30.3881   50.5164 H   0  0  0  0  0  0  0  0  0  0  0  0
   60.9741   31.2760   51.4374 H   0  0  0  0  0  0  0  0  0  0  0  0
   61.3600   29.3610   52.0590 O   0  0  0  0  0  0  0  0  0  0  0  0
   61.8570   28.1400   51.5490 C   0  0  0  0  0  0  0  0  0  0  0  0
   62.8067   28.3276   51.0267 H   0  0  0  0  0  0  0  0  0  0  0  0
   62.0110   27.4451   52.3877 H   0  0  0  0  0  0  0  0  0  0  0  0
   60.8610   27.5120   50.5690 C   0  0  0  0  0  0  0  0  0  0  0  0
   61.3358   26.6540   50.0707 H   0  0  0  0  0  0  0  0  0  0  0  0
   59.9725   27.1826   51.1276 H   0  0  0  0  0  0  0  0  0  0  0  0
   60.1050   26.7480   47.8930 N   0  0  0  0  0  0  0  0  0  0  0  0
  1  2  1  0
  2  3  2  0
  3  4  1  0
  3  5  1  0
  5  6  1  0
  6  7  2  0
  6  8  1  0
  5  9  2  0
  9 10  1  0
  9 11  1  0
 11 12  1  0
 11 13  2  0
 13 14  1  0
 14 15  2  0
 15 16  1  0
 16 17  2  0
 17 18  1  0
 18 19  1  0
 19 20  1  0
 19 21  1  0
 19 22  1  0
 22 23  1  0
 22 24  1  0
 22 25  1  0
 25 26  1  0
 25 27  1  0
 27 28  1  0
 27 29  1  0
 27 30  1  0
 30 31  1  0
 30 32  1  0
 17 33  1  0
 33 34  2  0
 34 35  1  0
 35 36  1  0
 36 37  1  0
 36 38  1  0
 36 39  1  0
 39 40  1  0
 39 41  1  0
 39 42  1  0
 42 43  1  0
 43 44  1  0
 43 45  1  0
 43 46  1  0
 46 47  1  0
 46 48  1  0
 34 49  1  0
 13  2  1  0
 49 15  1  0
 30 18  1  0
 46 35  1  0
M  CHG  3   6   1   8  -1  49  -1
M  END
>  <UniqueID>  (23) 
21

>  <SMILES>  (23) 
O=[N+]([O-])c1ccc(/N=c2\nc(N3CCNCC3)nc(N3CCOCC3)[n-]2)cc1

>  <Energy>  (23) 
64.6857565627872

>  <Genealogy>  (23) 
O=[N+]([O-])c1ccc(N=c2nc(N3CCNCC3)nc(N3CCOCC3)[n-]2)cc1 (protonated)
O=[N+]([O-])c1ccc(/N=c2\nc(N3CCNCC3)nc(N3CCOCC3)[n-]2)cc1 (cis-trans isomerization)
O=[N+]([O-])c1ccc(/N=c2\nc(N3CCNCC3)nc(N3CCOCC3)[n-]2)cc1 (3D coordinates assigned)
O=[N+]([O-])c1ccc(/N=c2\nc(N3CCNCC3)nc(N3CCOCC3)[n-]2)cc1 (nonaromatic ring conformer: 64.6857565627872 kcal/mol)

>  <smiles>  (23) 
O=[N+]([O-])c1ccc(N=c2nc(N3CCNCC3)nc(N3CCOCC3)[nH]2)cc1

>  <score_type>  (23) 
oracle

>  <origin>  (23) 
adg

>  <m_score__min__energy>  (23) 
-8.5199999999999996

>  <m_primary>  (23) 
energy

$$$$
23:0
     RDKit          3D

 56 59  0  0  0  0  0  0  0  0999 V2000
   57.3210   31.5970   41.9640 C   0  0  0  0  0  0  0  0  0  0  0  0
   58.0170   32.4430   43.0290 C   0  0  0  0  0  0  0  0  0  0  0  0
   57.9080   31.8080   44.3530 N   0  0  0  0  0  0  0  0  0  0  0  0
   57.0110   30.6960   44.5150 C   0  0  0  0  0  0  0  0  0  0  0  0
   55.7690   30.8920   44.4260 O   0  0  0  0  0  0  0  0  0  0  0  0
   57.5190   29.3350   44.8070 C   0  0  0  0  0  0  0  0  0  0  0  0
   57.7890   28.9470   46.1300 C   0  0  0  0  0  0  0  0  0  0  0  0
   58.2820   27.6670   46.4060 C   0  0  0  0  0  0  0  0  0  0  0  0
   58.5310   26.7640   45.3630 C   0  0  0  0  0  0  0  0  0  0  0  0
   59.0220   25.3780   45.6610 C   0  0  0  0  0  0  0  0  0  0  0  0
   58.2570   27.1450   44.0420 C   0  0  0  0  0  0  0  0  0  0  0  0
   57.7650   28.4230   43.7650 C   0  0  0  0  0  0  0  0  0  0  0  0
   58.5770   32.3500   45.5160 C   0  0  0  0  0  0  0  0  0  0  0  0
   58.3370   33.6670   45.9470 C   0  0  0  0  0  0  0  0  0  0  0  0
   58.9970   34.1590   47.0720 C   0  0  0  0  0  0  0  0  0  0  0  0
   59.9080   33.3520   47.7660 C   0  0  0  0  0  0  0  0  0  0  0  0
   60.6080   33.8680   48.9640 C   0  0  0  0  0  0  0  0  0  0  0  0
   59.9540   34.0490   50.0280 O   0  0  0  0  0  0  0  0  0  0  0  0
   62.0160   34.1730   48.9420 N   0  0  0  0  0  0  0  0  0  0  0  0
   62.8380   33.8160   47.7860 C   0  0  0  0  0  0  0  0  0  0  0  0
   63.7720   32.6710   48.1710 C   0  0  0  0  0  0  0  0  0  0  0  0
   64.4840   32.9510   49.4730 C   0  0  0  0  0  0  0  0  0  0  0  0
   65.6550   32.2370   49.7770 C   0  0  0  0  0  0  0  0  0  0  0  0
   66.3050   32.4310   50.9970 C   0  0  0  0  0  0  0  0  0  0  0  0
   65.7900   33.3320   51.9300 C   0  0  0  0  0  0  0  0  0  0  0  0
   64.6200   34.0410   51.6470 C   0  0  0  0  0  0  0  0  0  0  0  0
   63.9490   33.8500   50.4290 C   0  0  0  0  0  0  0  0  0  0  0  0
   62.7070   34.6600   50.1430 C   0  0  0  0  0  0  0  0  0  0  0  0
   60.1130   32.0400   47.3150 C   0  0  0  0  0  0  0  0  0  0  0  0
   59.4580   31.5740   46.2170 N   0  0  0  0  0  0  0  0  0  0  0  0
   56.6947   30.8357   42.4520 H   0  0  0  0  0  0  0  0  0  0  0  0
   56.6900   32.2437   41.3366 H   0  0  0  0  0  0  0  0  0  0  0  0
   58.0772   31.1025   41.3366 H   0  0  0  0  0  0  0  0  0  0  0  0
   59.0799   32.5505   42.7667 H   0  0  0  0  0  0  0  0  0  0  0  0
   57.5316   33.4293   43.0693 H   0  0  0  0  0  0  0  0  0  0  0  0
   57.6117   29.6539   46.9539 H   0  0  0  0  0  0  0  0  0  0  0  0
   58.4752   27.3677   47.4467 H   0  0  0  0  0  0  0  0  0  0  0  0
   59.0732   25.2334   46.7503 H   0  0  0  0  0  0  0  0  0  0  0  0
   58.3298   24.6423   45.2256 H   0  0  0  0  0  0  0  0  0  0  0  0
   60.0230   25.2421   45.2256 H   0  0  0  0  0  0  0  0  0  0  0  0
   58.4301   26.4348   43.2201 H   0  0  0  0  0  0  0  0  0  0  0  0
   57.5685   28.7182   42.7237 H   0  0  0  0  0  0  0  0  0  0  0  0
   57.6306   34.3070   45.3980 H   0  0  0  0  0  0  0  0  0  0  0  0
   58.8017   35.1853   47.4163 H   0  0  0  0  0  0  0  0  0  0  0  0
   62.1890   33.4988   46.9565 H   0  0  0  0  0  0  0  0  0  0  0  0
   63.4306   34.6871   47.4697 H   0  0  0  0  0  0  0  0  0  0  0  0
   63.1818   31.7489   48.2775 H   0  0  0  0  0  0  0  0  0  0  0  0
   64.5290   32.5626   47.3803 H   0  0  0  0  0  0  0  0  0  0  0  0
   66.0624   31.5203   49.0488 H   0  0  0  0  0  0  0  0  0  0  0  0
   67.2252   31.8724   51.2235 H   0  0  0  0  0  0  0  0  0  0  0  0
   66.3060   33.4841   52.8895 H   0  0  0  0  0  0  0  0  0  0  0  0
   64.2218   34.7540   52.3839 H   0  0  0  0  0  0  0  0  0  0  0  0
   62.0253   34.5861   51.0031 H   0  0  0  0  0  0  0  0  0  0  0  0
   63.0061   35.7046   49.9714 H   0  0  0  0  0  0  0  0  0  0  0  0
   60.8099   31.3813   47.8540 H   0  0  0  0  0  0  0  0  0  0  0  0
   59.6560   30.5970   45.9070 H   0  0  0  0  0  0  0  0  0  0  0  0
  1  2  1  0
  2  3  1  0
  3  4  1  0
  4  5  2  0
  4  6  1  0
  6  7  2  0
  7  8  1  0
  8  9  2  0
  9 10  1  0
  9 11  1  0
 11 12  2  0
  3 13  1  0
 13 14  2  0
 14 15  1  0
 15 16  2  0
 16 17  1  0
 17 18  2  0
 17 19  1  0
 19 20  1  0
 20 21  1  0
 21 22  1  0
 22 23  2  0
 23 24  1  0
 24 25  2  0
 25 26  1  0
 26 27  2  0
 27 28  1  0
 16 29  1  0
 29 30  2  0
 12  6  1  0
 30 13  1  0
 28 19  1  0
 27 22  1  0
  1 31  1  0
  1 32  1  0
  1 33  1  0
  2 34  1  0
  2 35  1  0
  7 36  1  0
  8 37  1  0
 10 38  1  0
 10 39  1  0
 10 40  1  0
 11 41  1  0
 12 42  1  0
 14 43  1  0
 15 44  1  0
 20 45  1  0
 20 46  1  0
 21 47  1  0
 21 48  1  0
 23 49  1  0
 24 50  1  0
 25 51  1  0
 26 52  1  0
 28 53  1  0
 28 54  1  0
 29 55  1  0
 30 56  1  0
M  CHG  1  30   1
M  END
>  <UniqueID>  (24) 
22

>  <SMILES>  (24) 
CCN(C(=O)c1ccc(C)cc1)c1ccc(C(=O)N2CCc3ccccc3C2)c[nH+]1

>  <Energy>  (24) 
72.94863536176751

>  <Genealogy>  (24) 
CCN(C(=O)c1ccc(C)cc1)c1ccc(C(=O)N2CCc3ccccc3C2)c[nH+]1 (protonated)
CCN(C(=O)c1ccc(C)cc1)c1ccc(C(=O)N2CCc3ccccc3C2)c[nH+]1 (3D coordinates assigned)
CCN(C(=O)c1ccc(C)cc1)c1ccc(C(=O)N2CCc3ccccc3C2)c[nH+]1 (nonaromatic ring conformer: 72.94863536176751 kcal/mol)

>  <smiles>  (24) 
CCN(C(=O)c1ccc(C)cc1)c1ccc(C(=O)N2CCc3ccccc3C2)cn1

>  <score_type>  (24) 
oracle

>  <origin>  (24) 
adg

>  <m_score__min__energy>  (24) 
-7.9500000000000002

>  <m_primary>  (24) 
energy

$$$$
24:0
     RDKit          3D

 27 28  0  0  0  0  0  0  0  0999 V2000
   57.7600   32.3330   41.2610 C   0  0  0  0  0  0  0  0  0  0  0  0
   57.4920   31.9000   42.6660 C   0  0  0  0  0  0  0  0  0  0  0  0
   56.6440   30.8200   42.9270 C   0  0  0  0  0  0  0  0  0  0  0  0
   56.4250   30.4530   44.2550 C   0  0  0  0  0  0  0  0  0  0  0  0
   55.6670   29.4850   44.5270 O   0  0  0  0  0  0  0  0  0  0  0  0
   57.0310   31.1400   45.2560 N   0  0  0  0  0  0  0  0  0  0  0  0
   57.8560   32.1900   44.9940 C   0  0  0  0  0  0  0  0  0  0  0  0
   58.4830   32.8980   46.0810 N   0  0  0  0  0  0  0  0  0  0  0  0
   58.5560   32.4200   47.3160 N   0  0  0  0  0  0  0  0  0  0  0  0
   59.1970   33.3150   48.0900 C   0  0  0  0  0  0  0  0  0  0  0  0
   59.4020   33.1630   49.5610 C   0  0  0  0  0  0  0  0  0  0  0  0
   59.5330   34.4190   47.3320 C   0  0  0  0  0  0  0  0  0  0  0  0
   59.0750   34.1200   46.0610 C   0  0  0  0  0  0  0  0  0  0  0  0
   59.2030   35.0240   44.8730 C   0  0  0  0  0  0  0  0  0  0  0  0
   58.0770   32.5580   43.7020 N   0  0  0  0  0  0  0  0  0  0  0  0
   58.3389   33.2683   41.2697 H   0  0  0  0  0  0  0  0  0  0  0  0
   58.3329   31.5520   40.7396 H   0  0  0  0  0  0  0  0  0  0  0  0
   56.8055   32.4974   40.7396 H   0  0  0  0  0  0  0  0  0  0  0  0
   56.1606   30.2723   42.1046 H   0  0  0  0  0  0  0  0  0  0  0  0
   58.1670   31.5040   47.6310 H   0  0  0  0  0  0  0  0  0  0  0  0
   58.6315   33.7343   50.0995 H   0  0  0  0  0  0  0  0  0  0  0  0
   59.3278   32.0999   49.8336 H   0  0  0  0  0  0  0  0  0  0  0  0
   60.3977   33.5428   49.8336 H   0  0  0  0  0  0  0  0  0  0  0  0
   60.0492   35.3318   47.6641 H   0  0  0  0  0  0  0  0  0  0  0  0
   59.3496   36.0594   45.2142 H   0  0  0  0  0  0  0  0  0  0  0  0
   60.0660   34.7122   44.2663 H   0  0  0  0  0  0  0  0  0  0  0  0
   58.2874   34.9640   44.2663 H   0  0  0  0  0  0  0  0  0  0  0  0
  1  2  1  0
  2  3  2  0
  3  4  1  0
  4  5  2  0
  4  6  1  0
  6  7  1  0
  7  8  1  0
  8  9  1  0
  9 10  2  0
 10 11  1  0
 10 12  1  0
 12 13  2  0
 13 14  1  0
  7 15  2  0
 15  2  1  0
 13  8  1  0
  1 16  1  0
  1 17  1  0
  1 18  1  0
  3 19  1  0
  9 20  1  0
 11 21  1  0
 11 22  1  0
 11 23  1  0
 12 24  1  0
 14 25  1  0
 14 26  1  0
 14 27  1  0
M  CHG  2   6  -1   9   1
M  END
>  <UniqueID>  (25) 
23

>  <SMILES>  (25) 
Cc1cc(=O)[n-]c(-n2[nH+]c(C)cc2C)n1

>  <Energy>  (25) 
56.80680455539361

>  <Genealogy>  (25) 
Cc1cc(=O)[n-]c(-n2[nH+]c(C)cc2C)n1 (protonated)
Cc1cc(=O)[n-]c(-n2[nH+]c(C)cc2C)n1 (3D coordinates assigned)
Cc1cc(=O)[n-]c(-n2[nH+]c(C)cc2C)n1 (optimized conformer: 56.80680455539361 kcal/mol)

>  <smiles>  (25) 
Cc1cc(=O)[nH]c(-n2nc(C)cc2C)n1

>  <score_type>  (25) 
oracle

>  <origin>  (25) 
adg

>  <m_score__min__energy>  (25) 
-6.5499999999999998

>  <m_primary>  (25) 
energy

$$$$
25:0
     RDKit          3D

 31 33  0  0  1  0  0  0  0  0999 V2000
   59.4650   35.0070   46.9810 C   0  0  0  0  0  0  0  0  0  0  0  0
   59.5170   35.1160   45.6020 C   0  0  0  0  0  0  0  0  0  0  0  0
   58.9260   34.1670   44.7890 C   0  0  0  0  0  0  0  0  0  0  0  0
   58.2620   33.0750   45.2990 C   0  0  0  0  0  0  0  0  0  0  0  0
   57.6280   32.0560   44.4740 C   0  0  0  0  0  0  0  0  0  0  0  0
   57.0630   31.0010   45.0690 N   0  0  0  0  0  0  0  0  0  0  0  0
   56.4780   30.0600   44.3080 C   0  0  0  0  0  0  0  0  0  0  0  0
   55.9300   29.0380   44.8750 N   0  0  0  0  0  0  0  0  0  0  0  0
   56.6490   27.8500   45.2840 C   0  0  0  0  0  0  0  0  0  0  0  0
   58.0770   28.2700   45.4540 C   0  0  0  0  0  0  0  0  0  0  0  0
   59.1000   28.1480   44.5400 C   0  0  0  0  0  0  0  0  0  0  0  0
   60.3130   28.5860   44.8860 C   0  0  0  0  0  0  0  0  0  0  0  0
   60.4560   29.1240   46.1150 C   0  0  0  0  0  0  0  0  0  0  0  0
   58.7770   29.0280   46.8870 S   0  0  0  0  0  0  0  0  0  0  0  0
   56.4370   30.1380   42.9330 C   0  0  0  0  0  0  0  0  0  0  0  0
   57.0140   31.2110   42.3670 N   0  0  0  0  0  0  0  0  0  0  0  0
   57.5870   32.1310   43.1400 N   0  0  0  0  0  0  0  0  0  0  0  0
   58.2170   32.9780   46.6850 C   0  0  0  0  0  0  0  0  0  0  0  0
   58.8010   33.9160   47.4950 C   0  0  0  0  0  0  0  0  0  0  0  0
   59.9325   35.7572   47.6357 H   0  0  0  0  0  0  0  0  0  0  0  0
   60.0369   35.9714   45.1459 H   0  0  0  0  0  0  0  0  0  0  0  0
   58.9886   34.2889   43.6976 H   0  0  0  0  0  0  0  0  0  0  0  0
   56.2472   27.4681   46.2341 H   0  0  0  0  0  0  0  0  0  0  0  0
   56.5515   27.0443   44.5415 H   0  0  0  0  0  0  0  0  0  0  0  0
   58.9224   27.7013   43.5506 H   0  0  0  0  0  0  0  0  0  0  0  0
   61.1648   28.5109   44.1941 H   0  0  0  0  0  0  0  0  0  0  0  0
   61.3742   29.5323   46.5624 H   0  0  0  0  0  0  0  0  0  0  0  0
   55.9540   29.3576   42.3266 H   0  0  0  0  0  0  0  0  0  0  0  0
   58.0160   32.9360   42.6260 H   0  0  0  0  0  0  0  0  0  0  0  0
   57.6978   32.1240   47.1444 H   0  0  0  0  0  0  0  0  0  0  0  0
   58.7376   33.7940   48.5864 H   0  0  0  0  0  0  0  0  0  0  0  0
  1  2  2  0
  2  3  1  0
  3  4  2  0
  4  5  1  0
  5  6  2  0
  6  7  1  0
  7  8  2  0
  8  9  1  0
  9 10  1  0
 10 11  2  0
 11 12  1  0
 12 13  2  0
 13 14  1  0
  7 15  1  0
 15 16  2  0
 16 17  1  0
  4 18  1  0
 18 19  2  0
 19  1  1  0
 17  5  1  0
 14 10  1  0
  1 20  1  0
  2 21  1  0
  3 22  1  0
  9 23  1  0
  9 24  1  0
 11 25  1  0
 12 26  1  0
 13 27  1  0
 15 28  1  0
 17 29  1  0
 18 30  1  0
 19 31  1  0
M  END
>  <smiles>  (26) 
c1ccc(-c2nc(=NCc3cccs3)cn[nH]2)cc1

>  <score_type>  (26) 
oracle

>  <origin>  (26) 
adg

>  <m_score__min__energy>  (26) 
-7.3399999999999999

>  <m_primary>  (26) 
energy

$$$$
26:0
     RDKit          3D

 27 28  0  0  0  0  0  0  0  0999 V2000
   54.7700   26.3370   45.6650 N   0  0  0  0  0  0  0  0  0  0  0  0
   55.6830   24.9540   46.1510 S   0  0  0  0  0  0  0  0  0  0  0  0
   54.7690   23.7650   46.2370 O   0  0  0  0  0  0  0  0  0  0  0  0
   56.2930   25.2140   47.5000 O   0  0  0  0  0  0  0  0  0  0  0  0
   56.9680   24.6450   44.9450 C   0  0  0  0  0  0  0  0  0  0  0  0
   58.3440   24.5200   45.5990 C   0  0  0  0  0  0  0  0  0  0  0  0
   59.0280   25.8070   45.5870 N   0  0  0  0  0  0  0  0  0  0  0  0
   58.8020   26.8150   46.5750 C   0  0  0  0  0  0  0  0  0  0  0  0
   59.0110   26.5690   47.7930 O   0  0  0  0  0  0  0  0  0  0  0  0
   58.3220   28.1410   46.1690 C   0  0  0  0  0  0  0  0  0  0  0  0
   57.1430   28.4130   45.4820 C   0  0  0  0  0  0  0  0  0  0  0  0
   56.9240   29.7300   45.2260 N   0  0  0  0  0  0  0  0  0  0  0  0
   57.9190   30.5110   45.7030 C   0  0  0  0  0  0  0  0  0  0  0  0
   57.9390   31.9710   45.5660 C   0  0  0  0  0  0  0  0  0  0  0  0
   58.0590   32.8170   46.6120 N   0  0  0  0  0  0  0  0  0  0  0  0
   58.0500   34.1180   46.2130 C   0  0  0  0  0  0  0  0  0  0  0  0
   57.9230   34.3150   44.8430 C   0  0  0  0  0  0  0  0  0  0  0  0
   57.8190   32.8040   44.1110 S   0  0  0  0  0  0  0  0  0  0  0  0
   59.1120   29.5990   46.4630 S   0  0  0  0  0  0  0  0  0  0  0  0
   54.8130   27.0240   46.4500 H   0  0  0  0  0  0  0  0  0  0  0  0
   56.7400   23.7090   44.4141 H   0  0  0  0  0  0  0  0  0  0  0  0
   56.9964   25.4975   44.2504 H   0  0  0  0  0  0  0  0  0  0  0  0
   58.2223   24.1833   46.6391 H   0  0  0  0  0  0  0  0  0  0  0  0
   58.9437   23.7906   45.0348 H   0  0  0  0  0  0  0  0  0  0  0  0
   56.4428   27.6240   45.1704 H   0  0  0  0  0  0  0  0  0  0  0  0
   58.1369   34.9533   46.9234 H   0  0  0  0  0  0  0  0  0  0  0  0
   57.8954   35.2869   44.3285 H   0  0  0  0  0  0  0  0  0  0  0  0
  1  2  1  0
  2  3  2  0
  2  4  2  0
  2  5  1  0
  5  6  1  0
  6  7  1  0
  7  8  1  0
  8  9  2  0
  8 10  1  0
 10 11  2  0
 11 12  1  0
 12 13  2  0
 13 14  1  0
 14 15  2  0
 15 16  1  0
 16 17  2  0
 17 18  1  0
 13 19  1  0
 19 10  1  0
 18 14  1  0
  1 20  1  0
  5 21  1  0
  5 22  1  0
  6 23  1  0
  6 24  1  0
 11 25  1  0
 16 26  1  0
 17 27  1  0
M  CHG  2   1  -1   7  -1
M  END
>  <UniqueID>  (27) 
24

>  <SMILES>  (27) 
[NH-]S(=O)(=O)CC[N-]C(=O)c1cnc(-c2nccs2)s1

>  <Energy>  (27) 
75.46160944769656

>  <Genealogy>  (27) 
[NH-]S(=O)(=O)CC[N-]C(=O)c1cnc(-c2nccs2)s1 (protonated)
[NH-]S(=O)(=O)CC[N-]C(=O)c1cnc(-c2nccs2)s1 (3D coordinates assigned)
[NH-]S(=O)(=O)CC[N-]C(=O)c1cnc(-c2nccs2)s1 (optimized conformer: 75.46160944769656 kcal/mol)

>  <smiles>  (27) 
NS(=O)(=O)CCNC(=O)c1cnc(-c2nccs2)s1

>  <score_type>  (27) 
oracle

>  <origin>  (27) 
adg

>  <m_score__min__energy>  (27) 
-11.01

>  <m_primary>  (27) 
energy

$$$$
27:0
     RDKit          3D

 30 31  0  0  0  0  0  0  0  0999 V2000
   65.1960   32.7300   49.7240 C   0  0  0  0  0  0  0  0  0  0  0  0
   63.9400   33.0540   48.9790 C   0  0  0  0  0  0  0  0  0  0  0  0
   62.7960   33.3040   49.6640 N   0  0  0  0  0  0  0  0  0  0  0  0
   61.6300   33.5840   49.0260 C   0  0  0  0  0  0  0  0  0  0  0  0
   60.2030   33.8410   50.0230 Cl  0  0  0  0  0  0  0  0  0  0  0  0
   61.5940   33.6130   47.6140 C   0  0  0  0  0  0  0  0  0  0  0  0
   60.3650   33.9190   46.8400 C   0  0  0  0  0  0  0  0  0  0  0  0
   60.3390   34.8900   46.0370 O   0  0  0  0  0  0  0  0  0  0  0  0
   59.2150   33.0740   46.9640 N   0  0  0  0  0  0  0  0  0  0  0  0
   58.6980   32.2570   45.9060 C   0  0  0  0  0  0  0  0  0  0  0  0
   59.0060   30.8920   45.9100 C   0  0  0  0  0  0  0  0  0  0  0  0
   58.5400   30.0560   44.8920 C   0  0  0  0  0  0  0  0  0  0  0  0
   58.9540   28.3510   44.8970 Cl  0  0  0  0  0  0  0  0  0  0  0  0
   57.7480   30.5790   43.8670 C   0  0  0  0  0  0  0  0  0  0  0  0
   57.4060   31.9330   43.8700 C   0  0  0  0  0  0  0  0  0  0  0  0
   57.8500   32.7810   44.8980 C   0  0  0  0  0  0  0  0  0  0  0  0
   57.4100   34.2200   44.8940 C   0  0  0  0  0  0  0  0  0  0  0  0
   62.7890   33.3280   46.9330 C   0  0  0  0  0  0  0  0  0  0  0  0
   63.9290   33.0550   47.6190 N   0  0  0  0  0  0  0  0  0  0  0  0
   65.0037   32.7796   50.8059 H   0  0  0  0  0  0  0  0  0  0  0  0
   65.5296   31.7164   49.4570 H   0  0  0  0  0  0  0  0  0  0  0  0
   65.9783   33.4557   49.4570 H   0  0  0  0  0  0  0  0  0  0  0  0
   59.6200   30.4737   46.7212 H   0  0  0  0  0  0  0  0  0  0  0  0
   57.3936   29.9242   43.0573 H   0  0  0  0  0  0  0  0  0  0  0  0
   56.7830   32.3393   43.0596 H   0  0  0  0  0  0  0  0  0  0  0  0
   57.3020   34.5733   45.9301 H   0  0  0  0  0  0  0  0  0  0  0  0
   58.1621   34.8319   44.3745 H   0  0  0  0  0  0  0  0  0  0  0  0
   56.4443   34.3067   44.3745 H   0  0  0  0  0  0  0  0  0  0  0  0
   62.8017   33.3259   45.8331 H   0  0  0  0  0  0  0  0  0  0  0  0
   64.8040   32.8480   47.0880 H   0  0  0  0  0  0  0  0  0  0  0  0
  1  2  1  0
  2  3  2  0
  3  4  1  0
  4  5  1  0
  4  6  2  0
  6  7  1  0
  7  8  2  0
  7  9  1  0
  9 10  1  0
 10 11  2  0
 11 12  1  0
 12 13  1  0
 12 14  2  0
 14 15  1  0
 15 16  2  0
 16 17  1  0
  6 18  1  0
 18 19  2  0
 19  2  1  0
 16 10  1  0
  1 20  1  0
  1 21  1  0
  1 22  1  0
 11 23  1  0
 14 24  1  0
 15 25  1  0
 17 26  1  0
 17 27  1  0
 17 28  1  0
 18 29  1  0
 19 30  1  0
M  CHG  2   9  -1  19   1
M  END
>  <UniqueID>  (28) 
25

>  <SMILES>  (28) 
Cc1nc(Cl)c(C(=O)[N-]c2cc(Cl)ccc2C)c[nH+]1

>  <Energy>  (28) 
39.96469555782097

>  <Genealogy>  (28) 
Cc1nc(Cl)c(C(=O)[N-]c2cc(Cl)ccc2C)c[nH+]1 (protonated)
Cc1nc(Cl)c(C(=O)[N-]c2cc(Cl)ccc2C)c[nH+]1 (3D coordinates assigned)
Cc1nc(Cl)c(C(=O)[N-]c2cc(Cl)ccc2C)c[nH+]1 (optimized conformer: 39.96469555782097 kcal/mol)

>  <smiles>  (28) 
Cc1ncc(C(=O)Nc2cc(Cl)ccc2C)c(Cl)n1

>  <score_type>  (28) 
oracle

>  <origin>  (28) 
adg

>  <m_score__min__energy>  (28) 
-7.0899999999999999

>  <m_primary>  (28) 
energy

$$$$
28:0
     RDKit          3D

 38 40  0  0  0  0  0  0  0  0999 V2000
   63.1220   33.7060   49.8320 C   0  0  0  0  0  0  0  0  0  0  0  0
   62.1490   33.9170   48.7110 C   0  0  0  0  0  0  0  0  0  0  0  0
   62.5070   33.5960   47.3940 C   0  0  0  0  0  0  0  0  0  0  0  0
   61.5890   33.7580   46.3530 C   0  0  0  0  0  0  0  0  0  0  0  0
   60.2930   34.2250   46.6190 C   0  0  0  0  0  0  0  0  0  0  0  0
   59.3140   34.4330   45.4980 C   0  0  0  0  0  0  0  0  0  0  0  0
   57.7750   33.5990   45.8560 S   0  0  0  0  0  0  0  0  0  0  0  0
   57.5530   33.5170   47.3400 O   0  0  0  0  0  0  0  0  0  0  0  0
   56.6510   34.3890   45.2450 O   0  0  0  0  0  0  0  0  0  0  0  0
   57.7690   31.9810   45.1570 C   0  0  0  0  0  0  0  0  0  0  0  0
   57.1140   31.6970   44.0130 N   0  0  0  0  0  0  0  0  0  0  0  0
   57.4300   30.4110   43.7570 C   0  0  0  0  0  0  0  0  0  0  0  0
   58.2770   29.9410   44.7350 C   0  0  0  0  0  0  0  0  0  0  0  0
   58.4810   30.9290   45.6220 N   0  0  0  0  0  0  0  0  0  0  0  0
   59.3250   30.8540   46.7790 C   0  0  0  0  0  0  0  0  0  0  0  0
   58.7990   31.0730   48.0620 C   0  0  0  0  0  0  0  0  0  0  0  0
   59.6310   31.0160   49.1840 C   0  0  0  0  0  0  0  0  0  0  0  0
   60.9910   30.7260   49.0330 C   0  0  0  0  0  0  0  0  0  0  0  0
   61.5170   30.4840   47.7600 C   0  0  0  0  0  0  0  0  0  0  0  0
   60.6860   30.5420   46.6360 C   0  0  0  0  0  0  0  0  0  0  0  0
   59.9320   34.5420   47.9390 C   0  0  0  0  0  0  0  0  0  0  0  0
   60.8510   34.3780   48.9790 C   0  0  0  0  0  0  0  0  0  0  0  0
   62.6022   33.8187   50.7948 H   0  0  0  0  0  0  0  0  0  0  0  0
   63.5485   32.6945   49.7618 H   0  0  0  0  0  0  0  0  0  0  0  0
   63.9292   34.4500   49.7618 H   0  0  0  0  0  0  0  0  0  0  0  0
   63.5161   33.2145   47.1790 H   0  0  0  0  0  0  0  0  0  0  0  0
   61.8837   33.5184   45.3207 H   0  0  0  0  0  0  0  0  0  0  0  0
   59.1238   35.5097   45.3775 H   0  0  0  0  0  0  0  0  0  0  0  0
   59.7381   34.0192   44.5712 H   0  0  0  0  0  0  0  0  0  0  0  0
   57.0666   29.8273   42.8984 H   0  0  0  0  0  0  0  0  0  0  0  0
   58.7114   28.9315   44.7820 H   0  0  0  0  0  0  0  0  0  0  0  0
   57.7277   31.2904   48.1850 H   0  0  0  0  0  0  0  0  0  0  0  0
   59.2159   31.1993   50.1861 H   0  0  0  0  0  0  0  0  0  0  0  0
   61.6467   30.6883   49.9154 H   0  0  0  0  0  0  0  0  0  0  0  0
   62.5849   30.2479   47.6424 H   0  0  0  0  0  0  0  0  0  0  0  0
   61.1006   30.3424   45.6369 H   0  0  0  0  0  0  0  0  0  0  0  0
   58.9221   34.9208   48.1549 H   0  0  0  0  0  0  0  0  0  0  0  0
   60.5555   34.6114   50.0125 H   0  0  0  0  0  0  0  0  0  0  0  0
  1  2  1  0
  2  3  2  0
  3  4  1  0
  4  5  2  0
  5  6  1  0
  6  7  1  0
  7  8  2  0
  7  9  2  0
  7 10  1  0
 10 11  2  0
 11 12  1  0
 12 13  2  0
 13 14  1  0
 14 15  1  0
 15 16  2  0
 16 17  1  0
 17 18  2  0
 18 19  1  0
 19 20  2  0
  5 21  1  0
 21 22  2  0
 22  2  1  0
 14 10  1  0
 20 15  1  0
  1 23  1  0
  1 24  1  0
  1 25  1  0
  3 26  1  0
  4 27  1  0
  6 28  1  0
  6 29  1  0
 12 30  1  0
 13 31  1  0
 16 32  1  0
 17 33  1  0
 18 34  1  0
 19 35  1  0
 20 36  1  0
 21 37  1  0
 22 38  1  0
M  END
>  <UniqueID>  (29) 
26

>  <SMILES>  (29) 
Cc1ccc(CS(=O)(=O)c2nccn2-c2ccccc2)cc1

>  <Energy>  (29) 
71.20884761933404

>  <Genealogy>  (29) 
Cc1ccc(CS(=O)(=O)c2nccn2-c2ccccc2)cc1 (3D coordinates assigned)
Cc1ccc(CS(=O)(=O)c2nccn2-c2ccccc2)cc1 (optimized conformer: 71.20884761933404 kcal/mol)

>  <smiles>  (29) 
Cc1ccc(CS(=O)(=O)c2nccn2-c2ccccc2)cc1

>  <score_type>  (29) 
oracle

>  <origin>  (29) 
adg

>  <m_score__min__energy>  (29) 
-7.8099999999999996

>  <m_primary>  (29) 
energy

$$$$
29:0
     RDKit          3D

 25 26  0  0  0  0  0  0  0  0999 V2000
   59.5350   29.7680   44.9460 C   0  0  0  0  0  0  0  0  0  0  0  0
   58.0860   29.7840   44.8730 N   0  0  0  0  0  0  0  0  0  0  0  0
   57.2990   30.7910   44.4290 C   0  0  0  0  0  0  0  0  0  0  0  0
   57.7620   32.1220   43.9090 C   0  0  0  0  0  0  0  0  0  0  0  0
   58.2120   32.9780   45.0430 C   0  0  0  0  0  0  0  0  0  0  0  0
   58.9540   34.0860   44.7390 C   0  0  0  0  0  0  0  0  0  0  0  0
   59.4340   34.9620   45.6910 C   0  0  0  0  0  0  0  0  0  0  0  0
   59.1250   34.6700   47.0080 C   0  0  0  0  0  0  0  0  0  0  0  0
   58.3690   33.5450   47.3460 C   0  0  0  0  0  0  0  0  0  0  0  0
   57.9170   32.7060   46.3580 C   0  0  0  0  0  0  0  0  0  0  0  0
   56.0110   30.3720   44.5410 N   0  0  0  0  0  0  0  0  0  0  0  0
   56.0120   29.1310   45.0440 N   0  0  0  0  0  0  0  0  0  0  0  0
   57.2860   28.7480   45.2580 C   0  0  0  0  0  0  0  0  0  0  0  0
   57.8370   27.3270   45.8600 S   0  0  0  0  0  0  0  0  0  0  0  0
   59.8490   29.7645   46.0002 H   0  0  0  0  0  0  0  0  0  0  0  0
   59.9174   28.8656   44.4466 H   0  0  0  0  0  0  0  0  0  0  0  0
   59.9372   30.6618   44.4466 H   0  0  0  0  0  0  0  0  0  0  0  0
   58.5988   31.9705   43.2113 H   0  0  0  0  0  0  0  0  0  0  0  0
   56.9299   32.6177   43.3876 H   0  0  0  0  0  0  0  0  0  0  0  0
   59.1796   34.2892   43.6817 H   0  0  0  0  0  0  0  0  0  0  0  0
   60.0303   35.8451   45.4178 H   0  0  0  0  0  0  0  0  0  0  0  0
   59.4823   35.3380   47.8056 H   0  0  0  0  0  0  0  0  0  0  0  0
   58.1368   33.3322   48.3999 H   0  0  0  0  0  0  0  0  0  0  0  0
   57.3207   31.8189   46.6176 H   0  0  0  0  0  0  0  0  0  0  0  0
   55.1470   28.5460   45.2440 H   0  0  0  0  0  0  0  0  0  0  0  0
  1  2  1  0
  2  3  1  0
  3  4  1  0
  4  5  1  0
  5  6  2  0
  6  7  1  0
  7  8  2  0
  8  9  1  0
  9 10  2  0
  3 11  2  0
 11 12  1  0
 12 13  1  0
 13 14  2  0
 13  2  1  0
 10  5  1  0
  1 15  1  0
  1 16  1  0
  1 17  1  0
  4 18  1  0
  4 19  1  0
  6 20  1  0
  7 21  1  0
  8 22  1  0
  9 23  1  0
 10 24  1  0
 12 25  1  0
M  END
>  <smiles>  (30) 
Cn1c(Cc2ccccc2)n[nH]c1=S

>  <score_type>  (30) 
oracle

>  <origin>  (30) 
adg

>  <m_score__min__energy>  (30) 
-7.1399999999999997

>  <m_primary>  (30) 
energy

$$$$
30:0
     RDKit          3D

 33 34  0  0  0  0  0  0  0  0999 V2000
   54.4300   30.5270   44.5130 H   0  0  0  0  0  0  0  0  0  0  0  0
   55.1460   29.8580   44.1510 N   0  0  0  0  0  0  0  0  0  0  0  0
   56.1650   29.5050   44.8680 C   0  0  0  0  0  0  0  0  0  0  0  0
   57.0870   30.4280   45.2390 N   0  0  0  0  0  0  0  0  0  0  0  0
   58.1610   30.0690   45.9890 C   0  0  0  0  0  0  0  0  0  0  0  0
   59.1380   31.0520   46.3810 N   0  0  0  0  0  0  0  0  0  0  0  0
   60.4790   30.6220   46.7890 C   0  0  0  0  0  0  0  0  0  0  0  0
   60.5395   30.6026   47.8872 H   0  0  0  0  0  0  0  0  0  0  0  0
   60.6775   29.6151   46.3930 H   0  0  0  0  0  0  0  0  0  0  0  0
   61.2260   31.3257   46.3930 H   0  0  0  0  0  0  0  0  0  0  0  0
   58.7830   32.4740   46.3700 C   0  0  0  0  0  0  0  0  0  0  0  0
   58.6923   32.8373   47.4043 H   0  0  0  0  0  0  0  0  0  0  0  0
   59.5665   33.0435   45.8487 H   0  0  0  0  0  0  0  0  0  0  0  0
   57.8237   32.6084   45.8487 H   0  0  0  0  0  0  0  0  0  0  0  0
   58.3010   28.7710   46.3680 N   0  0  0  0  0  0  0  0  0  0  0  0
   57.3880   27.8360   46.0070 C   0  0  0  0  0  0  0  0  0  0  0  0
   57.5660   26.6090   46.4020 N   0  0  0  0  0  0  0  0  0  0  0  0
   56.3710   25.3470   46.4130 S   0  0  0  0  0  0  0  0  0  0  0  0
   55.0530   25.9210   45.9790 O   0  0  0  0  0  0  0  0  0  0  0  0
   56.2330   24.8240   47.8160 O   0  0  0  0  0  0  0  0  0  0  0  0
   56.8270   24.0630   45.2870 C   0  0  0  0  0  0  0  0  0  0  0  0
   55.8870   23.5820   44.3580 C   0  0  0  0  0  0  0  0  0  0  0  0
   54.6260   24.0820   44.3270 F   0  0  0  0  0  0  0  0  0  0  0  0
   56.2410   22.5740   43.4560 C   0  0  0  0  0  0  0  0  0  0  0  0
   55.5033   22.2053   42.7280 H   0  0  0  0  0  0  0  0  0  0  0  0
   57.5290   22.0340   43.4770 C   0  0  0  0  0  0  0  0  0  0  0  0
   57.8060   21.2437   42.7638 H   0  0  0  0  0  0  0  0  0  0  0  0
   58.4650   22.4980   44.4040 C   0  0  0  0  0  0  0  0  0  0  0  0
   59.4777   22.0689   44.4216 H   0  0  0  0  0  0  0  0  0  0  0  0
   58.1200   23.5060   45.3100 C   0  0  0  0  0  0  0  0  0  0  0  0
   59.0460   23.9280   46.2060 F   0  0  0  0  0  0  0  0  0  0  0  0
   56.3130   28.2070   45.2490 N   0  0  0  0  0  0  0  0  0  0  0  0
   55.5910   27.5160   44.9450 H   0  0  0  0  0  0  0  0  0  0  0  0
  1  2  1  0
  2  3  2  3
  3  4  1  0
  4  5  2  0
  5  6  1  0
  6  7  1  0
  7  8  1  0
  7  9  1  0
  7 10  1  0
  6 11  1  0
 11 12  1  0
 11 13  1  0
 11 14  1  0
  5 15  1  0
 15 16  1  0
 16 17  2  0
 17 18  1  0
 18 19  2  0
 18 20  2  0
 18 21  1  0
 21 22  2  0
 22 23  1  0
 22 24  1  0
 24 25  1  0
 24 26  2  0
 26 27  1  0
 26 28  1  0
 28 29  1  0
 28 30  2  0
 30 31  1  0
 16 32  1  0
 32 33  1  0
 32  3  1  0
 30 21  1  0
M  CHG  1  15  -1
M  END
>  <UniqueID>  (31) 
27

>  <SMILES>  (31) 
CN(C)c1nc(=N)[nH]/c(=N\S(=O)(=O)c2c(F)cccc2F)[n-]1

>  <Energy>  (31) 
37.0194071659577

>  <Genealogy>  (31) 
CN(C)c1nc(=N)[nH]c(=NS(=O)(=O)c2c(F)cccc2F)[n-]1 (protonated)
CN(C)c1nc(=N)[nH]/c(=N\S(=O)(=O)c2c(F)cccc2F)[n-]1 (cis-trans isomerization)
CN(C)c1nc(=N)[nH]/c(=N\S(=O)(=O)c2c(F)cccc2F)[n-]1 (3D coordinates assigned)
CN(C)c1nc(=N)[nH]/c(=N\S(=O)(=O)c2c(F)cccc2F)[n-]1 (optimized conformer: 37.0194071659577 kcal/mol)

>  <smiles>  (31) 
CN(C)c1nc(=N)[nH]c(=NS(=O)(=O)c2c(F)cccc2F)[nH]1

>  <score_type>  (31) 
oracle

>  <origin>  (31) 
adg

>  <m_score__min__energy>  (31) 
-8.4700000000000006

>  <m_primary>  (31) 
energy

$$$$
31:0
     RDKit          3D

 52 55  0  0  0  0  0  0  0  0999 V2000
   66.2960   32.7210   49.7780 C   0  0  0  0  0  0  0  0  0  0  0  0
   65.7830   32.7000   51.1610 N   0  0  0  0  0  0  0  0  0  0  0  0
   65.0990   33.9730   51.5160 C   0  0  0  0  0  0  0  0  0  0  0  0
   63.5620   33.8700   51.5430 C   0  0  0  0  0  0  0  0  0  0  0  0
   63.1020   32.8830   50.5640 N   0  0  0  0  0  0  0  0  0  0  0  0
   62.1500   33.2350   49.5420 C   0  0  0  0  0  0  0  0  0  0  0  0
   62.4970   33.1350   48.1860 C   0  0  0  0  0  0  0  0  0  0  0  0
   61.5770   33.4900   47.1940 C   0  0  0  0  0  0  0  0  0  0  0  0
   60.3070   33.9750   47.5400 C   0  0  0  0  0  0  0  0  0  0  0  0
   59.3730   34.3080   46.4970 N   0  0  0  0  0  0  0  0  0  0  0  0
   58.0330   33.8010   46.4140 C   0  0  0  0  0  0  0  0  0  0  0  0
   57.4990   33.2220   47.4000 O   0  0  0  0  0  0  0  0  0  0  0  0
   57.2540   33.9510   45.1410 C   0  0  0  0  0  0  0  0  0  0  0  0
   58.0870   33.1120   43.7460 S   0  0  0  0  0  0  0  0  0  0  0  0
   57.7340   31.4490   44.3220 C   0  0  0  0  0  0  0  0  0  0  0  0
   58.7760   30.5560   44.5720 C   0  0  0  0  0  0  0  0  0  0  0  0
   58.4760   29.2560   44.9690 C   0  0  0  0  0  0  0  0  0  0  0  0
   57.1370   28.8810   45.1250 C   0  0  0  0  0  0  0  0  0  0  0  0
   56.7800   27.5150   45.5430 C   0  0  0  0  0  0  0  0  0  0  0  0
   57.6680   26.5140   45.8870 C   0  0  0  0  0  0  0  0  0  0  0  0
   56.8910   25.4180   46.1990 C   0  0  0  0  0  0  0  0  0  0  0  0
   55.5810   25.8160   46.0300 C   0  0  0  0  0  0  0  0  0  0  0  0
   55.5470   27.0700   45.6390 O   0  0  0  0  0  0  0  0  0  0  0  0
   56.1610   29.8000   44.8870 N   0  0  0  0  0  0  0  0  0  0  0  0
   56.4490   31.0440   44.4990 N   0  0  0  0  0  0  0  0  0  0  0  0
   59.9570   34.0670   48.8980 C   0  0  0  0  0  0  0  0  0  0  0  0
   60.8730   33.7020   49.8900 C   0  0  0  0  0  0  0  0  0  0  0  0
   63.6440   31.5220   50.6270 C   0  0  0  0  0  0  0  0  0  0  0  0
   64.9600   31.4990   51.4240 C   0  0  0  0  0  0  0  0  0  0  0  0
   67.3949   32.7660   49.7952 H   0  0  0  0  0  0  0  0  0  0  0  0
   65.9745   31.8089   49.2538 H   0  0  0  0  0  0  0  0  0  0  0  0
   65.9010   33.6037   49.2538 H   0  0  0  0  0  0  0  0  0  0  0  0
   65.4427   34.2843   52.5135 H   0  0  0  0  0  0  0  0  0  0  0  0
   65.3562   34.7023   50.7337 H   0  0  0  0  0  0  0  0  0  0  0  0
   63.2364   33.5634   52.5480 H   0  0  0  0  0  0  0  0  0  0  0  0
   63.1329   34.8510   51.2910 H   0  0  0  0  0  0  0  0  0  0  0  0
   63.4971   32.7758   47.9019 H   0  0  0  0  0  0  0  0  0  0  0  0
   61.8516   33.3880   46.1337 H   0  0  0  0  0  0  0  0  0  0  0  0
   59.6690   35.0220   45.7910 H   0  0  0  0  0  0  0  0  0  0  0  0
   56.2554   33.5108   45.2786 H   0  0  0  0  0  0  0  0  0  0  0  0
   57.1791   35.0228   44.9053 H   0  0  0  0  0  0  0  0  0  0  0  0
   59.8223   30.8753   44.4568 H   0  0  0  0  0  0  0  0  0  0  0  0
   59.2822   28.5319   45.1579 H   0  0  0  0  0  0  0  0  0  0  0  0
   58.7659   26.5778   45.9077 H   0  0  0  0  0  0  0  0  0  0  0  0
   57.2446   24.4265   46.5182 H   0  0  0  0  0  0  0  0  0  0  0  0
   54.6990   25.1803   46.1971 H   0  0  0  0  0  0  0  0  0  0  0  0
   58.9575   34.4279   49.1822 H   0  0  0  0  0  0  0  0  0  0  0  0
   60.5906   33.7815   50.9502 H   0  0  0  0  0  0  0  0  0  0  0  0
   62.9123   30.8640   51.1185 H   0  0  0  0  0  0  0  0  0  0  0  0
   63.8434   31.1722   49.6034 H   0  0  0  0  0  0  0  0  0  0  0  0
   64.7252   31.4565   52.4978 H   0  0  0  0  0  0  0  0  0  0  0  0
   65.5346   30.6153   51.1095 H   0  0  0  0  0  0  0  0  0  0  0  0
  1  2  1  0
  2  3  1  0
  3  4  1  0
  4  5  1  0
  5  6  1  0
  6  7  2  0
  7  8  1  0
  8  9  2  0
  9 10  1  0
 10 11  1  0
 11 12  2  0
 11 13  1  0
 13 14  1  0
 14 15  1  0
 15 16  2  0
 16 17  1  0
 17 18  2  0
 18 19  1  0
 19 20  2  0
 20 21  1  0
 21 22  2  0
 22 23  1  0
 18 24  1  0
 24 25  2  0
  9 26  1  0
 26 27  2  0
  5 28  1  0
 28 29  1  0
 29  2  1  0
 27  6  1  0
 25 15  1  0
 23 19  1  0
  1 30  1  0
  1 31  1  0
  1 32  1  0
  3 33  1  0
  3 34  1  0
  4 35  1  0
  4 36  1  0
  7 37  1  0
  8 38  1  0
 10 39  1  0
 13 40  1  0
 13 41  1  0
 16 42  1  0
 17 43  1  0
 20 44  1  0
 21 45  1  0
 22 46  1  0
 26 47  1  0
 27 48  1  0
 28 49  1  0
 28 50  1  0
 29 51  1  0
 29 52  1  0
M  END
>  <UniqueID>  (32) 
28

>  <SMILES>  (32) 
CN1CCN(c2ccc(NC(=O)CSc3ccc(-c4ccco4)nn3)cc2)CC1

>  <Energy>  (32) 
90.19832047701165

>  <Genealogy>  (32) 
CN1CCN(c2ccc(NC(=O)CSc3ccc(-c4ccco4)nn3)cc2)CC1 (3D coordinates assigned)
CN1CCN(c2ccc(NC(=O)CSc3ccc(-c4ccco4)nn3)cc2)CC1 (nonaromatic ring conformer: 90.19832047701165 kcal/mol)

>  <smiles>  (32) 
CN1CCN(c2ccc(NC(=O)CSc3ccc(-c4ccco4)nn3)cc2)CC1

>  <score_type>  (32) 
oracle

>  <origin>  (32) 
adg

>  <m_score__min__energy>  (32) 
-9.6099999999999994

>  <m_primary>  (32) 
energy

$$$$
32:0
     RDKit          3D

 46 48  0  0  0  0  0  0  0  0999 V2000
   57.1569   23.0331   44.5005 H   0  0  0  0  0  0  0  0  0  0  0  0
   57.1020   24.0840   44.8210 C   0  0  0  0  0  0  0  0  0  0  0  0
   57.7650   25.0740   44.0900 C   0  0  0  0  0  0  0  0  0  0  0  0
   58.3480   24.8007   43.1982 H   0  0  0  0  0  0  0  0  0  0  0  0
   57.6880   26.4110   44.4910 C   0  0  0  0  0  0  0  0  0  0  0  0
   58.2230   27.1845   43.9205 H   0  0  0  0  0  0  0  0  0  0  0  0
   56.9330   26.7720   45.6160 C   0  0  0  0  0  0  0  0  0  0  0  0
   56.8950   28.1510   46.0070 N   0  0  0  0  0  0  0  0  0  0  0  0
   56.4790   29.2520   45.1920 C   0  0  0  0  0  0  0  0  0  0  0  0
   55.2660   29.3480   44.8690 O   0  0  0  0  0  0  0  0  0  0  0  0
   57.4310   30.2120   44.7170 N   0  0  0  0  0  0  0  0  0  0  0  0
   58.2570   30.9420   45.4150 C   0  0  0  0  0  0  0  0  0  0  0  0
   58.3650   32.3080   45.2680 C   0  0  0  0  0  0  0  0  0  0  0  0
   57.8384   32.9506   44.5471 H   0  0  0  0  0  0  0  0  0  0  0  0
   59.2860   32.6920   46.2320 C   0  0  0  0  0  0  0  0  0  0  0  0
   59.7860   34.1130   46.4620 C   0  0  0  0  0  0  0  0  0  0  0  0
   59.2570   35.0210   45.3350 C   0  0  0  0  0  0  0  0  0  0  0  0
   58.7493   35.8925   45.7741 H   0  0  0  0  0  0  0  0  0  0  0  0
   60.0981   35.3615   44.7132 H   0  0  0  0  0  0  0  0  0  0  0  0
   58.5460   34.4572   44.7132 H   0  0  0  0  0  0  0  0  0  0  0  0
   59.2660   34.6230   47.8210 C   0  0  0  0  0  0  0  0  0  0  0  0
   59.7949   34.1042   48.6341 H   0  0  0  0  0  0  0  0  0  0  0  0
   59.4449   35.7055   47.8992 H   0  0  0  0  0  0  0  0  0  0  0  0
   58.1871   34.4231   47.8992 H   0  0  0  0  0  0  0  0  0  0  0  0
   61.3270   34.1760   46.4720 C   0  0  0  0  0  0  0  0  0  0  0  0
   61.6866   34.1907   47.5114 H   0  0  0  0  0  0  0  0  0  0  0  0
   61.7334   33.2937   45.9558 H   0  0  0  0  0  0  0  0  0  0  0  0
   61.6600   35.0885   45.9558 H   0  0  0  0  0  0  0  0  0  0  0  0
   59.7160   31.5860   46.8840 N   0  0  0  0  0  0  0  0  0  0  0  0
   60.4610   31.5420   47.6140 H   0  0  0  0  0  0  0  0  0  0  0  0
   59.1050   30.5210   46.3890 N   0  0  0  0  0  0  0  0  0  0  0  0
   59.5430   29.1870   46.6910 C   0  0  0  0  0  0  0  0  0  0  0  0
   59.2590   28.6070   47.9390 C   0  0  0  0  0  0  0  0  0  0  0  0
   58.7216   29.1868   48.7039 H   0  0  0  0  0  0  0  0  0  0  0  0
   59.6580   27.2940   48.2110 C   0  0  0  0  0  0  0  0  0  0  0  0
   59.4478   26.8477   49.1942 H   0  0  0  0  0  0  0  0  0  0  0  0
   60.3240   26.5490   47.2330 C   0  0  0  0  0  0  0  0  0  0  0  0
   60.6429   25.5188   47.4498 H   0  0  0  0  0  0  0  0  0  0  0  0
   60.5850   27.1110   45.9810 C   0  0  0  0  0  0  0  0  0  0  0  0
   61.1024   26.5204   45.2107 H   0  0  0  0  0  0  0  0  0  0  0  0
   60.1890   28.4240   45.7060 C   0  0  0  0  0  0  0  0  0  0  0  0
   60.3844   28.8597   44.7151 H   0  0  0  0  0  0  0  0  0  0  0  0
   56.2900   25.7670   46.3640 C   0  0  0  0  0  0  0  0  0  0  0  0
   55.7240   26.0339   47.2687 H   0  0  0  0  0  0  0  0  0  0  0  0
   56.3690   24.4310   45.9600 C   0  0  0  0  0  0  0  0  0  0  0  0
   55.8534   23.6510   46.5395 H   0  0  0  0  0  0  0  0  0  0  0  0
  1  2  1  0
  2  3  2  0
  3  4  1  0
  3  5  1  0
  5  6  1  0
  5  7  2  0
  7  8  1  0
  8  9  1  0
  9 10  2  0
  9 11  1  0
 11 12  2  0
 12 13  1  0
 13 14  1  0
 13 15  2  0
 15 16  1  0
 16 17  1  0
 17 18  1  0
 17 19  1  0
 17 20  1  0
 16 21  1  0
 21 22  1  0
 21 23  1  0
 21 24  1  0
 16 25  1  0
 25 26  1  0
 25 27  1  0
 25 28  1  0
 15 29  1  0
 29 30  1  0
 29 31  1  0
 31 32  1  0
 32 33  2  0
 33 34  1  0
 33 35  1  0
 35 36  1  0
 35 37  2  0
 37 38  1  0
 37 39  1  0
 39 40  1  0
 39 41  2  0
 41 42  1  0
  7 43  1  0
 43 44  1  0
 43 45  2  0
 45 46  1  0
 45  2  1  0
 31 12  1  0
 41 32  1  0
M  CHG  1   8  -1
M  END
>  <UniqueID>  (33) 
29

>  <SMILES>  (33) 
CC(C)(C)c1c/c(=N/C(=O)[N-]c2ccccc2)n(-c2ccccc2)[nH]1

>  <Energy>  (33) 
95.62473690065757

>  <Genealogy>  (33) 
CC(C)(C)c1cc(=NC(=O)[N-]c2ccccc2)n(-c2ccccc2)[nH]1 (protonated)
CC(C)(C)c1c/c(=N/C(=O)[N-]c2ccccc2)n(-c2ccccc2)[nH]1 (cis-trans isomerization)
CC(C)(C)c1c/c(=N/C(=O)[N-]c2ccccc2)n(-c2ccccc2)[nH]1 (3D coordinates assigned)
CC(C)(C)c1c/c(=N/C(=O)[N-]c2ccccc2)n(-c2ccccc2)[nH]1 (optimized conformer: 95.62473690065757 kcal/mol)

>  <smiles>  (33) 
CC(C)(C)c1cc(=NC(=O)Nc2ccccc2)n(-c2ccccc2)[nH]1

>  <score_type>  (33) 
oracle

>  <origin>  (33) 
adg

>  <m_score__min__energy>  (33) 
-9.0999999999999996

>  <m_primary>  (33) 
energy

$$$$
33:0
     RDKit          3D

 53 55  0  0  0  0  0  0  0  0999 V2000
   55.8390   22.7480   46.3630 C   0  0  0  0  0  0  0  0  0  0  0  0
   55.7720   24.2320   46.5000 C   0  0  0  0  0  0  0  0  0  0  0  0
   54.7590   24.8500   46.0730 O   0  0  0  0  0  0  0  0  0  0  0  0
   56.8810   24.9230   47.0080 O   0  0  0  0  0  0  0  0  0  0  0  0
   57.4910   26.0290   46.3970 C   0  0  0  0  0  0  0  0  0  0  0  0
   58.8830   26.0310   46.2510 C   0  0  0  0  0  0  0  0  0  0  0  0
   59.5320   27.1230   45.6680 C   0  0  0  0  0  0  0  0  0  0  0  0
   58.7930   28.2250   45.2280 C   0  0  0  0  0  0  0  0  0  0  0  0
   57.3970   28.2420   45.3640 C   0  0  0  0  0  0  0  0  0  0  0  0
   56.6130   29.4150   44.9160 C   0  0  0  0  0  0  0  0  0  0  0  0
   55.3550   29.3400   44.8650 O   0  0  0  0  0  0  0  0  0  0  0  0
   57.2640   30.6360   44.5240 N   0  0  0  0  0  0  0  0  0  0  0  0
   56.9680   31.1840   43.1910 C   0  0  0  0  0  0  0  0  0  0  0  0
   58.0550   32.1330   42.7090 C   0  0  0  0  0  0  0  0  0  0  0  0
   58.2740   33.2190   43.7480 C   0  0  0  0  0  0  0  0  0  0  0  0
   58.8150   32.6070   45.0480 C   0  0  1  0  0  0  0  0  0  0  0  0
   58.8470   33.6100   46.1250 N   0  0  0  0  0  0  0  0  0  0  0  0
   59.8770   33.7680   47.1300 C   0  0  0  0  0  0  0  0  0  0  0  0
   59.5880   34.1070   48.4640 C   0  0  0  0  0  0  0  0  0  0  0  0
   60.6100   34.2330   49.4060 C   0  0  0  0  0  0  0  0  0  0  0  0
   61.9490   34.0290   49.0400 C   0  0  0  0  0  0  0  0  0  0  0  0
   63.0280   34.1800   50.0790 C   0  0  0  0  0  0  0  0  0  0  0  0
   62.2570   33.6940   47.7020 C   0  0  0  0  0  0  0  0  0  0  0  0
   63.6800   33.4700   47.2610 C   0  0  0  0  0  0  0  0  0  0  0  0
   61.2170   33.5620   46.7640 C   0  0  0  0  0  0  0  0  0  0  0  0
   58.1370   31.2880   45.5190 C   0  0  0  0  0  0  0  0  0  0  0  0
   56.7550   27.1490   45.9700 C   0  0  0  0  0  0  0  0  0  0  0  0
   55.8598   22.2881   47.3620 H   0  0  0  0  0  0  0  0  0  0  0  0
   54.9561   22.3903   45.8130 H   0  0  0  0  0  0  0  0  0  0  0  0
   56.7506   22.4713   45.8130 H   0  0  0  0  0  0  0  0  0  0  0  0
   59.4700   25.1676   46.5973 H   0  0  0  0  0  0  0  0  0  0  0  0
   60.6262   27.1152   45.5552 H   0  0  0  0  0  0  0  0  0  0  0  0
   59.3089   29.0833   44.7728 H   0  0  0  0  0  0  0  0  0  0  0  0
   56.8809   30.3521   42.4767 H   0  0  0  0  0  0  0  0  0  0  0  0
   56.0281   31.7514   43.2587 H   0  0  0  0  0  0  0  0  0  0  0  0
   58.9905   31.5739   42.5598 H   0  0  0  0  0  0  0  0  0  0  0  0
   57.7470   32.5915   41.7577 H   0  0  0  0  0  0  0  0  0  0  0  0
   58.9987   33.9508   43.3617 H   0  0  0  0  0  0  0  0  0  0  0  0
   57.3147   33.7151   43.9566 H   0  0  0  0  0  0  0  0  0  0  0  0
   59.8399   32.2963   44.7971 H   0  0  0  0  0  0  0  0  0  0  0  0
   58.0240   34.2510   46.1770 H   0  0  0  0  0  0  0  0  0  0  0  0
   58.5444   34.2748   48.7684 H   0  0  0  0  0  0  0  0  0  0  0  0
   60.3633   34.4948   50.4455 H   0  0  0  0  0  0  0  0  0  0  0  0
   62.5820   34.1176   51.0826 H   0  0  0  0  0  0  0  0  0  0  0  0
   63.7697   33.3769   49.9568 H   0  0  0  0  0  0  0  0  0  0  0  0
   63.5207   35.1559   49.9568 H   0  0  0  0  0  0  0  0  0  0  0  0
   64.3262   33.3683   48.1453 H   0  0  0  0  0  0  0  0  0  0  0  0
   63.7367   32.5519   46.6578 H   0  0  0  0  0  0  0  0  0  0  0  0
   64.0161   34.3263   46.6578 H   0  0  0  0  0  0  0  0  0  0  0  0
   61.4578   33.2925   45.7250 H   0  0  0  0  0  0  0  0  0  0  0  0
   58.9306   30.5770   45.7922 H   0  0  0  0  0  0  0  0  0  0  0  0
   57.4844   31.5656   46.3599 H   0  0  0  0  0  0  0  0  0  0  0  0
   55.6644   27.1694   46.1121 H   0  0  0  0  0  0  0  0  0  0  0  0
  1  2  1  0
  2  3  2  0
  2  4  1  0
  4  5  1  0
  5  6  2  0
  6  7  1  0
  7  8  2  0
  8  9  1  0
  9 10  1  0
 10 11  2  0
 10 12  1  0
 12 13  1  0
 13 14  1  0
 14 15  1  0
 15 16  1  0
 16 17  1  0
 17 18  1  0
 18 19  2  0
 19 20  1  0
 20 21  2  0
 21 22  1  0
 21 23  1  0
 23 24  1  0
 23 25  2  0
 16 26  1  0
  9 27  2  0
 27  5  1  0
 26 12  1  0
 25 18  1  0
  1 28  1  0
  1 29  1  0
  1 30  1  0
  6 31  1  0
  7 32  1  0
  8 33  1  0
 13 34  1  0
 13 35  1  0
 14 36  1  0
 14 37  1  0
 15 38  1  0
 15 39  1  0
 16 40  1  6
 17 41  1  0
 19 42  1  0
 20 43  1  0
 22 44  1  0
 22 45  1  0
 22 46  1  0
 24 47  1  0
 24 48  1  0
 24 49  1  0
 25 50  1  0
 26 51  1  0
 26 52  1  0
 27 53  1  0
M  END
>  <UniqueID>  (34) 
30

>  <SMILES>  (34) 
CC(=O)Oc1cccc(C(=O)N2CCC[C@@H](Nc3ccc(C)c(C)c3)C2)c1

>  <Energy>  (34) 
64.72401561069228

>  <Genealogy>  (34) 
CC(=O)Oc1cccc(C(=O)N2CCC[C@@H](Nc3ccc(C)c(C)c3)C2)c1 (chirality)
CC(=O)Oc1cccc(C(=O)N2CCC[C@@H](Nc3ccc(C)c(C)c3)C2)c1 (3D coordinates assigned)
CC(=O)Oc1cccc(C(=O)N2CCC[C@@H](Nc3ccc(C)c(C)c3)C2)c1 (nonaromatic ring conformer: 64.72401561069228 kcal/mol)

>  <smiles>  (34) 
CC(=O)Oc1cccc(C(=O)N2CCCC(Nc3ccc(C)c(C)c3)C2)c1

>  <score_type>  (34) 
oracle

>  <origin>  (34) 
adg

>  <m_score__min__energy>  (34) 
-9.25

>  <m_primary>  (34) 
energy

$$$$
34:0
     RDKit          3D

 36 38  0  0  0  0  0  0  0  0999 V2000
   51.1090   31.9866   49.2010 H   0  0  0  0  0  0  0  0  0  0  0  0
   51.3710   31.7510   50.2430 C   0  0  0  0  0  0  0  0  0  0  0  0
   50.6880   32.3360   51.2590 N   0  0  0  0  0  0  0  0  0  0  0  0
   50.9800   32.0760   52.5610 C   0  0  0  0  0  0  0  0  0  0  0  0
   50.2510   32.7100   53.5730 C   0  0  0  0  0  0  0  0  0  0  0  0
   49.4452   33.4117   53.3116 H   0  0  0  0  0  0  0  0  0  0  0  0
   50.5440   32.4540   54.9140 C   0  0  0  0  0  0  0  0  0  0  0  0
   49.9686   32.9551   55.7064 H   0  0  0  0  0  0  0  0  0  0  0  0
   51.5650   31.5640   55.2520 C   0  0  0  0  0  0  0  0  0  0  0  0
   51.7923   31.3669   56.3101 H   0  0  0  0  0  0  0  0  0  0  0  0
   52.3000   30.9220   54.2500 C   0  0  0  0  0  0  0  0  0  0  0  0
   53.1017   30.2205   54.5241 H   0  0  0  0  0  0  0  0  0  0  0  0
   52.0190   31.1690   52.8900 C   0  0  0  0  0  0  0  0  0  0  0  0
   52.7320   30.5340   51.8470 C   0  0  0  0  0  0  0  0  0  0  0  0
   53.7000   29.7050   52.1400 N   0  0  0  0  0  0  0  0  0  0  0  0
   55.1090   29.9710   52.1170 C   0  0  0  0  0  0  0  0  0  0  0  0
   55.9040   29.0650   52.4800 O   0  0  0  0  0  0  0  0  0  0  0  0
   55.6040   31.2330   51.6340 N   0  0  0  0  0  0  0  0  0  0  0  0
   54.9080   31.9680   51.3760 H   0  0  0  0  0  0  0  0  0  0  0  0
   56.9960   31.5890   51.5880 C   0  0  0  0  0  0  0  0  0  0  0  0
   57.9320   30.8100   50.8840 C   0  0  0  0  0  0  0  0  0  0  0  0
   57.6062   29.8941   50.3693 H   0  0  0  0  0  0  0  0  0  0  0  0
   59.2760   31.1960   50.8360 C   0  0  0  0  0  0  0  0  0  0  0  0
   60.0059   30.5757   50.2953 H   0  0  0  0  0  0  0  0  0  0  0  0
   59.6940   32.3690   51.4740 C   0  0  0  0  0  0  0  0  0  0  0  0
   61.4180   32.8590   51.4130 S   0  0  0  0  0  0  0  0  0  0  0  0
   62.0350   31.1760   51.7280 C   0  0  0  0  0  0  0  0  0  0  0  0
   62.0975   31.0055   52.8129 H   0  0  0  0  0  0  0  0  0  0  0  0
   61.3469   30.4435   51.2807 H   0  0  0  0  0  0  0  0  0  0  0  0
   63.0335   31.0618   51.2807 H   0  0  0  0  0  0  0  0  0  0  0  0
   58.7630   33.1580   52.1590 C   0  0  0  0  0  0  0  0  0  0  0  0
   59.0893   34.0809   52.6607 H   0  0  0  0  0  0  0  0  0  0  0  0
   57.4200   32.7760   52.2070 C   0  0  0  0  0  0  0  0  0  0  0  0
   56.6902   33.4090   52.7330 H   0  0  0  0  0  0  0  0  0  0  0  0
   52.4030   30.8530   50.5120 C   0  0  0  0  0  0  0  0  0  0  0  0
   52.9612   30.3928   49.6833 H   0  0  0  0  0  0  0  0  0  0  0  0
  1  2  1  0
  2  3  1  0
  3  4  1  0
  4  5  2  0
  5  6  1  0
  5  7  1  0
  7  8  1  0
  7  9  2  0
  9 10  1  0
  9 11  1  0
 11 12  1  0
 11 13  2  0
 13 14  1  0
 14 15  2  0
 15 16  1  0
 16 17  2  0
 16 18  1  0
 18 19  1  0
 18 20  1  0
 20 21  2  0
 21 22  1  0
 21 23  1  0
 23 24  1  0
 23 25  2  0
 25 26  1  0
 26 27  1  0
 27 28  1  0
 27 29  1  0
 27 30  1  0
 25 31  1  0
 31 32  1  0
 31 33  2  0
 33 34  1  0
 14 35  1  0
 35 36  1  0
 35  2  2  0
 13  4  1  0
 33 20  1  0
M  CHG  1   3  -1
M  END
>  <UniqueID>  (35) 
31

>  <SMILES>  (35) 
CSc1ccc(NC(=O)/N=c2\cc[n-]c3ccccc23)cc1

>  <Energy>  (35) 
51.96048415461506

>  <Genealogy>  (35) 
CSc1ccc(NC(=O)N=c2cc[n-]c3ccccc23)cc1 (protonated)
CSc1ccc(NC(=O)/N=c2\cc[n-]c3ccccc23)cc1 (cis-trans isomerization)
CSc1ccc(NC(=O)/N=c2\cc[n-]c3ccccc23)cc1 (3D coordinates assigned)
CSc1ccc(NC(=O)/N=c2\cc[n-]c3ccccc23)cc1 (optimized conformer: 51.96048415461506 kcal/mol)

>  <smiles>  (35) 
CSc1ccc(NC(=O)N=c2cc[nH]c3ccccc23)cc1

>  <score_type>  (35) 
oracle

>  <origin>  (35) 
adg

>  <m_score__min__energy>  (35) 
-9.6999999999999993

>  <m_primary>  (35) 
energy

$$$$
35:0
     RDKit          3D

 46 48  0  0  0  0  0  0  0  0999 V2000
   61.9110   27.2060   52.0360 C   0  0  0  0  0  0  0  0  0  0  0  0
   61.4380   26.7290   50.7820 O   0  0  0  0  0  0  0  0  0  0  0  0
   60.7650   27.5180   49.8360 C   0  0  0  0  0  0  0  0  0  0  0  0
   60.2070   28.7690   50.1580 C   0  0  0  0  0  0  0  0  0  0  0  0
   59.5470   29.5190   49.1790 C   0  0  0  0  0  0  0  0  0  0  0  0
   59.4440   29.0390   47.8640 C   0  0  0  0  0  0  0  0  0  0  0  0
   58.7410   29.8400   46.8360 C   0  0  0  0  0  0  0  0  0  0  0  0
   57.7300   29.3550   46.0280 C   0  0  0  0  0  0  0  0  0  0  0  0
   57.3770   30.3790   45.1680 C   0  0  0  0  0  0  0  0  0  0  0  0
   56.3480   30.2550   44.1120 C   0  0  0  0  0  0  0  0  0  0  0  0
   56.6550   30.4610   42.6600 C   0  0  0  0  0  0  0  0  0  0  0  0
   55.1700   29.9500   44.4400 O   0  0  0  0  0  0  0  0  0  0  0  0
   58.1680   31.4750   45.5120 C   0  0  0  0  0  0  0  0  0  0  0  0
   58.0650   32.8590   44.9350 C   0  0  0  0  0  0  0  0  0  0  0  0
   59.0100   31.1290   46.5180 N   0  0  0  0  0  0  0  0  0  0  0  0
   59.9420   31.9980   47.1870 C   0  0  0  0  0  0  0  0  0  0  0  0
   61.3200   31.7480   47.1090 C   0  0  0  0  0  0  0  0  0  0  0  0
   62.2280   32.5800   47.7720 C   0  0  0  0  0  0  0  0  0  0  0  0
   61.7650   33.6750   48.5260 C   0  0  0  0  0  0  0  0  0  0  0  0
   62.6330   34.5380   49.2110 O   0  0  0  0  0  0  0  0  0  0  0  0
   63.2880   34.2140   50.4330 C   0  0  0  0  0  0  0  0  0  0  0  0
   60.3880   33.9210   48.6010 C   0  0  0  0  0  0  0  0  0  0  0  0
   59.4820   33.0900   47.9360 C   0  0  0  0  0  0  0  0  0  0  0  0
   59.9870   27.7830   47.5500 C   0  0  0  0  0  0  0  0  0  0  0  0
   60.6460   27.0330   48.5290 C   0  0  0  0  0  0  0  0  0  0  0  0
   61.3892   26.6798   52.8489 H   0  0  0  0  0  0  0  0  0  0  0  0
   62.9925   27.0211   52.1144 H   0  0  0  0  0  0  0  0  0  0  0  0
   61.7170   28.2859   52.1144 H   0  0  0  0  0  0  0  0  0  0  0  0
   60.2901   29.1586   51.1833 H   0  0  0  0  0  0  0  0  0  0  0  0
   59.1056   30.4918   49.4415 H   0  0  0  0  0  0  0  0  0  0  0  0
   57.2902   28.3473   46.0624 H   0  0  0  0  0  0  0  0  0  0  0  0
   57.5647   31.0714   42.5606 H   0  0  0  0  0  0  0  0  0  0  0  0
   56.8133   29.4856   42.1767 H   0  0  0  0  0  0  0  0  0  0  0  0
   55.8124   30.9772   42.1767 H   0  0  0  0  0  0  0  0  0  0  0  0
   58.0103   33.5937   45.7519 H   0  0  0  0  0  0  0  0  0  0  0  0
   58.9503   33.0648   44.3154 H   0  0  0  0  0  0  0  0  0  0  0  0
   57.1590   32.9315   44.3154 H   0  0  0  0  0  0  0  0  0  0  0  0
   61.6885   30.8930   46.5232 H   0  0  0  0  0  0  0  0  0  0  0  0
   63.3072   32.3781   47.7041 H   0  0  0  0  0  0  0  0  0  0  0  0
   62.6589   34.5252   51.2800 H   0  0  0  0  0  0  0  0  0  0  0  0
   63.4574   33.1282   50.4816 H   0  0  0  0  0  0  0  0  0  0  0  0
   64.2538   34.7383   50.4816 H   0  0  0  0  0  0  0  0  0  0  0  0
   60.0170   34.7744   49.1875 H   0  0  0  0  0  0  0  0  0  0  0  0
   58.4030   33.2938   48.0007 H   0  0  0  0  0  0  0  0  0  0  0  0
   59.8935   27.3867   46.5281 H   0  0  0  0  0  0  0  0  0  0  0  0
   61.0744   26.0536   48.2695 H   0  0  0  0  0  0  0  0  0  0  0  0
  1  2  1  0
  2  3  1  0
  3  4  2  0
  4  5  1  0
  5  6  2  0
  6  7  1  0
  7  8  2  0
  8  9  1  0
  9 10  1  0
 10 11  1  0
 10 12  2  0
  9 13  2  0
 13 14  1  0
 13 15  1  0
 15 16  1  0
 16 17  2  0
 17 18  1  0
 18 19  2  0
 19 20  1  0
 20 21  1  0
 19 22  1  0
 22 23  2  0
  6 24  1  0
 24 25  2  0
 25  3  1  0
 15  7  1  0
 23 16  1  0
  1 26  1  0
  1 27  1  0
  1 28  1  0
  4 29  1  0
  5 30  1  0
  8 31  1  0
 11 32  1  0
 11 33  1  0
 11 34  1  0
 14 35  1  0
 14 36  1  0
 14 37  1  0
 17 38  1  0
 18 39  1  0
 21 40  1  0
 21 41  1  0
 21 42  1  0
 22 43  1  0
 23 44  1  0
 24 45  1  0
 25 46  1  0
M  END
>  <UniqueID>  (36) 
32

>  <SMILES>  (36) 
COc1ccc(-c2cc(C(C)=O)c(C)n2-c2ccc(OC)cc2)cc1

>  <Energy>  (36) 
84.11890243044054

>  <Genealogy>  (36) 
COc1ccc(-c2cc(C(C)=O)c(C)n2-c2ccc(OC)cc2)cc1 (3D coordinates assigned)
COc1ccc(-c2cc(C(C)=O)c(C)n2-c2ccc(OC)cc2)cc1 (optimized conformer: 84.11890243044054 kcal/mol)

>  <smiles>  (36) 
COc1ccc(-c2cc(C(C)=O)c(C)n2-c2ccc(OC)cc2)cc1

>  <score_type>  (36) 
oracle

>  <origin>  (36) 
adg

>  <m_score__min__energy>  (36) 
-6.9100000000000001

>  <m_primary>  (36) 
energy

$$$$
36:0
     RDKit          3D

 59 62  0  0  1  0  0  0  0  0999 V2000
   57.0800   21.0620   42.9960 C   0  0  0  0  0  0  0  0  0  0  0  0
   56.1160   22.0880   43.0980 O   0  0  0  0  0  0  0  0  0  0  0  0
   56.3020   23.2390   43.8500 C   0  0  0  0  0  0  0  0  0  0  0  0
   57.1020   24.2520   43.4610 N   0  0  0  0  0  0  0  0  0  0  0  0
   57.2950   25.3620   44.1640 C   0  0  0  0  0  0  0  0  0  0  0  0
   58.0770   26.3360   43.7650 N   0  0  0  0  0  0  0  0  0  0  0  0
   58.6240   27.2590   44.7150 C   0  0  0  0  0  0  0  0  0  0  0  0
   58.1860   28.5670   44.6670 C   0  0  0  0  0  0  0  0  0  0  0  0
   58.6970   29.4800   45.5770 C   0  0  0  0  0  0  0  0  0  0  0  0
   59.6220   29.1410   46.5290 C   0  0  0  0  0  0  0  0  0  0  0  0
   60.1620   30.0460   47.4810 N   0  0  0  0  0  0  0  0  0  0  0  0
   59.3230   30.6650   48.5180 C   0  0  0  0  0  0  0  0  0  0  0  0
   60.2190   31.3220   49.5190 C   0  0  0  0  0  0  0  0  0  0  0  0
   61.0560   32.3380   48.9700 N   0  0  0  0  0  0  0  0  0  0  0  0
   60.2610   33.8540   48.9020 S   0  0  0  0  0  0  0  0  0  0  0  0
   59.2550   34.0120   50.0070 O   0  0  0  0  0  0  0  0  0  0  0  0
   61.2920   34.9590   48.9820 O   0  0  0  0  0  0  0  0  0  0  0  0
   59.5050   34.0110   47.3330 C   0  0  0  0  0  0  0  0  0  0  0  0
   59.8910   35.1020   46.5650 C   0  0  0  0  0  0  0  0  0  0  0  0
   59.3730   35.3390   45.3110 C   0  0  0  0  0  0  0  0  0  0  0  0
   58.4420   34.4390   44.8390 C   0  0  0  0  0  0  0  0  0  0  0  0
   58.0500   33.3470   45.5980 C   0  0  0  0  0  0  0  0  0  0  0  0
   57.0330   32.3980   45.0370 C   0  0  0  0  0  0  0  0  0  0  0  0
   58.5740   33.1190   46.8500 C   0  0  0  0  0  0  0  0  0  0  0  0
   61.6890   31.9350   47.7580 C   0  0  0  0  0  0  0  0  0  0  0  0
   61.5620   30.4360   47.5090 C   0  0  0  0  0  0  0  0  0  0  0  0
   60.0530   27.8330   46.5670 C   0  0  0  0  0  0  0  0  0  0  0  0
   59.5560   26.8880   45.6610 C   0  0  0  0  0  0  0  0  0  0  0  0
   56.6550   25.4940   45.3430 N   0  0  0  0  0  0  0  0  0  0  0  0
   55.8240   24.5260   45.8260 C   0  0  0  0  0  0  0  0  0  0  0  0
   55.6560   23.3930   45.0610 C   0  0  0  0  0  0  0  0  0  0  0  0
   54.7410   22.3470   45.6100 C   0  0  0  0  0  0  0  0  0  0  0  0
   57.3817   20.7409   44.0039 H   0  0  0  0  0  0  0  0  0  0  0  0
   56.6502   20.2078   42.4523 H   0  0  0  0  0  0  0  0  0  0  0  0
   57.9593   21.4378   42.4523 H   0  0  0  0  0  0  0  0  0  0  0  0
   57.4432   28.8803   43.9186 H   0  0  0  0  0  0  0  0  0  0  0  0
   58.3446   30.5211   45.5326 H   0  0  0  0  0  0  0  0  0  0  0  0
   58.6617   31.4163   48.0616 H   0  0  0  0  0  0  0  0  0  0  0  0
   58.7033   29.9005   49.0094 H   0  0  0  0  0  0  0  0  0  0  0  0
   59.5911   31.7758   50.2999 H   0  0  0  0  0  0  0  0  0  0  0  0
   60.8846   30.5394   49.9121 H   0  0  0  0  0  0  0  0  0  0  0  0
   60.6363   35.8010   46.9724 H   0  0  0  0  0  0  0  0  0  0  0  0
   59.6880   36.2071   44.7134 H   0  0  0  0  0  0  0  0  0  0  0  0
   58.0020   34.5898   43.8422 H   0  0  0  0  0  0  0  0  0  0  0  0
   56.5008   31.9014   45.8617 H   0  0  0  0  0  0  0  0  0  0  0  0
   56.3134   32.9550   44.4189 H   0  0  0  0  0  0  0  0  0  0  0  0
   57.5389   31.6417   44.4189 H   0  0  0  0  0  0  0  0  0  0  0  0
   58.2586   32.2504   47.4467 H   0  0  0  0  0  0  0  0  0  0  0  0
   61.2230   32.4735   46.9196 H   0  0  0  0  0  0  0  0  0  0  0  0
   62.7597   32.1724   47.8427 H   0  0  0  0  0  0  0  0  0  0  0  0
   62.0272   30.1878   46.5436 H   0  0  0  0  0  0  0  0  0  0  0  0
   62.0681   29.8942   48.3216 H   0  0  0  0  0  0  0  0  0  0  0  0
   60.7964   27.5274   47.3180 H   0  0  0  0  0  0  0  0  0  0  0  0
   59.9099   25.8474   45.7041 H   0  0  0  0  0  0  0  0  0  0  0  0
   56.7490   26.3320   45.9610 H   0  0  0  0  0  0  0  0  0  0  0  0
   55.3077   24.6457   46.7899 H   0  0  0  0  0  0  0  0  0  0  0  0
   54.7674   22.3771   46.7093 H   0  0  0  0  0  0  0  0  0  0  0  0
   53.7150   22.5383   45.2624 H   0  0  0  0  0  0  0  0  0  0  0  0
   55.0670   21.3556   45.2624 H   0  0  0  0  0  0  0  0  0  0  0  0
  1  2  1  0
  2  3  1  0
  3  4  2  0
  4  5  1  0
  5  6  2  0
  6  7  1  0
  7  8  2  0
  8  9  1  0
  9 10  2  0
 10 11  1  0
 11 12  1  0
 12 13  1  0
 13 14  1  0
 14 15  1  0
 15 16  2  0
 15 17  2  0
 15 18  1  0
 18 19  2  0
 19 20  1  0
 20 21  2  0
 21 22  1  0
 22 23  1  0
 22 24  2  0
 14 25  1  0
 25 26  1  0
 10 27  1  0
 27 28  2  0
  5 29  1  0
 29 30  1  0
 30 31  2  0
 31 32  1  0
 31  3  1  0
 28  7  1  0
 26 11  1  0
 24 18  1  0
  1 33  1  0
  1 34  1  0
  1 35  1  0
  8 36  1  0
  9 37  1  0
 12 38  1  0
 12 39  1  0
 13 40  1  0
 13 41  1  0
 19 42  1  0
 20 43  1  0
 21 44  1  0
 23 45  1  0
 23 46  1  0
 23 47  1  0
 24 48  1  0
 25 49  1  0
 25 50  1  0
 26 51  1  0
 26 52  1  0
 27 53  1  0
 28 54  1  0
 29 55  1  0
 30 56  1  0
 32 57  1  0
 32 58  1  0
 32 59  1  0
M  END
>  <smiles>  (37) 
COc1nc(=Nc2ccc(N3CCN(S(=O)(=O)c4cccc(C)c4)CC3)cc2)[nH]cc1C

>  <score_type>  (37) 
oracle

>  <origin>  (37) 
adg

>  <m_score__min__energy>  (37) 
-9.3399999999999999

>  <m_primary>  (37) 
energy

$$$$
37:0
     RDKit          3D

 46 47  0  0  0  0  0  0  0  0999 V2000
   57.4160   33.7950   45.2520 C   0  0  0  0  0  0  0  0  0  0  0  0
   57.7360   32.3360   45.5400 C   0  0  0  0  0  0  0  0  0  0  0  0
   56.7010   31.5090   45.0200 O   0  0  0  0  0  0  0  0  0  0  0  0
   56.8280   30.8110   43.8150 C   0  0  0  0  0  0  0  0  0  0  0  0
   57.0250   31.4290   42.7340 O   0  0  0  0  0  0  0  0  0  0  0  0
   56.7380   29.3480   43.8130 C   0  0  0  0  0  0  0  0  0  0  0  0
   56.9630   28.7130   42.7480 O   0  0  0  0  0  0  0  0  0  0  0  0
   56.3390   28.6600   45.0060 N   0  0  0  0  0  0  0  0  0  0  0  0
   57.0470   27.5930   45.6530 C   0  0  0  0  0  0  0  0  0  0  0  0
   56.4270   26.3410   45.8080 C   0  0  0  0  0  0  0  0  0  0  0  0
   57.0970   25.2800   46.4130 C   0  0  0  0  0  0  0  0  0  0  0  0
   56.2840   23.7250   46.6240 S   0  0  0  0  0  0  0  0  0  0  0  0
   57.0140   22.9260   47.6680 O   0  0  0  0  0  0  0  0  0  0  0  0
   54.8820   23.9600   47.1160 O   0  0  0  0  0  0  0  0  0  0  0  0
   56.2270   22.8160   45.1340 N   0  0  0  0  0  0  0  0  0  0  0  0
   57.4940   22.1020   44.9160 C   0  0  0  0  0  0  0  0  0  0  0  0
   57.4170   21.2830   43.6110 C   0  0  0  0  0  0  0  0  0  0  0  0
   56.2460   21.5670   42.8650 O   0  0  0  0  0  0  0  0  0  0  0  0
   56.1350   22.9620   42.6580 C   0  0  0  0  0  0  0  0  0  0  0  0
   55.9430   23.7070   43.9960 C   0  0  0  0  0  0  0  0  0  0  0  0
   58.4150   25.4480   46.8390 C   0  0  0  0  0  0  0  0  0  0  0  0
   59.0800   26.6720   46.6620 C   0  0  0  0  0  0  0  0  0  0  0  0
   60.4520   26.7970   47.0940 N   0  0  0  0  0  0  0  0  0  0  0  0
   61.3790   26.3650   46.3790 O   0  0  0  0  0  0  0  0  0  0  0  0
   60.7730   27.4750   48.2470 O   0  0  0  0  0  0  0  0  0  0  0  0
   58.3940   27.7650   46.0770 C   0  0  0  0  0  0  0  0  0  0  0  0
   59.0900   28.9870   45.9730 O   0  0  0  0  0  0  0  0  0  0  0  0
   60.0800   29.3390   45.0130 C   0  0  0  0  0  0  0  0  0  0  0  0
   57.2968   34.3385   46.2009 H   0  0  0  0  0  0  0  0  0  0  0  0
   58.2372   34.2432   44.6734 H   0  0  0  0  0  0  0  0  0  0  0  0
   56.4826   33.8584   44.6734 H   0  0  0  0  0  0  0  0  0  0  0  0
   58.6913   32.0698   45.0641 H   0  0  0  0  0  0  0  0  0  0  0  0
   57.8121   32.1862   46.6271 H   0  0  0  0  0  0  0  0  0  0  0  0
   55.3981   26.1970   45.4464 H   0  0  0  0  0  0  0  0  0  0  0  0
   58.3150   22.8303   44.8417 H   0  0  0  0  0  0  0  0  0  0  0  0
   57.6762   21.4213   45.7607 H   0  0  0  0  0  0  0  0  0  0  0  0
   58.2958   21.5191   42.9930 H   0  0  0  0  0  0  0  0  0  0  0  0
   57.3916   20.2177   43.8838 H   0  0  0  0  0  0  0  0  0  0  0  0
   57.0513   23.3273   42.1713 H   0  0  0  0  0  0  0  0  0  0  0  0
   55.2580   23.1529   42.0220 H   0  0  0  0  0  0  0  0  0  0  0  0
   56.6275   24.5674   44.0316 H   0  0  0  0  0  0  0  0  0  0  0  0
   54.8990   24.0465   44.0649 H   0  0  0  0  0  0  0  0  0  0  0  0
   58.9404   24.6099   47.3202 H   0  0  0  0  0  0  0  0  0  0  0  0
   60.9942   29.6640   45.5313 H   0  0  0  0  0  0  0  0  0  0  0  0
   60.3064   28.4663   44.3829 H   0  0  0  0  0  0  0  0  0  0  0  0
   59.7046   30.1588   44.3829 H   0  0  0  0  0  0  0  0  0  0  0  0
  1  2  1  0
  2  3  1  0
  3  4  1  0
  4  5  2  0
  4  6  1  0
  6  7  2  0
  6  8  1  0
  8  9  1  0
  9 10  2  0
 10 11  1  0
 11 12  1  0
 12 13  2  0
 12 14  2  0
 12 15  1  0
 15 16  1  0
 16 17  1  0
 17 18  1  0
 18 19  1  0
 19 20  1  0
 11 21  2  0
 21 22  1  0
 22 23  1  0
 23 24  2  0
 23 25  1  0
 22 26  2  0
 26 27  1  0
 27 28  1  0
 26  9  1  0
 20 15  1  0
  1 29  1  0
  1 30  1  0
  1 31  1  0
  2 32  1  0
  2 33  1  0
 10 34  1  0
 16 35  1  0
 16 36  1  0
 17 37  1  0
 17 38  1  0
 19 39  1  0
 19 40  1  0
 20 41  1  0
 20 42  1  0
 21 43  1  0
 28 44  1  0
 28 45  1  0
 28 46  1  0
M  CHG  3   8  -1  23   1  25  -1
M  END
>  <UniqueID>  (38) 
33

>  <SMILES>  (38) 
CCOC(=O)C(=O)[N-]c1cc(S(=O)(=O)N2CCOCC2)cc([N+](=O)[O-])c1OC

>  <Energy>  (38) 
55.651219519345645

>  <Genealogy>  (38) 
CCOC(=O)C(=O)[N-]c1cc(S(=O)(=O)N2CCOCC2)cc([N+](=O)[O-])c1OC (protonated)
CCOC(=O)C(=O)[N-]c1cc(S(=O)(=O)N2CCOCC2)cc([N+](=O)[O-])c1OC (3D coordinates assigned)
CCOC(=O)C(=O)[N-]c1cc(S(=O)(=O)N2CCOCC2)cc([N+](=O)[O-])c1OC (nonaromatic ring conformer: 55.651219519345645 kcal/mol)

>  <smiles>  (38) 
CCOC(=O)C(=O)Nc1cc(S(=O)(=O)N2CCOCC2)cc([N+](=O)[O-])c1OC

>  <score_type>  (38) 
oracle

>  <origin>  (38) 
adg

>  <m_score__min__energy>  (38) 
-9.7300000000000004

>  <m_primary>  (38) 
energy

$$$$
38:0
     RDKit          3D

 36 38  0  0  0  0  0  0  0  0999 V2000
   58.5010   27.4990   45.5700 S   0  0  0  0  0  0  0  0  0  0  0  0
   57.7670   28.9310   45.2150 C   0  0  0  0  0  0  0  0  0  0  0  0
   56.7340   29.1220   44.3800 N   0  0  0  0  0  0  0  0  0  0  0  0
   56.4890   30.4200   44.4120 N   0  0  0  0  0  0  0  0  0  0  0  0
   57.3350   31.0570   45.2420 C   0  0  0  0  0  0  0  0  0  0  0  0
   57.4170   32.5070   45.5770 C   0  0  0  0  0  0  0  0  0  0  0  0
   58.6510   33.2540   44.4410 S   0  0  0  0  0  0  0  0  0  0  0  0
   59.2690   34.7800   45.2110 C   0  0  0  0  0  0  0  0  0  0  0  0
   59.9210   34.4720   46.5020 C   0  0  0  0  0  0  0  0  0  0  0  0
   59.3000   34.5250   47.7220 C   0  0  0  0  0  0  0  0  0  0  0  0
   59.9140   34.2400   48.9210 C   0  0  0  0  0  0  0  0  0  0  0  0
   61.2530   33.8740   48.8910 C   0  0  0  0  0  0  0  0  0  0  0  0
   61.9270   33.8040   47.6800 C   0  0  0  0  0  0  0  0  0  0  0  0
   61.2640   34.1010   46.5050 C   0  0  0  0  0  0  0  0  0  0  0  0
   58.1510   30.1110   45.7560 N   0  0  0  0  0  0  0  0  0  0  0  0
   59.2120   30.2860   46.6850 C   0  0  0  0  0  0  0  0  0  0  0  0
   60.5360   30.4040   46.3190 C   0  0  0  0  0  0  0  0  0  0  0  0
   61.4790   30.5720   47.3300 C   0  0  0  0  0  0  0  0  0  0  0  0
   61.1080   30.6200   48.6710 C   0  0  0  0  0  0  0  0  0  0  0  0
   62.2690   30.8280   49.9530 Cl  0  0  0  0  0  0  0  0  0  0  0  0
   59.7630   30.4980   49.0220 C   0  0  0  0  0  0  0  0  0  0  0  0
   58.8420   30.3340   48.0280 C   0  0  0  0  0  0  0  0  0  0  0  0
   56.2520   28.3610   43.8340 H   0  0  0  0  0  0  0  0  0  0  0  0
   56.4358   32.9834   45.4344 H   0  0  0  0  0  0  0  0  0  0  0  0
   57.7135   32.6504   46.6265 H   0  0  0  0  0  0  0  0  0  0  0  0
   59.9988   35.2561   44.5397 H   0  0  0  0  0  0  0  0  0  0  0  0
   58.4233   35.4605   45.3890 H   0  0  0  0  0  0  0  0  0  0  0  0
   58.2391   34.8148   47.7453 H   0  0  0  0  0  0  0  0  0  0  0  0
   59.3623   34.3003   49.8707 H   0  0  0  0  0  0  0  0  0  0  0  0
   61.7799   33.6394   49.8277 H   0  0  0  0  0  0  0  0  0  0  0  0
   62.9874   33.5125   47.6557 H   0  0  0  0  0  0  0  0  0  0  0  0
   61.8083   34.0433   45.5508 H   0  0  0  0  0  0  0  0  0  0  0  0
   60.8380   30.3666   45.2619 H   0  0  0  0  0  0  0  0  0  0  0  0
   62.5416   30.6690   47.0628 H   0  0  0  0  0  0  0  0  0  0  0  0
   59.4518   30.5332   50.0765 H   0  0  0  0  0  0  0  0  0  0  0  0
   57.7791   30.2371   48.2940 H   0  0  0  0  0  0  0  0  0  0  0  0
  1  2  2  0
  2  3  1  0
  3  4  1  0
  4  5  2  0
  5  6  1  0
  6  7  1  0
  7  8  1  0
  8  9  1  0
  9 10  2  0
 10 11  1  0
 11 12  2  0
 12 13  1  0
 13 14  2  0
  5 15  1  0
 15 16  1  0
 16 17  2  0
 17 18  1  0
 18 19  2  0
 19 20  1  0
 19 21  1  0
 21 22  2  0
 15  2  1  0
 22 16  1  0
 14  9  1  0
  3 23  1  0
  6 24  1  0
  6 25  1  0
  8 26  1  0
  8 27  1  0
 10 28  1  0
 11 29  1  0
 12 30  1  0
 13 31  1  0
 14 32  1  0
 17 33  1  0
 18 34  1  0
 21 35  1  0
 22 36  1  0
M  END
>  <smiles>  (39) 
S=c1[nH]nc(CSCc2ccccc2)n1-c1ccc(Cl)cc1

>  <score_type>  (39) 
oracle

>  <origin>  (39) 
adg

>  <m_score__min__energy>  (39) 
-7.6100000000000003

>  <m_primary>  (39) 
energy

$$$$
39:0
     RDKit          3D

 44 47  0  0  0  0  0  0  0  0999 V2000
   64.1040   33.2740   47.1890 F   0  0  0  0  0  0  0  0  0  0  0  0
   62.9350   33.6040   47.7900 C   0  0  0  0  0  0  0  0  0  0  0  0
   61.8000   33.8240   47.0020 C   0  0  0  0  0  0  0  0  0  0  0  0
   60.5640   34.1220   47.5990 C   0  0  0  0  0  0  0  0  0  0  0  0
   59.3920   34.3780   46.8050 N   0  0  0  0  0  0  0  0  0  0  0  0
   58.8010   33.4280   45.9010 C   0  0  0  0  0  0  0  0  0  0  0  0
   58.3690   33.8580   44.6380 C   0  0  0  0  0  0  0  0  0  0  0  0
   57.7700   32.9640   43.7480 C   0  0  0  0  0  0  0  0  0  0  0  0
   57.5800   31.6240   44.1140 C   0  0  0  0  0  0  0  0  0  0  0  0
   56.9790   30.7170   43.2280 C   0  0  0  0  0  0  0  0  0  0  0  0
   56.7870   29.3860   43.6100 C   0  0  0  0  0  0  0  0  0  0  0  0
   57.1900   28.9520   44.8760 C   0  0  0  0  0  0  0  0  0  0  0  0
   57.7890   29.8460   45.7680 C   0  0  0  0  0  0  0  0  0  0  0  0
   57.9910   31.1850   45.3960 C   0  0  0  0  0  0  0  0  0  0  0  0
   58.5900   32.0910   46.2840 C   0  0  0  0  0  0  0  0  0  0  0  0
   60.4880   34.2310   48.9940 C   0  0  0  0  0  0  0  0  0  0  0  0
   61.6180   34.0100   49.7850 C   0  0  0  0  0  0  0  0  0  0  0  0
   62.8500   33.6960   49.1910 C   0  0  0  0  0  0  0  0  0  0  0  0
   64.0120   33.4770   50.0100 N   0  0  0  0  0  0  0  0  0  0  0  0
   64.1490   34.2200   51.2670 C   0  0  0  0  0  0  0  0  0  0  0  0
   65.4050   33.7780   52.0250 C   0  0  0  0  0  0  0  0  0  0  0  0
   66.5410   33.6700   51.1030 N   0  0  0  0  0  0  0  0  0  0  0  0
   66.3480   32.6240   50.0800 C   0  0  0  0  0  0  0  0  0  0  0  0
   64.8700   32.3140   49.7580 C   0  0  0  0  0  0  0  0  0  0  0  0
   61.8762   33.7631   45.9063 H   0  0  0  0  0  0  0  0  0  0  0  0
   58.9410   35.3170   46.8890 H   0  0  0  0  0  0  0  0  0  0  0  0
   58.5033   34.9099   44.3455 H   0  0  0  0  0  0  0  0  0  0  0  0
   57.4461   33.3124   42.7562 H   0  0  0  0  0  0  0  0  0  0  0  0
   56.6584   31.0538   42.2311 H   0  0  0  0  0  0  0  0  0  0  0  0
   56.3171   28.6778   42.9117 H   0  0  0  0  0  0  0  0  0  0  0  0
   57.0353   27.9037   45.1713 H   0  0  0  0  0  0  0  0  0  0  0  0
   58.1029   29.4999   46.7638 H   0  0  0  0  0  0  0  0  0  0  0  0
   58.8964   31.7540   47.2853 H   0  0  0  0  0  0  0  0  0  0  0  0
   59.5313   34.4926   49.4698 H   0  0  0  0  0  0  0  0  0  0  0  0
   61.5416   34.0825   50.8799 H   0  0  0  0  0  0  0  0  0  0  0  0
   64.2213   35.2949   51.0447 H   0  0  0  0  0  0  0  0  0  0  0  0
   63.2685   34.0176   51.8945 H   0  0  0  0  0  0  0  0  0  0  0  0
   65.6386   34.5184   52.8043 H   0  0  0  0  0  0  0  0  0  0  0  0
   65.2203   32.7955   52.4839 H   0  0  0  0  0  0  0  0  0  0  0  0
   66.6700   34.5930   50.6250 H   0  0  0  0  0  0  0  0  0  0  0  0
   66.8405   32.9536   49.1533 H   0  0  0  0  0  0  0  0  0  0  0  0
   66.7814   31.6996   50.4895 H   0  0  0  0  0  0  0  0  0  0  0  0
   64.7864   32.0304   48.6985 H   0  0  0  0  0  0  0  0  0  0  0  0
   64.5388   31.4918   50.4094 H   0  0  0  0  0  0  0  0  0  0  0  0
  1  2  1  0
  2  3  2  0
  3  4  1  0
  4  5  1  0
  5  6  1  0
  6  7  2  0
  7  8  1  0
  8  9  2  0
  9 10  1  0
 10 11  2  0
 11 12  1  0
 12 13  2  0
 13 14  1  0
 14 15  2  0
  4 16  2  0
 16 17  1  0
 17 18  2  0
 18 19  1  0
 19 20  1  0
 20 21  1  0
 21 22  1  0
 22 23  1  0
 23 24  1  0
 18  2  1  0
 24 19  1  0
 15  6  1  0
 14  9  1  0
  3 25  1  0
  5 26  1  0
  7 27  1  0
  8 28  1  0
 10 29  1  0
 11 30  1  0
 12 31  1  0
 13 32  1  0
 15 33  1  0
 16 34  1  0
 17 35  1  0
 20 36  1  0
 20 37  1  0
 21 38  1  0
 21 39  1  0
 22 40  1  0
 23 41  1  0
 23 42  1  0
 24 43  1  0
 24 44  1  0
M  END
>  <UniqueID>  (40) 
34

>  <SMILES>  (40) 
Fc1cc(Nc2ccc3ccccc3c2)ccc1N1CCNCC1

>  <Energy>  (40) 
64.87200017390563

>  <Genealogy>  (40) 
Fc1cc(Nc2ccc3ccccc3c2)ccc1N1CCNCC1 (3D coordinates assigned)
Fc1cc(Nc2ccc3ccccc3c2)ccc1N1CCNCC1 (nonaromatic ring conformer: 64.87200017390563 kcal/mol)

>  <smiles>  (40) 
Fc1cc(Nc2ccc3ccccc3c2)ccc1N1CCNCC1

>  <score_type>  (40) 
oracle

>  <origin>  (40) 
adg

>  <m_score__min__energy>  (40) 
-7.8799999999999999

>  <m_primary>  (40) 
energy

$$$$
40:0
     RDKit          3D

 37 39  0  0  0  0  0  0  0  0999 V2000
   55.5010   26.7130   46.0520 O   0  0  0  0  0  0  0  0  0  0  0  0
   56.6300   27.0830   45.6280 C   0  0  0  0  0  0  0  0  0  0  0  0
   56.7520   28.3450   45.0400 C   0  0  0  0  0  0  0  0  0  0  0  0
   57.9870   28.7690   44.5420 C   0  0  0  0  0  0  0  0  0  0  0  0
   58.1080   30.0780   43.9610 N   0  0  0  0  0  0  0  0  0  0  0  0
   58.1820   31.2990   44.7170 C   0  0  0  0  0  0  0  0  0  0  0  0
   57.7900   32.5060   44.1180 C   0  0  0  0  0  0  0  0  0  0  0  0
   57.8790   33.7090   44.8260 C   0  0  0  0  0  0  0  0  0  0  0  0
   58.3740   33.7170   46.1340 C   0  0  0  0  0  0  0  0  0  0  0  0
   58.4620   34.8840   46.8190 F   0  0  0  0  0  0  0  0  0  0  0  0
   58.7880   32.5240   46.7300 C   0  0  0  0  0  0  0  0  0  0  0  0
   58.7010   31.3200   46.0250 C   0  0  0  0  0  0  0  0  0  0  0  0
   59.0970   27.9250   44.6790 C   0  0  0  0  0  0  0  0  0  0  0  0
   58.9440   26.6710   45.2710 C   0  0  0  0  0  0  0  0  0  0  0  0
   57.7250   26.2610   45.7400 N   0  0  0  0  0  0  0  0  0  0  0  0
   57.6040   24.9150   46.3230 C   0  0  0  0  0  0  0  0  0  0  0  0
   57.3800   23.8950   45.2390 C   0  0  0  0  0  0  0  0  0  0  0  0
   58.2290   22.7800   45.1310 C   0  0  0  0  0  0  0  0  0  0  0  0
   58.0440   21.8500   44.1040 C   0  0  0  0  0  0  0  0  0  0  0  0
   57.0160   22.0280   43.1740 C   0  0  0  0  0  0  0  0  0  0  0  0
   56.1720   23.1390   43.2690 C   0  0  0  0  0  0  0  0  0  0  0  0
   56.3540   24.0720   44.2940 C   0  0  0  0  0  0  0  0  0  0  0  0
   55.8750   29.0052   44.9691 H   0  0  0  0  0  0  0  0  0  0  0  0
   58.1460   30.1480   42.9180 H   0  0  0  0  0  0  0  0  0  0  0  0
   57.4105   32.5060   43.0855 H   0  0  0  0  0  0  0  0  0  0  0  0
   57.5594   34.6496   44.3536 H   0  0  0  0  0  0  0  0  0  0  0  0
   59.1834   32.5316   47.7564 H   0  0  0  0  0  0  0  0  0  0  0  0
   59.0397   30.3848   46.4947 H   0  0  0  0  0  0  0  0  0  0  0  0
   60.0852   28.2498   44.3212 H   0  0  0  0  0  0  0  0  0  0  0  0
   59.8136   26.0035   45.3620 H   0  0  0  0  0  0  0  0  0  0  0  0
   58.5287   24.6703   46.8662 H   0  0  0  0  0  0  0  0  0  0  0  0
   56.7469   24.8991   47.0123 H   0  0  0  0  0  0  0  0  0  0  0  0
   59.0425   22.6387   45.8578 H   0  0  0  0  0  0  0  0  0  0  0  0
   58.7085   20.9767   44.0276 H   0  0  0  0  0  0  0  0  0  0  0  0
   56.8708   21.2943   42.3674 H   0  0  0  0  0  0  0  0  0  0  0  0
   55.3637   23.2789   42.5361 H   0  0  0  0  0  0  0  0  0  0  0  0
   55.6920   24.9479   44.3615 H   0  0  0  0  0  0  0  0  0  0  0  0
  1  2  2  0
  2  3  1  0
  3  4  2  0
  4  5  1  0
  5  6  1  0
  6  7  2  0
  7  8  1  0
  8  9  2  0
  9 10  1  0
  9 11  1  0
 11 12  2  0
  4 13  1  0
 13 14  2  0
 14 15  1  0
 15 16  1  0
 16 17  1  0
 17 18  2  0
 18 19  1  0
 19 20  2  0
 20 21  1  0
 21 22  2  0
 15  2  1  0
 22 17  1  0
 12  6  1  0
  3 23  1  0
  5 24  1  0
  7 25  1  0
  8 26  1  0
 11 27  1  0
 12 28  1  0
 13 29  1  0
 14 30  1  0
 16 31  1  0
 16 32  1  0
 18 33  1  0
 19 34  1  0
 20 35  1  0
 21 36  1  0
 22 37  1  0
M  END
>  <UniqueID>  (41) 
35

>  <SMILES>  (41) 
O=c1cc(Nc2ccc(F)cc2)ccn1Cc1ccccc1

>  <Energy>  (41) 
46.67090407281665

>  <Genealogy>  (41) 
O=c1cc(Nc2ccc(F)cc2)ccn1Cc1ccccc1 (3D coordinates assigned)
O=c1cc(Nc2ccc(F)cc2)ccn1Cc1ccccc1 (optimized conformer: 46.67090407281665 kcal/mol)

>  <smiles>  (41) 
O=c1cc(Nc2ccc(F)cc2)ccn1Cc1ccccc1

>  <score_type>  (41) 
oracle

>  <origin>  (41) 
adg

>  <m_score__min__energy>  (41) 
-7.2400000000000002

>  <m_primary>  (41) 
energy

$$$$
41:0
     RDKit          3D

 59 63  0  0  0  0  0  0  0  0999 V2000
   50.7040   32.2890   51.8180 N   0  0  0  0  0  0  0  0  0  0  0  0
   52.0400   31.1980   51.7230 S   0  0  0  0  0  0  0  0  0  0  0  0
   53.3280   31.9600   51.8580 O   0  0  0  0  0  0  0  0  0  0  0  0
   52.0270   30.5230   50.3800 O   0  0  0  0  0  0  0  0  0  0  0  0
   51.9120   29.9850   53.0080 C   0  0  0  0  0  0  0  0  0  0  0  0
   50.6340   29.5500   53.3990 C   0  0  0  0  0  0  0  0  0  0  0  0
   50.4880   28.5600   54.3740 C   0  0  0  0  0  0  0  0  0  0  0  0
   51.6140   27.9930   54.9690 C   0  0  0  0  0  0  0  0  0  0  0  0
   52.8900   28.4210   54.6010 C   0  0  0  0  0  0  0  0  0  0  0  0
   53.0540   29.4240   53.6310 C   0  0  0  0  0  0  0  0  0  0  0  0
   54.4250   29.8600   53.2990 C   0  0  0  0  0  0  0  0  0  0  0  0
   54.9180   29.7370   51.9940 C   0  0  0  0  0  0  0  0  0  0  0  0
   56.1740   30.1620   51.6960 N   0  0  0  0  0  0  0  0  0  0  0  0
   56.9960   30.7090   52.6340 C   0  0  0  0  0  0  0  0  0  0  0  0
   58.2980   31.1800   52.2430 N   0  0  0  0  0  0  0  0  0  0  0  0
   59.0770   30.4150   51.2580 C   0  0  0  0  0  0  0  0  0  0  0  0
   59.9000   31.3560   50.3560 C   0  0  0  0  0  0  0  0  0  0  0  0
   59.1830   32.7120   50.2080 C   0  0  0  0  0  0  0  0  0  0  0  0
   59.8630   33.5880   49.1350 C   0  0  0  0  0  0  0  0  0  0  0  0
   58.8900   34.2110   48.2360 N   0  0  0  0  0  0  0  0  0  0  0  0
   58.9120   34.2160   46.8010 C   0  0  0  0  0  0  0  0  0  0  0  0
   59.2410   35.2740   46.2060 O   0  0  0  0  0  0  0  0  0  0  0  0
   58.5040   33.0530   45.9980 C   0  0  0  0  0  0  0  0  0  0  0  0
   58.6820   31.7090   46.3300 C   0  0  0  0  0  0  0  0  0  0  0  0
   58.1120   30.8500   45.3850 C   0  0  0  0  0  0  0  0  0  0  0  0
   58.1030   29.4530   45.4400 C   0  0  0  0  0  0  0  0  0  0  0  0
   57.4700   28.7390   44.4080 C   0  0  0  0  0  0  0  0  0  0  0  0
   57.4460   27.3840   44.4420 F   0  0  0  0  0  0  0  0  0  0  0  0
   56.8560   29.4240   43.3390 C   0  0  0  0  0  0  0  0  0  0  0  0
   56.8730   30.8260   43.2920 C   0  0  0  0  0  0  0  0  0  0  0  0
   57.5090   31.5110   44.3250 C   0  0  0  0  0  0  0  0  0  0  0  0
   57.6690   33.1680   44.5290 S   0  0  0  0  0  0  0  0  0  0  0  0
   59.0990   33.4270   51.5790 C   0  0  0  0  0  0  0  0  0  0  0  0
   58.8460   32.4470   52.7430 C   0  0  0  0  0  0  0  0  0  0  0  0
   56.5250   30.8770   53.9500 C   0  0  0  0  0  0  0  0  0  0  0  0
   57.2760   31.4950   54.8940 F   0  0  0  0  0  0  0  0  0  0  0  0
   55.2360   30.4500   54.2740 C   0  0  0  0  0  0  0  0  0  0  0  0
   50.2720   32.3260   50.8680 H   0  0  0  0  0  0  0  0  0  0  0  0
   49.7411   29.9928   52.9334 H   0  0  0  0  0  0  0  0  0  0  0  0
   49.4829   28.2274   54.6726 H   0  0  0  0  0  0  0  0  0  0  0  0
   51.4964   27.2071   55.7296 H   0  0  0  0  0  0  0  0  0  0  0  0
   53.7745   27.9696   55.0741 H   0  0  0  0  0  0  0  0  0  0  0  0
   54.2872   29.2954   51.2084 H   0  0  0  0  0  0  0  0  0  0  0  0
   59.7606   29.7359   51.7886 H   0  0  0  0  0  0  0  0  0  0  0  0
   58.3806   29.8436   50.6267 H   0  0  0  0  0  0  0  0  0  0  0  0
   60.8909   31.5160   50.8059 H   0  0  0  0  0  0  0  0  0  0  0  0
   60.0088   30.8968   49.3623 H   0  0  0  0  0  0  0  0  0  0  0  0
   58.1544   32.5315   49.8625 H   0  0  0  0  0  0  0  0  0  0  0  0
   60.4402   34.3790   49.6362 H   0  0  0  0  0  0  0  0  0  0  0  0
   60.5154   32.9397   48.5317 H   0  0  0  0  0  0  0  0  0  0  0  0
   59.2100   31.3649   47.2315 H   0  0  0  0  0  0  0  0  0  0  0  0
   58.5826   28.9223   46.2757 H   0  0  0  0  0  0  0  0  0  0  0  0
   56.3610   28.8558   42.5376 H   0  0  0  0  0  0  0  0  0  0  0  0
   56.3973   31.3695   42.4624 H   0  0  0  0  0  0  0  0  0  0  0  0
   60.0477   33.9531   51.7610 H   0  0  0  0  0  0  0  0  0  0  0  0
   58.2498   34.1251   51.5399 H   0  0  0  0  0  0  0  0  0  0  0  0
   59.7954   32.2501   53.2625 H   0  0  0  0  0  0  0  0  0  0  0  0
   58.1198   32.8986   53.4349 H   0  0  0  0  0  0  0  0  0  0  0  0
   54.8571   30.5779   55.2987 H   0  0  0  0  0  0  0  0  0  0  0  0
  1  2  1  0
  2  3  2  0
  2  4  2  0
  2  5  1  0
  5  6  2  0
  6  7  1  0
  7  8  2  0
  8  9  1  0
  9 10  2  0
 10 11  1  0
 11 12  2  0
 12 13  1  0
 13 14  2  0
 14 15  1  0
 15 16  1  0
 16 17  1  0
 17 18  1  0
 18 19  1  0
 19 20  1  0
 20 21  1  0
 21 22  2  0
 21 23  1  0
 23 24  2  0
 24 25  1  0
 25 26  2  0
 26 27  1  0
 27 28  1  0
 27 29  2  0
 29 30  1  0
 30 31  2  0
 31 32  1  0
 18 33  1  0
 33 34  1  0
 14 35  1  0
 35 36  1  0
 35 37  2  0
 10  5  1  0
 37 11  1  0
 34 15  1  0
 32 23  1  0
 31 25  1  0
  1 38  1  0
  6 39  1  0
  7 40  1  0
  8 41  1  0
  9 42  1  0
 12 43  1  0
 16 44  1  0
 16 45  1  0
 17 46  1  0
 17 47  1  0
 18 48  1  0
 19 49  1  0
 19 50  1  0
 24 51  1  0
 26 52  1  0
 29 53  1  0
 30 54  1  0
 33 55  1  0
 33 56  1  0
 34 57  1  0
 34 58  1  0
 37 59  1  0
M  CHG  2   1  -1  20  -1
M  END
>  <UniqueID>  (42) 
36

>  <SMILES>  (42) 
[NH-]S(=O)(=O)c1ccccc1-c1cnc(N2CCC(C[N-]C(=O)c3cc4cc(F)ccc4s3)CC2)c(F)c1

>  <Energy>  (42) 
111.83171326874259

>  <Genealogy>  (42) 
[NH-]S(=O)(=O)c1ccccc1-c1cnc(N2CCC(C[N-]C(=O)c3cc4cc(F)ccc4s3)CC2)c(F)c1 (protonated)
[NH-]S(=O)(=O)c1ccccc1-c1cnc(N2CCC(C[N-]C(=O)c3cc4cc(F)ccc4s3)CC2)c(F)c1 (3D coordinates assigned)
[NH-]S(=O)(=O)c1ccccc1-c1cnc(N2CCC(C[N-]C(=O)c3cc4cc(F)ccc4s3)CC2)c(F)c1 (nonaromatic ring conformer: 111.83171326874259 kcal/mol)

>  <smiles>  (42) 
NS(=O)(=O)c1ccccc1-c1cnc(N2CCC(CNC(=O)c3cc4cc(F)ccc4s3)CC2)c(F)c1

>  <score_type>  (42) 
oracle

>  <origin>  (42) 
adg

>  <m_score__min__energy>  (42) 
-13.77

>  <m_primary>  (42) 
energy

$$$$
42:0
     RDKit          3D

 56 58  0  0  0  0  0  0  0  0999 V2000
   58.1450   27.0470   42.9830 C   0  0  0  0  0  0  0  0  0  0  0  0
   57.4560   27.6900   44.0490 O   0  0  0  0  0  0  0  0  0  0  0  0
   57.5380   29.0620   44.3370 C   0  0  0  0  0  0  0  0  0  0  0  0
   56.5680   29.9810   43.8950 C   0  0  0  0  0  0  0  0  0  0  0  0
   56.7140   31.3450   44.1610 C   0  0  0  0  0  0  0  0  0  0  0  0
   57.8220   31.8100   44.8760 C   0  0  0  0  0  0  0  0  0  0  0  0
   58.0650   33.5360   45.1400 S   0  0  0  0  0  0  0  0  0  0  0  0
   59.0570   34.0770   44.1460 O   0  0  0  0  0  0  0  0  0  0  0  0
   56.7520   34.2420   44.9470 O   0  0  0  0  0  0  0  0  0  0  0  0
   58.6450   33.8050   46.7640 N   0  0  0  0  0  0  0  0  0  0  0  0
   58.1310   32.7520   47.6610 C   0  0  0  0  0  0  0  0  0  0  0  0
   58.9950   32.6510   48.9260 C   0  0  0  0  0  0  0  0  0  0  0  0
   60.3600   32.3340   48.6770 O   0  0  0  0  0  0  0  0  0  0  0  0
   60.7910   32.6560   47.3620 C   0  0  0  0  0  0  0  0  0  0  0  0
   60.1210   33.9210   46.7950 C   0  0  0  0  0  0  0  0  0  0  0  0
   58.7820   30.8990   45.3350 C   0  0  0  0  0  0  0  0  0  0  0  0
   58.6350   29.5290   45.0810 C   0  0  0  0  0  0  0  0  0  0  0  0
   59.6270   28.6160   45.5490 N   0  0  0  0  0  0  0  0  0  0  0  0
   60.1170   28.5820   46.8880 C   0  0  0  0  0  0  0  0  0  0  0  0
   60.9830   29.4290   47.2350 O   0  0  0  0  0  0  0  0  0  0  0  0
   59.6310   27.5690   47.8950 C   0  0  0  0  0  0  0  0  0  0  0  0
   58.1930   27.1200   47.6190 C   0  0  0  0  0  0  0  0  0  0  0  0
   58.1310   26.3420   46.3790 N   0  0  0  0  0  0  0  0  0  0  0  0
   56.6480   25.4450   46.3020 S   0  0  0  0  0  0  0  0  0  0  0  0
   56.3760   24.8350   47.6490 O   0  0  0  0  0  0  0  0  0  0  0  0
   55.5060   26.3610   45.9640 O   0  0  0  0  0  0  0  0  0  0  0  0
   56.7650   24.1560   45.1030 C   0  0  0  0  0  0  0  0  0  0  0  0
   57.8240   23.2340   45.1390 C   0  0  0  0  0  0  0  0  0  0  0  0
   57.9250   22.2380   44.1620 C   0  0  0  0  0  0  0  0  0  0  0  0
   56.9650   22.1450   43.1550 C   0  0  0  0  0  0  0  0  0  0  0  0
   55.9010   23.0570   43.1210 C   0  0  0  0  0  0  0  0  0  0  0  0
   55.7970   24.0550   44.0960 C   0  0  0  0  0  0  0  0  0  0  0  0
   58.8906   26.3512   43.3952 H   0  0  0  0  0  0  0  0  0  0  0  0
   57.4257   26.4897   42.3648 H   0  0  0  0  0  0  0  0  0  0  0  0
   58.6513   27.8030   42.3648 H   0  0  0  0  0  0  0  0  0  0  0  0
   55.6900   29.6235   43.3370 H   0  0  0  0  0  0  0  0  0  0  0  0
   55.9536   32.0563   43.8062 H   0  0  0  0  0  0  0  0  0  0  0  0
   57.0970   32.9943   47.9477 H   0  0  0  0  0  0  0  0  0  0  0  0
   58.1630   31.7883   47.1316 H   0  0  0  0  0  0  0  0  0  0  0  0
   58.9553   33.6180   49.4488 H   0  0  0  0  0  0  0  0  0  0  0  0
   58.5831   31.8253   49.5247 H   0  0  0  0  0  0  0  0  0  0  0  0
   61.8792   32.8155   47.3803 H   0  0  0  0  0  0  0  0  0  0  0  0
   60.5064   31.8164   46.7108 H   0  0  0  0  0  0  0  0  0  0  0  0
   60.3959   34.7801   47.4245 H   0  0  0  0  0  0  0  0  0  0  0  0
   60.4715   34.0547   45.7609 H   0  0  0  0  0  0  0  0  0  0  0  0
   59.6553   31.2609   45.8975 H   0  0  0  0  0  0  0  0  0  0  0  0
   60.2898   26.6889   47.8579 H   0  0  0  0  0  0  0  0  0  0  0  0
   59.6511   28.0438   48.8870 H   0  0  0  0  0  0  0  0  0  0  0  0
   57.8404   26.4983   48.4552 H   0  0  0  0  0  0  0  0  0  0  0  0
   57.5547   28.0098   47.5148 H   0  0  0  0  0  0  0  0  0  0  0  0
   58.1070   27.0090   45.5750 H   0  0  0  0  0  0  0  0  0  0  0  0
   58.5769   23.2954   45.9386 H   0  0  0  0  0  0  0  0  0  0  0  0
   58.7636   21.5266   44.1882 H   0  0  0  0  0  0  0  0  0  0  0  0
   57.0424   21.3586   42.3898 H   0  0  0  0  0  0  0  0  0  0  0  0
   55.1451   22.9878   42.3249 H   0  0  0  0  0  0  0  0  0  0  0  0
   54.9539   24.7611   44.0716 H   0  0  0  0  0  0  0  0  0  0  0  0
  1  2  1  0
  2  3  1  0
  3  4  2  0
  4  5  1  0
  5  6  2  0
  6  7  1  0
  7  8  2  0
  7  9  2  0
  7 10  1  0
 10 11  1  0
 11 12  1  0
 12 13  1  0
 13 14  1  0
 14 15  1  0
  6 16  1  0
 16 17  2  0
 17 18  1  0
 18 19  1  0
 19 20  2  0
 19 21  1  0
 21 22  1  0
 22 23  1  0
 23 24  1  0
 24 25  2  0
 24 26  2  0
 24 27  1  0
 27 28  2  0
 28 29  1  0
 29 30  2  0
 30 31  1  0
 31 32  2  0
 17  3  1  0
 32 27  1  0
 15 10  1  0
  1 33  1  0
  1 34  1  0
  1 35  1  0
  4 36  1  0
  5 37  1  0
 11 38  1  0
 11 39  1  0
 12 40  1  0
 12 41  1  0
 14 42  1  0
 14 43  1  0
 15 44  1  0
 15 45  1  0
 16 46  1  0
 21 47  1  0
 21 48  1  0
 22 49  1  0
 22 50  1  0
 23 51  1  0
 28 52  1  0
 29 53  1  0
 30 54  1  0
 31 55  1  0
 32 56  1  0
M  CHG  1  18  -1
M  END
>  <UniqueID>  (43) 
37

>  <SMILES>  (43) 
COc1ccc(S(=O)(=O)N2CCOCC2)cc1[N-]C(=O)CCNS(=O)(=O)c1ccccc1

>  <Energy>  (43) 
69.16928282854286

>  <Genealogy>  (43) 
COc1ccc(S(=O)(=O)N2CCOCC2)cc1[N-]C(=O)CCNS(=O)(=O)c1ccccc1 (protonated)
COc1ccc(S(=O)(=O)N2CCOCC2)cc1[N-]C(=O)CCNS(=O)(=O)c1ccccc1 (3D coordinates assigned)
COc1ccc(S(=O)(=O)N2CCOCC2)cc1[N-]C(=O)CCNS(=O)(=O)c1ccccc1 (nonaromatic ring conformer: 69.16928282854286 kcal/mol)

>  <smiles>  (43) 
COc1ccc(S(=O)(=O)N2CCOCC2)cc1NC(=O)CCNS(=O)(=O)c1ccccc1

>  <score_type>  (43) 
oracle

>  <origin>  (43) 
adg

>  <m_score__min__energy>  (43) 
-12.220000000000001

>  <m_primary>  (43) 
energy

$$$$
43:0
     RDKit          3D

 31 33  0  0  0  0  0  0  0  0999 V2000
   59.5840   35.3400   46.8870 C   0  0  0  0  0  0  0  0  0  0  0  0
   60.3790   34.0350   47.0540 C   0  0  1  0  0  0  0  0  0  0  0  0
   59.6490   32.9150   46.3010 C   0  0  0  0  0  0  0  0  0  0  0  0
   58.7370   33.2210   45.2670 C   0  0  0  0  0  0  0  0  0  0  0  0
   58.0400   32.2070   44.6030 C   0  0  0  0  0  0  0  0  0  0  0  0
   58.2210   30.8740   44.9720 C   0  0  0  0  0  0  0  0  0  0  0  0
   57.3420   29.6040   44.1400 Cl  0  0  0  0  0  0  0  0  0  0  0  0
   59.0910   30.5540   46.0160 C   0  0  0  0  0  0  0  0  0  0  0  0
   59.7900   31.5620   46.6830 C   0  0  0  0  0  0  0  0  0  0  0  0
   61.6620   34.2570   46.4470 O   0  0  0  0  0  0  0  0  0  0  0  0
   62.7720   33.4680   46.7470 C   0  0  0  0  0  0  0  0  0  0  0  0
   63.7770   33.4730   45.9890 O   0  0  0  0  0  0  0  0  0  0  0  0
   62.7720   32.6970   47.9450 N   0  0  0  0  0  0  0  0  0  0  0  0
   61.7330   32.9220   48.9020 C   0  0  0  0  0  0  0  0  0  0  0  0
   61.8900   32.4650   50.2180 C   0  0  0  0  0  0  0  0  0  0  0  0
   60.9210   32.7470   51.1820 C   0  0  0  0  0  0  0  0  0  0  0  0
   59.7900   33.4890   50.8390 C   0  0  0  0  0  0  0  0  0  0  0  0
   58.8510   33.7610   51.7780 F   0  0  0  0  0  0  0  0  0  0  0  0
   59.6170   33.9400   49.5280 C   0  0  0  0  0  0  0  0  0  0  0  0
   60.5810   33.6590   48.5360 C   0  0  0  0  0  0  0  0  0  0  0  0
   59.3358   35.7475   47.8781 H   0  0  0  0  0  0  0  0  0  0  0  0
   60.1907   36.0704   46.3317 H   0  0  0  0  0  0  0  0  0  0  0  0
   58.6567   35.1359   46.3317 H   0  0  0  0  0  0  0  0  0  0  0  0
   58.5730   34.2703   44.9804 H   0  0  0  0  0  0  0  0  0  0  0  0
   57.3470   32.4611   43.7874 H   0  0  0  0  0  0  0  0  0  0  0  0
   59.2263   29.5039   46.3142 H   0  0  0  0  0  0  0  0  0  0  0  0
   60.4587   31.2996   47.5161 H   0  0  0  0  0  0  0  0  0  0  0  0
   63.5940   32.0950   48.1770 H   0  0  0  0  0  0  0  0  0  0  0  0
   62.7812   31.8814   50.4921 H   0  0  0  0  0  0  0  0  0  0  0  0
   61.0488   32.3842   52.2126 H   0  0  0  0  0  0  0  0  0  0  0  0
   58.7199   34.5203   49.2661 H   0  0  0  0  0  0  0  0  0  0  0  0
  2  1  1  1
  2  3  1  0
  3  4  2  0
  4  5  1  0
  5  6  2  0
  6  7  1  0
  6  8  1  0
  8  9  2  0
  2 10  1  0
 10 11  1  0
 11 12  2  0
 11 13  1  0
 13 14  1  0
 14 15  2  0
 15 16  1  0
 16 17  2  0
 17 18  1  0
 17 19  1  0
 19 20  2  0
 20  2  1  0
  9  3  1  0
 20 14  1  0
  1 21  1  0
  1 22  1  0
  1 23  1  0
  4 24  1  0
  5 25  1  0
  8 26  1  0
  9 27  1  0
 13 28  1  0
 15 29  1  0
 16 30  1  0
 19 31  1  0
M  END
>  <UniqueID>  (44) 
38

>  <SMILES>  (44) 
C[C@@]1(c2ccc(Cl)cc2)OC(=O)Nc2ccc(F)cc21

>  <Energy>  (44) 
39.899710372434384

>  <Genealogy>  (44) 
C[C@@]1(c2ccc(Cl)cc2)OC(=O)Nc2ccc(F)cc21 (chirality)
C[C@@]1(c2ccc(Cl)cc2)OC(=O)Nc2ccc(F)cc21 (3D coordinates assigned)
C[C@@]1(c2ccc(Cl)cc2)OC(=O)Nc2ccc(F)cc21 (nonaromatic ring conformer: 39.899710372434384 kcal/mol)

>  <smiles>  (44) 
CC1(c2ccc(Cl)cc2)OC(=O)Nc2ccc(F)cc21

>  <score_type>  (44) 
oracle

>  <origin>  (44) 
adg

>  <m_score__min__energy>  (44) 
-6.5

>  <m_primary>  (44) 
energy

$$$$
44:0
     RDKit          3D

 52 54  0  0  0  0  0  0  0  0999 V2000
   63.3920   33.5980   46.6650 C   0  0  0  0  0  0  0  0  0  0  0  0
   63.5110   33.9340   48.0430 O   0  0  0  0  0  0  0  0  0  0  0  0
   63.9040   33.0410   49.0540 C   0  0  0  0  0  0  0  0  0  0  0  0
   65.1780   33.1130   49.6500 C   0  0  0  0  0  0  0  0  0  0  0  0
   65.5550   32.1890   50.6260 C   0  0  0  0  0  0  0  0  0  0  0  0
   64.6700   31.1850   51.0190 C   0  0  0  0  0  0  0  0  0  0  0  0
   63.4020   31.1060   50.4430 C   0  0  0  0  0  0  0  0  0  0  0  0
   63.0040   32.0350   49.4670 C   0  0  0  0  0  0  0  0  0  0  0  0
   61.6630   31.9160   48.8510 C   0  0  0  0  0  0  0  0  0  0  0  0
   61.4740   31.0260   47.7830 C   0  0  0  0  0  0  0  0  0  0  0  0
   60.2300   30.9280   47.1380 C   0  0  0  0  0  0  0  0  0  0  0  0
   60.0430   30.0100   45.9920 C   0  0  0  0  0  0  0  0  0  0  0  0
   61.0130   29.3140   45.5900 O   0  0  0  0  0  0  0  0  0  0  0  0
   58.7740   29.9280   45.3230 N   0  0  0  0  0  0  0  0  0  0  0  0
   58.4460   28.8640   44.3650 C   0  0  2  0  0  0  0  0  0  0  0  0
   57.2290   29.2590   43.5050 C   0  0  0  0  0  0  0  0  0  0  0  0
   56.1380   29.8490   44.3450 C   0  0  0  0  0  0  0  0  0  0  0  0
   56.1380   31.0820   44.6070 O   0  0  0  0  0  0  0  0  0  0  0  0
   55.1530   29.0290   44.8810 O   0  0  0  0  0  0  0  0  0  0  0  0
   58.2070   27.5540   45.0960 C   0  0  0  0  0  0  0  0  0  0  0  0
   58.1570   26.3520   44.3640 C   0  0  0  0  0  0  0  0  0  0  0  0
   57.9440   25.1310   45.0100 C   0  0  0  0  0  0  0  0  0  0  0  0
   57.7810   25.0900   46.3970 C   0  0  0  0  0  0  0  0  0  0  0  0
   57.8240   26.2710   47.1380 C   0  0  0  0  0  0  0  0  0  0  0  0
   58.0330   27.4990   46.4990 C   0  0  0  0  0  0  0  0  0  0  0  0
   58.0610   28.6240   47.2570 F   0  0  0  0  0  0  0  0  0  0  0  0
   59.1680   31.7340   47.5760 C   0  0  0  0  0  0  0  0  0  0  0  0
   59.3390   32.6040   48.6560 C   0  0  0  0  0  0  0  0  0  0  0  0
   60.5830   32.7020   49.3070 C   0  0  0  0  0  0  0  0  0  0  0  0
   60.7760   33.5570   50.4050 O   0  0  0  0  0  0  0  0  0  0  0  0
   59.8210   33.7760   51.4390 C   0  0  0  0  0  0  0  0  0  0  0  0
   63.0261   32.5650   46.5697 H   0  0  0  0  0  0  0  0  0  0  0  0
   62.6823   34.2845   46.1802 H   0  0  0  0  0  0  0  0  0  0  0  0
   64.3756   33.6848   46.1802 H   0  0  0  0  0  0  0  0  0  0  0  0
   65.8805   33.9024   49.3444 H   0  0  0  0  0  0  0  0  0  0  0  0
   66.5521   32.2527   51.0862 H   0  0  0  0  0  0  0  0  0  0  0  0
   64.9723   30.4547   51.7840 H   0  0  0  0  0  0  0  0  0  0  0  0
   62.7089   30.3109   50.7551 H   0  0  0  0  0  0  0  0  0  0  0  0
   62.3110   30.3967   47.4463 H   0  0  0  0  0  0  0  0  0  0  0  0
   58.1100   30.7230   45.4350 H   0  0  0  0  0  0  0  0  0  0  0  0
   59.2998   28.7245   43.6857 H   0  0  0  0  0  0  0  0  0  0  0  0
   57.5449   29.9999   42.7558 H   0  0  0  0  0  0  0  0  0  0  0  0
   56.8401   28.3533   43.0166 H   0  0  0  0  0  0  0  0  0  0  0  0
   58.2870   26.3743   43.2719 H   0  0  0  0  0  0  0  0  0  0  0  0
   57.9046   24.2002   44.4251 H   0  0  0  0  0  0  0  0  0  0  0  0
   57.6189   24.1274   46.9041 H   0  0  0  0  0  0  0  0  0  0  0  0
   57.6931   26.2373   48.2297 H   0  0  0  0  0  0  0  0  0  0  0  0
   58.1949   31.6806   47.0660 H   0  0  0  0  0  0  0  0  0  0  0  0
   58.4937   33.2178   49.0005 H   0  0  0  0  0  0  0  0  0  0  0  0
   60.3089   33.6641   52.4185 H   0  0  0  0  0  0  0  0  0  0  0  0
   59.4091   34.7919   51.3485 H   0  0  0  0  0  0  0  0  0  0  0  0
   59.0075   33.0411   51.3485 H   0  0  0  0  0  0  0  0  0  0  0  0
  1  2  1  0
  2  3  1  0
  3  4  2  0
  4  5  1  0
  5  6  2  0
  6  7  1  0
  7  8  2  0
  8  9  1  0
  9 10  2  0
 10 11  1  0
 11 12  1  0
 12 13  2  0
 12 14  1  0
 14 15  1  0
 15 16  1  0
 16 17  1  0
 17 18  2  0
 17 19  1  0
 15 20  1  0
 20 21  2  0
 21 22  1  0
 22 23  2  0
 23 24  1  0
 24 25  2  0
 25 26  1  0
 11 27  2  0
 27 28  1  0
 28 29  2  0
 29 30  1  0
 30 31  1  0
  8  3  1  0
 29  9  1  0
 25 20  1  0
  1 32  1  0
  1 33  1  0
  1 34  1  0
  4 35  1  0
  5 36  1  0
  6 37  1  0
  7 38  1  0
 10 39  1  0
 14 40  1  0
 15 41  1  6
 16 42  1  0
 16 43  1  0
 21 44  1  0
 22 45  1  0
 23 46  1  0
 24 47  1  0
 27 48  1  0
 28 49  1  0
 31 50  1  0
 31 51  1  0
 31 52  1  0
M  CHG  1  19  -1
M  END
>  <UniqueID>  (45) 
39

>  <SMILES>  (45) 
COc1ccccc1-c1cc(C(=O)N[C@H](CC(=O)[O-])c2ccccc2F)ccc1OC

>  <Energy>  (45) 
61.555698529871194

>  <Genealogy>  (45) 
COc1ccccc1-c1cc(C(=O)NC(CC(=O)[O-])c2ccccc2F)ccc1OC (protonated)
COc1ccccc1-c1cc(C(=O)N[C@H](CC(=O)[O-])c2ccccc2F)ccc1OC (chirality)
COc1ccccc1-c1cc(C(=O)N[C@H](CC(=O)[O-])c2ccccc2F)ccc1OC (3D coordinates assigned)
COc1ccccc1-c1cc(C(=O)N[C@H](CC(=O)[O-])c2ccccc2F)ccc1OC (optimized conformer: 61.555698529871194 kcal/mol)

>  <smiles>  (45) 
COc1ccccc1-c1cc(C(=O)NC(CC(=O)O)c2ccccc2F)ccc1OC

>  <score_type>  (45) 
oracle

>  <origin>  (45) 
adg

>  <m_score__min__energy>  (45) 
-10.380000000000001

>  <m_primary>  (45) 
energy

$$$$
45:0
     RDKit          3D

 33 35  0  0  0  0  0  0  0  0999 V2000
   59.5520   30.8070   45.6580 N   0  0  0  0  0  0  0  0  0  0  0  0
   58.1940   30.6030   45.3600 N   0  0  0  0  0  0  0  0  0  0  0  0
   57.3510   31.4790   44.7870 C   0  0  0  0  0  0  0  0  0  0  0  0
   57.7610   33.1710   44.3550 S   0  0  0  0  0  0  0  0  0  0  0  0
   57.3010   33.8670   45.9830 C   0  0  0  0  0  0  0  0  0  0  0  0
   58.3600   33.5880   47.0210 C   0  0  0  0  0  0  0  0  0  0  0  0
   58.1590   32.5520   47.9500 C   0  0  0  0  0  0  0  0  0  0  0  0
   59.1010   32.3060   48.9530 C   0  0  0  0  0  0  0  0  0  0  0  0
   60.2530   33.0870   49.0360 C   0  0  0  0  0  0  0  0  0  0  0  0
   60.4680   34.1170   48.1180 C   0  0  0  0  0  0  0  0  0  0  0  0
   59.5300   34.3760   47.1110 C   0  0  0  0  0  0  0  0  0  0  0  0
   59.8480   35.6970   45.9920 Cl  0  0  0  0  0  0  0  0  0  0  0  0
   56.1700   30.8990   44.4990 N   0  0  0  0  0  0  0  0  0  0  0  0
   56.2590   29.6310   44.8820 N   0  0  0  0  0  0  0  0  0  0  0  0
   57.4910   29.4550   45.4040 C   0  0  0  0  0  0  0  0  0  0  0  0
   57.9700   28.1630   45.9340 C   0  0  0  0  0  0  0  0  0  0  0  0
   58.8280   28.1080   47.0430 C   0  0  0  0  0  0  0  0  0  0  0  0
   59.2450   26.8680   47.5300 C   0  0  0  0  0  0  0  0  0  0  0  0
   58.8120   25.7220   46.9400 N   0  0  0  0  0  0  0  0  0  0  0  0
   57.9680   25.7450   45.8760 C   0  0  0  0  0  0  0  0  0  0  0  0
   57.5250   26.9640   45.3580 C   0  0  0  0  0  0  0  0  0  0  0  0
   59.9600   31.7670   45.6450 H   0  0  0  0  0  0  0  0  0  0  0  0
   60.1960   30.0010   45.8110 H   0  0  0  0  0  0  0  0  0  0  0  0
   57.1749   34.9553   45.8841 H   0  0  0  0  0  0  0  0  0  0  0  0
   56.3635   33.3931   46.3093 H   0  0  0  0  0  0  0  0  0  0  0  0
   57.2537   31.9304   47.8871 H   0  0  0  0  0  0  0  0  0  0  0  0
   58.9333   31.4955   49.6775 H   0  0  0  0  0  0  0  0  0  0  0  0
   60.9934   32.8915   49.8256 H   0  0  0  0  0  0  0  0  0  0  0  0
   61.3797   34.7287   48.1863 H   0  0  0  0  0  0  0  0  0  0  0  0
   59.1697   29.0357   47.5253 H   0  0  0  0  0  0  0  0  0  0  0  0
   59.9253   26.8179   48.3929 H   0  0  0  0  0  0  0  0  0  0  0  0
   57.6326   24.8012   45.4212 H   0  0  0  0  0  0  0  0  0  0  0  0
   56.8318   26.9837   44.5041 H   0  0  0  0  0  0  0  0  0  0  0  0
  1  2  1  0
  2  3  1  0
  3  4  1  0
  4  5  1  0
  5  6  1  0
  6  7  2  0
  7  8  1  0
  8  9  2  0
  9 10  1  0
 10 11  2  0
 11 12  1  0
  3 13  2  0
 13 14  1  0
 14 15  2  0
 15 16  1  0
 16 17  2  0
 17 18  1  0
 18 19  2  0
 19 20  1  0
 20 21  2  0
 15  2  1  0
 21 16  1  0
 11  6  1  0
  1 22  1  0
  1 23  1  0
  5 24  1  0
  5 25  1  0
  7 26  1  0
  8 27  1  0
  9 28  1  0
 10 29  1  0
 17 30  1  0
 18 31  1  0
 20 32  1  0
 21 33  1  0
M  END
>  <UniqueID>  (46) 
40

>  <SMILES>  (46) 
Nn1c(SCc2ccccc2Cl)nnc1-c1ccncc1

>  <Energy>  (46) 
72.43485219724171

>  <Genealogy>  (46) 
Nn1c(SCc2ccccc2Cl)nnc1-c1ccncc1 (3D coordinates assigned)
Nn1c(SCc2ccccc2Cl)nnc1-c1ccncc1 (optimized conformer: 72.43485219724171 kcal/mol)

>  <smiles>  (46) 
Nn1c(SCc2ccccc2Cl)nnc1-c1ccncc1

>  <score_type>  (46) 
oracle

>  <origin>  (46) 
adg

>  <m_score__min__energy>  (46) 
-7.1900000000000004

>  <m_primary>  (46) 
energy

$$$$
46:0
     RDKit          3D

 39 41  0  0  0  0  0  0  0  0999 V2000
   58.4609   25.1906   47.1535 H   0  0  0  0  0  0  0  0  0  0  0  0
   58.5820   26.2820   47.2180 C   0  0  0  0  0  0  0  0  0  0  0  0
   57.7880   27.1880   46.6870 O   0  0  0  0  0  0  0  0  0  0  0  0
   58.2850   28.3710   46.9890 C   0  0  0  0  0  0  0  0  0  0  0  0
   57.7710   29.5050   46.6140 N   0  0  0  0  0  0  0  0  0  0  0  0
   57.5200   29.9500   45.2680 C   0  0  0  0  0  0  0  0  0  0  0  0
   58.3430   30.8920   44.6180 C   0  0  0  0  0  0  0  0  0  0  0  0
   59.2342   31.2851   45.1291 H   0  0  0  0  0  0  0  0  0  0  0  0
   58.0320   31.3290   43.3270 C   0  0  0  0  0  0  0  0  0  0  0  0
   58.6833   32.0578   42.8223 H   0  0  0  0  0  0  0  0  0  0  0  0
   56.8960   30.8420   42.6770 C   0  0  0  0  0  0  0  0  0  0  0  0
   56.6575   31.1807   41.6580 H   0  0  0  0  0  0  0  0  0  0  0  0
   56.0630   29.9250   43.3210 C   0  0  0  0  0  0  0  0  0  0  0  0
   55.1649   29.5468   42.8107 H   0  0  0  0  0  0  0  0  0  0  0  0
   56.3680   29.4860   44.6140 C   0  0  0  0  0  0  0  0  0  0  0  0
   55.5220   28.5830   45.2470 O   0  0  0  0  0  0  0  0  0  0  0  0
   59.3970   28.2790   47.7480 N   0  0  0  0  0  0  0  0  0  0  0  0
   60.2960   29.3500   48.1770 C   0  0  0  0  0  0  0  0  0  0  0  0
   61.3365   28.9958   48.1329 H   0  0  0  0  0  0  0  0  0  0  0  0
   60.0533   29.6427   49.2092 H   0  0  0  0  0  0  0  0  0  0  0  0
   60.1390   30.4710   47.3150 O   0  0  0  0  0  0  0  0  0  0  0  0
   60.9430   31.6110   47.4000 C   0  0  0  0  0  0  0  0  0  0  0  0
   62.1700   31.5580   47.1130 O   0  0  0  0  0  0  0  0  0  0  0  0
   60.3560   32.8790   47.9220 C   0  0  0  0  0  0  0  0  0  0  0  0
   59.8933   32.6944   48.9027 H   0  0  0  0  0  0  0  0  0  0  0  0
   61.1466   33.6360   48.0314 H   0  0  0  0  0  0  0  0  0  0  0  0
   59.3120   33.3720   46.9570 C   0  0  0  0  0  0  0  0  0  0  0  0
   57.9600   33.0350   47.1390 C   0  0  0  0  0  0  0  0  0  0  0  0
   57.6549   32.4467   48.0170 H   0  0  0  0  0  0  0  0  0  0  0  0
   57.0020   33.4450   46.2080 C   0  0  0  0  0  0  0  0  0  0  0  0
   55.9430   33.1898   46.3613 H   0  0  0  0  0  0  0  0  0  0  0  0
   57.3870   34.1790   45.0820 C   0  0  0  0  0  0  0  0  0  0  0  0
   56.6308   34.5037   44.3521 H   0  0  0  0  0  0  0  0  0  0  0  0
   58.7320   34.5000   44.8840 C   0  0  0  0  0  0  0  0  0  0  0  0
   59.0349   35.0715   43.9943 H   0  0  0  0  0  0  0  0  0  0  0  0
   59.6940   34.0960   45.8150 C   0  0  0  0  0  0  0  0  0  0  0  0
   60.7529   34.3457   45.6528 H   0  0  0  0  0  0  0  0  0  0  0  0
   59.5920   26.9540   47.8690 C   0  0  0  0  0  0  0  0  0  0  0  0
   60.6640   26.3680   48.5340 O   0  0  0  0  0  0  0  0  0  0  0  0
  1  2  1  0
  2  3  1  0
  3  4  1  0
  4  5  2  0
  5  6  1  0
  6  7  2  0
  7  8  1  0
  7  9  1  0
  9 10  1  0
  9 11  2  0
 11 12  1  0
 11 13  1  0
 13 14  1  0
 13 15  2  0
 15 16  1  0
  4 17  1  0
 17 18  1  0
 18 19  1  0
 18 20  1  0
 18 21  1  0
 21 22  1  0
 22 23  2  0
 22 24  1  0
 24 25  1  0
 24 26  1  0
 24 27  1  0
 27 28  2  0
 28 29  1  0
 28 30  1  0
 30 31  1  0
 30 32  2  0
 32 33  1  0
 32 34  1  0
 34 35  1  0
 34 36  2  0
 36 37  1  0
 17 38  1  0
 38 39  1  0
 38  2  2  0
 15  6  1  0
 36 27  1  0
M  CHG  2  16  -1  39  -1
M  END
>  <UniqueID>  (47) 
41

>  <SMILES>  (47) 
O=C(Cc1ccccc1)OCn1c([O-])co/c1=N\c1ccccc1[O-]

>  <Energy>  (47) 
74.30784636271721

>  <Genealogy>  (47) 
O=C(Cc1ccccc1)OCn1c([O-])coc1=Nc1ccccc1[O-] (protonated)
O=C(Cc1ccccc1)OCn1c([O-])co/c1=N\c1ccccc1[O-] (cis-trans isomerization)
O=C(Cc1ccccc1)OCn1c([O-])co/c1=N\c1ccccc1[O-] (3D coordinates assigned)
O=C(Cc1ccccc1)OCn1c([O-])co/c1=N\c1ccccc1[O-] (optimized conformer: 74.30784636271721 kcal/mol)

>  <smiles>  (47) 
O=C(Cc1ccccc1)OCn1c(O)coc1=Nc1ccccc1O

>  <score_type>  (47) 
oracle

>  <origin>  (47) 
adg

>  <m_score__min__energy>  (47) 
-12.31

>  <m_primary>  (47) 
energy

$$$$
47:0
     RDKit          3D

 42 45  0  0  0  0  0  0  0  0999 V2000
   55.0450   29.0560   44.0820 O   0  0  0  0  0  0  0  0  0  0  0  0
   55.8740   29.7330   44.7440 C   0  0  0  0  0  0  0  0  0  0  0  0
   56.7460   29.0980   45.6900 N   0  0  0  0  0  0  0  0  0  0  0  0
   58.0900   29.4820   46.0150 C   0  0  0  0  0  0  0  0  0  0  0  0
   59.0720   29.3900   45.0210 C   0  0  0  0  0  0  0  0  0  0  0  0
   60.3980   29.7350   45.3010 C   0  0  0  0  0  0  0  0  0  0  0  0
   60.7610   30.1720   46.5790 C   0  0  0  0  0  0  0  0  0  0  0  0
   62.1040   30.4960   46.8230 O   0  0  0  0  0  0  0  0  0  0  0  0
   62.5530   31.5890   47.5800 C   0  0  0  0  0  0  0  0  0  0  0  0
   63.3710   32.5450   46.9640 C   0  0  0  0  0  0  0  0  0  0  0  0
   63.8260   33.6550   47.6820 C   0  0  0  0  0  0  0  0  0  0  0  0
   63.4560   33.8240   49.0180 C   0  0  0  0  0  0  0  0  0  0  0  0
   62.6240   32.8860   49.6370 C   0  0  0  0  0  0  0  0  0  0  0  0
   62.1670   31.7740   48.9210 C   0  0  0  0  0  0  0  0  0  0  0  0
   59.7870   30.2230   47.5910 C   0  0  0  0  0  0  0  0  0  0  0  0
   58.4600   29.8790   47.3120 C   0  0  0  0  0  0  0  0  0  0  0  0
   55.9390   31.1470   44.5320 N   0  0  0  0  0  0  0  0  0  0  0  0
   57.0560   31.9980   44.8300 C   0  0  0  0  0  0  0  0  0  0  0  0
   57.8180   32.5030   43.7680 C   0  0  0  0  0  0  0  0  0  0  0  0
   58.9040   33.3490   44.0100 C   0  0  0  0  0  0  0  0  0  0  0  0
   59.2280   33.7150   45.3200 C   0  0  0  0  0  0  0  0  0  0  0  0
   60.2850   34.5390   45.5580 N   0  0  0  0  0  0  0  0  0  0  0  0
   60.6210   34.9230   46.8180 C   0  0  0  0  0  0  0  0  0  0  0  0
   59.8750   34.4740   47.9120 C   0  0  0  0  0  0  0  0  0  0  0  0
   58.7850   33.6270   47.7000 C   0  0  0  0  0  0  0  0  0  0  0  0
   58.4500   33.2360   46.3970 C   0  0  0  0  0  0  0  0  0  0  0  0
   57.3610   32.3870   46.1470 C   0  0  0  0  0  0  0  0  0  0  0  0
   58.7986   29.0441   44.0132 H   0  0  0  0  0  0  0  0  0  0  0  0
   61.1602   29.6622   44.5112 H   0  0  0  0  0  0  0  0  0  0  0  0
   63.6570   32.4216   45.9090 H   0  0  0  0  0  0  0  0  0  0  0  0
   64.4762   34.3961   47.1940 H   0  0  0  0  0  0  0  0  0  0  0  0
   63.8191   34.6950   49.5833 H   0  0  0  0  0  0  0  0  0  0  0  0
   62.3285   33.0224   50.6877 H   0  0  0  0  0  0  0  0  0  0  0  0
   61.5046   31.0427   49.4072 H   0  0  0  0  0  0  0  0  0  0  0  0
   60.0695   30.5349   48.6073 H   0  0  0  0  0  0  0  0  0  0  0  0
   57.7038   29.9192   48.1098 H   0  0  0  0  0  0  0  0  0  0  0  0
   57.5591   32.2311   42.7341 H   0  0  0  0  0  0  0  0  0  0  0  0
   59.5042   33.7271   43.1693 H   0  0  0  0  0  0  0  0  0  0  0  0
   61.4821   35.5887   46.9773 H   0  0  0  0  0  0  0  0  0  0  0  0
   60.1446   34.7855   48.9319 H   0  0  0  0  0  0  0  0  0  0  0  0
   58.1912   33.2679   48.5535 H   0  0  0  0  0  0  0  0  0  0  0  0
   56.7444   32.0248   46.9828 H   0  0  0  0  0  0  0  0  0  0  0  0
  1  2  2  0
  2  3  1  0
  3  4  1  0
  4  5  2  0
  5  6  1  0
  6  7  2  0
  7  8  1  0
  8  9  1  0
  9 10  2  0
 10 11  1  0
 11 12  2  0
 12 13  1  0
 13 14  2  0
  7 15  1  0
 15 16  2  0
  2 17  1  0
 17 18  1  0
 18 19  2  0
 19 20  1  0
 20 21  2  0
 21 22  1  0
 22 23  2  0
 23 24  1  0
 24 25  2  0
 25 26  1  0
 26 27  2  0
 16  4  1  0
 27 18  1  0
 14  9  1  0
 26 21  1  0
  5 28  1  0
  6 29  1  0
 10 30  1  0
 11 31  1  0
 12 32  1  0
 13 33  1  0
 14 34  1  0
 15 35  1  0
 16 36  1  0
 19 37  1  0
 20 38  1  0
 23 39  1  0
 24 40  1  0
 25 41  1  0
 27 42  1  0
M  CHG  2   3  -1  17  -1
M  END
>  <UniqueID>  (48) 
42

>  <SMILES>  (48) 
O=C([N-]c1ccc(Oc2ccccc2)cc1)[N-]c1ccc2ncccc2c1

>  <Energy>  (48) 
63.631023879813604

>  <Genealogy>  (48) 
O=C([N-]c1ccc(Oc2ccccc2)cc1)[N-]c1ccc2ncccc2c1 (protonated)
O=C([N-]c1ccc(Oc2ccccc2)cc1)[N-]c1ccc2ncccc2c1 (3D coordinates assigned)
O=C([N-]c1ccc(Oc2ccccc2)cc1)[N-]c1ccc2ncccc2c1 (optimized conformer: 63.631023879813604 kcal/mol)

>  <smiles>  (48) 
O=C(Nc1ccc(Oc2ccccc2)cc1)Nc1ccc2ncccc2c1

>  <score_type>  (48) 
oracle

>  <origin>  (48) 
adg

>  <m_score__min__energy>  (48) 
-11.25

>  <m_primary>  (48) 
energy

$$$$
48:0
     RDKit          3D

 36 39  0  0  0  0  0  0  0  0999 V2000
   64.9380   33.1140   48.9760 N   0  0  0  0  0  0  0  0  0  0  0  0
   63.6540   32.5340   48.7260 C   0  0  0  0  0  0  0  0  0  0  0  0
   63.3820   31.9280   47.4910 C   0  0  0  0  0  0  0  0  0  0  0  0
   62.1270   31.3620   47.2470 C   0  0  0  0  0  0  0  0  0  0  0  0
   61.1420   31.3700   48.2490 C   0  0  0  0  0  0  0  0  0  0  0  0
   59.8310   30.8460   47.9960 N   0  0  0  0  0  0  0  0  0  0  0  0
   59.0630   30.9510   46.9390 C   0  0  0  0  0  0  0  0  0  0  0  0
   58.7940   32.1800   46.2560 C   0  0  0  0  0  0  0  0  0  0  0  0
   59.5870   33.3460   46.3860 C   0  0  0  0  0  0  0  0  0  0  0  0
   59.2390   34.5280   45.7270 C   0  0  0  0  0  0  0  0  0  0  0  0
   58.1290   34.5630   44.8860 C   0  0  0  0  0  0  0  0  0  0  0  0
   57.3920   33.4020   44.6610 C   0  0  0  0  0  0  0  0  0  0  0  0
   57.7370   32.2100   45.3060 C   0  0  0  0  0  0  0  0  0  0  0  0
   57.0850   31.0710   44.9680 N   0  0  0  0  0  0  0  0  0  0  0  0
   57.4110   29.8670   45.4960 C   0  0  0  0  0  0  0  0  0  0  0  0
   56.7270   28.7230   45.0690 C   0  0  0  0  0  0  0  0  0  0  0  0
   57.0420   27.4750   45.6070 C   0  0  0  0  0  0  0  0  0  0  0  0
   58.0360   27.3630   46.5800 C   0  0  0  0  0  0  0  0  0  0  0  0
   58.7190   28.4990   47.0200 C   0  0  0  0  0  0  0  0  0  0  0  0
   58.4230   29.7720   46.4800 C   0  0  0  0  0  0  0  0  0  0  0  0
   61.4030   32.0090   49.4670 C   0  0  0  0  0  0  0  0  0  0  0  0
   62.6570   32.5760   49.7110 C   0  0  0  0  0  0  0  0  0  0  0  0
   65.1480   33.5750   49.8890 H   0  0  0  0  0  0  0  0  0  0  0  0
   65.6860   33.0870   48.2480 H   0  0  0  0  0  0  0  0  0  0  0  0
   64.1581   31.8978   46.7121 H   0  0  0  0  0  0  0  0  0  0  0  0
   61.9102   30.9093   46.2682 H   0  0  0  0  0  0  0  0  0  0  0  0
   60.4894   33.3209   47.0145 H   0  0  0  0  0  0  0  0  0  0  0  0
   59.8442   35.4349   45.8729 H   0  0  0  0  0  0  0  0  0  0  0  0
   57.8349   35.5052   44.4005 H   0  0  0  0  0  0  0  0  0  0  0  0
   56.5344   33.4232   43.9725 H   0  0  0  0  0  0  0  0  0  0  0  0
   55.9385   28.8082   44.3067 H   0  0  0  0  0  0  0  0  0  0  0  0
   56.5060   26.5779   45.2637 H   0  0  0  0  0  0  0  0  0  0  0  0
   58.2823   26.3773   47.0016 H   0  0  0  0  0  0  0  0  0  0  0  0
   59.4946   28.4026   47.7940 H   0  0  0  0  0  0  0  0  0  0  0  0
   60.6178   32.0651   50.2353 H   0  0  0  0  0  0  0  0  0  0  0  0
   62.8624   33.0567   50.6788 H   0  0  0  0  0  0  0  0  0  0  0  0
  1  2  1  0
  2  3  2  0
  3  4  1  0
  4  5  2  0
  5  6  1  0
  6  7  2  3
  7  8  1  0
  8  9  2  0
  9 10  1  0
 10 11  2  0
 11 12  1  0
 12 13  2  0
 13 14  1  0
 14 15  1  0
 15 16  2  0
 16 17  1  0
 17 18  2  0
 18 19  1  0
 19 20  2  0
  5 21  1  0
 21 22  2  0
 22  2  1  0
 20  7  1  0
 13  8  1  0
 20 15  1  0
  1 23  1  0
  1 24  1  0
  3 25  1  0
  4 26  1  0
  9 27  1  0
 10 28  1  0
 11 29  1  0
 12 30  1  0
 16 31  1  0
 17 32  1  0
 18 33  1  0
 19 34  1  0
 21 35  1  0
 22 36  1  0
M  CHG  1  14  -1
M  END
>  <UniqueID>  (49) 
43

>  <SMILES>  (49) 
Nc1ccc(N=c2c3ccccc3[n-]c3ccccc23)cc1

>  <Energy>  (49) 
68.2469723800098

>  <Genealogy>  (49) 
Nc1ccc(N=c2c3ccccc3[n-]c3ccccc23)cc1 (protonated)
Nc1ccc(N=c2c3ccccc3[n-]c3ccccc23)cc1 (3D coordinates assigned)
Nc1ccc(N=c2c3ccccc3[n-]c3ccccc23)cc1 (optimized conformer: 68.2469723800098 kcal/mol)

>  <smiles>  (49) 
Nc1ccc(N=c2c3ccccc3[nH]c3ccccc23)cc1

>  <score_type>  (49) 
oracle

>  <origin>  (49) 
adg

>  <m_score__min__energy>  (49) 
-9.0700000000000003

>  <m_primary>  (49) 
energy

$$$$
49:0
     RDKit          3D

 46 48  0  0  0  0  0  0  0  0999 V2000
   56.6540   27.2920   45.7440 C   0  0  0  0  0  0  0  0  0  0  0  0
   55.9170   28.4030   45.2440 O   0  0  0  0  0  0  0  0  0  0  0  0
   56.4900   29.5010   44.5870 C   0  0  0  0  0  0  0  0  0  0  0  0
   56.1370   29.7380   43.2540 C   0  0  0  0  0  0  0  0  0  0  0  0
   56.6860   30.8170   42.5560 C   0  0  0  0  0  0  0  0  0  0  0  0
   57.5850   31.6770   43.1890 C   0  0  0  0  0  0  0  0  0  0  0  0
   57.9350   31.4680   44.5340 C   0  0  0  0  0  0  0  0  0  0  0  0
   58.8620   32.3210   45.2200 N   0  0  0  0  0  0  0  0  0  0  0  0
   58.6790   32.9200   46.5090 C   0  0  0  0  0  0  0  0  0  0  0  0
   57.6120   32.7250   47.1510 O   0  0  0  0  0  0  0  0  0  0  0  0
   59.7500   33.6740   47.1130 N   0  0  0  0  0  0  0  0  0  0  0  0
   59.6660   34.0700   48.5220 C   0  0  0  0  0  0  0  0  0  0  0  0
   61.0630   34.2960   49.1270 C   0  0  0  0  0  0  0  0  0  0  0  0
   62.1290   33.5740   48.4010 N   0  0  0  0  0  0  0  0  0  0  0  0
   62.3580   32.1660   48.8010 C   0  0  0  0  0  0  0  0  0  0  0  0
   61.3010   31.2030   48.3090 C   0  0  0  0  0  0  0  0  0  0  0  0
   61.3840   30.6380   47.0230 C   0  0  0  0  0  0  0  0  0  0  0  0
   60.4080   29.7400   46.5800 C   0  0  0  0  0  0  0  0  0  0  0  0
   59.3440   29.3920   47.4160 C   0  0  0  0  0  0  0  0  0  0  0  0
   59.2680   29.9260   48.7050 C   0  0  0  0  0  0  0  0  0  0  0  0
   60.2460   30.8160   49.1550 C   0  0  0  0  0  0  0  0  0  0  0  0
   62.2120   33.8600   46.9520 C   0  0  0  0  0  0  0  0  0  0  0  0
   60.8560   34.2050   46.3120 C   0  0  0  0  0  0  0  0  0  0  0  0
   57.4010   30.3700   45.2200 C   0  0  0  0  0  0  0  0  0  0  0  0
   56.6425   27.3094   46.8438 H   0  0  0  0  0  0  0  0  0  0  0  0
   56.1960   26.3577   45.3872 H   0  0  0  0  0  0  0  0  0  0  0  0
   57.6929   27.3507   45.3872 H   0  0  0  0  0  0  0  0  0  0  0  0
   55.4219   29.0699   42.7517 H   0  0  0  0  0  0  0  0  0  0  0  0
   56.4091   30.9890   41.5054 H   0  0  0  0  0  0  0  0  0  0  0  0
   58.0207   32.5206   42.6336 H   0  0  0  0  0  0  0  0  0  0  0  0
   59.0883   35.0030   48.5975 H   0  0  0  0  0  0  0  0  0  0  0  0
   59.1744   33.2596   49.0802 H   0  0  0  0  0  0  0  0  0  0  0  0
   61.2871   35.3726   49.0996 H   0  0  0  0  0  0  0  0  0  0  0  0
   61.0434   33.9074   50.1559 H   0  0  0  0  0  0  0  0  0  0  0  0
   63.3304   31.8465   48.3980 H   0  0  0  0  0  0  0  0  0  0  0  0
   62.3232   32.1396   49.9001 H   0  0  0  0  0  0  0  0  0  0  0  0
   62.2219   30.9044   46.3620 H   0  0  0  0  0  0  0  0  0  0  0  0
   60.4780   29.3067   45.5714 H   0  0  0  0  0  0  0  0  0  0  0  0
   58.5675   28.6989   47.0601 H   0  0  0  0  0  0  0  0  0  0  0  0
   58.4358   29.6448   49.3671 H   0  0  0  0  0  0  0  0  0  0  0  0
   60.1908   31.2169   50.1778 H   0  0  0  0  0  0  0  0  0  0  0  0
   62.8926   34.7115   46.8043 H   0  0  0  0  0  0  0  0  0  0  0  0
   62.5748   32.9437   46.4633 H   0  0  0  0  0  0  0  0  0  0  0  0
   60.7581   35.2985   46.2428 H   0  0  0  0  0  0  0  0  0  0  0  0
   60.8143   33.7516   45.3107 H   0  0  0  0  0  0  0  0  0  0  0  0
   57.6956   30.1841   46.2634 H   0  0  0  0  0  0  0  0  0  0  0  0
  1  2  1  0
  2  3  1  0
  3  4  2  0
  4  5  1  0
  5  6  2  0
  6  7  1  0
  7  8  1  0
  8  9  1  0
  9 10  2  0
  9 11  1  0
 11 12  1  0
 12 13  1  0
 13 14  1  0
 14 15  1  0
 15 16  1  0
 16 17  2  0
 17 18  1  0
 18 19  2  0
 19 20  1  0
 20 21  2  0
 14 22  1  0
 22 23  1  0
  7 24  2  0
 24  3  1  0
 23 11  1  0
 21 16  1  0
  1 25  1  0
  1 26  1  0
  1 27  1  0
  4 28  1  0
  5 29  1  0
  6 30  1  0
 12 31  1  0
 12 32  1  0
 13 33  1  0
 13 34  1  0
 15 35  1  0
 15 36  1  0
 17 37  1  0
 18 38  1  0
 19 39  1  0
 20 40  1  0
 21 41  1  0
 22 42  1  0
 22 43  1  0
 23 44  1  0
 23 45  1  0
 24 46  1  0
M  CHG  1   8  -1
M  END
>  <UniqueID>  (50) 
44

>  <SMILES>  (50) 
COc1cccc([N-]C(=O)N2CCN(Cc3ccccc3)CC2)c1

>  <Energy>  (50) 
60.78659931849188

>  <Genealogy>  (50) 
COc1cccc([N-]C(=O)N2CCN(Cc3ccccc3)CC2)c1 (protonated)
COc1cccc([N-]C(=O)N2CCN(Cc3ccccc3)CC2)c1 (3D coordinates assigned)
COc1cccc([N-]C(=O)N2CCN(Cc3ccccc3)CC2)c1 (nonaromatic ring conformer: 60.78659931849188 kcal/mol)

>  <smiles>  (50) 
COc1cccc(NC(=O)N2CCN(Cc3ccccc3)CC2)c1

>  <score_type>  (50) 
oracle

>  <origin>  (50) 
adg

>  <m_score__min__energy>  (50) 
-9.5099999999999998

>  <m_primary>  (50) 
energy

$$$$
50:0
     RDKit          3D

 30 32  0  0  0  0  0  0  0  0999 V2000
   56.8010   23.7110   46.8550 C   0  0  0  0  0  0  0  0  0  0  0  0
   57.2320   25.1300   46.6330 C   0  0  0  0  0  0  0  0  0  0  0  0
   58.4810   25.5700   47.0990 C   0  0  0  0  0  0  0  0  0  0  0  0
   58.8720   26.9010   46.9270 C   0  0  0  0  0  0  0  0  0  0  0  0
   58.0100   27.8110   46.3000 C   0  0  0  0  0  0  0  0  0  0  0  0
   58.3760   29.1490   46.1130 C   0  0  0  0  0  0  0  0  0  0  0  0
   57.4970   30.0420   45.4790 C   0  0  0  0  0  0  0  0  0  0  0  0
   57.9020   31.4570   45.2780 C   0  0  0  0  0  0  0  0  0  0  0  0
   58.0980   32.3110   46.3790 C   0  0  0  0  0  0  0  0  0  0  0  0
   58.4700   33.6440   46.1820 C   0  0  0  0  0  0  0  0  0  0  0  0
   58.6450   34.1400   44.8880 C   0  0  0  0  0  0  0  0  0  0  0  0
   58.4440   33.3020   43.7870 C   0  0  0  0  0  0  0  0  0  0  0  0
   58.0720   31.9680   43.9790 C   0  0  0  0  0  0  0  0  0  0  0  0
   56.2400   29.5630   45.0520 C   0  0  0  0  0  0  0  0  0  0  0  0
   55.4060   30.3350   44.5100 O   0  0  0  0  0  0  0  0  0  0  0  0
   55.9060   28.2590   45.2430 N   0  0  0  0  0  0  0  0  0  0  0  0
   56.7480   27.3780   45.8450 C   0  0  0  0  0  0  0  0  0  0  0  0
   56.3610   26.0450   46.0190 C   0  0  0  0  0  0  0  0  0  0  0  0
   56.7402   23.5109   47.9349 H   0  0  0  0  0  0  0  0  0  0  0  0
   55.8139   23.5516   46.3965 H   0  0  0  0  0  0  0  0  0  0  0  0
   57.5327   23.0295   46.3965 H   0  0  0  0  0  0  0  0  0  0  0  0
   59.1564   24.8628   47.6028 H   0  0  0  0  0  0  0  0  0  0  0  0
   59.8575   27.2346   47.2842 H   0  0  0  0  0  0  0  0  0  0  0  0
   59.3566   29.5026   46.4642 H   0  0  0  0  0  0  0  0  0  0  0  0
   57.9577   31.9275   47.4004 H   0  0  0  0  0  0  0  0  0  0  0  0
   58.6253   34.3040   47.0482 H   0  0  0  0  0  0  0  0  0  0  0  0
   58.9406   35.1885   44.7354 H   0  0  0  0  0  0  0  0  0  0  0  0
   58.5788   33.6930   42.7677 H   0  0  0  0  0  0  0  0  0  0  0  0
   57.9114   31.3144   43.1089 H   0  0  0  0  0  0  0  0  0  0  0  0
   55.3710   25.7122   45.6737 H   0  0  0  0  0  0  0  0  0  0  0  0
  1  2  1  0
  2  3  2  0
  3  4  1  0
  4  5  2  0
  5  6  1  0
  6  7  2  0
  7  8  1  0
  8  9  2  0
  9 10  1  0
 10 11  2  0
 11 12  1  0
 12 13  2  0
  7 14  1  0
 14 15  2  0
 14 16  1  0
 16 17  1  0
 17 18  2  0
 18  2  1  0
 17  5  1  0
 13  8  1  0
  1 19  1  0
  1 20  1  0
  1 21  1  0
  3 22  1  0
  4 23  1  0
  6 24  1  0
  9 25  1  0
 10 26  1  0
 11 27  1  0
 12 28  1  0
 13 29  1  0
 18 30  1  0
M  CHG  1  16  -1
M  END
>  <UniqueID>  (51) 
45

>  <SMILES>  (51) 
Cc1ccc2cc(-c3ccccc3)c(=O)[n-]c2c1

>  <Energy>  (51) 
42.16261261097952

>  <Genealogy>  (51) 
Cc1ccc2cc(-c3ccccc3)c(=O)[n-]c2c1 (protonated)
Cc1ccc2cc(-c3ccccc3)c(=O)[n-]c2c1 (3D coordinates assigned)
Cc1ccc2cc(-c3ccccc3)c(=O)[n-]c2c1 (optimized conformer: 42.16261261097952 kcal/mol)

>  <smiles>  (51) 
Cc1ccc2cc(-c3ccccc3)c(=O)[nH]c2c1

>  <score_type>  (51) 
oracle

>  <origin>  (51) 
adg

>  <m_score__min__energy>  (51) 
-9.2599999999999998

>  <m_primary>  (51) 
energy

$$$$
51:0
     RDKit          3D

 63 66  0  0  0  0  0  0  0  0999 V2000
   55.9880   30.4920   52.4070 C   0  0  0  0  0  0  0  0  0  0  0  0
   57.0940   30.0290   51.6360 O   0  0  0  0  0  0  0  0  0  0  0  0
   58.2420   30.7880   51.3620 C   0  0  0  0  0  0  0  0  0  0  0  0
   58.2730   32.1840   51.5270 C   0  0  0  0  0  0  0  0  0  0  0  0
   59.4440   32.8850   51.2400 C   0  0  0  0  0  0  0  0  0  0  0  0
   60.5890   32.2040   50.7930 C   0  0  0  0  0  0  0  0  0  0  0  0
   61.8180   32.9220   50.5280 N   0  0  0  0  0  0  0  0  0  0  0  0
   63.0810   32.4910   51.1490 C   0  0  0  0  0  0  0  0  0  0  0  0
   64.1230   32.1160   50.0890 C   0  0  0  0  0  0  0  0  0  0  0  0
   64.8260   33.2470   49.7170 F   0  0  0  0  0  0  0  0  0  0  0  0
   63.5080   31.5820   48.9730 F   0  0  0  0  0  0  0  0  0  0  0  0
   65.0120   31.1880   50.6010 F   0  0  0  0  0  0  0  0  0  0  0  0
   61.8450   33.9830   49.5510 C   0  0  0  0  0  0  0  0  0  0  0  0
   62.6140   34.9690   49.7230 O   0  0  0  0  0  0  0  0  0  0  0  0
   60.9940   33.9460   48.3440 C   0  0  0  0  0  0  0  0  0  0  0  0
   61.4820   33.4680   47.1170 C   0  0  0  0  0  0  0  0  0  0  0  0
   60.6430   33.4560   46.0010 C   0  0  0  0  0  0  0  0  0  0  0  0
   59.3210   33.8930   46.1100 C   0  0  0  0  0  0  0  0  0  0  0  0
   58.5070   33.8880   44.9670 O   0  0  0  0  0  0  0  0  0  0  0  0
   58.0050   32.7450   44.3300 C   0  0  0  0  0  0  0  0  0  0  0  0
   57.9030   32.7450   42.9360 C   0  0  0  0  0  0  0  0  0  0  0  0
   57.4000   31.6290   42.2660 C   0  0  0  0  0  0  0  0  0  0  0  0
   57.0140   30.4940   42.9820 C   0  0  0  0  0  0  0  0  0  0  0  0
   57.1490   30.4570   44.3810 C   0  0  0  0  0  0  0  0  0  0  0  0
   56.7420   29.2580   45.1500 C   0  0  0  0  0  0  0  0  0  0  0  0
   55.5200   28.9490   45.2020 O   0  0  0  0  0  0  0  0  0  0  0  0
   57.7060   28.4340   45.8330 N   0  0  0  0  0  0  0  0  0  0  0  0
   57.4710   26.9850   45.9170 C   0  0  0  0  0  0  0  0  0  0  0  0
   58.7100   26.2510   46.4430 C   0  0  0  0  0  0  0  0  0  0  0  0
   59.1910   26.8270   47.7880 C   0  0  0  0  0  0  0  0  0  0  0  0
   59.0210   28.3560   47.9090 C   0  0  0  0  0  0  0  0  0  0  0  0
   58.8420   29.0370   46.5480 C   0  0  0  0  0  0  0  0  0  0  0  0
   57.6450   31.5900   45.0490 C   0  0  0  0  0  0  0  0  0  0  0  0
   58.8700   34.3660   47.3530 C   0  0  0  0  0  0  0  0  0  0  0  0
   59.7040   34.3740   48.4260 N   0  0  0  0  0  0  0  0  0  0  0  0
   60.5120   30.8100   50.6350 C   0  0  0  0  0  0  0  0  0  0  0  0
   59.3580   30.1440   50.9180 N   0  0  0  0  0  0  0  0  0  0  0  0
   56.2209   30.3945   53.4776 H   0  0  0  0  0  0  0  0  0  0  0  0
   55.7916   31.5479   52.1692 H   0  0  0  0  0  0  0  0  0  0  0  0
   55.0980   29.8909   52.1692 H   0  0  0  0  0  0  0  0  0  0  0  0
   57.3795   32.7197   51.8801 H   0  0  0  0  0  0  0  0  0  0  0  0
   59.4715   33.9776   51.3643 H   0  0  0  0  0  0  0  0  0  0  0  0
   63.4760   33.3123   51.7650 H   0  0  0  0  0  0  0  0  0  0  0  0
   62.8792   31.6036   51.7668 H   0  0  0  0  0  0  0  0  0  0  0  0
   62.5175   33.1058   47.0357 H   0  0  0  0  0  0  0  0  0  0  0  0
   61.0247   33.1010   45.0323 H   0  0  0  0  0  0  0  0  0  0  0  0
   58.2209   33.6293   42.3641 H   0  0  0  0  0  0  0  0  0  0  0  0
   57.3073   31.6435   41.1700 H   0  0  0  0  0  0  0  0  0  0  0  0
   56.6022   29.6244   42.4488 H   0  0  0  0  0  0  0  0  0  0  0  0
   56.6272   26.7974   46.5973 H   0  0  0  0  0  0  0  0  0  0  0  0
   57.2468   26.6098   44.9076 H   0  0  0  0  0  0  0  0  0  0  0  0
   58.4623   25.1880   46.5796 H   0  0  0  0  0  0  0  0  0  0  0  0
   59.5191   26.3785   45.7087 H   0  0  0  0  0  0  0  0  0  0  0  0
   58.6159   26.3495   48.5950 H   0  0  0  0  0  0  0  0  0  0  0  0
   60.2688   26.6187   47.8578 H   0  0  0  0  0  0  0  0  0  0  0  0
   58.1351   28.5645   48.5268 H   0  0  0  0  0  0  0  0  0  0  0  0
   59.9371   28.7586   48.3658 H   0  0  0  0  0  0  0  0  0  0  0  0
   58.6503   30.1096   46.6990 H   0  0  0  0  0  0  0  0  0  0  0  0
   59.7573   28.9036   45.9526 H   0  0  0  0  0  0  0  0  0  0  0  0
   57.7527   31.5737   46.1436 H   0  0  0  0  0  0  0  0  0  0  0  0
   57.8378   34.7314   47.4585 H   0  0  0  0  0  0  0  0  0  0  0  0
   61.3909   30.2519   50.2798 H   0  0  0  0  0  0  0  0  0  0  0  0
   59.3340   29.1080   50.7950 H   0  0  0  0  0  0  0  0  0  0  0  0
  1  2  1  0
  2  3  1  0
  3  4  2  0
  4  5  1  0
  5  6  2  0
  6  7  1  0
  7  8  1  0
  8  9  1  0
  9 10  1  0
  9 11  1  0
  9 12  1  0
  7 13  1  0
 13 14  2  0
 13 15  1  0
 15 16  2  0
 16 17  1  0
 17 18  2  0
 18 19  1  0
 19 20  1  0
 20 21  2  0
 21 22  1  0
 22 23  2  0
 23 24  1  0
 24 25  1  0
 25 26  2  0
 25 27  1  0
 27 28  1  0
 28 29  1  0
 29 30  1  0
 30 31  1  0
 31 32  1  0
 24 33  2  0
 18 34  1  0
 34 35  2  0
  6 36  1  0
 36 37  2  0
 37  3  1  0
 35 15  1  0
 33 20  1  0
 32 27  1  0
  1 38  1  0
  1 39  1  0
  1 40  1  0
  4 41  1  0
  5 42  1  0
  8 43  1  0
  8 44  1  0
 16 45  1  0
 17 46  1  0
 21 47  1  0
 22 48  1  0
 23 49  1  0
 28 50  1  0
 28 51  1  0
 29 52  1  0
 29 53  1  0
 30 54  1  0
 30 55  1  0
 31 56  1  0
 31 57  1  0
 32 58  1  0
 32 59  1  0
 33 60  1  0
 34 61  1  0
 36 62  1  0
 37 63  1  0
M  CHG  1  37   1
M  END
>  <UniqueID>  (52) 
46

>  <SMILES>  (52) 
COc1ccc(N(CC(F)(F)F)C(=O)c2ccc(Oc3cccc(C(=O)N4CCCCC4)c3)cn2)c[nH+]1

>  <Energy>  (52) 
84.1603575608179

>  <Genealogy>  (52) 
COc1ccc(N(CC(F)(F)F)C(=O)c2ccc(Oc3cccc(C(=O)N4CCCCC4)c3)cn2)c[nH+]1 (protonated)
COc1ccc(N(CC(F)(F)F)C(=O)c2ccc(Oc3cccc(C(=O)N4CCCCC4)c3)cn2)c[nH+]1 (3D coordinates assigned)
COc1ccc(N(CC(F)(F)F)C(=O)c2ccc(Oc3cccc(C(=O)N4CCCCC4)c3)cn2)c[nH+]1 (nonaromatic ring conformer: 84.1603575608179 kcal/mol)

>  <smiles>  (52) 
COc1ccc(N(CC(F)(F)F)C(=O)c2ccc(Oc3cccc(C(=O)N4CCCCC4)c3)cn2)cn1

>  <score_type>  (52) 
oracle

>  <origin>  (52) 
adg

>  <m_score__min__energy>  (52) 
-8.6500000000000004

>  <m_primary>  (52) 
energy

$$$$
52:0
     RDKit          3D

 36 39  0  0  0  0  0  0  0  0999 V2000
   54.8240   25.2360   45.6090 C   0  0  0  0  0  0  0  0  0  0  0  0
   55.4050   26.4930   45.9380 O   0  0  0  0  0  0  0  0  0  0  0  0
   56.7820   26.7580   45.9710 C   0  0  0  0  0  0  0  0  0  0  0  0
   57.7090   25.7620   46.3430 C   0  0  0  0  0  0  0  0  0  0  0  0
   59.0790   26.0260   46.3260 C   0  0  0  0  0  0  0  0  0  0  0  0
   59.5440   27.2770   45.9270 C   0  0  0  0  0  0  0  0  0  0  0  0
   58.6400   28.2740   45.5610 C   0  0  0  0  0  0  0  0  0  0  0  0
   57.2520   28.0440   45.6130 C   0  0  0  0  0  0  0  0  0  0  0  0
   56.3150   29.1660   45.2000 C   0  0  0  0  0  0  0  0  0  0  0  0
   56.8870   30.0320   44.1650 N   0  0  0  0  0  0  0  0  0  0  0  0
   56.4800   30.0930   42.8650 C   0  0  0  0  0  0  0  0  0  0  0  0
   57.0210   31.2090   42.2160 C   0  0  0  0  0  0  0  0  0  0  0  0
   57.8270   31.7800   43.1710 C   0  0  0  0  0  0  0  0  0  0  0  0
   58.1160   33.0750   43.4180 N   0  0  0  0  0  0  0  0  0  0  0  0
   58.2910   33.0430   44.7690 C   0  0  0  0  0  0  0  0  0  0  0  0
   58.6050   34.1410   45.5670 C   0  0  0  0  0  0  0  0  0  0  0  0
   58.6840   33.9420   46.9550 C   0  0  0  0  0  0  0  0  0  0  0  0
   58.4540   32.6670   47.5080 C   0  0  0  0  0  0  0  0  0  0  0  0
   58.5520   32.4760   48.8470 F   0  0  0  0  0  0  0  0  0  0  0  0
   58.1330   31.5930   46.6660 C   0  0  0  0  0  0  0  0  0  0  0  0
   58.0490   31.8320   45.3330 N   0  0  0  0  0  0  0  0  0  0  0  0
   57.7680   31.0470   44.2860 C   0  0  0  0  0  0  0  0  0  0  0  0
   54.5738   24.6946   46.5333 H   0  0  0  0  0  0  0  0  0  0  0  0
   53.9093   25.3978   45.0197 H   0  0  0  0  0  0  0  0  0  0  0  0
   55.5399   24.6442   45.0197 H   0  0  0  0  0  0  0  0  0  0  0  0
   57.3488   24.7687   46.6491 H   0  0  0  0  0  0  0  0  0  0  0  0
   59.7927   25.2453   46.6280 H   0  0  0  0  0  0  0  0  0  0  0  0
   60.6250   27.4787   45.9006 H   0  0  0  0  0  0  0  0  0  0  0  0
   59.0162   29.2524   45.2275 H   0  0  0  0  0  0  0  0  0  0  0  0
   55.3854   28.7230   44.8133 H   0  0  0  0  0  0  0  0  0  0  0  0
   56.1319   29.7883   46.0884 H   0  0  0  0  0  0  0  0  0  0  0  0
   55.8128   29.3600   42.3880 H   0  0  0  0  0  0  0  0  0  0  0  0
   56.8429   31.5486   41.1850 H   0  0  0  0  0  0  0  0  0  0  0  0
   58.7852   35.1317   45.1243 H   0  0  0  0  0  0  0  0  0  0  0  0
   58.9272   34.7877   47.6150 H   0  0  0  0  0  0  0  0  0  0  0  0
   57.9546   30.5870   47.0737 H   0  0  0  0  0  0  0  0  0  0  0  0
  1  2  1  0
  2  3  1  0
  3  4  2  0
  4  5  1  0
  5  6  2  0
  6  7  1  0
  7  8  2  0
  8  9  1  0
  9 10  1  0
 10 11  1  0
 11 12  2  0
 12 13  1  0
 13 14  1  0
 14 15  2  0
 15 16  1  0
 16 17  2  0
 17 18  1  0
 18 19  1  0
 18 20  2  0
 20 21  1  0
 21 22  1  0
  8  3  1  0
 22 10  1  0
 22 13  2  0
 21 15  1  0
  1 23  1  0
  1 24  1  0
  1 25  1  0
  4 26  1  0
  5 27  1  0
  6 28  1  0
  7 29  1  0
  9 30  1  0
  9 31  1  0
 11 32  1  0
 12 33  1  0
 16 34  1  0
 17 35  1  0
 20 36  1  0
M  END
>  <UniqueID>  (53) 
47

>  <SMILES>  (53) 
COc1ccccc1Cn1ccc2nc3ccc(F)cn3c21

>  <Energy>  (53) 
135.4291554423401

>  <Genealogy>  (53) 
COc1ccccc1Cn1ccc2nc3ccc(F)cn3c21 (3D coordinates assigned)
COc1ccccc1Cn1ccc2nc3ccc(F)cn3c21 (optimized conformer: 135.4291554423401 kcal/mol)

>  <smiles>  (53) 
COc1ccccc1Cn1ccc2nc3ccc(F)cn3c21

>  <score_type>  (53) 
oracle

>  <origin>  (53) 
adg

>  <m_score__min__energy>  (53) 
-7.29

>  <m_primary>  (53) 
energy

$$$$
53:0
     RDKit          3D

 44 45  0  0  0  0  0  0  0  0999 V2000
   58.5590   30.8870   47.1480 C   0  0  0  0  0  0  0  0  0  0  0  0
   59.0380   29.5490   47.5450 N   0  0  0  0  0  0  0  0  0  0  0  0
   58.7860   29.3510   48.9840 C   0  0  0  0  0  0  0  0  0  0  0  0
   60.4850   29.3760   47.2310 C   0  0  0  0  0  0  0  0  0  0  0  0
   60.7480   28.3160   46.1380 C   0  0  0  0  0  0  0  0  0  0  0  0
   60.5990   28.8590   44.7130 C   0  0  0  0  0  0  0  0  0  0  0  0
   59.4190   28.2780   44.0720 N   0  0  0  0  0  0  0  0  0  0  0  0
   58.1880   28.3640   44.4940 C   0  0  0  0  0  0  0  0  0  0  0  0
   57.4230   29.4720   44.1150 C   0  0  0  0  0  0  0  0  0  0  0  0
   56.0870   29.5580   44.5100 C   0  0  0  0  0  0  0  0  0  0  0  0
   55.5230   28.5550   45.2330 N   0  0  0  0  0  0  0  0  0  0  0  0
   56.2290   27.4590   45.6170 C   0  0  0  0  0  0  0  0  0  0  0  0
   55.5490   26.4080   46.3140 N   0  0  0  0  0  0  0  0  0  0  0  0
   56.2670   24.8870   46.7440 S   0  0  0  0  0  0  0  0  0  0  0  0
   57.5660   25.1430   47.4560 O   0  0  0  0  0  0  0  0  0  0  0  0
   55.3410   24.1430   47.6630 O   0  0  0  0  0  0  0  0  0  0  0  0
   56.5320   23.9160   45.2950 C   0  0  0  0  0  0  0  0  0  0  0  0
   55.6450   23.9940   44.2120 C   0  0  0  0  0  0  0  0  0  0  0  0
   55.8200   23.1610   43.1010 C   0  0  0  0  0  0  0  0  0  0  0  0
   56.8820   22.2520   43.0660 C   0  0  0  0  0  0  0  0  0  0  0  0
   57.7730   22.1780   44.1400 C   0  0  0  0  0  0  0  0  0  0  0  0
   57.6000   23.0080   45.2520 C   0  0  0  0  0  0  0  0  0  0  0  0
   57.5920   27.3670   45.2880 C   0  0  0  0  0  0  0  0  0  0  0  0
   58.3459   31.4822   48.0482 H   0  0  0  0  0  0  0  0  0  0  0  0
   59.3326   31.3909   46.5499 H   0  0  0  0  0  0  0  0  0  0  0  0
   57.6414   30.7854   46.5499 H   0  0  0  0  0  0  0  0  0  0  0  0
   58.4630   28.8350   47.0380 H   0  0  0  0  0  0  0  0  0  0  0  0
   59.5193   29.9272   49.5673 H   0  0  0  0  0  0  0  0  0  0  0  0
   57.7704   29.6953   49.2292 H   0  0  0  0  0  0  0  0  0  0  0  0
   58.8802   28.2828   49.2292 H   0  0  0  0  0  0  0  0  0  0  0  0
   60.8857   30.3406   46.8862 H   0  0  0  0  0  0  0  0  0  0  0  0
   60.9796   29.0279   48.1498 H   0  0  0  0  0  0  0  0  0  0  0  0
   61.7730   27.9361   46.2606 H   0  0  0  0  0  0  0  0  0  0  0  0
   59.9930   27.5261   46.2643 H   0  0  0  0  0  0  0  0  0  0  0  0
   60.4906   29.9530   44.7505 H   0  0  0  0  0  0  0  0  0  0  0  0
   61.4928   28.5900   44.1310 H   0  0  0  0  0  0  0  0  0  0  0  0
   57.8723   30.2721   43.5083 H   0  0  0  0  0  0  0  0  0  0  0  0
   55.4893   30.4397   44.2354 H   0  0  0  0  0  0  0  0  0  0  0  0
   54.8108   24.7106   44.2355 H   0  0  0  0  0  0  0  0  0  0  0  0
   55.1209   23.2215   42.2539 H   0  0  0  0  0  0  0  0  0  0  0  0
   57.0160   21.5956   42.1936 H   0  0  0  0  0  0  0  0  0  0  0  0
   58.6112   21.4662   44.1106 H   0  0  0  0  0  0  0  0  0  0  0  0
   58.3036   22.9486   46.0955 H   0  0  0  0  0  0  0  0  0  0  0  0
   58.1910   26.5184   45.6500 H   0  0  0  0  0  0  0  0  0  0  0  0
  1  2  1  0
  2  3  1  0
  2  4  1  0
  4  5  1  0
  5  6  1  0
  6  7  1  0
  7  8  2  3
  8  9  1  0
  9 10  2  0
 10 11  1  0
 11 12  1  0
 12 13  1  0
 13 14  1  0
 14 15  2  0
 14 16  2  0
 14 17  1  0
 17 18  2  0
 18 19  1  0
 19 20  2  0
 20 21  1  0
 21 22  2  0
 12 23  2  0
 23  8  1  0
 22 17  1  0
  1 24  1  0
  1 25  1  0
  1 26  1  0
  2 27  1  0
  3 28  1  0
  3 29  1  0
  3 30  1  0
  4 31  1  0
  4 32  1  0
  5 33  1  0
  5 34  1  0
  6 35  1  0
  6 36  1  0
  9 37  1  0
 10 38  1  0
 18 39  1  0
 19 40  1  0
 20 41  1  0
 21 42  1  0
 22 43  1  0
 23 44  1  0
M  CHG  3   2   1  11  -1  13  -1
M  END
>  <UniqueID>  (54) 
48

>  <SMILES>  (54) 
C[NH+](C)CCCN=c1cc[n-]c([N-]S(=O)(=O)c2ccccc2)c1

>  <Energy>  (54) 
47.92460554333907

>  <Genealogy>  (54) 
C[NH+](C)CCCN=c1cc[n-]c([N-]S(=O)(=O)c2ccccc2)c1 (protonated)
C[NH+](C)CCCN=c1cc[n-]c([N-]S(=O)(=O)c2ccccc2)c1 (3D coordinates assigned)
C[NH+](C)CCCN=c1cc[n-]c([N-]S(=O)(=O)c2ccccc2)c1 (optimized conformer: 47.92460554333907 kcal/mol)

>  <smiles>  (54) 
CN(C)CCCN=c1cc[nH]c(NS(=O)(=O)c2ccccc2)c1

>  <score_type>  (54) 
oracle

>  <origin>  (54) 
adg

>  <m_score__min__energy>  (54) 
-9.3000000000000007

>  <m_primary>  (54) 
energy

$$$$
54:0
     RDKit          3D

 55 58  0  0  0  0  0  0  0  0999 V2000
   59.9560   33.4520   52.3980 C   0  0  0  0  0  0  0  0  0  0  0  0
   61.3680   33.4400   52.2090 O   0  0  0  0  0  0  0  0  0  0  0  0
   61.9990   33.2980   50.9640 C   0  0  0  0  0  0  0  0  0  0  0  0
   63.3420   32.8470   50.8400 C   0  0  0  0  0  0  0  0  0  0  0  0
   63.9430   32.7210   49.5750 C   0  0  0  0  0  0  0  0  0  0  0  0
   63.1810   33.0430   48.4540 C   0  0  0  0  0  0  0  0  0  0  0  0
   63.5730   33.0130   47.1700 N   0  0  0  0  0  0  0  0  0  0  0  0
   62.5120   33.4300   46.4450 C   0  0  0  0  0  0  0  0  0  0  0  0
   61.4290   33.7120   47.2780 C   0  0  0  0  0  0  0  0  0  0  0  0
   60.0890   34.2870   46.8760 C   0  0  0  0  0  0  0  0  0  0  0  0
   59.9900   34.3760   45.3400 C   0  0  0  0  0  0  0  0  0  0  0  0
   58.5220   34.4750   44.9060 C   0  0  0  0  0  0  0  0  0  0  0  0
   57.7330   33.2690   45.2790 N   0  0  0  0  0  0  0  0  0  0  0  0
   57.5800   32.3530   44.1240 C   0  0  0  0  0  0  0  0  0  0  0  0
   56.7290   31.1240   44.4830 C   0  0  0  0  0  0  0  0  0  0  0  0
   57.3760   29.8340   43.9720 C   0  0  0  0  0  0  0  0  0  0  0  0
   57.3240   28.5250   45.2480 S   0  0  0  0  0  0  0  0  0  0  0  0
   58.6700   29.1980   46.2310 C   0  0  0  0  0  0  0  0  0  0  0  0
   58.5510   29.2780   47.6250 C   0  0  0  0  0  0  0  0  0  0  0  0
   59.5990   29.7990   48.3890 C   0  0  0  0  0  0  0  0  0  0  0  0
   60.7740   30.2320   47.7640 C   0  0  0  0  0  0  0  0  0  0  0  0
   60.9000   30.1390   46.3750 C   0  0  0  0  0  0  0  0  0  0  0  0
   59.8520   29.6180   45.6090 C   0  0  0  0  0  0  0  0  0  0  0  0
   58.2510   32.5560   46.4770 C   0  0  0  0  0  0  0  0  0  0  0  0
   58.9020   33.5070   47.4920 C   0  0  0  0  0  0  0  0  0  0  0  0
   61.8840   33.4730   48.5630 C   0  0  0  0  0  0  0  0  0  0  0  0
   61.2620   33.6180   49.8050 C   0  0  0  0  0  0  0  0  0  0  0  0
   59.7302   33.4539   53.4746 H   0  0  0  0  0  0  0  0  0  0  0  0
   59.5314   34.3538   51.9327 H   0  0  0  0  0  0  0  0  0  0  0  0
   59.5162   32.5576   51.9327 H   0  0  0  0  0  0  0  0  0  0  0  0
   63.9167   32.5941   51.7432 H   0  0  0  0  0  0  0  0  0  0  0  0
   64.9834   32.3785   49.4736 H   0  0  0  0  0  0  0  0  0  0  0  0
   64.5120   32.7390   46.8040 H   0  0  0  0  0  0  0  0  0  0  0  0
   62.5033   33.5329   45.3499 H   0  0  0  0  0  0  0  0  0  0  0  0
   60.0212   35.3055   47.2860 H   0  0  0  0  0  0  0  0  0  0  0  0
   60.5321   35.2678   44.9925 H   0  0  0  0  0  0  0  0  0  0  0  0
   60.4330   33.4705   44.8998 H   0  0  0  0  0  0  0  0  0  0  0  0
   58.0705   35.3546   45.3881 H   0  0  0  0  0  0  0  0  0  0  0  0
   58.5034   34.5597   43.8094 H   0  0  0  0  0  0  0  0  0  0  0  0
   57.0930   32.8958   43.3004 H   0  0  0  0  0  0  0  0  0  0  0  0
   58.5802   32.0035   43.8282 H   0  0  0  0  0  0  0  0  0  0  0  0
   56.6269   31.0654   45.5767 H   0  0  0  0  0  0  0  0  0  0  0  0
   55.7434   31.2317   44.0066 H   0  0  0  0  0  0  0  0  0  0  0  0
   56.8334   29.4884   43.0797 H   0  0  0  0  0  0  0  0  0  0  0  0
   58.4278   30.0427   43.7266 H   0  0  0  0  0  0  0  0  0  0  0  0
   57.6315   28.9303   48.1186 H   0  0  0  0  0  0  0  0  0  0  0  0
   59.5002   29.8688   49.4823 H   0  0  0  0  0  0  0  0  0  0  0  0
   61.5974   30.6450   48.3652 H   0  0  0  0  0  0  0  0  0  0  0  0
   61.8246   30.4760   45.8836 H   0  0  0  0  0  0  0  0  0  0  0  0
   59.9566   29.5382   44.5169 H   0  0  0  0  0  0  0  0  0  0  0  0
   57.4146   32.0360   46.9670 H   0  0  0  0  0  0  0  0  0  0  0  0
   59.0233   31.8500   46.1377 H   0  0  0  0  0  0  0  0  0  0  0  0
   58.1463   34.2266   47.8400 H   0  0  0  0  0  0  0  0  0  0  0  0
   59.2884   32.9021   48.3256 H   0  0  0  0  0  0  0  0  0  0  0  0
   60.2233   33.9729   49.8774 H   0  0  0  0  0  0  0  0  0  0  0  0
  1  2  1  0
  2  3  1  0
  3  4  2  0
  4  5  1  0
  5  6  2  0
  6  7  1  0
  7  8  1  0
  8  9  2  0
  9 10  1  0
 10 11  1  0
 11 12  1  0
 12 13  1  0
 13 14  1  0
 14 15  1  0
 15 16  1  0
 16 17  1  0
 17 18  1  0
 18 19  2  0
 19 20  1  0
 20 21  2  0
 21 22  1  0
 22 23  2  0
 13 24  1  0
 24 25  1  0
  9 26  1  0
 26 27  2  0
 27  3  1  0
 26  6  1  0
 25 10  1  0
 23 18  1  0
  1 28  1  0
  1 29  1  0
  1 30  1  0
  4 31  1  0
  5 32  1  0
  7 33  1  0
  8 34  1  0
 10 35  1  0
 11 36  1  0
 11 37  1  0
 12 38  1  0
 12 39  1  0
 14 40  1  0
 14 41  1  0
 15 42  1  0
 15 43  1  0
 16 44  1  0
 16 45  1  0
 19 46  1  0
 20 47  1  0
 21 48  1  0
 22 49  1  0
 23 50  1  0
 24 51  1  0
 24 52  1  0
 25 53  1  0
 25 54  1  0
 27 55  1  0
M  END
>  <UniqueID>  (55) 
49

>  <SMILES>  (55) 
COc1ccc2[nH]cc(C3CCN(CCCSc4ccccc4)CC3)c2c1

>  <Energy>  (55) 
91.86387109472282

>  <Genealogy>  (55) 
COc1ccc2[nH]cc(C3CCN(CCCSc4ccccc4)CC3)c2c1 (3D coordinates assigned)
COc1ccc2[nH]cc(C3CCN(CCCSc4ccccc4)CC3)c2c1 (nonaromatic ring conformer: 91.86387109472282 kcal/mol)

>  <smiles>  (55) 
COc1ccc2[nH]cc(C3CCN(CCCSc4ccccc4)CC3)c2c1

>  <score_type>  (55) 
oracle

>  <origin>  (55) 
adg

>  <m_score__min__energy>  (55) 
-8.8599999999999994

>  <m_primary>  (55) 
energy

$$$$
55:0
     RDKit          3D

 29 30  0  0  0  0  0  0  0  0999 V2000
   60.7820   26.7670   46.7110 C   0  0  0  0  0  0  0  0  0  0  0  0
   59.6980   27.5540   46.0360 C   0  0  0  0  0  0  0  0  0  0  0  0
   58.3520   27.2060   46.2180 C   0  0  0  0  0  0  0  0  0  0  0  0
   57.3400   27.9620   45.6200 C   0  0  0  0  0  0  0  0  0  0  0  0
   57.6630   29.0850   44.8470 C   0  0  0  0  0  0  0  0  0  0  0  0
   56.3830   30.0430   44.1080 S   0  0  0  0  0  0  0  0  0  0  0  0
   56.6430   30.2320   42.6400 O   0  0  0  0  0  0  0  0  0  0  0  0
   55.0750   29.3260   44.2850 O   0  0  0  0  0  0  0  0  0  0  0  0
   56.2860   31.5970   44.8710 N   0  0  0  0  0  0  0  0  0  0  0  0
   57.4040   32.4460   45.1610 C   0  0  0  0  0  0  0  0  0  0  0  0
   58.0710   33.1770   44.1590 C   0  0  0  0  0  0  0  0  0  0  0  0
   59.1620   33.9870   44.4890 C   0  0  0  0  0  0  0  0  0  0  0  0
   59.5950   34.0770   45.8140 C   0  0  0  0  0  0  0  0  0  0  0  0
   58.9370   33.3570   46.8150 C   0  0  0  0  0  0  0  0  0  0  0  0
   59.4800   33.4700   48.4780 Cl  0  0  0  0  0  0  0  0  0  0  0  0
   57.8450   32.5450   46.4880 C   0  0  0  0  0  0  0  0  0  0  0  0
   59.0060   29.4430   44.6730 C   0  0  0  0  0  0  0  0  0  0  0  0
   60.0180   28.6870   45.2700 C   0  0  0  0  0  0  0  0  0  0  0  0
   60.6693   26.8488   47.8021 H   0  0  0  0  0  0  0  0  0  0  0  0
   60.7081   25.7107   46.4129 H   0  0  0  0  0  0  0  0  0  0  0  0
   61.7635   27.1643   46.4129 H   0  0  0  0  0  0  0  0  0  0  0  0
   58.0911   26.3333   46.8347 H   0  0  0  0  0  0  0  0  0  0  0  0
   56.2870   27.6746   45.7566 H   0  0  0  0  0  0  0  0  0  0  0  0
   57.7330   33.1106   43.1143 H   0  0  0  0  0  0  0  0  0  0  0  0
   59.6808   34.5551   43.7028 H   0  0  0  0  0  0  0  0  0  0  0  0
   60.4541   34.7147   46.0696 H   0  0  0  0  0  0  0  0  0  0  0  0
   57.3288   31.9802   47.2783 H   0  0  0  0  0  0  0  0  0  0  0  0
   59.2647   30.3221   44.0645 H   0  0  0  0  0  0  0  0  0  0  0  0
   61.0701   28.9804   45.1395 H   0  0  0  0  0  0  0  0  0  0  0  0
  1  2  1  0
  2  3  2  0
  3  4  1  0
  4  5  2  0
  5  6  1  0
  6  7  2  0
  6  8  2  0
  6  9  1  0
  9 10  1  0
 10 11  2  0
 11 12  1  0
 12 13  2  0
 13 14  1  0
 14 15  1  0
 14 16  2  0
  5 17  1  0
 17 18  2  0
 18  2  1  0
 16 10  1  0
  1 19  1  0
  1 20  1  0
  1 21  1  0
  3 22  1  0
  4 23  1  0
 11 24  1  0
 12 25  1  0
 13 26  1  0
 16 27  1  0
 17 28  1  0
 18 29  1  0
M  CHG  1   9  -1
M  END
>  <UniqueID>  (56) 
50

>  <SMILES>  (56) 
Cc1ccc(S(=O)(=O)[N-]c2cccc(Cl)c2)cc1

>  <Energy>  (56) 
31.64981850787873

>  <Genealogy>  (56) 
Cc1ccc(S(=O)(=O)[N-]c2cccc(Cl)c2)cc1 (protonated)
Cc1ccc(S(=O)(=O)[N-]c2cccc(Cl)c2)cc1 (3D coordinates assigned)
Cc1ccc(S(=O)(=O)[N-]c2cccc(Cl)c2)cc1 (optimized conformer: 31.64981850787873 kcal/mol)

>  <smiles>  (56) 
Cc1ccc(S(=O)(=O)Nc2cccc(Cl)c2)cc1

>  <score_type>  (56) 
oracle

>  <origin>  (56) 
adg

>  <m_score__min__energy>  (56) 
-8.8900000000000006

>  <m_primary>  (56) 
energy

$$$$
56:0
     RDKit          3D

 49 51  0  0  0  0  0  0  0  0999 V2000
   55.6640   28.9920   44.8880 O   0  0  0  0  0  0  0  0  0  0  0  0
   56.5830   29.5170   44.2040 C   0  0  0  0  0  0  0  0  0  0  0  0
   56.3250   30.8170   43.5040 C   0  0  0  0  0  0  0  0  0  0  0  0
   57.8840   31.5900   42.9470 S   0  0  0  0  0  0  0  0  0  0  0  0
   58.0660   32.6430   44.3890 C   0  0  0  0  0  0  0  0  0  0  0  0
   57.3910   32.3330   45.5770 C   0  0  0  0  0  0  0  0  0  0  0  0
   57.5190   33.1660   46.6930 C   0  0  0  0  0  0  0  0  0  0  0  0
   58.3140   34.3150   46.6220 C   0  0  0  0  0  0  0  0  0  0  0  0
   58.9810   34.6320   45.4340 C   0  0  0  0  0  0  0  0  0  0  0  0
   58.8610   33.7960   44.3200 C   0  0  0  0  0  0  0  0  0  0  0  0
   57.8620   28.8730   44.0830 N   0  0  0  0  0  0  0  0  0  0  0  0
   58.3050   27.8040   44.9400 C   0  0  0  0  0  0  0  0  0  0  0  0
   58.0560   26.4620   44.5910 C   0  0  0  0  0  0  0  0  0  0  0  0
   58.4350   25.4220   45.4430 C   0  0  0  0  0  0  0  0  0  0  0  0
   59.0570   25.7050   46.6570 C   0  0  0  0  0  0  0  0  0  0  0  0
   59.2950   27.0290   47.0290 C   0  0  0  0  0  0  0  0  0  0  0  0
   58.9090   28.0870   46.1890 C   0  0  0  0  0  0  0  0  0  0  0  0
   59.2070   29.4730   46.6070 C   0  0  0  0  0  0  0  0  0  0  0  0
   59.8280   30.2330   45.8210 O   0  0  0  0  0  0  0  0  0  0  0  0
   58.8600   29.9590   47.9090 N   0  0  0  0  0  0  0  0  0  0  0  0
   59.4330   31.1480   48.5340 C   0  0  0  0  0  0  0  0  0  0  0  0
   60.9180   30.9270   48.8200 C   0  0  0  0  0  0  0  0  0  0  0  0
   61.7640   31.9160   48.0600 C   0  0  0  0  0  0  0  0  0  0  0  0
   63.1240   32.0750   48.3720 C   0  0  0  0  0  0  0  0  0  0  0  0
   63.8910   33.0360   47.7070 C   0  0  0  0  0  0  0  0  0  0  0  0
   63.3040   33.8510   46.7330 C   0  0  0  0  0  0  0  0  0  0  0  0
   61.9490   33.7060   46.4260 C   0  0  0  0  0  0  0  0  0  0  0  0
   61.1790   32.7450   47.0880 C   0  0  0  0  0  0  0  0  0  0  0  0
   55.6839   30.6323   42.6294 H   0  0  0  0  0  0  0  0  0  0  0  0
   55.8310   31.5003   44.2104 H   0  0  0  0  0  0  0  0  0  0  0  0
   56.7599   31.4337   45.6319 H   0  0  0  0  0  0  0  0  0  0  0  0
   56.9942   32.9176   47.6273 H   0  0  0  0  0  0  0  0  0  0  0  0
   58.4146   34.9693   47.5005 H   0  0  0  0  0  0  0  0  0  0  0  0
   59.6001   35.5394   45.3763 H   0  0  0  0  0  0  0  0  0  0  0  0
   59.3909   34.0430   43.3882 H   0  0  0  0  0  0  0  0  0  0  0  0
   58.4970   29.1930   43.3170 H   0  0  0  0  0  0  0  0  0  0  0  0
   57.5580   26.2308   43.6378 H   0  0  0  0  0  0  0  0  0  0  0  0
   58.2421   24.3781   45.1550 H   0  0  0  0  0  0  0  0  0  0  0  0
   59.3609   24.8841   47.3231 H   0  0  0  0  0  0  0  0  0  0  0  0
   59.7888   27.2459   47.9877 H   0  0  0  0  0  0  0  0  0  0  0  0
   59.3168   32.0069   47.8567 H   0  0  0  0  0  0  0  0  0  0  0  0
   58.9093   31.3448   49.4811 H   0  0  0  0  0  0  0  0  0  0  0  0
   61.0997   31.0507   49.8978 H   0  0  0  0  0  0  0  0  0  0  0  0
   61.1907   29.9108   48.4991 H   0  0  0  0  0  0  0  0  0  0  0  0
   63.5873   31.4411   49.1424 H   0  0  0  0  0  0  0  0  0  0  0  0
   64.9576   33.1516   47.9498 H   0  0  0  0  0  0  0  0  0  0  0  0
   63.9092   34.6056   46.2092 H   0  0  0  0  0  0  0  0  0  0  0  0
   61.4871   34.3489   45.6622 H   0  0  0  0  0  0  0  0  0  0  0  0
   60.1111   32.6375   46.8470 H   0  0  0  0  0  0  0  0  0  0  0  0
  1  2  2  0
  2  3  1  0
  3  4  1  0
  4  5  1  0
  5  6  2  0
  6  7  1  0
  7  8  2  0
  8  9  1  0
  9 10  2  0
  2 11  1  0
 11 12  1  0
 12 13  2  0
 13 14  1  0
 14 15  2  0
 15 16  1  0
 16 17  2  0
 17 18  1  0
 18 19  2  0
 18 20  1  0
 20 21  1  0
 21 22  1  0
 22 23  1  0
 23 24  2  0
 24 25  1  0
 25 26  2  0
 26 27  1  0
 27 28  2  0
 10  5  1  0
 17 12  1  0
 28 23  1  0
  3 29  1  0
  3 30  1  0
  6 31  1  0
  7 32  1  0
  8 33  1  0
  9 34  1  0
 10 35  1  0
 11 36  1  0
 13 37  1  0
 14 38  1  0
 15 39  1  0
 16 40  1  0
 21 41  1  0
 21 42  1  0
 22 43  1  0
 22 44  1  0
 24 45  1  0
 25 46  1  0
 26 47  1  0
 27 48  1  0
 28 49  1  0
M  CHG  1  20  -1
M  END
>  <UniqueID>  (57) 
51

>  <SMILES>  (57) 
O=C(CSc1ccccc1)Nc1ccccc1C(=O)[N-]CCc1ccccc1

>  <Energy>  (57) 
51.92602173562713

>  <Genealogy>  (57) 
O=C(CSc1ccccc1)Nc1ccccc1C(=O)[N-]CCc1ccccc1 (protonated)
O=C(CSc1ccccc1)Nc1ccccc1C(=O)[N-]CCc1ccccc1 (3D coordinates assigned)
O=C(CSc1ccccc1)Nc1ccccc1C(=O)[N-]CCc1ccccc1 (optimized conformer: 51.92602173562713 kcal/mol)

>  <smiles>  (57) 
O=C(CSc1ccccc1)Nc1ccccc1C(=O)NCCc1ccccc1

>  <score_type>  (57) 
oracle

>  <origin>  (57) 
adg

>  <m_score__min__energy>  (57) 
-10.470000000000001

>  <m_primary>  (57) 
energy

$$$$
57:0
     RDKit          3D

 71 75  0  0  0  0  0  0  0  0999 V2000
   63.7670   31.7640   46.8230 C   0  0  0  0  0  0  0  0  0  0  0  0
   63.6680   33.2770   46.6430 C   0  0  0  0  0  0  0  0  0  0  0  0
   62.4980   33.8590   47.4540 C   0  0  0  0  0  0  0  0  0  0  0  0
   62.8960   34.1390   48.9110 C   0  0  0  0  0  0  0  0  0  0  0  0
   63.2530   32.8830   49.6600 C   0  0  0  0  0  0  0  0  0  0  0  0
   64.5260   32.5570   49.9820 N   0  0  0  0  0  0  0  0  0  0  0  0
   64.4470   31.4610   50.7210 N   0  0  0  0  0  0  0  0  0  0  0  0
   65.5730   30.7810   51.2870 C   0  0  0  0  0  0  0  0  0  0  0  0
   65.4490   29.4200   51.6080 C   0  0  0  0  0  0  0  0  0  0  0  0
   66.5350   28.7140   52.1260 C   0  0  0  0  0  0  0  0  0  0  0  0
   67.7560   29.3590   52.3270 C   0  0  0  0  0  0  0  0  0  0  0  0
   67.8910   30.7160   52.0210 C   0  0  0  0  0  0  0  0  0  0  0  0
   66.7990   31.4540   51.5220 C   0  0  0  0  0  0  0  0  0  0  0  0
   66.9640   32.9260   51.2050 C   0  0  0  0  0  0  0  0  0  0  0  0
   68.1520   33.4220   51.7170 F   0  0  0  0  0  0  0  0  0  0  0  0
   65.9300   33.6600   51.7550 F   0  0  0  0  0  0  0  0  0  0  0  0
   66.9660   33.1030   49.8340 F   0  0  0  0  0  0  0  0  0  0  0  0
   63.1490   31.1490   50.8700 C   0  0  0  0  0  0  0  0  0  0  0  0
   62.7250   30.1810   51.5560 O   0  0  0  0  0  0  0  0  0  0  0  0
   62.3610   32.0140   50.2060 N   0  0  0  0  0  0  0  0  0  0  0  0
   60.8960   32.0400   50.1700 C   0  0  0  0  0  0  0  0  0  0  0  0
   60.3770   31.0390   49.1720 C   0  0  0  0  0  0  0  0  0  0  0  0
   59.2420   30.2690   49.4700 C   0  0  0  0  0  0  0  0  0  0  0  0
   58.7650   29.3270   48.5510 C   0  0  0  0  0  0  0  0  0  0  0  0
   59.3980   29.1680   47.3090 C   0  0  0  0  0  0  0  0  0  0  0  0
   58.9250   28.1490   46.3450 C   0  0  0  0  0  0  0  0  0  0  0  0
   59.3360   26.8180   46.5380 C   0  0  0  0  0  0  0  0  0  0  0  0
   58.9070   25.8070   45.6740 C   0  0  0  0  0  0  0  0  0  0  0  0
   58.0640   26.1130   44.6050 C   0  0  0  0  0  0  0  0  0  0  0  0
   57.6460   27.4280   44.3980 C   0  0  0  0  0  0  0  0  0  0  0  0
   58.0770   28.4610   45.2500 C   0  0  0  0  0  0  0  0  0  0  0  0
   57.5320   30.1120   44.9000 S   0  0  0  0  0  0  0  0  0  0  0  0
   56.0660   30.1380   44.5640 O   0  0  0  0  0  0  0  0  0  0  0  0
   58.3330   30.6470   43.7440 O   0  0  0  0  0  0  0  0  0  0  0  0
   57.7960   31.0940   46.3050 N   0  0  0  0  0  0  0  0  0  0  0  0
   58.3240   32.4270   46.3110 C   0  0  0  0  0  0  0  0  0  0  0  0
   58.5200   33.0640   47.5460 C   0  0  0  0  0  0  0  0  0  0  0  0
   59.0760   34.3490   47.6030 C   0  0  0  0  0  0  0  0  0  0  0  0
   59.4310   35.0130   46.4220 C   0  0  0  0  0  0  0  0  0  0  0  0
   59.2110   34.3960   45.1850 C   0  0  0  0  0  0  0  0  0  0  0  0
   58.6570   33.1090   45.1270 C   0  0  0  0  0  0  0  0  0  0  0  0
   60.5360   29.9370   47.0140 C   0  0  0  0  0  0  0  0  0  0  0  0
   61.0240   30.8630   47.9390 C   0  0  0  0  0  0  0  0  0  0  0  0
   63.7828   31.5227   47.8961 H   0  0  0  0  0  0  0  0  0  0  0  0
   62.8985   31.2810   46.3513 H   0  0  0  0  0  0  0  0  0  0  0  0
   64.6910   31.3983   46.3513 H   0  0  0  0  0  0  0  0  0  0  0  0
   64.6058   33.7407   46.9829 H   0  0  0  0  0  0  0  0  0  0  0  0
   63.4932   33.4900   45.5781 H   0  0  0  0  0  0  0  0  0  0  0  0
   62.1744   34.8005   46.9863 H   0  0  0  0  0  0  0  0  0  0  0  0
   61.6842   33.1190   47.4585 H   0  0  0  0  0  0  0  0  0  0  0  0
   63.7655   34.8127   48.9164 H   0  0  0  0  0  0  0  0  0  0  0  0
   62.0300   34.5944   49.4136 H   0  0  0  0  0  0  0  0  0  0  0  0
   64.4890   28.9068   51.4500 H   0  0  0  0  0  0  0  0  0  0  0  0
   66.4288   27.6481   52.3762 H   0  0  0  0  0  0  0  0  0  0  0  0
   68.6138   28.7984   52.7270 H   0  0  0  0  0  0  0  0  0  0  0  0
   68.8604   31.2136   52.1713 H   0  0  0  0  0  0  0  0  0  0  0  0
   60.5046   31.7931   51.1679 H   0  0  0  0  0  0  0  0  0  0  0  0
   60.5645   33.0456   49.8718 H   0  0  0  0  0  0  0  0  0  0  0  0
   58.7245   30.4065   50.4309 H   0  0  0  0  0  0  0  0  0  0  0  0
   57.8907   28.7091   48.8035 H   0  0  0  0  0  0  0  0  0  0  0  0
   60.0020   26.5702   47.3777 H   0  0  0  0  0  0  0  0  0  0  0  0
   59.2340   24.7694   45.8367 H   0  0  0  0  0  0  0  0  0  0  0  0
   57.7285   25.3165   43.9246 H   0  0  0  0  0  0  0  0  0  0  0  0
   56.9723   27.6594   43.5597 H   0  0  0  0  0  0  0  0  0  0  0  0
   58.2350   32.5507   48.4763 H   0  0  0  0  0  0  0  0  0  0  0  0
   59.2338   34.8367   48.5763 H   0  0  0  0  0  0  0  0  0  0  0  0
   59.8811   36.0157   46.4664 H   0  0  0  0  0  0  0  0  0  0  0  0
   59.4735   34.9223   44.2554 H   0  0  0  0  0  0  0  0  0  0  0  0
   58.4823   32.6311   44.1518 H   0  0  0  0  0  0  0  0  0  0  0  0
   61.0463   29.8091   46.0480 H   0  0  0  0  0  0  0  0  0  0  0  0
   61.9188   31.4565   47.7001 H   0  0  0  0  0  0  0  0  0  0  0  0
  1  2  1  0
  2  3  1  0
  3  4  1  0
  4  5  1  0
  5  6  2  0
  6  7  1  0
  7  8  1  0
  8  9  2  0
  9 10  1  0
 10 11  2  0
 11 12  1  0
 12 13  2  0
 13 14  1  0
 14 15  1  0
 14 16  1  0
 14 17  1  0
  7 18  1  0
 18 19  2  0
 18 20  1  0
 20 21  1  0
 21 22  1  0
 22 23  2  0
 23 24  1  0
 24 25  2  0
 25 26  1  0
 26 27  2  0
 27 28  1  0
 28 29  2  0
 29 30  1  0
 30 31  2  0
 31 32  1  0
 32 33  2  0
 32 34  2  0
 32 35  1  0
 35 36  1  0
 36 37  2  0
 37 38  1  0
 38 39  2  0
 39 40  1  0
 40 41  2  0
 25 42  1  0
 42 43  2  0
 20  5  1  0
 43 22  1  0
 13  8  1  0
 31 26  1  0
 41 36  1  0
  1 44  1  0
  1 45  1  0
  1 46  1  0
  2 47  1  0
  2 48  1  0
  3 49  1  0
  3 50  1  0
  4 51  1  0
  4 52  1  0
  9 53  1  0
 10 54  1  0
 11 55  1  0
 12 56  1  0
 21 57  1  0
 21 58  1  0
 23 59  1  0
 24 60  1  0
 27 61  1  0
 28 62  1  0
 29 63  1  0
 30 64  1  0
 37 65  1  0
 38 66  1  0
 39 67  1  0
 40 68  1  0
 41 69  1  0
 42 70  1  0
 43 71  1  0
M  CHG  1  35  -1
M  END
>  <UniqueID>  (58) 
52

>  <SMILES>  (58) 
CCCCc1nn(-c2ccccc2C(F)(F)F)c(=O)n1Cc1ccc(-c2ccccc2S(=O)(=O)[N-]c2ccccc2)cc1

>  <Energy>  (58) 
128.87586705364868

>  <Genealogy>  (58) 
CCCCc1nn(-c2ccccc2C(F)(F)F)c(=O)n1Cc1ccc(-c2ccccc2S(=O)(=O)[N-]c2ccccc2)cc1 (protonated)
CCCCc1nn(-c2ccccc2C(F)(F)F)c(=O)n1Cc1ccc(-c2ccccc2S(=O)(=O)[N-]c2ccccc2)cc1 (3D coordinates assigned)
CCCCc1nn(-c2ccccc2C(F)(F)F)c(=O)n1Cc1ccc(-c2ccccc2S(=O)(=O)[N-]c2ccccc2)cc1 (optimized conformer: 128.87586705364868 kcal/mol)

>  <smiles>  (58) 
CCCCc1nn(-c2ccccc2C(F)(F)F)c(=O)n1Cc1ccc(-c2ccccc2S(=O)(=O)Nc2ccccc2)cc1

>  <score_type>  (58) 
oracle

>  <origin>  (58) 
adg

>  <m_score__min__energy>  (58) 
-10.77

>  <m_primary>  (58) 
energy

$$$$
58:0
     RDKit          3D

 25 26  0  0  0  0  0  0  0  0999 V2000
   55.7130   30.0530   43.8440 C   0  0  0  0  0  0  0  0  0  0  0  0
   55.5720   29.1590   44.9430 O   0  0  0  0  0  0  0  0  0  0  0  0
   56.5980   28.3360   45.4340 C   0  0  0  0  0  0  0  0  0  0  0  0
   57.9530   28.7250   45.4070 C   0  0  0  0  0  0  0  0  0  0  0  0
   58.9500   27.8680   45.9020 C   0  0  0  0  0  0  0  0  0  0  0  0
   60.3890   28.3050   45.9070 C   0  0  0  0  0  0  0  0  0  0  0  0
   60.6090   29.3370   46.9680 C   0  0  0  0  0  0  0  0  0  0  0  0
   60.8120   30.6800   46.7620 C   0  0  0  0  0  0  0  0  0  0  0  0
   61.0430   31.2710   47.9470 N   0  0  0  0  0  0  0  0  0  0  0  0
   60.9800   30.2590   48.8380 C   0  0  0  0  0  0  0  0  0  0  0  0
   60.7250   29.0570   48.2780 N   0  0  0  0  0  0  0  0  0  0  0  0
   58.5860   26.6280   46.4470 C   0  0  0  0  0  0  0  0  0  0  0  0
   57.2460   26.2380   46.4740 C   0  0  0  0  0  0  0  0  0  0  0  0
   56.2550   27.0860   45.9690 C   0  0  0  0  0  0  0  0  0  0  0  0
   54.9260   26.6840   46.0020 O   0  0  0  0  0  0  0  0  0  0  0  0
   55.8740   31.0740   44.2202 H   0  0  0  0  0  0  0  0  0  0  0  0
   56.5741   29.7479   43.2313 H   0  0  0  0  0  0  0  0  0  0  0  0
   54.7998   30.0278   43.2313 H   0  0  0  0  0  0  0  0  0  0  0  0
   58.2314   29.7064   44.9955 H   0  0  0  0  0  0  0  0  0  0  0  0
   61.0327   27.4355   46.1061 H   0  0  0  0  0  0  0  0  0  0  0  0
   60.6374   28.7377   44.9267 H   0  0  0  0  0  0  0  0  0  0  0  0
   60.7892   31.1885   45.7869 H   0  0  0  0  0  0  0  0  0  0  0  0
   61.1230   30.4003   49.9195 H   0  0  0  0  0  0  0  0  0  0  0  0
   59.3593   25.9604   46.8547 H   0  0  0  0  0  0  0  0  0  0  0  0
   56.9684   25.2600   46.8940 H   0  0  0  0  0  0  0  0  0  0  0  0
  1  2  1  0
  2  3  1  0
  3  4  2  0
  4  5  1  0
  5  6  1  0
  6  7  1  0
  7  8  2  0
  8  9  1  0
  9 10  1  0
 10 11  2  0
  5 12  2  0
 12 13  1  0
 13 14  2  0
 14 15  1  0
 14  3  1  0
 11  7  1  0
  1 16  1  0
  1 17  1  0
  1 18  1  0
  4 19  1  0
  6 20  1  0
  6 21  1  0
  8 22  1  0
 10 23  1  0
 12 24  1  0
 13 25  1  0
M  CHG  2   9  -1  15  -1
M  END
>  <UniqueID>  (59) 
53

>  <SMILES>  (59) 
COc1cc(Cc2c[n-]cn2)ccc1[O-]

>  <Energy>  (59) 
50.49046150314485

>  <Genealogy>  (59) 
COc1cc(Cc2c[n-]cn2)ccc1[O-] (protonated)
COc1cc(Cc2c[n-]cn2)ccc1[O-] (3D coordinates assigned)
COc1cc(Cc2c[n-]cn2)ccc1[O-] (optimized conformer: 50.49046150314485 kcal/mol)

>  <smiles>  (59) 
COc1cc(Cc2c[nH]cn2)ccc1O

>  <score_type>  (59) 
oracle

>  <origin>  (59) 
adg

>  <m_score__min__energy>  (59) 
-11.050000000000001

>  <m_primary>  (59) 
energy

$$$$
59:0
     RDKit          3D

 35 37  0  0  0  0  0  0  0  0999 V2000
   56.9580   29.8370   42.9790 O   0  0  0  0  0  0  0  0  0  0  0  0
   57.0070   30.0180   44.4710 S   0  0  0  0  0  0  0  0  0  0  0  0
   55.6050   29.9010   45.0030 O   0  0  0  0  0  0  0  0  0  0  0  0
   57.6480   31.6100   44.8660 C   0  0  0  0  0  0  0  0  0  0  0  0
   57.7520   32.0180   46.2040 C   0  0  0  0  0  0  0  0  0  0  0  0
   58.2340   33.2940   46.5130 C   0  0  0  0  0  0  0  0  0  0  0  0
   58.6100   34.1680   45.4890 C   0  0  0  0  0  0  0  0  0  0  0  0
   58.5080   33.7660   44.1550 C   0  0  0  0  0  0  0  0  0  0  0  0
   58.0280   32.4900   43.8420 C   0  0  0  0  0  0  0  0  0  0  0  0
   58.0220   28.7890   45.1660 N   0  0  0  0  0  0  0  0  0  0  0  0
   57.9330   27.4160   44.6600 C   0  0  0  0  0  0  0  0  0  0  0  0
   56.9530   26.6310   45.4730 C   0  0  0  0  0  0  0  0  0  0  0  0
   57.2210   25.4530   46.0640 N   0  0  0  0  0  0  0  0  0  0  0  0
   56.0690   25.0700   46.5980 N   0  0  0  0  0  0  0  0  0  0  0  0
   55.1290   25.9680   46.3380 N   0  0  0  0  0  0  0  0  0  0  0  0
   55.6580   26.9490   45.6300 N   0  0  0  0  0  0  0  0  0  0  0  0
   58.9290   29.1180   46.2310 C   0  0  0  0  0  0  0  0  0  0  0  0
   60.1630   29.7280   45.9540 C   0  0  0  0  0  0  0  0  0  0  0  0
   61.0340   30.0620   46.9950 C   0  0  0  0  0  0  0  0  0  0  0  0
   60.6780   29.7930   48.3200 C   0  0  0  0  0  0  0  0  0  0  0  0
   59.4490   29.1910   48.6050 C   0  0  0  0  0  0  0  0  0  0  0  0
   58.5770   28.8560   47.5650 C   0  0  0  0  0  0  0  0  0  0  0  0
   57.4539   31.3332   47.0116 H   0  0  0  0  0  0  0  0  0  0  0  0
   58.3173   33.6102   47.5633 H   0  0  0  0  0  0  0  0  0  0  0  0
   58.9862   35.1723   45.7336 H   0  0  0  0  0  0  0  0  0  0  0  0
   58.8055   34.4538   43.3497 H   0  0  0  0  0  0  0  0  0  0  0  0
   57.9484   32.1761   42.7908 H   0  0  0  0  0  0  0  0  0  0  0  0
   57.6024   27.4356   43.6110 H   0  0  0  0  0  0  0  0  0  0  0  0
   58.9226   26.9410   44.7318 H   0  0  0  0  0  0  0  0  0  0  0  0
   55.1460   27.7840   45.2720 H   0  0  0  0  0  0  0  0  0  0  0  0
   60.4456   29.9440   44.9131 H   0  0  0  0  0  0  0  0  0  0  0  0
   62.0006   30.5370   46.7715 H   0  0  0  0  0  0  0  0  0  0  0  0
   61.3650   30.0551   49.1382 H   0  0  0  0  0  0  0  0  0  0  0  0
   59.1681   28.9809   49.6476 H   0  0  0  0  0  0  0  0  0  0  0  0
   57.6096   28.3845   47.7929 H   0  0  0  0  0  0  0  0  0  0  0  0
  1  2  2  0
  2  3  2  0
  2  4  1  0
  4  5  2  0
  5  6  1  0
  6  7  2  0
  7  8  1  0
  8  9  2  0
  2 10  1  0
 10 11  1  0
 11 12  1  0
 12 13  2  0
 13 14  1  0
 14 15  1  0
 15 16  2  0
 10 17  1  0
 17 18  2  0
 18 19  1  0
 19 20  2  0
 20 21  1  0
 21 22  2  0
  9  4  1  0
 16 12  1  0
 22 17  1  0
  5 23  1  0
  6 24  1  0
  7 25  1  0
  8 26  1  0
  9 27  1  0
 11 28  1  0
 11 29  1  0
 16 30  1  0
 18 31  1  0
 19 32  1  0
 20 33  1  0
 21 34  1  0
 22 35  1  0
M  CHG  2  14  -1  16   1
M  END
>  <UniqueID>  (60) 
54

>  <SMILES>  (60) 
O=S(=O)(c1ccccc1)N(Cc1n[n-]n[nH+]1)c1ccccc1

>  <Energy>  (60) 
79.59873023538984

>  <Genealogy>  (60) 
O=S(=O)(c1ccccc1)N(Cc1n[n-]n[nH+]1)c1ccccc1 (protonated)
O=S(=O)(c1ccccc1)N(Cc1n[n-]n[nH+]1)c1ccccc1 (3D coordinates assigned)
O=S(=O)(c1ccccc1)N(Cc1n[n-]n[nH+]1)c1ccccc1 (optimized conformer: 79.59873023538984 kcal/mol)

>  <smiles>  (60) 
O=S(=O)(c1ccccc1)N(Cc1nn[nH]n1)c1ccccc1

>  <score_type>  (60) 
oracle

>  <origin>  (60) 
adg

>  <m_score__min__energy>  (60) 
-8.9900000000000002

>  <m_primary>  (60) 
energy

$$$$
60:0
     RDKit          3D

 56 59  0  0  0  0  0  0  0  0999 V2000
   63.7710   32.7300   46.7730 C   0  0  0  0  0  0  0  0  0  0  0  0
   62.5880   33.2010   47.1760 C   0  0  0  0  0  0  0  0  0  0  0  0
   62.4760   34.2170   48.2770 C   0  0  0  0  0  0  0  0  0  0  0  0
   61.3440   33.8980   49.1550 N   0  0  0  0  0  0  0  0  0  0  0  0
   61.3630   33.8440   50.5040 C   0  0  0  0  0  0  0  0  0  0  0  0
   62.8510   33.8860   51.5110 S   0  0  0  0  0  0  0  0  0  0  0  0
   63.0280   32.0700   51.6180 C   0  0  0  0  0  0  0  0  0  0  0  0
   62.5820   31.3970   50.3570 C   0  0  0  0  0  0  0  0  0  0  0  0
   63.4420   31.0710   49.4950 O   0  0  0  0  0  0  0  0  0  0  0  0
   61.1850   31.1640   50.1190 N   0  0  0  0  0  0  0  0  0  0  0  0
   60.6740   30.2600   49.1230 C   0  0  0  0  0  0  0  0  0  0  0  0
   60.7370   30.6190   47.7730 C   0  0  0  0  0  0  0  0  0  0  0  0
   60.2170   29.7770   46.7860 C   0  0  0  0  0  0  0  0  0  0  0  0
   59.5940   28.5520   47.1230 C   0  0  0  0  0  0  0  0  0  0  0  0
   59.0470   27.6700   46.0950 N   0  0  0  0  0  0  0  0  0  0  0  0
   58.6560   28.2400   44.7900 C   0  0  0  0  0  0  0  0  0  0  0  0
   58.1940   27.1870   43.7810 C   0  0  0  0  0  0  0  0  0  0  0  0
   57.4070   26.2060   44.4120 O   0  0  0  0  0  0  0  0  0  0  0  0
   58.2420   25.4350   45.2420 C   0  0  0  0  0  0  0  0  0  0  0  0
   58.7640   26.2560   46.4270 C   0  0  0  0  0  0  0  0  0  0  0  0
   59.5230   28.2130   48.4950 C   0  0  0  0  0  0  0  0  0  0  0  0
   60.0510   29.0550   49.4750 C   0  0  0  0  0  0  0  0  0  0  0  0
   60.1230   33.8080   51.0210 N   0  0  0  0  0  0  0  0  0  0  0  0
   59.2810   33.8410   49.9980 N   0  0  0  0  0  0  0  0  0  0  0  0
   60.0210   33.8930   48.8740 C   0  0  0  0  0  0  0  0  0  0  0  0
   59.4220   33.9910   47.5270 C   0  0  0  0  0  0  0  0  0  0  0  0
   58.3800   33.1330   47.1360 C   0  0  0  0  0  0  0  0  0  0  0  0
   57.8170   33.2460   45.8610 C   0  0  0  0  0  0  0  0  0  0  0  0
   58.2720   34.2300   44.9780 C   0  0  0  0  0  0  0  0  0  0  0  0
   59.2880   35.1050   45.3720 C   0  0  0  0  0  0  0  0  0  0  0  0
   59.8590   34.9910   46.6430 C   0  0  0  0  0  0  0  0  0  0  0  0
   63.8202   31.9863   45.9640 H   0  0  0  0  0  0  0  0  0  0  0  0
   64.6961   33.0858   47.2501 H   0  0  0  0  0  0  0  0  0  0  0  0
   61.6718   32.8355   46.6891 H   0  0  0  0  0  0  0  0  0  0  0  0
   63.4042   34.2154   48.8674 H   0  0  0  0  0  0  0  0  0  0  0  0
   62.3130   35.2093   47.8313 H   0  0  0  0  0  0  0  0  0  0  0  0
   64.0849   31.8245   51.7990 H   0  0  0  0  0  0  0  0  0  0  0  0
   62.3942   31.7107   52.4422 H   0  0  0  0  0  0  0  0  0  0  0  0
   60.5000   31.7140   50.6840 H   0  0  0  0  0  0  0  0  0  0  0  0
   61.2006   31.5740   47.4848 H   0  0  0  0  0  0  0  0  0  0  0  0
   60.2934   30.0717   45.7290 H   0  0  0  0  0  0  0  0  0  0  0  0
   57.8331   28.9516   44.9528 H   0  0  0  0  0  0  0  0  0  0  0  0
   59.5480   28.7255   44.3673 H   0  0  0  0  0  0  0  0  0  0  0  0
   57.5999   27.6761   42.9949 H   0  0  0  0  0  0  0  0  0  0  0  0
   59.0798   26.7029   43.3440 H   0  0  0  0  0  0  0  0  0  0  0  0
   57.6715   24.5761   45.6252 H   0  0  0  0  0  0  0  0  0  0  0  0
   59.1041   25.0970   44.6482 H   0  0  0  0  0  0  0  0  0  0  0  0
   58.0079   26.2318   47.2256 H   0  0  0  0  0  0  0  0  0  0  0  0
   59.7172   25.8024   46.7361 H   0  0  0  0  0  0  0  0  0  0  0  0
   59.0433   27.2695   48.7944 H   0  0  0  0  0  0  0  0  0  0  0  0
   59.9773   28.7698   50.5348 H   0  0  0  0  0  0  0  0  0  0  0  0
   58.0062   32.3703   47.8349 H   0  0  0  0  0  0  0  0  0  0  0  0
   57.0148   32.5596   45.5522 H   0  0  0  0  0  0  0  0  0  0  0  0
   57.8306   34.3154   43.9741 H   0  0  0  0  0  0  0  0  0  0  0  0
   59.6392   35.8851   44.6806 H   0  0  0  0  0  0  0  0  0  0  0  0
   60.6531   35.6868   46.9517 H   0  0  0  0  0  0  0  0  0  0  0  0
  1  2  2  0
  2  3  1  0
  3  4  1  0
  4  5  1  0
  5  6  1  0
  6  7  1  0
  7  8  1  0
  8  9  2  0
  8 10  1  0
 10 11  1  0
 11 12  2  0
 12 13  1  0
 13 14  2  0
 14 15  1  0
 15 16  1  0
 16 17  1  0
 17 18  1  0
 18 19  1  0
 19 20  1  0
 14 21  1  0
 21 22  2  0
  5 23  2  0
 23 24  1  0
 24 25  2  0
 25 26  1  0
 26 27  2  0
 27 28  1  0
 28 29  2  0
 29 30  1  0
 30 31  2  0
 25  4  1  0
 31 26  1  0
 22 11  1  0
 20 15  1  0
  1 32  1  0
  1 33  1  0
  2 34  1  0
  3 35  1  0
  3 36  1  0
  7 37  1  0
  7 38  1  0
 10 39  1  0
 12 40  1  0
 13 41  1  0
 16 42  1  0
 16 43  1  0
 17 44  1  0
 17 45  1  0
 19 46  1  0
 19 47  1  0
 20 48  1  0
 20 49  1  0
 21 50  1  0
 22 51  1  0
 27 52  1  0
 28 53  1  0
 29 54  1  0
 30 55  1  0
 31 56  1  0
M  END
>  <UniqueID>  (61) 
55

>  <SMILES>  (61) 
C=CCn1c(SCC(=O)Nc2ccc(N3CCOCC3)cc2)nnc1-c1ccccc1

>  <Energy>  (61) 
99.69735204438918

>  <Genealogy>  (61) 
C=CCn1c(SCC(=O)Nc2ccc(N3CCOCC3)cc2)nnc1-c1ccccc1 (3D coordinates assigned)
C=CCn1c(SCC(=O)Nc2ccc(N3CCOCC3)cc2)nnc1-c1ccccc1 (nonaromatic ring conformer: 99.69735204438918 kcal/mol)

>  <smiles>  (61) 
C=CCn1c(SCC(=O)Nc2ccc(N3CCOCC3)cc2)nnc1-c1ccccc1

>  <score_type>  (61) 
oracle

>  <origin>  (61) 
adg

>  <m_score__min__energy>  (61) 
-9.5700000000000003

>  <m_primary>  (61) 
energy

$$$$
61:0
     RDKit          3D

 37 39  0  0  0  0  0  0  0  0999 V2000
   55.1520   29.3540   44.8800 N   0  0  0  0  0  0  0  0  0  0  0  0
   56.7850   29.5700   44.3580 S   0  0  0  0  0  0  0  0  0  0  0  0
   57.6160   28.3870   44.7690 O   0  0  0  0  0  0  0  0  0  0  0  0
   56.8070   29.6850   42.8590 O   0  0  0  0  0  0  0  0  0  0  0  0
   57.4430   31.0390   45.0730 C   0  0  0  0  0  0  0  0  0  0  0  0
   56.8950   32.2950   44.9010 C   0  0  0  0  0  0  0  0  0  0  0  0
   57.6970   33.1710   45.6010 C   0  0  0  0  0  0  0  0  0  0  0  0
   58.6940   32.4120   46.1850 C   0  0  0  0  0  0  0  0  0  0  0  0
   59.7950   32.9680   46.9950 C   0  0  0  0  0  0  0  0  0  0  0  0
   59.5510   33.3940   48.3090 C   0  0  0  0  0  0  0  0  0  0  0  0
   60.5840   33.9470   49.0730 C   0  0  0  0  0  0  0  0  0  0  0  0
   61.8680   34.0660   48.5320 C   0  0  0  0  0  0  0  0  0  0  0  0
   62.8680   34.6040   49.2730 F   0  0  0  0  0  0  0  0  0  0  0  0
   62.1210   33.6260   47.2300 C   0  0  0  0  0  0  0  0  0  0  0  0
   61.0890   33.0750   46.4630 C   0  0  0  0  0  0  0  0  0  0  0  0
   58.5480   31.1050   45.8530 N   0  0  0  0  0  0  0  0  0  0  0  0
   59.4690   30.0060   46.1810 C   0  0  0  0  0  0  0  0  0  0  0  0
   59.7490   29.9680   47.6610 C   0  0  0  0  0  0  0  0  0  0  0  0
   58.7070   29.7900   48.5820 C   0  0  0  0  0  0  0  0  0  0  0  0
   58.9890   29.7870   49.9500 C   0  0  0  0  0  0  0  0  0  0  0  0
   60.2680   29.9450   50.3860 N   0  0  0  0  0  0  0  0  0  0  0  0
   61.2980   30.1090   49.5130 C   0  0  0  0  0  0  0  0  0  0  0  0
   61.0600   30.1210   48.1370 C   0  0  0  0  0  0  0  0  0  0  0  0
   55.1650   28.6220   45.6260 H   0  0  0  0  0  0  0  0  0  0  0  0
   55.9956   32.5468   44.3199 H   0  0  0  0  0  0  0  0  0  0  0  0
   57.5687   34.2607   45.6795 H   0  0  0  0  0  0  0  0  0  0  0  0
   58.5440   33.2929   48.7400 H   0  0  0  0  0  0  0  0  0  0  0  0
   60.3862   34.2884   50.0998 H   0  0  0  0  0  0  0  0  0  0  0  0
   63.1330   33.7130   46.8077 H   0  0  0  0  0  0  0  0  0  0  0  0
   61.2924   32.7247   45.4403 H   0  0  0  0  0  0  0  0  0  0  0  0
   59.0156   29.0517   45.8749 H   0  0  0  0  0  0  0  0  0  0  0  0
   60.4166   30.1679   45.6464 H   0  0  0  0  0  0  0  0  0  0  0  0
   57.6740   29.6536   48.2295 H   0  0  0  0  0  0  0  0  0  0  0  0
   58.1742   29.6564   50.6773 H   0  0  0  0  0  0  0  0  0  0  0  0
   60.4620   29.9410   51.4120 H   0  0  0  0  0  0  0  0  0  0  0  0
   62.3230   30.2327   49.8925 H   0  0  0  0  0  0  0  0  0  0  0  0
   61.8942   30.2495   47.4315 H   0  0  0  0  0  0  0  0  0  0  0  0
  1  2  1  0
  2  3  2  0
  2  4  2  0
  2  5  1  0
  5  6  2  0
  6  7  1  0
  7  8  2  0
  8  9  1  0
  9 10  2  0
 10 11  1  0
 11 12  2  0
 12 13  1  0
 12 14  1  0
 14 15  2  0
  8 16  1  0
 16 17  1  0
 17 18  1  0
 18 19  2  0
 19 20  1  0
 20 21  2  0
 21 22  1  0
 22 23  2  0
 16  5  1  0
 23 18  1  0
 15  9  1  0
  1 24  1  0
  6 25  1  0
  7 26  1  0
 10 27  1  0
 11 28  1  0
 14 29  1  0
 15 30  1  0
 17 31  1  0
 17 32  1  0
 19 33  1  0
 20 34  1  0
 21 35  1  0
 22 36  1  0
 23 37  1  0
M  CHG  2   1  -1  21   1
M  END
>  <UniqueID>  (62) 
56

>  <SMILES>  (62) 
[NH-]S(=O)(=O)c1ccc(-c2ccc(F)cc2)n1Cc1cc[nH+]cc1

>  <Energy>  (62) 
69.24146388402609

>  <Genealogy>  (62) 
[NH-]S(=O)(=O)c1ccc(-c2ccc(F)cc2)n1Cc1cc[nH+]cc1 (protonated)
[NH-]S(=O)(=O)c1ccc(-c2ccc(F)cc2)n1Cc1cc[nH+]cc1 (3D coordinates assigned)
[NH-]S(=O)(=O)c1ccc(-c2ccc(F)cc2)n1Cc1cc[nH+]cc1 (optimized conformer: 69.24146388402609 kcal/mol)

>  <smiles>  (62) 
NS(=O)(=O)c1ccc(-c2ccc(F)cc2)n1Cc1ccncc1

>  <score_type>  (62) 
oracle

>  <origin>  (62) 
adg

>  <m_score__min__energy>  (62) 
-8.8100000000000005

>  <m_primary>  (62) 
energy

$$$$
62:0
     RDKit          3D

 33 34  0  0  0  0  0  0  0  0999 V2000
   57.6335   21.0555   43.4410 H   0  0  0  0  0  0  0  0  0  0  0  0
   57.4110   22.0370   43.8850 C   0  0  0  0  0  0  0  0  0  0  0  0
   56.3630   22.8110   43.3790 C   0  0  0  0  0  0  0  0  0  0  0  0
   55.7634   22.4399   42.5347 H   0  0  0  0  0  0  0  0  0  0  0  0
   56.0760   24.0580   43.9460 C   0  0  0  0  0  0  0  0  0  0  0  0
   55.2556   24.6677   43.5395 H   0  0  0  0  0  0  0  0  0  0  0  0
   56.8300   24.5360   45.0320 C   0  0  0  0  0  0  0  0  0  0  0  0
   56.5290   25.8630   45.6220 C   0  0  0  0  0  0  0  0  0  0  0  0
   55.3950   26.0700   46.1300 O   0  0  0  0  0  0  0  0  0  0  0  0
   57.4670   26.9460   45.5750 N   0  0  0  0  0  0  0  0  0  0  0  0
   57.2130   28.1510   45.1540 C   0  0  0  0  0  0  0  0  0  0  0  0
   58.3340   29.2460   44.5150 S   0  0  0  0  0  0  0  0  0  0  0  0
   57.1270   30.4140   44.3480 C   0  0  0  0  0  0  0  0  0  0  0  0
   57.3520   31.8100   43.8680 C   0  0  0  0  0  0  0  0  0  0  0  0
   56.4571   32.1622   43.3341 H   0  0  0  0  0  0  0  0  0  0  0  0
   58.2170   31.8276   43.1887 H   0  0  0  0  0  0  0  0  0  0  0  0
   57.6190   32.7040   45.0340 C   0  0  0  0  0  0  0  0  0  0  0  0
   56.7640   33.5710   45.3660 O   0  0  0  0  0  0  0  0  0  0  0  0
   58.8340   32.5970   45.7180 O   0  0  0  0  0  0  0  0  0  0  0  0
   58.9290   32.4880   47.1370 C   0  0  0  0  0  0  0  0  0  0  0  0
   58.0757   33.0073   47.5975 H   0  0  0  0  0  0  0  0  0  0  0  0
   59.8743   32.9446   47.4656 H   0  0  0  0  0  0  0  0  0  0  0  0
   58.9150   31.0250   47.5640 C   0  0  0  0  0  0  0  0  0  0  0  0
   58.9144   30.9636   48.6623 H   0  0  0  0  0  0  0  0  0  0  0  0
   58.0121   30.5364   47.1689 H   0  0  0  0  0  0  0  0  0  0  0  0
   59.8083   30.5192   47.1689 H   0  0  0  0  0  0  0  0  0  0  0  0
   55.9340   29.9620   44.8000 N   0  0  0  0  0  0  0  0  0  0  0  0
   55.9860   28.7080   45.2410 N   0  0  0  0  0  0  0  0  0  0  0  0
   55.1490   28.2170   45.6250 H   0  0  0  0  0  0  0  0  0  0  0  0
   57.8930   23.7550   45.5230 C   0  0  0  0  0  0  0  0  0  0  0  0
   58.5044   24.1265   46.3586 H   0  0  0  0  0  0  0  0  0  0  0  0
   58.1760   22.5090   44.9540 C   0  0  0  0  0  0  0  0  0  0  0  0
   59.0024   21.8999   45.3491 H   0  0  0  0  0  0  0  0  0  0  0  0
  1  2  1  0
  2  3  2  0
  3  4  1  0
  3  5  1  0
  5  6  1  0
  5  7  2  0
  7  8  1  0
  8  9  2  0
  8 10  1  0
 10 11  2  0
 11 12  1  0
 12 13  1  0
 13 14  1  0
 14 15  1  0
 14 16  1  0
 14 17  1  0
 17 18  2  0
 17 19  1  0
 19 20  1  0
 20 21  1  0
 20 22  1  0
 20 23  1  0
 23 24  1  0
 23 25  1  0
 23 26  1  0
 13 27  2  0
 27 28  1  0
 28 29  1  0
  7 30  1  0
 30 31  1  0
 30 32  2  0
 32 33  1  0
 32  2  1  0
 28 11  1  0
M  END
>  <UniqueID>  (63) 
57

>  <SMILES>  (63) 
CCOC(=O)Cc1n[nH]/c(=N/C(=O)c2ccccc2)s1

>  <Energy>  (63) 
68.4677316052037

>  <Genealogy>  (63) 
CCOC(=O)Cc1n[nH]/c(=N/C(=O)c2ccccc2)s1 (cis-trans isomerization)
CCOC(=O)Cc1n[nH]/c(=N/C(=O)c2ccccc2)s1 (3D coordinates assigned)
CCOC(=O)Cc1n[nH]/c(=N/C(=O)c2ccccc2)s1 (optimized conformer: 68.4677316052037 kcal/mol)

>  <smiles>  (63) 
CCOC(=O)Cc1n[nH]c(=NC(=O)c2ccccc2)s1

>  <score_type>  (63) 
oracle

>  <origin>  (63) 
adg

>  <m_score__min__energy>  (63) 
-7.5499999999999998

>  <m_primary>  (63) 
energy

$$$$
63:0
     RDKit          3D

 54 58  0  0  0  0  0  0  0  0999 V2000
   55.1740   28.9820   44.7800 O   0  0  0  0  0  0  0  0  0  0  0  0
   56.4890   28.9750   45.2260 C   0  0  0  0  0  0  0  0  0  0  0  0
   57.0210   27.8260   45.8180 C   0  0  0  0  0  0  0  0  0  0  0  0
   58.3450   27.8190   46.2700 C   0  0  0  0  0  0  0  0  0  0  0  0
   59.1480   28.9610   46.1270 C   0  0  0  0  0  0  0  0  0  0  0  0
   60.5570   28.9700   46.6620 C   0  0  0  0  0  0  0  0  0  0  0  0
   60.5890   29.1640   48.1860 C   0  0  0  0  0  0  0  0  0  0  0  0
   61.4590   30.3620   48.6010 C   0  0  0  0  0  0  0  0  0  0  0  0
   60.9410   30.9860   49.8490 N   0  0  0  0  0  0  0  0  0  0  0  0
   59.4890   30.6980   50.0360 C   0  0  0  0  0  0  0  0  0  0  0  0
   58.5660   31.3600   48.9680 C   0  0  0  0  0  0  0  0  0  0  0  0
   59.1720   32.6130   48.4000 C   0  0  0  0  0  0  0  0  0  0  0  0
   60.4140   33.0990   48.7630 C   0  0  0  0  0  0  0  0  0  0  0  0
   60.8390   34.0540   47.8990 N   0  0  0  0  0  0  0  0  0  0  0  0
   59.8470   34.1760   46.9960 C   0  0  0  0  0  0  0  0  0  0  0  0
   59.8320   34.9940   45.8660 C   0  0  0  0  0  0  0  0  0  0  0  0
   58.7230   34.9080   45.0060 C   0  0  0  0  0  0  0  0  0  0  0  0
   57.6710   34.0060   45.2800 C   0  0  0  0  0  0  0  0  0  0  0  0
   57.7160   33.1830   46.4200 C   0  0  0  0  0  0  0  0  0  0  0  0
   58.8160   33.3060   47.2650 C   0  0  0  0  0  0  0  0  0  0  0  0
   61.1620   32.4600   49.9080 C   0  0  2  0  0  0  0  0  0  0  0  0
   62.6200   32.8850   50.0860 C   0  0  0  0  0  0  0  0  0  0  0  0
   63.6160   32.5930   49.1290 C   0  0  0  0  0  0  0  0  0  0  0  0
   64.9520   32.9310   49.3610 C   0  0  0  0  0  0  0  0  0  0  0  0
   65.3280   33.5150   50.5720 C   0  0  0  0  0  0  0  0  0  0  0  0
   66.6560   33.8510   50.8000 O   0  0  0  0  0  0  0  0  0  0  0  0
   64.3690   33.7440   51.5590 C   0  0  0  0  0  0  0  0  0  0  0  0
   63.0320   33.4080   51.3290 C   0  0  0  0  0  0  0  0  0  0  0  0
   58.6060   30.1140   45.5330 C   0  0  0  0  0  0  0  0  0  0  0  0
   57.2820   30.1190   45.0840 C   0  0  0  0  0  0  0  0  0  0  0  0
   56.3980   26.9262   45.9286 H   0  0  0  0  0  0  0  0  0  0  0  0
   58.7584   26.9143   46.7396 H   0  0  0  0  0  0  0  0  0  0  0  0
   61.0374   28.0118   46.4151 H   0  0  0  0  0  0  0  0  0  0  0  0
   61.0924   29.8123   46.1994 H   0  0  0  0  0  0  0  0  0  0  0  0
   59.5622   29.3312   48.5434 H   0  0  0  0  0  0  0  0  0  0  0  0
   61.0260   28.2586   48.6325 H   0  0  0  0  0  0  0  0  0  0  0  0
   62.4895   30.0171   48.7714 H   0  0  0  0  0  0  0  0  0  0  0  0
   61.4334   31.1112   47.7960 H   0  0  0  0  0  0  0  0  0  0  0  0
   59.3442   29.6085   49.9901 H   0  0  0  0  0  0  0  0  0  0  0  0
   59.2040   31.1239   51.0093 H   0  0  0  0  0  0  0  0  0  0  0  0
   58.3987   30.6438   48.1500 H   0  0  0  0  0  0  0  0  0  0  0  0
   57.6195   31.6319   49.4580 H   0  0  0  0  0  0  0  0  0  0  0  0
   61.7590   34.5440   47.8720 H   0  0  0  0  0  0  0  0  0  0  0  0
   60.6617   35.6845   45.6545 H   0  0  0  0  0  0  0  0  0  0  0  0
   58.6742   35.5482   44.1128 H   0  0  0  0  0  0  0  0  0  0  0  0
   56.8106   33.9467   44.5972 H   0  0  0  0  0  0  0  0  0  0  0  0
   56.9097   32.4667   46.6365 H   0  0  0  0  0  0  0  0  0  0  0  0
   60.7369   32.8536   50.8431 H   0  0  0  0  0  0  0  0  0  0  0  0
   63.3371   32.0935   48.1895 H   0  0  0  0  0  0  0  0  0  0  0  0
   65.7094   32.7364   48.5874 H   0  0  0  0  0  0  0  0  0  0  0  0
   64.6656   34.1898   52.5199 H   0  0  0  0  0  0  0  0  0  0  0  0
   62.2909   33.5536   52.1287 H   0  0  0  0  0  0  0  0  0  0  0  0
   59.2259   31.0157   45.4210 H   0  0  0  0  0  0  0  0  0  0  0  0
   56.8632   31.0234   44.6185 H   0  0  0  0  0  0  0  0  0  0  0  0
  1  2  1  0
  2  3  2  0
  3  4  1  0
  4  5  2  0
  5  6  1  0
  6  7  1  0
  7  8  1  0
  8  9  1  0
  9 10  1  0
 10 11  1  0
 11 12  1  0
 12 13  2  0
 13 14  1  0
 14 15  1  0
 15 16  2  0
 16 17  1  0
 17 18  2  0
 18 19  1  0
 19 20  2  0
 13 21  1  0
 21 22  1  0
 22 23  2  0
 23 24  1  0
 24 25  2  0
 25 26  1  0
 25 27  1  0
 27 28  2  0
  5 29  1  0
 29 30  2  0
 30  2  1  0
 21  9  1  0
 28 22  1  0
 20 12  1  0
 20 15  1  0
  3 31  1  0
  4 32  1  0
  6 33  1  0
  6 34  1  0
  7 35  1  0
  7 36  1  0
  8 37  1  0
  8 38  1  0
 10 39  1  0
 10 40  1  0
 11 41  1  0
 11 42  1  0
 14 43  1  0
 16 44  1  0
 17 45  1  0
 18 46  1  0
 19 47  1  0
 21 48  1  1
 23 49  1  0
 24 50  1  0
 27 51  1  0
 28 52  1  0
 29 53  1  0
 30 54  1  0
M  CHG  2   1  -1  26  -1
M  END
>  <UniqueID>  (64) 
58

>  <SMILES>  (64) 
[O-]c1ccc(CCCN2CCc3c([nH]c4ccccc34)[C@@H]2c2ccc([O-])cc2)cc1

>  <Energy>  (64) 
109.19269185618697

>  <Genealogy>  (64) 
[O-]c1ccc(CCCN2CCc3c([nH]c4ccccc34)C2c2ccc([O-])cc2)cc1 (protonated)
[O-]c1ccc(CCCN2CCc3c([nH]c4ccccc34)[C@@H]2c2ccc([O-])cc2)cc1 (chirality)
[O-]c1ccc(CCCN2CCc3c([nH]c4ccccc34)[C@@H]2c2ccc([O-])cc2)cc1 (3D coordinates assigned)
[O-]c1ccc(CCCN2CCc3c([nH]c4ccccc34)[C@@H]2c2ccc([O-])cc2)cc1 (nonaromatic ring conformer: 109.19269185618697 kcal/mol)

>  <smiles>  (64) 
Oc1ccc(CCCN2CCc3c([nH]c4ccccc34)C2c2ccc(O)cc2)cc1

>  <score_type>  (64) 
oracle

>  <origin>  (64) 
adg

>  <m_score__min__energy>  (64) 
-13.1

>  <m_primary>  (64) 
energy

$$$$
64:0
     RDKit          3D

 46 49  0  0  0  0  0  0  0  0999 V2000
   55.1590   26.7070   45.9990 O   0  0  0  0  0  0  0  0  0  0  0  0
   56.2050   26.0140   46.1220 C   0  0  0  0  0  0  0  0  0  0  0  0
   57.5440   26.6580   45.9650 C   0  0  0  0  0  0  0  0  0  0  0  0
   57.8020   27.1760   44.2340 S   0  0  0  0  0  0  0  0  0  0  0  0
   57.4160   28.9050   44.5380 C   0  0  0  0  0  0  0  0  0  0  0  0
   56.1870   29.4270   44.3780 N   0  0  0  0  0  0  0  0  0  0  0  0
   56.2710   30.7110   44.6930 N   0  0  0  0  0  0  0  0  0  0  0  0
   57.5540   30.9560   45.0300 C   0  0  0  0  0  0  0  0  0  0  0  0
   58.0270   32.2920   45.4520 C   0  0  0  0  0  0  0  0  0  0  0  0
   58.4330   33.2220   44.4800 C   0  0  0  0  0  0  0  0  0  0  0  0
   58.9040   34.4820   44.8620 C   0  0  0  0  0  0  0  0  0  0  0  0
   58.9860   34.8180   46.2160 C   0  0  0  0  0  0  0  0  0  0  0  0
   58.6080   33.8900   47.1900 C   0  0  0  0  0  0  0  0  0  0  0  0
   58.1360   32.6290   46.8110 C   0  0  0  0  0  0  0  0  0  0  0  0
   58.3030   29.8320   44.9510 N   0  0  0  0  0  0  0  0  0  0  0  0
   59.7130   29.6230   45.2870 C   0  0  0  0  0  0  0  0  0  0  0  0
   59.9240   29.7170   46.7680 C   0  0  0  0  0  0  0  0  0  0  0  0
   60.9070   30.4600   47.3880 C   0  0  0  0  0  0  0  0  0  0  0  0
   60.7440   30.2370   48.7380 C   0  0  0  0  0  0  0  0  0  0  0  0
   59.6770   29.3690   48.8570 C   0  0  0  0  0  0  0  0  0  0  0  0
   59.2110   29.0760   47.6650 O   0  0  0  0  0  0  0  0  0  0  0  0
   56.1250   24.6220   46.4470 N   0  0  0  0  0  0  0  0  0  0  0  0
   56.5450   23.5430   45.6000 C   0  0  0  0  0  0  0  0  0  0  0  0
   56.2960   23.6380   44.2240 C   0  0  0  0  0  0  0  0  0  0  0  0
   56.6850   22.6100   43.3610 C   0  0  0  0  0  0  0  0  0  0  0  0
   57.3080   21.4680   43.8690 C   0  0  0  0  0  0  0  0  0  0  0  0
   57.5300   21.3450   45.2420 C   0  0  0  0  0  0  0  0  0  0  0  0
   57.1380   22.3700   46.1180 C   0  0  0  0  0  0  0  0  0  0  0  0
   57.3090   22.2100   47.4920 O   0  0  0  0  0  0  0  0  0  0  0  0
   57.6009   27.5402   46.6196 H   0  0  0  0  0  0  0  0  0  0  0  0
   58.3234   25.9322   46.2402 H   0  0  0  0  0  0  0  0  0  0  0  0
   58.3801   32.9576   43.4136 H   0  0  0  0  0  0  0  0  0  0  0  0
   59.2103   35.2095   44.0959 H   0  0  0  0  0  0  0  0  0  0  0  0
   59.3480   35.8128   46.5150 H   0  0  0  0  0  0  0  0  0  0  0  0
   58.6817   34.1515   48.2559 H   0  0  0  0  0  0  0  0  0  0  0  0
   57.8488   31.8978   47.5810 H   0  0  0  0  0  0  0  0  0  0  0  0
   60.0229   28.6260   44.9406 H   0  0  0  0  0  0  0  0  0  0  0  0
   60.3134   30.4018   44.7940 H   0  0  0  0  0  0  0  0  0  0  0  0
   61.6629   31.0972   46.9057 H   0  0  0  0  0  0  0  0  0  0  0  0
   61.3430   30.6643   49.5557 H   0  0  0  0  0  0  0  0  0  0  0  0
   59.2780   28.9818   49.8061 H   0  0  0  0  0  0  0  0  0  0  0  0
   55.7908   24.5280   43.8206 H   0  0  0  0  0  0  0  0  0  0  0  0
   56.5003   22.7004   42.2804 H   0  0  0  0  0  0  0  0  0  0  0  0
   57.6240   20.6649   43.1870 H   0  0  0  0  0  0  0  0  0  0  0  0
   58.0143   20.4408   45.6393 H   0  0  0  0  0  0  0  0  0  0  0  0
   56.8830   22.8440   48.1580 H   0  0  0  0  0  0  0  0  0  0  0  0
  1  2  2  0
  2  3  1  0
  3  4  1  0
  4  5  1  0
  5  6  2  0
  6  7  1  0
  7  8  2  0
  8  9  1  0
  9 10  2  0
 10 11  1  0
 11 12  2  0
 12 13  1  0
 13 14  2  0
  8 15  1  0
 15 16  1  0
 16 17  1  0
 17 18  2  0
 18 19  1  0
 19 20  2  0
 20 21  1  0
  2 22  1  0
 22 23  1  0
 23 24  2  0
 24 25  1  0
 25 26  2  0
 26 27  1  0
 27 28  2  0
 28 29  1  0
 15  5  1  0
 21 17  1  0
 28 23  1  0
 14  9  1  0
  3 30  1  0
  3 31  1  0
 10 32  1  0
 11 33  1  0
 12 34  1  0
 13 35  1  0
 14 36  1  0
 16 37  1  0
 16 38  1  0
 18 39  1  0
 19 40  1  0
 20 41  1  0
 24 42  1  0
 25 43  1  0
 26 44  1  0
 27 45  1  0
 29 46  1  0
M  CHG  1  22  -1
M  END
>  <UniqueID>  (65) 
59

>  <SMILES>  (65) 
O=C(CSc1nnc(-c2ccccc2)n1Cc1ccco1)[N-]c1ccccc1O

>  <Energy>  (65) 
114.20469066651107

>  <Genealogy>  (65) 
O=C(CSc1nnc(-c2ccccc2)n1Cc1ccco1)[N-]c1ccccc1O (protonated)
O=C(CSc1nnc(-c2ccccc2)n1Cc1ccco1)[N-]c1ccccc1O (3D coordinates assigned)
O=C(CSc1nnc(-c2ccccc2)n1Cc1ccco1)[N-]c1ccccc1O (optimized conformer: 114.20469066651107 kcal/mol)

>  <smiles>  (65) 
O=C(CSc1nnc(-c2ccccc2)n1Cc1ccco1)Nc1ccccc1O

>  <score_type>  (65) 
oracle

>  <origin>  (65) 
adg

>  <m_score__min__energy>  (65) 
-11.699999999999999

>  <m_primary>  (65) 
energy

$$$$
65:0
     RDKit          3D

 46 50  0  0  0  0  0  0  0  0999 V2000
   57.0300   31.2530   42.1520 C   0  0  0  0  0  0  0  0  0  0  0  0
   57.8800   32.2780   42.5750 C   0  0  0  0  0  0  0  0  0  0  0  0
   58.1530   32.4470   43.9350 C   0  0  0  0  0  0  0  0  0  0  0  0
   57.5740   31.5880   44.8850 C   0  0  0  0  0  0  0  0  0  0  0  0
   57.8240   31.7950   46.3560 C   0  0  0  0  0  0  0  0  0  0  0  0
   59.1970   31.4020   46.6960 N   0  0  0  0  0  0  0  0  0  0  0  0
   59.7830   30.1830   46.5180 C   0  0  0  0  0  0  0  0  0  0  0  0
   59.0810   28.9770   46.0420 C   0  0  0  0  0  0  0  0  0  0  0  0
   59.1830   28.5700   44.7060 C   0  0  0  0  0  0  0  0  0  0  0  0
   58.5350   27.4110   44.2700 C   0  0  0  0  0  0  0  0  0  0  0  0
   57.7620   26.6450   45.1630 C   0  0  0  0  0  0  0  0  0  0  0  0
   57.0810   25.4080   44.7030 C   0  0  0  0  0  0  0  0  0  0  0  0
   56.0680   24.7560   45.4320 C   0  0  0  0  0  0  0  0  0  0  0  0
   55.5760   23.6150   44.8140 C   0  0  0  0  0  0  0  0  0  0  0  0
   56.3980   23.4120   43.3650 S   0  0  0  0  0  0  0  0  0  0  0  0
   57.3820   24.7660   43.5020 C   0  0  0  0  0  0  0  0  0  0  0  0
   57.6450   27.0740   46.4990 C   0  0  0  0  0  0  0  0  0  0  0  0
   58.2940   28.2330   46.9310 C   0  0  0  0  0  0  0  0  0  0  0  0
   61.1190   30.2070   46.7430 N   0  0  0  0  0  0  0  0  0  0  0  0
   61.3790   31.4820   47.0750 C   0  0  0  0  0  0  0  0  0  0  0  0
   62.6120   32.0560   47.3710 C   0  0  0  0  0  0  0  0  0  0  0  0
   62.6400   33.4360   47.6420 C   0  0  0  0  0  0  0  0  0  0  0  0
   61.4500   34.1980   47.6020 C   0  0  0  0  0  0  0  0  0  0  0  0
   60.2210   33.5870   47.2930 C   0  0  0  0  0  0  0  0  0  0  0  0
   60.2220   32.2120   47.0400 C   0  0  0  0  0  0  0  0  0  0  0  0
   56.7180   30.5630   44.4530 C   0  0  0  0  0  0  0  0  0  0  0  0
   56.4500   30.3960   43.0910 C   0  0  0  0  0  0  0  0  0  0  0  0
   56.8176   31.1208   41.0808 H   0  0  0  0  0  0  0  0  0  0  0  0
   58.3353   32.9535   41.8358 H   0  0  0  0  0  0  0  0  0  0  0  0
   58.8233   33.2550   44.2632 H   0  0  0  0  0  0  0  0  0  0  0  0
   57.6778   32.8567   46.6037 H   0  0  0  0  0  0  0  0  0  0  0  0
   57.1200   31.1754   46.9309 H   0  0  0  0  0  0  0  0  0  0  0  0
   59.7760   29.1654   43.9962 H   0  0  0  0  0  0  0  0  0  0  0  0
   58.6298   27.0948   43.2207 H   0  0  0  0  0  0  0  0  0  0  0  0
   55.7000   25.1182   46.4033 H   0  0  0  0  0  0  0  0  0  0  0  0
   54.7852   22.9582   45.2056 H   0  0  0  0  0  0  0  0  0  0  0  0
   58.1354   25.0911   42.7694 H   0  0  0  0  0  0  0  0  0  0  0  0
   57.0379   26.4920   47.2079 H   0  0  0  0  0  0  0  0  0  0  0  0
   58.1867   28.5634   47.9747 H   0  0  0  0  0  0  0  0  0  0  0  0
   61.8000   29.4200   46.6550 H   0  0  0  0  0  0  0  0  0  0  0  0
   63.5313   31.4523   47.3922 H   0  0  0  0  0  0  0  0  0  0  0  0
   63.5942   33.9255   47.8867 H   0  0  0  0  0  0  0  0  0  0  0  0
   61.4852   35.2768   47.8141 H   0  0  0  0  0  0  0  0  0  0  0  0
   59.2902   34.1717   47.2518 H   0  0  0  0  0  0  0  0  0  0  0  0
   56.2561   29.8884   45.1889 H   0  0  0  0  0  0  0  0  0  0  0  0
   55.7814   29.5885   42.7580 H   0  0  0  0  0  0  0  0  0  0  0  0
  1  2  2  0
  2  3  1  0
  3  4  2  0
  4  5  1  0
  5  6  1  0
  6  7  1  0
  7  8  1  0
  8  9  2  0
  9 10  1  0
 10 11  2  0
 11 12  1  0
 12 13  1  0
 13 14  2  0
 14 15  1  0
 15 16  1  0
 11 17  1  0
 17 18  2  0
  7 19  2  0
 19 20  1  0
 20 21  2  0
 21 22  1  0
 22 23  2  0
 23 24  1  0
 24 25  2  0
  4 26  1  0
 26 27  2  0
 27  1  1  0
 25  6  1  0
 18  8  1  0
 25 20  1  0
 16 12  2  0
  1 28  1  0
  2 29  1  0
  3 30  1  0
  5 31  1  0
  5 32  1  0
  9 33  1  0
 10 34  1  0
 13 35  1  0
 14 36  1  0
 16 37  1  0
 17 38  1  0
 18 39  1  0
 19 40  1  0
 21 41  1  0
 22 42  1  0
 23 43  1  0
 24 44  1  0
 26 45  1  0
 27 46  1  0
M  CHG  1  19   1
M  END
>  <UniqueID>  (66) 
60

>  <SMILES>  (66) 
c1ccc(Cn2c(-c3ccc(-c4ccsc4)cc3)[nH+]c3ccccc32)cc1

>  <Energy>  (66) 
123.84967488832318

>  <Genealogy>  (66) 
c1ccc(Cn2c(-c3ccc(-c4ccsc4)cc3)[nH+]c3ccccc32)cc1 (protonated)
c1ccc(Cn2c(-c3ccc(-c4ccsc4)cc3)[nH+]c3ccccc32)cc1 (3D coordinates assigned)
c1ccc(Cn2c(-c3ccc(-c4ccsc4)cc3)[nH+]c3ccccc32)cc1 (optimized conformer: 123.84967488832318 kcal/mol)

>  <smiles>  (66) 
c1ccc(Cn2c(-c3ccc(-c4ccsc4)cc3)nc3ccccc32)cc1

>  <score_type>  (66) 
oracle

>  <origin>  (66) 
adg

>  <m_score__min__energy>  (66) 
-7.0099999999999998

>  <m_primary>  (66) 
energy

$$$$
66:0
     RDKit          3D

 55 57  0  0  1  0  0  0  0  0999 V2000
   58.1750   34.5390   44.8560 C   0  0  0  0  0  0  0  0  0  0  0  0
   57.1840   33.8270   45.7670 C   0  0  0  0  0  0  0  0  0  0  0  0
   57.4000   32.3640   45.6290 C   0  0  0  0  0  0  0  0  0  0  0  0
   56.7990   31.7430   44.6030 N   0  0  0  0  0  0  0  0  0  0  0  0
   57.0000   30.3930   44.4940 C   0  0  0  0  0  0  0  0  0  0  0  0
   57.7620   29.7440   45.3740 N   0  0  0  0  0  0  0  0  0  0  0  0
   58.3900   30.3000   46.4180 C   0  0  0  0  0  0  0  0  0  0  0  0
   59.1580   29.6950   47.2380 N   0  0  0  0  0  0  0  0  0  0  0  0
   60.5460   29.4670   46.9490 C   0  0  0  0  0  0  0  0  0  0  0  0
   61.3770   30.4090   47.7510 C   0  0  0  0  0  0  0  0  0  0  0  0
   61.3250   30.3270   49.1320 C   0  0  0  0  0  0  0  0  0  0  0  0
   62.1310   31.1850   49.8480 C   0  0  0  0  0  0  0  0  0  0  0  0
   62.0720   31.0940   51.6190 Cl  0  0  0  0  0  0  0  0  0  0  0  0
   62.9700   32.1010   49.2660 C   0  0  0  0  0  0  0  0  0  0  0  0
   63.7650   32.9430   50.0610 O   0  0  0  0  0  0  0  0  0  0  0  0
   63.0280   32.1890   47.8700 C   0  0  0  0  0  0  0  0  0  0  0  0
   63.9060   33.1270   47.2610 N   0  0  0  0  0  0  0  0  0  0  0  0
   63.3840   34.1250   46.3640 C   0  0  0  0  0  0  0  0  0  0  0  0
   62.2250   31.3380   47.1280 C   0  0  0  0  0  0  0  0  0  0  0  0
   58.1970   31.6840   46.5510 C   0  0  0  0  0  0  0  0  0  0  0  0
   58.8100   32.4710   47.6050 C   0  0  0  0  0  0  0  0  0  0  0  0
   59.7710   33.3960   47.2360 C   0  0  0  0  0  0  0  0  0  0  0  0
   60.3620   34.1580   48.2430 C   0  0  0  0  0  0  0  0  0  0  0  0
   60.0070   34.0060   49.5690 C   0  0  0  0  0  0  0  0  0  0  0  0
   59.0540   33.0900   49.9380 C   0  0  0  0  0  0  0  0  0  0  0  0
   58.7410   32.9710   51.3050 N   0  0  0  0  0  0  0  0  0  0  0  0
   57.8620   31.8800   51.7380 C   0  0  0  0  0  0  0  0  0  0  0  0
   59.2660   33.8450   52.3430 C   0  0  0  0  0  0  0  0  0  0  0  0
   58.4780   32.3420   48.9410 C   0  0  0  0  0  0  0  0  0  0  0  0
   58.9175   35.0724   45.4677 H   0  0  0  0  0  0  0  0  0  0  0  0
   58.6857   33.8000   44.2211 H   0  0  0  0  0  0  0  0  0  0  0  0
   57.6376   35.2588   44.2211 H   0  0  0  0  0  0  0  0  0  0  0  0
   57.3512   34.1319   46.8106 H   0  0  0  0  0  0  0  0  0  0  0  0
   56.1528   34.0883   45.4869 H   0  0  0  0  0  0  0  0  0  0  0  0
   56.5271   29.8377   43.6706 H   0  0  0  0  0  0  0  0  0  0  0  0
   57.8670   28.7180   45.2310 H   0  0  0  0  0  0  0  0  0  0  0  0
   60.8102   28.4313   47.2089 H   0  0  0  0  0  0  0  0  0  0  0  0
   60.7314   29.6325   45.8775 H   0  0  0  0  0  0  0  0  0  0  0  0
   60.6664   29.6055   49.6376 H   0  0  0  0  0  0  0  0  0  0  0  0
   63.3570   33.2760   50.9430 H   0  0  0  0  0  0  0  0  0  0  0  0
   64.9260   33.0840   47.4700 H   0  0  0  0  0  0  0  0  0  0  0  0
   62.9516   34.9517   46.9468 H   0  0  0  0  0  0  0  0  0  0  0  0
   64.1966   34.5092   45.7299 H   0  0  0  0  0  0  0  0  0  0  0  0
   62.6049   33.6766   45.7299 H   0  0  0  0  0  0  0  0  0  0  0  0
   62.2525   31.3914   46.0296 H   0  0  0  0  0  0  0  0  0  0  0  0
   60.0592   33.5258   46.1824 H   0  0  0  0  0  0  0  0  0  0  0  0
   61.1299   34.8985   47.9747 H   0  0  0  0  0  0  0  0  0  0  0  0
   60.4930   34.6254   50.3372 H   0  0  0  0  0  0  0  0  0  0  0  0
   57.8343   31.8457   52.8371 H   0  0  0  0  0  0  0  0  0  0  0  0
   56.8468   32.0515   51.3508 H   0  0  0  0  0  0  0  0  0  0  0  0
   58.2455   30.9245   51.3508 H   0  0  0  0  0  0  0  0  0  0  0  0
   59.0173   33.4310   53.3313 H   0  0  0  0  0  0  0  0  0  0  0  0
   60.3587   33.9199   52.2412 H   0  0  0  0  0  0  0  0  0  0  0  0
   58.8189   34.8449   52.2412 H   0  0  0  0  0  0  0  0  0  0  0  0
   57.7131   31.6021   49.2195 H   0  0  0  0  0  0  0  0  0  0  0  0
  1  2  1  0
  2  3  1  0
  3  4  1  0
  4  5  2  0
  5  6  1  0
  6  7  1  0
  7  8  2  0
  8  9  1  0
  9 10  1  0
 10 11  2  0
 11 12  1  0
 12 13  1  0
 12 14  2  0
 14 15  1  0
 14 16  1  0
 16 17  1  0
 17 18  1  0
 16 19  2  0
  7 20  1  0
 20 21  1  0
 21 22  2  0
 22 23  1  0
 23 24  2  0
 24 25  1  0
 25 26  1  0
 26 27  1  0
 26 28  1  0
 25 29  2  0
 20  3  2  0
 29 21  1  0
 19 10  1  0
  1 30  1  0
  1 31  1  0
  1 32  1  0
  2 33  1  0
  2 34  1  0
  5 35  1  0
  6 36  1  0
  9 37  1  0
  9 38  1  0
 11 39  1  0
 15 40  1  0
 17 41  1  0
 18 42  1  0
 18 43  1  0
 18 44  1  0
 19 45  1  0
 22 46  1  0
 23 47  1  0
 24 48  1  0
 27 49  1  0
 27 50  1  0
 27 51  1  0
 28 52  1  0
 28 53  1  0
 28 54  1  0
 29 55  1  0
M  END
>  <smiles>  (67) 
CCc1nc[nH]c(=NCc2cc(Cl)c(O)c(NC)c2)c1-c1cccc(N(C)C)c1

>  <score_type>  (67) 
oracle

>  <origin>  (67) 
adg

>  <m_score__min__energy>  (67) 
-9.5700000000000003

>  <m_primary>  (67) 
energy

$$$$
67:0
     RDKit          3D

 52 56  0  0  0  0  0  0  0  0999 V2000
   56.2700   28.3910   42.5810 H   0  0  0  0  0  0  0  0  0  0  0  0
   56.3780   29.4300   42.5970 N   0  0  0  0  0  0  0  0  0  0  0  0
   56.9190   30.0650   43.5920 C   0  0  0  0  0  0  0  0  0  0  0  0
   57.3930   29.3930   44.7170 C   0  0  0  0  0  0  0  0  0  0  0  0
   57.3440   28.0690   44.9450 N   0  0  0  0  0  0  0  0  0  0  0  0
   57.9080   27.9420   46.1670 C   0  0  0  0  0  0  0  0  0  0  0  0
   57.9940   26.6050   46.8540 C   0  0  0  0  0  0  0  0  0  0  0  0
   59.0522   26.3397   46.9948 H   0  0  0  0  0  0  0  0  0  0  0  0
   57.4833   26.6754   47.8257 H   0  0  0  0  0  0  0  0  0  0  0  0
   57.3220   25.5350   46.0330 C   0  0  0  0  0  0  0  0  0  0  0  0
   55.9190   25.4400   46.0060 C   0  0  0  0  0  0  0  0  0  0  0  0
   55.3112   26.1501   46.5860 H   0  0  0  0  0  0  0  0  0  0  0  0
   55.2930   24.4480   45.2460 C   0  0  0  0  0  0  0  0  0  0  0  0
   54.1954   24.3770   45.2325 H   0  0  0  0  0  0  0  0  0  0  0  0
   56.0600   23.5460   44.5030 C   0  0  0  0  0  0  0  0  0  0  0  0
   55.5663   22.7616   43.9106 H   0  0  0  0  0  0  0  0  0  0  0  0
   57.4530   23.6410   44.5130 C   0  0  0  0  0  0  0  0  0  0  0  0
   58.0555   22.9342   43.9235 H   0  0  0  0  0  0  0  0  0  0  0  0
   58.0840   24.6330   45.2710 C   0  0  0  0  0  0  0  0  0  0  0  0
   59.1815   24.7074   45.2706 H   0  0  0  0  0  0  0  0  0  0  0  0
   58.2990   29.1310   46.7090 N   0  0  0  0  0  0  0  0  0  0  0  0
   58.9150   29.3240   48.0230 C   0  0  0  0  0  0  0  0  0  0  0  0
   58.1810   29.0940   48.8094 H   0  0  0  0  0  0  0  0  0  0  0  0
   59.7819   28.6544   48.1235 H   0  0  0  0  0  0  0  0  0  0  0  0
   59.2449   30.3686   48.1235 H   0  0  0  0  0  0  0  0  0  0  0  0
   57.9630   30.0560   45.7720 C   0  0  0  0  0  0  0  0  0  0  0  0
   58.0850   31.4700   45.7500 C   0  0  0  0  0  0  0  0  0  0  0  0
   58.6510   32.2460   46.7820 C   0  0  0  0  0  0  0  0  0  0  0  0
   59.0544   31.7482   47.6761 H   0  0  0  0  0  0  0  0  0  0  0  0
   58.7070   33.6490   46.6840 C   0  0  0  0  0  0  0  0  0  0  0  0
   59.2430   34.4590   47.7010 O   0  0  0  0  0  0  0  0  0  0  0  0
   59.9960   33.9960   48.8230 C   0  0  0  0  0  0  0  0  0  0  0  0
   59.9810   34.7663   49.6081 H   0  0  0  0  0  0  0  0  0  0  0  0
   59.5413   33.0630   49.1873 H   0  0  0  0  0  0  0  0  0  0  0  0
   61.4250   33.7130   48.4390 C   0  0  0  0  0  0  0  0  0  0  0  0
   62.3650   33.3560   49.4200 C   0  0  0  0  0  0  0  0  0  0  0  0
   62.0568   33.2823   50.4734 H   0  0  0  0  0  0  0  0  0  0  0  0
   63.6910   33.0940   49.0620 C   0  0  0  0  0  0  0  0  0  0  0  0
   64.4213   32.8071   49.8329 H   0  0  0  0  0  0  0  0  0  0  0  0
   64.0900   33.1960   47.7270 C   0  0  0  0  0  0  0  0  0  0  0  0
   65.1322   32.9835   47.4466 H   0  0  0  0  0  0  0  0  0  0  0  0
   63.1650   33.5680   46.7480 C   0  0  0  0  0  0  0  0  0  0  0  0
   63.4810   33.6524   45.6978 H   0  0  0  0  0  0  0  0  0  0  0  0
   61.8390   33.8330   47.1010 C   0  0  0  0  0  0  0  0  0  0  0  0
   61.1166   34.1366   46.3290 H   0  0  0  0  0  0  0  0  0  0  0  0
   58.2170   34.2770   45.5400 C   0  0  0  0  0  0  0  0  0  0  0  0
   58.2669   35.3728   45.4577 H   0  0  0  0  0  0  0  0  0  0  0  0
   57.6650   33.5330   44.5000 C   0  0  0  0  0  0  0  0  0  0  0  0
   57.2860   34.0452   43.6033 H   0  0  0  0  0  0  0  0  0  0  0  0
   57.5890   32.1360   44.5880 C   0  0  0  0  0  0  0  0  0  0  0  0
   57.0310   31.4230   43.5550 N   0  0  0  0  0  0  0  0  0  0  0  0
   56.6750   31.9310   42.7120 H   0  0  0  0  0  0  0  0  0  0  0  0
  1  2  1  0
  2  3  2  0
  3  4  1  0
  4  5  1  0
  5  6  2  0
  6  7  1  0
  7  8  1  0
  7  9  1  0
  7 10  1  0
 10 11  2  0
 11 12  1  0
 11 13  1  0
 13 14  1  0
 13 15  2  0
 15 16  1  0
 15 17  1  0
 17 18  1  0
 17 19  2  0
 19 20  1  0
  6 21  1  0
 21 22  1  0
 22 23  1  0
 22 24  1  0
 22 25  1  0
 21 26  1  0
 26 27  1  0
 27 28  2  0
 28 29  1  0
 28 30  1  0
 30 31  1  0
 31 32  1  0
 32 33  1  0
 32 34  1  0
 32 35  1  0
 35 36  2  0
 36 37  1  0
 36 38  1  0
 38 39  1  0
 38 40  2  0
 40 41  1  0
 40 42  1  0
 42 43  1  0
 42 44  2  0
 44 45  1  0
 30 46  2  0
 46 47  1  0
 46 48  1  0
 48 49  1  0
 48 50  2  0
 50 51  1  0
 51 52  1  0
 51  3  1  0
 26  4  2  0
 50 27  1  0
 19 10  1  0
 44 35  1  0
M  END
>  <UniqueID>  (68) 
61

>  <SMILES>  (68) 
[H]/N=c1/[nH]c2ccc(OCc3ccccc3)cc2c2c1nc(Cc1ccccc1)n2C

>  <Energy>  (68) 
103.11826303961344

>  <Genealogy>  (68) 
[H]/N=c1/[nH]c2ccc(OCc3ccccc3)cc2c2c1nc(Cc1ccccc1)n2C (cis-trans isomerization)
[H]/N=c1/[nH]c2ccc(OCc3ccccc3)cc2c2c1nc(Cc1ccccc1)n2C (3D coordinates assigned)
[H]/N=c1/[nH]c2ccc(OCc3ccccc3)cc2c2c1nc(Cc1ccccc1)n2C (optimized conformer: 103.11826303961344 kcal/mol)

>  <smiles>  (68) 
Cn1c(Cc2ccccc2)nc2c(=N)[nH]c3ccc(OCc4ccccc4)cc3c21

>  <score_type>  (68) 
oracle

>  <origin>  (68) 
adg

>  <m_score__min__energy>  (68) 
-9.0600000000000005

>  <m_primary>  (68) 
energy

$$$$
68:0
     RDKit          3D

 48 51  0  0  1  0  0  0  0  0999 V2000
   59.3320   33.7240   48.5340 C   0  0  0  0  0  0  0  0  0  0  0  0
   59.0030   33.6510   47.0810 C   0  0  0  0  0  0  0  0  0  0  0  0
   59.2430   34.6900   46.2220 C   0  0  0  0  0  0  0  0  0  0  0  0
   58.9310   34.6080   44.8670 C   0  0  0  0  0  0  0  0  0  0  0  0
   58.3690   33.4440   44.4130 C   0  0  0  0  0  0  0  0  0  0  0  0
   57.9680   33.0540   43.2340 O   0  0  0  0  0  0  0  0  0  0  0  0
   57.4910   31.8480   43.2700 C   0  0  0  0  0  0  0  0  0  0  0  0
   56.9670   31.0520   42.2860 N   0  0  0  0  0  0  0  0  0  0  0  0
   56.5330   29.8090   42.5980 C   0  0  0  0  0  0  0  0  0  0  0  0
   56.6230   29.3800   43.8640 N   0  0  0  0  0  0  0  0  0  0  0  0
   57.1200   30.0970   44.8770 C   0  0  0  0  0  0  0  0  0  0  0  0
   57.1860   29.6440   46.1080 N   0  0  0  0  0  0  0  0  0  0  0  0
   58.3190   28.8040   46.4880 C   0  0  1  0  0  0  0  0  0  0  0  0
   58.4650   27.5440   45.7750 C   0  0  0  0  0  0  0  0  0  0  0  0
   57.2730   26.8940   45.2520 N   0  0  0  0  0  0  0  0  0  0  0  0
   57.7660   25.9850   44.1580 C   0  0  0  0  0  0  0  0  0  0  0  0
   56.7900   25.8930   46.2170 C   0  0  0  0  0  0  0  0  0  0  0  0
   59.4410   29.4940   47.1190 C   0  0  0  0  0  0  0  0  0  0  0  0
   59.4550   29.6730   48.5120 C   0  0  0  0  0  0  0  0  0  0  0  0
   60.4620   30.3470   49.1580 C   0  0  0  0  0  0  0  0  0  0  0  0
   61.5280   30.8880   48.4630 C   0  0  0  0  0  0  0  0  0  0  0  0
   61.5430   30.7290   47.1080 C   0  0  0  0  0  0  0  0  0  0  0  0
   60.5200   30.0460   46.4550 C   0  0  0  0  0  0  0  0  0  0  0  0
   57.5680   31.3740   44.5660 C   0  0  0  0  0  0  0  0  0  0  0  0
   58.1290   32.3920   45.2950 C   0  0  0  0  0  0  0  0  0  0  0  0
   58.4360   32.4720   46.6260 C   0  0  0  0  0  0  0  0  0  0  0  0
   58.4266   33.5231   49.1255 H   0  0  0  0  0  0  0  0  0  0  0  0
   60.1006   32.9745   48.7740 H   0  0  0  0  0  0  0  0  0  0  0  0
   59.7115   34.7282   48.7740 H   0  0  0  0  0  0  0  0  0  0  0  0
   59.6942   35.6141   46.6125 H   0  0  0  0  0  0  0  0  0  0  0  0
   59.1289   35.4484   44.1854 H   0  0  0  0  0  0  0  0  0  0  0  0
   56.1103   29.1569   41.8195 H   0  0  0  0  0  0  0  0  0  0  0  0
   56.2970   28.4180   44.0590 H   0  0  0  0  0  0  0  0  0  0  0  0
   58.0486   28.2755   47.4140 H   0  0  0  0  0  0  0  0  0  0  0  0
   59.1327   27.7309   44.9211 H   0  0  0  0  0  0  0  0  0  0  0  0
   58.8354   26.8460   46.5402 H   0  0  0  0  0  0  0  0  0  0  0  0
   58.2454   25.1011   44.6039 H   0  0  0  0  0  0  0  0  0  0  0  0
   56.9169   25.6667   43.5353 H   0  0  0  0  0  0  0  0  0  0  0  0
   58.4959   26.5230   43.5353 H   0  0  0  0  0  0  0  0  0  0  0  0
   56.9652   26.2560   47.2405 H   0  0  0  0  0  0  0  0  0  0  0  0
   55.7130   25.7278   46.0658 H   0  0  0  0  0  0  0  0  0  0  0  0
   57.3308   24.9471   46.0658 H   0  0  0  0  0  0  0  0  0  0  0  0
   58.6286   29.2579   49.1076 H   0  0  0  0  0  0  0  0  0  0  0  0
   60.4198   30.4589   50.2515 H   0  0  0  0  0  0  0  0  0  0  0  0
   62.3339   31.4265   48.9832 H   0  0  0  0  0  0  0  0  0  0  0  0
   62.3755   31.1465   46.5227 H   0  0  0  0  0  0  0  0  0  0  0  0
   60.5732   29.9412   45.3613 H   0  0  0  0  0  0  0  0  0  0  0  0
   58.2400   31.6320   47.3087 H   0  0  0  0  0  0  0  0  0  0  0  0
  1  2  1  0
  2  3  2  0
  3  4  1  0
  4  5  2  0
  5  6  1  0
  6  7  1  0
  7  8  1  0
  8  9  2  0
  9 10  1  0
 10 11  1  0
 11 12  2  0
 12 13  1  0
 13 14  1  0
 14 15  1  0
 15 16  1  0
 15 17  1  0
 13 18  1  0
 18 19  2  0
 19 20  1  0
 20 21  2  0
 21 22  1  0
 22 23  2  0
 11 24  1  0
 24 25  1  0
 25 26  2  0
 26  2  1  0
 25  5  1  0
 24  7  2  0
 23 18  1  0
  1 27  1  0
  1 28  1  0
  1 29  1  0
  3 30  1  0
  4 31  1  0
  9 32  1  0
 10 33  1  0
 13 34  1  1
 14 35  1  0
 14 36  1  0
 16 37  1  0
 16 38  1  0
 16 39  1  0
 17 40  1  0
 17 41  1  0
 17 42  1  0
 19 43  1  0
 20 44  1  0
 21 45  1  0
 22 46  1  0
 23 47  1  0
 26 48  1  0
M  END
>  <smiles>  (69) 
Cc1ccc2oc3nc[nH]c(=NC(CN(C)C)c4ccccc4)c3c2c1

>  <score_type>  (69) 
oracle

>  <origin>  (69) 
adg

>  <m_score__min__energy>  (69) 
-8.1400000000000006

>  <m_primary>  (69) 
energy

$$$$
69:0
     RDKit          3D

 41 42  0  0  0  0  0  0  0  0999 V2000
   61.5240   31.1060   47.1840 C   0  0  0  0  0  0  0  0  0  0  0  0
   60.3080   31.6610   47.2020 C   0  0  0  0  0  0  0  0  0  0  0  0
   59.6280   32.0040   48.4710 C   0  0  0  0  0  0  0  0  0  0  0  0
   60.1300   31.7000   49.5860 O   0  0  0  0  0  0  0  0  0  0  0  0
   58.3260   32.6920   48.4180 C   0  0  0  0  0  0  0  0  0  0  0  0
   57.8580   33.1960   47.2680 C   0  0  0  0  0  0  0  0  0  0  0  0
   58.7030   33.2030   45.9900 C   0  0  1  0  0  0  0  0  0  0  0  0
   59.6760   34.4070   46.0930 C   0  0  0  0  0  0  0  0  0  0  0  0
   59.5260   31.8700   45.9180 C   0  0  2  0  0  0  0  0  0  0  0  0
   58.6370   30.6160   45.6680 C   0  0  0  0  0  0  0  0  0  0  0  0
   57.2980   30.9220   44.9480 C   0  0  2  0  0  0  0  0  0  0  0  0
   56.6030   29.6300   44.3710 C   0  0  0  0  0  0  0  0  0  0  0  0
   57.4810   28.3690   44.4970 C   0  0  0  0  0  0  0  0  0  0  0  0
   56.2420   29.8200   42.8790 C   0  0  0  0  0  0  0  0  0  0  0  0
   55.4120   29.3790   45.0820 O   0  0  0  0  0  0  0  0  0  0  0  0
   57.4910   32.0770   43.9380 C   0  0  2  0  0  0  0  0  0  0  0  0
   58.5210   31.7580   43.0340 O   0  0  0  0  0  0  0  0  0  0  0  0
   57.8360   33.3970   44.6780 C   0  0  1  0  0  0  0  0  0  0  0  0
   56.6430   34.0940   44.9430 O   0  0  0  0  0  0  0  0  0  0  0  0
   62.0033   30.8625   46.2243 H   0  0  0  0  0  0  0  0  0  0  0  0
   62.0453   30.8928   48.1289 H   0  0  0  0  0  0  0  0  0  0  0  0
   57.7292   32.7934   49.3364 H   0  0  0  0  0  0  0  0  0  0  0  0
   56.8414   33.6153   47.2408 H   0  0  0  0  0  0  0  0  0  0  0  0
   59.8627   34.6380   47.1521 H   0  0  0  0  0  0  0  0  0  0  0  0
   60.6261   34.1538   45.5999 H   0  0  0  0  0  0  0  0  0  0  0  0
   59.2290   35.2829   45.5999 H   0  0  0  0  0  0  0  0  0  0  0  0
   60.2065   31.9789   45.0606 H   0  0  0  0  0  0  0  0  0  0  0  0
   59.2069   29.9062   45.0504 H   0  0  0  0  0  0  0  0  0  0  0  0
   58.3794   30.2078   46.6565 H   0  0  0  0  0  0  0  0  0  0  0  0
   56.5680   31.2820   45.6879 H   0  0  0  0  0  0  0  0  0  0  0  0
   57.6414   28.1387   45.5606 H   0  0  0  0  0  0  0  0  0  0  0  0
   56.9770   27.5211   44.0102 H   0  0  0  0  0  0  0  0  0  0  0  0
   58.4511   28.5475   44.0102 H   0  0  0  0  0  0  0  0  0  0  0  0
   55.2712   30.3310   42.7988 H   0  0  0  0  0  0  0  0  0  0  0  0
   57.0174   30.4269   42.3886 H   0  0  0  0  0  0  0  0  0  0  0  0
   56.1807   28.8373   42.3886 H   0  0  0  0  0  0  0  0  0  0  0  0
   55.5280   29.7230   46.0070 H   0  0  0  0  0  0  0  0  0  0  0  0
   56.5503   32.2167   43.3852 H   0  0  0  0  0  0  0  0  0  0  0  0
   58.5120   30.7720   42.9180 H   0  0  0  0  0  0  0  0  0  0  0  0
   58.4822   33.9869   44.0114 H   0  0  0  0  0  0  0  0  0  0  0  0
   56.4420   34.6420   44.1400 H   0  0  0  0  0  0  0  0  0  0  0  0
  1  2  2  0
  2  3  1  0
  3  4  2  0
  3  5  1  0
  5  6  2  0
  6  7  1  0
  7  8  1  1
  7  9  1  0
  9 10  1  0
 10 11  1  0
 11 12  1  0
 12 13  1  0
 12 14  1  0
 12 15  1  0
 11 16  1  0
 16 17  1  0
 16 18  1  0
 18 19  1  0
  9  2  1  0
 18  7  1  0
  1 20  1  0
  1 21  1  0
  5 22  1  0
  6 23  1  0
  8 24  1  0
  8 25  1  0
  8 26  1  0
  9 27  1  6
 10 28  1  0
 10 29  1  0
 11 30  1  1
 13 31  1  0
 13 32  1  0
 13 33  1  0
 14 34  1  0
 14 35  1  0
 14 36  1  0
 15 37  1  0
 16 38  1  6
 17 39  1  0
 18 40  1  6
 19 41  1  0
M  END
>  <UniqueID>  (70) 
62

>  <SMILES>  (70) 
C=C1C(=O)C=C[C@]2(C)C(O)C(O)C(C(C)(C)O)C[C@H]12

>  <Energy>  (70) 
54.80562681514781

>  <Genealogy>  (70) 
C=C1C(=O)C=C[C@]2(C)C(O)C(O)C(C(C)(C)O)C[C@H]12 (chirality)
C=C1C(=O)C=C[C@]2(C)C(O)C(O)C(C(C)(C)O)C[C@H]12 (3D coordinates assigned)
C=C1C(=O)C=C[C@]2(C)C(O)C(O)C(C(C)(C)O)C[C@H]12 (nonaromatic ring conformer: 54.80562681514781 kcal/mol)

>  <smiles>  (70) 
C=C1C(=O)C=CC2(C)C1CC(C(C)(C)O)C(O)C2O

>  <score_type>  (70) 
oracle

>  <origin>  (70) 
adg

>  <m_score__min__energy>  (70) 
-8.1699999999999999

>  <m_primary>  (70) 
energy

$$$$
70:0
     RDKit          3D

 50 53  0  0  0  0  0  0  0  0999 V2000
   58.5370   33.5350   52.1960 C   0  0  0  0  0  0  0  0  0  0  0  0
   58.5980   33.1260   50.8340 O   0  0  0  0  0  0  0  0  0  0  0  0
   58.8750   31.8180   50.4030 C   0  0  0  0  0  0  0  0  0  0  0  0
   58.9190   30.7360   51.3070 C   0  0  0  0  0  0  0  0  0  0  0  0
   59.1630   29.4410   50.8490 C   0  0  0  0  0  0  0  0  0  0  0  0
   59.3640   29.2040   49.4890 C   0  0  0  0  0  0  0  0  0  0  0  0
   59.3290   30.2650   48.5830 C   0  0  0  0  0  0  0  0  0  0  0  0
   59.0940   31.5780   49.0280 C   0  0  0  0  0  0  0  0  0  0  0  0
   59.0730   32.6870   48.0450 C   0  0  0  0  0  0  0  0  0  0  0  0
   59.9710   33.7610   48.1600 C   0  0  0  0  0  0  0  0  0  0  0  0
   59.9510   34.8010   47.2270 C   0  0  0  0  0  0  0  0  0  0  0  0
   59.0360   34.7800   46.1720 C   0  0  0  0  0  0  0  0  0  0  0  0
   58.1250   33.7200   46.0470 C   0  0  0  0  0  0  0  0  0  0  0  0
   57.1390   33.6920   44.9090 C   0  0  0  0  0  0  0  0  0  0  0  0
   57.4470   32.6380   43.9940 O   0  0  0  0  0  0  0  0  0  0  0  0
   57.5790   31.2830   44.3360 C   0  0  0  0  0  0  0  0  0  0  0  0
   56.4240   30.4750   44.3160 C   0  0  0  0  0  0  0  0  0  0  0  0
   56.4960   29.1110   44.6400 C   0  0  0  0  0  0  0  0  0  0  0  0
   57.7340   28.5750   45.0030 C   0  0  0  0  0  0  0  0  0  0  0  0
   58.8590   29.3490   45.0020 C   0  0  0  0  0  0  0  0  0  0  0  0
   58.8220   30.7060   44.6890 C   0  0  0  0  0  0  0  0  0  0  0  0
   59.9790   28.6150   45.3220 O   0  0  0  0  0  0  0  0  0  0  0  0
   59.6340   27.2460   45.5190 C   0  0  0  0  0  0  0  0  0  0  0  0
   58.0860   27.1670   45.3690 C   0  0  1  0  0  0  0  0  0  0  0  0
   57.4210   26.7180   46.6860 C   0  0  0  0  0  0  0  0  0  0  0  0
   56.0930   26.0660   46.4540 C   0  0  0  0  0  0  0  0  0  0  0  0
   55.1460   26.7210   45.9440 O   0  0  0  0  0  0  0  0  0  0  0  0
   55.8970   24.7360   46.8060 O   0  0  0  0  0  0  0  0  0  0  0  0
   58.1610   32.6670   46.9760 C   0  0  0  0  0  0  0  0  0  0  0  0
   58.6677   32.6589   52.8481 H   0  0  0  0  0  0  0  0  0  0  0  0
   59.3364   34.2636   52.3962 H   0  0  0  0  0  0  0  0  0  0  0  0
   57.5598   33.9986   52.3962 H   0  0  0  0  0  0  0  0  0  0  0  0
   58.7598   30.9146   52.3807 H   0  0  0  0  0  0  0  0  0  0  0  0
   59.1970   28.6043   51.5623 H   0  0  0  0  0  0  0  0  0  0  0  0
   59.5501   28.1808   49.1307 H   0  0  0  0  0  0  0  0  0  0  0  0
   59.4866   30.0724   47.5115 H   0  0  0  0  0  0  0  0  0  0  0  0
   60.6938   33.7835   48.9889 H   0  0  0  0  0  0  0  0  0  0  0  0
   60.6577   35.6384   47.3237 H   0  0  0  0  0  0  0  0  0  0  0  0
   59.0295   35.5976   45.4362 H   0  0  0  0  0  0  0  0  0  0  0  0
   56.1277   33.5350   45.3123 H   0  0  0  0  0  0  0  0  0  0  0  0
   57.1937   34.6507   44.3725 H   0  0  0  0  0  0  0  0  0  0  0  0
   55.4550   30.9185   44.0433 H   0  0  0  0  0  0  0  0  0  0  0  0
   55.5970   28.4779   44.6087 H   0  0  0  0  0  0  0  0  0  0  0  0
   59.7377   31.3148   44.7156 H   0  0  0  0  0  0  0  0  0  0  0  0
   60.1239   26.6158   44.7622 H   0  0  0  0  0  0  0  0  0  0  0  0
   59.9619   26.8860   46.5054 H   0  0  0  0  0  0  0  0  0  0  0  0
   57.7417   26.4312   44.6274 H   0  0  0  0  0  0  0  0  0  0  0  0
   58.0845   26.0010   47.1916 H   0  0  0  0  0  0  0  0  0  0  0  0
   57.2551   27.6131   47.3035 H   0  0  0  0  0  0  0  0  0  0  0  0
   57.4690   31.8190   46.8657 H   0  0  0  0  0  0  0  0  0  0  0  0
  1  2  1  0
  2  3  1  0
  3  4  2  0
  4  5  1  0
  5  6  2  0
  6  7  1  0
  7  8  2  0
  8  9  1  0
  9 10  2  0
 10 11  1  0
 11 12  2  0
 12 13  1  0
 13 14  1  0
 14 15  1  0
 15 16  1  0
 16 17  2  0
 17 18  1  0
 18 19  2  0
 19 20  1  0
 20 21  2  0
 20 22  1  0
 22 23  1  0
 23 24  1  0
 24 25  1  0
 25 26  1  0
 26 27  2  0
 26 28  1  0
 13 29  2  0
  8  3  1  0
 29  9  1  0
 21 16  1  0
 24 19  1  0
  1 30  1  0
  1 31  1  0
  1 32  1  0
  4 33  1  0
  5 34  1  0
  6 35  1  0
  7 36  1  0
 10 37  1  0
 11 38  1  0
 12 39  1  0
 14 40  1  0
 14 41  1  0
 17 42  1  0
 18 43  1  0
 21 44  1  0
 23 45  1  0
 23 46  1  0
 24 47  1  6
 25 48  1  0
 25 49  1  0
 29 50  1  0
M  CHG  1  28  -1
M  END
>  <UniqueID>  (71) 
63

>  <SMILES>  (71) 
COc1ccccc1-c1cccc(COc2ccc3c(c2)OC[C@H]3CC(=O)[O-])c1

>  <Energy>  (71) 
73.90833269880356

>  <Genealogy>  (71) 
COc1ccccc1-c1cccc(COc2ccc3c(c2)OCC3CC(=O)[O-])c1 (protonated)
COc1ccccc1-c1cccc(COc2ccc3c(c2)OC[C@H]3CC(=O)[O-])c1 (chirality)
COc1ccccc1-c1cccc(COc2ccc3c(c2)OC[C@H]3CC(=O)[O-])c1 (3D coordinates assigned)
COc1ccccc1-c1cccc(COc2ccc3c(c2)OC[C@H]3CC(=O)[O-])c1 (nonaromatic ring conformer: 73.90833269880356 kcal/mol)

>  <smiles>  (71) 
COc1ccccc1-c1cccc(COc2ccc3c(c2)OCC3CC(=O)O)c1

>  <score_type>  (71) 
oracle

>  <origin>  (71) 
adg

>  <m_score__min__energy>  (71) 
-11.82

>  <m_primary>  (71) 
energy

$$$$
71:0
     RDKit          3D

 59 62  0  0  0  0  0  0  0  0999 V2000
   59.6750   34.5840   48.3360 C   0  0  0  0  0  0  0  0  0  0  0  0
   58.9190   34.9750   47.1940 O   0  0  0  0  0  0  0  0  0  0  0  0
   58.5870   34.1180   46.1320 C   0  0  0  0  0  0  0  0  0  0  0  0
   59.0310   34.3430   44.8150 C   0  0  0  0  0  0  0  0  0  0  0  0
   58.6720   33.4640   43.7880 C   0  0  0  0  0  0  0  0  0  0  0  0
   57.8690   32.3460   44.0610 C   0  0  0  0  0  0  0  0  0  0  0  0
   57.4420   31.4220   42.9510 C   0  0  0  0  0  0  0  0  0  0  0  0
   56.8950   30.1770   43.5070 N   0  0  0  0  0  0  0  0  0  0  0  0
   55.5110   30.0860   43.8910 C   0  0  0  0  0  0  0  0  0  0  0  0
   55.1600   29.4060   44.8910 O   0  0  0  0  0  0  0  0  0  0  0  0
   57.7750   29.0300   43.7520 C   0  0  0  0  0  0  0  0  0  0  0  0
   58.4370   29.1560   45.0990 C   0  0  0  0  0  0  0  0  0  0  0  0
   59.6250   29.8930   45.2210 C   0  0  0  0  0  0  0  0  0  0  0  0
   60.2610   30.0130   46.4600 C   0  0  0  0  0  0  0  0  0  0  0  0
   59.7220   29.3890   47.5970 C   0  0  0  0  0  0  0  0  0  0  0  0
   60.3700   29.5100   48.8770 N   0  0  0  0  0  0  0  0  0  0  0  0
   60.1590   28.4970   49.9160 C   0  0  0  0  0  0  0  0  0  0  0  0
   61.4560   28.2630   50.6900 C   0  0  0  0  0  0  0  0  0  0  0  0
   62.0450   29.5440   51.1000 N   0  0  0  0  0  0  0  0  0  0  0  0
   62.6520   29.6670   52.4020 C   0  0  0  0  0  0  0  0  0  0  0  0
   63.5460   28.6950   52.8880 C   0  0  0  0  0  0  0  0  0  0  0  0
   64.1110   28.8530   54.1560 C   0  0  0  0  0  0  0  0  0  0  0  0
   63.7810   29.9660   54.9310 C   0  0  0  0  0  0  0  0  0  0  0  0
   62.8830   30.9070   54.4260 C   0  0  0  0  0  0  0  0  0  0  0  0
   62.3440   30.7370   53.1890 N   0  0  0  0  0  0  0  0  0  0  0  0
   62.2430   30.5710   50.0660 C   0  0  0  0  0  0  0  0  0  0  0  0
   60.9470   30.7960   49.2860 C   0  0  0  0  0  0  0  0  0  0  0  0
   58.5410   28.6440   47.4740 C   0  0  0  0  0  0  0  0  0  0  0  0
   57.9020   28.5230   46.2360 C   0  0  0  0  0  0  0  0  0  0  0  0
   56.7600   27.7950   46.1510 F   0  0  0  0  0  0  0  0  0  0  0  0
   57.4260   32.1240   45.3740 C   0  0  0  0  0  0  0  0  0  0  0  0
   57.7850   33.0020   46.4010 C   0  0  0  0  0  0  0  0  0  0  0  0
   57.3490   32.7690   47.6620 F   0  0  0  0  0  0  0  0  0  0  0  0
   59.1310   34.8653   49.2497 H   0  0  0  0  0  0  0  0  0  0  0  0
   59.8263   33.4946   48.3201 H   0  0  0  0  0  0  0  0  0  0  0  0
   60.6515   35.0901   48.3201 H   0  0  0  0  0  0  0  0  0  0  0  0
   59.6637   35.2149   44.5925 H   0  0  0  0  0  0  0  0  0  0  0  0
   59.0208   33.6499   42.7615 H   0  0  0  0  0  0  0  0  0  0  0  0
   56.6710   31.9174   42.3426 H   0  0  0  0  0  0  0  0  0  0  0  0
   58.3165   31.1823   42.3282 H   0  0  0  0  0  0  0  0  0  0  0  0
   54.7490   30.6180   43.3026 H   0  0  0  0  0  0  0  0  0  0  0  0
   57.1808   28.1047   43.7251 H   0  0  0  0  0  0  0  0  0  0  0  0
   58.5515   29.0026   42.9734 H   0  0  0  0  0  0  0  0  0  0  0  0
   60.0589   30.3798   44.3351 H   0  0  0  0  0  0  0  0  0  0  0  0
   61.1881   30.5990   46.5449 H   0  0  0  0  0  0  0  0  0  0  0  0
   59.3786   28.8437   50.6094 H   0  0  0  0  0  0  0  0  0  0  0  0
   59.8462   27.5545   49.4428 H   0  0  0  0  0  0  0  0  0  0  0  0
   61.2406   27.6602   51.5845 H   0  0  0  0  0  0  0  0  0  0  0  0
   62.1689   27.7338   50.0405 H   0  0  0  0  0  0  0  0  0  0  0  0
   63.7981   27.8176   52.2743 H   0  0  0  0  0  0  0  0  0  0  0  0
   64.8148   28.1014   54.5430 H   0  0  0  0  0  0  0  0  0  0  0  0
   64.2240   30.0998   55.9289 H   0  0  0  0  0  0  0  0  0  0  0  0
   62.6110   31.7863   55.0284 H   0  0  0  0  0  0  0  0  0  0  0  0
   62.5468   31.5137   50.5445 H   0  0  0  0  0  0  0  0  0  0  0  0
   63.0249   30.2322   49.3704 H   0  0  0  0  0  0  0  0  0  0  0  0
   60.2275   31.3303   49.9238 H   0  0  0  0  0  0  0  0  0  0  0  0
   61.1682   31.3913   48.3878 H   0  0  0  0  0  0  0  0  0  0  0  0
   58.1132   28.1503   48.3590 H   0  0  0  0  0  0  0  0  0  0  0  0
   56.7919   31.2532   45.5966 H   0  0  0  0  0  0  0  0  0  0  0  0
  1  2  1  0
  2  3  1  0
  3  4  2  0
  4  5  1  0
  5  6  2  0
  6  7  1  0
  7  8  1  0
  8  9  1  0
  9 10  2  0
  8 11  1  0
 11 12  1  0
 12 13  2  0
 13 14  1  0
 14 15  2  0
 15 16  1  0
 16 17  1  0
 17 18  1  0
 18 19  1  0
 19 20  1  0
 20 21  2  0
 21 22  1  0
 22 23  2  0
 23 24  1  0
 24 25  2  0
 19 26  1  0
 26 27  1  0
 15 28  1  0
 28 29  2  0
 29 30  1  0
  6 31  1  0
 31 32  2  0
 32 33  1  0
 32  3  1  0
 29 12  1  0
 27 16  1  0
 25 20  1  0
  1 34  1  0
  1 35  1  0
  1 36  1  0
  4 37  1  0
  5 38  1  0
  7 39  1  0
  7 40  1  0
  9 41  1  0
 11 42  1  0
 11 43  1  0
 13 44  1  0
 14 45  1  0
 17 46  1  0
 17 47  1  0
 18 48  1  0
 18 49  1  0
 21 50  1  0
 22 51  1  0
 23 52  1  0
 24 53  1  0
 26 54  1  0
 26 55  1  0
 27 56  1  0
 27 57  1  0
 28 58  1  0
 31 59  1  0
M  END
>  <UniqueID>  (72) 
64

>  <SMILES>  (72) 
COc1ccc(CN(C=O)Cc2ccc(N3CCN(c4ccccn4)CC3)cc2F)cc1F

>  <Energy>  (72) 
65.72854494554548

>  <Genealogy>  (72) 
COc1ccc(CN(C=O)Cc2ccc(N3CCN(c4ccccn4)CC3)cc2F)cc1F (3D coordinates assigned)
COc1ccc(CN(C=O)Cc2ccc(N3CCN(c4ccccn4)CC3)cc2F)cc1F (nonaromatic ring conformer: 65.72854494554548 kcal/mol)

>  <smiles>  (72) 
COc1ccc(CN(C=O)Cc2ccc(N3CCN(c4ccccn4)CC3)cc2F)cc1F

>  <score_type>  (72) 
oracle

>  <origin>  (72) 
adg

>  <m_score__min__energy>  (72) 
-8.0899999999999999

>  <m_primary>  (72) 
energy

$$$$
72:0
     RDKit          3D

 41 43  0  0  0  0  0  0  0  0999 V2000
   65.1560   32.4800   49.8550 C   0  0  0  0  0  0  0  0  0  0  0  0
   64.1740   31.8320   49.0520 O   0  0  0  0  0  0  0  0  0  0  0  0
   63.2370   32.5010   48.2450 C   0  0  0  0  0  0  0  0  0  0  0  0
   63.6210   33.1870   47.0780 C   0  0  0  0  0  0  0  0  0  0  0  0
   62.6670   33.8390   46.2990 C   0  0  0  0  0  0  0  0  0  0  0  0
   61.3250   33.8040   46.6640 C   0  0  0  0  0  0  0  0  0  0  0  0
   60.9160   33.1330   47.8260 C   0  0  0  0  0  0  0  0  0  0  0  0
   59.4690   33.0540   48.0830 C   0  0  0  0  0  0  0  0  0  0  0  0
   59.0870   33.0800   49.2860 O   0  0  0  0  0  0  0  0  0  0  0  0
   58.4950   32.9320   47.0160 N   0  0  0  0  0  0  0  0  0  0  0  0
   57.9140   34.1460   46.4440 C   0  0  0  0  0  0  0  0  0  0  0  0
   58.7660   34.5670   45.2980 C   0  0  0  0  0  0  0  0  0  0  0  0
   59.3080   35.7050   45.3050 O   0  0  0  0  0  0  0  0  0  0  0  0
   59.0100   33.6720   44.2090 N   0  0  0  0  0  0  0  0  0  0  0  0
   58.1940   32.5190   43.9330 C   0  0  0  0  0  0  0  0  0  0  0  0
   57.8180   32.2950   42.5980 C   0  0  0  0  0  0  0  0  0  0  0  0
   57.0350   31.1970   42.2460 C   0  0  0  0  0  0  0  0  0  0  0  0
   56.6240   30.2960   43.2230 C   0  0  0  0  0  0  0  0  0  0  0  0
   57.0030   30.4830   44.5530 C   0  0  0  0  0  0  0  0  0  0  0  0
   57.7930   31.5870   44.9360 C   0  0  0  0  0  0  0  0  0  0  0  0
   58.2230   31.6710   46.3630 C   0  0  0  0  0  0  0  0  0  0  0  0
   58.3110   30.5990   47.0220 O   0  0  0  0  0  0  0  0  0  0  0  0
   61.8860   32.4780   48.6350 C   0  0  0  0  0  0  0  0  0  0  0  0
   61.5890   31.7870   49.8270 O   0  0  0  0  0  0  0  0  0  0  0  0
   61.6340   32.3130   51.1480 C   0  0  0  0  0  0  0  0  0  0  0  0
   64.9208   32.3248   50.9183 H   0  0  0  0  0  0  0  0  0  0  0  0
   66.1474   32.0582   49.6334 H   0  0  0  0  0  0  0  0  0  0  0  0
   65.1581   33.5574   49.6334 H   0  0  0  0  0  0  0  0  0  0  0  0
   64.6794   33.2087   46.7791 H   0  0  0  0  0  0  0  0  0  0  0  0
   62.9757   34.3824   45.3938 H   0  0  0  0  0  0  0  0  0  0  0  0
   60.5766   34.3079   46.0347 H   0  0  0  0  0  0  0  0  0  0  0  0
   56.8915   33.9415   46.0938 H   0  0  0  0  0  0  0  0  0  0  0  0
   57.8705   34.9427   47.2012 H   0  0  0  0  0  0  0  0  0  0  0  0
   59.6470   34.0120   43.4530 H   0  0  0  0  0  0  0  0  0  0  0  0
   58.1469   32.9975   41.8180 H   0  0  0  0  0  0  0  0  0  0  0  0
   56.7424   31.0431   41.1969 H   0  0  0  0  0  0  0  0  0  0  0  0
   55.9988   29.4342   42.9466 H   0  0  0  0  0  0  0  0  0  0  0  0
   56.6805   29.7579   45.3148 H   0  0  0  0  0  0  0  0  0  0  0  0
   61.5635   31.4890   51.8733 H   0  0  0  0  0  0  0  0  0  0  0  0
   62.5815   32.8518   51.2961 H   0  0  0  0  0  0  0  0  0  0  0  0
   60.7918   33.0049   51.2961 H   0  0  0  0  0  0  0  0  0  0  0  0
  1  2  1  0
  2  3  1  0
  3  4  2  0
  4  5  1  0
  5  6  2  0
  6  7  1  0
  7  8  1  0
  8  9  2  0
  8 10  1  0
 10 11  1  0
 11 12  1  0
 12 13  2  0
 12 14  1  0
 14 15  1  0
 15 16  2  0
 16 17  1  0
 17 18  2  0
 18 19  1  0
 19 20  2  0
 20 21  1  0
 21 22  2  0
  7 23  2  0
 23 24  1  0
 24 25  1  0
 23  3  1  0
 21 10  1  0
 20 15  1  0
  1 26  1  0
  1 27  1  0
  1 28  1  0
  4 29  1  0
  5 30  1  0
  6 31  1  0
 11 32  1  0
 11 33  1  0
 14 34  1  0
 16 35  1  0
 17 36  1  0
 18 37  1  0
 19 38  1  0
 25 39  1  0
 25 40  1  0
 25 41  1  0
M  END
>  <UniqueID>  (73) 
65

>  <SMILES>  (73) 
COc1cccc(C(=O)N2CC(=O)Nc3ccccc3C2=O)c1OC

>  <Energy>  (73) 
68.28845493191928

>  <Genealogy>  (73) 
COc1cccc(C(=O)N2CC(=O)Nc3ccccc3C2=O)c1OC (3D coordinates assigned)
COc1cccc(C(=O)N2CC(=O)Nc3ccccc3C2=O)c1OC (nonaromatic ring conformer: 68.28845493191928 kcal/mol)

>  <smiles>  (73) 
COc1cccc(C(=O)N2CC(=O)Nc3ccccc3C2=O)c1OC

>  <score_type>  (73) 
oracle

>  <origin>  (73) 
adg

>  <m_score__min__energy>  (73) 
-5.7400000000000002

>  <m_primary>  (73) 
energy

$$$$
73:0
     RDKit          3D

 51 53  0  0  0  0  0  0  0  0999 V2000
   58.9940   23.9780   45.6250 C   0  0  0  0  0  0  0  0  0  0  0  0
   57.8640   25.0100   45.6450 C   0  0  1  0  0  0  0  0  0  0  0  0
   56.8230   24.5890   46.5910 N   0  0  0  0  0  0  0  0  0  0  0  0
   55.2550   24.5510   45.8410 S   0  0  0  0  0  0  0  0  0  0  0  0
   54.2970   23.7810   46.7080 O   0  0  0  0  0  0  0  0  0  0  0  0
   54.7400   25.9500   45.6460 O   0  0  0  0  0  0  0  0  0  0  0  0
   55.3890   23.7480   44.2600 C   0  0  0  0  0  0  0  0  0  0  0  0
   55.8930   22.4720   44.4310 F   0  0  0  0  0  0  0  0  0  0  0  0
   54.1410   23.6720   43.6730 F   0  0  0  0  0  0  0  0  0  0  0  0
   56.2380   24.4700   43.4440 F   0  0  0  0  0  0  0  0  0  0  0  0
   58.4010   26.3620   46.0600 C   0  0  0  0  0  0  0  0  0  0  0  0
   58.4010   26.7370   47.4150 C   0  0  0  0  0  0  0  0  0  0  0  0
   58.8930   27.9870   47.8030 C   0  0  0  0  0  0  0  0  0  0  0  0
   59.3910   28.8770   46.8440 C   0  0  0  0  0  0  0  0  0  0  0  0
   60.0210   30.4400   47.3470 S   0  0  0  0  0  0  0  0  0  0  0  0
   59.8240   30.6490   48.8200 O   0  0  0  0  0  0  0  0  0  0  0  0
   61.5020   30.4170   47.0840 O   0  0  0  0  0  0  0  0  0  0  0  0
   59.2670   31.7790   46.4510 C   0  0  0  0  0  0  0  0  0  0  0  0
   58.8520   31.5160   45.1310 C   0  0  0  0  0  0  0  0  0  0  0  0
   58.2620   32.5090   44.3490 C   0  0  0  0  0  0  0  0  0  0  0  0
   57.7580   32.1500   42.7070 Cl  0  0  0  0  0  0  0  0  0  0  0  0
   58.0740   33.7840   44.8710 C   0  0  0  0  0  0  0  0  0  0  0  0
   58.4730   34.0700   46.1750 C   0  0  0  0  0  0  0  0  0  0  0  0
   59.0710   33.0870   46.9860 C   0  0  0  0  0  0  0  0  0  0  0  0
   59.5230   33.5670   48.6400 S   0  0  0  0  0  0  0  0  0  0  0  0
   59.2790   35.0380   48.8300 O   0  0  0  0  0  0  0  0  0  0  0  0
   58.6660   32.8300   49.6270 O   0  0  0  0  0  0  0  0  0  0  0  0
   61.2310   33.2900   48.9600 C   0  0  0  0  0  0  0  0  0  0  0  0
   62.1640   33.4130   47.9210 C   0  0  0  0  0  0  0  0  0  0  0  0
   63.5230   33.1920   48.1680 C   0  0  0  0  0  0  0  0  0  0  0  0
   63.9550   32.8560   49.4560 C   0  0  0  0  0  0  0  0  0  0  0  0
   65.6590   32.5750   49.7650 Cl  0  0  0  0  0  0  0  0  0  0  0  0
   63.0280   32.7470   50.4980 C   0  0  0  0  0  0  0  0  0  0  0  0
   61.6690   32.9680   50.2530 C   0  0  0  0  0  0  0  0  0  0  0  0
   59.3650   28.5230   45.4900 C   0  0  0  0  0  0  0  0  0  0  0  0
   58.8760   27.2740   45.1000 C   0  0  0  0  0  0  0  0  0  0  0  0
   59.2747   23.7216   46.6572 H   0  0  0  0  0  0  0  0  0  0  0  0
   58.6540   23.0721   45.1017 H   0  0  0  0  0  0  0  0  0  0  0  0
   59.8654   24.3985   45.1017 H   0  0  0  0  0  0  0  0  0  0  0  0
   57.4353   25.0851   44.6348 H   0  0  0  0  0  0  0  0  0  0  0  0
   58.0116   26.0429   48.1744 H   0  0  0  0  0  0  0  0  0  0  0  0
   58.8887   28.2720   48.8654 H   0  0  0  0  0  0  0  0  0  0  0  0
   58.9956   30.5102   44.7095 H   0  0  0  0  0  0  0  0  0  0  0  0
   57.6099   34.5675   44.2540 H   0  0  0  0  0  0  0  0  0  0  0  0
   58.3180   35.0818   46.5778 H   0  0  0  0  0  0  0  0  0  0  0  0
   61.8268   33.6838   46.9096 H   0  0  0  0  0  0  0  0  0  0  0  0
   64.2524   33.2824   47.3496 H   0  0  0  0  0  0  0  0  0  0  0  0
   63.3684   32.4872   51.5112 H   0  0  0  0  0  0  0  0  0  0  0  0
   60.9427   32.8892   51.0753 H   0  0  0  0  0  0  0  0  0  0  0  0
   59.7306   29.2303   44.7310 H   0  0  0  0  0  0  0  0  0  0  0  0
   58.8622   27.0016   44.0344 H   0  0  0  0  0  0  0  0  0  0  0  0
  1  2  1  0
  2  3  1  0
  3  4  1  0
  4  5  2  0
  4  6  2  0
  4  7  1  0
  7  8  1  0
  7  9  1  0
  7 10  1  0
  2 11  1  0
 11 12  2  0
 12 13  1  0
 13 14  2  0
 14 15  1  0
 15 16  2  0
 15 17  2  0
 15 18  1  0
 18 19  2  0
 19 20  1  0
 20 21  1  0
 20 22  2  0
 22 23  1  0
 23 24  2  0
 24 25  1  0
 25 26  2  0
 25 27  2  0
 25 28  1  0
 28 29  2  0
 29 30  1  0
 30 31  2  0
 31 32  1  0
 31 33  1  0
 33 34  2  0
 14 35  1  0
 35 36  2  0
 36 11  1  0
 24 18  1  0
 34 28  1  0
  1 37  1  0
  1 38  1  0
  1 39  1  0
  2 40  1  6
 12 41  1  0
 13 42  1  0
 19 43  1  0
 22 44  1  0
 23 45  1  0
 29 46  1  0
 30 47  1  0
 33 48  1  0
 34 49  1  0
 35 50  1  0
 36 51  1  0
M  CHG  1   3  -1
M  END
>  <UniqueID>  (74) 
66

>  <SMILES>  (74) 
C[C@@H]([N-]S(=O)(=O)C(F)(F)F)c1ccc(S(=O)(=O)c2cc(Cl)ccc2S(=O)(=O)c2ccc(Cl)cc2)cc1

>  <Energy>  (74) 
54.01983056253563

>  <Genealogy>  (74) 
CC([N-]S(=O)(=O)C(F)(F)F)c1ccc(S(=O)(=O)c2cc(Cl)ccc2S(=O)(=O)c2ccc(Cl)cc2)cc1 (protonated)
C[C@@H]([N-]S(=O)(=O)C(F)(F)F)c1ccc(S(=O)(=O)c2cc(Cl)ccc2S(=O)(=O)c2ccc(Cl)cc2)cc1 (chirality)
C[C@@H]([N-]S(=O)(=O)C(F)(F)F)c1ccc(S(=O)(=O)c2cc(Cl)ccc2S(=O)(=O)c2ccc(Cl)cc2)cc1 (3D coordinates assigned)
C[C@@H]([N-]S(=O)(=O)C(F)(F)F)c1ccc(S(=O)(=O)c2cc(Cl)ccc2S(=O)(=O)c2ccc(Cl)cc2)cc1 (optimized conformer: 54.01983056253563 kcal/mol)

>  <smiles>  (74) 
CC(NS(=O)(=O)C(F)(F)F)c1ccc(S(=O)(=O)c2cc(Cl)ccc2S(=O)(=O)c2ccc(Cl)cc2)cc1

>  <score_type>  (74) 
oracle

>  <origin>  (74) 
adg

>  <m_score__min__energy>  (74) 
-11.470000000000001

>  <m_primary>  (74) 
energy

$$$$
74:0
     RDKit          3D

 28 29  0  0  0  0  0  0  0  0999 V2000
   54.7670   26.3350   45.9420 O   0  0  0  0  0  0  0  0  0  0  0  0
   55.8760   25.7510   46.0800 C   0  0  0  0  0  0  0  0  0  0  0  0
   57.0170   26.1010   45.1810 C   0  0  0  0  0  0  0  0  0  0  0  0
   57.4810   27.4940   45.4650 C   0  0  0  0  0  0  0  0  0  0  0  0
   58.5100   27.8500   46.3270 C   0  0  0  0  0  0  0  0  0  0  0  0
   58.6710   29.2350   46.4490 C   0  0  0  0  0  0  0  0  0  0  0  0
   57.7640   29.9700   45.6970 C   0  0  0  0  0  0  0  0  0  0  0  0
   56.7580   28.8960   44.8820 S   0  0  0  0  0  0  0  0  0  0  0  0
   56.0670   24.7920   47.1250 N   0  0  0  0  0  0  0  0  0  0  0  0
   57.3210   24.0830   47.3530 C   0  0  0  0  0  0  0  0  0  0  0  0
   57.4470   22.9260   46.4010 C   0  0  0  0  0  0  0  0  0  0  0  0
   58.3820   22.9720   45.3570 C   0  0  0  0  0  0  0  0  0  0  0  0
   58.4760   21.9000   44.4670 C   0  0  0  0  0  0  0  0  0  0  0  0
   57.6620   20.8180   44.6100 N   0  0  0  0  0  0  0  0  0  0  0  0
   56.7430   20.7510   45.6100 C   0  0  0  0  0  0  0  0  0  0  0  0
   56.6160   21.8030   46.5220 C   0  0  0  0  0  0  0  0  0  0  0  0
   57.8457   25.3984   45.3533 H   0  0  0  0  0  0  0  0  0  0  0  0
   56.6858   26.0364   44.1341 H   0  0  0  0  0  0  0  0  0  0  0  0
   59.1349   27.1180   46.8597 H   0  0  0  0  0  0  0  0  0  0  0  0
   59.4433   29.6977   47.0811 H   0  0  0  0  0  0  0  0  0  0  0  0
   57.7122   31.0675   45.6434 H   0  0  0  0  0  0  0  0  0  0  0  0
   58.1623   24.7744   47.1972 H   0  0  0  0  0  0  0  0  0  0  0  0
   57.3334   23.7007   48.3843 H   0  0  0  0  0  0  0  0  0  0  0  0
   59.0376   23.8474   45.2398 H   0  0  0  0  0  0  0  0  0  0  0  0
   59.2098   21.9298   43.6481 H   0  0  0  0  0  0  0  0  0  0  0  0
   57.7430   20.0250   43.9370 H   0  0  0  0  0  0  0  0  0  0  0  0
   56.0969   19.8655   45.7018 H   0  0  0  0  0  0  0  0  0  0  0  0
   55.8698   21.7502   47.3285 H   0  0  0  0  0  0  0  0  0  0  0  0
  1  2  2  0
  2  3  1  0
  3  4  1  0
  4  5  2  0
  5  6  1  0
  6  7  2  0
  7  8  1  0
  2  9  1  0
  9 10  1  0
 10 11  1  0
 11 12  2  0
 12 13  1  0
 13 14  2  0
 14 15  1  0
 15 16  2  0
  8  4  1  0
 16 11  1  0
  3 17  1  0
  3 18  1  0
  5 19  1  0
  6 20  1  0
  7 21  1  0
 10 22  1  0
 10 23  1  0
 12 24  1  0
 13 25  1  0
 14 26  1  0
 15 27  1  0
 16 28  1  0
M  CHG  2   9  -1  14   1
M  END
>  <UniqueID>  (75) 
67

>  <SMILES>  (75) 
O=C(Cc1cccs1)[N-]Cc1cc[nH+]cc1

>  <Energy>  (75) 
49.023100160793305

>  <Genealogy>  (75) 
O=C(Cc1cccs1)[N-]Cc1cc[nH+]cc1 (protonated)
O=C(Cc1cccs1)[N-]Cc1cc[nH+]cc1 (3D coordinates assigned)
O=C(Cc1cccs1)[N-]Cc1cc[nH+]cc1 (optimized conformer: 49.023100160793305 kcal/mol)

>  <smiles>  (75) 
O=C(Cc1cccs1)NCc1ccncc1

>  <score_type>  (75) 
oracle

>  <origin>  (75) 
adg

>  <m_score__min__energy>  (75) 
-6.6100000000000003

>  <m_primary>  (75) 
energy

$$$$
75:0
     RDKit          3D

 47 49  0  0  0  0  0  0  0  0999 V2000
   58.9250   30.1240   47.5580 C   0  0  0  0  0  0  0  0  0  0  0  0
   58.6190   31.4800   47.8620 O   0  0  0  0  0  0  0  0  0  0  0  0
   58.5120   32.5070   46.9080 C   0  0  0  0  0  0  0  0  0  0  0  0
   57.9490   32.2820   45.6350 C   0  0  0  0  0  0  0  0  0  0  0  0
   57.8720   33.3180   44.7020 C   0  0  0  0  0  0  0  0  0  0  0  0
   58.3580   34.5870   45.0210 C   0  0  0  0  0  0  0  0  0  0  0  0
   58.9170   34.8250   46.2780 C   0  0  0  0  0  0  0  0  0  0  0  0
   58.9830   33.7980   47.2350 C   0  0  0  0  0  0  0  0  0  0  0  0
   59.6200   34.0730   48.5720 C   0  0  0  0  0  0  0  0  0  0  0  0
   60.7640   33.1790   48.7660 N   0  0  0  0  0  0  0  0  0  0  0  0
   60.8620   32.7040   50.4340 S   0  0  0  0  0  0  0  0  0  0  0  0
   60.9990   33.9280   51.2930 O   0  0  0  0  0  0  0  0  0  0  0  0
   62.0680   31.8300   50.6430 O   0  0  0  0  0  0  0  0  0  0  0  0
   59.3950   31.8450   50.8960 C   0  0  0  0  0  0  0  0  0  0  0  0
   58.2510   32.5730   51.2500 C   0  0  0  0  0  0  0  0  0  0  0  0
   57.0750   31.9070   51.6060 C   0  0  0  0  0  0  0  0  0  0  0  0
   57.0350   30.5010   51.6220 C   0  0  0  0  0  0  0  0  0  0  0  0
   55.8470   29.7840   51.9880 N   0  0  0  0  0  0  0  0  0  0  0  0
   54.9770   30.0970   53.0840 C   0  0  0  0  0  0  0  0  0  0  0  0
   55.4820   30.4740   54.1730 O   0  0  0  0  0  0  0  0  0  0  0  0
   53.5500   29.9590   52.9880 N   0  0  0  0  0  0  0  0  0  0  0  0
   52.7010   30.8340   52.5230 C   0  0  0  0  0  0  0  0  0  0  0  0
   51.7190   31.3350   53.3870 C   0  0  0  0  0  0  0  0  0  0  0  0
   50.7900   32.2670   52.9170 C   0  0  0  0  0  0  0  0  0  0  0  0
   50.8470   32.6980   51.6300 N   0  0  0  0  0  0  0  0  0  0  0  0
   51.7980   32.2480   50.7710 C   0  0  0  0  0  0  0  0  0  0  0  0
   52.7470   31.3160   51.1980 C   0  0  0  0  0  0  0  0  0  0  0  0
   58.1690   29.7780   51.2370 C   0  0  0  0  0  0  0  0  0  0  0  0
   59.3470   30.4440   50.8830 C   0  0  0  0  0  0  0  0  0  0  0  0
   59.0526   29.5585   48.4928 H   0  0  0  0  0  0  0  0  0  0  0  0
   58.1033   29.6849   46.9731 H   0  0  0  0  0  0  0  0  0  0  0  0
   59.8556   30.0804   46.9731 H   0  0  0  0  0  0  0  0  0  0  0  0
   57.5678   31.2834   45.3751 H   0  0  0  0  0  0  0  0  0  0  0  0
   57.4272   33.1336   43.7130 H   0  0  0  0  0  0  0  0  0  0  0  0
   58.3006   35.3997   44.2819 H   0  0  0  0  0  0  0  0  0  0  0  0
   59.3087   35.8238   46.5211 H   0  0  0  0  0  0  0  0  0  0  0  0
   59.9623   35.1178   48.6062 H   0  0  0  0  0  0  0  0  0  0  0  0
   58.8826   33.9001   49.3697 H   0  0  0  0  0  0  0  0  0  0  0  0
   60.5930   32.3060   48.2140 H   0  0  0  0  0  0  0  0  0  0  0  0
   58.2788   33.6726   51.2477 H   0  0  0  0  0  0  0  0  0  0  0  0
   56.1779   32.4841   51.8745 H   0  0  0  0  0  0  0  0  0  0  0  0
   51.6792   30.9957   54.4326 H   0  0  0  0  0  0  0  0  0  0  0  0
   50.0107   32.6526   53.5908 H   0  0  0  0  0  0  0  0  0  0  0  0
   51.8210   32.6187   49.7356 H   0  0  0  0  0  0  0  0  0  0  0  0
   53.5246   30.9605   50.5060 H   0  0  0  0  0  0  0  0  0  0  0  0
   58.1341   28.6788   51.2125 H   0  0  0  0  0  0  0  0  0  0  0  0
   60.2378   29.8671   50.5937 H   0  0  0  0  0  0  0  0  0  0  0  0
  1  2  1  0
  2  3  1  0
  3  4  2  0
  4  5  1  0
  5  6  2  0
  6  7  1  0
  7  8  2  0
  8  9  1  0
  9 10  1  0
 10 11  1  0
 11 12  2  0
 11 13  2  0
 11 14  1  0
 14 15  2  0
 15 16  1  0
 16 17  2  0
 17 18  1  0
 18 19  1  0
 19 20  2  0
 19 21  1  0
 21 22  2  3
 22 23  1  0
 23 24  2  0
 24 25  1  0
 25 26  1  0
 26 27  2  0
 17 28  1  0
 28 29  2  0
  8  3  1  0
 29 14  1  0
 27 22  1  0
  1 30  1  0
  1 31  1  0
  1 32  1  0
  4 33  1  0
  5 34  1  0
  6 35  1  0
  7 36  1  0
  9 37  1  0
  9 38  1  0
 10 39  1  0
 15 40  1  0
 16 41  1  0
 23 42  1  0
 24 43  1  0
 26 44  1  0
 27 45  1  0
 28 46  1  0
 29 47  1  0
M  CHG  2  18  -1  25  -1
M  END
>  <UniqueID>  (76) 
68

>  <SMILES>  (76) 
COc1ccccc1CNS(=O)(=O)c1ccc([N-]C(=O)N=c2cc[n-]cc2)cc1

>  <Energy>  (76) 
58.589995704371844

>  <Genealogy>  (76) 
COc1ccccc1CNS(=O)(=O)c1ccc([N-]C(=O)N=c2cc[n-]cc2)cc1 (protonated)
COc1ccccc1CNS(=O)(=O)c1ccc([N-]C(=O)N=c2cc[n-]cc2)cc1 (3D coordinates assigned)
COc1ccccc1CNS(=O)(=O)c1ccc([N-]C(=O)N=c2cc[n-]cc2)cc1 (optimized conformer: 58.589995704371844 kcal/mol)

>  <smiles>  (76) 
COc1ccccc1CNS(=O)(=O)c1ccc(NC(=O)N=c2cc[nH]cc2)cc1

>  <score_type>  (76) 
oracle

>  <origin>  (76) 
adg

>  <m_score__min__energy>  (76) 
-11.81

>  <m_primary>  (76) 
energy

$$$$
76:0
     RDKit          3D

 66 70  0  0  0  0  0  0  0  0999 V2000
   63.5790   29.3830   51.2910 O   0  0  0  0  0  0  0  0  0  0  0  0
   64.2560   28.6480   52.0770 C   0  0  0  0  0  0  0  0  0  0  0  0
   63.5800   27.3680   52.4540 C   0  0  0  0  0  0  0  0  0  0  0  0
   62.1730   27.2560   52.4250 C   0  0  0  0  0  0  0  0  0  0  0  0
   61.5680   25.9810   52.3100 C   0  0  0  0  0  0  0  0  0  0  0  0
   62.3680   24.8370   52.3120 C   0  0  0  0  0  0  0  0  0  0  0  0
   63.7590   24.9460   52.3620 C   0  0  0  0  0  0  0  0  0  0  0  0
   64.3700   26.2050   52.4700 C   0  0  0  0  0  0  0  0  0  0  0  0
   65.7270   26.2830   52.4220 F   0  0  0  0  0  0  0  0  0  0  0  0
   65.5380   29.1080   52.6140 N   0  0  2  0  0  0  0  0  0  0  0  0
   65.4950   30.2920   53.4950 C   0  0  0  0  0  0  0  0  0  0  0  0
   65.3990   31.6210   52.7360 C   0  0  0  0  0  0  0  0  0  0  0  0
   65.8340   31.5240   51.2690 C   0  0  1  0  0  0  0  0  0  0  0  0
   66.1740   32.9210   50.7610 C   0  0  0  0  0  0  0  0  0  0  0  0
   65.6550   33.0850   49.4350 O   0  0  0  0  0  0  0  0  0  0  0  0
   64.3190   33.3420   49.1090 C   0  0  0  0  0  0  0  0  0  0  0  0
   63.9090   33.3120   47.7550 C   0  0  0  0  0  0  0  0  0  0  0  0
   62.6580   33.7360   47.4240 N   0  0  0  0  0  0  0  0  0  0  0  0
   61.7530   34.0850   48.3710 C   0  0  0  0  0  0  0  0  0  0  0  0
   60.5670   34.5170   48.0460 N   0  0  0  0  0  0  0  0  0  0  0  0
   59.6050   33.6450   47.4210 C   0  0  0  0  0  0  0  0  0  0  0  0
   59.1160   33.9680   46.1460 C   0  0  0  0  0  0  0  0  0  0  0  0
   58.4000   33.0170   45.4170 C   0  0  0  0  0  0  0  0  0  0  0  0
   58.1880   31.7220   45.9380 C   0  0  0  0  0  0  0  0  0  0  0  0
   57.5620   30.6840   45.1250 N   0  0  0  0  0  0  0  0  0  0  0  0
   57.9580   29.2590   45.2640 C   0  0  0  0  0  0  0  0  0  0  0  0
   56.7160   28.3250   45.2410 C   0  0  0  0  0  0  0  0  0  0  0  0
   55.5110   28.9750   44.8780 O   0  0  0  0  0  0  0  0  0  0  0  0
   55.7340   29.7490   43.7100 C   0  0  0  0  0  0  0  0  0  0  0  0
   56.5190   31.0020   44.1200 C   0  0  0  0  0  0  0  0  0  0  0  0
   58.5990   31.4600   47.2730 C   0  0  0  0  0  0  0  0  0  0  0  0
   59.2860   32.4140   48.0010 C   0  0  0  0  0  0  0  0  0  0  0  0
   62.1340   34.1550   49.6840 N   0  0  0  0  0  0  0  0  0  0  0  0
   63.3750   33.7170   50.0690 C   0  0  0  0  0  0  0  0  0  0  0  0
   66.9960   30.5180   51.0810 C   0  0  0  0  0  0  0  0  0  0  0  0
   66.6700   29.1090   51.6330 C   0  0  0  0  0  0  0  0  0  0  0  0
   61.5474   28.1583   52.4917 H   0  0  0  0  0  0  0  0  0  0  0  0
   60.4753   25.8926   52.2197 H   0  0  0  0  0  0  0  0  0  0  0  0
   61.8991   23.8427   52.2739 H   0  0  0  0  0  0  0  0  0  0  0  0
   64.3801   24.0393   52.3165 H   0  0  0  0  0  0  0  0  0  0  0  0
   65.7640   28.3410   53.3010 H   0  0  0  0  0  0  0  0  0  0  0  0
   64.6181   30.2037   54.1532 H   0  0  0  0  0  0  0  0  0  0  0  0
   66.4407   30.3097   54.0566 H   0  0  0  0  0  0  0  0  0  0  0  0
   64.3544   31.9642   52.7668 H   0  0  0  0  0  0  0  0  0  0  0  0
   66.0857   32.3243   53.2298 H   0  0  0  0  0  0  0  0  0  0  0  0
   65.0046   31.1275   50.6650 H   0  0  0  0  0  0  0  0  0  0  0  0
   65.7248   33.6729   51.4265 H   0  0  0  0  0  0  0  0  0  0  0  0
   67.2662   33.0509   50.7467 H   0  0  0  0  0  0  0  0  0  0  0  0
   64.5955   32.9490   46.9759 H   0  0  0  0  0  0  0  0  0  0  0  0
   59.2963   34.9671   45.7225 H   0  0  0  0  0  0  0  0  0  0  0  0
   57.9972   33.2789   44.4275 H   0  0  0  0  0  0  0  0  0  0  0  0
   58.6251   28.9893   44.4320 H   0  0  0  0  0  0  0  0  0  0  0  0
   58.4706   29.1328   46.2291 H   0  0  0  0  0  0  0  0  0  0  0  0
   56.9043   27.5174   44.5183 H   0  0  0  0  0  0  0  0  0  0  0  0
   56.5794   27.9530   46.2672 H   0  0  0  0  0  0  0  0  0  0  0  0
   56.3147   29.1659   42.9800 H   0  0  0  0  0  0  0  0  0  0  0  0
   54.7766   30.0300   43.2469 H   0  0  0  0  0  0  0  0  0  0  0  0
   57.0003   31.4302   43.2283 H   0  0  0  0  0  0  0  0  0  0  0  0
   55.8154   31.7196   44.5673 H   0  0  0  0  0  0  0  0  0  0  0  0
   58.3680   30.4875   47.7323 H   0  0  0  0  0  0  0  0  0  0  0  0
   59.5822   32.2036   49.0393 H   0  0  0  0  0  0  0  0  0  0  0  0
   63.6286   33.6605   51.1379 H   0  0  0  0  0  0  0  0  0  0  0  0
   67.2148   30.4317   50.0064 H   0  0  0  0  0  0  0  0  0  0  0  0
   67.8586   30.9016   51.6456 H   0  0  0  0  0  0  0  0  0  0  0  0
   66.4022   28.4561   50.7892 H   0  0  0  0  0  0  0  0  0  0  0  0
   67.5640   28.7508   52.1644 H   0  0  0  0  0  0  0  0  0  0  0  0
  1  2  2  0
  2  3  1  0
  3  4  2  0
  4  5  1  0
  5  6  2  0
  6  7  1  0
  7  8  2  0
  8  9  1  0
  2 10  1  0
 10 11  1  0
 11 12  1  0
 12 13  1  0
 13 14  1  0
 14 15  1  0
 15 16  1  0
 16 17  1  0
 17 18  2  0
 18 19  1  0
 19 20  2  3
 20 21  1  0
 21 22  2  0
 22 23  1  0
 23 24  2  0
 24 25  1  0
 25 26  1  0
 26 27  1  0
 27 28  1  0
 28 29  1  0
 29 30  1  0
 24 31  1  0
 31 32  2  0
 19 33  1  0
 33 34  1  0
 13 35  1  0
 35 36  1  0
  8  3  1  0
 36 10  1  0
 34 16  2  0
 32 21  1  0
 30 25  1  0
  4 37  1  0
  5 38  1  0
  6 39  1  0
  7 40  1  0
 10 41  1  1
 11 42  1  0
 11 43  1  0
 12 44  1  0
 12 45  1  0
 13 46  1  6
 14 47  1  0
 14 48  1  0
 17 49  1  0
 22 50  1  0
 23 51  1  0
 26 52  1  0
 26 53  1  0
 27 54  1  0
 27 55  1  0
 29 56  1  0
 29 57  1  0
 30 58  1  0
 30 59  1  0
 31 60  1  0
 32 61  1  0
 34 62  1  0
 35 63  1  0
 35 64  1  0
 36 65  1  0
 36 66  1  0
M  CHG  2  10   1  33  -1
M  END
>  <UniqueID>  (77) 
69

>  <SMILES>  (77) 
O=C(c1ccccc1F)[NH+]1CCC(COc2cnc(=Nc3ccc(N4CCOCC4)cc3)[n-]c2)CC1

>  <Energy>  (77) 
129.49203367426125

>  <Genealogy>  (77) 
O=C(c1ccccc1F)[NH+]1CCC(COc2cnc(=Nc3ccc(N4CCOCC4)cc3)[n-]c2)CC1 (protonated)
O=C(c1ccccc1F)[NH+]1CCC(COc2cnc(=Nc3ccc(N4CCOCC4)cc3)[n-]c2)CC1 (3D coordinates assigned)
O=C(c1ccccc1F)[NH+]1CCC(COc2cnc(=Nc3ccc(N4CCOCC4)cc3)[n-]c2)CC1 (nonaromatic ring conformer: 129.49203367426125 kcal/mol)

>  <smiles>  (77) 
O=C(c1ccccc1F)N1CCC(COc2cnc(=Nc3ccc(N4CCOCC4)cc3)[nH]c2)CC1

>  <score_type>  (77) 
oracle

>  <origin>  (77) 
adg

>  <m_score__min__energy>  (77) 
-8.2799999999999994

>  <m_primary>  (77) 
energy

$$$$
77:0
     RDKit          3D

 64 69  0  0  0  0  0  0  0  0999 V2000
   58.4690   33.4630   45.1180 C   0  0  0  0  0  0  0  0  0  0  0  0
   58.2260   33.1870   46.4920 O   0  0  0  0  0  0  0  0  0  0  0  0
   58.8360   32.1140   47.1420 C   0  0  0  0  0  0  0  0  0  0  0  0
   59.6220   32.2660   48.3000 C   0  0  0  0  0  0  0  0  0  0  0  0
   60.2250   31.2010   48.9170 C   0  0  0  0  0  0  0  0  0  0  0  0
   60.0690   29.9040   48.4110 C   0  0  0  0  0  0  0  0  0  0  0  0
   60.6110   28.9150   48.9730 O   0  0  0  0  0  0  0  0  0  0  0  0
   59.2970   29.7610   47.2930 N   0  0  0  0  0  0  0  0  0  0  0  0
   58.6900   30.8050   46.6690 C   0  0  0  0  0  0  0  0  0  0  0  0
   57.9920   30.4320   45.6100 O   0  0  0  0  0  0  0  0  0  0  0  0
   58.1370   29.1260   45.5370 C   0  0  0  0  0  0  0  0  0  0  0  0
   57.6010   28.2520   44.5970 C   0  0  0  0  0  0  0  0  0  0  0  0
   57.8950   26.8730   44.7300 C   0  0  0  0  0  0  0  0  0  0  0  0
   57.3960   25.9140   43.7820 N   0  0  0  0  0  0  0  0  0  0  0  0
   56.9630   24.5850   44.1210 C   0  0  0  0  0  0  0  0  0  0  0  0
   56.7270   23.6570   43.1000 C   0  0  0  0  0  0  0  0  0  0  0  0
   56.3330   22.3550   43.4070 C   0  0  0  0  0  0  0  0  0  0  0  0
   56.1820   21.9600   44.7380 C   0  0  0  0  0  0  0  0  0  0  0  0
   56.4370   22.8660   45.7860 C   0  0  0  0  0  0  0  0  0  0  0  0
   56.2970   22.4600   47.2100 C   0  0  0  0  0  0  0  0  0  0  0  0
   55.0160   22.6490   47.9660 C   0  0  0  0  0  0  0  0  0  0  0  0
   57.2780   21.9450   47.8140 O   0  0  0  0  0  0  0  0  0  0  0  0
   56.8370   24.1780   45.4630 C   0  0  0  0  0  0  0  0  0  0  0  0
   58.7430   26.4330   45.7780 C   0  0  0  0  0  0  0  0  0  0  0  0
   59.2690   27.3440   46.7140 C   0  0  0  0  0  0  0  0  0  0  0  0
   58.9370   28.6900   46.5620 C   0  0  0  0  0  0  0  0  0  0  0  0
   60.9550   31.6450   50.1430 C   0  0  0  0  0  0  0  0  0  0  0  0
   60.7710   33.1280   50.2310 N   0  0  1  0  0  0  0  0  0  0  0  0
   62.0690   33.8610   50.1380 C   0  0  0  0  0  0  0  0  0  0  0  0
   63.1790   33.2010   51.0100 C   0  0  0  0  0  0  0  0  0  0  0  0
   64.5830   33.5930   50.5380 C   0  0  0  0  0  0  0  0  0  0  0  0
   64.8590   33.0900   49.1080 C   0  0  0  0  0  0  0  0  0  0  0  0
   63.5830   32.9540   48.2580 C   0  0  0  0  0  0  0  0  0  0  0  0
   62.5290   33.9980   48.6480 C   0  0  0  0  0  0  0  0  0  0  0  0
   59.8870   33.4170   49.1240 C   0  0  0  0  0  0  0  0  0  0  0  0
   59.2770   34.5140   48.9970 O   0  0  0  0  0  0  0  0  0  0  0  0
   59.1937   34.2861   45.0319 H   0  0  0  0  0  0  0  0  0  0  0  0
   58.8747   32.5647   44.6297 H   0  0  0  0  0  0  0  0  0  0  0  0
   57.5265   33.7517   44.6297 H   0  0  0  0  0  0  0  0  0  0  0  0
   56.9685   28.6204   43.7759 H   0  0  0  0  0  0  0  0  0  0  0  0
   57.3440   26.2020   42.7780 H   0  0  0  0  0  0  0  0  0  0  0  0
   56.8531   23.9566   42.0491 H   0  0  0  0  0  0  0  0  0  0  0  0
   56.1403   21.6359   42.5972 H   0  0  0  0  0  0  0  0  0  0  0  0
   55.8615   20.9336   44.9697 H   0  0  0  0  0  0  0  0  0  0  0  0
   55.2200   22.6189   49.0465 H   0  0  0  0  0  0  0  0  0  0  0  0
   54.5752   23.6219   47.7031 H   0  0  0  0  0  0  0  0  0  0  0  0
   54.3130   21.8449   47.7031 H   0  0  0  0  0  0  0  0  0  0  0  0
   57.0537   24.8936   46.2699 H   0  0  0  0  0  0  0  0  0  0  0  0
   58.9934   25.3651   45.8609 H   0  0  0  0  0  0  0  0  0  0  0  0
   59.9182   27.0063   47.5353 H   0  0  0  0  0  0  0  0  0  0  0  0
   60.5345   31.1560   51.0341 H   0  0  0  0  0  0  0  0  0  0  0  0
   62.0208   31.3779   50.0910 H   0  0  0  0  0  0  0  0  0  0  0  0
   60.2810   33.3720   51.1250 H   0  0  0  0  0  0  0  0  0  0  0  0
   61.9015   34.8707   50.5410 H   0  0  0  0  0  0  0  0  0  0  0  0
   63.0511   33.5245   52.0536 H   0  0  0  0  0  0  0  0  0  0  0  0
   63.0806   32.1092   50.9191 H   0  0  0  0  0  0  0  0  0  0  0  0
   64.6727   34.6892   50.5548 H   0  0  0  0  0  0  0  0  0  0  0  0
   65.3164   33.1297   51.2144 H   0  0  0  0  0  0  0  0  0  0  0  0
   65.5360   33.8008   48.6116 H   0  0  0  0  0  0  0  0  0  0  0  0
   65.3041   32.0877   49.1935 H   0  0  0  0  0  0  0  0  0  0  0  0
   63.8443   33.0896   47.1981 H   0  0  0  0  0  0  0  0  0  0  0  0
   63.1581   31.9547   48.4339 H   0  0  0  0  0  0  0  0  0  0  0  0
   62.9558   35.0012   48.5018 H   0  0  0  0  0  0  0  0  0  0  0  0
   61.6473   33.8356   48.0107 H   0  0  0  0  0  0  0  0  0  0  0  0
  1  2  1  0
  2  3  1  0
  3  4  1  0
  4  5  2  0
  5  6  1  0
  6  7  2  0
  6  8  1  0
  8  9  1  0
  9 10  1  0
 10 11  1  0
 11 12  2  0
 12 13  1  0
 13 14  1  0
 14 15  1  0
 15 16  2  0
 16 17  1  0
 17 18  2  0
 18 19  1  0
 19 20  1  0
 20 21  1  0
 20 22  2  0
 19 23  2  0
 13 24  2  0
 24 25  1  0
 25 26  2  0
  5 27  1  0
 27 28  1  0
 28 29  1  0
 29 30  1  0
 30 31  1  0
 31 32  1  0
 32 33  1  0
 33 34  1  0
 28 35  1  0
 35 36  2  0
  9  3  2  0
 26 11  1  0
 34 29  1  0
 35  4  1  0
 26  8  1  0
 23 15  1  0
  1 37  1  0
  1 38  1  0
  1 39  1  0
 12 40  1  0
 14 41  1  0
 16 42  1  0
 17 43  1  0
 18 44  1  0
 21 45  1  0
 21 46  1  0
 21 47  1  0
 23 48  1  0
 24 49  1  0
 25 50  1  0
 27 51  1  0
 27 52  1  0
 28 53  1  1
 29 54  1  0
 30 55  1  0
 30 56  1  0
 31 57  1  0
 31 58  1  0
 32 59  1  0
 32 60  1  0
 33 61  1  0
 33 62  1  0
 34 63  1  0
 34 64  1  0
M  CHG  1  28   1
M  END
>  <UniqueID>  (78) 
70

>  <SMILES>  (78) 
COc1c2c(c(=O)n3c1oc1cc(Nc4cccc(C(C)=O)c4)ccc13)C[N@@H+](C1CCCCC1)C2=O

>  <Energy>  (78) 
155.9874551509065

>  <Genealogy>  (78) 
COc1c2c(c(=O)n3c1oc1cc(Nc4cccc(C(C)=O)c4)ccc13)C[NH+](C1CCCCC1)C2=O (protonated)
COc1c2c(c(=O)n3c1oc1cc(Nc4cccc(C(C)=O)c4)ccc13)C[N@@H+](C1CCCCC1)C2=O (chirality)
COc1c2c(c(=O)n3c1oc1cc(Nc4cccc(C(C)=O)c4)ccc13)C[N@@H+](C1CCCCC1)C2=O (3D coordinates assigned)
COc1c2c(c(=O)n3c1oc1cc(Nc4cccc(C(C)=O)c4)ccc13)C[N@@H+](C1CCCCC1)C2=O (nonaromatic ring conformer: 155.9874551509065 kcal/mol)

>  <smiles>  (78) 
COc1c2c(c(=O)n3c1oc1cc(Nc4cccc(C(C)=O)c4)ccc13)CN(C1CCCCC1)C2=O

>  <score_type>  (78) 
oracle

>  <origin>  (78) 
adg

>  <m_score__min__energy>  (78) 
-8.4299999999999997

>  <m_primary>  (78) 
energy

$$$$
78:0
     RDKit          3D

 45 48  0  0  0  0  0  0  0  0999 V2000
   59.8417   26.8987   47.2476 H   0  0  0  0  0  0  0  0  0  0  0  0
   58.9420   27.3360   46.7900 C   0  0  0  0  0  0  0  0  0  0  0  0
   58.9510   28.6740   46.4010 C   0  0  0  0  0  0  0  0  0  0  0  0
   60.1580   29.4390   46.5610 N   0  0  0  0  0  0  0  0  0  0  0  0
   60.4380   30.2880   47.5100 C   0  0  0  0  0  0  0  0  0  0  0  0
   61.1740   29.9420   48.6720 C   0  0  0  0  0  0  0  0  0  0  0  0
   61.5280   28.9098   48.8109 H   0  0  0  0  0  0  0  0  0  0  0  0
   61.4530   30.9210   49.6510 C   0  0  0  0  0  0  0  0  0  0  0  0
   62.0176   30.6422   50.5530 H   0  0  0  0  0  0  0  0  0  0  0  0
   61.0300   32.2100   49.4910 N   0  0  0  0  0  0  0  0  0  0  0  0
   61.2430   32.9280   50.2190 H   0  0  0  0  0  0  0  0  0  0  0  0
   60.3430   32.5470   48.3710 C   0  0  0  0  0  0  0  0  0  0  0  0
   60.0480   31.6250   47.3890 C   0  0  0  0  0  0  0  0  0  0  0  0
   59.3510   32.3250   46.4220 C   0  0  0  0  0  0  0  0  0  0  0  0
   58.7920   31.9370   45.2030 C   0  0  0  0  0  0  0  0  0  0  0  0
   58.8635   30.8974   44.8506 H   0  0  0  0  0  0  0  0  0  0  0  0
   58.1350   32.9180   44.4410 C   0  0  0  0  0  0  0  0  0  0  0  0
   57.6830   32.6464   43.4756 H   0  0  0  0  0  0  0  0  0  0  0  0
   58.0500   34.2500   44.9040 C   0  0  0  0  0  0  0  0  0  0  0  0
   57.5328   35.0067   44.2958 H   0  0  0  0  0  0  0  0  0  0  0  0
   58.6210   34.6170   46.1360 C   0  0  0  0  0  0  0  0  0  0  0  0
   58.5592   35.6519   46.5037 H   0  0  0  0  0  0  0  0  0  0  0  0
   59.2680   33.6280   46.8770 C   0  0  0  0  0  0  0  0  0  0  0  0
   59.8740   33.7780   48.0730 N   0  0  0  0  0  0  0  0  0  0  0  0
   59.9610   34.6490   48.6430 H   0  0  0  0  0  0  0  0  0  0  0  0
   57.8320   29.2160   45.7590 C   0  0  0  0  0  0  0  0  0  0  0  0
   57.8568   30.2568   45.4038 H   0  0  0  0  0  0  0  0  0  0  0  0
   56.6770   28.4400   45.5650 C   0  0  0  0  0  0  0  0  0  0  0  0
   55.5290   28.9630   44.9470 O   0  0  0  0  0  0  0  0  0  0  0  0
   55.5370   29.7440   43.7560 C   0  0  0  0  0  0  0  0  0  0  0  0
   55.5479   30.8123   44.0181 H   0  0  0  0  0  0  0  0  0  0  0  0
   56.4327   29.5023   43.1650 H   0  0  0  0  0  0  0  0  0  0  0  0
   54.6365   29.5207   43.1650 H   0  0  0  0  0  0  0  0  0  0  0  0
   56.6490   27.1010   45.9920 C   0  0  0  0  0  0  0  0  0  0  0  0
   55.4520   26.3920   45.7690 O   0  0  0  0  0  0  0  0  0  0  0  0
   55.3200   24.9880   45.5840 C   0  0  0  0  0  0  0  0  0  0  0  0
   55.2733   24.4917   46.5646 H   0  0  0  0  0  0  0  0  0  0  0  0
   54.3981   24.7773   45.0222 H   0  0  0  0  0  0  0  0  0  0  0  0
   56.1865   24.6091   45.0222 H   0  0  0  0  0  0  0  0  0  0  0  0
   57.7980   26.5350   46.6060 C   0  0  0  0  0  0  0  0  0  0  0  0
   57.7850   25.1930   47.0170 O   0  0  0  0  0  0  0  0  0  0  0  0
   58.3050   24.1020   46.2650 C   0  0  0  0  0  0  0  0  0  0  0  0
   58.6747   23.3264   46.9518 H   0  0  0  0  0  0  0  0  0  0  0  0
   57.5103   23.6818   45.6310 H   0  0  0  0  0  0  0  0  0  0  0  0
   59.1318   24.4547   45.6310 H   0  0  0  0  0  0  0  0  0  0  0  0
  1  2  1  0
  2  3  2  0
  3  4  1  0
  4  5  2  0
  5  6  1  0
  6  7  1  0
  6  8  2  0
  8  9  1  0
  8 10  1  0
 10 11  1  0
 10 12  1  0
 12 13  2  0
 13 14  1  0
 14 15  2  0
 15 16  1  0
 15 17  1  0
 17 18  1  0
 17 19  2  0
 19 20  1  0
 19 21  1  0
 21 22  1  0
 21 23  2  0
 23 24  1  0
 24 25  1  0
  3 26  1  0
 26 27  1  0
 26 28  2  0
 28 29  1  0
 29 30  1  0
 30 31  1  0
 30 32  1  0
 30 33  1  0
 28 34  1  0
 34 35  1  0
 35 36  1  0
 36 37  1  0
 36 38  1  0
 36 39  1  0
 34 40  2  0
 40 41  1  0
 41 42  1  0
 42 43  1  0
 42 44  1  0
 42 45  1  0
 40  2  1  0
 13  5  1  0
 23 14  1  0
 24 12  1  0
M  END
>  <UniqueID>  (79) 
71

>  <SMILES>  (79) 
COc1cc(/N=c2\cc[nH]c3[nH]c4ccccc4c23)cc(OC)c1OC

>  <Energy>  (79) 
101.84009640379864

>  <Genealogy>  (79) 
COc1cc(/N=c2\cc[nH]c3[nH]c4ccccc4c23)cc(OC)c1OC (cis-trans isomerization)
COc1cc(/N=c2\cc[nH]c3[nH]c4ccccc4c23)cc(OC)c1OC (3D coordinates assigned)
COc1cc(/N=c2\cc[nH]c3[nH]c4ccccc4c23)cc(OC)c1OC (optimized conformer: 101.84009640379864 kcal/mol)

>  <smiles>  (79) 
COc1cc(N=c2cc[nH]c3[nH]c4ccccc4c23)cc(OC)c1OC

>  <score_type>  (79) 
oracle

>  <origin>  (79) 
adg

>  <m_score__min__energy>  (79) 
-7.3300000000000001

>  <m_primary>  (79) 
energy

$$$$
79:0
     RDKit          3D

 43 45  0  0  0  0  0  0  0  0999 V2000
   58.6657   33.3686   42.0235 H   0  0  0  0  0  0  0  0  0  0  0  0
   58.1430   32.6080   42.6220 C   0  0  0  0  0  0  0  0  0  0  0  0
   58.2370   32.6270   43.9770 N   0  0  0  0  0  0  0  0  0  0  0  0
   57.6390   31.7010   44.7760 C   0  0  0  0  0  0  0  0  0  0  0  0
   57.7130   31.9040   46.0640 N   0  0  0  0  0  0  0  0  0  0  0  0
   58.8110   31.6690   46.9970 C   0  0  0  0  0  0  0  0  0  0  0  0
   59.6362   32.3627   46.7781 H   0  0  0  0  0  0  0  0  0  0  0  0
   58.4651   31.8343   48.0280 H   0  0  0  0  0  0  0  0  0  0  0  0
   59.2880   30.2540   46.8420 C   0  0  0  0  0  0  0  0  0  0  0  0
   58.9770   29.2920   47.8140 C   0  0  0  0  0  0  0  0  0  0  0  0
   58.4056   29.5742   48.7106 H   0  0  0  0  0  0  0  0  0  0  0  0
   59.3990   27.9720   47.6340 C   0  0  0  0  0  0  0  0  0  0  0  0
   59.1691   27.2142   48.3975 H   0  0  0  0  0  0  0  0  0  0  0  0
   60.0930   27.6210   46.5180 N   0  0  0  0  0  0  0  0  0  0  0  0
   60.4000   26.6300   46.3970 H   0  0  0  0  0  0  0  0  0  0  0  0
   60.3920   28.5320   45.5520 C   0  0  0  0  0  0  0  0  0  0  0  0
   60.9514   28.2197   44.6579 H   0  0  0  0  0  0  0  0  0  0  0  0
   59.9900   29.8640   45.6930 C   0  0  0  0  0  0  0  0  0  0  0  0
   60.2227   30.5995   44.9089 H   0  0  0  0  0  0  0  0  0  0  0  0
   56.9190   30.6320   44.1590 C   0  0  0  0  0  0  0  0  0  0  0  0
   56.3840   29.4530   44.8700 C   0  0  0  0  0  0  0  0  0  0  0  0
   55.1390   29.3460   45.0210 O   0  0  0  0  0  0  0  0  0  0  0  0
   57.2370   28.4150   45.3760 N   0  0  0  0  0  0  0  0  0  0  0  0
   57.1590   27.0160   45.0690 C   0  0  0  0  0  0  0  0  0  0  0  0
   56.5410   26.1020   45.9340 C   0  0  0  0  0  0  0  0  0  0  0  0
   56.0977   26.4551   46.8768 H   0  0  0  0  0  0  0  0  0  0  0  0
   56.4850   24.7440   45.6050 C   0  0  0  0  0  0  0  0  0  0  0  0
   55.9845   24.0388   46.2849 H   0  0  0  0  0  0  0  0  0  0  0  0
   57.0630   24.2710   44.4120 C   0  0  0  0  0  0  0  0  0  0  0  0
   56.9920   22.8240   44.0720 C   0  0  0  0  0  0  0  0  0  0  0  0
   55.9900   22.3770   43.4500 O   0  0  0  0  0  0  0  0  0  0  0  0
   58.0830   21.8670   44.4470 C   0  0  0  0  0  0  0  0  0  0  0  0
   58.1548   21.8040   45.5428 H   0  0  0  0  0  0  0  0  0  0  0  0
   57.8551   20.8722   44.0367 H   0  0  0  0  0  0  0  0  0  0  0  0
   59.0397   22.2225   44.0367 H   0  0  0  0  0  0  0  0  0  0  0  0
   57.7120   25.1920   43.5660 C   0  0  0  0  0  0  0  0  0  0  0  0
   58.1801   24.8408   42.6346 H   0  0  0  0  0  0  0  0  0  0  0  0
   57.7660   26.5470   43.9000 C   0  0  0  0  0  0  0  0  0  0  0  0
   58.2906   27.2513   43.2377 H   0  0  0  0  0  0  0  0  0  0  0  0
   56.7720   30.6440   42.7620 C   0  0  0  0  0  0  0  0  0  0  0  0
   56.1653   29.8684   42.2718 H   0  0  0  0  0  0  0  0  0  0  0  0
   57.3860   31.6270   41.9920 C   0  0  0  0  0  0  0  0  0  0  0  0
   57.2737   31.6278   40.8977 H   0  0  0  0  0  0  0  0  0  0  0  0
  1  2  1  0
  2  3  1  0
  3  4  1  0
  4  5  2  0
  5  6  1  0
  6  7  1  0
  6  8  1  0
  6  9  1  0
  9 10  2  0
 10 11  1  0
 10 12  1  0
 12 13  1  0
 12 14  2  0
 14 15  1  0
 14 16  1  0
 16 17  1  0
 16 18  2  0
 18 19  1  0
  4 20  1  0
 20 21  1  0
 21 22  2  0
 21 23  1  0
 23 24  1  0
 24 25  2  0
 25 26  1  0
 25 27  1  0
 27 28  1  0
 27 29  2  0
 29 30  1  0
 30 31  2  0
 30 32  1  0
 32 33  1  0
 32 34  1  0
 32 35  1  0
 29 36  1  0
 36 37  1  0
 36 38  2  0
 38 39  1  0
 20 40  2  0
 40 41  1  0
 40 42  1  0
 42 43  1  0
 42  2  2  0
 18  9  1  0
 38 24  1  0
M  CHG  3   3  -1  14   1  23  -1
M  END
>  <UniqueID>  (80) 
72

>  <SMILES>  (80) 
CC(=O)c1ccc([N-]C(=O)c2ccc[n-]/c2=N/Cc2cc[nH+]cc2)cc1

>  <Energy>  (80) 
64.54428043383089

>  <Genealogy>  (80) 
CC(=O)c1ccc([N-]C(=O)c2ccc[n-]c2=NCc2cc[nH+]cc2)cc1 (protonated)
CC(=O)c1ccc([N-]C(=O)c2ccc[n-]/c2=N/Cc2cc[nH+]cc2)cc1 (cis-trans isomerization)
CC(=O)c1ccc([N-]C(=O)c2ccc[n-]/c2=N/Cc2cc[nH+]cc2)cc1 (3D coordinates assigned)
CC(=O)c1ccc([N-]C(=O)c2ccc[n-]/c2=N/Cc2cc[nH+]cc2)cc1 (optimized conformer: 64.54428043383089 kcal/mol)

>  <smiles>  (80) 
CC(=O)c1ccc(NC(=O)c2ccc[nH]c2=NCc2ccncc2)cc1

>  <score_type>  (80) 
oracle

>  <origin>  (80) 
adg

>  <m_score__min__energy>  (80) 
-9.7799999999999994

>  <m_primary>  (80) 
energy

$$$$
80:0
     RDKit          3D

 38 40  0  0  0  0  0  0  0  0999 V2000
   56.6396   34.3085   45.4207 H   0  0  0  0  0  0  0  0  0  0  0  0
   57.6210   33.8400   45.2550 C   0  0  0  0  0  0  0  0  0  0  0  0
   58.7110   34.5880   45.4930 C   0  0  0  0  0  0  0  0  0  0  0  0
   58.9006   35.4343   44.8164 H   0  0  0  0  0  0  0  0  0  0  0  0
   59.6780   34.3660   46.5920 C   0  0  0  0  0  0  0  0  0  0  0  0
   59.2990   34.5030   47.9390 C   0  0  0  0  0  0  0  0  0  0  0  0
   58.2686   34.7961   48.1888 H   0  0  0  0  0  0  0  0  0  0  0  0
   60.2200   34.2700   48.9620 C   0  0  0  0  0  0  0  0  0  0  0  0
   59.9172   34.3966   50.0119 H   0  0  0  0  0  0  0  0  0  0  0  0
   61.5300   33.8750   48.6550 C   0  0  0  0  0  0  0  0  0  0  0  0
   62.4650   33.6390   49.6750 C   0  0  0  0  0  0  0  0  0  0  0  0
   62.1737   33.7690   50.7277 H   0  0  0  0  0  0  0  0  0  0  0  0
   63.7660   33.2390   49.3550 C   0  0  0  0  0  0  0  0  0  0  0  0
   64.4961   33.0567   50.1573 H   0  0  0  0  0  0  0  0  0  0  0  0
   64.1420   33.0700   48.0210 C   0  0  0  0  0  0  0  0  0  0  0  0
   65.1668   32.7541   47.7762 H   0  0  0  0  0  0  0  0  0  0  0  0
   63.2200   33.3010   46.9950 C   0  0  0  0  0  0  0  0  0  0  0  0
   63.5212   33.1650   45.9458 H   0  0  0  0  0  0  0  0  0  0  0  0
   61.9110   33.7060   47.3010 C   0  0  0  0  0  0  0  0  0  0  0  0
   60.9780   33.9420   46.2810 C   0  0  0  0  0  0  0  0  0  0  0  0
   61.2677   33.7936   45.2303 H   0  0  0  0  0  0  0  0  0  0  0  0
   57.6350   32.4370   44.7880 C   0  0  0  0  0  0  0  0  0  0  0  0
   57.8170   31.3670   45.6810 C   0  0  0  0  0  0  0  0  0  0  0  0
   57.9674   31.5682   46.7519 H   0  0  0  0  0  0  0  0  0  0  0  0
   57.8080   30.0480   45.2160 C   0  0  0  0  0  0  0  0  0  0  0  0
   57.9740   29.2186   45.9193 H   0  0  0  0  0  0  0  0  0  0  0  0
   57.5880   29.7770   43.8550 C   0  0  0  0  0  0  0  0  0  0  0  0
   57.6120   28.4200   43.3690 N   0  0  0  0  0  0  0  0  0  0  0  0
   58.0120   28.3900   42.4010 H   0  0  0  0  0  0  0  0  0  0  0  0
   56.6400   28.0340   43.3280 H   0  0  0  0  0  0  0  0  0  0  0  0
   58.4260   27.5820   44.2520 C   0  0  0  0  0  0  0  0  0  0  0  0
   58.1941   27.8207   45.3004 H   0  0  0  0  0  0  0  0  0  0  0  0
   58.2034   26.5221   44.0594 H   0  0  0  0  0  0  0  0  0  0  0  0
   59.4919   27.7737   44.0594 H   0  0  0  0  0  0  0  0  0  0  0  0
   57.3850   30.8480   42.9670 C   0  0  0  0  0  0  0  0  0  0  0  0
   57.2173   30.6480   41.8984 H   0  0  0  0  0  0  0  0  0  0  0  0
   57.3950   32.1650   43.4340 C   0  0  0  0  0  0  0  0  0  0  0  0
   57.2133   32.9940   42.7342 H   0  0  0  0  0  0  0  0  0  0  0  0
  1  2  1  0
  2  3  2  0
  3  4  1  0
  3  5  1  0
  5  6  2  0
  6  7  1  0
  6  8  1  0
  8  9  1  0
  8 10  2  0
 10 11  1  0
 11 12  1  0
 11 13  2  0
 13 14  1  0
 13 15  1  0
 15 16  1  0
 15 17  2  0
 17 18  1  0
 17 19  1  0
 19 20  2  0
 20 21  1  0
  2 22  1  0
 22 23  2  0
 23 24  1  0
 23 25  1  0
 25 26  1  0
 25 27  2  0
 27 28  1  0
 28 29  1  0
 28 30  1  0
 28 31  1  0
 31 32  1  0
 31 33  1  0
 31 34  1  0
 27 35  1  0
 35 36  1  0
 35 37  2  0
 37 38  1  0
 20  5  1  0
 37 22  1  0
 19 10  1  0
M  CHG  1  28   1
M  END
>  <UniqueID>  (81) 
73

>  <SMILES>  (81) 
C[NH2+]c1ccc(/C=C\c2ccc3ccccc3c2)cc1

>  <Energy>  (81) 
52.52869984281158

>  <Genealogy>  (81) 
C[NH2+]c1ccc(C=Cc2ccc3ccccc3c2)cc1 (protonated)
C[NH2+]c1ccc(/C=C\c2ccc3ccccc3c2)cc1 (cis-trans isomerization)
C[NH2+]c1ccc(/C=C\c2ccc3ccccc3c2)cc1 (3D coordinates assigned)
C[NH2+]c1ccc(/C=C\c2ccc3ccccc3c2)cc1 (optimized conformer: 52.52869984281158 kcal/mol)

>  <smiles>  (81) 
CNc1ccc(C=Cc2ccc3ccccc3c2)cc1

>  <score_type>  (81) 
oracle

>  <origin>  (81) 
adg

>  <m_score__min__energy>  (81) 
-7.0800000000000001

>  <m_primary>  (81) 
energy

$$$$
81:0
     RDKit          3D

 61 64  0  0  1  0  0  0  0  0999 V2000
   59.6580   35.6620   46.0420 C   0  0  0  0  0  0  0  0  0  0  0  0
   58.5760   34.7890   45.7590 O   0  0  0  0  0  0  0  0  0  0  0  0
   58.6300   33.4250   45.8690 C   0  0  0  0  0  0  0  0  0  0  0  0
   59.6980   32.8160   46.5330 C   0  0  0  0  0  0  0  0  0  0  0  0
   59.7130   31.4390   46.6210 C   0  0  0  0  0  0  0  0  0  0  0  0
   60.7660   30.7400   47.2800 N   0  0  0  0  0  0  0  0  0  0  0  0
   61.0700   31.1210   48.4740 C   0  0  0  0  0  0  0  0  0  0  0  0
   60.4540   30.6520   49.5790 N   0  0  0  0  0  0  0  0  0  0  0  0
   60.8370   31.1050   50.7930 C   0  0  0  0  0  0  0  0  0  0  0  0
   60.3040   30.7100   51.8760 N   0  0  0  0  0  0  0  0  0  0  0  0
   58.8830   30.6520   51.9660 C   0  0  0  0  0  0  0  0  0  0  0  0
   58.0740   31.7400   51.7100 C   0  0  0  0  0  0  0  0  0  0  0  0
   56.6800   31.6440   51.8100 C   0  0  0  0  0  0  0  0  0  0  0  0
   56.0690   30.4570   52.1670 C   0  0  0  0  0  0  0  0  0  0  0  0
   54.6600   30.4270   52.2500 N   0  0  0  0  0  0  0  0  0  0  0  0
   54.0770   30.3870   53.5880 C   0  0  0  0  0  0  0  0  0  0  0  0
   52.5690   30.2910   53.5330 C   0  0  0  0  0  0  0  0  0  0  0  0
   52.0130   31.2150   52.5580 N   0  0  0  0  0  0  0  0  0  0  0  0
   50.8020   31.9140   52.8410 C   0  0  0  0  0  0  0  0  0  0  0  0
   50.1120   31.6840   54.1500 C   0  0  0  0  0  0  0  0  0  0  0  0
   50.2870   32.7310   52.0080 O   0  0  0  0  0  0  0  0  0  0  0  0
   52.6510   31.4560   51.2980 C   0  0  0  0  0  0  0  0  0  0  0  0
   53.7550   30.4330   51.1300 C   0  0  0  0  0  0  0  0  0  0  0  0
   56.8940   29.3860   52.4180 C   0  0  0  0  0  0  0  0  0  0  0  0
   58.2780   29.4630   52.3240 C   0  0  0  0  0  0  0  0  0  0  0  0
   61.8350   32.0260   50.9000 N   0  0  0  0  0  0  0  0  0  0  0  0
   62.4690   32.5130   49.8180 C   0  0  0  0  0  0  0  0  0  0  0  0
   62.0910   32.0620   48.5680 C   0  0  0  0  0  0  0  0  0  0  0  0
   62.9130   32.6910   47.1570 Cl  0  0  0  0  0  0  0  0  0  0  0  0
   58.7070   30.6470   46.0730 C   0  0  0  0  0  0  0  0  0  0  0  0
   57.6630   31.2790   45.4220 C   0  0  0  0  0  0  0  0  0  0  0  0
   56.6800   30.4580   44.8890 O   0  0  0  0  0  0  0  0  0  0  0  0
   56.6980   30.1390   43.5030 C   0  0  0  0  0  0  0  0  0  0  0  0
   57.6060   32.6720   45.3080 C   0  0  0  0  0  0  0  0  0  0  0  0
   59.7766   35.7577   47.1314 H   0  0  0  0  0  0  0  0  0  0  0  0
   60.5821   35.2536   45.6070 H   0  0  0  0  0  0  0  0  0  0  0  0
   59.4542   36.6516   45.6070 H   0  0  0  0  0  0  0  0  0  0  0  0
   60.5057   33.4185   46.9741 H   0  0  0  0  0  0  0  0  0  0  0  0
   59.6900   29.9460   49.4890 H   0  0  0  0  0  0  0  0  0  0  0  0
   58.5311   32.6984   51.4227 H   0  0  0  0  0  0  0  0  0  0  0  0
   56.0610   32.5289   51.6007 H   0  0  0  0  0  0  0  0  0  0  0  0
   54.4716   29.5110   54.1237 H   0  0  0  0  0  0  0  0  0  0  0  0
   54.3447   31.3181   54.1090 H   0  0  0  0  0  0  0  0  0  0  0  0
   52.2858   29.2649   53.2555 H   0  0  0  0  0  0  0  0  0  0  0  0
   52.1695   30.5523   54.5240 H   0  0  0  0  0  0  0  0  0  0  0  0
   50.8031   31.9144   54.9742 H   0  0  0  0  0  0  0  0  0  0  0  0
   49.2290   32.3364   54.2187 H   0  0  0  0  0  0  0  0  0  0  0  0
   49.7971   30.6323   54.2187 H   0  0  0  0  0  0  0  0  0  0  0  0
   51.9193   31.3530   50.4832 H   0  0  0  0  0  0  0  0  0  0  0  0
   53.0655   32.4745   51.2679 H   0  0  0  0  0  0  0  0  0  0  0  0
   53.3027   29.4350   51.0336 H   0  0  0  0  0  0  0  0  0  0  0  0
   54.3297   30.6980   50.2303 H   0  0  0  0  0  0  0  0  0  0  0  0
   56.4386   28.4269   52.7056 H   0  0  0  0  0  0  0  0  0  0  0  0
   58.8929   28.5757   52.5350 H   0  0  0  0  0  0  0  0  0  0  0  0
   62.1240   32.3700   51.8520 H   0  0  0  0  0  0  0  0  0  0  0  0
   63.2729   33.2560   49.9264 H   0  0  0  0  0  0  0  0  0  0  0  0
   58.7417   29.5506   46.1555 H   0  0  0  0  0  0  0  0  0  0  0  0
   56.7596   29.0478   43.3787 H   0  0  0  0  0  0  0  0  0  0  0  0
   55.7775   30.5107   43.0292 H   0  0  0  0  0  0  0  0  0  0  0  0
   57.5709   30.6119   43.0292 H   0  0  0  0  0  0  0  0  0  0  0  0
   56.7696   33.1600   44.7862 H   0  0  0  0  0  0  0  0  0  0  0  0
  1  2  1  0
  2  3  1  0
  3  4  2  0
  4  5  1  0
  5  6  1  0
  6  7  2  0
  7  8  1  0
  8  9  1  0
  9 10  2  0
 10 11  1  0
 11 12  2  0
 12 13  1  0
 13 14  2  0
 14 15  1  0
 15 16  1  0
 16 17  1  0
 17 18  1  0
 18 19  1  0
 19 20  1  0
 19 21  2  0
 18 22  1  0
 22 23  1  0
 14 24  1  0
 24 25  2  0
  9 26  1  0
 26 27  1  0
 27 28  2  0
 28 29  1  0
  5 30  2  0
 30 31  1  0
 31 32  1  0
 32 33  1  0
 31 34  2  0
 34  3  1  0
 28  7  1  0
 25 11  1  0
 23 15  1  0
  1 35  1  0
  1 36  1  0
  1 37  1  0
  4 38  1  0
  8 39  1  0
 12 40  1  0
 13 41  1  0
 16 42  1  0
 16 43  1  0
 17 44  1  0
 17 45  1  0
 20 46  1  0
 20 47  1  0
 20 48  1  0
 22 49  1  0
 22 50  1  0
 23 51  1  0
 23 52  1  0
 24 53  1  0
 25 54  1  0
 26 55  1  0
 27 56  1  0
 30 57  1  0
 33 58  1  0
 33 59  1  0
 33 60  1  0
 34 61  1  0
M  END
>  <smiles>  (82) 
COc1cc(N=c2[nH]c(=Nc3ccc(N4CCN(C(C)=O)CC4)cc3)[nH]cc2Cl)cc(OC)c1

>  <score_type>  (82) 
oracle

>  <origin>  (82) 
adg

>  <m_score__min__energy>  (82) 
-8.9499999999999993

>  <m_primary>  (82) 
energy

$$$$
82:0
     RDKit          3D

 32 34  0  0  0  0  0  0  0  0999 V2000
   58.6160   32.1670   50.8210 C   0  0  0  0  0  0  0  0  0  0  0  0
   59.2830   33.0570   49.9330 O   0  0  0  0  0  0  0  0  0  0  0  0
   59.1140   33.0630   48.5400 C   0  0  0  0  0  0  0  0  0  0  0  0
   59.6820   34.0520   47.7160 C   0  0  0  0  0  0  0  0  0  0  0  0
   59.4870   34.0160   46.3320 C   0  0  0  0  0  0  0  0  0  0  0  0
   58.7190   32.9910   45.7490 C   0  0  0  0  0  0  0  0  0  0  0  0
   58.4990   32.9180   44.3620 C   0  0  0  0  0  0  0  0  0  0  0  0
   59.0030   33.7990   43.6140 O   0  0  0  0  0  0  0  0  0  0  0  0
   57.7160   31.8600   43.8280 C   0  0  0  0  0  0  0  0  0  0  0  0
   57.4330   31.6980   42.4370 C   0  0  0  0  0  0  0  0  0  0  0  0
   57.9420   32.6430   41.3760 C   0  0  0  0  0  0  0  0  0  0  0  0
   56.6460   30.6130   42.0180 C   0  0  0  0  0  0  0  0  0  0  0  0
   56.1380   29.6970   42.9340 C   0  0  0  0  0  0  0  0  0  0  0  0
   56.4020   29.8370   44.2960 C   0  0  0  0  0  0  0  0  0  0  0  0
   55.8680   28.8800   45.2190 N   0  0  0  0  0  0  0  0  0  0  0  0
   57.1870   30.9120   44.7490 C   0  0  0  0  0  0  0  0  0  0  0  0
   57.4250   31.0270   46.0510 O   0  0  0  0  0  0  0  0  0  0  0  0
   58.1530   32.0020   46.5750 C   0  0  0  0  0  0  0  0  0  0  0  0
   58.3520   32.0440   47.9590 C   0  0  0  0  0  0  0  0  0  0  0  0
   58.8322   32.4555   51.8602 H   0  0  0  0  0  0  0  0  0  0  0  0
   57.5314   32.2174   50.6446 H   0  0  0  0  0  0  0  0  0  0  0  0
   58.9688   31.1402   50.6446 H   0  0  0  0  0  0  0  0  0  0  0  0
   60.2827   34.8578   48.1631 H   0  0  0  0  0  0  0  0  0  0  0  0
   59.9361   34.7928   45.6957 H   0  0  0  0  0  0  0  0  0  0  0  0
   58.4114   33.5145   41.8558 H   0  0  0  0  0  0  0  0  0  0  0  0
   58.6835   32.1257   40.7494 H   0  0  0  0  0  0  0  0  0  0  0  0
   57.1021   32.9776   40.7494 H   0  0  0  0  0  0  0  0  0  0  0  0
   56.4274   30.4851   40.9475 H   0  0  0  0  0  0  0  0  0  0  0  0
   55.5233   28.8559   42.5809 H   0  0  0  0  0  0  0  0  0  0  0  0
   56.1850   28.8430   46.2130 H   0  0  0  0  0  0  0  0  0  0  0  0
   55.1430   28.1930   44.9140 H   0  0  0  0  0  0  0  0  0  0  0  0
   57.9046   31.2676   48.5970 H   0  0  0  0  0  0  0  0  0  0  0  0
  1  2  1  0
  2  3  1  0
  3  4  2  0
  4  5  1  0
  5  6  2  0
  6  7  1  0
  7  8  2  0
  7  9  1  0
  9 10  2  0
 10 11  1  0
 10 12  1  0
 12 13  2  0
 13 14  1  0
 14 15  1  0
 14 16  2  0
 16 17  1  0
 17 18  1  0
 18 19  2  0
 19  3  1  0
 18  6  1  0
 16  9  1  0
  1 20  1  0
  1 21  1  0
  1 22  1  0
  4 23  1  0
  5 24  1  0
 11 25  1  0
 11 26  1  0
 11 27  1  0
 12 28  1  0
 13 29  1  0
 15 30  1  0
 15 31  1  0
 19 32  1  0
M  END
>  <UniqueID>  (83) 
74

>  <SMILES>  (83) 
COc1ccc2c(=O)c3c(C)ccc(N)c3oc2c1

>  <Energy>  (83) 
46.44276770793236

>  <Genealogy>  (83) 
COc1ccc2c(=O)c3c(C)ccc(N)c3oc2c1 (3D coordinates assigned)
COc1ccc2c(=O)c3c(C)ccc(N)c3oc2c1 (optimized conformer: 46.44276770793236 kcal/mol)

>  <smiles>  (83) 
COc1ccc2c(=O)c3c(C)ccc(N)c3oc2c1

>  <score_type>  (83) 
oracle

>  <origin>  (83) 
adg

>  <m_score__min__energy>  (83) 
-6.8700000000000001

>  <m_primary>  (83) 
energy

$$$$
83:0
     RDKit          3D

 34 34  0  0  0  0  0  0  0  0999 V2000
   59.0195   32.8241   48.8477 H   0  0  0  0  0  0  0  0  0  0  0  0
   58.9590   33.1840   47.8100 C   0  0  0  0  0  0  0  0  0  0  0  0
   58.0670   32.5860   46.9140 C   0  0  0  0  0  0  0  0  0  0  0  0
   57.4192   31.7646   47.2542 H   0  0  0  0  0  0  0  0  0  0  0  0
   57.9930   33.0270   45.5840 C   0  0  0  0  0  0  0  0  0  0  0  0
   57.0520   32.4120   44.6870 N   0  0  0  0  0  0  0  0  0  0  0  0
   56.3550   33.0250   44.2070 H   0  0  0  0  0  0  0  0  0  0  0  0
   57.0730   31.0210   44.3260 C   0  0  0  0  0  0  0  0  0  0  0  0
   56.7120   30.6300   42.6060 S   0  0  0  0  0  0  0  0  0  0  0  0
   57.7280   31.9940   41.9560 C   0  0  0  0  0  0  0  0  0  0  0  0
   58.1538   32.5656   42.7939 H   0  0  0  0  0  0  0  0  0  0  0  0
   58.5423   31.5837   41.3407 H   0  0  0  0  0  0  0  0  0  0  0  0
   57.1017   32.6567   41.3407 H   0  0  0  0  0  0  0  0  0  0  0  0
   57.2880   30.1110   45.2480 N   0  0  0  0  0  0  0  0  0  0  0  0
   56.5980   30.0880   46.0340 H   0  0  0  0  0  0  0  0  0  0  0  0
   58.3490   29.0720   45.2900 C   0  0  0  0  0  0  0  0  0  0  0  0
   58.2010   28.2800   46.6110 C   0  0  0  0  0  0  0  0  0  0  0  0
   58.3286   28.9627   47.4641 H   0  0  0  0  0  0  0  0  0  0  0  0
   57.2017   27.8221   46.6540 H   0  0  0  0  0  0  0  0  0  0  0  0
   58.9675   27.4922   46.6540 H   0  0  0  0  0  0  0  0  0  0  0  0
   59.7570   29.7030   45.2820 C   0  0  0  0  0  0  0  0  0  0  0  0
   60.0965   29.8551   46.3172 H   0  0  0  0  0  0  0  0  0  0  0  0
   60.4565   29.0322   44.7616 H   0  0  0  0  0  0  0  0  0  0  0  0
   59.7218   30.6715   44.7616 H   0  0  0  0  0  0  0  0  0  0  0  0
   58.1870   28.0720   44.1260 C   0  0  0  0  0  0  0  0  0  0  0  0
   58.0234   27.0621   44.5303 H   0  0  0  0  0  0  0  0  0  0  0  0
   57.3245   28.3641   43.5090 H   0  0  0  0  0  0  0  0  0  0  0  0
   59.0976   28.0769   43.5090 H   0  0  0  0  0  0  0  0  0  0  0  0
   58.8040   34.1030   45.1720 C   0  0  0  0  0  0  0  0  0  0  0  0
   58.7368   34.4756   44.1392 H   0  0  0  0  0  0  0  0  0  0  0  0
   59.6940   34.6990   46.0710 C   0  0  0  0  0  0  0  0  0  0  0  0
   60.3324   35.5317   45.7407 H   0  0  0  0  0  0  0  0  0  0  0  0
   59.7740   34.2390   47.3880 C   0  0  0  0  0  0  0  0  0  0  0  0
   60.6370   34.8190   48.2580 F   0  0  0  0  0  0  0  0  0  0  0  0
  1  2  1  0
  2  3  2  0
  3  4  1  0
  3  5  1  0
  5  6  1  0
  6  7  1  0
  6  8  1  0
  8  9  1  0
  9 10  1  0
 10 11  1  0
 10 12  1  0
 10 13  1  0
  8 14  2  0
 14 15  1  0
 14 16  1  0
 16 17  1  0
 17 18  1  0
 17 19  1  0
 17 20  1  0
 16 21  1  0
 21 22  1  0
 21 23  1  0
 21 24  1  0
 16 25  1  0
 25 26  1  0
 25 27  1  0
 25 28  1  0
  5 29  2  0
 29 30  1  0
 29 31  1  0
 31 32  1  0
 31 33  2  0
 33 34  1  0
 33  2  1  0
M  CHG  1  14   1
M  END
>  <UniqueID>  (84) 
75

>  <SMILES>  (84) 
CS/C(Nc1ccc(F)cc1)=[NH+]\C(C)(C)C

>  <Energy>  (84) 
34.09433108558032

>  <Genealogy>  (84) 
CSC(Nc1ccc(F)cc1)=[NH+]C(C)(C)C (protonated)
CS/C(Nc1ccc(F)cc1)=[NH+]\C(C)(C)C (cis-trans isomerization)
CS/C(Nc1ccc(F)cc1)=[NH+]\C(C)(C)C (3D coordinates assigned)
CS/C(Nc1ccc(F)cc1)=[NH+]\C(C)(C)C (optimized conformer: 34.09433108558032 kcal/mol)

>  <smiles>  (84) 
CSC(=NC(C)(C)C)Nc1ccc(F)cc1

>  <score_type>  (84) 
oracle

>  <origin>  (84) 
adg

>  <m_score__min__energy>  (84) 
-4.2699999999999996

>  <m_primary>  (84) 
energy

$$$$
84:0
     RDKit          3D

 49 52  0  0  0  0  0  0  0  0999 V2000
   64.9407   33.1679   49.0557 H   0  0  0  0  0  0  0  0  0  0  0  0
   63.9510   33.4030   48.6370 C   0  0  0  0  0  0  0  0  0  0  0  0
   62.9510   33.9240   49.4600 C   0  0  0  0  0  0  0  0  0  0  0  0
   63.1517   34.0941   50.5281 H   0  0  0  0  0  0  0  0  0  0  0  0
   61.6940   34.2300   48.9280 C   0  0  0  0  0  0  0  0  0  0  0  0
   60.9050   34.6289   49.5825 H   0  0  0  0  0  0  0  0  0  0  0  0
   61.4340   34.0300   47.5600 C   0  0  0  0  0  0  0  0  0  0  0  0
   60.1190   34.3830   46.9770 C   0  0  0  0  0  0  0  0  0  0  0  0
   59.8150   35.5980   46.8360 O   0  0  0  0  0  0  0  0  0  0  0  0
   59.1510   33.3570   46.5310 C   0  0  0  0  0  0  0  0  0  0  0  0
   58.2170   33.5030   45.1350 S   0  0  0  0  0  0  0  0  0  0  0  0
   57.5140   31.9930   45.3200 C   0  0  0  0  0  0  0  0  0  0  0  0
   56.6430   31.5040   44.4890 N   0  0  0  0  0  0  0  0  0  0  0  0
   56.4140   29.8120   44.1820 S   0  0  0  0  0  0  0  0  0  0  0  0
   56.3290   29.5650   42.7030 O   0  0  0  0  0  0  0  0  0  0  0  0
   55.1490   29.3570   44.8530 O   0  0  0  0  0  0  0  0  0  0  0  0
   57.7810   28.9160   44.8360 C   0  0  0  0  0  0  0  0  0  0  0  0
   57.5680   27.8280   45.6960 C   0  0  0  0  0  0  0  0  0  0  0  0
   56.5431   27.5370   45.9695 H   0  0  0  0  0  0  0  0  0  0  0  0
   58.6560   27.1130   46.2060 C   0  0  0  0  0  0  0  0  0  0  0  0
   58.4859   26.2638   46.8842 H   0  0  0  0  0  0  0  0  0  0  0  0
   59.9600   27.4760   45.8550 C   0  0  0  0  0  0  0  0  0  0  0  0
   61.0140   26.7810   46.3490 F   0  0  0  0  0  0  0  0  0  0  0  0
   60.1760   28.5540   44.9930 C   0  0  0  0  0  0  0  0  0  0  0  0
   61.2018   28.8385   44.7158 H   0  0  0  0  0  0  0  0  0  0  0  0
   59.0900   29.2720   44.4820 C   0  0  0  0  0  0  0  0  0  0  0  0
   59.2633   30.1181   43.8007 H   0  0  0  0  0  0  0  0  0  0  0  0
   57.9610   31.3640   46.4330 N   0  0  0  0  0  0  0  0  0  0  0  0
   57.6380   30.4240   46.7530 H   0  0  0  0  0  0  0  0  0  0  0  0
   58.8610   32.1160   47.1260 C   0  0  0  0  0  0  0  0  0  0  0  0
   59.4150   31.6490   48.4150 C   0  0  0  0  0  0  0  0  0  0  0  0
   60.4090   30.6590   48.4320 C   0  0  0  0  0  0  0  0  0  0  0  0
   60.7516   30.2112   47.4875 H   0  0  0  0  0  0  0  0  0  0  0  0
   60.9660   30.2390   49.6430 C   0  0  0  0  0  0  0  0  0  0  0  0
   61.7526   29.4701   49.6441 H   0  0  0  0  0  0  0  0  0  0  0  0
   60.5310   30.7890   50.8550 C   0  0  0  0  0  0  0  0  0  0  0  0
   61.1310   30.3420   52.0420 O   0  0  0  0  0  0  0  0  0  0  0  0
   62.2680   29.4870   52.0950 C   0  0  0  0  0  0  0  0  0  0  0  0
   62.5300   29.2900   53.1450 H   0  0  0  0  0  0  0  0  0  0  0  0
   62.0365   28.5373   51.5905 H   0  0  0  0  0  0  0  0  0  0  0  0
   63.1161   29.9730   51.5905 H   0  0  0  0  0  0  0  0  0  0  0  0
   59.5150   31.7630   50.8420 C   0  0  0  0  0  0  0  0  0  0  0  0
   59.1591   32.1966   51.7882 H   0  0  0  0  0  0  0  0  0  0  0  0
   58.9570   32.1810   49.6310 C   0  0  0  0  0  0  0  0  0  0  0  0
   58.1533   32.9321   49.6303 H   0  0  0  0  0  0  0  0  0  0  0  0
   62.4400   33.4840   46.7450 C   0  0  0  0  0  0  0  0  0  0  0  0
   62.2392   33.2948   45.6802 H   0  0  0  0  0  0  0  0  0  0  0  0
   63.6950   33.1800   47.2810 C   0  0  0  0  0  0  0  0  0  0  0  0
   64.4822   32.7647   46.6346 H   0  0  0  0  0  0  0  0  0  0  0  0
  1  2  1  0
  2  3  2  0
  3  4  1  0
  3  5  1  0
  5  6  1  0
  5  7  2  0
  7  8  1  0
  8  9  2  0
  8 10  1  0
 10 11  1  0
 11 12  1  0
 12 13  2  0
 13 14  1  0
 14 15  2  0
 14 16  2  0
 14 17  1  0
 17 18  2  0
 18 19  1  0
 18 20  1  0
 20 21  1  0
 20 22  2  0
 22 23  1  0
 22 24  1  0
 24 25  1  0
 24 26  2  0
 26 27  1  0
 12 28  1  0
 28 29  1  0
 28 30  1  0
 30 31  1  0
 31 32  2  0
 32 33  1  0
 32 34  1  0
 34 35  1  0
 34 36  2  0
 36 37  1  0
 37 38  1  0
 38 39  1  0
 38 40  1  0
 38 41  1  0
 36 42  1  0
 42 43  1  0
 42 44  2  0
 44 45  1  0
  7 46  1  0
 46 47  1  0
 46 48  2  0
 48 49  1  0
 48  2  1  0
 30 10  2  0
 44 31  1  0
 26 17  1  0
M  END
>  <UniqueID>  (85) 
76

>  <SMILES>  (85) 
COc1ccc(-c2[nH]/c(=N\S(=O)(=O)c3ccc(F)cc3)sc2C(=O)c2ccccc2)cc1

>  <Energy>  (85) 
96.11190508507414

>  <Genealogy>  (85) 
COc1ccc(-c2[nH]/c(=N\S(=O)(=O)c3ccc(F)cc3)sc2C(=O)c2ccccc2)cc1 (cis-trans isomerization)
COc1ccc(-c2[nH]/c(=N\S(=O)(=O)c3ccc(F)cc3)sc2C(=O)c2ccccc2)cc1 (3D coordinates assigned)
COc1ccc(-c2[nH]/c(=N\S(=O)(=O)c3ccc(F)cc3)sc2C(=O)c2ccccc2)cc1 (optimized conformer: 96.11190508507414 kcal/mol)

>  <smiles>  (85) 
COc1ccc(-c2[nH]c(=NS(=O)(=O)c3ccc(F)cc3)sc2C(=O)c2ccccc2)cc1

>  <score_type>  (85) 
oracle

>  <origin>  (85) 
adg

>  <m_score__min__energy>  (85) 
-9.6999999999999993

>  <m_primary>  (85) 
energy

$$$$
85:0
     RDKit          3D

 65 70  0  0  0  0  0  0  0  0999 V2000
   63.7450   32.7810   47.3750 C   0  0  0  0  0  0  0  0  0  0  0  0
   62.5630   33.0040   48.3410 C   0  0  0  0  0  0  0  0  0  0  0  0
   63.0450   33.8790   49.5180 C   0  0  0  0  0  0  0  0  0  0  0  0
   61.3690   33.7140   47.6800 C   0  0  0  0  0  0  0  0  0  0  0  0
   60.3570   34.3630   48.4260 C   0  0  0  0  0  0  0  0  0  0  0  0
   59.2750   34.9710   47.7820 C   0  0  0  0  0  0  0  0  0  0  0  0
   59.1700   34.9260   46.3920 C   0  0  0  0  0  0  0  0  0  0  0  0
   60.1420   34.2650   45.6400 C   0  0  0  0  0  0  0  0  0  0  0  0
   61.2270   33.6570   46.2770 C   0  0  0  0  0  0  0  0  0  0  0  0
   62.1410   31.6780   48.8270 N   0  0  0  0  0  0  0  0  0  0  0  0
   61.3710   30.8410   48.1440 N   0  0  0  0  0  0  0  0  0  0  0  0
   61.1210   29.8040   48.9630 C   0  0  0  0  0  0  0  0  0  0  0  0
   60.2490   28.6750   48.5970 C   0  0  0  0  0  0  0  0  0  0  0  0
   60.1370   27.7120   49.4010 O   0  0  0  0  0  0  0  0  0  0  0  0
   59.5520   28.6620   47.3390 N   0  0  0  0  0  0  0  0  0  0  0  0
   58.5940   27.6620   46.9610 C   0  0  0  0  0  0  0  0  0  0  0  0
   58.7230   26.3630   47.4700 C   0  0  0  0  0  0  0  0  0  0  0  0
   57.7760   25.3830   47.1580 C   0  0  0  0  0  0  0  0  0  0  0  0
   56.6700   25.6960   46.3610 C   0  0  0  0  0  0  0  0  0  0  0  0
   55.7340   24.6910   46.0800 O   0  0  0  0  0  0  0  0  0  0  0  0
   55.9050   23.6790   45.1250 C   0  0  0  0  0  0  0  0  0  0  0  0
   55.7480   23.9780   43.7580 C   0  0  0  0  0  0  0  0  0  0  0  0
   55.9250   22.9680   42.7880 C   0  0  0  0  0  0  0  0  0  0  0  0
   56.2690   21.6980   43.1620 N   0  0  0  0  0  0  0  0  0  0  0  0
   56.4350   21.4200   44.4790 C   0  0  0  0  0  0  0  0  0  0  0  0
   56.8220   20.2420   44.9910 N   0  0  0  0  0  0  0  0  0  0  0  0
   56.9220   20.4460   46.3240 C   0  0  0  0  0  0  0  0  0  0  0  0
   56.5950   21.7610   46.6520 C   0  0  0  0  0  0  0  0  0  0  0  0
   56.2740   22.3670   45.4520 C   0  0  0  0  0  0  0  0  0  0  0  0
   56.5410   26.9970   45.8420 C   0  0  0  0  0  0  0  0  0  0  0  0
   57.4900   27.9760   46.1500 C   0  0  0  0  0  0  0  0  0  0  0  0
   61.7600   30.0550   50.1680 C   0  0  0  0  0  0  0  0  0  0  0  0
   61.8930   29.1690   51.3450 C   0  0  0  0  0  0  0  0  0  0  0  0
   63.1400   28.5900   51.6400 C   0  0  0  0  0  0  0  0  0  0  0  0
   63.2890   27.7570   52.7510 C   0  0  0  0  0  0  0  0  0  0  0  0
   62.2010   27.4990   53.5850 C   0  0  0  0  0  0  0  0  0  0  0  0
   60.9600   28.0790   53.3120 C   0  0  0  0  0  0  0  0  0  0  0  0
   60.7980   28.9160   52.2010 C   0  0  0  0  0  0  0  0  0  0  0  0
   59.1970   29.5790   51.8840 Cl  0  0  0  0  0  0  0  0  0  0  0  0
   62.3810   31.2430   50.0570 N   0  0  0  0  0  0  0  0  0  0  0  0
   64.6641   32.6076   47.9540 H   0  0  0  0  0  0  0  0  0  0  0  0
   63.5404   31.9056   46.7411 H   0  0  0  0  0  0  0  0  0  0  0  0
   63.8734   33.6708   46.7411 H   0  0  0  0  0  0  0  0  0  0  0  0
   62.7780   33.3943   50.4686 H   0  0  0  0  0  0  0  0  0  0  0  0
   64.1369   33.9998   49.4620 H   0  0  0  0  0  0  0  0  0  0  0  0
   62.5635   34.8665   49.4620 H   0  0  0  0  0  0  0  0  0  0  0  0
   60.4221   34.3895   49.5238 H   0  0  0  0  0  0  0  0  0  0  0  0
   58.5041   35.4865   48.3736 H   0  0  0  0  0  0  0  0  0  0  0  0
   58.3210   35.4115   45.8885 H   0  0  0  0  0  0  0  0  0  0  0  0
   60.0540   34.2225   44.5443 H   0  0  0  0  0  0  0  0  0  0  0  0
   61.9808   33.1266   45.6766 H   0  0  0  0  0  0  0  0  0  0  0  0
   59.6840   29.4640   46.6840 H   0  0  0  0  0  0  0  0  0  0  0  0
   59.5749   26.1126   48.1193 H   0  0  0  0  0  0  0  0  0  0  0  0
   57.9014   24.3597   47.5416 H   0  0  0  0  0  0  0  0  0  0  0  0
   55.4871   24.9999   43.4457 H   0  0  0  0  0  0  0  0  0  0  0  0
   55.7852   23.2041   41.7228 H   0  0  0  0  0  0  0  0  0  0  0  0
   57.0260   19.3600   44.4720 H   0  0  0  0  0  0  0  0  0  0  0  0
   57.2212   19.6775   47.0519 H   0  0  0  0  0  0  0  0  0  0  0  0
   56.5929   22.2186   47.6523 H   0  0  0  0  0  0  0  0  0  0  0  0
   55.6897   27.2450   45.1910 H   0  0  0  0  0  0  0  0  0  0  0  0
   57.3722   28.9963   45.7560 H   0  0  0  0  0  0  0  0  0  0  0  0
   64.0043   28.7946   50.9911 H   0  0  0  0  0  0  0  0  0  0  0  0
   64.2670   27.3031   52.9690 H   0  0  0  0  0  0  0  0  0  0  0  0
   62.3203   26.8392   54.4571 H   0  0  0  0  0  0  0  0  0  0  0  0
   60.1048   27.8771   53.9737 H   0  0  0  0  0  0  0  0  0  0  0  0
  1  2  1  0
  2  3  1  0
  2  4  1  0
  4  5  2  0
  5  6  1  0
  6  7  2  0
  7  8  1  0
  8  9  2  0
  2 10  1  0
 10 11  1  0
 11 12  2  0
 12 13  1  0
 13 14  2  0
 13 15  1  0
 15 16  1  0
 16 17  2  0
 17 18  1  0
 18 19  2  0
 19 20  1  0
 20 21  1  0
 21 22  2  0
 22 23  1  0
 23 24  2  0
 24 25  1  0
 25 26  1  0
 26 27  1  0
 27 28  2  0
 28 29  1  0
 19 30  1  0
 30 31  2  0
 12 32  1  0
 32 33  1  0
 33 34  2  0
 34 35  1  0
 35 36  2  0
 36 37  1  0
 37 38  2  0
 38 39  1  0
 32 40  2  0
  9  4  1  0
 40 10  1  0
 31 16  1  0
 38 33  1  0
 29 21  1  0
 29 25  2  0
  1 41  1  0
  1 42  1  0
  1 43  1  0
  3 44  1  0
  3 45  1  0
  3 46  1  0
  5 47  1  0
  6 48  1  0
  7 49  1  0
  8 50  1  0
  9 51  1  0
 15 52  1  0
 17 53  1  0
 18 54  1  0
 22 55  1  0
 23 56  1  0
 26 57  1  0
 27 58  1  0
 28 59  1  0
 30 60  1  0
 31 61  1  0
 34 62  1  0
 35 63  1  0
 36 64  1  0
 37 65  1  0
M  END
>  <UniqueID>  (86) 
77

>  <SMILES>  (86) 
CC(C)(c1ccccc1)n1nc(C(=O)Nc2ccc(Oc3ccnc4[nH]ccc34)cc2)c(-c2ccccc2Cl)n1

>  <Energy>  (86) 
162.50392353031955

>  <Genealogy>  (86) 
CC(C)(c1ccccc1)n1nc(C(=O)Nc2ccc(Oc3ccnc4[nH]ccc34)cc2)c(-c2ccccc2Cl)n1 (3D coordinates assigned)
CC(C)(c1ccccc1)n1nc(C(=O)Nc2ccc(Oc3ccnc4[nH]ccc34)cc2)c(-c2ccccc2Cl)n1 (optimized conformer: 162.50392353031955 kcal/mol)

>  <smiles>  (86) 
CC(C)(c1ccccc1)n1nc(C(=O)Nc2ccc(Oc3ccnc4[nH]ccc34)cc2)c(-c2ccccc2Cl)n1

>  <score_type>  (86) 
oracle

>  <origin>  (86) 
adg

>  <m_score__min__energy>  (86) 
-9.7599999999999998

>  <m_primary>  (86) 
energy

$$$$
86:0
     RDKit          3D

 27 30  0  0  0  0  0  0  0  0999 V2000
   58.0640   32.6950   42.7650 O   0  0  0  0  0  0  0  0  0  0  0  0
   58.2310   32.3030   43.9500 C   0  0  0  0  0  0  0  0  0  0  0  0
   58.4960   33.1210   45.1290 C   0  0  0  0  0  0  0  0  0  0  0  0
   58.6400   34.4910   45.3040 C   0  0  0  0  0  0  0  0  0  0  0  0
   58.8950   34.9540   46.6060 C   0  0  0  0  0  0  0  0  0  0  0  0
   58.9980   34.0340   47.6740 C   0  0  0  0  0  0  0  0  0  0  0  0
   58.8500   32.6920   47.4540 N   0  0  0  0  0  0  0  0  0  0  0  0
   58.6030   32.2530   46.1940 C   0  0  0  0  0  0  0  0  0  0  0  0
   58.4210   30.8990   45.7820 N   0  0  0  0  0  0  0  0  0  0  0  0
   58.2000   30.9280   44.4500 C   0  0  0  0  0  0  0  0  0  0  0  0
   57.9880   29.7920   43.7420 N   0  0  0  0  0  0  0  0  0  0  0  0
   57.9970   28.5890   44.3920 C   0  0  0  0  0  0  0  0  0  0  0  0
   57.7790   27.3990   43.6820 C   0  0  0  0  0  0  0  0  0  0  0  0
   57.7890   26.1690   44.3450 C   0  0  0  0  0  0  0  0  0  0  0  0
   58.0160   26.1120   45.7240 C   0  0  0  0  0  0  0  0  0  0  0  0
   58.0240   24.5620   46.5450 Cl  0  0  0  0  0  0  0  0  0  0  0  0
   58.2340   27.2890   46.4510 C   0  0  0  0  0  0  0  0  0  0  0  0
   58.2280   28.5330   45.7970 C   0  0  0  0  0  0  0  0  0  0  0  0
   58.4450   29.7420   46.4910 C   0  0  0  0  0  0  0  0  0  0  0  0
   58.6540   29.7580   47.7350 O   0  0  0  0  0  0  0  0  0  0  0  0
   58.5576   35.1870   44.4561 H   0  0  0  0  0  0  0  0  0  0  0  0
   59.0143   36.0313   46.7938 H   0  0  0  0  0  0  0  0  0  0  0  0
   59.1990   34.4005   48.6915 H   0  0  0  0  0  0  0  0  0  0  0  0
   57.8190   29.8470   42.7110 H   0  0  0  0  0  0  0  0  0  0  0  0
   57.5992   27.4343   42.5974 H   0  0  0  0  0  0  0  0  0  0  0  0
   57.6175   25.2411   43.7797 H   0  0  0  0  0  0  0  0  0  0  0  0
   58.4102   27.2397   47.5357 H   0  0  0  0  0  0  0  0  0  0  0  0
  1  2  2  0
  2  3  1  0
  3  4  2  0
  4  5  1  0
  5  6  2  0
  6  7  1  0
  7  8  2  0
  8  9  1  0
  9 10  1  0
 10 11  2  0
 11 12  1  0
 12 13  2  0
 13 14  1  0
 14 15  2  0
 15 16  1  0
 15 17  1  0
 17 18  2  0
 18 19  1  0
 19 20  2  0
 10  2  1  0
 18 12  1  0
  8  3  1  0
 19  9  1  0
  4 21  1  0
  5 22  1  0
  6 23  1  0
 11 24  1  0
 13 25  1  0
 14 26  1  0
 17 27  1  0
M  CHG  1  11   1
M  END
>  <UniqueID>  (87) 
78

>  <SMILES>  (87) 
O=C1c2cccnc2-n2c1[nH+]c1ccc(Cl)cc1c2=O

>  <Energy>  (87) 
76.5590072343354

>  <Genealogy>  (87) 
O=C1c2cccnc2-n2c1[nH+]c1ccc(Cl)cc1c2=O (protonated)
O=C1c2cccnc2-n2c1[nH+]c1ccc(Cl)cc1c2=O (3D coordinates assigned)
O=C1c2cccnc2-n2c1[nH+]c1ccc(Cl)cc1c2=O (nonaromatic ring conformer: 76.5590072343354 kcal/mol)

>  <smiles>  (87) 
O=C1c2cccnc2-n2c1nc1ccc(Cl)cc1c2=O

>  <score_type>  (87) 
oracle

>  <origin>  (87) 
adg

>  <m_score__min__energy>  (87) 
-5.6399999999999997

>  <m_primary>  (87) 
energy

$$$$
87:0
     RDKit          3D

 50 51  0  0  0  0  0  0  0  0999 V2000
   60.7460   29.8690   47.6710 C   0  0  0  0  0  0  0  0  0  0  0  0
   59.5600   29.3150   46.9280 C   0  0  0  0  0  0  0  0  0  0  0  0
   58.7020   30.1900   46.2420 C   0  0  0  0  0  0  0  0  0  0  0  0
   57.5860   29.6970   45.5440 C   0  0  0  0  0  0  0  0  0  0  0  0
   56.6970   30.5300   44.8450 O   0  0  0  0  0  0  0  0  0  0  0  0
   56.9640   31.1780   43.6000 C   0  0  0  0  0  0  0  0  0  0  0  0
   57.7550   32.4800   43.7990 C   0  0  0  0  0  0  0  0  0  0  0  0
   57.3390   33.2570   45.0590 C   0  0  0  0  0  0  0  0  0  0  0  0
   58.4980   33.4840   45.9940 C   0  0  0  0  0  0  0  0  0  0  0  0
   59.7140   33.9840   45.5030 C   0  0  0  0  0  0  0  0  0  0  0  0
   60.7840   34.2170   46.3720 C   0  0  0  0  0  0  0  0  0  0  0  0
   60.6500   33.9650   47.7450 C   0  0  0  0  0  0  0  0  0  0  0  0
   61.8130   34.1970   48.6770 C   0  0  0  0  0  0  0  0  0  0  0  0
   62.9250   33.1430   48.4910 C   0  0  0  0  0  0  0  0  0  0  0  0
   63.8530   33.0770   49.7130 C   0  0  0  0  0  0  0  0  0  0  0  0
   63.7400   33.4520   47.2300 C   0  0  0  0  0  0  0  0  0  0  0  0
   59.4320   33.4660   48.2370 C   0  0  0  0  0  0  0  0  0  0  0  0
   58.3630   33.2300   47.3690 C   0  0  0  0  0  0  0  0  0  0  0  0
   57.3430   28.3220   45.5290 C   0  0  0  0  0  0  0  0  0  0  0  0
   58.1880   27.4310   46.2060 C   0  0  0  0  0  0  0  0  0  0  0  0
   57.8910   25.9560   46.1720 C   0  0  0  0  0  0  0  0  0  0  0  0
   59.3020   27.9290   46.9120 C   0  0  0  0  0  0  0  0  0  0  0  0
   60.3750   26.8170   47.7730 Cl  0  0  0  0  0  0  0  0  0  0  0  0
   60.5711   29.7873   48.7539 H   0  0  0  0  0  0  0  0  0  0  0  0
   61.6469   29.2985   47.4010 H   0  0  0  0  0  0  0  0  0  0  0  0
   60.8867   30.9260   47.4010 H   0  0  0  0  0  0  0  0  0  0  0  0
   58.9052   31.2710   46.2510 H   0  0  0  0  0  0  0  0  0  0  0  0
   57.5487   30.4989   42.9621 H   0  0  0  0  0  0  0  0  0  0  0  0
   56.0020   31.4281   43.1288 H   0  0  0  0  0  0  0  0  0  0  0  0
   58.8234   32.2308   43.8792 H   0  0  0  0  0  0  0  0  0  0  0  0
   57.5441   33.1253   42.9335 H   0  0  0  0  0  0  0  0  0  0  0  0
   56.9319   34.2328   44.7555 H   0  0  0  0  0  0  0  0  0  0  0  0
   56.5860   32.6584   45.5925 H   0  0  0  0  0  0  0  0  0  0  0  0
   59.8257   34.1936   44.4289 H   0  0  0  0  0  0  0  0  0  0  0  0
   61.7363   34.6001   45.9766 H   0  0  0  0  0  0  0  0  0  0  0  0
   62.2328   35.1943   48.4790 H   0  0  0  0  0  0  0  0  0  0  0  0
   61.4409   34.1184   49.7092 H   0  0  0  0  0  0  0  0  0  0  0  0
   62.4405   32.1615   48.3819 H   0  0  0  0  0  0  0  0  0  0  0  0
   63.2515   33.1198   50.6330 H   0  0  0  0  0  0  0  0  0  0  0  0
   64.4224   32.1361   49.6906 H   0  0  0  0  0  0  0  0  0  0  0  0
   64.5498   33.9279   49.6906 H   0  0  0  0  0  0  0  0  0  0  0  0
   64.7327   33.8284   47.5181 H   0  0  0  0  0  0  0  0  0  0  0  0
   63.8545   32.5349   46.6335 H   0  0  0  0  0  0  0  0  0  0  0  0
   63.2177   34.2145   46.6335 H   0  0  0  0  0  0  0  0  0  0  0  0
   59.3196   33.2600   49.3117 H   0  0  0  0  0  0  0  0  0  0  0  0
   57.4118   32.8437   47.7639 H   0  0  0  0  0  0  0  0  0  0  0  0
   56.4750   27.9317   44.9774 H   0  0  0  0  0  0  0  0  0  0  0  0
   57.8140   25.5737   47.2005 H   0  0  0  0  0  0  0  0  0  0  0  0
   56.9405   25.7854   45.6453 H   0  0  0  0  0  0  0  0  0  0  0  0
   58.7014   25.4308   45.6453 H   0  0  0  0  0  0  0  0  0  0  0  0
  1  2  1  0
  2  3  2  0
  3  4  1  0
  4  5  1  0
  5  6  1  0
  6  7  1  0
  7  8  1  0
  8  9  1  0
  9 10  2  0
 10 11  1  0
 11 12  2  0
 12 13  1  0
 13 14  1  0
 14 15  1  0
 14 16  1  0
 12 17  1  0
 17 18  2  0
  4 19  2  0
 19 20  1  0
 20 21  1  0
 20 22  2  0
 22 23  1  0
 22  2  1  0
 18  9  1  0
  1 24  1  0
  1 25  1  0
  1 26  1  0
  3 27  1  0
  6 28  1  0
  6 29  1  0
  7 30  1  0
  7 31  1  0
  8 32  1  0
  8 33  1  0
 10 34  1  0
 11 35  1  0
 13 36  1  0
 13 37  1  0
 14 38  1  0
 15 39  1  0
 15 40  1  0
 15 41  1  0
 16 42  1  0
 16 43  1  0
 16 44  1  0
 17 45  1  0
 18 46  1  0
 19 47  1  0
 21 48  1  0
 21 49  1  0
 21 50  1  0
M  END
>  <UniqueID>  (88) 
79

>  <SMILES>  (88) 
Cc1cc(OCCCc2ccc(CC(C)C)cc2)cc(C)c1Cl

>  <Energy>  (88) 
40.64105910588654

>  <Genealogy>  (88) 
Cc1cc(OCCCc2ccc(CC(C)C)cc2)cc(C)c1Cl (3D coordinates assigned)
Cc1cc(OCCCc2ccc(CC(C)C)cc2)cc(C)c1Cl (optimized conformer: 40.64105910588654 kcal/mol)

>  <smiles>  (88) 
Cc1cc(OCCCc2ccc(CC(C)C)cc2)cc(C)c1Cl

>  <score_type>  (88) 
oracle

>  <origin>  (88) 
adg

>  <m_score__min__energy>  (88) 
-8.1600000000000001

>  <m_primary>  (88) 
energy

$$$$
88:0
     RDKit          3D

 34 36  0  0  0  0  0  0  0  0999 V2000
   55.5010   26.6140   45.9890 O   0  0  0  0  0  0  0  0  0  0  0  0
   56.5890   27.1380   45.6280 C   0  0  0  0  0  0  0  0  0  0  0  0
   57.7590   26.3320   45.4620 N   0  0  0  0  0  0  0  0  0  0  0  0
   57.9140   25.0280   46.0930 C   0  0  0  0  0  0  0  0  0  0  0  0
   57.5960   23.9500   45.0950 C   0  0  0  0  0  0  0  0  0  0  0  0
   56.3840   23.9850   44.3850 C   0  0  0  0  0  0  0  0  0  0  0  0
   56.0680   22.9660   43.4800 C   0  0  0  0  0  0  0  0  0  0  0  0
   56.9520   21.9020   43.2860 C   0  0  0  0  0  0  0  0  0  0  0  0
   56.6420   20.9150   42.4100 F   0  0  0  0  0  0  0  0  0  0  0  0
   58.1520   21.8510   44.0010 C   0  0  0  0  0  0  0  0  0  0  0  0
   58.4740   22.8670   44.9080 C   0  0  0  0  0  0  0  0  0  0  0  0
   59.6370   22.7910   45.6040 F   0  0  0  0  0  0  0  0  0  0  0  0
   56.6620   28.5820   45.3780 C   0  0  0  0  0  0  0  0  0  0  0  0
   57.7400   29.4010   45.6450 C   0  0  0  0  0  0  0  0  0  0  0  0
   57.3160   30.6530   45.2360 C   0  0  0  0  0  0  0  0  0  0  0  0
   58.0870   31.9190   45.2960 C   0  0  0  0  0  0  0  0  0  0  0  0
   59.2400   31.9990   46.0960 C   0  0  0  0  0  0  0  0  0  0  0  0
   59.9630   33.1910   46.1500 C   0  0  0  0  0  0  0  0  0  0  0  0
   59.5380   34.2940   45.4120 C   0  0  0  0  0  0  0  0  0  0  0  0
   58.3900   34.1880   44.6270 C   0  0  0  0  0  0  0  0  0  0  0  0
   57.6920   33.0190   44.5820 N   0  0  0  0  0  0  0  0  0  0  0  0
   56.0590   30.5630   44.7560 N   0  0  0  0  0  0  0  0  0  0  0  0
   55.6610   29.3030   44.8430 N   0  0  0  0  0  0  0  0  0  0  0  0
   58.9502   24.9103   46.4428 H   0  0  0  0  0  0  0  0  0  0  0  0
   57.2280   24.9501   46.9494 H   0  0  0  0  0  0  0  0  0  0  0  0
   55.6811   24.8166   44.5413 H   0  0  0  0  0  0  0  0  0  0  0  0
   55.1218   23.0027   42.9202 H   0  0  0  0  0  0  0  0  0  0  0  0
   58.8450   21.0101   43.8504 H   0  0  0  0  0  0  0  0  0  0  0  0
   58.7107   29.1232   46.0815 H   0  0  0  0  0  0  0  0  0  0  0  0
   59.5709   31.1255   46.6770 H   0  0  0  0  0  0  0  0  0  0  0  0
   60.8665   33.2600   46.7737 H   0  0  0  0  0  0  0  0  0  0  0  0
   60.1017   35.2379   45.4481 H   0  0  0  0  0  0  0  0  0  0  0  0
   58.0463   35.0531   44.0410 H   0  0  0  0  0  0  0  0  0  0  0  0
   56.8410   32.9860   43.9810 H   0  0  0  0  0  0  0  0  0  0  0  0
  1  2  2  0
  2  3  1  0
  3  4  1  0
  4  5  1  0
  5  6  2  0
  6  7  1  0
  7  8  2  0
  8  9  1  0
  8 10  1  0
 10 11  2  0
 11 12  1  0
  2 13  1  0
 13 14  2  0
 14 15  1  0
 15 16  1  0
 16 17  2  0
 17 18  1  0
 18 19  2  0
 19 20  1  0
 20 21  2  0
 15 22  2  0
 22 23  1  0
 11  5  1  0
 23 13  1  0
 21 16  1  0
  4 24  1  0
  4 25  1  0
  6 26  1  0
  7 27  1  0
 10 28  1  0
 14 29  1  0
 17 30  1  0
 18 31  1  0
 19 32  1  0
 20 33  1  0
 21 34  1  0
M  CHG  3   3  -1  21   1  23  -1
M  END
>  <UniqueID>  (89) 
80

>  <SMILES>  (89) 
O=C([N-]Cc1ccc(F)cc1F)c1cc(-c2cccc[nH+]2)n[n-]1

>  <Energy>  (89) 
64.17958107723082

>  <Genealogy>  (89) 
O=C([N-]Cc1ccc(F)cc1F)c1cc(-c2cccc[nH+]2)n[n-]1 (protonated)
O=C([N-]Cc1ccc(F)cc1F)c1cc(-c2cccc[nH+]2)n[n-]1 (3D coordinates assigned)
O=C([N-]Cc1ccc(F)cc1F)c1cc(-c2cccc[nH+]2)n[n-]1 (optimized conformer: 64.17958107723082 kcal/mol)

>  <smiles>  (89) 
O=C(NCc1ccc(F)cc1F)c1cc(-c2ccccn2)n[nH]1

>  <score_type>  (89) 
oracle

>  <origin>  (89) 
adg

>  <m_score__min__energy>  (89) 
-9.7100000000000009

>  <m_primary>  (89) 
energy

$$$$
89:0
     RDKit          3D

 27 29  0  0  0  0  0  0  0  0999 V2000
   59.9560   27.3670   47.9400 C   0  0  0  0  0  0  0  0  0  0  0  0
   58.7440   27.6220   47.1030 C   0  0  0  0  0  0  0  0  0  0  0  0
   57.7850   26.6030   46.9120 C   0  0  0  0  0  0  0  0  0  0  0  0
   56.6500   26.8820   46.1380 C   0  0  0  0  0  0  0  0  0  0  0  0
   55.7640   26.0050   45.9490 O   0  0  0  0  0  0  0  0  0  0  0  0
   56.5300   28.1230   45.6040 N   0  0  0  0  0  0  0  0  0  0  0  0
   55.5300   28.5870   44.8730 N   0  0  0  0  0  0  0  0  0  0  0  0
   55.8250   29.8770   44.5840 C   0  0  0  0  0  0  0  0  0  0  0  0
   57.0530   30.2320   45.1490 C   0  0  0  0  0  0  0  0  0  0  0  0
   57.7330   31.5480   45.0800 C   0  0  0  0  0  0  0  0  0  0  0  0
   57.8770   32.2270   43.8560 C   0  0  0  0  0  0  0  0  0  0  0  0
   58.5180   33.4680   43.8050 C   0  0  0  0  0  0  0  0  0  0  0  0
   59.0200   34.0460   44.9730 C   0  0  0  0  0  0  0  0  0  0  0  0
   59.6420   35.2500   44.9210 F   0  0  0  0  0  0  0  0  0  0  0  0
   58.8780   33.3850   46.1950 C   0  0  0  0  0  0  0  0  0  0  0  0
   58.2360   32.1440   46.2520 C   0  0  0  0  0  0  0  0  0  0  0  0
   57.4510   29.0740   45.7860 C   0  0  0  0  0  0  0  0  0  0  0  0
   58.5570   28.8540   46.5400 N   0  0  0  0  0  0  0  0  0  0  0  0
   59.6850   27.4240   49.0046 H   0  0  0  0  0  0  0  0  0  0  0  0
   60.3525   26.3658   47.7157 H   0  0  0  0  0  0  0  0  0  0  0  0
   60.7223   28.1236   47.7157 H   0  0  0  0  0  0  0  0  0  0  0  0
   57.9260   25.6092   47.3620 H   0  0  0  0  0  0  0  0  0  0  0  0
   55.1889   30.5492   43.9895 H   0  0  0  0  0  0  0  0  0  0  0  0
   57.4823   31.7779   42.9327 H   0  0  0  0  0  0  0  0  0  0  0  0
   58.6273   33.9904   42.8431 H   0  0  0  0  0  0  0  0  0  0  0  0
   59.2721   33.8416   47.1149 H   0  0  0  0  0  0  0  0  0  0  0  0
   58.1234   31.6305   47.2183 H   0  0  0  0  0  0  0  0  0  0  0  0
  1  2  1  0
  2  3  2  0
  3  4  1  0
  4  5  2  0
  4  6  1  0
  6  7  1  0
  7  8  1  0
  8  9  2  0
  9 10  1  0
 10 11  2  0
 11 12  1  0
 12 13  2  0
 13 14  1  0
 13 15  1  0
 15 16  2  0
  9 17  1  0
 17 18  2  0
 18  2  1  0
 17  6  1  0
 16 10  1  0
  1 19  1  0
  1 20  1  0
  1 21  1  0
  3 22  1  0
  8 23  1  0
 11 24  1  0
 12 25  1  0
 15 26  1  0
 16 27  1  0
M  CHG  1   7  -1
M  END
>  <UniqueID>  (90) 
81

>  <SMILES>  (90) 
Cc1cc(=O)n2[n-]cc(-c3ccc(F)cc3)c2n1

>  <Energy>  (90) 
69.68658923999655

>  <Genealogy>  (90) 
Cc1cc(=O)n2[n-]cc(-c3ccc(F)cc3)c2n1 (protonated)
Cc1cc(=O)n2[n-]cc(-c3ccc(F)cc3)c2n1 (3D coordinates assigned)
Cc1cc(=O)n2[n-]cc(-c3ccc(F)cc3)c2n1 (optimized conformer: 69.68658923999655 kcal/mol)

>  <smiles>  (90) 
Cc1cc(=O)n2[nH]cc(-c3ccc(F)cc3)c2n1

>  <score_type>  (90) 
oracle

>  <origin>  (90) 
adg

>  <m_score__min__energy>  (90) 
-8.6799999999999997

>  <m_primary>  (90) 
energy

$$$$
90:0
     RDKit          3D

 59 63  0  0  0  0  0  0  0  0999 V2000
   55.9620   30.5110   44.8140 O   0  0  0  0  0  0  0  0  0  0  0  0
   56.9860   30.1590   44.1730 C   0  0  0  0  0  0  0  0  0  0  0  0
   57.0610   28.7790   43.5940 C   0  0  0  0  0  0  0  0  0  0  0  0
   58.7170   28.0290   43.7720 S   0  0  0  0  0  0  0  0  0  0  0  0
   58.1630   26.4250   44.3780 C   0  0  0  0  0  0  0  0  0  0  0  0
   57.6340   25.5440   43.4870 N   0  0  0  0  0  0  0  0  0  0  0  0
   57.1370   24.3560   43.9030 C   0  0  0  0  0  0  0  0  0  0  0  0
   57.1320   24.0290   45.2300 C   0  0  0  0  0  0  0  0  0  0  0  0
   57.6930   24.9080   46.1520 C   0  0  0  0  0  0  0  0  0  0  0  0
   57.7130   24.6000   47.3720 O   0  0  0  0  0  0  0  0  0  0  0  0
   58.2130   26.1040   45.7200 N   0  0  0  0  0  0  0  0  0  0  0  0
   58.7820   27.0220   46.6770 C   0  0  0  0  0  0  0  0  0  0  0  0
   59.9740   26.7000   47.3510 C   0  0  0  0  0  0  0  0  0  0  0  0
   60.5350   27.6030   48.2620 C   0  0  0  0  0  0  0  0  0  0  0  0
   59.9040   28.8250   48.5160 C   0  0  0  0  0  0  0  0  0  0  0  0
   60.4500   29.6960   49.3990 F   0  0  0  0  0  0  0  0  0  0  0  0
   58.7100   29.1470   47.8600 C   0  0  0  0  0  0  0  0  0  0  0  0
   58.1480   28.2480   46.9470 C   0  0  0  0  0  0  0  0  0  0  0  0
   56.3890   22.4610   45.6150 S   0  0  0  0  0  0  0  0  0  0  0  0
   56.3820   22.0610   43.8270 C   0  0  0  0  0  0  0  0  0  0  0  0
   56.5330   23.3510   43.0020 C   0  0  0  0  0  0  0  0  0  0  0  0
   58.0800   31.0670   43.9770 N   0  0  0  0  0  0  0  0  0  0  0  0
   58.3280   32.2320   44.7770 C   0  0  0  0  0  0  0  0  0  0  0  0
   58.4430   33.4790   44.1460 C   0  0  0  0  0  0  0  0  0  0  0  0
   58.8290   34.6040   44.8750 C   0  0  0  0  0  0  0  0  0  0  0  0
   59.1290   34.4920   46.2330 C   0  0  0  0  0  0  0  0  0  0  0  0
   59.0340   33.2500   46.8750 C   0  0  0  0  0  0  0  0  0  0  0  0
   59.5500   33.0800   48.5510 S   0  0  0  0  0  0  0  0  0  0  0  0
   59.6600   34.4430   49.1740 O   0  0  0  0  0  0  0  0  0  0  0  0
   58.5090   32.3050   49.3100 O   0  0  0  0  0  0  0  0  0  0  0  0
   61.1020   32.2770   48.6750 N   0  0  0  0  0  0  0  0  0  0  0  0
   61.6980   32.0320   47.3540 C   0  0  0  0  0  0  0  0  0  0  0  0
   62.7980   33.0580   47.1140 C   0  0  0  0  0  0  0  0  0  0  0  0
   62.9260   33.8440   48.4040 C   0  0  0  0  0  0  0  0  0  0  0  0
   62.0630   33.1030   49.4120 C   0  0  0  0  0  0  0  0  0  0  0  0
   58.6050   32.1270   46.1520 C   0  0  0  0  0  0  0  0  0  0  0  0
   56.3283   28.1407   44.1096 H   0  0  0  0  0  0  0  0  0  0  0  0
   56.8459   28.8579   42.5181 H   0  0  0  0  0  0  0  0  0  0  0  0
   60.4671   25.7352   47.1616 H   0  0  0  0  0  0  0  0  0  0  0  0
   61.4730   27.3511   48.7785 H   0  0  0  0  0  0  0  0  0  0  0  0
   58.2133   30.1074   48.0624 H   0  0  0  0  0  0  0  0  0  0  0  0
   57.2062   28.5012   46.4382 H   0  0  0  0  0  0  0  0  0  0  0  0
   57.2188   21.3835   43.6014 H   0  0  0  0  0  0  0  0  0  0  0  0
   55.4300   21.5745   43.5681 H   0  0  0  0  0  0  0  0  0  0  0  0
   57.1880   23.1741   42.1362 H   0  0  0  0  0  0  0  0  0  0  0  0
   55.5611   23.6939   42.6175 H   0  0  0  0  0  0  0  0  0  0  0  0
   58.7770   30.8330   43.2370 H   0  0  0  0  0  0  0  0  0  0  0  0
   58.2278   33.5705   43.0711 H   0  0  0  0  0  0  0  0  0  0  0  0
   58.8971   35.5827   44.3775 H   0  0  0  0  0  0  0  0  0  0  0  0
   59.4409   35.3808   46.8011 H   0  0  0  0  0  0  0  0  0  0  0  0
   62.1245   31.0185   47.3230 H   0  0  0  0  0  0  0  0  0  0  0  0
   60.9275   32.1207   46.5740 H   0  0  0  0  0  0  0  0  0  0  0  0
   63.7465   32.5532   46.8784 H   0  0  0  0  0  0  0  0  0  0  0  0
   62.5579   33.7145   46.2647 H   0  0  0  0  0  0  0  0  0  0  0  0
   63.9738   33.8685   48.7380 H   0  0  0  0  0  0  0  0  0  0  0  0
   62.6069   34.8895   48.2808 H   0  0  0  0  0  0  0  0  0  0  0  0
   62.6959   32.4629   50.0443 H   0  0  0  0  0  0  0  0  0  0  0  0
   61.5319   33.8195   50.0559 H   0  0  0  0  0  0  0  0  0  0  0  0
   58.4847   31.1601   46.6626 H   0  0  0  0  0  0  0  0  0  0  0  0
  1  2  2  0
  2  3  1  0
  3  4  1  0
  4  5  1  0
  5  6  2  0
  6  7  1  0
  7  8  2  0
  8  9  1  0
  9 10  2  0
  9 11  1  0
 11 12  1  0
 12 13  2  0
 13 14  1  0
 14 15  2  0
 15 16  1  0
 15 17  1  0
 17 18  2  0
  8 19  1  0
 19 20  1  0
 20 21  1  0
  2 22  1  0
 22 23  1  0
 23 24  2  0
 24 25  1  0
 25 26  2  0
 26 27  1  0
 27 28  1  0
 28 29  2  0
 28 30  2  0
 28 31  1  0
 31 32  1  0
 32 33  1  0
 33 34  1  0
 34 35  1  0
 27 36  2  0
 11  5  1  0
 18 12  1  0
 36 23  1  0
 21  7  1  0
 35 31  1  0
  3 37  1  0
  3 38  1  0
 13 39  1  0
 14 40  1  0
 17 41  1  0
 18 42  1  0
 20 43  1  0
 20 44  1  0
 21 45  1  0
 21 46  1  0
 22 47  1  0
 24 48  1  0
 25 49  1  0
 26 50  1  0
 32 51  1  0
 32 52  1  0
 33 53  1  0
 33 54  1  0
 34 55  1  0
 34 56  1  0
 35 57  1  0
 35 58  1  0
 36 59  1  0
M  END
>  <UniqueID>  (91) 
82

>  <SMILES>  (91) 
O=C(CSc1nc2c(c(=O)n1-c1ccc(F)cc1)SCC2)Nc1cccc(S(=O)(=O)N2CCCC2)c1

>  <Energy>  (91) 
79.76164456561972

>  <Genealogy>  (91) 
O=C(CSc1nc2c(c(=O)n1-c1ccc(F)cc1)SCC2)Nc1cccc(S(=O)(=O)N2CCCC2)c1 (3D coordinates assigned)
O=C(CSc1nc2c(c(=O)n1-c1ccc(F)cc1)SCC2)Nc1cccc(S(=O)(=O)N2CCCC2)c1 (nonaromatic ring conformer: 79.76164456561972 kcal/mol)

>  <smiles>  (91) 
O=C(CSc1nc2c(c(=O)n1-c1ccc(F)cc1)SCC2)Nc1cccc(S(=O)(=O)N2CCCC2)c1

>  <score_type>  (91) 
oracle

>  <origin>  (91) 
adg

>  <m_score__min__energy>  (91) 
-10.529999999999999

>  <m_primary>  (91) 
energy

$$$$
91:0
     RDKit          3D

 71 74  0  0  0  0  0  0  0  0999 V2000
   51.7910   27.5190   53.5070 C   0  0  0  0  0  0  0  0  0  0  0  0
   52.2880   28.8040   53.8640 O   0  0  0  0  0  0  0  0  0  0  0  0
   53.3780   29.4320   53.2450 C   0  0  0  0  0  0  0  0  0  0  0  0
   54.6920   29.3260   53.7390 C   0  0  0  0  0  0  0  0  0  0  0  0
   55.7440   29.9750   53.0870 C   0  0  0  0  0  0  0  0  0  0  0  0
   55.5060   30.7490   51.9430 C   0  0  0  0  0  0  0  0  0  0  0  0
   56.6110   31.3800   51.2760 N   0  0  0  0  0  0  0  0  0  0  0  0
   57.8680   30.7380   51.0080 C   0  0  0  0  0  0  0  0  0  0  0  0
   58.0050   29.4950   51.1730 O   0  0  0  0  0  0  0  0  0  0  0  0
   59.0310   31.5380   50.5680 C   0  0  0  0  0  0  0  0  0  0  0  0
   59.4770   32.5860   51.2980 C   0  0  0  0  0  0  0  0  0  0  0  0
   58.8690   32.9630   52.6210 C   0  0  0  0  0  0  0  0  0  0  0  0
   60.5610   33.3960   50.8140 N   0  0  0  0  0  0  0  0  0  0  0  0
   61.2680   33.1110   49.7610 C   0  0  0  0  0  0  0  0  0  0  0  0
   62.4390   33.9910   49.4280 C   0  0  0  0  0  0  0  0  0  0  0  0
   61.0530   31.7940   49.0440 C   0  0  2  0  0  0  0  0  0  0  0  0
   61.4550   31.8670   47.5930 C   0  0  0  0  0  0  0  0  0  0  0  0
   62.2510   31.0130   47.1140 O   0  0  0  0  0  0  0  0  0  0  0  0
   60.9200   32.9050   46.7660 N   0  0  0  0  0  0  0  0  0  0  0  0
   59.5940   32.9420   46.2180 C   0  0  0  0  0  0  0  0  0  0  0  0
   59.0020   31.7880   45.6700 C   0  0  0  0  0  0  0  0  0  0  0  0
   57.7270   31.8460   45.1070 C   0  0  0  0  0  0  0  0  0  0  0  0
   57.0310   33.0540   45.0740 C   0  0  0  0  0  0  0  0  0  0  0  0
   57.6110   34.2110   45.5960 C   0  0  0  0  0  0  0  0  0  0  0  0
   58.8970   34.1670   46.1650 C   0  0  0  0  0  0  0  0  0  0  0  0
   59.5150   35.4200   46.7180 C   0  0  0  0  0  0  0  0  0  0  0  0
   59.5780   31.3290   49.1640 C   0  0  1  0  0  0  0  0  0  0  0  0
   59.4540   29.8810   48.7040 C   0  0  0  0  0  0  0  0  0  0  0  0
   60.3020   28.8880   49.2190 C   0  0  0  0  0  0  0  0  0  0  0  0
   60.2030   27.5700   48.7740 C   0  0  0  0  0  0  0  0  0  0  0  0
   59.2680   27.2220   47.7820 C   0  0  0  0  0  0  0  0  0  0  0  0
   59.1440   25.9080   47.3050 O   0  0  0  0  0  0  0  0  0  0  0  0
   57.9120   25.2000   47.2020 C   0  0  0  0  0  0  0  0  0  0  0  0
   58.4320   28.2090   47.2410 C   0  0  0  0  0  0  0  0  0  0  0  0
   57.5220   27.8340   46.2410 O   0  0  0  0  0  0  0  0  0  0  0  0
   57.7590   27.9620   44.8430 C   0  0  0  0  0  0  0  0  0  0  0  0
   58.5290   29.5360   47.7060 C   0  0  0  0  0  0  0  0  0  0  0  0
   54.1960   30.8310   51.4350 C   0  0  0  0  0  0  0  0  0  0  0  0
   53.1430   30.1850   52.0900 C   0  0  0  0  0  0  0  0  0  0  0  0
   51.5691   26.9453   54.4190 H   0  0  0  0  0  0  0  0  0  0  0  0
   50.8722   27.6332   52.9131 H   0  0  0  0  0  0  0  0  0  0  0  0
   52.5476   26.9853   52.9131 H   0  0  0  0  0  0  0  0  0  0  0  0
   54.8915   28.7300   54.6418 H   0  0  0  0  0  0  0  0  0  0  0  0
   56.7685   29.8775   53.4753 H   0  0  0  0  0  0  0  0  0  0  0  0
   56.4850   32.3660   50.9570 H   0  0  0  0  0  0  0  0  0  0  0  0
   59.4961   32.5742   53.4368 H   0  0  0  0  0  0  0  0  0  0  0  0
   58.8064   34.0586   52.6969 H   0  0  0  0  0  0  0  0  0  0  0  0
   57.8598   32.5320   52.6969 H   0  0  0  0  0  0  0  0  0  0  0  0
   62.9086   34.3439   50.3580 H   0  0  0  0  0  0  0  0  0  0  0  0
   63.1725   33.4187   48.8411 H   0  0  0  0  0  0  0  0  0  0  0  0
   62.0934   34.8547   48.8411 H   0  0  0  0  0  0  0  0  0  0  0  0
   61.7016   31.0547   49.5367 H   0  0  0  0  0  0  0  0  0  0  0  0
   59.5489   30.8337   45.6859 H   0  0  0  0  0  0  0  0  0  0  0  0
   57.2698   30.9373   44.6884 H   0  0  0  0  0  0  0  0  0  0  0  0
   56.0229   33.0950   44.6357 H   0  0  0  0  0  0  0  0  0  0  0  0
   57.0598   35.1624   45.5624 H   0  0  0  0  0  0  0  0  0  0  0  0
   59.4970   35.3834   47.8172 H   0  0  0  0  0  0  0  0  0  0  0  0
   60.5557   35.4996   46.3708 H   0  0  0  0  0  0  0  0  0  0  0  0
   58.9447   36.2942   46.3708 H   0  0  0  0  0  0  0  0  0  0  0  0
   58.9581   31.9524   48.5029 H   0  0  0  0  0  0  0  0  0  0  0  0
   61.0511   29.1517   49.9801 H   0  0  0  0  0  0  0  0  0  0  0  0
   60.8599   26.7979   49.2011 H   0  0  0  0  0  0  0  0  0  0  0  0
   57.5299   24.9804   48.2099 H   0  0  0  0  0  0  0  0  0  0  0  0
   57.1799   25.8152   46.6583 H   0  0  0  0  0  0  0  0  0  0  0  0
   58.0749   24.2577   46.6583 H   0  0  0  0  0  0  0  0  0  0  0  0
   58.7161   28.4789   44.6792 H   0  0  0  0  0  0  0  0  0  0  0  0
   57.7988   26.9627   44.3848 H   0  0  0  0  0  0  0  0  0  0  0  0
   56.9452   28.5433   44.3848 H   0  0  0  0  0  0  0  0  0  0  0  0
   57.8724   30.3101   47.2821 H   0  0  0  0  0  0  0  0  0  0  0  0
   53.9996   31.4061   50.5181 H   0  0  0  0  0  0  0  0  0  0  0  0
   52.1205   30.2698   51.6933 H   0  0  0  0  0  0  0  0  0  0  0  0
  1  2  1  0
  2  3  1  0
  3  4  2  0
  4  5  1  0
  5  6  2  0
  6  7  1  0
  7  8  1  0
  8  9  2  0
  8 10  1  0
 10 11  2  0
 11 12  1  0
 11 13  1  0
 13 14  2  0
 14 15  1  0
 14 16  1  0
 16 17  1  0
 17 18  2  0
 17 19  1  0
 19 20  1  0
 20 21  2  0
 21 22  1  0
 22 23  2  0
 23 24  1  0
 24 25  2  0
 25 26  1  0
 16 27  1  0
 27 28  1  0
 28 29  2  0
 29 30  1  0
 30 31  2  0
 31 32  1  0
 32 33  1  0
 31 34  1  0
 34 35  1  0
 35 36  1  0
 34 37  2  0
  6 38  1  0
 38 39  2  0
 39  3  1  0
 27 10  1  0
 37 28  1  0
 25 20  1  0
  1 40  1  0
  1 41  1  0
  1 42  1  0
  4 43  1  0
  5 44  1  0
  7 45  1  0
 12 46  1  0
 12 47  1  0
 12 48  1  0
 15 49  1  0
 15 50  1  0
 15 51  1  0
 16 52  1  1
 21 53  1  0
 22 54  1  0
 23 55  1  0
 24 56  1  0
 26 57  1  0
 26 58  1  0
 26 59  1  0
 27 60  1  6
 29 61  1  0
 30 62  1  0
 33 63  1  0
 33 64  1  0
 33 65  1  0
 36 66  1  0
 36 67  1  0
 36 68  1  0
 37 69  1  0
 38 70  1  0
 39 71  1  0
M  CHG  1  19  -1
M  END
>  <UniqueID>  (92) 
83

>  <SMILES>  (92) 
COc1ccc(NC(=O)C2=C(C)N=C(C)[C@H](C(=O)[N-]c3ccccc3C)[C@H]2c2ccc(OC)c(OC)c2)cc1

>  <Energy>  (92) 
85.24411510387476

>  <Genealogy>  (92) 
COc1ccc(NC(=O)C2=C(C)N=C(C)C(C(=O)[N-]c3ccccc3C)C2c2ccc(OC)c(OC)c2)cc1 (protonated)
COc1ccc(NC(=O)C2=C(C)N=C(C)[C@H](C(=O)[N-]c3ccccc3C)[C@H]2c2ccc(OC)c(OC)c2)cc1 (chirality)
COc1ccc(NC(=O)C2=C(C)N=C(C)[C@H](C(=O)[N-]c3ccccc3C)[C@H]2c2ccc(OC)c(OC)c2)cc1 (3D coordinates assigned)
COc1ccc(NC(=O)C2=C(C)N=C(C)[C@H](C(=O)[N-]c3ccccc3C)[C@H]2c2ccc(OC)c(OC)c2)cc1 (nonaromatic ring conformer: 85.24411510387476 kcal/mol)

>  <smiles>  (92) 
COc1ccc(NC(=O)C2=C(C)N=C(C)C(C(=O)Nc3ccccc3C)C2c2ccc(OC)c(OC)c2)cc1

>  <score_type>  (92) 
oracle

>  <origin>  (92) 
adg

>  <m_score__min__energy>  (92) 
-11.01

>  <m_primary>  (92) 
energy

$$$$
92:0
     RDKit          3D

 70 75  0  0  0  0  0  0  0  0999 V2000
   62.7270   27.2860   52.8870 C   0  0  0  0  0  0  0  0  0  0  0  0
   61.3470   27.0720   52.2470 C   0  0  1  0  0  0  0  0  0  0  0  0
   60.2040   27.5170   53.2100 C   0  0  0  0  0  0  0  0  0  0  0  0
   59.3130   28.6390   52.6500 C   0  0  0  0  0  0  0  0  0  0  0  0
   60.1550   29.7590   52.0300 C   0  0  0  0  0  0  0  0  0  0  0  0
   61.1140   29.2260   51.0530 N   0  0  0  0  0  0  0  0  0  0  0  0
   62.0640   30.1180   50.4580 C   0  0  0  0  0  0  0  0  0  0  0  0
   63.1360   30.5470   51.1890 N   0  0  0  0  0  0  0  0  0  0  0  0
   64.0200   31.4670   50.6970 C   0  0  0  0  0  0  0  0  0  0  0  0
   63.8390   32.0040   49.4570 N   0  0  0  0  0  0  0  0  0  0  0  0
   62.7810   31.5900   48.7190 C   0  0  0  0  0  0  0  0  0  0  0  0
   62.4870   32.0010   47.4780 N   0  0  0  0  0  0  0  0  0  0  0  0
   61.3990   31.2920   47.1070 C   0  0  0  0  0  0  0  0  0  0  0  0
   61.0050   30.4230   48.1260 C   0  0  0  0  0  0  0  0  0  0  0  0
   59.9570   29.3870   47.9940 C   0  0  0  0  0  0  0  0  0  0  0  0
   59.4790   28.8460   49.0220 O   0  0  0  0  0  0  0  0  0  0  0  0
   59.5210   28.8990   46.6700 C   0  0  0  0  0  0  0  0  0  0  0  0
   59.0250   29.8260   45.7400 C   0  0  0  0  0  0  0  0  0  0  0  0
   58.6010   29.4120   44.4650 C   0  0  0  0  0  0  0  0  0  0  0  0
   58.1260   30.3810   43.5080 N   0  0  0  0  0  0  0  0  0  0  0  0
   57.1460   31.2820   44.1380 C   0  0  0  0  0  0  0  0  0  0  0  0
   57.8220   32.4060   44.8930 C   0  0  0  0  0  0  0  0  0  0  0  0
   58.2240   33.5630   44.2090 C   0  0  0  0  0  0  0  0  0  0  0  0
   58.8590   34.6020   44.8910 C   0  0  0  0  0  0  0  0  0  0  0  0
   59.1030   34.4980   46.2600 C   0  0  0  0  0  0  0  0  0  0  0  0
   58.7000   33.3520   46.9700 C   0  0  0  0  0  0  0  0  0  0  0  0
   58.9940   33.2280   48.4200 C   0  0  0  0  0  0  0  0  0  0  0  0
   58.2410   32.3530   49.2250 C   0  0  0  0  0  0  0  0  0  0  0  0
   58.5060   32.2440   50.5950 C   0  0  0  0  0  0  0  0  0  0  0  0
   59.5280   33.0030   51.1720 C   0  0  0  0  0  0  0  0  0  0  0  0
   60.2850   33.8730   50.3810 C   0  0  0  0  0  0  0  0  0  0  0  0
   60.0180   33.9900   49.0130 C   0  0  0  0  0  0  0  0  0  0  0  0
   58.0390   32.3180   46.2810 C   0  0  0  0  0  0  0  0  0  0  0  0
   58.7050   28.0560   44.1160 C   0  0  0  0  0  0  0  0  0  0  0  0
   59.2130   27.1290   45.0290 C   0  0  0  0  0  0  0  0  0  0  0  0
   59.6270   27.5390   46.3020 C   0  0  0  0  0  0  0  0  0  0  0  0
   60.3480   26.3410   47.3700 Cl  0  0  0  0  0  0  0  0  0  0  0  0
   61.9010   30.6420   49.1680 C   0  0  0  0  0  0  0  0  0  0  0  0
   61.2690   27.7760   50.8760 C   0  0  0  0  0  0  0  0  0  0  0  0
   62.6294   27.2709   53.9826 H   0  0  0  0  0  0  0  0  0  0  0  0
   63.4075   26.4826   52.5684 H   0  0  0  0  0  0  0  0  0  0  0  0
   63.1322   28.2577   52.5684 H   0  0  0  0  0  0  0  0  0  0  0  0
   61.2067   25.9956   52.0689 H   0  0  0  0  0  0  0  0  0  0  0  0
   59.5690   26.6436   53.4195 H   0  0  0  0  0  0  0  0  0  0  0  0
   60.6877   27.9167   54.1135 H   0  0  0  0  0  0  0  0  0  0  0  0
   58.6503   28.2195   51.8787 H   0  0  0  0  0  0  0  0  0  0  0  0
   58.7256   29.0628   53.4779 H   0  0  0  0  0  0  0  0  0  0  0  0
   59.4870   30.4719   51.5245 H   0  0  0  0  0  0  0  0  0  0  0  0
   60.7177   30.2565   52.8337 H   0  0  0  0  0  0  0  0  0  0  0  0
   64.8827   31.7758   51.3056 H   0  0  0  0  0  0  0  0  0  0  0  0
   63.0090   32.6990   46.9050 H   0  0  0  0  0  0  0  0  0  0  0  0
   60.8927   31.3864   46.1350 H   0  0  0  0  0  0  0  0  0  0  0  0
   58.9673   30.8902   46.0123 H   0  0  0  0  0  0  0  0  0  0  0  0
   58.9410   30.9340   43.1520 H   0  0  0  0  0  0  0  0  0  0  0  0
   57.6900   29.8870   42.6930 H   0  0  0  0  0  0  0  0  0  0  0  0
   56.5044   31.7136   43.3556 H   0  0  0  0  0  0  0  0  0  0  0  0
   56.5533   30.6955   44.8554 H   0  0  0  0  0  0  0  0  0  0  0  0
   58.0376   33.6518   43.1286 H   0  0  0  0  0  0  0  0  0  0  0  0
   59.1682   35.5064   44.3465 H   0  0  0  0  0  0  0  0  0  0  0  0
   59.6136   35.3168   46.7880 H   0  0  0  0  0  0  0  0  0  0  0  0
   57.4386   31.7505   48.7743 H   0  0  0  0  0  0  0  0  0  0  0  0
   57.9098   31.5608   51.2177 H   0  0  0  0  0  0  0  0  0  0  0  0
   59.7369   32.9160   52.2485 H   0  0  0  0  0  0  0  0  0  0  0  0
   61.0920   34.4665   50.8355 H   0  0  0  0  0  0  0  0  0  0  0  0
   60.6117   34.6815   48.3971 H   0  0  0  0  0  0  0  0  0  0  0  0
   57.6887   31.4329   46.8323 H   0  0  0  0  0  0  0  0  0  0  0  0
   58.3847   27.7219   43.1181 H   0  0  0  0  0  0  0  0  0  0  0  0
   59.2884   26.0688   44.7457 H   0  0  0  0  0  0  0  0  0  0  0  0
   60.4066   27.3849   50.3163 H   0  0  0  0  0  0  0  0  0  0  0  0
   62.1990   27.5816   50.3216 H   0  0  0  0  0  0  0  0  0  0  0  0
  1  2  1  0
  2  3  1  0
  3  4  1  0
  4  5  1  0
  5  6  1  0
  6  7  1  0
  7  8  2  0
  8  9  1  0
  9 10  2  0
 10 11  1  0
 11 12  1  0
 12 13  1  0
 13 14  2  0
 14 15  1  0
 15 16  2  0
 15 17  1  0
 17 18  2  0
 18 19  1  0
 19 20  1  0
 20 21  1  0
 21 22  1  0
 22 23  2  0
 23 24  1  0
 24 25  2  0
 25 26  1  0
 26 27  1  0
 27 28  2  0
 28 29  1  0
 29 30  2  0
 30 31  1  0
 31 32  2  0
 26 33  2  0
 19 34  2  0
 34 35  1  0
 35 36  2  0
 36 37  1  0
 14 38  1  0
  6 39  1  0
 39  2  1  0
 38  7  1  0
 38 11  2  0
 36 17  1  0
 33 22  1  0
 32 27  1  0
  1 40  1  0
  1 41  1  0
  1 42  1  0
  2 43  1  6
  3 44  1  0
  3 45  1  0
  4 46  1  0
  4 47  1  0
  5 48  1  0
  5 49  1  0
  9 50  1  0
 12 51  1  0
 13 52  1  0
 18 53  1  0
 20 54  1  0
 20 55  1  0
 21 56  1  0
 21 57  1  0
 23 58  1  0
 24 59  1  0
 25 60  1  0
 28 61  1  0
 29 62  1  0
 30 63  1  0
 31 64  1  0
 32 65  1  0
 33 66  1  0
 34 67  1  0
 35 68  1  0
 39 69  1  0
 39 70  1  0
M  CHG  1  20   1
M  END
>  <UniqueID>  (93) 
84

>  <SMILES>  (93) 
C[C@H]1CCCN(c2ncnc3[nH]cc(C(=O)c4cc([NH2+]Cc5cccc(-c6ccccc6)c5)ccc4Cl)c23)C1

>  <Energy>  (93) 
134.80652388930363

>  <Genealogy>  (93) 
CC1CCCN(c2ncnc3[nH]cc(C(=O)c4cc([NH2+]Cc5cccc(-c6ccccc6)c5)ccc4Cl)c23)C1 (protonated)
C[C@H]1CCCN(c2ncnc3[nH]cc(C(=O)c4cc([NH2+]Cc5cccc(-c6ccccc6)c5)ccc4Cl)c23)C1 (chirality)
C[C@H]1CCCN(c2ncnc3[nH]cc(C(=O)c4cc([NH2+]Cc5cccc(-c6ccccc6)c5)ccc4Cl)c23)C1 (3D coordinates assigned)
C[C@H]1CCCN(c2ncnc3[nH]cc(C(=O)c4cc([NH2+]Cc5cccc(-c6ccccc6)c5)ccc4Cl)c23)C1 (nonaromatic ring conformer: 134.80652388930363 kcal/mol)

>  <smiles>  (93) 
CC1CCCN(c2ncnc3[nH]cc(C(=O)c4cc(NCc5cccc(-c6ccccc6)c5)ccc4Cl)c23)C1

>  <score_type>  (93) 
oracle

>  <origin>  (93) 
adg

>  <m_score__min__energy>  (93) 
-9.6699999999999999

>  <m_primary>  (93) 
energy

$$$$
93:0
     RDKit          3D

 33 36  0  0  0  0  0  0  0  0999 V2000
   56.9270   30.2320   43.0270 O   0  0  0  0  0  0  0  0  0  0  0  0
   56.8350   30.1160   44.5230 S   0  0  0  0  0  0  0  0  0  0  0  0
   55.6410   29.2750   44.8790 O   0  0  0  0  0  0  0  0  0  0  0  0
   56.6440   31.6950   45.2110 N   0  0  0  0  0  0  0  0  0  0  0  0
   57.6890   32.6660   45.3580 C   0  0  0  0  0  0  0  0  0  0  0  0
   57.6470   33.9120   44.7100 C   0  0  0  0  0  0  0  0  0  0  0  0
   58.6910   34.8240   44.8760 C   0  0  0  0  0  0  0  0  0  0  0  0
   59.7810   34.5060   45.6880 C   0  0  0  0  0  0  0  0  0  0  0  0
   59.8420   33.2660   46.3490 C   0  0  0  0  0  0  0  0  0  0  0  0
   61.0080   32.9430   47.2080 C   0  0  0  0  0  0  0  0  0  0  0  0
   62.2700   33.5560   47.1620 C   0  0  0  0  0  0  0  0  0  0  0  0
   62.9950   32.9520   48.1060 N   0  0  0  0  0  0  0  0  0  0  0  0
   64.2480   33.0280   48.6000 C   0  0  0  0  0  0  0  0  0  0  0  0
   64.4500   32.1000   49.6330 C   0  0  0  0  0  0  0  0  0  0  0  0
   63.0090   31.2020   49.8870 S   0  0  0  0  0  0  0  0  0  0  0  0
   62.2260   32.0490   48.6710 C   0  0  0  0  0  0  0  0  0  0  0  0
   60.9790   31.9790   48.1740 N   0  0  0  0  0  0  0  0  0  0  0  0
   58.7840   32.3520   46.1740 C   0  0  0  0  0  0  0  0  0  0  0  0
   58.2790   29.3560   45.1620 C   0  0  0  0  0  0  0  0  0  0  0  0
   59.4940   29.2440   44.5040 C   0  0  0  0  0  0  0  0  0  0  0  0
   60.4620   28.5710   45.2580 C   0  0  0  0  0  0  0  0  0  0  0  0
   60.0080   28.1570   46.5050 C   0  0  0  0  0  0  0  0  0  0  0  0
   58.4010   28.6250   46.6700 S   0  0  0  0  0  0  0  0  0  0  0  0
   56.7898   34.1695   44.0706 H   0  0  0  0  0  0  0  0  0  0  0  0
   58.6545   35.7973   44.3647 H   0  0  0  0  0  0  0  0  0  0  0  0
   60.5989   35.2311   45.8119 H   0  0  0  0  0  0  0  0  0  0  0  0
   62.5934   34.3641   46.4894 H   0  0  0  0  0  0  0  0  0  0  0  0
   65.0147   33.7291   48.2386 H   0  0  0  0  0  0  0  0  0  0  0  0
   65.3872   31.9682   50.1936 H   0  0  0  0  0  0  0  0  0  0  0  0
   58.8181   31.3785   46.6850 H   0  0  0  0  0  0  0  0  0  0  0  0
   59.6779   29.6423   43.4953 H   0  0  0  0  0  0  0  0  0  0  0  0
   61.4850   28.3870   44.8981 H   0  0  0  0  0  0  0  0  0  0  0  0
   60.6000   27.6147   47.2570 H   0  0  0  0  0  0  0  0  0  0  0  0
  1  2  2  0
  2  3  2  0
  2  4  1  0
  4  5  1  0
  5  6  2  0
  6  7  1  0
  7  8  2  0
  8  9  1  0
  9 10  1  0
 10 11  2  0
 11 12  1  0
 12 13  1  0
 13 14  2  0
 14 15  1  0
 15 16  1  0
 16 17  2  0
  9 18  2  0
  2 19  1  0
 19 20  2  0
 20 21  1  0
 21 22  2  0
 22 23  1  0
 18  5  1  0
 23 19  1  0
 17 10  1  0
 16 12  1  0
  6 24  1  0
  7 25  1  0
  8 26  1  0
 11 27  1  0
 13 28  1  0
 14 29  1  0
 18 30  1  0
 20 31  1  0
 21 32  1  0
 22 33  1  0
M  CHG  1   4  -1
M  END
>  <UniqueID>  (94) 
85

>  <SMILES>  (94) 
O=S(=O)([N-]c1cccc(-c2cn3ccsc3n2)c1)c1cccs1

>  <Energy>  (94) 
146.0973521342317

>  <Genealogy>  (94) 
O=S(=O)([N-]c1cccc(-c2cn3ccsc3n2)c1)c1cccs1 (protonated)
O=S(=O)([N-]c1cccc(-c2cn3ccsc3n2)c1)c1cccs1 (3D coordinates assigned)
O=S(=O)([N-]c1cccc(-c2cn3ccsc3n2)c1)c1cccs1 (optimized conformer: 146.0973521342317 kcal/mol)

>  <smiles>  (94) 
O=S(=O)(Nc1cccc(-c2cn3ccsc3n2)c1)c1cccs1

>  <score_type>  (94) 
oracle

>  <origin>  (94) 
adg

>  <m_score__min__energy>  (94) 
-10.01

>  <m_primary>  (94) 
energy

$$$$
94:0
     RDKit          3D

 53 54  0  0  0  0  0  0  0  0999 V2000
   59.2650   34.9300   45.3190 C   0  0  0  0  0  0  0  0  0  0  0  0
   58.0220   34.0540   45.1800 C   0  0  0  0  0  0  0  0  0  0  0  0
   57.4350   33.6350   46.5330 C   0  0  0  0  0  0  0  0  0  0  0  0
   58.2070   32.5450   47.1610 N   0  0  0  0  0  0  0  0  0  0  0  0
   58.6460   32.6940   48.5600 C   0  0  0  0  0  0  0  0  0  0  0  0
   59.5200   33.9410   48.7790 C   0  0  0  0  0  0  0  0  0  0  0  0
   60.4310   33.8190   49.9970 C   0  0  0  0  0  0  0  0  0  0  0  0
   58.2730   31.2530   46.5140 C   0  0  0  0  0  0  0  0  0  0  0  0
   57.6400   31.0430   45.3300 N   0  0  0  0  0  0  0  0  0  0  0  0
   57.6910   29.8300   44.7240 C   0  0  0  0  0  0  0  0  0  0  0  0
   56.9600   29.6030   43.4440 C   0  0  0  0  0  0  0  0  0  0  0  0
   55.2070   29.7130   43.7340 Cl  0  0  0  0  0  0  0  0  0  0  0  0
   58.3560   28.8090   45.3190 N   0  0  0  0  0  0  0  0  0  0  0  0
   58.9800   29.0030   46.5060 C   0  0  0  0  0  0  0  0  0  0  0  0
   59.8510   27.6500   47.2910 S   0  0  0  0  0  0  0  0  0  0  0  0
   59.6000   28.2550   48.9970 C   0  0  0  0  0  0  0  0  0  0  0  0
   60.9290   28.6040   49.6730 C   0  0  0  0  0  0  0  0  0  0  0  0
   61.3030   30.0310   49.4010 C   0  0  0  0  0  0  0  0  0  0  0  0
   61.3950   30.8370   50.3660 O   0  0  0  0  0  0  0  0  0  0  0  0
   61.4980   30.4820   48.0520 N   0  0  0  0  0  0  0  0  0  0  0  0
   62.1540   31.7120   47.6930 C   0  0  0  0  0  0  0  0  0  0  0  0
   61.5340   32.5790   46.7790 C   0  0  0  0  0  0  0  0  0  0  0  0
   62.1630   33.7680   46.3940 C   0  0  0  0  0  0  0  0  0  0  0  0
   63.4220   34.0950   46.9080 C   0  0  0  0  0  0  0  0  0  0  0  0
   64.0570   33.2290   47.8010 C   0  0  0  0  0  0  0  0  0  0  0  0
   63.4330   32.0400   48.1890 C   0  0  0  0  0  0  0  0  0  0  0  0
   58.9420   30.2240   47.0990 N   0  0  0  0  0  0  0  0  0  0  0  0
   59.4863   35.0860   46.3852 H   0  0  0  0  0  0  0  0  0  0  0  0
   60.1194   34.4334   44.8360 H   0  0  0  0  0  0  0  0  0  0  0  0
   59.0847   35.9017   44.8360 H   0  0  0  0  0  0  0  0  0  0  0  0
   57.2569   34.6156   44.6239 H   0  0  0  0  0  0  0  0  0  0  0  0
   58.3210   33.1371   44.6509 H   0  0  0  0  0  0  0  0  0  0  0  0
   57.4388   34.5052   47.2058 H   0  0  0  0  0  0  0  0  0  0  0  0
   56.4125   33.2685   46.3591 H   0  0  0  0  0  0  0  0  0  0  0  0
   57.7559   32.7711   49.2017 H   0  0  0  0  0  0  0  0  0  0  0  0
   59.2548   31.8133   48.8125 H   0  0  0  0  0  0  0  0  0  0  0  0
   60.1450   34.0931   47.8867 H   0  0  0  0  0  0  0  0  0  0  0  0
   58.8449   34.7915   48.9546 H   0  0  0  0  0  0  0  0  0  0  0  0
   59.8294   33.8996   50.9144 H   0  0  0  0  0  0  0  0  0  0  0  0
   60.9409   32.8445   49.9773 H   0  0  0  0  0  0  0  0  0  0  0  0
   61.1794   34.6249   49.9773 H   0  0  0  0  0  0  0  0  0  0  0  0
   57.2589   30.3665   42.7107 H   0  0  0  0  0  0  0  0  0  0  0  0
   57.2051   28.6041   43.0540 H   0  0  0  0  0  0  0  0  0  0  0  0
   58.9677   29.1546   48.9673 H   0  0  0  0  0  0  0  0  0  0  0  0
   59.1182   27.4550   49.5782 H   0  0  0  0  0  0  0  0  0  0  0  0
   60.8316   28.4568   50.7587 H   0  0  0  0  0  0  0  0  0  0  0  0
   61.7146   27.9490   49.2683 H   0  0  0  0  0  0  0  0  0  0  0  0
   61.0830   29.9080   47.2860 H   0  0  0  0  0  0  0  0  0  0  0  0
   60.5485   32.3221   46.3634 H   0  0  0  0  0  0  0  0  0  0  0  0
   61.6662   34.4471   45.6855 H   0  0  0  0  0  0  0  0  0  0  0  0
   63.9117   35.0336   46.6091 H   0  0  0  0  0  0  0  0  0  0  0  0
   65.0502   33.4832   48.1998 H   0  0  0  0  0  0  0  0  0  0  0  0
   63.9419   31.3566   48.8847 H   0  0  0  0  0  0  0  0  0  0  0  0
  1  2  1  0
  2  3  1  0
  3  4  1  0
  4  5  1  0
  5  6  1  0
  6  7  1  0
  4  8  1  0
  8  9  2  0
  9 10  1  0
 10 11  1  0
 11 12  1  0
 10 13  2  0
 13 14  1  0
 14 15  1  0
 15 16  1  0
 16 17  1  0
 17 18  1  0
 18 19  2  0
 18 20  1  0
 20 21  1  0
 21 22  2  0
 22 23  1  0
 23 24  2  0
 24 25  1  0
 25 26  2  0
 14 27  2  0
 27  8  1  0
 26 21  1  0
  1 28  1  0
  1 29  1  0
  1 30  1  0
  2 31  1  0
  2 32  1  0
  3 33  1  0
  3 34  1  0
  5 35  1  0
  5 36  1  0
  6 37  1  0
  6 38  1  0
  7 39  1  0
  7 40  1  0
  7 41  1  0
 11 42  1  0
 11 43  1  0
 16 44  1  0
 16 45  1  0
 17 46  1  0
 17 47  1  0
 20 48  1  0
 22 49  1  0
 23 50  1  0
 24 51  1  0
 25 52  1  0
 26 53  1  0
M  END
>  <UniqueID>  (95) 
86

>  <SMILES>  (95) 
CCCN(CCC)c1nc(CCl)nc(SCCC(=O)Nc2ccccc2)n1

>  <Energy>  (95) 
38.70882418360294

>  <Genealogy>  (95) 
CCCN(CCC)c1nc(CCl)nc(SCCC(=O)Nc2ccccc2)n1 (3D coordinates assigned)
CCCN(CCC)c1nc(CCl)nc(SCCC(=O)Nc2ccccc2)n1 (optimized conformer: 38.70882418360294 kcal/mol)

>  <smiles>  (95) 
CCCN(CCC)c1nc(CCl)nc(SCCC(=O)Nc2ccccc2)n1

>  <score_type>  (95) 
oracle

>  <origin>  (95) 
adg

>  <m_score__min__energy>  (95) 
-6.4000000000000004

>  <m_primary>  (95) 
energy

$$$$
