0:0
     RDKit          3D

 42 44  0  0  0  0  0  0  0  0999 V2000
   56.9930   30.7020   43.3470 C   0  0  0  0  0  0  0  0  0  0  0  0
   56.6080   31.3100   44.5760 O   0  0  0  0  0  0  0  0  0  0  0  0
   57.3710   32.2730   45.2530 C   0  0  0  0  0  0  0  0  0  0  0  0
   57.7340   33.4500   44.5580 C   0  0  0  0  0  0  0  0  0  0  0  0
   58.4850   34.4580   45.1880 C   0  0  0  0  0  0  0  0  0  0  0  0
   58.8610   34.2600   46.5140 C   0  0  0  0  0  0  0  0  0  0  0  0
   59.5430   35.1080   47.3030 N   0  0  0  0  0  0  0  0  0  0  0  0
   59.6350   34.5050   48.5090 C   0  0  0  0  0  0  0  0  0  0  0  0
   59.0140   33.2600   48.4770 C   0  0  0  0  0  0  0  0  0  0  0  0
   58.8310   32.3240   49.6360 C   0  0  0  0  0  0  0  0  0  0  0  0
   59.3230   30.9080   49.3140 C   0  0  0  0  0  0  0  0  0  0  0  0
   60.2720   30.9260   48.1880 N   0  0  0  0  0  0  0  0  0  0  0  0
   61.6750   31.0720   48.6130 C   0  0  0  0  0  0  0  0  0  0  0  0
   62.3710   32.2180   47.9190 C   0  0  0  0  0  0  0  0  0  0  0  0
   61.9300   32.8120   46.7510 C   0  0  0  0  0  0  0  0  0  0  0  0
   62.8130   33.8370   46.4760 C   0  0  0  0  0  0  0  0  0  0  0  0
   63.7580   33.8290   47.4820 C   0  0  0  0  0  0  0  0  0  0  0  0
   63.4960   32.8330   48.3520 N   0  0  0  0  0  0  0  0  0  0  0  0
   64.2470   32.5680   49.5760 C   0  0  0  0  0  0  0  0  0  0  0  0
   58.5200   33.1210   47.1950 C   0  0  0  0  0  0  0  0  0  0  0  0
   57.7760   32.1020   46.5990 C   0  0  0  0  0  0  0  0  0  0  0  0
   57.5709   29.7894   43.5546 H   0  0  0  0  0  0  0  0  0  0  0  0
   56.0939   30.4430   42.7686 H   0  0  0  0  0  0  0  0  0  0  0  0
   57.6115   31.4040   42.7686 H   0  0  0  0  0  0  0  0  0  0  0  0
   57.4246   33.5786   43.5103 H   0  0  0  0  0  0  0  0  0  0  0  0
   58.7669   35.3750   44.6498 H   0  0  0  0  0  0  0  0  0  0  0  0
   59.9080   36.0510   47.0460 H   0  0  0  0  0  0  0  0  0  0  0  0
   60.1305   34.9371   49.3909 H   0  0  0  0  0  0  0  0  0  0  0  0
   59.3972   32.7095   50.4967 H   0  0  0  0  0  0  0  0  0  0  0  0
   57.7556   32.2672   49.8603 H   0  0  0  0  0  0  0  0  0  0  0  0
   59.8231   30.4901   50.2001 H   0  0  0  0  0  0  0  0  0  0  0  0
   58.4572   30.2896   49.0347 H   0  0  0  0  0  0  0  0  0  0  0  0
   60.1720   30.0410   47.6370 H   0  0  0  0  0  0  0  0  0  0  0  0
   61.6986   31.2497   49.6983 H   0  0  0  0  0  0  0  0  0  0  0  0
   62.2046   30.1461   48.3442 H   0  0  0  0  0  0  0  0  0  0  0  0
   61.0493   32.5246   46.1579 H   0  0  0  0  0  0  0  0  0  0  0  0
   62.7715   34.5269   45.6203 H   0  0  0  0  0  0  0  0  0  0  0  0
   64.6006   34.5316   47.5621 H   0  0  0  0  0  0  0  0  0  0  0  0
   63.6158   32.7907   50.4489 H   0  0  0  0  0  0  0  0  0  0  0  0
   64.5466   31.5099   49.6005 H   0  0  0  0  0  0  0  0  0  0  0  0
   65.1443   33.2038   49.6005 H   0  0  0  0  0  0  0  0  0  0  0  0
   57.5118   31.1925   47.1584 H   0  0  0  0  0  0  0  0  0  0  0  0
  1  2  1  0
  2  3  1  0
  3  4  2  0
  4  5  1  0
  5  6  2  0
  6  7  1  0
  7  8  1  0
  8  9  2  0
  9 10  1  0
 10 11  1  0
 11 12  1  0
 12 13  1  0
 13 14  1  0
 14 15  2  0
 15 16  1  0
 16 17  2  0
 17 18  1  0
 18 19  1  0
  9 20  1  0
 20 21  2  0
 21  3  1  0
 20  6  1  0
 18 14  1  0
  1 22  1  0
  1 23  1  0
  1 24  1  0
  4 25  1  0
  5 26  1  0
  7 27  1  0
  8 28  1  0
 10 29  1  0
 10 30  1  0
 11 31  1  0
 11 32  1  0
 12 33  1  0
 13 34  1  0
 13 35  1  0
 15 36  1  0
 16 37  1  0
 17 38  1  0
 19 39  1  0
 19 40  1  0
 19 41  1  0
 21 42  1  0
M  END
>  <UniqueID>  (1) 
1

>  <SMILES>  (1) 
COc1ccc2[nH]cc(CCNCc3cccn3C)c2c1

>  <Energy>  (1) 
97.50539940843991

>  <Genealogy>  (1) 
COc1ccc2[nH]cc(CCNCc3cccn3C)c2c1 (3D coordinates assigned)
COc1ccc2[nH]cc(CCNCc3cccn3C)c2c1 (optimized conformer: 97.50539940843991 kcal/mol)

>  <smiles>  (1) 
COc1ccc2[nH]cc(CCNCc3cccn3C)c2c1

>  <score_type>  (1) 
oracle

>  <origin>  (1) 
adg

>  <m_score__min__energy>  (1) 
-7.1200000000000001

>  <m_primary>  (1) 
energy

$$$$
1:0
     RDKit          3D

 45 47  0  0  0  0  0  0  0  0999 V2000
   60.7060   26.7720   46.1340 F   0  0  0  0  0  0  0  0  0  0  0  0
   59.7200   27.6560   45.8440 C   0  0  0  0  0  0  0  0  0  0  0  0
   58.4130   27.4110   46.2690 C   0  0  0  0  0  0  0  0  0  0  0  0
   57.3950   28.3200   45.9670 C   0  0  0  0  0  0  0  0  0  0  0  0
   57.6770   29.4810   45.2190 C   0  0  0  0  0  0  0  0  0  0  0  0
   56.6830   30.4020   44.8460 O   0  0  0  0  0  0  0  0  0  0  0  0
   56.9160   31.6140   44.1250 C   0  0  0  0  0  0  0  0  0  0  0  0
   57.6810   32.5960   44.9740 C   0  0  0  0  0  0  0  0  0  0  0  0
   58.7150   33.3640   44.4190 C   0  0  0  0  0  0  0  0  0  0  0  0
   59.5160   34.1610   45.2410 C   0  0  0  0  0  0  0  0  0  0  0  0
   59.3050   34.1890   46.6300 C   0  0  0  0  0  0  0  0  0  0  0  0
   60.2590   34.9430   47.5370 C   0  0  0  0  0  0  0  0  0  0  0  0
   61.4430   34.1520   47.9730 N   0  0  0  0  0  0  0  0  0  0  0  0
   62.3750   33.8610   46.8500 C   0  0  0  0  0  0  0  0  0  0  0  0
   63.3710   32.7530   47.2150 C   0  0  0  0  0  0  0  0  0  0  0  0
   62.6390   31.4280   47.4960 C   0  0  0  0  0  0  0  0  0  0  0  0
   61.2030   31.6400   48.0090 C   0  0  0  0  0  0  0  0  0  0  0  0
   61.0870   32.9560   48.7930 C   0  0  0  0  0  0  0  0  0  0  0  0
   58.1990   33.5070   47.1630 C   0  0  0  0  0  0  0  0  0  0  0  0
   57.3980   32.7110   46.3420 C   0  0  0  0  0  0  0  0  0  0  0  0
   58.9950   29.7250   44.8150 C   0  0  0  0  0  0  0  0  0  0  0  0
   60.0120   28.8160   45.1220 C   0  0  0  0  0  0  0  0  0  0  0  0
   58.1838   26.5008   46.8427 H   0  0  0  0  0  0  0  0  0  0  0  0
   56.3691   28.1285   46.3146 H   0  0  0  0  0  0  0  0  0  0  0  0
   57.4975   31.3896   43.2186 H   0  0  0  0  0  0  0  0  0  0  0  0
   55.9467   32.0582   43.8543 H   0  0  0  0  0  0  0  0  0  0  0  0
   58.8958   33.3389   43.3343 H   0  0  0  0  0  0  0  0  0  0  0  0
   60.3172   34.7706   44.7978 H   0  0  0  0  0  0  0  0  0  0  0  0
   60.6180   35.8316   46.9971 H   0  0  0  0  0  0  0  0  0  0  0  0
   59.6955   35.1951   48.4475 H   0  0  0  0  0  0  0  0  0  0  0  0
   61.9690   34.7910   48.6170 H   0  0  0  0  0  0  0  0  0  0  0  0
   61.7904   33.5413   45.9748 H   0  0  0  0  0  0  0  0  0  0  0  0
   62.9442   34.7761   46.6295 H   0  0  0  0  0  0  0  0  0  0  0  0
   64.0707   32.6077   46.3788 H   0  0  0  0  0  0  0  0  0  0  0  0
   63.9148   33.0538   48.1226 H   0  0  0  0  0  0  0  0  0  0  0  0
   62.5974   30.8445   46.5645 H   0  0  0  0  0  0  0  0  0  0  0  0
   63.1982   30.8996   48.2822 H   0  0  0  0  0  0  0  0  0  0  0  0
   60.5154   31.6707   47.1510 H   0  0  0  0  0  0  0  0  0  0  0  0
   60.9444   30.8081   48.6806 H   0  0  0  0  0  0  0  0  0  0  0  0
   60.0501   33.0661   49.1432 H   0  0  0  0  0  0  0  0  0  0  0  0
   61.7979   32.9058   49.6309 H   0  0  0  0  0  0  0  0  0  0  0  0
   57.9625   33.6005   48.2332 H   0  0  0  0  0  0  0  0  0  0  0  0
   56.5407   32.1715   46.7708 H   0  0  0  0  0  0  0  0  0  0  0  0
   59.2324   30.6393   44.2514 H   0  0  0  0  0  0  0  0  0  0  0  0
   61.0433   29.0143   44.7947 H   0  0  0  0  0  0  0  0  0  0  0  0
  1  2  1  0
  2  3  2  0
  3  4  1  0
  4  5  2  0
  5  6  1  0
  6  7  1  0
  7  8  1  0
  8  9  2  0
  9 10  1  0
 10 11  2  0
 11 12  1  0
 12 13  1  0
 13 14  1  0
 14 15  1  0
 15 16  1  0
 16 17  1  0
 17 18  1  0
 11 19  1  0
 19 20  2  0
  5 21  1  0
 21 22  2  0
 22  2  1  0
 20  8  1  0
 18 13  1  0
  3 23  1  0
  4 24  1  0
  7 25  1  0
  7 26  1  0
  9 27  1  0
 10 28  1  0
 12 29  1  0
 12 30  1  0
 13 31  1  0
 14 32  1  0
 14 33  1  0
 15 34  1  0
 15 35  1  0
 16 36  1  0
 16 37  1  0
 17 38  1  0
 17 39  1  0
 18 40  1  0
 18 41  1  0
 19 42  1  0
 20 43  1  0
 21 44  1  0
 22 45  1  0
M  CHG  1  13   1
M  END
>  <UniqueID>  (2) 
2

>  <SMILES>  (2) 
Fc1ccc(OCc2ccc(C[NH+]3CCCCC3)cc2)cc1

>  <Energy>  (2) 
55.250681667270875

>  <Genealogy>  (2) 
Fc1ccc(OCc2ccc(C[NH+]3CCCCC3)cc2)cc1 (protonated)
Fc1ccc(OCc2ccc(C[NH+]3CCCCC3)cc2)cc1 (3D coordinates assigned)
Fc1ccc(OCc2ccc(C[NH+]3CCCCC3)cc2)cc1 (nonaromatic ring conformer: 55.250681667270875 kcal/mol)

>  <smiles>  (2) 
Fc1ccc(OCc2ccc(CN3CCCCC3)cc2)cc1

>  <score_type>  (2) 
oracle

>  <origin>  (2) 
adg

>  <m_score__min__energy>  (2) 
-6.0800000000000001

>  <m_primary>  (2) 
energy

$$$$
2:0
     RDKit          3D

 57 60  0  0  0  0  0  0  0  0999 V2000
   55.1450   27.4290   46.0340 H   0  0  0  0  0  0  0  0  0  0  0  0
   55.2040   26.3860   45.9980 N   0  0  0  0  0  0  0  0  0  0  0  0
   56.8810   25.9760   45.9980 S   0  0  0  0  0  0  0  0  0  0  0  0
   57.2500   25.3750   47.3250 O   0  0  0  0  0  0  0  0  0  0  0  0
   57.1520   24.9670   44.9180 O   0  0  0  0  0  0  0  0  0  0  0  0
   57.8390   27.4240   45.7060 C   0  0  0  0  0  0  0  0  0  0  0  0
   59.2210   27.3160   45.4890 C   0  0  0  0  0  0  0  0  0  0  0  0
   59.7037   26.3278   45.5111 H   0  0  0  0  0  0  0  0  0  0  0  0
   59.9860   28.4590   45.2450 C   0  0  0  0  0  0  0  0  0  0  0  0
   61.0697   28.3702   45.0788 H   0  0  0  0  0  0  0  0  0  0  0  0
   59.3750   29.7150   45.2120 C   0  0  0  0  0  0  0  0  0  0  0  0
   59.9803   30.6112   45.0111 H   0  0  0  0  0  0  0  0  0  0  0  0
   57.9960   29.8420   45.4330 C   0  0  0  0  0  0  0  0  0  0  0  0
   57.3990   31.1470   45.3600 N   0  0  0  0  0  0  0  0  0  0  0  0
   57.9560   32.2700   45.7080 C   0  0  0  0  0  0  0  0  0  0  0  0
   58.3560   32.4400   46.9970 N   0  0  0  0  0  0  0  0  0  0  0  0
   58.9350   33.6010   47.4080 C   0  0  0  0  0  0  0  0  0  0  0  0
   59.2770   33.7810   48.7840 N   0  0  0  0  0  0  0  0  0  0  0  0
   58.9600   33.0650   49.8310 C   0  0  0  0  0  0  0  0  0  0  0  0
   58.9090   33.7250   51.0200 N   0  0  0  0  0  0  0  0  0  0  0  0
   58.5320   33.1370   52.1830 C   0  0  0  0  0  0  0  0  0  0  0  0
   58.5214   33.7199   53.1158 H   0  0  0  0  0  0  0  0  0  0  0  0
   58.1600   31.8010   52.1960 C   0  0  0  0  0  0  0  0  0  0  0  0
   57.8068   31.3305   53.1254 H   0  0  0  0  0  0  0  0  0  0  0  0
   58.2390   31.0630   51.0190 C   0  0  0  0  0  0  0  0  0  0  0  0
   57.9530   30.0009   51.0260 H   0  0  0  0  0  0  0  0  0  0  0  0
   58.6800   31.6550   49.8170 C   0  0  0  0  0  0  0  0  0  0  0  0
   59.0230   30.7710   48.7180 N   0  0  0  0  0  0  0  0  0  0  0  0
   58.1630   30.3160   48.3290 H   0  0  0  0  0  0  0  0  0  0  0  0
   59.4040   31.3070   47.9130 H   0  0  0  0  0  0  0  0  0  0  0  0
   59.9710   29.7140   49.1190 C   0  0  0  0  0  0  0  0  0  0  0  0
   59.7720   29.4441   50.1666 H   0  0  0  0  0  0  0  0  0  0  0  0
   59.8203   28.8626   48.4390 H   0  0  0  0  0  0  0  0  0  0  0  0
   61.4470   30.1470   48.9950 C   0  0  0  0  0  0  0  0  0  0  0  0
   61.9276   30.0641   49.9810 H   0  0  0  0  0  0  0  0  0  0  0  0
   61.9383   29.4898   48.2624 H   0  0  0  0  0  0  0  0  0  0  0  0
   61.5660   31.5410   48.5190 N   0  0  0  0  0  0  0  0  0  0  0  0
   62.1850   31.6380   47.1700 C   0  0  0  0  0  0  0  0  0  0  0  0
   62.4482   30.6254   46.8302 H   0  0  0  0  0  0  0  0  0  0  0  0
   61.4520   32.1143   46.5023 H   0  0  0  0  0  0  0  0  0  0  0  0
   63.4550   32.5060   47.1590 C   0  0  0  0  0  0  0  0  0  0  0  0
   64.2303   32.0100   47.7615 H   0  0  0  0  0  0  0  0  0  0  0  0
   63.7798   32.6228   46.1145 H   0  0  0  0  0  0  0  0  0  0  0  0
   63.2160   33.7960   47.6920 O   0  0  0  0  0  0  0  0  0  0  0  0
   62.5480   33.7730   48.9510 C   0  0  0  0  0  0  0  0  0  0  0  0
   63.1768   34.3091   49.6771 H   0  0  0  0  0  0  0  0  0  0  0  0
   61.5675   34.2410   48.7789 H   0  0  0  0  0  0  0  0  0  0  0  0
   62.2510   32.3740   49.5240 C   0  0  0  0  0  0  0  0  0  0  0  0
   63.1971   31.8915   49.8105 H   0  0  0  0  0  0  0  0  0  0  0  0
   61.5988   32.4801   50.4035 H   0  0  0  0  0  0  0  0  0  0  0  0
   59.0480   34.6690   46.5170 C   0  0  0  0  0  0  0  0  0  0  0  0
   59.4538   35.6366   46.8473 H   0  0  0  0  0  0  0  0  0  0  0  0
   58.6350   34.4820   45.1990 C   0  0  0  0  0  0  0  0  0  0  0  0
   58.7440   35.2955   44.4666 H   0  0  0  0  0  0  0  0  0  0  0  0
   58.0980   33.2940   44.8210 N   0  0  0  0  0  0  0  0  0  0  0  0
   57.2260   28.6860   45.6620 C   0  0  0  0  0  0  0  0  0  0  0  0
   56.1390   28.7721   45.8071 H   0  0  0  0  0  0  0  0  0  0  0  0
  1  2  1  0
  2  3  1  0
  3  4  2  0
  3  5  2  0
  3  6  1  0
  6  7  2  0
  7  8  1  0
  7  9  1  0
  9 10  1  0
  9 11  2  0
 11 12  1  0
 11 13  1  0
 13 14  1  0
 14 15  2  0
 15 16  1  0
 16 17  2  0
 17 18  1  0
 18 19  2  0
 19 20  1  0
 20 21  1  0
 21 22  1  0
 21 23  2  0
 23 24  1  0
 23 25  1  0
 25 26  1  0
 25 27  2  0
 27 28  1  0
 28 29  1  0
 28 30  1  0
 28 31  1  0
 31 32  1  0
 31 33  1  0
 31 34  1  0
 34 35  1  0
 34 36  1  0
 34 37  1  0
 37 38  1  0
 38 39  1  0
 38 40  1  0
 38 41  1  0
 41 42  1  0
 41 43  1  0
 41 44  1  0
 44 45  1  0
 45 46  1  0
 45 47  1  0
 45 48  1  0
 48 49  1  0
 48 50  1  0
 17 51  1  0
 51 52  1  0
 51 53  2  0
 53 54  1  0
 53 55  1  0
 13 56  2  0
 56 57  1  0
 56  6  1  0
 55 15  1  0
 27 19  1  0
 48 37  1  0
M  CHG  4   2  -1  20  -1  28   1  55  -1
M  END
>  <UniqueID>  (3) 
3

>  <SMILES>  (3) 
[NH-]S(=O)(=O)c1cccc(/N=c2/nc(/N=c3/[n-]cccc3[NH2+]CCN3CCOCC3)cc[n-]2)c1

>  <Energy>  (3) 
100.64786640812076

>  <Genealogy>  (3) 
[NH-]S(=O)(=O)c1cccc(N=c2nc(N=c3[n-]cccc3[NH2+]CCN3CCOCC3)cc[n-]2)c1 (protonated)
[NH-]S(=O)(=O)c1cccc(/N=c2/nc(/N=c3/[n-]cccc3[NH2+]CCN3CCOCC3)cc[n-]2)c1 (cis-trans isomerization)
[NH-]S(=O)(=O)c1cccc(/N=c2/nc(/N=c3/[n-]cccc3[NH2+]CCN3CCOCC3)cc[n-]2)c1 (3D coordinates assigned)
[NH-]S(=O)(=O)c1cccc(/N=c2/nc(/N=c3/[n-]cccc3[NH2+]CCN3CCOCC3)cc[n-]2)c1 (nonaromatic ring conformer: 100.64786640812076 kcal/mol)

>  <smiles>  (3) 
NS(=O)(=O)c1cccc(N=c2nc(N=c3[nH]cccc3NCCN3CCOCC3)cc[nH]2)c1

>  <score_type>  (3) 
oracle

>  <origin>  (3) 
adg

>  <m_score__min__energy>  (3) 
-12

>  <m_primary>  (3) 
energy

$$$$
3:0
     RDKit          3D

 48 50  0  0  1  0  0  0  0  0999 V2000
   54.9870   23.6330   45.2150 C   0  0  0  0  0  0  0  0  0  0  0  0
   55.4910   24.9750   45.6170 C   0  0  0  0  0  0  0  0  0  0  0  0
   54.7050   25.9370   45.6610 O   0  0  0  0  0  0  0  0  0  0  0  0
   56.8850   25.0720   45.9350 N   0  0  0  0  0  0  0  0  0  0  0  0
   57.4360   26.2160   46.1940 C   0  0  0  0  0  0  0  0  0  0  0  0
   58.4530   26.3400   47.1330 C   0  0  0  0  0  0  0  0  0  0  0  0
   59.0270   27.5700   47.3960 C   0  0  0  0  0  0  0  0  0  0  0  0
   58.6210   28.7180   46.7440 C   0  0  0  0  0  0  0  0  0  0  0  0
   59.1950   30.0280   46.9900 C   0  0  0  0  0  0  0  0  0  0  0  0
   60.5610   30.1740   47.1470 C   0  0  0  0  0  0  0  0  0  0  0  0
   59.0110   32.3710   47.3080 C   0  0  0  0  0  0  0  0  0  0  0  0
   58.2540   33.4000   47.3820 N   0  0  0  0  0  0  0  0  0  0  0  0
   62.8920   32.9030   47.7250 C   0  0  0  0  0  0  0  0  0  0  0  0
   63.7740   33.4570   46.6650 C   0  0  0  0  0  0  0  0  0  0  0  0
   62.6090   33.6000   48.7390 O   0  0  0  0  0  0  0  0  0  0  0  0
   60.3210   32.4850   47.4540 N   0  0  0  0  0  0  0  0  0  0  0  0
   61.1220   31.4310   47.3830 C   0  0  0  0  0  0  0  0  0  0  0  0
   62.4030   31.5830   47.5330 N   0  0  0  0  0  0  0  0  0  0  0  0
   57.3740   33.8530   46.3570 C   0  0  0  0  0  0  0  0  0  0  0  0
   57.4860   33.0700   45.0900 C   0  0  0  0  0  0  0  0  0  0  0  0
   58.3380   33.4750   44.0550 C   0  0  0  0  0  0  0  0  0  0  0  0
   58.4600   32.7780   42.8890 C   0  0  0  0  0  0  0  0  0  0  0  0
   57.7480   31.6360   42.6720 C   0  0  0  0  0  0  0  0  0  0  0  0
   56.8910   31.1950   43.6690 C   0  0  0  0  0  0  0  0  0  0  0  0
   56.7750   31.9160   44.8550 C   0  0  0  0  0  0  0  0  0  0  0  0
   58.4660   31.1600   47.0800 N   0  0  0  0  0  0  0  0  0  0  0  0
   57.6020   28.5490   45.8150 C   0  0  0  0  0  0  0  0  0  0  0  0
   57.0520   27.3280   45.5730 N   0  0  0  0  0  0  0  0  0  0  0  0
   54.7644   23.0403   46.1146 H   0  0  0  0  0  0  0  0  0  0  0  0
   54.0713   23.7493   44.6167 H   0  0  0  0  0  0  0  0  0  0  0  0
   55.7529   23.1178   44.6167 H   0  0  0  0  0  0  0  0  0  0  0  0
   58.8054   25.4490   47.6734 H   0  0  0  0  0  0  0  0  0  0  0  0
   59.8295   27.6362   48.1454 H   0  0  0  0  0  0  0  0  0  0  0  0
   61.2131   29.2903   47.0853 H   0  0  0  0  0  0  0  0  0  0  0  0
   64.6180   33.9872   47.1303 H   0  0  0  0  0  0  0  0  0  0  0  0
   64.1561   32.6364   46.0400 H   0  0  0  0  0  0  0  0  0  0  0  0
   63.2007   34.1575   46.0400 H   0  0  0  0  0  0  0  0  0  0  0  0
   60.7380   33.4200   47.6300 H   0  0  0  0  0  0  0  0  0  0  0  0
   56.3404   33.7746   46.7251 H   0  0  0  0  0  0  0  0  0  0  0  0
   57.6547   34.8906   46.1233 H   0  0  0  0  0  0  0  0  0  0  0  0
   58.9321   34.3912   44.1876 H   0  0  0  0  0  0  0  0  0  0  0  0
   59.1450   33.1439   42.1100 H   0  0  0  0  0  0  0  0  0  0  0  0
   57.8507   31.0782   41.7295 H   0  0  0  0  0  0  0  0  0  0  0  0
   56.3033   30.2766   43.5233 H   0  0  0  0  0  0  0  0  0  0  0  0
   56.0892   31.5490   45.6328 H   0  0  0  0  0  0  0  0  0  0  0  0
   57.4320   31.1290   46.9730 H   0  0  0  0  0  0  0  0  0  0  0  0
   57.2305   29.4239   45.2613 H   0  0  0  0  0  0  0  0  0  0  0  0
   56.2750   27.2230   44.8590 H   0  0  0  0  0  0  0  0  0  0  0  0
  1  2  1  0
  2  3  2  0
  2  4  1  0
  4  5  2  0
  5  6  1  0
  6  7  2  0
  7  8  1  0
  8  9  1  0
  9 10  2  0
 10 11  1  0
 11 12  2  0
 12 13  1  0
 13 14  1  0
 13 15  2  0
 11 16  1  0
 16 17  1  0
 17 18  2  0
 18 19  1  0
 19 20  1  0
 20 21  2  0
 21 22  1  0
 22 23  2  0
 23 24  1  0
 24 25  2  0
 17 26  1  0
  8 27  2  0
 27 28  1  0
 28  5  1  0
 26  9  1  0
 25 20  1  0
  1 29  1  0
  1 30  1  0
  1 31  1  0
  6 32  1  0
  7 33  1  0
 10 34  1  0
 14 35  1  0
 14 36  1  0
 14 37  1  0
 16 38  1  0
 19 39  1  0
 19 40  1  0
 21 41  1  0
 22 42  1  0
 23 43  1  0
 24 44  1  0
 25 45  1  0
 26 46  1  0
 27 47  1  0
 28 48  1  0
M  END
>  <smiles>  (4) 
CC(=O)N=c1ccc(-c2cc(=NC(C)=O)[nH]c(=NCc3ccccc3)[nH]2)c[nH]1

>  <score_type>  (4) 
oracle

>  <origin>  (4) 
adg

>  <m_score__min__energy>  (4) 
-8.25

>  <m_primary>  (4) 
energy

$$$$
4:0
     RDKit          3D

 42 43  0  0  0  0  0  0  0  0999 V2000
   59.2670   33.7910   48.1550 C   0  0  0  0  0  0  0  0  0  0  0  0
   59.7600   33.6930   46.6940 C   0  0  0  0  0  0  0  0  0  0  0  0
   61.2900   33.4650   46.7320 C   0  0  0  0  0  0  0  0  0  0  0  0
   59.5020   35.0340   45.9740 C   0  0  0  0  0  0  0  0  0  0  0  0
   58.9970   32.5670   45.9660 C   0  0  0  0  0  0  0  0  0  0  0  0
   59.2130   31.2220   46.3430 C   0  0  0  0  0  0  0  0  0  0  0  0
   58.5200   30.1800   45.7250 C   0  0  0  0  0  0  0  0  0  0  0  0
   57.5880   30.4490   44.7200 C   0  0  0  0  0  0  0  0  0  0  0  0
   56.6530   29.1350   44.0110 S   0  0  0  0  0  0  0  0  0  0  0  0
   57.5770   28.2480   43.2290 O   0  0  0  0  0  0  0  0  0  0  0  0
   55.5910   29.6750   43.0930 O   0  0  0  0  0  0  0  0  0  0  0  0
   55.8940   28.2070   45.2650 N   0  0  0  0  0  0  0  0  0  0  0  0
   56.3380   26.9200   45.7200 C   0  0  0  0  0  0  0  0  0  0  0  0
   57.6300   26.8030   46.2450 C   0  0  0  0  0  0  0  0  0  0  0  0
   58.0830   25.5790   46.7410 C   0  0  0  0  0  0  0  0  0  0  0  0
   57.2490   24.4580   46.7190 C   0  0  0  0  0  0  0  0  0  0  0  0
   57.7120   23.2550   47.2430 O   0  0  0  0  0  0  0  0  0  0  0  0
   55.9560   24.5540   46.1760 C   0  0  0  0  0  0  0  0  0  0  0  0
   54.8740   23.1590   46.1670 S   0  0  0  0  0  0  0  0  0  0  0  0
   53.7530   23.3090   44.8600 N   0  0  0  0  0  0  0  0  0  0  0  0
   55.6670   21.8940   45.9930 O   0  0  0  0  0  0  0  0  0  0  0  0
   54.1280   23.0810   47.4690 O   0  0  0  0  0  0  0  0  0  0  0  0
   55.5090   25.7850   45.6730 C   0  0  0  0  0  0  0  0  0  0  0  0
   57.3710   31.7710   44.3190 C   0  0  0  0  0  0  0  0  0  0  0  0
   58.0630   32.8190   44.9320 C   0  0  0  0  0  0  0  0  0  0  0  0
   60.1119   33.6231   48.8391 H   0  0  0  0  0  0  0  0  0  0  0  0
   58.8442   34.7908   48.3330 H   0  0  0  0  0  0  0  0  0  0  0  0
   58.4940   33.0289   48.3330 H   0  0  0  0  0  0  0  0  0  0  0  0
   61.6274   33.4147   47.7778 H   0  0  0  0  0  0  0  0  0  0  0  0
   61.5328   32.5208   46.2226 H   0  0  0  0  0  0  0  0  0  0  0  0
   61.7975   34.2974   46.2226 H   0  0  0  0  0  0  0  0  0  0  0  0
   59.3493   35.8275   46.7204 H   0  0  0  0  0  0  0  0  0  0  0  0
   60.3684   35.2847   45.3443 H   0  0  0  0  0  0  0  0  0  0  0  0
   58.6044   34.9453   45.3443 H   0  0  0  0  0  0  0  0  0  0  0  0
   59.9393   30.9927   47.1366 H   0  0  0  0  0  0  0  0  0  0  0  0
   58.7089   29.1405   46.0313 H   0  0  0  0  0  0  0  0  0  0  0  0
   58.2927   27.6807   46.2670 H   0  0  0  0  0  0  0  0  0  0  0  0
   59.1005   25.4968   47.1507 H   0  0  0  0  0  0  0  0  0  0  0  0
   54.0310   22.6080   44.1370 H   0  0  0  0  0  0  0  0  0  0  0  0
   54.5016   25.8631   45.2382 H   0  0  0  0  0  0  0  0  0  0  0  0
   56.6510   31.9873   43.5160 H   0  0  0  0  0  0  0  0  0  0  0  0
   57.8796   33.8537   44.6068 H   0  0  0  0  0  0  0  0  0  0  0  0
  1  2  1  0
  2  3  1  0
  2  4  1  0
  2  5  1  0
  5  6  2  0
  6  7  1  0
  7  8  2  0
  8  9  1  0
  9 10  2  0
  9 11  2  0
  9 12  1  0
 12 13  1  0
 13 14  2  0
 14 15  1  0
 15 16  2  0
 16 17  1  0
 16 18  1  0
 18 19  1  0
 19 20  1  0
 19 21  2  0
 19 22  2  0
 18 23  2  0
  8 24  1  0
 24 25  2  0
 25  5  1  0
 23 13  1  0
  1 26  1  0
  1 27  1  0
  1 28  1  0
  3 29  1  0
  3 30  1  0
  3 31  1  0
  4 32  1  0
  4 33  1  0
  4 34  1  0
  6 35  1  0
  7 36  1  0
 14 37  1  0
 15 38  1  0
 20 39  1  0
 23 40  1  0
 24 41  1  0
 25 42  1  0
M  CHG  3  12  -1  17  -1  20  -1
M  END
>  <UniqueID>  (5) 
4

>  <SMILES>  (5) 
CC(C)(C)c1ccc(S(=O)(=O)[N-]c2ccc([O-])c(S([NH-])(=O)=O)c2)cc1

>  <Energy>  (5) 
46.17781647693794

>  <Genealogy>  (5) 
CC(C)(C)c1ccc(S(=O)(=O)[N-]c2ccc([O-])c(S([NH-])(=O)=O)c2)cc1 (protonated)
CC(C)(C)c1ccc(S(=O)(=O)[N-]c2ccc([O-])c(S([NH-])(=O)=O)c2)cc1 (3D coordinates assigned)
CC(C)(C)c1ccc(S(=O)(=O)[N-]c2ccc([O-])c(S([NH-])(=O)=O)c2)cc1 (optimized conformer: 46.17781647693794 kcal/mol)

>  <smiles>  (5) 
CC(C)(C)c1ccc(S(=O)(=O)Nc2ccc(O)c(S(N)(=O)=O)c2)cc1

>  <score_type>  (5) 
oracle

>  <origin>  (5) 
adg

>  <m_score__min__energy>  (5) 
-14.66

>  <m_primary>  (5) 
energy

$$$$
5:0
     RDKit          3D

 50 52  0  0  0  0  0  0  0  0999 V2000
   55.1550   28.1330   44.9520 H   0  0  0  0  0  0  0  0  0  0  0  0
   55.7180   27.4610   45.4520 O   0  0  0  0  0  0  0  0  0  0  0  0
   57.1130   27.4950   45.4550 C   0  0  0  0  0  0  0  0  0  0  0  0
   57.8030   28.4370   44.6990 C   0  0  0  0  0  0  0  0  0  0  0  0
   57.2090   29.4840   43.8000 C   0  0  0  0  0  0  0  0  0  0  0  0
   56.7449   28.9865   42.9357 H   0  0  0  0  0  0  0  0  0  0  0  0
   58.0195   30.1586   43.4870 H   0  0  0  0  0  0  0  0  0  0  0  0
   56.1630   30.3130   44.5020 C   0  0  0  0  0  0  0  0  0  0  0  0
   55.0690   29.7740   44.8150 O   0  0  0  0  0  0  0  0  0  0  0  0
   56.3780   31.6880   44.8560 N   0  0  0  0  0  0  0  0  0  0  0  0
   57.6150   32.2440   45.3140 C   0  0  0  0  0  0  0  0  0  0  0  0
   58.0090   33.5390   44.9480 C   0  0  0  0  0  0  0  0  0  0  0  0
   57.3591   34.1478   44.3023 H   0  0  0  0  0  0  0  0  0  0  0  0
   59.2250   34.0590   45.4010 C   0  0  0  0  0  0  0  0  0  0  0  0
   59.5325   35.0725   45.1039 H   0  0  0  0  0  0  0  0  0  0  0  0
   60.0570   33.2900   46.2360 C   0  0  0  0  0  0  0  0  0  0  0  0
   61.2880   33.7620   46.7130 O   0  0  0  0  0  0  0  0  0  0  0  0
   62.1790   33.0030   47.5280 C   0  0  0  0  0  0  0  0  0  0  0  0
   62.0213   31.9302   47.3429 H   0  0  0  0  0  0  0  0  0  0  0  0
   61.9852   33.2248   48.5878 H   0  0  0  0  0  0  0  0  0  0  0  0
   63.6140   33.3700   47.1880 C   0  0  0  0  0  0  0  0  0  0  0  0
   64.1850   33.5160   48.1168 H   0  0  0  0  0  0  0  0  0  0  0  0
   64.0704   32.5597   46.6006 H   0  0  0  0  0  0  0  0  0  0  0  0
   63.6253   34.2999   46.6006 H   0  0  0  0  0  0  0  0  0  0  0  0
   59.6470   32.0060   46.6140 C   0  0  0  0  0  0  0  0  0  0  0  0
   60.2897   31.3985   47.2681 H   0  0  0  0  0  0  0  0  0  0  0  0
   58.4280   31.4900   46.1670 C   0  0  0  0  0  0  0  0  0  0  0  0
   58.1065   30.4878   46.4868 H   0  0  0  0  0  0  0  0  0  0  0  0
   59.4350   28.2720   45.0210 S   0  0  0  0  0  0  0  0  0  0  0  0
   59.2190   27.0190   46.1160 C   0  0  0  0  0  0  0  0  0  0  0  0
   60.2320   26.5930   46.8240 N   0  0  0  0  0  0  0  0  0  0  0  0
   60.6800   26.9260   48.1670 C   0  0  0  0  0  0  0  0  0  0  0  0
   60.0244   26.4387   48.9036 H   0  0  0  0  0  0  0  0  0  0  0  0
   61.7130   26.5748   48.3066 H   0  0  0  0  0  0  0  0  0  0  0  0
   60.6415   28.0164   48.3066 H   0  0  0  0  0  0  0  0  0  0  0  0
   57.8950   26.6510   46.2120 N   0  0  0  0  0  0  0  0  0  0  0  0
   57.3180   25.5000   46.9410 C   0  0  0  0  0  0  0  0  0  0  0  0
   57.9014   25.3344   47.8587 H   0  0  0  0  0  0  0  0  0  0  0  0
   56.2686   25.7386   47.1686 H   0  0  0  0  0  0  0  0  0  0  0  0
   57.3350   24.2280   46.1170 C   0  0  0  0  0  0  0  0  0  0  0  0
   58.5620   23.5740   45.8890 C   0  0  0  0  0  0  0  0  0  0  0  0
   59.4848   23.9794   46.3295 H   0  0  0  0  0  0  0  0  0  0  0  0
   58.6190   22.4170   45.1100 C   0  0  0  0  0  0  0  0  0  0  0  0
   59.5813   21.9075   44.9535 H   0  0  0  0  0  0  0  0  0  0  0  0
   57.4590   21.9060   44.5300 C   0  0  0  0  0  0  0  0  0  0  0  0
   57.5045   20.9878   43.9259 H   0  0  0  0  0  0  0  0  0  0  0  0
   56.2390   22.5600   44.7160 C   0  0  0  0  0  0  0  0  0  0  0  0
   55.3275   22.1589   44.2488 H   0  0  0  0  0  0  0  0  0  0  0  0
   56.1680   23.7240   45.4940 C   0  0  0  0  0  0  0  0  0  0  0  0
   54.6110   24.5330   45.6210 Cl  0  0  0  0  0  0  0  0  0  0  0  0
  1  2  1  0
  2  3  1  0
  3  4  2  0
  4  5  1  0
  5  6  1  0
  5  7  1  0
  5  8  1  0
  8  9  2  0
  8 10  1  0
 10 11  1  0
 11 12  2  0
 12 13  1  0
 12 14  1  0
 14 15  1  0
 14 16  2  0
 16 17  1  0
 17 18  1  0
 18 19  1  0
 18 20  1  0
 18 21  1  0
 21 22  1  0
 21 23  1  0
 21 24  1  0
 16 25  1  0
 25 26  1  0
 25 27  2  0
 27 28  1  0
  4 29  1  0
 29 30  1  0
 30 31  2  0
 31 32  1  0
 32 33  1  0
 32 34  1  0
 32 35  1  0
 30 36  1  0
 36 37  1  0
 37 38  1  0
 37 39  1  0
 37 40  1  0
 40 41  2  0
 41 42  1  0
 41 43  1  0
 43 44  1  0
 43 45  2  0
 45 46  1  0
 45 47  1  0
 47 48  1  0
 47 49  2  0
 49 50  1  0
 36  3  1  0
 49 40  1  0
 27 11  1  0
M  CHG  1  10  -1
M  END
>  <UniqueID>  (6) 
5

>  <SMILES>  (6) 
CCOc1ccc([N-]C(=O)Cc2s/c(=N/C)n(Cc3ccccc3Cl)c2O)cc1

>  <Energy>  (6) 
96.19119718107885

>  <Genealogy>  (6) 
CCOc1ccc([N-]C(=O)Cc2sc(=NC)n(Cc3ccccc3Cl)c2O)cc1 (protonated)
CCOc1ccc([N-]C(=O)Cc2s/c(=N/C)n(Cc3ccccc3Cl)c2O)cc1 (cis-trans isomerization)
CCOc1ccc([N-]C(=O)Cc2s/c(=N/C)n(Cc3ccccc3Cl)c2O)cc1 (3D coordinates assigned)
CCOc1ccc([N-]C(=O)Cc2s/c(=N/C)n(Cc3ccccc3Cl)c2O)cc1 (optimized conformer: 96.19119718107885 kcal/mol)

>  <smiles>  (6) 
CCOc1ccc(NC(=O)Cc2sc(=NC)n(Cc3ccccc3Cl)c2O)cc1

>  <score_type>  (6) 
oracle

>  <origin>  (6) 
adg

>  <m_score__min__energy>  (6) 
-10.550000000000001

>  <m_primary>  (6) 
energy

$$$$
6:0
     RDKit          3D

 49 52  0  0  0  0  0  0  0  0999 V2000
   58.8940   21.9170   45.0330 H   0  0  0  0  0  0  0  0  0  0  0  0
   58.6450   22.7510   45.5510 O   0  0  0  0  0  0  0  0  0  0  0  0
   57.3380   23.2410   45.5850 C   0  0  0  0  0  0  0  0  0  0  0  0
   57.0350   24.4220   46.2840 C   0  0  0  0  0  0  0  0  0  0  0  0
   58.0860   25.1840   47.0410 C   0  0  0  0  0  0  0  0  0  0  0  0
   58.9473   24.5253   47.2264 H   0  0  0  0  0  0  0  0  0  0  0  0
   57.6582   25.5273   47.9945 H   0  0  0  0  0  0  0  0  0  0  0  0
   58.5400   26.3820   46.2530 C   0  0  0  0  0  0  0  0  0  0  0  0
   59.8750   26.8120   46.3250 C   0  0  0  0  0  0  0  0  0  0  0  0
   60.5882   26.2800   46.9718 H   0  0  0  0  0  0  0  0  0  0  0  0
   60.3000   27.9130   45.5780 C   0  0  0  0  0  0  0  0  0  0  0  0
   61.3500   28.2373   45.6268 H   0  0  0  0  0  0  0  0  0  0  0  0
   59.3940   28.6030   44.7690 C   0  0  0  0  0  0  0  0  0  0  0  0
   59.7383   29.4566   44.1666 H   0  0  0  0  0  0  0  0  0  0  0  0
   58.0510   28.2140   44.7210 C   0  0  0  0  0  0  0  0  0  0  0  0
   57.1420   28.9560   43.8970 N   0  0  0  0  0  0  0  0  0  0  0  0
   56.1220   29.8450   44.3690 C   0  0  0  0  0  0  0  0  0  0  0  0
   54.9880   29.3780   44.6510 O   0  0  0  0  0  0  0  0  0  0  0  0
   56.3540   31.2520   44.5300 N   0  0  0  0  0  0  0  0  0  0  0  0
   57.4300   31.8560   45.2630 C   0  0  0  0  0  0  0  0  0  0  0  0
   57.8140   33.1640   44.9440 C   0  0  0  0  0  0  0  0  0  0  0  0
   57.2926   33.7064   44.1416 H   0  0  0  0  0  0  0  0  0  0  0  0
   58.8560   33.7850   45.6390 C   0  0  0  0  0  0  0  0  0  0  0  0
   59.1500   34.8139   45.3843 H   0  0  0  0  0  0  0  0  0  0  0  0
   59.5250   33.0990   46.6580 C   0  0  0  0  0  0  0  0  0  0  0  0
   60.9330   33.9540   47.6230 Br  0  0  0  0  0  0  0  0  0  0  0  0
   59.1700   31.7820   46.9610 C   0  0  0  0  0  0  0  0  0  0  0  0
   59.7036   31.2378   47.7541 H   0  0  0  0  0  0  0  0  0  0  0  0
   58.1370   31.1550   46.2570 C   0  0  0  0  0  0  0  0  0  0  0  0
   57.8764   30.1101   46.4812 H   0  0  0  0  0  0  0  0  0  0  0  0
   57.6290   27.0920   45.4550 C   0  0  0  0  0  0  0  0  0  0  0  0
   56.5789   26.7684   45.4038 H   0  0  0  0  0  0  0  0  0  0  0  0
   55.7610   24.8970   46.2720 N   0  0  0  0  0  0  0  0  0  0  0  0
   54.7650   24.2530   45.6090 C   0  0  0  0  0  0  0  0  0  0  0  0
   53.5600   24.7400   45.6490 N   0  0  0  0  0  0  0  0  0  0  0  0
   52.3270   24.0520   45.3740 C   0  0  0  0  0  0  0  0  0  0  0  0
   51.9960   22.9370   46.1550 C   0  0  0  0  0  0  0  0  0  0  0  0
   52.6886   22.5931   46.9373 H   0  0  0  0  0  0  0  0  0  0  0  0
   50.7910   22.2580   45.9470 C   0  0  0  0  0  0  0  0  0  0  0  0
   50.5474   21.3730   46.5532 H   0  0  0  0  0  0  0  0  0  0  0  0
   49.8970   22.7020   44.9710 C   0  0  0  0  0  0  0  0  0  0  0  0
   48.9528   22.1630   44.8037 H   0  0  0  0  0  0  0  0  0  0  0  0
   50.2020   23.8310   44.2070 C   0  0  0  0  0  0  0  0  0  0  0  0
   49.4931   24.1853   43.4441 H   0  0  0  0  0  0  0  0  0  0  0  0
   51.4070   24.5120   44.4100 C   0  0  0  0  0  0  0  0  0  0  0  0
   51.6372   25.4087   43.8159 H   0  0  0  0  0  0  0  0  0  0  0  0
   55.0390   23.0890   44.9590 N   0  0  0  0  0  0  0  0  0  0  0  0
   56.2940   22.5750   44.9270 C   0  0  0  0  0  0  0  0  0  0  0  0
   56.5110   21.5040   44.3010 O   0  0  0  0  0  0  0  0  0  0  0  0
  1  2  1  0
  2  3  1  0
  3  4  2  0
  4  5  1  0
  5  6  1  0
  5  7  1  0
  5  8  1  0
  8  9  2  0
  9 10  1  0
  9 11  1  0
 11 12  1  0
 11 13  2  0
 13 14  1  0
 13 15  1  0
 15 16  1  0
 16 17  1  0
 17 18  2  0
 17 19  1  0
 19 20  1  0
 20 21  2  0
 21 22  1  0
 21 23  1  0
 23 24  1  0
 23 25  2  0
 25 26  1  0
 25 27  1  0
 27 28  1  0
 27 29  2  0
 29 30  1  0
 15 31  2  0
 31 32  1  0
  4 33  1  0
 33 34  1  0
 34 35  2  0
 35 36  1  0
 36 37  2  0
 37 38  1  0
 37 39  1  0
 39 40  1  0
 39 41  2  0
 41 42  1  0
 41 43  1  0
 43 44  1  0
 43 45  2  0
 45 46  1  0
 34 47  1  0
 47 48  1  0
 48 49  2  0
 48  3  1  0
 31  8  1  0
 45 36  1  0
 29 20  1  0
M  CHG  4  16  -1  19  -1  33  -1  47  -1
M  END
>  <UniqueID>  (7) 
6

>  <SMILES>  (7) 
O=C([N-]c1ccc(Br)cc1)[N-]c1cccc(Cc2[n-]/c(=N/c3ccccc3)[n-]c(=O)c2O)c1

>  <Energy>  (7) 
62.4734239430975

>  <Genealogy>  (7) 
O=C([N-]c1ccc(Br)cc1)[N-]c1cccc(Cc2[n-]c(=Nc3ccccc3)[n-]c(=O)c2O)c1 (protonated)
O=C([N-]c1ccc(Br)cc1)[N-]c1cccc(Cc2[n-]/c(=N/c3ccccc3)[n-]c(=O)c2O)c1 (cis-trans isomerization)
O=C([N-]c1ccc(Br)cc1)[N-]c1cccc(Cc2[n-]/c(=N/c3ccccc3)[n-]c(=O)c2O)c1 (3D coordinates assigned)
O=C([N-]c1ccc(Br)cc1)[N-]c1cccc(Cc2[n-]/c(=N/c3ccccc3)[n-]c(=O)c2O)c1 (optimized conformer: 62.4734239430975 kcal/mol)

>  <smiles>  (7) 
O=C(Nc1ccc(Br)cc1)Nc1cccc(Cc2[nH]c(=Nc3ccccc3)[nH]c(=O)c2O)c1

>  <score_type>  (7) 
oracle

>  <origin>  (7) 
adg

>  <m_score__min__energy>  (7) 
-14.529999999999999

>  <m_primary>  (7) 
energy

$$$$
7:0
     RDKit          3D

 66 69  0  0  0  0  0  0  0  0999 V2000
   59.6720   34.5970   49.0340 C   0  0  0  0  0  0  0  0  0  0  0  0
   60.9200   34.0670   48.3780 C   0  0  0  0  0  0  0  0  0  0  0  0
   61.9460   33.5230   49.1700 C   0  0  0  0  0  0  0  0  0  0  0  0
   63.1030   33.0090   48.5770 C   0  0  0  0  0  0  0  0  0  0  0  0
   63.2450   33.0250   47.1880 C   0  0  0  0  0  0  0  0  0  0  0  0
   62.2290   33.5490   46.3870 C   0  0  0  0  0  0  0  0  0  0  0  0
   61.0640   34.0700   46.9710 C   0  0  0  0  0  0  0  0  0  0  0  0
   60.0110   34.6080   46.0930 C   0  0  0  0  0  0  0  0  0  0  0  0
   59.6420   35.8010   46.2360 O   0  0  0  0  0  0  0  0  0  0  0  0
   59.4130   33.8050   45.0740 N   0  0  0  0  0  0  0  0  0  0  0  0
   58.1310   33.1250   45.2290 C   0  0  0  0  0  0  0  0  0  0  0  0
   57.7910   32.3440   43.9620 C   0  0  0  0  0  0  0  0  0  0  0  0
   57.2320   30.9880   44.2890 C   0  0  0  0  0  0  0  0  0  0  0  0
   55.9220   30.7730   44.5190 N   0  0  0  0  0  0  0  0  0  0  0  0
   55.7910   29.5030   44.8680 N   0  0  0  0  0  0  0  0  0  0  0  0
   57.0230   28.9610   44.8490 C   0  0  0  0  0  0  0  0  0  0  0  0
   57.3600   27.2540   45.3010 S   0  0  0  0  0  0  0  0  0  0  0  0
   58.0010   27.6450   46.9700 C   0  0  0  0  0  0  0  0  0  0  0  0
   59.4970   27.6410   47.0010 C   0  0  0  0  0  0  0  0  0  0  0  0
   60.1150   26.5600   46.8030 O   0  0  0  0  0  0  0  0  0  0  0  0
   60.2020   28.8310   47.3780 N   0  0  0  0  0  0  0  0  0  0  0  0
   59.9790   29.6800   48.5140 C   0  0  0  0  0  0  0  0  0  0  0  0
   60.7480   29.5980   49.6890 C   0  0  0  0  0  0  0  0  0  0  0  0
   60.4920   30.4620   50.7600 C   0  0  0  0  0  0  0  0  0  0  0  0
   59.4800   31.4250   50.6650 C   0  0  0  0  0  0  0  0  0  0  0  0
   59.1540   32.5110   52.0160 S   0  0  0  0  0  0  0  0  0  0  0  0
   58.6000   33.8070   51.4860 O   0  0  0  0  0  0  0  0  0  0  0  0
   60.4510   32.8190   52.7120 O   0  0  0  0  0  0  0  0  0  0  0  0
   58.0310   31.8280   53.1740 N   0  0  0  0  0  0  0  0  0  0  0  0
   58.3990   30.4570   53.5850 C   0  0  0  0  0  0  0  0  0  0  0  0
   57.5590   29.3760   52.8880 C   0  0  0  0  0  0  0  0  0  0  0  0
   57.1360   29.8190   51.6200 O   0  0  0  0  0  0  0  0  0  0  0  0
   56.1780   30.8460   51.7720 C   0  0  0  0  0  0  0  0  0  0  0  0
   56.6240   31.9610   52.7470 C   0  0  0  0  0  0  0  0  0  0  0  0
   58.7370   31.5300   49.4830 C   0  0  0  0  0  0  0  0  0  0  0  0
   58.9870   30.6620   48.4160 C   0  0  0  0  0  0  0  0  0  0  0  0
   57.9560   29.8650   44.4870 N   0  0  0  0  0  0  0  0  0  0  0  0
   59.4080   29.7050   44.4970 C   0  0  0  0  0  0  0  0  0  0  0  0
   59.7839   34.5495   50.1273 H   0  0  0  0  0  0  0  0  0  0  0  0
   59.5114   35.6410   48.7269 H   0  0  0  0  0  0  0  0  0  0  0  0
   58.8092   33.9876   48.7269 H   0  0  0  0  0  0  0  0  0  0  0  0
   61.8377   33.5016   50.2644 H   0  0  0  0  0  0  0  0  0  0  0  0
   63.9030   32.5912   49.2058 H   0  0  0  0  0  0  0  0  0  0  0  0
   64.1585   32.6242   46.7245 H   0  0  0  0  0  0  0  0  0  0  0  0
   62.3420   33.5536   45.2928 H   0  0  0  0  0  0  0  0  0  0  0  0
   58.1891   32.4299   46.0796 H   0  0  0  0  0  0  0  0  0  0  0  0
   57.3468   33.8750   45.4093 H   0  0  0  0  0  0  0  0  0  0  0  0
   57.0456   32.9085   43.3825 H   0  0  0  0  0  0  0  0  0  0  0  0
   58.7146   32.2074   43.3804 H   0  0  0  0  0  0  0  0  0  0  0  0
   57.6406   28.6411   47.2664 H   0  0  0  0  0  0  0  0  0  0  0  0
   57.6406   26.8733   47.6662 H   0  0  0  0  0  0  0  0  0  0  0  0
   61.5531   28.8525   49.7664 H   0  0  0  0  0  0  0  0  0  0  0  0
   61.0887   30.3841   51.6808 H   0  0  0  0  0  0  0  0  0  0  0  0
   59.4583   30.2900   53.3401 H   0  0  0  0  0  0  0  0  0  0  0  0
   58.2097   30.3752   54.6655 H   0  0  0  0  0  0  0  0  0  0  0  0
   58.1664   28.4666   52.7693 H   0  0  0  0  0  0  0  0  0  0  0  0
   56.6726   29.1634   53.5037 H   0  0  0  0  0  0  0  0  0  0  0  0
   55.9918   31.2981   50.7866 H   0  0  0  0  0  0  0  0  0  0  0  0
   55.2728   30.3864   52.1956 H   0  0  0  0  0  0  0  0  0  0  0  0
   56.5001   32.9331   52.2474 H   0  0  0  0  0  0  0  0  0  0  0  0
   55.9985   31.8784   53.6481 H   0  0  0  0  0  0  0  0  0  0  0  0
   57.9543   32.2977   49.3936 H   0  0  0  0  0  0  0  0  0  0  0  0
   58.3985   30.7518   47.4910 H   0  0  0  0  0  0  0  0  0  0  0  0
   59.7654   29.6656   45.5366 H   0  0  0  0  0  0  0  0  0  0  0  0
   59.6776   28.7717   43.9810 H   0  0  0  0  0  0  0  0  0  0  0  0
   59.8744   30.5572   43.9810 H   0  0  0  0  0  0  0  0  0  0  0  0
  1  2  1  0
  2  3  2  0
  3  4  1  0
  4  5  2  0
  5  6  1  0
  6  7  2  0
  7  8  1  0
  8  9  2  0
  8 10  1  0
 10 11  1  0
 11 12  1  0
 12 13  1  0
 13 14  2  0
 14 15  1  0
 15 16  2  0
 16 17  1  0
 17 18  1  0
 18 19  1  0
 19 20  2  0
 19 21  1  0
 21 22  1  0
 22 23  2  0
 23 24  1  0
 24 25  2  0
 25 26  1  0
 26 27  2  0
 26 28  2  0
 26 29  1  0
 29 30  1  0
 30 31  1  0
 31 32  1  0
 32 33  1  0
 33 34  1  0
 25 35  1  0
 35 36  2  0
 16 37  1  0
 37 38  1  0
  7  2  1  0
 37 13  1  0
 36 22  1  0
 34 29  1  0
  1 39  1  0
  1 40  1  0
  1 41  1  0
  3 42  1  0
  4 43  1  0
  5 44  1  0
  6 45  1  0
 11 46  1  0
 11 47  1  0
 12 48  1  0
 12 49  1  0
 18 50  1  0
 18 51  1  0
 23 52  1  0
 24 53  1  0
 30 54  1  0
 30 55  1  0
 31 56  1  0
 31 57  1  0
 33 58  1  0
 33 59  1  0
 34 60  1  0
 34 61  1  0
 35 62  1  0
 36 63  1  0
 38 64  1  0
 38 65  1  0
 38 66  1  0
M  CHG  2  10  -1  21  -1
M  END
>  <UniqueID>  (8) 
7

>  <SMILES>  (8) 
Cc1ccccc1C(=O)[N-]CCc1nnc(SCC(=O)[N-]c2ccc(S(=O)(=O)N3CCOCC3)cc2)n1C

>  <Energy>  (8) 
115.40945377157206

>  <Genealogy>  (8) 
Cc1ccccc1C(=O)[N-]CCc1nnc(SCC(=O)[N-]c2ccc(S(=O)(=O)N3CCOCC3)cc2)n1C (protonated)
Cc1ccccc1C(=O)[N-]CCc1nnc(SCC(=O)[N-]c2ccc(S(=O)(=O)N3CCOCC3)cc2)n1C (3D coordinates assigned)
Cc1ccccc1C(=O)[N-]CCc1nnc(SCC(=O)[N-]c2ccc(S(=O)(=O)N3CCOCC3)cc2)n1C (nonaromatic ring conformer: 115.40945377157206 kcal/mol)

>  <smiles>  (8) 
Cc1ccccc1C(=O)NCCc1nnc(SCC(=O)Nc2ccc(S(=O)(=O)N3CCOCC3)cc2)n1C

>  <score_type>  (8) 
oracle

>  <origin>  (8) 
adg

>  <m_score__min__energy>  (8) 
-13.58

>  <m_primary>  (8) 
energy

$$$$
8:0
     RDKit          3D

 74 78  0  0  0  0  0  0  0  0999 V2000
   57.3520   22.4400   49.2590 O   0  0  0  0  0  0  0  0  0  0  0  0
   56.2260   22.0880   48.8210 C   0  0  0  0  0  0  0  0  0  0  0  0
   55.0510   22.1020   49.7270 C   0  0  0  0  0  0  0  0  0  0  0  0
   55.1560   21.6820   51.0690 C   0  0  0  0  0  0  0  0  0  0  0  0
   54.0310   21.7250   51.8950 C   0  0  0  0  0  0  0  0  0  0  0  0
   52.8450   22.1780   51.4110 N   0  0  0  0  0  0  0  0  0  0  0  0
   52.7120   22.5970   50.1270 C   0  0  0  0  0  0  0  0  0  0  0  0
   53.8070   22.5680   49.2600 C   0  0  0  0  0  0  0  0  0  0  0  0
   56.1070   21.6930   47.4020 C   0  0  0  0  0  0  0  0  0  0  0  0
   56.3110   20.3540   47.0400 C   0  0  0  0  0  0  0  0  0  0  0  0
   56.2110   19.9550   45.7060 C   0  0  0  0  0  0  0  0  0  0  0  0
   55.9210   20.8960   44.7160 C   0  0  0  0  0  0  0  0  0  0  0  0
   55.7310   22.2350   45.0620 C   0  0  0  0  0  0  0  0  0  0  0  0
   55.8050   22.6390   46.4030 C   0  0  0  0  0  0  0  0  0  0  0  0
   55.6440   24.0240   46.7290 N   0  0  0  0  0  0  0  0  0  0  0  0
   56.5600   25.0680   46.3330 C   0  0  0  0  0  0  0  0  0  0  0  0
   57.9310   24.7690   46.2850 C   0  0  0  0  0  0  0  0  0  0  0  0
   58.8590   25.7390   45.9030 C   0  0  0  0  0  0  0  0  0  0  0  0
   58.4330   27.0210   45.5560 C   0  0  0  0  0  0  0  0  0  0  0  0
   57.0670   27.3460   45.5880 C   0  0  0  0  0  0  0  0  0  0  0  0
   56.6130   28.6540   45.2010 N   0  0  0  0  0  0  0  0  0  0  0  0
   56.5740   29.1120   43.8110 C   0  0  0  0  0  0  0  0  0  0  0  0
   56.0120   30.5370   43.7230 C   0  0  0  0  0  0  0  0  0  0  0  0
   57.1170   31.5950   43.8200 C   0  0  0  0  0  0  0  0  0  0  0  0
   57.6390   31.6370   45.2030 N   0  0  0  0  0  0  0  0  0  0  0  0
   57.2370   32.8400   45.9750 C   0  0  0  0  0  0  0  0  0  0  0  0
   58.3580   33.4800   46.7640 C   0  0  0  0  0  0  0  0  0  0  0  0
   58.5750   33.1270   48.1080 C   0  0  0  0  0  0  0  0  0  0  0  0
   59.6430   33.6820   48.8210 C   0  0  0  0  0  0  0  0  0  0  0  0
   60.5030   34.5930   48.2010 C   0  0  0  0  0  0  0  0  0  0  0  0
   60.3070   34.9370   46.8600 C   0  0  0  0  0  0  0  0  0  0  0  0
   59.2450   34.3750   46.1410 C   0  0  0  0  0  0  0  0  0  0  0  0
   59.0750   31.2960   45.2760 C   0  0  0  0  0  0  0  0  0  0  0  0
   59.3400   30.2360   46.3120 C   0  0  0  0  0  0  0  0  0  0  0  0
   60.4650   29.4000   46.1960 C   0  0  0  0  0  0  0  0  0  0  0  0
   60.7420   28.4510   47.1880 C   0  0  0  0  0  0  0  0  0  0  0  0
   59.9040   28.3390   48.3020 C   0  0  0  0  0  0  0  0  0  0  0  0
   58.7940   29.1800   48.4340 C   0  0  0  0  0  0  0  0  0  0  0  0
   58.5160   30.1300   47.4460 C   0  0  0  0  0  0  0  0  0  0  0  0
   56.1290   26.3700   45.9760 C   0  0  0  0  0  0  0  0  0  0  0  0
   54.7780   26.7080   46.0040 O   0  0  0  0  0  0  0  0  0  0  0  0
   56.1182   21.3227   51.4627 H   0  0  0  0  0  0  0  0  0  0  0  0
   54.1051   21.3912   52.9405 H   0  0  0  0  0  0  0  0  0  0  0  0
   51.7381   22.9609   49.7676 H   0  0  0  0  0  0  0  0  0  0  0  0
   53.6981   22.9070   48.2192 H   0  0  0  0  0  0  0  0  0  0  0  0
   56.5521   19.6109   47.8144 H   0  0  0  0  0  0  0  0  0  0  0  0
   56.3606   18.8995   45.4348 H   0  0  0  0  0  0  0  0  0  0  0  0
   55.8423   20.5825   43.6645 H   0  0  0  0  0  0  0  0  0  0  0  0
   55.5220   22.9778   44.2781 H   0  0  0  0  0  0  0  0  0  0  0  0
   54.7470   24.2900   47.1980 H   0  0  0  0  0  0  0  0  0  0  0  0
   58.2774   23.7595   46.5513 H   0  0  0  0  0  0  0  0  0  0  0  0
   59.9304   25.4915   45.8755 H   0  0  0  0  0  0  0  0  0  0  0  0
   59.1699   27.7806   45.2560 H   0  0  0  0  0  0  0  0  0  0  0  0
   56.3330   29.3300   45.9520 H   0  0  0  0  0  0  0  0  0  0  0  0
   57.5937   29.1003   43.3986 H   0  0  0  0  0  0  0  0  0  0  0  0
   55.9209   28.4390   43.2360 H   0  0  0  0  0  0  0  0  0  0  0  0
   55.4905   30.6547   42.7617 H   0  0  0  0  0  0  0  0  0  0  0  0
   55.3240   30.6846   44.5685 H   0  0  0  0  0  0  0  0  0  0  0  0
   57.9325   31.3381   43.1279 H   0  0  0  0  0  0  0  0  0  0  0  0
   56.7062   32.5799   43.5530 H   0  0  0  0  0  0  0  0  0  0  0  0
   56.8437   33.5862   45.2690 H   0  0  0  0  0  0  0  0  0  0  0  0
   56.4879   32.5065   46.7082 H   0  0  0  0  0  0  0  0  0  0  0  0
   57.9014   32.4107   48.6011 H   0  0  0  0  0  0  0  0  0  0  0  0
   59.8064   33.4009   49.8718 H   0  0  0  0  0  0  0  0  0  0  0  0
   61.3335   35.0390   48.7678 H   0  0  0  0  0  0  0  0  0  0  0  0
   60.9871   35.6492   46.3698 H   0  0  0  0  0  0  0  0  0  0  0  0
   59.1039   34.6356   45.0817 H   0  0  0  0  0  0  0  0  0  0  0  0
   59.4046   30.9259   44.2940 H   0  0  0  0  0  0  0  0  0  0  0  0
   59.6302   32.2020   45.5604 H   0  0  0  0  0  0  0  0  0  0  0  0
   61.1291   29.4917   45.3239 H   0  0  0  0  0  0  0  0  0  0  0  0
   61.6187   27.7937   47.0909 H   0  0  0  0  0  0  0  0  0  0  0  0
   60.1183   27.5877   49.0764 H   0  0  0  0  0  0  0  0  0  0  0  0
   58.1402   29.0942   49.3144 H   0  0  0  0  0  0  0  0  0  0  0  0
   57.6486   30.7973   47.5568 H   0  0  0  0  0  0  0  0  0  0  0  0
  1  2  2  0
  2  3  1  0
  3  4  2  0
  4  5  1  0
  5  6  2  0
  6  7  1  0
  7  8  2  0
  2  9  1  0
  9 10  2  0
 10 11  1  0
 11 12  2  0
 12 13  1  0
 13 14  2  0
 14 15  1  0
 15 16  1  0
 16 17  2  0
 17 18  1  0
 18 19  2  0
 19 20  1  0
 20 21  1  0
 21 22  1  0
 22 23  1  0
 23 24  1  0
 24 25  1  0
 25 26  1  0
 26 27  1  0
 27 28  2  0
 28 29  1  0
 29 30  2  0
 30 31  1  0
 31 32  2  0
 25 33  1  0
 33 34  1  0
 34 35  2  0
 35 36  1  0
 36 37  2  0
 37 38  1  0
 38 39  2  0
 20 40  2  0
 40 41  1  0
  8  3  1  0
 14  9  1  0
 40 16  1  0
 32 27  1  0
 39 34  1  0
  4 42  1  0
  5 43  1  0
  7 44  1  0
  8 45  1  0
 10 46  1  0
 11 47  1  0
 12 48  1  0
 13 49  1  0
 15 50  1  0
 17 51  1  0
 18 52  1  0
 19 53  1  0
 21 54  1  0
 22 55  1  0
 22 56  1  0
 23 57  1  0
 23 58  1  0
 24 59  1  0
 24 60  1  0
 26 61  1  0
 26 62  1  0
 28 63  1  0
 29 64  1  0
 30 65  1  0
 31 66  1  0
 32 67  1  0
 33 68  1  0
 33 69  1  0
 35 70  1  0
 36 71  1  0
 37 72  1  0
 38 73  1  0
 39 74  1  0
M  CHG  1  41  -1
M  END
>  <UniqueID>  (9) 
8

>  <SMILES>  (9) 
O=C(c1ccncc1)c1ccccc1Nc1cccc(NCCCN(Cc2ccccc2)Cc2ccccc2)c1[O-]

>  <Energy>  (9) 
100.3447755518226

>  <Genealogy>  (9) 
O=C(c1ccncc1)c1ccccc1Nc1cccc(NCCCN(Cc2ccccc2)Cc2ccccc2)c1[O-] (protonated)
O=C(c1ccncc1)c1ccccc1Nc1cccc(NCCCN(Cc2ccccc2)Cc2ccccc2)c1[O-] (3D coordinates assigned)
O=C(c1ccncc1)c1ccccc1Nc1cccc(NCCCN(Cc2ccccc2)Cc2ccccc2)c1[O-] (optimized conformer: 100.3447755518226 kcal/mol)

>  <smiles>  (9) 
O=C(c1ccncc1)c1ccccc1Nc1cccc(NCCCN(Cc2ccccc2)Cc2ccccc2)c1O

>  <score_type>  (9) 
oracle

>  <origin>  (9) 
adg

>  <m_score__min__energy>  (9) 
-14.630000000000001

>  <m_primary>  (9) 
energy

$$$$
9:0
     RDKit          3D

 35 36  0  0  0  0  0  0  0  0999 V2000
   54.8440   26.3390   45.9760 N   0  0  0  0  0  0  0  0  0  0  0  0
   56.5370   25.9960   45.9390 S   0  0  0  0  0  0  0  0  0  0  0  0
   56.7990   24.8680   44.9810 O   0  0  0  0  0  0  0  0  0  0  0  0
   56.9960   25.5810   47.3100 O   0  0  0  0  0  0  0  0  0  0  0  0
   57.4180   27.4330   45.4260 C   0  0  0  0  0  0  0  0  0  0  0  0
   58.7560   27.3300   45.0230 C   0  0  0  0  0  0  0  0  0  0  0  0
   59.4450   28.4640   44.5850 C   0  0  0  0  0  0  0  0  0  0  0  0
   58.8020   29.7050   44.5500 C   0  0  0  0  0  0  0  0  0  0  0  0
   57.4700   29.8260   44.9660 C   0  0  0  0  0  0  0  0  0  0  0  0
   56.8420   31.1130   44.8970 N   0  0  0  0  0  0  0  0  0  0  0  0
   57.4000   32.3050   44.3290 C   0  0  0  0  0  0  0  0  0  0  0  0
   57.8260   32.3160   43.1420 O   0  0  0  0  0  0  0  0  0  0  0  0
   57.3950   33.5700   45.1240 C   0  0  0  0  0  0  0  0  0  0  0  0
   58.6710   34.2600   44.9850 N   0  0  0  0  0  0  0  0  0  0  0  0
   59.5200   34.5850   46.0910 C   0  0  0  0  0  0  0  0  0  0  0  0
   59.3360   35.6450   46.7490 O   0  0  0  0  0  0  0  0  0  0  0  0
   60.6630   33.6860   46.4350 C   0  0  0  0  0  0  0  0  0  0  0  0
   60.1520   32.4170   47.0370 C   0  0  0  0  0  0  0  0  0  0  0  0
   60.7690   31.1740   46.9590 C   0  0  0  0  0  0  0  0  0  0  0  0
   60.0960   30.1810   47.6830 C   0  0  0  0  0  0  0  0  0  0  0  0
   58.9620   30.6410   48.3400 C   0  0  0  0  0  0  0  0  0  0  0  0
   58.7960   32.2860   48.0220 S   0  0  0  0  0  0  0  0  0  0  0  0
   56.7730   28.6770   45.3840 C   0  0  0  0  0  0  0  0  0  0  0  0
   54.7000   27.0760   46.7030 H   0  0  0  0  0  0  0  0  0  0  0  0
   59.2647   26.3551   45.0515 H   0  0  0  0  0  0  0  0  0  0  0  0
   60.4948   28.3802   44.2673 H   0  0  0  0  0  0  0  0  0  0  0  0
   59.3458   30.5922   44.1934 H   0  0  0  0  0  0  0  0  0  0  0  0
   56.5878   34.2233   44.7612 H   0  0  0  0  0  0  0  0  0  0  0  0
   57.2342   33.3255   46.1844 H   0  0  0  0  0  0  0  0  0  0  0  0
   61.2309   33.4533   45.5222 H   0  0  0  0  0  0  0  0  0  0  0  0
   61.3153   34.1931   47.1612 H   0  0  0  0  0  0  0  0  0  0  0  0
   61.6907   30.9889   46.3878 H   0  0  0  0  0  0  0  0  0  0  0  0
   60.4340   29.1352   47.7270 H   0  0  0  0  0  0  0  0  0  0  0  0
   58.2875   30.0341   48.9619 H   0  0  0  0  0  0  0  0  0  0  0  0
   55.7163   28.7555   45.6794 H   0  0  0  0  0  0  0  0  0  0  0  0
  1  2  1  0
  2  3  2  0
  2  4  2  0
  2  5  1  0
  5  6  2  0
  6  7  1  0
  7  8  2  0
  8  9  1  0
  9 10  1  0
 10 11  1  0
 11 12  2  0
 11 13  1  0
 13 14  1  0
 14 15  1  0
 15 16  2  0
 15 17  1  0
 17 18  1  0
 18 19  2  0
 19 20  1  0
 20 21  2  0
 21 22  1  0
  9 23  2  0
 23  5  1  0
 22 18  1  0
  1 24  1  0
  6 25  1  0
  7 26  1  0
  8 27  1  0
 13 28  1  0
 13 29  1  0
 17 30  1  0
 17 31  1  0
 19 32  1  0
 20 33  1  0
 21 34  1  0
 23 35  1  0
M  CHG  3   1  -1  10  -1  14  -1
M  END
>  <UniqueID>  (10) 
9

>  <SMILES>  (10) 
[NH-]S(=O)(=O)c1cccc([N-]C(=O)C[N-]C(=O)Cc2cccs2)c1

>  <Energy>  (10) 
58.375784009486836

>  <Genealogy>  (10) 
[NH-]S(=O)(=O)c1cccc([N-]C(=O)C[N-]C(=O)Cc2cccs2)c1 (protonated)
[NH-]S(=O)(=O)c1cccc([N-]C(=O)C[N-]C(=O)Cc2cccs2)c1 (3D coordinates assigned)
[NH-]S(=O)(=O)c1cccc([N-]C(=O)C[N-]C(=O)Cc2cccs2)c1 (optimized conformer: 58.375784009486836 kcal/mol)

>  <smiles>  (10) 
NS(=O)(=O)c1cccc(NC(=O)CNC(=O)Cc2cccs2)c1

>  <score_type>  (10) 
oracle

>  <origin>  (10) 
adg

>  <m_score__min__energy>  (10) 
-13.1

>  <m_primary>  (10) 
energy

$$$$
10:0
     RDKit          3D

 53 56  0  0  0  0  0  0  0  0999 V2000
   65.7620   33.9960   51.3330 C   0  0  0  0  0  0  0  0  0  0  0  0
   65.6420   33.0960   50.1390 C   0  0  0  0  0  0  0  0  0  0  0  0
   66.6980   32.7460   49.5450 O   0  0  0  0  0  0  0  0  0  0  0  0
   64.3230   32.6150   49.6460 C   0  0  0  0  0  0  0  0  0  0  0  0
   63.4770   31.8830   50.5000 C   0  0  0  0  0  0  0  0  0  0  0  0
   62.2340   31.4270   50.0530 C   0  0  0  0  0  0  0  0  0  0  0  0
   61.8120   31.6860   48.7420 C   0  0  0  0  0  0  0  0  0  0  0  0
   60.5290   31.2260   48.2850 N   0  0  0  0  0  0  0  0  0  0  0  0
   59.9650   31.7540   47.0370 C   0  0  0  0  0  0  0  0  0  0  0  0
   58.5220   31.2650   46.8370 C   0  0  0  0  0  0  0  0  0  0  0  0
   58.3780   29.7900   46.9680 N   0  0  0  0  0  0  0  0  0  0  0  0
   58.4470   29.1040   45.6610 C   0  0  0  0  0  0  0  0  0  0  0  0
   57.8330   27.7360   45.7510 C   0  0  0  0  0  0  0  0  0  0  0  0
   58.6410   26.5930   45.7810 C   0  0  0  0  0  0  0  0  0  0  0  0
   58.0500   25.3320   45.8740 C   0  0  0  0  0  0  0  0  0  0  0  0
   58.7830   24.3060   45.8800 O   0  0  0  0  0  0  0  0  0  0  0  0
   56.6470   25.2150   45.9410 C   0  0  0  0  0  0  0  0  0  0  0  0
   55.9950   23.8880   46.0460 C   0  0  0  0  0  0  0  0  0  0  0  0
   55.1610   23.5880   47.1380 C   0  0  0  0  0  0  0  0  0  0  0  0
   54.5470   22.3350   47.2360 C   0  0  0  0  0  0  0  0  0  0  0  0
   54.7600   21.3720   46.2450 C   0  0  0  0  0  0  0  0  0  0  0  0
   55.5870   21.6610   45.1560 C   0  0  0  0  0  0  0  0  0  0  0  0
   56.2010   22.9130   45.0540 C   0  0  0  0  0  0  0  0  0  0  0  0
   55.8750   26.3930   45.9110 C   0  0  0  0  0  0  0  0  0  0  0  0
   54.4880   26.3360   45.9950 O   0  0  0  0  0  0  0  0  0  0  0  0
   56.4820   27.6060   45.8170 N   0  0  0  0  0  0  0  0  0  0  0  0
   59.2940   29.1570   47.9530 C   0  0  0  0  0  0  0  0  0  0  0  0
   59.8250   30.1500   48.9880 C   0  0  0  0  0  0  0  0  0  0  0  0
   62.6490   32.4170   47.8860 C   0  0  0  0  0  0  0  0  0  0  0  0
   63.8920   32.8760   48.3310 C   0  0  0  0  0  0  0  0  0  0  0  0
   65.6822   33.3977   52.2526 H   0  0  0  0  0  0  0  0  0  0  0  0
   66.7362   34.5064   51.3110 H   0  0  0  0  0  0  0  0  0  0  0  0
   64.9556   34.7438   51.3110 H   0  0  0  0  0  0  0  0  0  0  0  0
   63.7976   31.6676   51.5300 H   0  0  0  0  0  0  0  0  0  0  0  0
   61.5824   30.8609   50.7348 H   0  0  0  0  0  0  0  0  0  0  0  0
   59.9705   32.8533   47.0761 H   0  0  0  0  0  0  0  0  0  0  0  0
   60.5770   31.3962   46.1959 H   0  0  0  0  0  0  0  0  0  0  0  0
   57.8822   31.7468   47.5910 H   0  0  0  0  0  0  0  0  0  0  0  0
   58.2263   31.5319   45.8117 H   0  0  0  0  0  0  0  0  0  0  0  0
   57.9016   29.6968   44.9119 H   0  0  0  0  0  0  0  0  0  0  0  0
   59.5025   29.0014   45.3687 H   0  0  0  0  0  0  0  0  0  0  0  0
   59.7357   26.6883   45.7315 H   0  0  0  0  0  0  0  0  0  0  0  0
   54.9906   24.3431   47.9195 H   0  0  0  0  0  0  0  0  0  0  0  0
   53.8963   22.1072   48.0931 H   0  0  0  0  0  0  0  0  0  0  0  0
   54.2767   20.3869   46.3224 H   0  0  0  0  0  0  0  0  0  0  0  0
   55.7551   20.9021   44.3777 H   0  0  0  0  0  0  0  0  0  0  0  0
   56.8485   23.1364   44.1933 H   0  0  0  0  0  0  0  0  0  0  0  0
   58.7488   28.3590   48.4783 H   0  0  0  0  0  0  0  0  0  0  0  0
   60.1576   28.7622   47.3977 H   0  0  0  0  0  0  0  0  0  0  0  0
   58.9865   30.5696   49.5632 H   0  0  0  0  0  0  0  0  0  0  0  0
   60.5119   29.6406   49.6798 H   0  0  0  0  0  0  0  0  0  0  0  0
   62.3247   32.6306   46.8568 H   0  0  0  0  0  0  0  0  0  0  0  0
   64.5391   33.4460   47.6481 H   0  0  0  0  0  0  0  0  0  0  0  0
  1  2  1  0
  2  3  2  0
  2  4  1  0
  4  5  2  0
  5  6  1  0
  6  7  2  0
  7  8  1  0
  8  9  1  0
  9 10  1  0
 10 11  1  0
 11 12  1  0
 12 13  1  0
 13 14  2  0
 14 15  1  0
 15 16  2  0
 15 17  1  0
 17 18  1  0
 18 19  2  0
 19 20  1  0
 20 21  2  0
 21 22  1  0
 22 23  2  0
 17 24  2  0
 24 25  1  0
 24 26  1  0
 11 27  1  0
 27 28  1  0
  7 29  1  0
 29 30  2  0
 30  4  1  0
 28  8  1  0
 26 13  1  0
 23 18  1  0
  1 31  1  0
  1 32  1  0
  1 33  1  0
  5 34  1  0
  6 35  1  0
  9 36  1  0
  9 37  1  0
 10 38  1  0
 10 39  1  0
 12 40  1  0
 12 41  1  0
 14 42  1  0
 19 43  1  0
 20 44  1  0
 21 45  1  0
 22 46  1  0
 23 47  1  0
 27 48  1  0
 27 49  1  0
 28 50  1  0
 28 51  1  0
 29 52  1  0
 30 53  1  0
M  CHG  2  25  -1  26  -1
M  END
>  <UniqueID>  (11) 
10

>  <SMILES>  (11) 
CC(=O)c1ccc(N2CCN(Cc3cc(=O)c(-c4ccccc4)c([O-])[n-]3)CC2)cc1

>  <Energy>  (11) 
78.0974203791217

>  <Genealogy>  (11) 
CC(=O)c1ccc(N2CCN(Cc3cc(=O)c(-c4ccccc4)c([O-])[n-]3)CC2)cc1 (protonated)
CC(=O)c1ccc(N2CCN(Cc3cc(=O)c(-c4ccccc4)c([O-])[n-]3)CC2)cc1 (3D coordinates assigned)
CC(=O)c1ccc(N2CCN(Cc3cc(=O)c(-c4ccccc4)c([O-])[n-]3)CC2)cc1 (nonaromatic ring conformer: 78.0974203791217 kcal/mol)

>  <smiles>  (11) 
CC(=O)c1ccc(N2CCN(Cc3cc(=O)c(-c4ccccc4)c(O)[nH]3)CC2)cc1

>  <score_type>  (11) 
oracle

>  <origin>  (11) 
adg

>  <m_score__min__energy>  (11) 
-15.07

>  <m_primary>  (11) 
energy

$$$$
11:0
     RDKit          3D

 68 71  0  0  0  0  0  0  0  0999 V2000
   59.4180   32.7890   49.6930 H   0  0  0  0  0  0  0  0  0  0  0  0
   59.5120   33.7330   49.3320 O   0  0  0  0  0  0  0  0  0  0  0  0
   59.2840   34.0250   47.9860 C   0  0  0  0  0  0  0  0  0  0  0  0
   60.1740   34.8560   47.2980 C   0  0  0  0  0  0  0  0  0  0  0  0
   61.0417   35.2835   47.8219 H   0  0  0  0  0  0  0  0  0  0  0  0
   59.9640   35.1450   45.9460 C   0  0  0  0  0  0  0  0  0  0  0  0
   60.6667   35.7991   45.4090 H   0  0  0  0  0  0  0  0  0  0  0  0
   58.8640   34.6050   45.2760 C   0  0  0  0  0  0  0  0  0  0  0  0
   58.7093   34.8262   44.2096 H   0  0  0  0  0  0  0  0  0  0  0  0
   57.9540   33.7800   45.9590 C   0  0  0  0  0  0  0  0  0  0  0  0
   56.7800   33.1750   45.2390 C   0  0  0  0  0  0  0  0  0  0  0  0
   56.3716   33.9080   44.5277 H   0  0  0  0  0  0  0  0  0  0  0  0
   56.0090   32.8987   45.9733 H   0  0  0  0  0  0  0  0  0  0  0  0
   57.2120   31.9510   44.4960 C   0  0  0  0  0  0  0  0  0  0  0  0
   58.1500   32.0340   43.6580 O   0  0  0  0  0  0  0  0  0  0  0  0
   56.5680   30.6980   44.7790 N   0  0  0  0  0  0  0  0  0  0  0  0
   57.0550   29.5030   44.6150 C   0  0  0  0  0  0  0  0  0  0  0  0
   57.3150   28.9990   43.3880 N   0  0  0  0  0  0  0  0  0  0  0  0
   57.7640   27.7460   43.4200 N   0  0  0  0  0  0  0  0  0  0  0  0
   57.8550   27.2380   44.6690 C   0  0  0  0  0  0  0  0  0  0  0  0
   58.3280   25.8460   44.9610 C   0  0  0  0  0  0  0  0  0  0  0  0
   59.2011   25.6279   44.3285 H   0  0  0  0  0  0  0  0  0  0  0  0
   57.4992   25.1546   44.7486 H   0  0  0  0  0  0  0  0  0  0  0  0
   58.7250   25.6700   46.4280 C   0  0  0  0  0  0  0  0  0  0  0  0
   58.8914   24.6018   46.6311 H   0  0  0  0  0  0  0  0  0  0  0  0
   57.9143   26.0580   47.0621 H   0  0  0  0  0  0  0  0  0  0  0  0
   60.2580   26.5980   46.8010 S   0  0  0  0  0  0  0  0  0  0  0  0
   60.0190   26.7060   48.6140 C   0  0  0  0  0  0  0  0  0  0  0  0
   60.3413   25.7600   49.0736 H   0  0  0  0  0  0  0  0  0  0  0  0
   58.9532   26.8947   48.8100 H   0  0  0  0  0  0  0  0  0  0  0  0
   60.8280   27.8540   49.2210 C   0  0  0  0  0  0  0  0  0  0  0  0
   61.6854   28.0676   48.5659 H   0  0  0  0  0  0  0  0  0  0  0  0
   61.1562   27.5412   50.2232 H   0  0  0  0  0  0  0  0  0  0  0  0
   60.0160   29.1030   49.3740 C   0  0  0  0  0  0  0  0  0  0  0  0
   59.6730   29.9080   48.3420 N   0  0  0  0  0  0  0  0  0  0  0  0
   58.8810   30.9170   48.6990 N   0  0  0  0  0  0  0  0  0  0  0  0
   58.5810   30.9180   50.0140 C   0  0  0  0  0  0  0  0  0  0  0  0
   57.7640   31.7840   50.5350 N   0  0  0  0  0  0  0  0  0  0  0  0
   57.4370   31.9150   51.9250 C   0  0  0  0  0  0  0  0  0  0  0  0
   56.7660   31.0030   52.4790 O   0  0  0  0  0  0  0  0  0  0  0  0
   57.7950   33.1480   52.7170 C   0  0  0  0  0  0  0  0  0  0  0  0
   56.9908   33.8905   52.6076 H   0  0  0  0  0  0  0  0  0  0  0  0
   57.9175   32.8604   53.7717 H   0  0  0  0  0  0  0  0  0  0  0  0
   59.1110   33.7610   52.2260 C   0  0  0  0  0  0  0  0  0  0  0  0
   59.1400   33.7221   51.1271 H   0  0  0  0  0  0  0  0  0  0  0  0
   59.1670   34.8037   52.5718 H   0  0  0  0  0  0  0  0  0  0  0  0
   60.2180   33.0480   52.7460 O   0  0  0  0  0  0  0  0  0  0  0  0
   60.9800   32.4400   51.7160 C   0  0  0  0  0  0  0  0  0  0  0  0
   61.5238   31.5738   52.1211 H   0  0  0  0  0  0  0  0  0  0  0  0
   60.3132   32.1010   50.9095 H   0  0  0  0  0  0  0  0  0  0  0  0
   61.9770   33.4620   51.1690 C   0  0  0  0  0  0  0  0  0  0  0  0
   61.5075   34.4567   51.1650 H   0  0  0  0  0  0  0  0  0  0  0  0
   62.8696   33.4611   51.8118 H   0  0  0  0  0  0  0  0  0  0  0  0
   62.3940   33.1080   49.7660 C   0  0  0  0  0  0  0  0  0  0  0  0
   62.1060   31.8380   49.2370 C   0  0  0  0  0  0  0  0  0  0  0  0
   61.5933   31.0890   49.8584 H   0  0  0  0  0  0  0  0  0  0  0  0
   62.4690   31.5230   47.9230 C   0  0  0  0  0  0  0  0  0  0  0  0
   62.2512   30.5240   47.5175 H   0  0  0  0  0  0  0  0  0  0  0  0
   63.1080   32.4760   47.1250 C   0  0  0  0  0  0  0  0  0  0  0  0
   63.3899   32.2279   46.0911 H   0  0  0  0  0  0  0  0  0  0  0  0
   63.3890   33.7450   47.6410 C   0  0  0  0  0  0  0  0  0  0  0  0
   63.8872   34.4961   47.0103 H   0  0  0  0  0  0  0  0  0  0  0  0
   63.0380   34.0610   48.9570 C   0  0  0  0  0  0  0  0  0  0  0  0
   63.2664   35.0584   49.3608 H   0  0  0  0  0  0  0  0  0  0  0  0
   59.2970   29.6110   50.8110 S   0  0  0  0  0  0  0  0  0  0  0  0
   57.3890   28.3740   45.8270 S   0  0  0  0  0  0  0  0  0  0  0  0
   58.1750   33.4890   47.3170 C   0  0  0  0  0  0  0  0  0  0  0  0
   57.4733   32.8368   47.8575 H   0  0  0  0  0  0  0  0  0  0  0  0
  1  2  1  0
  2  3  1  0
  3  4  2  0
  4  5  1  0
  4  6  1  0
  6  7  1  0
  6  8  2  0
  8  9  1  0
  8 10  1  0
 10 11  1  0
 11 12  1  0
 11 13  1  0
 11 14  1  0
 14 15  2  0
 14 16  1  0
 16 17  2  0
 17 18  1  0
 18 19  1  0
 19 20  2  0
 20 21  1  0
 21 22  1  0
 21 23  1  0
 21 24  1  0
 24 25  1  0
 24 26  1  0
 24 27  1  0
 27 28  1  0
 28 29  1  0
 28 30  1  0
 28 31  1  0
 31 32  1  0
 31 33  1  0
 31 34  1  0
 34 35  2  0
 35 36  1  0
 36 37  1  0
 37 38  2  3
 38 39  1  0
 39 40  2  0
 39 41  1  0
 41 42  1  0
 41 43  1  0
 41 44  1  0
 44 45  1  0
 44 46  1  0
 44 47  1  0
 47 48  1  0
 48 49  1  0
 48 50  1  0
 48 51  1  0
 51 52  1  0
 51 53  1  0
 51 54  1  0
 54 55  2  0
 55 56  1  0
 55 57  1  0
 57 58  1  0
 57 59  2  0
 59 60  1  0
 59 61  1  0
 61 62  1  0
 61 63  2  0
 63 64  1  0
 37 65  1  0
 20 66  1  0
 10 67  2  0
 67 68  1  0
 67  3  1  0
 66 17  1  0
 65 34  1  0
 63 54  1  0
M  CHG  2  18  -1  36  -1
M  END
>  <UniqueID>  (12) 
11

>  <SMILES>  (12) 
O=C(CCOCCc1ccccc1)N=c1[n-]nc(CCSCCc2n[n-]/c(=N/C(=O)Cc3cccc(O)c3)s2)s1

>  <Energy>  (12) 
135.83058002860736

>  <Genealogy>  (12) 
O=C(CCOCCc1ccccc1)N=c1[n-]nc(CCSCCc2n[n-]c(=NC(=O)Cc3cccc(O)c3)s2)s1 (protonated)
O=C(CCOCCc1ccccc1)N=c1[n-]nc(CCSCCc2n[n-]/c(=N/C(=O)Cc3cccc(O)c3)s2)s1 (cis-trans isomerization)
O=C(CCOCCc1ccccc1)N=c1[n-]nc(CCSCCc2n[n-]/c(=N/C(=O)Cc3cccc(O)c3)s2)s1 (3D coordinates assigned)
O=C(CCOCCc1ccccc1)N=c1[n-]nc(CCSCCc2n[n-]/c(=N/C(=O)Cc3cccc(O)c3)s2)s1 (optimized conformer: 135.83058002860736 kcal/mol)

>  <smiles>  (12) 
O=C(CCOCCc1ccccc1)N=c1[nH]nc(CCSCCc2n[nH]c(=NC(=O)Cc3cccc(O)c3)s2)s1

>  <score_type>  (12) 
oracle

>  <origin>  (12) 
adg

>  <m_score__min__energy>  (12) 
-12.48

>  <m_primary>  (12) 
energy

$$$$
12:0
     RDKit          3D

 38 39  0  0  0  0  0  0  0  0999 V2000
   55.0050   26.3410   45.9970 N   0  0  0  0  0  0  0  0  0  0  0  0
   56.7090   26.5960   45.8610 S   0  0  0  0  0  0  0  0  0  0  0  0
   57.3260   26.5880   47.2320 O   0  0  0  0  0  0  0  0  0  0  0  0
   57.3210   25.4860   45.0510 O   0  0  0  0  0  0  0  0  0  0  0  0
   57.0130   28.1420   45.0790 C   0  0  0  0  0  0  0  0  0  0  0  0
   58.3250   28.5420   44.7900 C   0  0  0  0  0  0  0  0  0  0  0  0
   58.5670   29.7780   44.1810 C   0  0  0  0  0  0  0  0  0  0  0  0
   57.4990   30.6250   43.8500 C   0  0  0  0  0  0  0  0  0  0  0  0
   57.7590   31.9700   43.2270 C   0  0  0  0  0  0  0  0  0  0  0  0
   58.4610   32.8970   44.2220 C   0  0  0  0  0  0  0  0  0  0  0  0
   58.1270   32.5230   45.5910 N   0  0  0  0  0  0  0  0  0  0  0  0
   57.8590   33.4720   46.6280 C   0  0  0  0  0  0  0  0  0  0  0  0
   56.7530   33.4660   47.2320 O   0  0  0  0  0  0  0  0  0  0  0  0
   58.9230   34.4410   47.0360 C   0  0  0  0  0  0  0  0  0  0  0  0
   60.2230   33.7190   47.2530 C   0  0  0  0  0  0  0  0  0  0  0  0
   61.3880   34.1430   46.5910 C   0  0  0  0  0  0  0  0  0  0  0  0
   62.5900   33.4500   46.7680 C   0  0  0  0  0  0  0  0  0  0  0  0
   62.6360   32.3260   47.5970 C   0  0  0  0  0  0  0  0  0  0  0  0
   63.8010   31.6550   47.7660 F   0  0  0  0  0  0  0  0  0  0  0  0
   61.4770   31.8910   48.2480 C   0  0  0  0  0  0  0  0  0  0  0  0
   60.2730   32.5800   48.0740 C   0  0  0  0  0  0  0  0  0  0  0  0
   56.1860   30.2310   44.1600 C   0  0  0  0  0  0  0  0  0  0  0  0
   55.9460   28.9960   44.7690 C   0  0  0  0  0  0  0  0  0  0  0  0
   54.6460   27.0450   46.6800 H   0  0  0  0  0  0  0  0  0  0  0  0
   59.1675   27.8815   45.0430 H   0  0  0  0  0  0  0  0  0  0  0  0
   59.5995   30.0870   43.9607 H   0  0  0  0  0  0  0  0  0  0  0  0
   58.3976   31.8407   42.3407 H   0  0  0  0  0  0  0  0  0  0  0  0
   56.7972   32.4202   42.9402 H   0  0  0  0  0  0  0  0  0  0  0  0
   59.5494   32.8215   44.0813 H   0  0  0  0  0  0  0  0  0  0  0  0
   58.1264   33.9296   44.0434 H   0  0  0  0  0  0  0  0  0  0  0  0
   59.0526   35.1937   46.2444 H   0  0  0  0  0  0  0  0  0  0  0  0
   58.6228   34.9318   47.9735 H   0  0  0  0  0  0  0  0  0  0  0  0
   61.3544   35.0227   45.9315 H   0  0  0  0  0  0  0  0  0  0  0  0
   63.5008   33.7904   46.2537 H   0  0  0  0  0  0  0  0  0  0  0  0
   61.5129   31.0046   48.8985 H   0  0  0  0  0  0  0  0  0  0  0  0
   59.3622   32.2293   48.5814 H   0  0  0  0  0  0  0  0  0  0  0  0
   55.3437   30.8974   43.9224 H   0  0  0  0  0  0  0  0  0  0  0  0
   54.9154   28.6932   45.0059 H   0  0  0  0  0  0  0  0  0  0  0  0
  1  2  1  0
  2  3  2  0
  2  4  2  0
  2  5  1  0
  5  6  2  0
  6  7  1  0
  7  8  2  0
  8  9  1  0
  9 10  1  0
 10 11  1  0
 11 12  1  0
 12 13  2  0
 12 14  1  0
 14 15  1  0
 15 16  2  0
 16 17  1  0
 17 18  2  0
 18 19  1  0
 18 20  1  0
 20 21  2  0
  8 22  1  0
 22 23  2  0
 23  5  1  0
 21 15  1  0
  1 24  1  0
  6 25  1  0
  7 26  1  0
  9 27  1  0
  9 28  1  0
 10 29  1  0
 10 30  1  0
 14 31  1  0
 14 32  1  0
 16 33  1  0
 17 34  1  0
 20 35  1  0
 21 36  1  0
 22 37  1  0
 23 38  1  0
M  CHG  2   1  -1  11  -1
M  END
>  <UniqueID>  (13) 
12

>  <SMILES>  (13) 
[NH-]S(=O)(=O)c1ccc(CC[N-]C(=O)Cc2ccc(F)cc2)cc1

>  <Energy>  (13) 
31.576352681476394

>  <Genealogy>  (13) 
[NH-]S(=O)(=O)c1ccc(CC[N-]C(=O)Cc2ccc(F)cc2)cc1 (protonated)
[NH-]S(=O)(=O)c1ccc(CC[N-]C(=O)Cc2ccc(F)cc2)cc1 (3D coordinates assigned)
[NH-]S(=O)(=O)c1ccc(CC[N-]C(=O)Cc2ccc(F)cc2)cc1 (optimized conformer: 31.576352681476394 kcal/mol)

>  <smiles>  (13) 
NS(=O)(=O)c1ccc(CCNC(=O)Cc2ccc(F)cc2)cc1

>  <score_type>  (13) 
oracle

>  <origin>  (13) 
adg

>  <m_score__min__energy>  (13) 
-11.65

>  <m_primary>  (13) 
energy

$$$$
13:0
     RDKit          3D

 36 38  0  0  0  0  0  0  0  0999 V2000
   55.1790   26.7130   45.8880 O   0  0  0  0  0  0  0  0  0  0  0  0
   56.4730   27.2160   45.7580 C   0  0  0  0  0  0  0  0  0  0  0  0
   56.7940   28.4640   45.2750 C   0  0  0  0  0  0  0  0  0  0  0  0
   55.8380   29.4770   44.7260 C   0  0  0  0  0  0  0  0  0  0  0  0
   56.5980   30.5830   44.0470 C   0  0  0  0  0  0  0  0  0  0  0  0
   56.6420   30.6590   42.6440 C   0  0  0  0  0  0  0  0  0  0  0  0
   57.3850   31.6620   42.0160 C   0  0  0  0  0  0  0  0  0  0  0  0
   58.0950   32.5910   42.7810 C   0  0  0  0  0  0  0  0  0  0  0  0
   58.0680   32.5150   44.1760 C   0  0  0  0  0  0  0  0  0  0  0  0
   57.3250   31.5120   44.8090 C   0  0  0  0  0  0  0  0  0  0  0  0
   58.1340   28.6070   45.2540 N   0  0  0  0  0  0  0  0  0  0  0  0
   58.5950   27.4370   45.7500 C   0  0  0  0  0  0  0  0  0  0  0  0
   60.1960   27.1270   45.9090 S   0  0  0  0  0  0  0  0  0  0  0  0
   57.6100   26.5630   46.0730 N   0  0  0  0  0  0  0  0  0  0  0  0
   57.7560   25.1790   46.5360 C   0  0  0  0  0  0  0  0  0  0  0  0
   57.3950   24.2170   45.4340 C   0  0  0  0  0  0  0  0  0  0  0  0
   57.0150   24.6940   44.1680 C   0  0  0  0  0  0  0  0  0  0  0  0
   56.6540   23.7990   43.1570 C   0  0  0  0  0  0  0  0  0  0  0  0
   56.6680   22.4230   43.4010 C   0  0  0  0  0  0  0  0  0  0  0  0
   57.0410   21.9410   44.6580 C   0  0  0  0  0  0  0  0  0  0  0  0
   57.4030   22.8320   45.6720 C   0  0  0  0  0  0  0  0  0  0  0  0
   54.8270   26.3420   46.7610 H   0  0  0  0  0  0  0  0  0  0  0  0
   55.1713   28.9921   43.9977 H   0  0  0  0  0  0  0  0  0  0  0  0
   55.2444   29.8987   45.5505 H   0  0  0  0  0  0  0  0  0  0  0  0
   56.0893   29.9259   42.0381 H   0  0  0  0  0  0  0  0  0  0  0  0
   57.4110   31.7203   40.9179 H   0  0  0  0  0  0  0  0  0  0  0  0
   58.6756   33.3827   42.2848 H   0  0  0  0  0  0  0  0  0  0  0  0
   58.6312   33.2441   44.7771 H   0  0  0  0  0  0  0  0  0  0  0  0
   57.3104   31.4511   45.9072 H   0  0  0  0  0  0  0  0  0  0  0  0
   58.7988   25.0066   46.8408 H   0  0  0  0  0  0  0  0  0  0  0  0
   57.0814   25.0145   47.3892 H   0  0  0  0  0  0  0  0  0  0  0  0
   57.0016   25.7763   43.9719 H   0  0  0  0  0  0  0  0  0  0  0  0
   56.3584   24.1783   42.1677 H   0  0  0  0  0  0  0  0  0  0  0  0
   56.3855   21.7198   42.6037 H   0  0  0  0  0  0  0  0  0  0  0  0
   57.0498   20.8579   44.8501 H   0  0  0  0  0  0  0  0  0  0  0  0
   57.6954   22.4477   46.6603 H   0  0  0  0  0  0  0  0  0  0  0  0
  1  2  1  0
  2  3  2  0
  3  4  1  0
  4  5  1  0
  5  6  2  0
  6  7  1  0
  7  8  2  0
  8  9  1  0
  9 10  2  0
  3 11  1  0
 11 12  1  0
 12 13  2  0
 12 14  1  0
 14 15  1  0
 15 16  1  0
 16 17  2  0
 17 18  1  0
 18 19  2  0
 19 20  1  0
 20 21  2  0
 14  2  1  0
 21 16  1  0
 10  5  1  0
  1 22  1  0
  4 23  1  0
  4 24  1  0
  6 25  1  0
  7 26  1  0
  8 27  1  0
  9 28  1  0
 10 29  1  0
 15 30  1  0
 15 31  1  0
 17 32  1  0
 18 33  1  0
 19 34  1  0
 20 35  1  0
 21 36  1  0
M  CHG  1  11  -1
M  END
>  <UniqueID>  (14) 
13

>  <SMILES>  (14) 
Oc1c(Cc2ccccc2)[n-]c(=S)n1Cc1ccccc1

>  <Energy>  (14) 
67.06494449466142

>  <Genealogy>  (14) 
Oc1c(Cc2ccccc2)[n-]c(=S)n1Cc1ccccc1 (protonated)
Oc1c(Cc2ccccc2)[n-]c(=S)n1Cc1ccccc1 (3D coordinates assigned)
Oc1c(Cc2ccccc2)[n-]c(=S)n1Cc1ccccc1 (optimized conformer: 67.06494449466142 kcal/mol)

>  <smiles>  (14) 
Oc1c(Cc2ccccc2)[nH]c(=S)n1Cc1ccccc1

>  <score_type>  (14) 
oracle

>  <origin>  (14) 
adg

>  <m_score__min__energy>  (14) 
-9.5500000000000007

>  <m_primary>  (14) 
energy

$$$$
14:0
     RDKit          3D

 35 37  0  0  0  0  0  0  0  0999 V2000
   55.9390   20.0250   43.3890 N   0  0  0  0  0  0  0  0  0  0  0  0
   56.3200   21.2160   43.7180 C   0  0  0  0  0  0  0  0  0  0  0  0
   57.1410   21.4020   44.7850 N   0  0  0  0  0  0  0  0  0  0  0  0
   57.5510   22.6460   45.1430 C   0  0  0  0  0  0  0  0  0  0  0  0
   57.1230   23.7670   44.4150 C   0  0  0  0  0  0  0  0  0  0  0  0
   57.5630   25.1330   44.7850 C   0  0  0  0  0  0  0  0  0  0  0  0
   57.9560   26.0390   43.7840 C   0  0  0  0  0  0  0  0  0  0  0  0
   58.3630   27.3340   44.1170 C   0  0  0  0  0  0  0  0  0  0  0  0
   58.3770   27.7470   45.4560 C   0  0  0  0  0  0  0  0  0  0  0  0
   58.8120   29.1140   45.8040 C   0  0  0  0  0  0  0  0  0  0  0  0
   60.0150   29.2730   46.5130 C   0  0  0  0  0  0  0  0  0  0  0  0
   60.4550   30.5420   46.8890 C   0  0  0  0  0  0  0  0  0  0  0  0
   59.7020   31.6690   46.5580 C   0  0  0  0  0  0  0  0  0  0  0  0
   58.5120   31.5300   45.8420 C   0  0  0  0  0  0  0  0  0  0  0  0
   58.0570   30.2610   45.4470 C   0  0  0  0  0  0  0  0  0  0  0  0
   56.5720   30.1470   44.4880 S   0  0  0  0  0  0  0  0  0  0  0  0
   55.5390   28.9190   45.1330 N   0  0  0  0  0  0  0  0  0  0  0  0
   56.9060   29.7850   43.0670 O   0  0  0  0  0  0  0  0  0  0  0  0
   55.8590   31.4690   44.5010 O   0  0  0  0  0  0  0  0  0  0  0  0
   58.0120   26.8410   46.4610 C   0  0  0  0  0  0  0  0  0  0  0  0
   57.6030   25.5460   46.1320 C   0  0  0  0  0  0  0  0  0  0  0  0
   57.2860   24.6840   47.1330 F   0  0  0  0  0  0  0  0  0  0  0  0
   56.2790   23.5460   43.3160 C   0  0  0  0  0  0  0  0  0  0  0  0
   55.8970   22.2830   42.9930 N   0  0  0  0  0  0  0  0  0  0  0  0
   56.5930   19.2110   43.4310 H   0  0  0  0  0  0  0  0  0  0  0  0
   58.2205   22.7755   46.0061 H   0  0  0  0  0  0  0  0  0  0  0  0
   57.9430   25.7258   42.7296 H   0  0  0  0  0  0  0  0  0  0  0  0
   58.6734   28.0315   43.3251 H   0  0  0  0  0  0  0  0  0  0  0  0
   60.6150   28.3887   46.7737 H   0  0  0  0  0  0  0  0  0  0  0  0
   61.3963   30.6544   47.4469 H   0  0  0  0  0  0  0  0  0  0  0  0
   60.0467   32.6685   46.8618 H   0  0  0  0  0  0  0  0  0  0  0  0
   57.9243   32.4234   45.5843 H   0  0  0  0  0  0  0  0  0  0  0  0
   54.5890   29.3410   45.2360 H   0  0  0  0  0  0  0  0  0  0  0  0
   58.0477   27.1514   47.5157 H   0  0  0  0  0  0  0  0  0  0  0  0
   55.9261   24.3970   42.7149 H   0  0  0  0  0  0  0  0  0  0  0  0
  1  2  2  3
  2  3  1  0
  3  4  2  0
  4  5  1  0
  5  6  1  0
  6  7  2  0
  7  8  1  0
  8  9  2  0
  9 10  1  0
 10 11  2  0
 11 12  1  0
 12 13  2  0
 13 14  1  0
 14 15  2  0
 15 16  1  0
 16 17  1  0
 16 18  2  0
 16 19  2  0
  9 20  1  0
 20 21  2  0
 21 22  1  0
  5 23  2  0
 23 24  1  0
 24  2  1  0
 21  6  1  0
 15 10  1  0
  1 25  1  0
  4 26  1  0
  7 27  1  0
  8 28  1  0
 11 29  1  0
 12 30  1  0
 13 31  1  0
 14 32  1  0
 17 33  1  0
 20 34  1  0
 23 35  1  0
M  CHG  2  17  -1  24  -1
M  END
>  <UniqueID>  (15) 
14

>  <SMILES>  (15) 
N=c1ncc(-c2ccc(-c3ccccc3S([NH-])(=O)=O)cc2F)c[n-]1

>  <Energy>  (15) 
53.12573898273616

>  <Genealogy>  (15) 
N=c1ncc(-c2ccc(-c3ccccc3S([NH-])(=O)=O)cc2F)c[n-]1 (protonated)
N=c1ncc(-c2ccc(-c3ccccc3S([NH-])(=O)=O)cc2F)c[n-]1 (3D coordinates assigned)
N=c1ncc(-c2ccc(-c3ccccc3S([NH-])(=O)=O)cc2F)c[n-]1 (optimized conformer: 53.12573898273616 kcal/mol)

>  <smiles>  (15) 
N=c1ncc(-c2ccc(-c3ccccc3S(N)(=O)=O)cc2F)c[nH]1

>  <score_type>  (15) 
oracle

>  <origin>  (15) 
adg

>  <m_score__min__energy>  (15) 
-12.699999999999999

>  <m_primary>  (15) 
energy

$$$$
15:0
     RDKit          3D

 68 72  0  0  0  0  0  0  0  0999 V2000
   55.8980   31.2280   44.4950 O   0  0  0  0  0  0  0  0  0  0  0  0
   57.1270   30.9600   44.5630 C   0  0  0  0  0  0  0  0  0  0  0  0
   58.0660   32.0210   44.3260 N   0  0  0  0  0  0  0  0  0  0  0  0
   58.0920   33.3330   44.9720 C   0  0  0  0  0  0  0  0  0  0  0  0
   57.2430   33.3000   46.2640 C   0  0  0  0  0  0  0  0  0  0  0  0
   58.1120   33.1880   47.5180 C   0  0  0  0  0  0  0  0  0  0  0  0
   59.0270   34.3500   47.6450 N   0  0  0  0  0  0  0  0  0  0  0  0
   60.0470   34.1200   48.6910 C   0  0  0  0  0  0  0  0  0  0  0  0
   61.2000   33.3110   48.1510 C   0  0  0  0  0  0  0  0  0  0  0  0
   62.4940   33.8540   48.1410 C   0  0  0  0  0  0  0  0  0  0  0  0
   63.5700   33.1000   47.6620 C   0  0  0  0  0  0  0  0  0  0  0  0
   63.3610   31.8000   47.1940 C   0  0  0  0  0  0  0  0  0  0  0  0
   62.0770   31.2490   47.2080 C   0  0  0  0  0  0  0  0  0  0  0  0
   60.9980   32.0000   47.6860 C   0  0  0  0  0  0  0  0  0  0  0  0
   59.6420   34.7810   46.3590 C   0  0  0  0  0  0  0  0  0  0  0  0
   59.5550   33.7180   45.2550 C   0  0  0  0  0  0  0  0  0  0  0  0
   57.5340   29.5770   44.9020 C   0  0  0  0  0  0  0  0  0  0  0  0
   57.7160   28.6380   43.8750 C   0  0  0  0  0  0  0  0  0  0  0  0
   58.1480   27.3420   44.1650 C   0  0  0  0  0  0  0  0  0  0  0  0
   58.4160   26.9670   45.4850 C   0  0  0  0  0  0  0  0  0  0  0  0
   58.9420   25.2840   45.8290 S   0  0  0  0  0  0  0  0  0  0  0  0
   57.4270   24.5740   45.1860 C   0  0  0  0  0  0  0  0  0  0  0  0
   57.4700   23.7060   44.0870 C   0  0  0  0  0  0  0  0  0  0  0  0
   56.2870   23.1640   43.5750 C   0  0  0  0  0  0  0  0  0  0  0  0
   55.0570   23.4860   44.1630 C   0  0  0  0  0  0  0  0  0  0  0  0
   55.0130   24.3440   45.2650 C   0  0  0  0  0  0  0  0  0  0  0  0
   56.1960   24.8830   45.7800 C   0  0  0  0  0  0  0  0  0  0  0  0
   58.2480   27.9000   46.5220 C   0  0  0  0  0  0  0  0  0  0  0  0
   58.4970   27.5210   47.8750 N   0  0  0  0  0  0  0  0  0  0  0  0
   60.0940   27.5940   48.5350 S   0  0  0  0  0  0  0  0  0  0  0  0
   60.3160   26.3920   49.4110 O   0  0  0  0  0  0  0  0  0  0  0  0
   61.1100   27.5760   47.4280 O   0  0  0  0  0  0  0  0  0  0  0  0
   60.2550   29.0700   49.4840 C   0  0  0  0  0  0  0  0  0  0  0  0
   61.4860   29.4220   50.0590 C   0  0  0  0  0  0  0  0  0  0  0  0
   61.5850   30.5610   50.8650 C   0  0  0  0  0  0  0  0  0  0  0  0
   60.4540   31.3450   51.1090 C   0  0  0  0  0  0  0  0  0  0  0  0
   59.2240   30.9960   50.5400 C   0  0  0  0  0  0  0  0  0  0  0  0
   57.7990   31.9650   50.8630 Cl  0  0  0  0  0  0  0  0  0  0  0  0
   59.1260   29.8650   49.7240 C   0  0  0  0  0  0  0  0  0  0  0  0
   57.8180   29.2010   46.2260 C   0  0  0  0  0  0  0  0  0  0  0  0
   57.6537   34.0962   44.3121 H   0  0  0  0  0  0  0  0  0  0  0  0
   56.6510   34.2252   46.3237 H   0  0  0  0  0  0  0  0  0  0  0  0
   56.5929   32.4137   46.2208 H   0  0  0  0  0  0  0  0  0  0  0  0
   57.4603   33.1466   48.4032 H   0  0  0  0  0  0  0  0  0  0  0  0
   58.7195   32.2744   47.4393 H   0  0  0  0  0  0  0  0  0  0  0  0
   60.4234   35.0906   49.0464 H   0  0  0  0  0  0  0  0  0  0  0  0
   59.5828   33.5616   49.5173 H   0  0  0  0  0  0  0  0  0  0  0  0
   62.6625   34.8761   48.5111 H   0  0  0  0  0  0  0  0  0  0  0  0
   64.5821   33.5308   47.6536 H   0  0  0  0  0  0  0  0  0  0  0  0
   64.2081   31.2099   46.8142 H   0  0  0  0  0  0  0  0  0  0  0  0
   61.9146   30.2241   46.8429 H   0  0  0  0  0  0  0  0  0  0  0  0
   59.9885   31.5633   47.6980 H   0  0  0  0  0  0  0  0  0  0  0  0
   59.1247   35.6875   46.0117 H   0  0  0  0  0  0  0  0  0  0  0  0
   60.7097   34.9602   46.5537 H   0  0  0  0  0  0  0  0  0  0  0  0
   60.0059   34.1178   44.3348 H   0  0  0  0  0  0  0  0  0  0  0  0
   60.0944   32.8200   45.5907 H   0  0  0  0  0  0  0  0  0  0  0  0
   57.5166   28.9254   42.8321 H   0  0  0  0  0  0  0  0  0  0  0  0
   58.2780   26.6131   43.3515 H   0  0  0  0  0  0  0  0  0  0  0  0
   58.4357   23.4505   43.6263 H   0  0  0  0  0  0  0  0  0  0  0  0
   56.3223   22.4848   42.7105 H   0  0  0  0  0  0  0  0  0  0  0  0
   54.1259   23.0635   43.7573 H   0  0  0  0  0  0  0  0  0  0  0  0
   54.0472   24.5955   45.7276 H   0  0  0  0  0  0  0  0  0  0  0  0
   56.1602   25.5510   46.6532 H   0  0  0  0  0  0  0  0  0  0  0  0
   62.3750   28.8008   49.8754 H   0  0  0  0  0  0  0  0  0  0  0  0
   62.5531   30.8396   51.3068 H   0  0  0  0  0  0  0  0  0  0  0  0
   60.5307   32.2367   51.7485 H   0  0  0  0  0  0  0  0  0  0  0  0
   58.1605   29.5985   49.2693 H   0  0  0  0  0  0  0  0  0  0  0  0
   57.7018   29.9344   47.0376 H   0  0  0  0  0  0  0  0  0  0  0  0
  1  2  2  0
  2  3  1  0
  3  4  1  0
  4  5  1  0
  5  6  1  0
  6  7  1  0
  7  8  1  0
  8  9  1  0
  9 10  2  0
 10 11  1  0
 11 12  2  0
 12 13  1  0
 13 14  2  0
  7 15  1  0
 15 16  1  0
  2 17  1  0
 17 18  2  0
 18 19  1  0
 19 20  2  0
 20 21  1  0
 21 22  1  0
 22 23  2  0
 23 24  1  0
 24 25  2  0
 25 26  1  0
 26 27  2  0
 20 28  1  0
 28 29  1  0
 29 30  1  0
 30 31  2  0
 30 32  2  0
 30 33  1  0
 33 34  2  0
 34 35  1  0
 35 36  2  0
 36 37  1  0
 37 38  1  0
 37 39  2  0
 28 40  2  0
 16  4  1  0
 40 17  1  0
 14  9  1  0
 27 22  1  0
 39 33  1  0
  4 41  1  0
  5 42  1  0
  5 43  1  0
  6 44  1  0
  6 45  1  0
  8 46  1  0
  8 47  1  0
 10 48  1  0
 11 49  1  0
 12 50  1  0
 13 51  1  0
 14 52  1  0
 15 53  1  0
 15 54  1  0
 16 55  1  0
 16 56  1  0
 18 57  1  0
 19 58  1  0
 23 59  1  0
 24 60  1  0
 25 61  1  0
 26 62  1  0
 27 63  1  0
 34 64  1  0
 35 65  1  0
 36 66  1  0
 39 67  1  0
 40 68  1  0
M  CHG  2   3  -1  29  -1
M  END
>  <UniqueID>  (16) 
15

>  <SMILES>  (16) 
O=C([N-]C1CCN(Cc2ccccc2)CC1)c1ccc(Sc2ccccc2)c([N-]S(=O)(=O)c2cccc(Cl)c2)c1

>  <Energy>  (16) 
89.41272006266288

>  <Genealogy>  (16) 
O=C([N-]C1CCN(Cc2ccccc2)CC1)c1ccc(Sc2ccccc2)c([N-]S(=O)(=O)c2cccc(Cl)c2)c1 (protonated)
O=C([N-]C1CCN(Cc2ccccc2)CC1)c1ccc(Sc2ccccc2)c([N-]S(=O)(=O)c2cccc(Cl)c2)c1 (3D coordinates assigned)
O=C([N-]C1CCN(Cc2ccccc2)CC1)c1ccc(Sc2ccccc2)c([N-]S(=O)(=O)c2cccc(Cl)c2)c1 (nonaromatic ring conformer: 89.41272006266288 kcal/mol)

>  <smiles>  (16) 
O=C(NC1CCN(Cc2ccccc2)CC1)c1ccc(Sc2ccccc2)c(NS(=O)(=O)c2cccc(Cl)c2)c1

>  <score_type>  (16) 
oracle

>  <origin>  (16) 
adg

>  <m_score__min__energy>  (16) 
-14.710000000000001

>  <m_primary>  (16) 
energy

$$$$
16:0
     RDKit          3D

 40 42  0  0  0  0  0  0  0  0999 V2000
   61.0190   34.0610   49.3910 C   0  0  0  0  0  0  0  0  0  0  0  0
   62.1620   33.4370   48.6560 C   0  0  0  0  0  0  0  0  0  0  0  0
   63.3390   34.0050   48.5390 O   0  0  0  0  0  0  0  0  0  0  0  0
   64.1260   33.2120   47.8460 C   0  0  0  0  0  0  0  0  0  0  0  0
   63.4410   32.0700   47.4870 C   0  0  0  0  0  0  0  0  0  0  0  0
   62.1670   32.2100   48.0080 C   0  0  0  0  0  0  0  0  0  0  0  0
   61.0630   31.2310   47.9010 C   0  0  0  0  0  0  0  0  0  0  0  0
   60.1930   31.1730   48.8120 O   0  0  0  0  0  0  0  0  0  0  0  0
   60.9560   30.3740   46.7520 N   0  0  0  0  0  0  0  0  0  0  0  0
   60.1190   29.2070   46.7060 C   0  0  0  0  0  0  0  0  0  0  0  0
   60.3860   28.0820   47.5060 C   0  0  0  0  0  0  0  0  0  0  0  0
   59.5680   26.9530   47.4290 C   0  0  0  0  0  0  0  0  0  0  0  0
   58.4780   26.9330   46.5570 C   0  0  0  0  0  0  0  0  0  0  0  0
   58.1960   28.0520   45.7550 C   0  0  0  0  0  0  0  0  0  0  0  0
   57.0720   28.0710   44.8640 N   0  0  0  0  0  0  0  0  0  0  0  0
   56.3180   29.2350   44.4980 C   0  0  0  0  0  0  0  0  0  0  0  0
   55.1240   29.3330   44.8820 O   0  0  0  0  0  0  0  0  0  0  0  0
   56.8850   30.2890   43.7100 N   0  0  0  0  0  0  0  0  0  0  0  0
   57.5180   31.4710   44.2220 C   0  0  0  0  0  0  0  0  0  0  0  0
   58.1400   32.4000   43.3710 C   0  0  0  0  0  0  0  0  0  0  0  0
   58.7730   33.5250   43.9030 C   0  0  0  0  0  0  0  0  0  0  0  0
   58.7780   33.7470   45.2850 C   0  0  0  0  0  0  0  0  0  0  0  0
   59.6720   35.2980   45.9660 Br  0  0  0  0  0  0  0  0  0  0  0  0
   58.1290   32.8370   46.1370 C   0  0  0  0  0  0  0  0  0  0  0  0
   58.1000   33.0790   47.8790 Cl  0  0  0  0  0  0  0  0  0  0  0  0
   57.4950   31.7100   45.6000 C   0  0  0  0  0  0  0  0  0  0  0  0
   59.0380   29.1680   45.8110 C   0  0  0  0  0  0  0  0  0  0  0  0
   61.1862   33.9697   50.4744 H   0  0  0  0  0  0  0  0  0  0  0  0
   60.9454   35.1245   49.1196 H   0  0  0  0  0  0  0  0  0  0  0  0
   60.0846   33.5478   49.1196 H   0  0  0  0  0  0  0  0  0  0  0  0
   65.1741   33.4271   47.5907 H   0  0  0  0  0  0  0  0  0  0  0  0
   63.8286   31.2209   46.9050 H   0  0  0  0  0  0  0  0  0  0  0  0
   61.4200   30.6750   45.8670 H   0  0  0  0  0  0  0  0  0  0  0  0
   61.2430   28.0913   48.1955 H   0  0  0  0  0  0  0  0  0  0  0  0
   59.7832   26.0763   48.0576 H   0  0  0  0  0  0  0  0  0  0  0  0
   57.8388   26.0398   46.4976 H   0  0  0  0  0  0  0  0  0  0  0  0
   58.1282   32.2405   42.2827 H   0  0  0  0  0  0  0  0  0  0  0  0
   59.2706   34.2409   43.2323 H   0  0  0  0  0  0  0  0  0  0  0  0
   56.9747   31.0070   46.2671 H   0  0  0  0  0  0  0  0  0  0  0  0
   58.8509   30.0244   45.1464 H   0  0  0  0  0  0  0  0  0  0  0  0
  1  2  1  0
  2  3  1  0
  3  4  1  0
  4  5  2  0
  5  6  1  0
  6  7  1  0
  7  8  2  0
  7  9  1  0
  9 10  1  0
 10 11  2  0
 11 12  1  0
 12 13  2  0
 13 14  1  0
 14 15  1  0
 15 16  1  0
 16 17  2  0
 16 18  1  0
 18 19  1  0
 19 20  2  0
 20 21  1  0
 21 22  2  0
 22 23  1  0
 22 24  1  0
 24 25  1  0
 24 26  2  0
 14 27  2  0
  6  2  2  0
 27 10  1  0
 26 19  1  0
  1 28  1  0
  1 29  1  0
  1 30  1  0
  4 31  1  0
  5 32  1  0
  9 33  1  0
 11 34  1  0
 12 35  1  0
 13 36  1  0
 20 37  1  0
 21 38  1  0
 26 39  1  0
 27 40  1  0
M  CHG  2  15  -1  18  -1
M  END
>  <UniqueID>  (17) 
16

>  <SMILES>  (17) 
Cc1occc1C(=O)Nc1cccc([N-]C(=O)[N-]c2ccc(Br)c(Cl)c2)c1

>  <Energy>  (17) 
79.53033102448569

>  <Genealogy>  (17) 
Cc1occc1C(=O)Nc1cccc([N-]C(=O)[N-]c2ccc(Br)c(Cl)c2)c1 (protonated)
Cc1occc1C(=O)Nc1cccc([N-]C(=O)[N-]c2ccc(Br)c(Cl)c2)c1 (3D coordinates assigned)
Cc1occc1C(=O)Nc1cccc([N-]C(=O)[N-]c2ccc(Br)c(Cl)c2)c1 (optimized conformer: 79.53033102448569 kcal/mol)

>  <smiles>  (17) 
Cc1occc1C(=O)Nc1cccc(NC(=O)Nc2ccc(Br)c(Cl)c2)c1

>  <score_type>  (17) 
oracle

>  <origin>  (17) 
adg

>  <m_score__min__energy>  (17) 
-12.17

>  <m_primary>  (17) 
energy

$$$$
17:0
     RDKit          3D

 42 43  0  0  0  0  0  0  0  0999 V2000
   57.4450   33.2750   46.7320 C   0  0  0  0  0  0  0  0  0  0  0  0
   57.8640   33.4020   45.3330 N   0  0  0  0  0  0  0  0  0  0  0  0
   58.7070   34.5220   44.9040 C   0  0  0  0  0  0  0  0  0  0  0  0
   57.4450   32.4160   44.3720 C   0  0  0  0  0  0  0  0  0  0  0  0
   57.7800   32.5310   43.1600 O   0  0  0  0  0  0  0  0  0  0  0  0
   56.6500   31.3000   44.7860 N   0  0  0  0  0  0  0  0  0  0  0  0
   56.6830   30.0110   44.1110 C   0  0  0  0  0  0  0  0  0  0  0  0
   57.7490   29.1480   44.7320 C   0  0  0  0  0  0  0  0  0  0  0  0
   59.1020   29.4720   44.5440 C   0  0  0  0  0  0  0  0  0  0  0  0
   60.1060   28.6720   45.0900 C   0  0  0  0  0  0  0  0  0  0  0  0
   59.7740   27.5220   45.8150 C   0  0  0  0  0  0  0  0  0  0  0  0
   60.8060   26.6910   46.3550 N   0  0  0  0  0  0  0  0  0  0  0  0
   58.4280   27.1820   45.9960 C   0  0  0  0  0  0  0  0  0  0  0  0
   57.4060   27.9970   45.4740 C   0  0  0  0  0  0  0  0  0  0  0  0
   56.0220   27.6370   45.6220 N   0  0  0  0  0  0  0  0  0  0  0  0
   55.5090   26.3240   45.8690 C   0  0  0  0  0  0  0  0  0  0  0  0
   54.2640   26.1680   45.9780 O   0  0  0  0  0  0  0  0  0  0  0  0
   56.3990   25.2050   45.9960 N   0  0  0  0  0  0  0  0  0  0  0  0
   56.3840   24.0030   45.2130 C   0  0  0  0  0  0  0  0  0  0  0  0
   56.5460   24.0190   43.8150 C   0  0  0  0  0  0  0  0  0  0  0  0
   56.4970   22.8250   43.0880 C   0  0  0  0  0  0  0  0  0  0  0  0
   56.2720   21.6110   43.7460 C   0  0  0  0  0  0  0  0  0  0  0  0
   56.2210   20.4260   43.0220 O   0  0  0  0  0  0  0  0  0  0  0  0
   56.0910   21.5920   45.1320 C   0  0  0  0  0  0  0  0  0  0  0  0
   56.1390   22.7850   45.8610 C   0  0  0  0  0  0  0  0  0  0  0  0
   58.2874   33.5303   47.3917 H   0  0  0  0  0  0  0  0  0  0  0  0
   56.6061   33.9592   46.9271 H   0  0  0  0  0  0  0  0  0  0  0  0
   57.1271   32.2402   46.9271 H   0  0  0  0  0  0  0  0  0  0  0  0
   59.1004   35.0446   45.7884 H   0  0  0  0  0  0  0  0  0  0  0  0
   59.5442   34.1408   44.3009 H   0  0  0  0  0  0  0  0  0  0  0  0
   58.1090   35.2210   44.3009 H   0  0  0  0  0  0  0  0  0  0  0  0
   55.7053   29.5176   44.2142 H   0  0  0  0  0  0  0  0  0  0  0  0
   56.9067   30.1606   43.0444 H   0  0  0  0  0  0  0  0  0  0  0  0
   59.3729   30.3646   43.9610 H   0  0  0  0  0  0  0  0  0  0  0  0
   61.1621   28.9460   44.9502 H   0  0  0  0  0  0  0  0  0  0  0  0
   60.6780   26.2080   47.2710 H   0  0  0  0  0  0  0  0  0  0  0  0
   61.7040   26.5510   45.8410 H   0  0  0  0  0  0  0  0  0  0  0  0
   58.1666   26.2692   46.5515 H   0  0  0  0  0  0  0  0  0  0  0  0
   56.7116   24.9729   43.2928 H   0  0  0  0  0  0  0  0  0  0  0  0
   56.6356   22.8406   41.9969 H   0  0  0  0  0  0  0  0  0  0  0  0
   55.9107   20.6384   45.6497 H   0  0  0  0  0  0  0  0  0  0  0  0
   55.9834   22.7668   46.9498 H   0  0  0  0  0  0  0  0  0  0  0  0
  1  2  1  0
  2  3  1  0
  2  4  1  0
  4  5  2  0
  4  6  1  0
  6  7  1  0
  7  8  1  0
  8  9  2  0
  9 10  1  0
 10 11  2  0
 11 12  1  0
 11 13  1  0
 13 14  2  0
 14 15  1  0
 15 16  1  0
 16 17  2  0
 16 18  1  0
 18 19  1  0
 19 20  2  0
 20 21  1  0
 21 22  2  0
 22 23  1  0
 22 24  1  0
 24 25  2  0
 14  8  1  0
 25 19  1  0
  1 26  1  0
  1 27  1  0
  1 28  1  0
  3 29  1  0
  3 30  1  0
  3 31  1  0
  7 32  1  0
  7 33  1  0
  9 34  1  0
 10 35  1  0
 12 36  1  0
 12 37  1  0
 13 38  1  0
 20 39  1  0
 21 40  1  0
 24 41  1  0
 25 42  1  0
M  CHG  4   6  -1  15  -1  18  -1  23  -1
M  END
>  <UniqueID>  (18) 
17

>  <SMILES>  (18) 
CN(C)C(=O)[N-]Cc1ccc(N)cc1[N-]C(=O)[N-]c1ccc([O-])cc1

>  <Energy>  (18) 
42.722757162058656

>  <Genealogy>  (18) 
CN(C)C(=O)[N-]Cc1ccc(N)cc1[N-]C(=O)[N-]c1ccc([O-])cc1 (protonated)
CN(C)C(=O)[N-]Cc1ccc(N)cc1[N-]C(=O)[N-]c1ccc([O-])cc1 (3D coordinates assigned)
CN(C)C(=O)[N-]Cc1ccc(N)cc1[N-]C(=O)[N-]c1ccc([O-])cc1 (optimized conformer: 42.722757162058656 kcal/mol)

>  <smiles>  (18) 
CN(C)C(=O)NCc1ccc(N)cc1NC(=O)Nc1ccc(O)cc1

>  <score_type>  (18) 
oracle

>  <origin>  (18) 
adg

>  <m_score__min__energy>  (18) 
-13.960000000000001

>  <m_primary>  (18) 
energy

$$$$
18:0
     RDKit          3D

 44 45  0  0  1  0  0  0  0  0999 V2000
   60.9480   29.5340   50.1490 C   0  0  0  0  0  0  0  0  0  0  0  0
   62.3870   30.5760   50.4380 S   0  0  0  0  0  0  0  0  0  0  0  0
   62.5840   31.7680   49.1460 C   0  0  0  0  0  0  0  0  0  0  0  0
   63.7770   32.4320   48.9000 C   0  0  0  0  0  0  0  0  0  0  0  0
   63.8380   33.3570   47.8570 C   0  0  0  0  0  0  0  0  0  0  0  0
   62.7610   33.6400   47.0590 C   0  0  0  0  0  0  0  0  0  0  0  0
   61.5800   32.9750   47.3110 C   0  0  0  0  0  0  0  0  0  0  0  0
   60.4030   33.2120   46.5220 N   0  0  0  0  0  0  0  0  0  0  0  0
   59.3840   33.9900   47.1520 C   0  0  0  0  0  0  0  0  0  0  0  0
   59.6240   34.3780   48.3170 O   0  0  0  0  0  0  0  0  0  0  0  0
   58.1670   34.2560   46.3810 C   0  0  0  0  0  0  0  0  0  0  0  0
   58.3750   34.5370   44.9180 C   0  0  0  0  0  0  0  0  0  0  0  0
   57.9220   33.3800   44.1020 C   0  0  0  0  0  0  0  0  0  0  0  0
   58.6820   32.2160   44.4990 N   0  0  0  0  0  0  0  0  0  0  0  0
   58.0980   31.0990   44.7630 C   0  0  0  0  0  0  0  0  0  0  0  0
   58.7500   30.0710   45.4480 C   0  0  0  0  0  0  0  0  0  0  0  0
   58.0930   28.8820   45.7160 C   0  0  0  0  0  0  0  0  0  0  0  0
   58.7450   27.7610   46.4410 C   0  0  0  0  0  0  0  0  0  0  0  0
   56.8080   28.6760   45.3290 N   0  0  0  0  0  0  0  0  0  0  0  0
   56.1380   27.5060   45.5850 O   0  0  0  0  0  0  0  0  0  0  0  0
   56.2040   29.6820   44.6720 C   0  0  0  0  0  0  0  0  0  0  0  0
   55.0070   29.5050   44.3060 O   0  0  0  0  0  0  0  0  0  0  0  0
   56.8280   30.8430   44.4040 N   0  0  0  0  0  0  0  0  0  0  0  0
   61.4820   32.0480   48.3400 C   0  0  0  0  0  0  0  0  0  0  0  0
   60.5200   29.2241   51.1138 H   0  0  0  0  0  0  0  0  0  0  0  0
   60.1955   30.0980   49.5783 H   0  0  0  0  0  0  0  0  0  0  0  0
   61.2491   28.6431   49.5783 H   0  0  0  0  0  0  0  0  0  0  0  0
   64.6637   32.2318   49.5194 H   0  0  0  0  0  0  0  0  0  0  0  0
   64.7876   33.8791   47.6682 H   0  0  0  0  0  0  0  0  0  0  0  0
   62.8362   34.3743   46.2434 H   0  0  0  0  0  0  0  0  0  0  0  0
   60.3250   32.8320   45.5590 H   0  0  0  0  0  0  0  0  0  0  0  0
   57.5123   33.3763   46.4673 H   0  0  0  0  0  0  0  0  0  0  0  0
   57.7351   35.1740   46.8061 H   0  0  0  0  0  0  0  0  0  0  0  0
   57.7981   35.4295   44.6341 H   0  0  0  0  0  0  0  0  0  0  0  0
   59.4462   34.7072   44.7346 H   0  0  0  0  0  0  0  0  0  0  0  0
   56.8505   33.2006   44.2745 H   0  0  0  0  0  0  0  0  0  0  0  0
   58.0786   33.5870   43.0331 H   0  0  0  0  0  0  0  0  0  0  0  0
   59.7910   30.2068   45.7763 H   0  0  0  0  0  0  0  0  0  0  0  0
   58.6515   27.9218   47.5252 H   0  0  0  0  0  0  0  0  0  0  0  0
   58.2568   26.8141   46.1673 H   0  0  0  0  0  0  0  0  0  0  0  0
   59.8095   27.7172   46.1673 H   0  0  0  0  0  0  0  0  0  0  0  0
   55.1390   27.4930   45.3280 H   0  0  0  0  0  0  0  0  0  0  0  0
   56.2750   31.5590   43.8910 H   0  0  0  0  0  0  0  0  0  0  0  0
   60.5280   31.5310   48.5203 H   0  0  0  0  0  0  0  0  0  0  0  0
  1  2  1  0
  2  3  1  0
  3  4  2  0
  4  5  1  0
  5  6  2  0
  6  7  1  0
  7  8  1  0
  8  9  1  0
  9 10  2  0
  9 11  1  0
 11 12  1  0
 12 13  1  0
 13 14  1  0
 14 15  2  0
 15 16  1  0
 16 17  2  0
 17 18  1  0
 17 19  1  0
 19 20  1  0
 19 21  1  0
 21 22  2  0
 21 23  1  0
  7 24  2  0
 24  3  1  0
 23 15  1  0
  1 25  1  0
  1 26  1  0
  1 27  1  0
  4 28  1  0
  5 29  1  0
  6 30  1  0
  8 31  1  0
 11 32  1  0
 11 33  1  0
 12 34  1  0
 12 35  1  0
 13 36  1  0
 13 37  1  0
 16 38  1  0
 18 39  1  0
 18 40  1  0
 18 41  1  0
 20 42  1  0
 23 43  1  0
 24 44  1  0
M  END
>  <smiles>  (19) 
CSc1cccc(NC(=O)CCCN=c2cc(C)n(O)c(=O)[nH]2)c1

>  <score_type>  (19) 
oracle

>  <origin>  (19) 
adg

>  <m_score__min__energy>  (19) 
-8.3100000000000005

>  <m_primary>  (19) 
energy

$$$$
19:0
     RDKit          3D

 32 33  0  0  0  0  0  0  0  0999 V2000
   58.5640   28.5150   43.9010 C   0  0  0  0  0  0  0  0  0  0  0  0
   57.2780   29.6710   44.3110 S   0  0  0  0  0  0  0  0  0  0  0  0
   55.8320   28.8980   44.6800 O   0  0  0  0  0  0  0  0  0  0  0  0
   57.7620   30.7780   45.5930 C   0  0  0  0  0  0  0  0  0  0  0  0
   57.5270   32.1490   45.4120 C   0  0  0  0  0  0  0  0  0  0  0  0
   57.9620   33.0740   46.3640 C   0  0  0  0  0  0  0  0  0  0  0  0
   58.6440   32.6390   47.4990 C   0  0  0  0  0  0  0  0  0  0  0  0
   58.8820   31.2760   47.6950 C   0  0  0  0  0  0  0  0  0  0  0  0
   58.4320   30.3300   46.7580 C   0  0  0  0  0  0  0  0  0  0  0  0
   58.6830   28.8960   47.0190 C   0  0  0  0  0  0  0  0  0  0  0  0
   59.6420   28.5640   47.7680 O   0  0  0  0  0  0  0  0  0  0  0  0
   57.8000   27.8940   46.4930 N   0  0  0  0  0  0  0  0  0  0  0  0
   58.1750   26.5150   46.3480 C   0  0  0  0  0  0  0  0  0  0  0  0
   59.7560   25.9650   46.1590 S   0  0  0  0  0  0  0  0  0  0  0  0
   59.3630   24.3570   45.8810 C   0  0  0  0  0  0  0  0  0  0  0  0
   57.9820   24.2300   45.9210 C   0  0  0  0  0  0  0  0  0  0  0  0
   57.3010   25.4340   46.1800 C   0  0  0  0  0  0  0  0  0  0  0  0
   55.8270   25.4960   46.2920 C   0  0  0  0  0  0  0  0  0  0  0  0
   55.1410   26.7100   45.9970 N   0  0  0  0  0  0  0  0  0  0  0  0
   55.1620   24.4790   46.6180 O   0  0  0  0  0  0  0  0  0  0  0  0
   59.0073   28.1165   44.8255 H   0  0  0  0  0  0  0  0  0  0  0  0
   58.1399   27.6885   43.3119 H   0  0  0  0  0  0  0  0  0  0  0  0
   59.3408   29.0244   43.3119 H   0  0  0  0  0  0  0  0  0  0  0  0
   55.9980   27.9410   44.4880 H   0  0  0  0  0  0  0  0  0  0  0  0
   56.9964   32.4982   44.5139 H   0  0  0  0  0  0  0  0  0  0  0  0
   57.7662   34.1465   46.2178 H   0  0  0  0  0  0  0  0  0  0  0  0
   58.9956   33.3700   48.2420 H   0  0  0  0  0  0  0  0  0  0  0  0
   59.4262   30.9406   48.5902 H   0  0  0  0  0  0  0  0  0  0  0  0
   56.8620   28.2010   46.1590 H   0  0  0  0  0  0  0  0  0  0  0  0
   60.0789   23.5421   45.6981 H   0  0  0  0  0  0  0  0  0  0  0  0
   57.4646   23.2720   45.7640 H   0  0  0  0  0  0  0  0  0  0  0  0
   55.1520   27.1130   45.0340 H   0  0  0  0  0  0  0  0  0  0  0  0
  1  2  1  0
  2  3  1  1
  2  4  1  0
  4  5  2  0
  5  6  1  0
  6  7  2  0
  7  8  1  0
  8  9  2  0
  9 10  1  0
 10 11  2  0
 10 12  1  0
 12 13  1  0
 13 14  1  0
 14 15  1  0
 15 16  2  0
 16 17  1  0
 17 18  1  0
 18 19  1  0
 18 20  2  0
  9  4  1  0
 17 13  2  0
  1 21  1  0
  1 22  1  0
  1 23  1  0
  3 24  1  0
  5 25  1  0
  6 26  1  0
  7 27  1  0
  8 28  1  0
 12 29  1  0
 15 30  1  0
 16 31  1  0
 19 32  1  0
M  CHG  2   2   1  19  -1
M  END
>  <UniqueID>  (20) 
18

>  <SMILES>  (20) 
C[S@@+](O)c1ccccc1C(=O)Nc1sccc1C([NH-])=O

>  <Energy>  (20) 
62.652243349525065

>  <Genealogy>  (20) 
C[S+](O)c1ccccc1C(=O)Nc1sccc1C([NH-])=O (protonated)
C[S@@+](O)c1ccccc1C(=O)Nc1sccc1C([NH-])=O (chirality)
C[S@@+](O)c1ccccc1C(=O)Nc1sccc1C([NH-])=O (3D coordinates assigned)
C[S@@+](O)c1ccccc1C(=O)Nc1sccc1C([NH-])=O (optimized conformer: 62.652243349525065 kcal/mol)

>  <smiles>  (20) 
C[S+]([O-])c1ccccc1C(=O)Nc1sccc1C(N)=O

>  <score_type>  (20) 
oracle

>  <origin>  (20) 
adg

>  <m_score__min__energy>  (20) 
-8.5999999999999996

>  <m_primary>  (20) 
energy

$$$$
20:0
     RDKit          3D

 29 31  0  0  0  0  0  0  0  0999 V2000
   58.8910   33.6520   47.8310 C   0  0  0  0  0  0  0  0  0  0  0  0
   58.3520   33.2930   46.5270 N   0  0  0  0  0  0  0  0  0  0  0  0
   58.2370   32.0430   46.0410 C   0  0  0  0  0  0  0  0  0  0  0  0
   57.6230   32.1270   44.8100 C   0  0  0  0  0  0  0  0  0  0  0  0
   57.3660   31.0080   43.8530 C   0  0  0  0  0  0  0  0  0  0  0  0
   57.4310   29.7280   44.5550 N   0  0  0  0  0  0  0  0  0  0  0  0
   58.5580   29.0280   44.8250 C   0  0  0  0  0  0  0  0  0  0  0  0
   58.2060   27.8360   45.4260 C   0  0  0  0  0  0  0  0  0  0  0  0
   58.9950   26.7830   45.8830 C   0  0  0  0  0  0  0  0  0  0  0  0
   58.3450   25.6710   46.4500 C   0  0  0  0  0  0  0  0  0  0  0  0
   56.9340   25.6330   46.5430 C   0  0  0  0  0  0  0  0  0  0  0  0
   56.3100   24.5260   47.1050 O   0  0  0  0  0  0  0  0  0  0  0  0
   56.1620   26.7130   46.0690 C   0  0  0  0  0  0  0  0  0  0  0  0
   54.7740   26.6910   46.1490 O   0  0  0  0  0  0  0  0  0  0  0  0
   56.8350   27.8020   45.5150 C   0  0  0  0  0  0  0  0  0  0  0  0
   56.3810   28.9790   44.9640 C   0  0  0  0  0  0  0  0  0  0  0  0
   55.0490   29.3540   44.8280 O   0  0  0  0  0  0  0  0  0  0  0  0
   57.4000   33.4740   44.6010 C   0  0  0  0  0  0  0  0  0  0  0  0
   57.8410   34.1650   45.6720 N   0  0  0  0  0  0  0  0  0  0  0  0
   58.2537   33.2275   48.6207 H   0  0  0  0  0  0  0  0  0  0  0  0
   59.9112   33.2524   47.9288 H   0  0  0  0  0  0  0  0  0  0  0  0
   58.9154   34.7474   47.9288 H   0  0  0  0  0  0  0  0  0  0  0  0
   58.5727   31.1204   46.5371 H   0  0  0  0  0  0  0  0  0  0  0  0
   56.3670   31.1301   43.4090 H   0  0  0  0  0  0  0  0  0  0  0  0
   58.1296   31.0260   43.0615 H   0  0  0  0  0  0  0  0  0  0  0  0
   59.5844   29.3550   44.6023 H   0  0  0  0  0  0  0  0  0  0  0  0
   60.0915   26.8195   45.8032 H   0  0  0  0  0  0  0  0  0  0  0  0
   58.9392   24.8242   46.8240 H   0  0  0  0  0  0  0  0  0  0  0  0
   56.9370   33.9128   43.7048 H   0  0  0  0  0  0  0  0  0  0  0  0
  1  2  1  0
  2  3  1  0
  3  4  2  0
  4  5  1  0
  5  6  1  0
  6  7  1  0
  7  8  2  0
  8  9  1  0
  9 10  2  0
 10 11  1  0
 11 12  1  0
 11 13  2  0
 13 14  1  0
 13 15  1  0
 15 16  2  0
 16 17  1  0
  4 18  1  0
 18 19  2  0
 19  2  1  0
 16  6  1  0
 15  8  1  0
  1 20  1  0
  1 21  1  0
  1 22  1  0
  3 23  1  0
  5 24  1  0
  5 25  1  0
  7 26  1  0
  9 27  1  0
 10 28  1  0
 18 29  1  0
M  CHG  3  12  -1  14  -1  17  -1
M  END
>  <UniqueID>  (21) 
19

>  <SMILES>  (21) 
Cn1cc(Cn2cc3ccc([O-])c([O-])c3c2[O-])cn1

>  <Energy>  (21) 
94.04750321455576

>  <Genealogy>  (21) 
Cn1cc(Cn2cc3ccc([O-])c([O-])c3c2[O-])cn1 (protonated)
Cn1cc(Cn2cc3ccc([O-])c([O-])c3c2[O-])cn1 (3D coordinates assigned)
Cn1cc(Cn2cc3ccc([O-])c([O-])c3c2[O-])cn1 (optimized conformer: 94.04750321455576 kcal/mol)

>  <smiles>  (21) 
Cn1cc(Cn2cc3ccc(O)c(O)c3c2O)cn1

>  <score_type>  (21) 
oracle

>  <origin>  (21) 
adg

>  <m_score__min__energy>  (21) 
-16.140000000000001

>  <m_primary>  (21) 
energy

$$$$
21:0
     RDKit          3D

 42 44  0  0  0  0  0  0  0  0999 V2000
   58.9792   35.7488   44.1141 H   0  0  0  0  0  0  0  0  0  0  0  0
   58.9160   34.9550   44.8730 C   0  0  0  0  0  0  0  0  0  0  0  0
   59.6340   35.0710   46.0630 C   0  0  0  0  0  0  0  0  0  0  0  0
   60.2616   35.9566   46.2412 H   0  0  0  0  0  0  0  0  0  0  0  0
   59.5580   34.0670   47.0270 C   0  0  0  0  0  0  0  0  0  0  0  0
   60.1279   34.1638   47.9629 H   0  0  0  0  0  0  0  0  0  0  0  0
   58.7580   32.9320   46.8110 C   0  0  0  0  0  0  0  0  0  0  0  0
   58.6690   31.8620   47.8720 C   0  0  0  0  0  0  0  0  0  0  0  0
   57.8322   31.1879   47.6365 H   0  0  0  0  0  0  0  0  0  0  0  0
   58.5069   32.3427   48.8481 H   0  0  0  0  0  0  0  0  0  0  0  0
   59.9060   31.0900   47.9270 N   0  0  0  0  0  0  0  0  0  0  0  0
   59.9840   29.6940   47.6280 C   0  0  0  0  0  0  0  0  0  0  0  0
   60.5760   28.9330   48.4370 O   0  0  0  0  0  0  0  0  0  0  0  0
   59.4650   29.1970   46.3820 N   0  0  0  0  0  0  0  0  0  0  0  0
   58.7460   28.1350   46.1470 C   0  0  0  0  0  0  0  0  0  0  0  0
   59.3920   27.0090   45.7060 N   0  0  0  0  0  0  0  0  0  0  0  0
   58.7460   25.8390   45.4310 C   0  0  0  0  0  0  0  0  0  0  0  0
   59.2987   24.9593   45.0696 H   0  0  0  0  0  0  0  0  0  0  0  0
   57.3660   25.7900   45.6210 C   0  0  0  0  0  0  0  0  0  0  0  0
   56.3690   24.8490   45.3930 C   0  0  0  0  0  0  0  0  0  0  0  0
   56.4780   23.6050   45.0230 N   0  0  0  0  0  0  0  0  0  0  0  0
   55.5050   22.8170   44.3300 C   0  0  0  0  0  0  0  0  0  0  0  0
   54.2740   23.0520   44.4790 O   0  0  0  0  0  0  0  0  0  0  0  0
   55.9380   21.8670   43.4040 O   0  0  0  0  0  0  0  0  0  0  0  0
   57.2990   21.4650   43.2960 C   0  0  0  0  0  0  0  0  0  0  0  0
   57.7251   21.3391   44.3023 H   0  0  0  0  0  0  0  0  0  0  0  0
   57.3575   20.5112   42.7511 H   0  0  0  0  0  0  0  0  0  0  0  0
   57.8663   22.2339   42.7511 H   0  0  0  0  0  0  0  0  0  0  0  0
   55.1740   25.4420   45.6050 N   0  0  0  0  0  0  0  0  0  0  0  0
   54.2370   24.9920   45.5060 H   0  0  0  0  0  0  0  0  0  0  0  0
   55.3550   26.7010   45.9830 N   0  0  0  0  0  0  0  0  0  0  0  0
   56.6840   26.9160   45.9990 C   0  0  0  0  0  0  0  0  0  0  0  0
   57.3330   28.1130   46.2780 C   0  0  0  0  0  0  0  0  0  0  0  0
   56.7736   29.0079   46.5881 H   0  0  0  0  0  0  0  0  0  0  0  0
   58.0290   32.8100   45.6090 C   0  0  0  0  0  0  0  0  0  0  0  0
   57.2310   31.6700   45.4110 O   0  0  0  0  0  0  0  0  0  0  0  0
   57.3230   30.8080   44.2820 C   0  0  0  0  0  0  0  0  0  0  0  0
   57.4340   29.7680   44.6228 H   0  0  0  0  0  0  0  0  0  0  0  0
   56.4100   30.8996   43.6754 H   0  0  0  0  0  0  0  0  0  0  0  0
   58.1961   31.0902   43.6754 H   0  0  0  0  0  0  0  0  0  0  0  0
   58.1170   33.8330   44.6430 C   0  0  0  0  0  0  0  0  0  0  0  0
   57.5530   33.7469   43.7025 H   0  0  0  0  0  0  0  0  0  0  0  0
  1  2  1  0
  2  3  2  0
  3  4  1  0
  3  5  1  0
  5  6  1  0
  5  7  2  0
  7  8  1  0
  8  9  1  0
  8 10  1  0
  8 11  1  0
 11 12  1  0
 12 13  2  0
 12 14  1  0
 14 15  2  3
 15 16  1  0
 16 17  1  0
 17 18  1  0
 17 19  2  0
 19 20  1  0
 20 21  2  0
 21 22  1  0
 22 23  2  0
 22 24  1  0
 24 25  1  0
 25 26  1  0
 25 27  1  0
 25 28  1  0
 20 29  1  0
 29 30  1  0
 29 31  1  0
 31 32  1  0
 32 33  2  0
 33 34  1  0
  7 35  1  0
 35 36  1  0
 36 37  1  0
 37 38  1  0
 37 39  1  0
 37 40  1  0
 35 41  2  0
 41 42  1  0
 41  2  1  0
 33 15  1  0
 32 19  1  0
M  CHG  3  11  -1  16  -1  31  -1
M  END
>  <UniqueID>  (22) 
20

>  <SMILES>  (22) 
COC(=O)/N=c1/[nH][n-]c2cc(=NC(=O)[N-]Cc3ccccc3OC)[n-]cc12

>  <Energy>  (22) 
97.35511491639613

>  <Genealogy>  (22) 
COC(=O)N=c1[nH][n-]c2cc(=NC(=O)[N-]Cc3ccccc3OC)[n-]cc12 (protonated)
COC(=O)/N=c1/[nH][n-]c2cc(=NC(=O)[N-]Cc3ccccc3OC)[n-]cc12 (cis-trans isomerization)
COC(=O)/N=c1/[nH][n-]c2cc(=NC(=O)[N-]Cc3ccccc3OC)[n-]cc12 (3D coordinates assigned)
COC(=O)/N=c1/[nH][n-]c2cc(=NC(=O)[N-]Cc3ccccc3OC)[n-]cc12 (optimized conformer: 97.35511491639613 kcal/mol)

>  <smiles>  (22) 
COC(=O)N=c1[nH][nH]c2cc(=NC(=O)NCc3ccccc3OC)[nH]cc12

>  <score_type>  (22) 
oracle

>  <origin>  (22) 
adg

>  <m_score__min__energy>  (22) 
-11.890000000000001

>  <m_primary>  (22) 
energy

$$$$
22:0
     RDKit          3D

 34 35  0  0  0  0  0  0  0  0999 V2000
   56.3160   29.9230   42.7430 C   0  0  0  0  0  0  0  0  0  0  0  0
   55.9840   30.0640   44.1890 C   0  0  0  0  0  0  0  0  0  0  0  0
   56.2050   31.1570   44.7760 O   0  0  0  0  0  0  0  0  0  0  0  0
   55.5170   28.9260   44.9220 N   0  0  0  0  0  0  0  0  0  0  0  0
   56.3520   27.9580   45.5720 C   0  0  0  0  0  0  0  0  0  0  0  0
   57.7100   28.2560   45.7480 C   0  0  0  0  0  0  0  0  0  0  0  0
   58.5670   27.3430   46.3860 C   0  0  0  0  0  0  0  0  0  0  0  0
   59.9390   27.6610   46.6530 N   0  0  0  0  0  0  0  0  0  0  0  0
   60.5430   28.9430   46.4560 C   0  0  0  0  0  0  0  0  0  0  0  0
   60.9430   29.2920   45.3120 O   0  0  0  0  0  0  0  0  0  0  0  0
   60.7380   29.8570   47.6260 C   0  0  0  0  0  0  0  0  0  0  0  0
   59.8260   30.9940   47.5490 N   0  0  0  0  0  0  0  0  0  0  0  0
   60.0430   32.2160   46.8250 C   0  0  0  0  0  0  0  0  0  0  0  0
   61.2110   32.6840   46.7760 O   0  0  0  0  0  0  0  0  0  0  0  0
   58.9570   32.9320   46.1260 C   0  0  0  0  0  0  0  0  0  0  0  0
   57.7190   33.2310   46.6630 C   0  0  0  0  0  0  0  0  0  0  0  0
   57.0350   33.9050   45.6750 C   0  0  0  0  0  0  0  0  0  0  0  0
   57.8890   33.9690   44.5940 C   0  0  0  0  0  0  0  0  0  0  0  0
   59.0230   33.3780   44.8930 O   0  0  0  0  0  0  0  0  0  0  0  0
   58.0510   26.1300   46.8550 C   0  0  0  0  0  0  0  0  0  0  0  0
   56.7070   25.8080   46.6470 C   0  0  0  0  0  0  0  0  0  0  0  0
   55.8590   26.7080   45.9940 C   0  0  0  0  0  0  0  0  0  0  0  0
   54.5420   26.3380   45.7490 O   0  0  0  0  0  0  0  0  0  0  0  0
   57.3239   29.4950   42.6382 H   0  0  0  0  0  0  0  0  0  0  0  0
   55.5835   29.2583   42.2617 H   0  0  0  0  0  0  0  0  0  0  0  0
   56.2857   30.9117   42.2617 H   0  0  0  0  0  0  0  0  0  0  0  0
   58.1091   29.2139   45.3832 H   0  0  0  0  0  0  0  0  0  0  0  0
   60.5444   29.3009   48.5551 H   0  0  0  0  0  0  0  0  0  0  0  0
   61.7723   30.2313   47.6143 H   0  0  0  0  0  0  0  0  0  0  0  0
   57.3551   32.9823   47.6708 H   0  0  0  0  0  0  0  0  0  0  0  0
   56.0142   34.3101   45.7361 H   0  0  0  0  0  0  0  0  0  0  0  0
   57.6559   34.4426   43.6289 H   0  0  0  0  0  0  0  0  0  0  0  0
   58.7061   25.4266   47.3899 H   0  0  0  0  0  0  0  0  0  0  0  0
   56.3145   24.8424   46.9985 H   0  0  0  0  0  0  0  0  0  0  0  0
  1  2  1  0
  2  3  2  0
  2  4  1  0
  4  5  1  0
  5  6  2  0
  6  7  1  0
  7  8  1  0
  8  9  1  0
  9 10  2  0
  9 11  1  0
 11 12  1  0
 12 13  1  0
 13 14  2  0
 13 15  1  0
 15 16  2  0
 16 17  1  0
 17 18  2  0
 18 19  1  0
  7 20  2  0
 20 21  1  0
 21 22  2  0
 22 23  1  0
 22  5  1  0
 19 15  1  0
  1 24  1  0
  1 25  1  0
  1 26  1  0
  6 27  1  0
 11 28  1  0
 11 29  1  0
 16 30  1  0
 17 31  1  0
 18 32  1  0
 20 33  1  0
 21 34  1  0
M  CHG  4   4  -1   8  -1  12  -1  23  -1
M  END
>  <UniqueID>  (23) 
21

>  <SMILES>  (23) 
CC(=O)[N-]c1cc([N-]C(=O)C[N-]C(=O)c2ccco2)ccc1[O-]

>  <Energy>  (23) 
64.16242175324089

>  <Genealogy>  (23) 
CC(=O)[N-]c1cc([N-]C(=O)C[N-]C(=O)c2ccco2)ccc1[O-] (protonated)
CC(=O)[N-]c1cc([N-]C(=O)C[N-]C(=O)c2ccco2)ccc1[O-] (3D coordinates assigned)
CC(=O)[N-]c1cc([N-]C(=O)C[N-]C(=O)c2ccco2)ccc1[O-] (optimized conformer: 64.16242175324089 kcal/mol)

>  <smiles>  (23) 
CC(=O)Nc1cc(NC(=O)CNC(=O)c2ccco2)ccc1O

>  <score_type>  (23) 
oracle

>  <origin>  (23) 
adg

>  <m_score__min__energy>  (23) 
-14.289999999999999

>  <m_primary>  (23) 
energy

$$$$
23:0
     RDKit          3D

 43 46  0  0  0  0  0  0  0  0999 V2000
   66.9940   32.7860   50.4620 C   0  0  0  0  0  0  0  0  0  0  0  0
   65.5700   33.1610   50.2210 C   0  0  0  0  0  0  0  0  0  0  0  0
   64.6600   33.5440   51.2050 C   0  0  0  0  0  0  0  0  0  0  0  0
   63.4990   33.7090   50.4890 C   0  0  0  0  0  0  0  0  0  0  0  0
   62.2830   34.0800   50.9410 N   0  0  0  0  0  0  0  0  0  0  0  0
   61.2720   34.1690   50.0710 N   0  0  0  0  0  0  0  0  0  0  0  0
   61.4280   33.8960   48.7370 C   0  0  0  0  0  0  0  0  0  0  0  0
   60.2410   34.0010   47.8540 C   0  0  0  0  0  0  0  0  0  0  0  0
   60.0080   35.0780   47.2410 O   0  0  0  0  0  0  0  0  0  0  0  0
   59.3740   32.8670   47.6470 N   0  0  0  0  0  0  0  0  0  0  0  0
   58.7220   32.6910   46.3710 C   0  0  0  0  0  0  0  0  0  0  0  0
   58.7800   31.4530   45.7040 C   0  0  0  0  0  0  0  0  0  0  0  0
   58.1520   31.2870   44.4660 C   0  0  0  0  0  0  0  0  0  0  0  0
   57.4620   32.3510   43.8820 C   0  0  0  0  0  0  0  0  0  0  0  0
   57.3980   33.5840   44.5340 C   0  0  0  0  0  0  0  0  0  0  0  0
   58.0250   33.7550   45.7720 C   0  0  0  0  0  0  0  0  0  0  0  0
   59.1100   31.9440   48.7270 C   0  0  0  0  0  0  0  0  0  0  0  0
   58.3610   32.3490   49.8470 C   0  0  0  0  0  0  0  0  0  0  0  0
   58.1140   31.4550   50.8930 C   0  0  0  0  0  0  0  0  0  0  0  0
   58.6070   30.1500   50.8280 C   0  0  0  0  0  0  0  0  0  0  0  0
   59.3490   29.7350   49.7190 C   0  0  0  0  0  0  0  0  0  0  0  0
   59.6000   30.6270   48.6720 C   0  0  0  0  0  0  0  0  0  0  0  0
   62.7160   33.5200   48.2690 C   0  0  0  0  0  0  0  0  0  0  0  0
   63.0010   33.2340   46.8180 C   0  0  0  0  0  0  0  0  0  0  0  0
   63.7060   33.4360   49.1990 N   0  0  0  0  0  0  0  0  0  0  0  0
   64.9680   33.0890   49.0100 N   0  0  0  0  0  0  0  0  0  0  0  0
   67.1819   32.7365   51.5447 H   0  0  0  0  0  0  0  0  0  0  0  0
   67.1962   31.8040   50.0095 H   0  0  0  0  0  0  0  0  0  0  0  0
   67.6536   33.5411   50.0095 H   0  0  0  0  0  0  0  0  0  0  0  0
   64.8289   33.6799   52.2834 H   0  0  0  0  0  0  0  0  0  0  0  0
   59.3225   30.6113   46.1593 H   0  0  0  0  0  0  0  0  0  0  0  0
   58.2016   30.3162   43.9511 H   0  0  0  0  0  0  0  0  0  0  0  0
   56.9686   32.2179   42.9079 H   0  0  0  0  0  0  0  0  0  0  0  0
   56.8538   34.4216   44.0733 H   0  0  0  0  0  0  0  0  0  0  0  0
   57.9726   34.7288   46.2809 H   0  0  0  0  0  0  0  0  0  0  0  0
   57.9675   33.3749   49.8999 H   0  0  0  0  0  0  0  0  0  0  0  0
   57.5311   31.7796   51.7676 H   0  0  0  0  0  0  0  0  0  0  0  0
   58.4108   29.4474   51.6514 H   0  0  0  0  0  0  0  0  0  0  0  0
   59.7357   28.7064   49.6697 H   0  0  0  0  0  0  0  0  0  0  0  0
   60.1841   30.2967   47.8003 H   0  0  0  0  0  0  0  0  0  0  0  0
   63.7756   32.4566   46.7428 H   0  0  0  0  0  0  0  0  0  0  0  0
   62.0816   32.8843   46.3257 H   0  0  0  0  0  0  0  0  0  0  0  0
   63.3540   34.1522   46.3257 H   0  0  0  0  0  0  0  0  0  0  0  0
  1  2  1  0
  2  3  1  0
  3  4  2  0
  4  5  1  0
  5  6  2  0
  6  7  1  0
  7  8  1  0
  8  9  2  0
  8 10  1  0
 10 11  1  0
 11 12  2  0
 12 13  1  0
 13 14  2  0
 14 15  1  0
 15 16  2  0
 10 17  1  0
 17 18  2  0
 18 19  1  0
 19 20  2  0
 20 21  1  0
 21 22  2  0
  7 23  2  0
 23 24  1  0
 23 25  1  0
 25 26  1  0
 26  2  2  0
 25  4  1  0
 16 11  1  0
 22 17  1  0
  1 27  1  0
  1 28  1  0
  1 29  1  0
  3 30  1  0
 12 31  1  0
 13 32  1  0
 14 33  1  0
 15 34  1  0
 16 35  1  0
 18 36  1  0
 19 37  1  0
 20 38  1  0
 21 39  1  0
 22 40  1  0
 24 41  1  0
 24 42  1  0
 24 43  1  0
M  END
>  <UniqueID>  (24) 
22

>  <SMILES>  (24) 
Cc1cc2nnc(C(=O)N(c3ccccc3)c3ccccc3)c(C)n2n1

>  <Energy>  (24) 
98.92579683659382

>  <Genealogy>  (24) 
Cc1cc2nnc(C(=O)N(c3ccccc3)c3ccccc3)c(C)n2n1 (3D coordinates assigned)
Cc1cc2nnc(C(=O)N(c3ccccc3)c3ccccc3)c(C)n2n1 (optimized conformer: 98.92579683659382 kcal/mol)

>  <smiles>  (24) 
Cc1cc2nnc(C(=O)N(c3ccccc3)c3ccccc3)c(C)n2n1

>  <score_type>  (24) 
oracle

>  <origin>  (24) 
adg

>  <m_score__min__energy>  (24) 
-8.0199999999999996

>  <m_primary>  (24) 
energy

$$$$
24:0
     RDKit          3D

 46 48  0  0  0  0  0  0  0  0999 V2000
   57.4830   31.5382   51.3206 H   0  0  0  0  0  0  0  0  0  0  0  0
   58.1660   31.4030   50.4690 C   0  0  0  0  0  0  0  0  0  0  0  0
   58.5760   32.4800   49.7510 N   0  0  0  0  0  0  0  0  0  0  0  0
   59.4130   32.3600   48.6820 C   0  0  0  0  0  0  0  0  0  0  0  0
   59.8010   33.4040   48.0080 N   0  0  0  0  0  0  0  0  0  0  0  0
   59.0680   34.0530   46.9570 C   0  0  0  0  0  0  0  0  0  0  0  0
   58.8780   35.2960   47.0350 O   0  0  0  0  0  0  0  0  0  0  0  0
   58.5850   33.3210   45.7600 C   0  0  0  0  0  0  0  0  0  0  0  0
   58.9050   33.7840   44.4740 C   0  0  0  0  0  0  0  0  0  0  0  0
   59.5176   34.6899   44.3554 H   0  0  0  0  0  0  0  0  0  0  0  0
   58.4500   33.1010   43.3450 C   0  0  0  0  0  0  0  0  0  0  0  0
   58.6911   33.4804   42.3410 H   0  0  0  0  0  0  0  0  0  0  0  0
   57.6900   31.9380   43.4850 C   0  0  0  0  0  0  0  0  0  0  0  0
   57.3213   31.4126   42.5917 H   0  0  0  0  0  0  0  0  0  0  0  0
   57.3950   31.4370   44.7650 C   0  0  0  0  0  0  0  0  0  0  0  0
   56.6030   30.2540   44.9560 N   0  0  0  0  0  0  0  0  0  0  0  0
   57.0150   29.0510   45.6160 C   0  0  0  0  0  0  0  0  0  0  0  0
   57.9660   29.0700   46.4420 O   0  0  0  0  0  0  0  0  0  0  0  0
   56.2700   27.8460   45.3950 N   0  0  0  0  0  0  0  0  0  0  0  0
   55.3460   27.9340   44.9170 H   0  0  0  0  0  0  0  0  0  0  0  0
   56.6800   26.5490   45.8660 C   0  0  0  0  0  0  0  0  0  0  0  0
   58.0320   26.2840   46.1550 C   0  0  0  0  0  0  0  0  0  0  0  0
   58.7812   27.0812   46.0406 H   0  0  0  0  0  0  0  0  0  0  0  0
   58.4290   25.0160   46.5860 C   0  0  0  0  0  0  0  0  0  0  0  0
   59.4864   24.8201   46.8174 H   0  0  0  0  0  0  0  0  0  0  0  0
   57.4860   23.9990   46.7230 C   0  0  0  0  0  0  0  0  0  0  0  0
   57.8000   23.0027   47.0677 H   0  0  0  0  0  0  0  0  0  0  0  0
   56.1440   24.2410   46.4240 C   0  0  0  0  0  0  0  0  0  0  0  0
   55.4057   23.4324   46.5292 H   0  0  0  0  0  0  0  0  0  0  0  0
   55.7300   25.5160   45.9880 C   0  0  0  0  0  0  0  0  0  0  0  0
   54.3880   25.7940   45.6790 O   0  0  0  0  0  0  0  0  0  0  0  0
   53.4210   24.8100   45.3230 C   0  0  0  0  0  0  0  0  0  0  0  0
   52.9905   24.3720   46.2356 H   0  0  0  0  0  0  0  0  0  0  0  0
   52.6224   25.2787   44.7293 H   0  0  0  0  0  0  0  0  0  0  0  0
   53.9036   24.0197   44.7293 H   0  0  0  0  0  0  0  0  0  0  0  0
   57.8350   32.1380   45.8940 C   0  0  0  0  0  0  0  0  0  0  0  0
   57.5916   31.7596   46.8978 H   0  0  0  0  0  0  0  0  0  0  0  0
   59.8890   31.0930   48.3180 C   0  0  0  0  0  0  0  0  0  0  0  0
   60.5684   30.9827   47.4600 H   0  0  0  0  0  0  0  0  0  0  0  0
   59.4940   29.9670   49.0540 C   0  0  0  0  0  0  0  0  0  0  0  0
   59.9550   28.5980   48.6490 C   0  0  0  0  0  0  0  0  0  0  0  0
   60.1570   27.9981   49.5486 H   0  0  0  0  0  0  0  0  0  0  0  0
   59.1718   28.1094   48.0507 H   0  0  0  0  0  0  0  0  0  0  0  0
   60.8742   28.6827   48.0507 H   0  0  0  0  0  0  0  0  0  0  0  0
   58.6100   30.1250   50.1280 C   0  0  0  0  0  0  0  0  0  0  0  0
   58.2682   29.2487   50.6984 H   0  0  0  0  0  0  0  0  0  0  0  0
  1  2  1  0
  2  3  1  0
  3  4  1  0
  4  5  2  0
  5  6  1  0
  6  7  2  0
  6  8  1  0
  8  9  2  0
  9 10  1  0
  9 11  1  0
 11 12  1  0
 11 13  2  0
 13 14  1  0
 13 15  1  0
 15 16  1  0
 16 17  1  0
 17 18  2  0
 17 19  1  0
 19 20  1  0
 19 21  1  0
 21 22  2  0
 22 23  1  0
 22 24  1  0
 24 25  1  0
 24 26  2  0
 26 27  1  0
 26 28  1  0
 28 29  1  0
 28 30  2  0
 30 31  1  0
 31 32  1  0
 32 33  1  0
 32 34  1  0
 32 35  1  0
 15 36  2  0
 36 37  1  0
  4 38  1  0
 38 39  1  0
 38 40  2  0
 40 41  1  0
 41 42  1  0
 41 43  1  0
 41 44  1  0
 40 45  1  0
 45 46  1  0
 45  2  2  0
 36  8  1  0
 30 21  1  0
M  CHG  2   3  -1  16  -1
M  END
>  <UniqueID>  (25) 
23

>  <SMILES>  (25) 
COc1ccccc1NC(=O)[N-]c1cccc(C(=O)/N=c2/cc(C)cc[n-]2)c1

>  <Energy>  (25) 
62.872523361947714

>  <Genealogy>  (25) 
COc1ccccc1NC(=O)[N-]c1cccc(C(=O)N=c2cc(C)cc[n-]2)c1 (protonated)
COc1ccccc1NC(=O)[N-]c1cccc(C(=O)/N=c2/cc(C)cc[n-]2)c1 (cis-trans isomerization)
COc1ccccc1NC(=O)[N-]c1cccc(C(=O)/N=c2/cc(C)cc[n-]2)c1 (3D coordinates assigned)
COc1ccccc1NC(=O)[N-]c1cccc(C(=O)/N=c2/cc(C)cc[n-]2)c1 (optimized conformer: 62.872523361947714 kcal/mol)

>  <smiles>  (25) 
COc1ccccc1NC(=O)Nc1cccc(C(=O)N=c2cc(C)cc[nH]2)c1

>  <score_type>  (25) 
oracle

>  <origin>  (25) 
adg

>  <m_score__min__energy>  (25) 
-12.08

>  <m_primary>  (25) 
energy

$$$$
25:0
     RDKit          3D

 52 55  0  0  0  0  0  0  0  0999 V2000
   56.3690   22.4540   47.7520 C   0  0  0  0  0  0  0  0  0  0  0  0
   57.3940   22.2790   46.7810 O   0  0  0  0  0  0  0  0  0  0  0  0
   57.1680   22.1200   45.4050 C   0  0  0  0  0  0  0  0  0  0  0  0
   57.3710   20.8870   44.7520 C   0  0  0  0  0  0  0  0  0  0  0  0
   57.1070   20.7610   43.3850 C   0  0  0  0  0  0  0  0  0  0  0  0
   56.6390   21.8550   42.6580 C   0  0  0  0  0  0  0  0  0  0  0  0
   56.4380   23.0820   43.2920 C   0  0  0  0  0  0  0  0  0  0  0  0
   56.7100   23.2250   44.6620 C   0  0  0  0  0  0  0  0  0  0  0  0
   56.5090   24.4970   45.2960 N   0  0  0  0  0  0  0  0  0  0  0  0
   55.3340   25.0910   45.6400 C   0  0  0  0  0  0  0  0  0  0  0  0
   53.9820   24.5020   45.3810 C   0  0  0  0  0  0  0  0  0  0  0  0
   55.4990   26.2980   46.2410 N   0  0  0  0  0  0  0  0  0  0  0  0
   56.8380   26.4390   46.2790 C   0  0  0  0  0  0  0  0  0  0  0  0
   57.5610   27.5090   46.7960 C   0  0  0  0  0  0  0  0  0  0  0  0
   58.9740   27.4610   46.7180 C   0  0  0  0  0  0  0  0  0  0  0  0
   59.7800   28.5770   47.2670 C   0  0  0  0  0  0  0  0  0  0  0  0
   60.4570   28.3950   48.3160 O   0  0  0  0  0  0  0  0  0  0  0  0
   59.7900   29.8660   46.6310 N   0  0  0  0  0  0  0  0  0  0  0  0
   60.7590   30.9020   46.9790 C   0  0  0  0  0  0  0  0  0  0  0  0
   60.1890   32.2760   46.7030 C   0  0  0  0  0  0  0  0  0  0  0  0
   58.8200   32.3950   46.4060 C   0  0  0  0  0  0  0  0  0  0  0  0
   58.2490   33.6460   46.1700 C   0  0  0  0  0  0  0  0  0  0  0  0
   59.0350   34.7960   46.2310 C   0  0  0  0  0  0  0  0  0  0  0  0
   60.3950   34.6990   46.5290 C   0  0  0  0  0  0  0  0  0  0  0  0
   60.9890   33.4460   46.7660 C   0  0  0  0  0  0  0  0  0  0  0  0
   62.4570   33.3840   47.0980 C   0  0  0  0  0  0  0  0  0  0  0  0
   59.6020   26.3260   46.1340 C   0  0  0  0  0  0  0  0  0  0  0  0
   58.8360   25.2640   45.6210 C   0  0  0  0  0  0  0  0  0  0  0  0
   57.4500   25.3580   45.7180 C   0  0  0  0  0  0  0  0  0  0  0  0
   56.8026   22.3800   48.7602 H   0  0  0  0  0  0  0  0  0  0  0  0
   55.9071   23.4440   47.6233 H   0  0  0  0  0  0  0  0  0  0  0  0
   55.6048   21.6733   47.6233 H   0  0  0  0  0  0  0  0  0  0  0  0
   57.7388   20.0203   45.3208 H   0  0  0  0  0  0  0  0  0  0  0  0
   57.2689   19.7964   42.8816 H   0  0  0  0  0  0  0  0  0  0  0  0
   56.4280   21.7508   41.5835 H   0  0  0  0  0  0  0  0  0  0  0  0
   56.0647   23.9412   42.7155 H   0  0  0  0  0  0  0  0  0  0  0  0
   53.4865   24.2861   46.3390 H   0  0  0  0  0  0  0  0  0  0  0  0
   53.3744   25.2170   44.8068 H   0  0  0  0  0  0  0  0  0  0  0  0
   54.0919   23.5702   44.8068 H   0  0  0  0  0  0  0  0  0  0  0  0
   57.0491   28.3688   47.2529 H   0  0  0  0  0  0  0  0  0  0  0  0
   59.0440   30.1070   45.9400 H   0  0  0  0  0  0  0  0  0  0  0  0
   61.0071   30.8211   48.0476 H   0  0  0  0  0  0  0  0  0  0  0  0
   61.6630   30.7629   46.3678 H   0  0  0  0  0  0  0  0  0  0  0  0
   58.1926   31.4926   46.3592 H   0  0  0  0  0  0  0  0  0  0  0  0
   57.1772   33.7251   45.9355 H   0  0  0  0  0  0  0  0  0  0  0  0
   58.5826   35.7811   46.0440 H   0  0  0  0  0  0  0  0  0  0  0  0
   61.0082   35.6109   46.5790 H   0  0  0  0  0  0  0  0  0  0  0  0
   62.5860   33.3786   48.1904 H   0  0  0  0  0  0  0  0  0  0  0  0
   62.8906   32.4667   46.6730 H   0  0  0  0  0  0  0  0  0  0  0  0
   62.9664   34.2614   46.6730 H   0  0  0  0  0  0  0  0  0  0  0  0
   60.6998   26.2785   46.0831 H   0  0  0  0  0  0  0  0  0  0  0  0
   59.3155   24.3886   45.1587 H   0  0  0  0  0  0  0  0  0  0  0  0
  1  2  1  0
  2  3  1  0
  3  4  2  0
  4  5  1  0
  5  6  2  0
  6  7  1  0
  7  8  2  0
  8  9  1  0
  9 10  1  0
 10 11  1  0
 10 12  2  0
 12 13  1  0
 13 14  2  0
 14 15  1  0
 15 16  1  0
 16 17  2  0
 16 18  1  0
 18 19  1  0
 19 20  1  0
 20 21  2  0
 21 22  1  0
 22 23  2  0
 23 24  1  0
 24 25  2  0
 25 26  1  0
 15 27  2  0
 27 28  1  0
 28 29  2  0
  8  3  1  0
 29  9  1  0
 29 13  1  0
 25 20  1  0
  1 30  1  0
  1 31  1  0
  1 32  1  0
  4 33  1  0
  5 34  1  0
  6 35  1  0
  7 36  1  0
 11 37  1  0
 11 38  1  0
 11 39  1  0
 14 40  1  0
 18 41  1  0
 19 42  1  0
 19 43  1  0
 21 44  1  0
 22 45  1  0
 23 46  1  0
 24 47  1  0
 26 48  1  0
 26 49  1  0
 26 50  1  0
 27 51  1  0
 28 52  1  0
M  END
>  <UniqueID>  (26) 
24

>  <SMILES>  (26) 
COc1ccccc1-n1c(C)nc2cc(C(=O)NCc3ccccc3C)ccc21

>  <Energy>  (26) 
98.9760143882904

>  <Genealogy>  (26) 
COc1ccccc1-n1c(C)nc2cc(C(=O)NCc3ccccc3C)ccc21 (3D coordinates assigned)
COc1ccccc1-n1c(C)nc2cc(C(=O)NCc3ccccc3C)ccc21 (optimized conformer: 98.9760143882904 kcal/mol)

>  <smiles>  (26) 
COc1ccccc1-n1c(C)nc2cc(C(=O)NCc3ccccc3C)ccc21

>  <score_type>  (26) 
oracle

>  <origin>  (26) 
adg

>  <m_score__min__energy>  (26) 
-8.2599999999999998

>  <m_primary>  (26) 
energy

$$$$
26:0
     RDKit          3D

 47 49  0  0  0  0  0  0  0  0999 V2000
   66.7530   32.4330   52.7260 C   0  0  0  0  0  0  0  0  0  0  0  0
   67.1330   32.3670   50.9870 S   0  0  0  0  0  0  0  0  0  0  0  0
   68.4810   32.9920   50.7640 O   0  0  0  0  0  0  0  0  0  0  0  0
   67.1770   30.9410   50.5160 O   0  0  0  0  0  0  0  0  0  0  0  0
   65.9500   33.2520   50.0780 N   0  0  0  0  0  0  0  0  0  0  0  0
   64.7090   32.7280   49.5850 C   0  0  0  0  0  0  0  0  0  0  0  0
   64.1690   33.2750   48.4140 C   0  0  0  0  0  0  0  0  0  0  0  0
   62.9550   32.8060   47.9020 C   0  0  0  0  0  0  0  0  0  0  0  0
   62.2680   31.7760   48.5590 C   0  0  0  0  0  0  0  0  0  0  0  0
   60.6990   31.2220   47.9830 S   0  0  0  0  0  0  0  0  0  0  0  0
   60.8520   30.2190   46.8740 O   0  0  0  0  0  0  0  0  0  0  0  0
   59.9520   30.5890   49.1230 O   0  0  0  0  0  0  0  0  0  0  0  0
   59.8170   32.5920   47.4030 N   0  0  0  0  0  0  0  0  0  0  0  0
   58.8430   32.4240   46.3740 C   0  0  0  0  0  0  0  0  0  0  0  0
   58.2440   33.5400   45.7750 C   0  0  0  0  0  0  0  0  0  0  0  0
   57.2360   33.3640   44.8220 C   0  0  0  0  0  0  0  0  0  0  0  0
   56.8040   32.0770   44.4880 C   0  0  0  0  0  0  0  0  0  0  0  0
   57.3840   30.9590   45.1030 C   0  0  0  0  0  0  0  0  0  0  0  0
   56.7700   29.3420   44.7740 S   0  0  0  0  0  0  0  0  0  0  0  0
   55.2840   29.4200   44.5630 O   0  0  0  0  0  0  0  0  0  0  0  0
   57.4150   28.7790   43.5380 O   0  0  0  0  0  0  0  0  0  0  0  0
   57.0960   28.2830   46.1090 N   0  0  0  0  0  0  0  0  0  0  0  0
   57.2060   26.8540   46.0320 C   0  0  0  0  0  0  0  0  0  0  0  0
   58.4520   26.1990   46.0020 C   0  0  0  0  0  0  0  0  0  0  0  0
   58.5140   24.8040   45.9500 C   0  0  0  0  0  0  0  0  0  0  0  0
   57.3390   24.0510   45.9140 C   0  0  0  0  0  0  0  0  0  0  0  0
   56.0990   24.6910   45.9360 C   0  0  0  0  0  0  0  0  0  0  0  0
   56.0300   26.0880   45.9980 C   0  0  0  0  0  0  0  0  0  0  0  0
   54.7880   26.7120   46.0250 O   0  0  0  0  0  0  0  0  0  0  0  0
   58.4230   31.1360   46.0260 C   0  0  0  0  0  0  0  0  0  0  0  0
   62.8070   31.2210   49.7260 C   0  0  0  0  0  0  0  0  0  0  0  0
   64.0180   31.6930   50.2390 C   0  0  0  0  0  0  0  0  0  0  0  0
   67.6723   32.2733   53.3085 H   0  0  0  0  0  0  0  0  0  0  0  0
   66.3297   33.4181   52.9717 H   0  0  0  0  0  0  0  0  0  0  0  0
   66.0223   31.6483   52.9717 H   0  0  0  0  0  0  0  0  0  0  0  0
   64.7050   34.0813   47.8920 H   0  0  0  0  0  0  0  0  0  0  0  0
   62.5392   33.2456   46.9834 H   0  0  0  0  0  0  0  0  0  0  0  0
   58.5665   34.5539   46.0542 H   0  0  0  0  0  0  0  0  0  0  0  0
   56.7823   34.2394   44.3344 H   0  0  0  0  0  0  0  0  0  0  0  0
   56.0076   31.9416   43.7414 H   0  0  0  0  0  0  0  0  0  0  0  0
   59.3808   26.7881   46.0196 H   0  0  0  0  0  0  0  0  0  0  0  0
   59.4907   24.2981   45.9374 H   0  0  0  0  0  0  0  0  0  0  0  0
   57.3905   22.9532   45.8683 H   0  0  0  0  0  0  0  0  0  0  0  0
   55.1739   24.0966   45.9046 H   0  0  0  0  0  0  0  0  0  0  0  0
   58.9099   30.2595   46.4784 H   0  0  0  0  0  0  0  0  0  0  0  0
   62.2741   30.4087   50.2419 H   0  0  0  0  0  0  0  0  0  0  0  0
   64.4323   31.2530   51.1581 H   0  0  0  0  0  0  0  0  0  0  0  0
  1  2  1  0
  2  3  2  0
  2  4  2  0
  2  5  1  0
  5  6  1  0
  6  7  2  0
  7  8  1  0
  8  9  2  0
  9 10  1  0
 10 11  2  0
 10 12  2  0
 10 13  1  0
 13 14  1  0
 14 15  2  0
 15 16  1  0
 16 17  2  0
 17 18  1  0
 18 19  1  0
 19 20  2  0
 19 21  2  0
 19 22  1  0
 22 23  1  0
 23 24  2  0
 24 25  1  0
 25 26  2  0
 26 27  1  0
 27 28  2  0
 28 29  1  0
 18 30  2  0
  9 31  1  0
 31 32  2  0
 32  6  1  0
 30 14  1  0
 28 23  1  0
  1 33  1  0
  1 34  1  0
  1 35  1  0
  7 36  1  0
  8 37  1  0
 15 38  1  0
 16 39  1  0
 17 40  1  0
 24 41  1  0
 25 42  1  0
 26 43  1  0
 27 44  1  0
 30 45  1  0
 31 46  1  0
 32 47  1  0
M  CHG  4   5  -1  13  -1  22  -1  29  -1
M  END
>  <UniqueID>  (27) 
25

>  <SMILES>  (27) 
CS(=O)(=O)[N-]c1ccc(S(=O)(=O)[N-]c2cccc(S(=O)(=O)[N-]c3ccccc3[O-])c2)cc1

>  <Energy>  (27) 
56.02502227613676

>  <Genealogy>  (27) 
CS(=O)(=O)[N-]c1ccc(S(=O)(=O)[N-]c2cccc(S(=O)(=O)[N-]c3ccccc3[O-])c2)cc1 (protonated)
CS(=O)(=O)[N-]c1ccc(S(=O)(=O)[N-]c2cccc(S(=O)(=O)[N-]c3ccccc3[O-])c2)cc1 (3D coordinates assigned)
CS(=O)(=O)[N-]c1ccc(S(=O)(=O)[N-]c2cccc(S(=O)(=O)[N-]c3ccccc3[O-])c2)cc1 (optimized conformer: 56.02502227613676 kcal/mol)

>  <smiles>  (27) 
CS(=O)(=O)Nc1ccc(S(=O)(=O)Nc2cccc(S(=O)(=O)Nc3ccccc3O)c2)cc1

>  <score_type>  (27) 
oracle

>  <origin>  (27) 
adg

>  <m_score__min__energy>  (27) 
-16.780000000000001

>  <m_primary>  (27) 
energy

$$$$
27:0
     RDKit          3D

 40 41  0  0  0  0  0  0  0  0999 V2000
   62.8250   32.6580   48.5760 C   0  0  0  0  0  0  0  0  0  0  0  0
   61.8280   32.8040   47.4730 C   0  0  0  0  0  0  0  0  0  0  0  0
   62.1450   33.4460   46.4350 O   0  0  0  0  0  0  0  0  0  0  0  0
   60.5600   32.1360   47.5640 N   0  0  0  0  0  0  0  0  0  0  0  0
   59.4710   32.3370   46.6450 C   0  0  0  0  0  0  0  0  0  0  0  0
   58.9230   33.6130   46.4230 C   0  0  0  0  0  0  0  0  0  0  0  0
   57.8600   33.7760   45.5300 C   0  0  0  0  0  0  0  0  0  0  0  0
   57.3190   32.6700   44.8700 C   0  0  0  0  0  0  0  0  0  0  0  0
   57.8260   31.3820   45.1180 C   0  0  0  0  0  0  0  0  0  0  0  0
   57.3180   30.2210   44.4470 N   0  0  0  0  0  0  0  0  0  0  0  0
   56.3950   29.2590   44.9740 C   0  0  0  0  0  0  0  0  0  0  0  0
   55.1550   29.4220   44.8320 O   0  0  0  0  0  0  0  0  0  0  0  0
   56.8640   28.1570   45.7580 N   0  0  0  0  0  0  0  0  0  0  0  0
   58.1500   28.0580   46.3870 C   0  0  0  0  0  0  0  0  0  0  0  0
   59.1130   27.2150   45.8210 C   0  0  0  0  0  0  0  0  0  0  0  0
   60.3800   27.1020   46.4000 C   0  0  0  0  0  0  0  0  0  0  0  0
   60.6970   27.8410   47.5430 C   0  0  0  0  0  0  0  0  0  0  0  0
   59.7560   28.7070   48.1110 C   0  0  0  0  0  0  0  0  0  0  0  0
   60.1250   29.4490   49.2820 N   0  0  0  0  0  0  0  0  0  0  0  0
   59.0910   30.5230   50.1690 S   0  0  0  0  0  0  0  0  0  0  0  0
   60.0020   31.3110   51.4800 C   0  0  0  0  0  0  0  0  0  0  0  0
   57.9710   29.7240   50.7720 O   0  0  0  0  0  0  0  0  0  0  0  0
   58.5050   31.5560   49.2470 O   0  0  0  0  0  0  0  0  0  0  0  0
   58.4860   28.8260   47.5170 C   0  0  0  0  0  0  0  0  0  0  0  0
   58.9070   31.2270   45.9960 C   0  0  0  0  0  0  0  0  0  0  0  0
   62.3121   32.7331   49.5462 H   0  0  0  0  0  0  0  0  0  0  0  0
   63.3184   31.6780   48.4970 H   0  0  0  0  0  0  0  0  0  0  0  0
   63.5786   33.4554   48.4970 H   0  0  0  0  0  0  0  0  0  0  0  0
   60.4560   31.3930   48.2930 H   0  0  0  0  0  0  0  0  0  0  0  0
   59.3321   34.4854   46.9537 H   0  0  0  0  0  0  0  0  0  0  0  0
   57.4478   34.7792   45.3462 H   0  0  0  0  0  0  0  0  0  0  0  0
   56.4946   32.8069   44.1547 H   0  0  0  0  0  0  0  0  0  0  0  0
   58.8715   26.6384   44.9159 H   0  0  0  0  0  0  0  0  0  0  0  0
   61.1290   26.4302   45.9553 H   0  0  0  0  0  0  0  0  0  0  0  0
   61.6929   27.7412   47.9992 H   0  0  0  0  0  0  0  0  0  0  0  0
   59.6120   30.9737   52.4517 H   0  0  0  0  0  0  0  0  0  0  0  0
   61.0660   31.0438   51.3992 H   0  0  0  0  0  0  0  0  0  0  0  0
   59.8909   32.4024   51.3992 H   0  0  0  0  0  0  0  0  0  0  0  0
   57.7496   29.5254   47.9397 H   0  0  0  0  0  0  0  0  0  0  0  0
   59.3187   30.2235   46.1790 H   0  0  0  0  0  0  0  0  0  0  0  0
  1  2  1  0
  2  3  2  0
  2  4  1  0
  4  5  1  0
  5  6  2  0
  6  7  1  0
  7  8  2  0
  8  9  1  0
  9 10  1  0
 10 11  1  0
 11 12  2  0
 11 13  1  0
 13 14  1  0
 14 15  2  0
 15 16  1  0
 16 17  2  0
 17 18  1  0
 18 19  1  0
 19 20  1  0
 20 21  1  0
 20 22  2  0
 20 23  2  0
 18 24  2  0
  9 25  2  0
 25  5  1  0
 24 14  1  0
  1 26  1  0
  1 27  1  0
  1 28  1  0
  4 29  1  0
  6 30  1  0
  7 31  1  0
  8 32  1  0
 15 33  1  0
 16 34  1  0
 17 35  1  0
 21 36  1  0
 21 37  1  0
 21 38  1  0
 24 39  1  0
 25 40  1  0
M  CHG  3  10  -1  13  -1  19  -1
M  END
>  <UniqueID>  (28) 
26

>  <SMILES>  (28) 
CC(=O)Nc1cccc([N-]C(=O)[N-]c2cccc([N-]S(C)(=O)=O)c2)c1

>  <Energy>  (28) 
46.41128763202161

>  <Genealogy>  (28) 
CC(=O)Nc1cccc([N-]C(=O)[N-]c2cccc([N-]S(C)(=O)=O)c2)c1 (protonated)
CC(=O)Nc1cccc([N-]C(=O)[N-]c2cccc([N-]S(C)(=O)=O)c2)c1 (3D coordinates assigned)
CC(=O)Nc1cccc([N-]C(=O)[N-]c2cccc([N-]S(C)(=O)=O)c2)c1 (optimized conformer: 46.41128763202161 kcal/mol)

>  <smiles>  (28) 
CC(=O)Nc1cccc(NC(=O)Nc2cccc(NS(C)(=O)=O)c2)c1

>  <score_type>  (28) 
oracle

>  <origin>  (28) 
adg

>  <m_score__min__energy>  (28) 
-11.970000000000001

>  <m_primary>  (28) 
energy

$$$$
28:0
     RDKit          3D

 35 37  0  0  0  0  0  0  0  0999 V2000
   56.5360   29.3450   43.7160 C   0  0  0  0  0  0  0  0  0  0  0  0
   57.3890   30.2660   44.5270 C   0  0  0  0  0  0  0  0  0  0  0  0
   58.5120   29.7840   45.2050 C   0  0  0  0  0  0  0  0  0  0  0  0
   59.2530   30.6710   45.9950 C   0  0  0  0  0  0  0  0  0  0  0  0
   60.4850   30.1960   46.7050 C   0  0  0  0  0  0  0  0  0  0  0  0
   58.8770   31.9800   46.0720 N   0  0  0  0  0  0  0  0  0  0  0  0
   57.7730   32.4270   45.4140 C   0  0  0  0  0  0  0  0  0  0  0  0
   57.2380   34.1310   45.5900 S   0  0  0  0  0  0  0  0  0  0  0  0
   58.8890   34.8450   45.2680 C   0  0  0  0  0  0  0  0  0  0  0  0
   59.8200   34.5610   46.4040 C   0  0  0  0  0  0  0  0  0  0  0  0
   59.3580   34.5700   47.6820 N   0  0  0  0  0  0  0  0  0  0  0  0
   60.1600   34.2380   48.7280 C   0  0  0  0  0  0  0  0  0  0  0  0
   59.6920   34.2660   49.8980 O   0  0  0  0  0  0  0  0  0  0  0  0
   61.4920   33.8590   48.4910 C   0  0  0  0  0  0  0  0  0  0  0  0
   62.3680   33.4840   49.5250 C   0  0  0  0  0  0  0  0  0  0  0  0
   63.6800   33.1030   49.2260 C   0  0  0  0  0  0  0  0  0  0  0  0
   64.1260   33.0910   47.9000 C   0  0  0  0  0  0  0  0  0  0  0  0
   63.2630   33.4660   46.8670 C   0  0  0  0  0  0  0  0  0  0  0  0
   61.9490   33.8510   47.1550 C   0  0  0  0  0  0  0  0  0  0  0  0
   61.1070   34.2010   46.1500 N   0  0  0  0  0  0  0  0  0  0  0  0
   57.0430   31.5740   44.6490 N   0  0  0  0  0  0  0  0  0  0  0  0
   55.9443   28.7061   44.3881 H   0  0  0  0  0  0  0  0  0  0  0  0
   55.8590   29.9358   43.0815 H   0  0  0  0  0  0  0  0  0  0  0  0
   57.1769   28.7152   43.0815 H   0  0  0  0  0  0  0  0  0  0  0  0
   58.8080   28.7280   45.1196 H   0  0  0  0  0  0  0  0  0  0  0  0
   60.3280   30.2565   47.7921 H   0  0  0  0  0  0  0  0  0  0  0  0
   60.6924   29.1535   46.4219 H   0  0  0  0  0  0  0  0  0  0  0  0
   61.3386   30.8295   46.4219 H   0  0  0  0  0  0  0  0  0  0  0  0
   59.4310   32.6490   46.6520 H   0  0  0  0  0  0  0  0  0  0  0  0
   59.2990   34.4052   44.3469 H   0  0  0  0  0  0  0  0  0  0  0  0
   58.7872   35.9348   45.1589 H   0  0  0  0  0  0  0  0  0  0  0  0
   62.0214   33.4903   50.5689 H   0  0  0  0  0  0  0  0  0  0  0  0
   64.3640   32.8116   50.0367 H   0  0  0  0  0  0  0  0  0  0  0  0
   65.1576   32.7859   47.6703 H   0  0  0  0  0  0  0  0  0  0  0  0
   63.6172   33.4585   45.8256 H   0  0  0  0  0  0  0  0  0  0  0  0
  1  2  1  0
  2  3  2  0
  3  4  1  0
  4  5  1  0
  4  6  2  0
  6  7  1  0
  7  8  1  0
  8  9  1  0
  9 10  1  0
 10 11  2  0
 11 12  1  0
 12 13  2  0
 12 14  1  0
 14 15  2  0
 15 16  1  0
 16 17  2  0
 17 18  1  0
 18 19  2  0
 19 20  1  0
  7 21  2  0
 21  2  1  0
 20 10  1  0
 19 14  1  0
  1 22  1  0
  1 23  1  0
  1 24  1  0
  3 25  1  0
  5 26  1  0
  5 27  1  0
  5 28  1  0
  6 29  1  0
  9 30  1  0
  9 31  1  0
 15 32  1  0
 16 33  1  0
 17 34  1  0
 18 35  1  0
M  CHG  2   6   1  20  -1
M  END
>  <UniqueID>  (29) 
27

>  <SMILES>  (29) 
Cc1cc(C)[nH+]c(SCc2nc(=O)c3ccccc3[n-]2)n1

>  <Energy>  (29) 
33.41482068969169

>  <Genealogy>  (29) 
Cc1cc(C)[nH+]c(SCc2nc(=O)c3ccccc3[n-]2)n1 (protonated)
Cc1cc(C)[nH+]c(SCc2nc(=O)c3ccccc3[n-]2)n1 (3D coordinates assigned)
Cc1cc(C)[nH+]c(SCc2nc(=O)c3ccccc3[n-]2)n1 (optimized conformer: 33.41482068969169 kcal/mol)

>  <smiles>  (29) 
Cc1cc(C)nc(SCc2nc(=O)c3ccccc3[nH]2)n1

>  <score_type>  (29) 
oracle

>  <origin>  (29) 
adg

>  <m_score__min__energy>  (29) 
-7.6600000000000001

>  <m_primary>  (29) 
energy

$$$$
29:0
     RDKit          3D

 64 68  0  0  0  0  0  0  0  0999 V2000
   63.7620   30.0030   50.7210 O   0  0  0  0  0  0  0  0  0  0  0  0
   62.5940   30.2690   50.3250 C   0  0  0  0  0  0  0  0  0  0  0  0
   61.5160   29.3570   50.5800 N   0  0  0  0  0  0  0  0  0  0  0  0
   60.4980   28.9300   49.6570 C   0  0  0  0  0  0  0  0  0  0  0  0
   60.4730   27.6350   49.1140 C   0  0  0  0  0  0  0  0  0  0  0  0
   59.5200   27.2870   48.1500 C   0  0  0  0  0  0  0  0  0  0  0  0
   58.5210   28.2020   47.7750 C   0  0  0  0  0  0  0  0  0  0  0  0
   57.5590   27.9220   46.7490 N   0  0  0  0  0  0  0  0  0  0  0  0
   57.2420   28.6620   45.5580 C   0  0  0  0  0  0  0  0  0  0  0  0
   56.0300   28.7840   45.2420 O   0  0  0  0  0  0  0  0  0  0  0  0
   58.2940   29.2620   44.6520 C   0  0  2  0  0  0  0  0  0  0  0  0
   59.2730   28.1710   44.1560 C   0  0  0  0  0  0  0  0  0  0  0  0
   60.5380   28.2900   45.0150 C   0  0  0  0  0  0  0  0  0  0  0  0
   60.3990   29.6350   45.6010 C   0  0  0  0  0  0  0  0  0  0  0  0
   61.3230   30.2220   46.2220 O   0  0  0  0  0  0  0  0  0  0  0  0
   59.1160   30.2110   45.4010 N   0  0  0  0  0  0  0  0  0  0  0  0
   58.8830   31.6610   45.4730 C   0  0  0  0  0  0  0  0  0  0  0  0
   57.5320   32.0330   44.8250 C   0  0  0  0  0  0  0  0  0  0  0  0
   57.0210   33.4120   45.2960 C   0  0  0  0  0  0  0  0  0  0  0  0
   58.1390   34.2570   45.7300 N   0  0  0  0  0  0  0  0  0  0  0  0
   58.7770   33.7230   46.9510 C   0  0  0  0  0  0  0  0  0  0  0  0
   58.9500   32.1840   46.9170 C   0  0  0  0  0  0  0  0  0  0  0  0
   58.5330   29.4840   48.3370 C   0  0  0  0  0  0  0  0  0  0  0  0
   59.5150   29.8520   49.2680 C   0  0  0  0  0  0  0  0  0  0  0  0
   59.5200   31.1400   49.8170 O   0  0  0  0  0  0  0  0  0  0  0  0
   58.5950   31.5900   50.7730 C   0  0  0  0  0  0  0  0  0  0  0  0
   57.6390   30.6920   51.2660 C   0  0  0  0  0  0  0  0  0  0  0  0
   56.7770   31.0780   52.2430 N   0  0  0  0  0  0  0  0  0  0  0  0
   56.8190   32.3200   52.7860 C   0  0  0  0  0  0  0  0  0  0  0  0
   57.7350   33.2610   52.3040 C   0  0  0  0  0  0  0  0  0  0  0  0
   57.8080   34.4850   52.8750 F   0  0  0  0  0  0  0  0  0  0  0  0
   58.6180   32.9030   51.2810 C   0  0  0  0  0  0  0  0  0  0  0  0
   62.3500   31.5030   49.5460 C   0  0  0  0  0  0  0  0  0  0  0  0
   61.7980   32.6410   50.1650 C   0  0  0  0  0  0  0  0  0  0  0  0
   61.5760   33.8090   49.4320 C   0  0  0  0  0  0  0  0  0  0  0  0
   61.9080   33.8610   48.0760 C   0  0  0  0  0  0  0  0  0  0  0  0
   62.4610   32.7420   47.4490 C   0  0  0  0  0  0  0  0  0  0  0  0
   62.6710   31.5630   48.1750 C   0  0  0  0  0  0  0  0  0  0  0  0
   61.2082   26.8885   49.4490 H   0  0  0  0  0  0  0  0  0  0  0  0
   59.5529   26.2916   47.6830 H   0  0  0  0  0  0  0  0  0  0  0  0
   57.7654   29.7411   43.8148 H   0  0  0  0  0  0  0  0  0  0  0  0
   58.8238   27.1744   44.2788 H   0  0  0  0  0  0  0  0  0  0  0  0
   59.5055   28.3037   43.0891 H   0  0  0  0  0  0  0  0  0  0  0  0
   60.5623   27.5163   45.7965 H   0  0  0  0  0  0  0  0  0  0  0  0
   61.4694   28.1533   44.4460 H   0  0  0  0  0  0  0  0  0  0  0  0
   59.6915   32.1475   44.9076 H   0  0  0  0  0  0  0  0  0  0  0  0
   57.6571   32.0556   43.7324 H   0  0  0  0  0  0  0  0  0  0  0  0
   56.7923   31.2769   45.1269 H   0  0  0  0  0  0  0  0  0  0  0  0
   56.4960   33.9059   44.4651 H   0  0  0  0  0  0  0  0  0  0  0  0
   56.3372   33.2654   46.1451 H   0  0  0  0  0  0  0  0  0  0  0  0
   57.7650   35.2110   45.9490 H   0  0  0  0  0  0  0  0  0  0  0  0
   59.7692   34.1854   47.0595 H   0  0  0  0  0  0  0  0  0  0  0  0
   58.1187   33.9625   47.7991 H   0  0  0  0  0  0  0  0  0  0  0  0
   59.9257   31.9207   47.3514 H   0  0  0  0  0  0  0  0  0  0  0  0
   58.1368   31.7240   47.4976 H   0  0  0  0  0  0  0  0  0  0  0  0
   57.7621   30.2122   48.0445 H   0  0  0  0  0  0  0  0  0  0  0  0
   57.5861   29.6708   50.8606 H   0  0  0  0  0  0  0  0  0  0  0  0
   56.1339   32.5870   53.6041 H   0  0  0  0  0  0  0  0  0  0  0  0
   59.3255   33.6415   50.8760 H   0  0  0  0  0  0  0  0  0  0  0  0
   61.5397   32.6099   51.2338 H   0  0  0  0  0  0  0  0  0  0  0  0
   61.1385   34.6904   49.9238 H   0  0  0  0  0  0  0  0  0  0  0  0
   61.7339   34.7831   47.5021 H   0  0  0  0  0  0  0  0  0  0  0  0
   62.7318   32.7869   46.3838 H   0  0  0  0  0  0  0  0  0  0  0  0
   63.0890   30.6784   47.6722 H   0  0  0  0  0  0  0  0  0  0  0  0
  1  2  2  0
  2  3  1  0
  3  4  1  0
  4  5  2  0
  5  6  1  0
  6  7  2  0
  7  8  1  0
  8  9  1  0
  9 10  2  0
  9 11  1  0
 11 12  1  0
 12 13  1  0
 13 14  1  0
 14 15  2  0
 14 16  1  0
 16 17  1  0
 17 18  1  0
 18 19  1  0
 19 20  1  0
 20 21  1  0
 21 22  1  0
  7 23  1  0
 23 24  2  0
 24 25  1  0
 25 26  1  0
 26 27  2  0
 27 28  1  0
 28 29  2  0
 29 30  1  0
 30 31  1  0
 30 32  2  0
  2 33  1  0
 33 34  2  0
 34 35  1  0
 35 36  2  0
 36 37  1  0
 37 38  2  0
 24  4  1  0
 32 26  1  0
 38 33  1  0
 16 11  1  0
 22 17  1  0
  5 39  1  0
  6 40  1  0
 11 41  1  6
 12 42  1  0
 12 43  1  0
 13 44  1  0
 13 45  1  0
 17 46  1  0
 18 47  1  0
 18 48  1  0
 19 49  1  0
 19 50  1  0
 20 51  1  0
 21 52  1  0
 21 53  1  0
 22 54  1  0
 22 55  1  0
 23 56  1  0
 27 57  1  0
 29 58  1  0
 32 59  1  0
 34 60  1  0
 35 61  1  0
 36 62  1  0
 37 63  1  0
 38 64  1  0
M  CHG  2   3  -1   8  -1
M  END
>  <UniqueID>  (30) 
28

>  <SMILES>  (30) 
O=C([N-]c1ccc([N-]C(=O)[C@@H]2CCC(=O)N2C2CCNCC2)cc1Oc1cncc(F)c1)c1ccccc1

>  <Energy>  (30) 
98.50347192944646

>  <Genealogy>  (30) 
O=C([N-]c1ccc([N-]C(=O)C2CCC(=O)N2C2CCNCC2)cc1Oc1cncc(F)c1)c1ccccc1 (protonated)
O=C([N-]c1ccc([N-]C(=O)[C@@H]2CCC(=O)N2C2CCNCC2)cc1Oc1cncc(F)c1)c1ccccc1 (chirality)
O=C([N-]c1ccc([N-]C(=O)[C@@H]2CCC(=O)N2C2CCNCC2)cc1Oc1cncc(F)c1)c1ccccc1 (3D coordinates assigned)
O=C([N-]c1ccc([N-]C(=O)[C@@H]2CCC(=O)N2C2CCNCC2)cc1Oc1cncc(F)c1)c1ccccc1 (nonaromatic ring conformer: 98.50347192944646 kcal/mol)

>  <smiles>  (30) 
O=C(Nc1ccc(NC(=O)C2CCC(=O)N2C2CCNCC2)cc1Oc1cncc(F)c1)c1ccccc1

>  <score_type>  (30) 
oracle

>  <origin>  (30) 
adg

>  <m_score__min__energy>  (30) 
-12.119999999999999

>  <m_primary>  (30) 
energy

$$$$
30:0
     RDKit          3D

 38 39  0  0  0  0  0  0  0  0999 V2000
   55.1450   29.3430   44.7130 N   0  0  0  0  0  0  0  0  0  0  0  0
   56.8610   29.2790   44.9030 S   0  0  0  0  0  0  0  0  0  0  0  0
   57.4560   28.4350   43.8100 O   0  0  0  0  0  0  0  0  0  0  0  0
   57.1940   28.6540   46.2280 O   0  0  0  0  0  0  0  0  0  0  0  0
   57.5240   30.9080   44.8280 C   0  0  0  0  0  0  0  0  0  0  0  0
   57.4930   31.6250   43.6260 C   0  0  0  0  0  0  0  0  0  0  0  0
   58.0060   32.9210   43.5690 C   0  0  0  0  0  0  0  0  0  0  0  0
   58.5500   33.5120   44.7120 C   0  0  0  0  0  0  0  0  0  0  0  0
   58.5830   32.8110   45.9310 C   0  0  0  0  0  0  0  0  0  0  0  0
   59.1540   33.4360   47.1470 C   0  0  0  0  0  0  0  0  0  0  0  0
   58.5880   33.2840   48.2640 O   0  0  0  0  0  0  0  0  0  0  0  0
   60.3510   34.2170   47.0610 N   0  0  0  0  0  0  0  0  0  0  0  0
   61.5590   33.7410   46.4030 C   0  0  0  0  0  0  0  0  0  0  0  0
   62.4040   33.0120   47.3930 C   0  0  0  0  0  0  0  0  0  0  0  0
   63.2560   33.6440   48.0750 O   0  0  0  0  0  0  0  0  0  0  0  0
   62.2050   31.6400   47.5870 O   0  0  0  0  0  0  0  0  0  0  0  0
   61.0280   31.0970   48.1810 C   0  0  0  0  0  0  0  0  0  0  0  0
   60.6360   29.8160   47.4930 C   0  0  0  0  0  0  0  0  0  0  0  0
   60.7520   29.7180   46.0960 C   0  0  0  0  0  0  0  0  0  0  0  0
   60.4100   28.5330   45.4400 C   0  0  0  0  0  0  0  0  0  0  0  0
   59.9490   27.4350   46.1720 C   0  0  0  0  0  0  0  0  0  0  0  0
   59.6180   26.2860   45.5330 F   0  0  0  0  0  0  0  0  0  0  0  0
   59.8340   27.5210   47.5620 C   0  0  0  0  0  0  0  0  0  0  0  0
   60.1750   28.7040   48.2250 C   0  0  0  0  0  0  0  0  0  0  0  0
   60.0580   28.7610   49.5760 F   0  0  0  0  0  0  0  0  0  0  0  0
   58.0610   31.5030   45.9780 C   0  0  0  0  0  0  0  0  0  0  0  0
   54.7330   29.3630   45.6740 H   0  0  0  0  0  0  0  0  0  0  0  0
   57.0629   31.1652   42.7240 H   0  0  0  0  0  0  0  0  0  0  0  0
   57.9821   33.4791   42.6214 H   0  0  0  0  0  0  0  0  0  0  0  0
   58.9555   34.5331   44.6583 H   0  0  0  0  0  0  0  0  0  0  0  0
   61.2869   33.0621   45.5814 H   0  0  0  0  0  0  0  0  0  0  0  0
   62.1199   34.5962   45.9981 H   0  0  0  0  0  0  0  0  0  0  0  0
   61.2198   30.8931   49.2448 H   0  0  0  0  0  0  0  0  0  0  0  0
   60.2083   31.8231   48.0772 H   0  0  0  0  0  0  0  0  0  0  0  0
   61.1142   30.5794   45.5156 H   0  0  0  0  0  0  0  0  0  0  0  0
   60.5036   28.4639   44.3462 H   0  0  0  0  0  0  0  0  0  0  0  0
   59.4739   26.6549   48.1367 H   0  0  0  0  0  0  0  0  0  0  0  0
   58.0750   30.9440   46.9253 H   0  0  0  0  0  0  0  0  0  0  0  0
  1  2  1  0
  2  3  2  0
  2  4  2  0
  2  5  1  0
  5  6  2  0
  6  7  1  0
  7  8  2  0
  8  9  1  0
  9 10  1  0
 10 11  2  0
 10 12  1  0
 12 13  1  0
 13 14  1  0
 14 15  2  0
 14 16  1  0
 16 17  1  0
 17 18  1  0
 18 19  2  0
 19 20  1  0
 20 21  2  0
 21 22  1  0
 21 23  1  0
 23 24  2  0
 24 25  1  0
  9 26  2  0
 26  5  1  0
 24 18  1  0
  1 27  1  0
  6 28  1  0
  7 29  1  0
  8 30  1  0
 13 31  1  0
 13 32  1  0
 17 33  1  0
 17 34  1  0
 19 35  1  0
 20 36  1  0
 23 37  1  0
 26 38  1  0
M  CHG  2   1  -1  12  -1
M  END
>  <UniqueID>  (31) 
29

>  <SMILES>  (31) 
[NH-]S(=O)(=O)c1cccc(C(=O)[N-]CC(=O)OCc2ccc(F)cc2F)c1

>  <Energy>  (31) 
34.25037867046791

>  <Genealogy>  (31) 
[NH-]S(=O)(=O)c1cccc(C(=O)[N-]CC(=O)OCc2ccc(F)cc2F)c1 (protonated)
[NH-]S(=O)(=O)c1cccc(C(=O)[N-]CC(=O)OCc2ccc(F)cc2F)c1 (3D coordinates assigned)
[NH-]S(=O)(=O)c1cccc(C(=O)[N-]CC(=O)OCc2ccc(F)cc2F)c1 (optimized conformer: 34.25037867046791 kcal/mol)

>  <smiles>  (31) 
NS(=O)(=O)c1cccc(C(=O)NCC(=O)OCc2ccc(F)cc2F)c1

>  <score_type>  (31) 
oracle

>  <origin>  (31) 
adg

>  <m_score__min__energy>  (31) 
-12.4

>  <m_primary>  (31) 
energy

$$$$
31:0
     RDKit          3D

 60 63  0  0  0  0  0  0  0  0999 V2000
   58.6693   21.3414   43.2652 H   0  0  0  0  0  0  0  0  0  0  0  0
   57.9730   21.9770   43.8320 C   0  0  0  0  0  0  0  0  0  0  0  0
   56.7000   22.2490   43.3210 C   0  0  0  0  0  0  0  0  0  0  0  0
   56.3950   21.8249   42.3530 H   0  0  0  0  0  0  0  0  0  0  0  0
   55.8140   23.0590   44.0380 C   0  0  0  0  0  0  0  0  0  0  0  0
   54.8112   23.2656   43.6357 H   0  0  0  0  0  0  0  0  0  0  0  0
   56.2020   23.6100   45.2720 C   0  0  0  0  0  0  0  0  0  0  0  0
   55.2370   24.4540   46.0650 C   0  0  0  0  0  0  0  0  0  0  0  0
   55.3612   24.2309   47.1349 H   0  0  0  0  0  0  0  0  0  0  0  0
   54.2151   24.2167   45.7343 H   0  0  0  0  0  0  0  0  0  0  0  0
   55.4850   25.9450   45.8350 C   0  0  0  0  0  0  0  0  0  0  0  0
   54.6468   26.5213   46.2537 H   0  0  0  0  0  0  0  0  0  0  0  0
   55.5675   26.1319   44.7541 H   0  0  0  0  0  0  0  0  0  0  0  0
   56.7240   26.3570   46.4840 N   0  0  0  0  0  0  0  0  0  0  0  0
   57.3860   27.5970   46.2100 C   0  0  0  0  0  0  0  0  0  0  0  0
   57.0540   28.2590   45.1910 O   0  0  0  0  0  0  0  0  0  0  0  0
   58.4130   28.1320   47.1190 C   0  0  0  0  0  0  0  0  0  0  0  0
   58.6340   29.5170   47.2730 C   0  0  0  0  0  0  0  0  0  0  0  0
   57.8090   30.4910   46.6850 O   0  0  0  0  0  0  0  0  0  0  0  0
   58.2040   31.7990   46.3570 C   0  0  0  0  0  0  0  0  0  0  0  0
   58.3490   32.2240   45.0100 C   0  0  0  0  0  0  0  0  0  0  0  0
   57.9800   31.3380   43.8500 C   0  0  0  0  0  0  0  0  0  0  0  0
   57.5829   30.3846   44.2286 H   0  0  0  0  0  0  0  0  0  0  0  0
   57.2146   31.8363   43.2369 H   0  0  0  0  0  0  0  0  0  0  0  0
   58.8728   31.1457   43.2369 H   0  0  0  0  0  0  0  0  0  0  0  0
   58.8380   33.5120   44.7410 C   0  0  0  0  0  0  0  0  0  0  0  0
   58.9959   33.8283   43.6994 H   0  0  0  0  0  0  0  0  0  0  0  0
   59.1260   34.3960   45.7840 C   0  0  0  0  0  0  0  0  0  0  0  0
   59.6260   35.7140   45.4940 C   0  0  0  0  0  0  0  0  0  0  0  0
   60.0280   36.7740   45.2600 N   0  0  0  0  0  0  0  0  0  0  0  0
   58.9100   34.0060   47.1070 C   0  0  0  0  0  0  0  0  0  0  0  0
   59.1194   34.7110   47.9250 H   0  0  0  0  0  0  0  0  0  0  0  0
   58.4280   32.7220   47.4010 C   0  0  0  0  0  0  0  0  0  0  0  0
   58.2300   32.3400   48.8420 C   0  0  0  0  0  0  0  0  0  0  0  0
   58.6390   33.1291   49.4901 H   0  0  0  0  0  0  0  0  0  0  0  0
   57.1557   32.2190   49.0450 H   0  0  0  0  0  0  0  0  0  0  0  0
   58.7505   31.3924   49.0450 H   0  0  0  0  0  0  0  0  0  0  0  0
   59.7200   29.9510   48.0360 C   0  0  0  0  0  0  0  0  0  0  0  0
   59.9266   31.0272   48.1316 H   0  0  0  0  0  0  0  0  0  0  0  0
   60.5460   29.0240   48.6790 C   0  0  0  0  0  0  0  0  0  0  0  0
   61.5410   29.4700   49.3960 N   0  0  0  0  0  0  0  0  0  0  0  0
   61.9990   30.8260   49.4960 C   0  0  0  0  0  0  0  0  0  0  0  0
   61.7440   31.5490   50.6680 C   0  0  0  0  0  0  0  0  0  0  0  0
   61.2371   31.0604   51.5132 H   0  0  0  0  0  0  0  0  0  0  0  0
   62.1310   32.8900   50.7690 C   0  0  0  0  0  0  0  0  0  0  0  0
   61.9448   33.4472   51.6990 H   0  0  0  0  0  0  0  0  0  0  0  0
   62.7540   33.5220   49.6890 C   0  0  0  0  0  0  0  0  0  0  0  0
   63.1260   34.8220   49.7900 F   0  0  0  0  0  0  0  0  0  0  0  0
   62.9800   32.8170   48.5020 C   0  0  0  0  0  0  0  0  0  0  0  0
   63.5650   33.4350   47.4450 F   0  0  0  0  0  0  0  0  0  0  0  0
   62.5940   31.4780   48.4000 C   0  0  0  0  0  0  0  0  0  0  0  0
   62.7559   30.9313   47.4593 H   0  0  0  0  0  0  0  0  0  0  0  0
   60.2650   27.6870   48.5760 N   0  0  0  0  0  0  0  0  0  0  0  0
   60.8180   26.9730   49.0970 H   0  0  0  0  0  0  0  0  0  0  0  0
   59.2350   27.2350   47.8100 C   0  0  0  0  0  0  0  0  0  0  0  0
   59.0468   26.1539   47.7333 H   0  0  0  0  0  0  0  0  0  0  0  0
   57.4780   23.3240   45.7840 C   0  0  0  0  0  0  0  0  0  0  0  0
   57.7847   23.7393   46.7553 H   0  0  0  0  0  0  0  0  0  0  0  0
   58.3600   22.5130   45.0630 C   0  0  0  0  0  0  0  0  0  0  0  0
   59.3605   22.2966   45.4657 H   0  0  0  0  0  0  0  0  0  0  0  0
  1  2  1  0
  2  3  2  0
  3  4  1  0
  3  5  1  0
  5  6  1  0
  5  7  2  0
  7  8  1  0
  8  9  1  0
  8 10  1  0
  8 11  1  0
 11 12  1  0
 11 13  1  0
 11 14  1  0
 14 15  1  0
 15 16  2  0
 15 17  1  0
 17 18  1  0
 18 19  1  0
 19 20  1  0
 20 21  2  0
 21 22  1  0
 22 23  1  0
 22 24  1  0
 22 25  1  0
 21 26  1  0
 26 27  1  0
 26 28  2  0
 28 29  1  0
 29 30  3  0
 28 31  1  0
 31 32  1  0
 31 33  2  0
 33 34  1  0
 34 35  1  0
 34 36  1  0
 34 37  1  0
 18 38  2  0
 38 39  1  0
 38 40  1  0
 40 41  2  0
 41 42  1  0
 42 43  2  0
 43 44  1  0
 43 45  1  0
 45 46  1  0
 45 47  2  0
 47 48  1  0
 47 49  1  0
 49 50  1  0
 49 51  2  0
 51 52  1  0
 40 53  1  0
 53 54  1  0
 53 55  1  0
 55 56  1  0
  7 57  1  0
 57 58  1  0
 57 59  2  0
 59 60  1  0
 59  2  1  0
 55 17  2  0
 33 20  1  0
 51 42  1  0
M  CHG  1  14  -1
M  END
>  <UniqueID>  (32) 
30

>  <SMILES>  (32) 
Cc1cc(C#N)cc(C)c1Oc1c/c(=N/c2ccc(F)c(F)c2)[nH]cc1C(=O)[N-]CCc1ccccc1

>  <Energy>  (32) 
83.31853724844683

>  <Genealogy>  (32) 
Cc1cc(C#N)cc(C)c1Oc1cc(=Nc2ccc(F)c(F)c2)[nH]cc1C(=O)[N-]CCc1ccccc1 (protonated)
Cc1cc(C#N)cc(C)c1Oc1c/c(=N/c2ccc(F)c(F)c2)[nH]cc1C(=O)[N-]CCc1ccccc1 (cis-trans isomerization)
Cc1cc(C#N)cc(C)c1Oc1c/c(=N/c2ccc(F)c(F)c2)[nH]cc1C(=O)[N-]CCc1ccccc1 (3D coordinates assigned)
Cc1cc(C#N)cc(C)c1Oc1c/c(=N/c2ccc(F)c(F)c2)[nH]cc1C(=O)[N-]CCc1ccccc1 (optimized conformer: 83.31853724844683 kcal/mol)

>  <smiles>  (32) 
Cc1cc(C#N)cc(C)c1Oc1cc(=Nc2ccc(F)c(F)c2)[nH]cc1C(=O)NCCc1ccccc1

>  <score_type>  (32) 
oracle

>  <origin>  (32) 
adg

>  <m_score__min__energy>  (32) 
-10.210000000000001

>  <m_primary>  (32) 
energy

$$$$
32:0
     RDKit          3D

 51 52  0  0  0  0  0  0  0  0999 V2000
   58.7920   34.5610   47.2370 C   0  0  0  0  0  0  0  0  0  0  0  0
   59.3300   34.0270   45.8880 C   0  0  0  0  0  0  0  0  0  0  0  0
   60.8000   33.6050   46.1020 C   0  0  0  0  0  0  0  0  0  0  0  0
   59.2720   35.1870   44.8690 C   0  0  0  0  0  0  0  0  0  0  0  0
   58.5250   32.8270   45.3480 C   0  0  0  0  0  0  0  0  0  0  0  0
   58.0590   32.7560   44.0130 C   0  0  0  0  0  0  0  0  0  0  0  0
   57.3300   31.6510   43.5630 C   0  0  0  0  0  0  0  0  0  0  0  0
   57.0570   30.5820   44.4240 C   0  0  0  0  0  0  0  0  0  0  0  0
   56.2440   29.4120   43.9490 C   0  0  0  0  0  0  0  0  0  0  0  0
   55.7730   28.6600   45.1030 N   0  0  0  0  0  0  0  0  0  0  0  0
   56.2990   27.4280   45.6230 C   0  0  0  0  0  0  0  0  0  0  0  0
   55.5200   26.6710   46.2560 O   0  0  0  0  0  0  0  0  0  0  0  0
   57.6640   27.0130   45.4620 N   0  0  0  0  0  0  0  0  0  0  0  0
   58.6110   26.6460   46.5060 C   0  0  0  0  0  0  0  0  0  0  0  0
   59.1580   27.8960   47.1330 C   0  0  0  0  0  0  0  0  0  0  0  0
   58.5790   28.4140   48.3010 C   0  0  0  0  0  0  0  0  0  0  0  0
   59.0660   29.5960   48.8680 C   0  0  0  0  0  0  0  0  0  0  0  0
   60.1340   30.2850   48.2640 C   0  0  0  0  0  0  0  0  0  0  0  0
   60.6610   31.5020   48.8110 N   0  0  0  0  0  0  0  0  0  0  0  0
   59.7860   32.6020   49.8260 S   0  0  0  0  0  0  0  0  0  0  0  0
   59.9400   32.0720   51.5160 C   0  0  0  0  0  0  0  0  0  0  0  0
   58.3330   32.6070   49.4430 O   0  0  0  0  0  0  0  0  0  0  0  0
   60.3580   33.9850   49.6920 O   0  0  0  0  0  0  0  0  0  0  0  0
   60.7000   29.7740   47.0880 C   0  0  0  0  0  0  0  0  0  0  0  0
   61.7260   30.4280   46.4860 F   0  0  0  0  0  0  0  0  0  0  0  0
   60.2130   28.5910   46.5230 C   0  0  0  0  0  0  0  0  0  0  0  0
   57.4950   30.6440   45.7520 C   0  0  0  0  0  0  0  0  0  0  0  0
   58.2230   31.7470   46.2060 C   0  0  0  0  0  0  0  0  0  0  0  0
   59.3062   34.0506   48.0647 H   0  0  0  0  0  0  0  0  0  0  0  0
   58.9764   35.6435   47.3026 H   0  0  0  0  0  0  0  0  0  0  0  0
   57.7110   34.3685   47.3026 H   0  0  0  0  0  0  0  0  0  0  0  0
   61.0109   33.5445   47.1799 H   0  0  0  0  0  0  0  0  0  0  0  0
   60.9703   32.6217   45.6393 H   0  0  0  0  0  0  0  0  0  0  0  0
   61.4659   34.3482   45.6393 H   0  0  0  0  0  0  0  0  0  0  0  0
   59.2241   36.1454   45.4068 H   0  0  0  0  0  0  0  0  0  0  0  0
   60.1723   35.1656   44.2374 H   0  0  0  0  0  0  0  0  0  0  0  0
   58.3783   35.0759   44.2374 H   0  0  0  0  0  0  0  0  0  0  0  0
   58.2736   33.5824   43.3195 H   0  0  0  0  0  0  0  0  0  0  0  0
   56.9684   31.6217   42.5246 H   0  0  0  0  0  0  0  0  0  0  0  0
   55.3826   29.7734   43.3682 H   0  0  0  0  0  0  0  0  0  0  0  0
   56.8638   28.7640   43.3119 H   0  0  0  0  0  0  0  0  0  0  0  0
   58.1005   26.0428   47.2712 H   0  0  0  0  0  0  0  0  0  0  0  0
   59.4331   26.0584   46.0714 H   0  0  0  0  0  0  0  0  0  0  0  0
   57.7369   27.8873   48.7737 H   0  0  0  0  0  0  0  0  0  0  0  0
   58.6123   29.9887   49.7899 H   0  0  0  0  0  0  0  0  0  0  0  0
   59.6967   32.9094   52.1865 H   0  0  0  0  0  0  0  0  0  0  0  0
   59.2468   31.2387   51.7036 H   0  0  0  0  0  0  0  0  0  0  0  0
   60.9718   31.7399   51.7036 H   0  0  0  0  0  0  0  0  0  0  0  0
   60.6595   28.2034   45.5954 H   0  0  0  0  0  0  0  0  0  0  0  0
   57.2647   29.8193   46.4425 H   0  0  0  0  0  0  0  0  0  0  0  0
   58.5670   31.7744   47.2505 H   0  0  0  0  0  0  0  0  0  0  0  0
  1  2  1  0
  2  3  1  0
  2  4  1  0
  2  5  1  0
  5  6  2  0
  6  7  1  0
  7  8  2  0
  8  9  1  0
  9 10  1  0
 10 11  1  0
 11 12  2  0
 11 13  1  0
 13 14  1  0
 14 15  1  0
 15 16  2  0
 16 17  1  0
 17 18  2  0
 18 19  1  0
 19 20  1  0
 20 21  1  0
 20 22  2  0
 20 23  2  0
 18 24  1  0
 24 25  1  0
 24 26  2  0
  8 27  1  0
 27 28  2  0
 28  5  1  0
 26 15  1  0
  1 29  1  0
  1 30  1  0
  1 31  1  0
  3 32  1  0
  3 33  1  0
  3 34  1  0
  4 35  1  0
  4 36  1  0
  4 37  1  0
  6 38  1  0
  7 39  1  0
  9 40  1  0
  9 41  1  0
 14 42  1  0
 14 43  1  0
 16 44  1  0
 17 45  1  0
 21 46  1  0
 21 47  1  0
 21 48  1  0
 26 49  1  0
 27 50  1  0
 28 51  1  0
M  CHG  3  10  -1  13  -1  19  -1
M  END
>  <UniqueID>  (33) 
31

>  <SMILES>  (33) 
CC(C)(C)c1ccc(C[N-]C(=O)[N-]Cc2ccc([N-]S(C)(=O)=O)c(F)c2)cc1

>  <Energy>  (33) 
50.83944296762999

>  <Genealogy>  (33) 
CC(C)(C)c1ccc(C[N-]C(=O)[N-]Cc2ccc([N-]S(C)(=O)=O)c(F)c2)cc1 (protonated)
CC(C)(C)c1ccc(C[N-]C(=O)[N-]Cc2ccc([N-]S(C)(=O)=O)c(F)c2)cc1 (3D coordinates assigned)
CC(C)(C)c1ccc(C[N-]C(=O)[N-]Cc2ccc([N-]S(C)(=O)=O)c(F)c2)cc1 (optimized conformer: 50.83944296762999 kcal/mol)

>  <smiles>  (33) 
CC(C)(C)c1ccc(CNC(=O)NCc2ccc(NS(C)(=O)=O)c(F)c2)cc1

>  <score_type>  (33) 
oracle

>  <origin>  (33) 
adg

>  <m_score__min__energy>  (33) 
-13.31

>  <m_primary>  (33) 
energy

$$$$
33:0
     RDKit          3D

 47 50  0  0  0  0  0  0  0  0999 V2000
   58.1450   32.0690   49.7570 C   0  0  0  0  0  0  0  0  0  0  0  0
   59.5620   31.5750   49.8090 C   0  0  0  0  0  0  0  0  0  0  0  0
   60.3610   32.0390   50.8090 N   0  0  0  0  0  0  0  0  0  0  0  0
   61.6510   31.6390   50.9570 C   0  0  0  0  0  0  0  0  0  0  0  0
   62.1990   30.7180   50.0680 C   0  0  0  0  0  0  0  0  0  0  0  0
   61.4140   30.2240   49.0280 C   0  0  0  0  0  0  0  0  0  0  0  0
   60.0830   30.6460   48.8690 C   0  0  0  0  0  0  0  0  0  0  0  0
   59.2900   30.1180   47.7280 C   0  0  0  0  0  0  0  0  0  0  0  0
   58.6790   29.0190   47.8370 O   0  0  0  0  0  0  0  0  0  0  0  0
   59.2100   30.8530   46.4960 N   0  0  0  0  0  0  0  0  0  0  0  0
   58.3550   30.4580   45.4130 C   0  0  0  0  0  0  0  0  0  0  0  0
   58.5510   29.2010   44.8230 C   0  0  0  0  0  0  0  0  0  0  0  0
   57.7210   28.7690   43.7850 C   0  0  0  0  0  0  0  0  0  0  0  0
   56.6940   29.5930   43.3220 C   0  0  0  0  0  0  0  0  0  0  0  0
   56.5080   30.8590   43.8810 C   0  0  0  0  0  0  0  0  0  0  0  0
   57.3470   31.3120   44.9090 C   0  0  0  0  0  0  0  0  0  0  0  0
   57.1290   32.9950   45.5160 S   0  0  0  0  0  0  0  0  0  0  0  0
   58.7580   33.5960   44.9460 C   0  0  0  0  0  0  0  0  0  0  0  0
   59.6740   33.8110   46.1110 C   0  0  0  0  0  0  0  0  0  0  0  0
   59.1930   34.3300   47.3140 C   0  0  0  0  0  0  0  0  0  0  0  0
   60.0770   34.4920   48.3830 C   0  0  0  0  0  0  0  0  0  0  0  0
   59.6370   34.9690   49.4660 O   0  0  0  0  0  0  0  0  0  0  0  0
   61.3930   34.1230   48.2530 N   0  0  0  0  0  0  0  0  0  0  0  0
   62.2650   34.2540   49.3050 C   0  0  0  0  0  0  0  0  0  0  0  0
   63.6000   33.8630   49.1780 C   0  0  0  0  0  0  0  0  0  0  0  0
   64.0500   33.3340   47.9720 C   0  0  0  0  0  0  0  0  0  0  0  0
   63.1670   33.2020   46.9030 C   0  0  0  0  0  0  0  0  0  0  0  0
   61.8350   33.6020   47.0550 C   0  0  0  0  0  0  0  0  0  0  0  0
   60.9790   33.4590   46.0120 N   0  0  0  0  0  0  0  0  0  0  0  0
   57.7651   32.2015   50.7808 H   0  0  0  0  0  0  0  0  0  0  0  0
   58.1116   33.0318   49.2261 H   0  0  0  0  0  0  0  0  0  0  0  0
   57.5203   31.3356   49.2261 H   0  0  0  0  0  0  0  0  0  0  0  0
   62.2618   32.0423   51.7782 H   0  0  0  0  0  0  0  0  0  0  0  0
   63.2405   30.3839   50.1854 H   0  0  0  0  0  0  0  0  0  0  0  0
   61.8411   29.4953   48.3233 H   0  0  0  0  0  0  0  0  0  0  0  0
   59.9640   31.5450   46.2870 H   0  0  0  0  0  0  0  0  0  0  0  0
   59.3634   28.5508   45.1796 H   0  0  0  0  0  0  0  0  0  0  0  0
   57.8772   27.7787   43.3324 H   0  0  0  0  0  0  0  0  0  0  0  0
   56.0308   29.2449   42.5164 H   0  0  0  0  0  0  0  0  0  0  0  0
   55.6978   31.5053   43.5124 H   0  0  0  0  0  0  0  0  0  0  0  0
   59.2020   32.8515   44.2689 H   0  0  0  0  0  0  0  0  0  0  0  0
   58.6205   34.5522   44.4200 H   0  0  0  0  0  0  0  0  0  0  0  0
   58.1337   34.6073   47.4186 H   0  0  0  0  0  0  0  0  0  0  0  0
   61.9087   34.6714   50.2583 H   0  0  0  0  0  0  0  0  0  0  0  0
   64.2916   33.9726   50.0263 H   0  0  0  0  0  0  0  0  0  0  0  0
   65.0990   33.0213   47.8635 H   0  0  0  0  0  0  0  0  0  0  0  0
   63.5145   32.7861   45.9458 H   0  0  0  0  0  0  0  0  0  0  0  0
  1  2  1  0
  2  3  2  0
  3  4  1  0
  4  5  2  0
  5  6  1  0
  6  7  2  0
  7  8  1  0
  8  9  2  0
  8 10  1  0
 10 11  1  0
 11 12  2  0
 12 13  1  0
 13 14  2  0
 14 15  1  0
 15 16  2  0
 16 17  1  0
 17 18  1  0
 18 19  1  0
 19 20  2  0
 20 21  1  0
 21 22  2  0
 21 23  1  0
 23 24  1  0
 24 25  2  0
 25 26  1  0
 26 27  2  0
 27 28  1  0
 28 29  2  0
  7  2  1  0
 16 11  1  0
 29 19  1  0
 28 23  1  0
  1 30  1  0
  1 31  1  0
  1 32  1  0
  4 33  1  0
  5 34  1  0
  6 35  1  0
 10 36  1  0
 12 37  1  0
 13 38  1  0
 14 39  1  0
 15 40  1  0
 18 41  1  0
 18 42  1  0
 20 43  1  0
 24 44  1  0
 25 45  1  0
 26 46  1  0
 27 47  1  0
M  END
>  <UniqueID>  (34) 
32

>  <SMILES>  (34) 
Cc1ncccc1C(=O)Nc1ccccc1SCc1cc(=O)n2ccccc2n1

>  <Energy>  (34) 
59.27129307759778

>  <Genealogy>  (34) 
Cc1ncccc1C(=O)Nc1ccccc1SCc1cc(=O)n2ccccc2n1 (3D coordinates assigned)
Cc1ncccc1C(=O)Nc1ccccc1SCc1cc(=O)n2ccccc2n1 (optimized conformer: 59.27129307759778 kcal/mol)

>  <smiles>  (34) 
Cc1ncccc1C(=O)Nc1ccccc1SCc1cc(=O)n2ccccc2n1

>  <score_type>  (34) 
oracle

>  <origin>  (34) 
adg

>  <m_score__min__energy>  (34) 
-8.7100000000000009

>  <m_primary>  (34) 
energy

$$$$
34:0
     RDKit          3D

 45 48  0  0  1  0  0  0  0  0999 V2000
   66.1910   35.1930   51.9980 C   0  0  0  0  0  0  0  0  0  0  0  0
   66.5720   33.9050   51.4060 C   0  0  0  0  0  0  0  0  0  0  0  0
   65.8460   33.1030   50.5280 C   0  0  0  0  0  0  0  0  0  0  0  0
   64.5050   33.4020   50.0030 C   0  0  0  0  0  0  0  0  0  0  0  0
   63.4570   33.7170   50.8310 C   0  0  0  0  0  0  0  0  0  0  0  0
   62.1920   33.9960   50.3070 C   0  0  0  0  0  0  0  0  0  0  0  0
   62.0380   33.9440   48.9360 C   0  0  0  0  0  0  0  0  0  0  0  0
   60.8580   34.1990   48.3710 N   0  0  0  0  0  0  0  0  0  0  0  0
   60.6860   34.1520   47.0380 C   0  0  0  0  0  0  0  0  0  0  0  0
   59.5630   34.3930   46.4520 N   0  0  0  0  0  0  0  0  0  0  0  0
   58.8440   33.2980   45.8970 C   0  0  0  0  0  0  0  0  0  0  0  0
   58.4860   33.4130   44.5600 C   0  0  0  0  0  0  0  0  0  0  0  0
   57.7850   32.4260   43.8930 C   0  0  0  0  0  0  0  0  0  0  0  0
   57.4450   31.2990   44.6080 C   0  0  0  0  0  0  0  0  0  0  0  0
   56.5520   30.0380   43.7640 S   0  0  0  0  0  0  0  0  0  0  0  0
   57.4820   28.5830   43.7230 N   0  0  0  0  0  0  0  0  0  0  0  0
   55.2570   29.7830   44.5100 O   0  0  0  0  0  0  0  0  0  0  0  0
   56.2670   30.4740   42.3660 O   0  0  0  0  0  0  0  0  0  0  0  0
   57.8010   31.1880   45.9340 C   0  0  0  0  0  0  0  0  0  0  0  0
   58.5030   32.1720   46.6120 C   0  0  0  0  0  0  0  0  0  0  0  0
   61.7270   33.8410   46.2340 N   0  0  0  0  0  0  0  0  0  0  0  0
   62.9210   33.5790   46.7660 N   0  0  0  0  0  0  0  0  0  0  0  0
   63.1090   33.6210   48.1020 C   0  0  0  0  0  0  0  0  0  0  0  0
   64.3580   33.3460   48.6320 C   0  0  0  0  0  0  0  0  0  0  0  0
   66.6410   32.0050   50.2720 C   0  0  0  0  0  0  0  0  0  0  0  0
   67.8000   32.1400   50.9670 N   0  0  0  0  0  0  0  0  0  0  0  0
   67.7470   33.2890   51.6480 N   0  0  0  0  0  0  0  0  0  0  0  0
   68.8450   33.7470   52.5100 C   0  0  0  0  0  0  0  0  0  0  0  0
   66.2145   35.1136   53.0949 H   0  0  0  0  0  0  0  0  0  0  0  0
   66.8978   35.9701   51.6714 H   0  0  0  0  0  0  0  0  0  0  0  0
   65.1753   35.4605   51.6714 H   0  0  0  0  0  0  0  0  0  0  0  0
   63.6145   33.7502   51.9192 H   0  0  0  0  0  0  0  0  0  0  0  0
   61.3473   34.2486   50.9648 H   0  0  0  0  0  0  0  0  0  0  0  0
   58.7708   34.3231   44.0117 H   0  0  0  0  0  0  0  0  0  0  0  0
   57.5097   32.5362   42.8337 H   0  0  0  0  0  0  0  0  0  0  0  0
   56.8580   27.8310   43.3560 H   0  0  0  0  0  0  0  0  0  0  0  0
   58.2430   28.7020   42.9900 H   0  0  0  0  0  0  0  0  0  0  0  0
   57.5151   30.2767   46.4797 H   0  0  0  0  0  0  0  0  0  0  0  0
   58.7750   32.0586   47.6718 H   0  0  0  0  0  0  0  0  0  0  0  0
   61.6110   33.7990   45.1830 H   0  0  0  0  0  0  0  0  0  0  0  0
   65.2068   33.0908   47.9806 H   0  0  0  0  0  0  0  0  0  0  0  0
   66.3801   31.1619   49.6154 H   0  0  0  0  0  0  0  0  0  0  0  0
   68.5574   33.6271   53.5649 H   0  0  0  0  0  0  0  0  0  0  0  0
   69.7456   33.1495   52.3052 H   0  0  0  0  0  0  0  0  0  0  0  0
   69.0541   34.8074   52.3052 H   0  0  0  0  0  0  0  0  0  0  0  0
  1  2  1  0
  2  3  2  0
  3  4  1  0
  4  5  1  0
  5  6  2  0
  6  7  1  0
  7  8  2  0
  8  9  1  0
  9 10  2  0
 10 11  1  0
 11 12  2  0
 12 13  1  0
 13 14  2  0
 14 15  1  0
 15 16  1  0
 15 17  2  0
 15 18  2  0
 14 19  1  0
 19 20  2  0
  9 21  1  0
 21 22  1  0
 22 23  2  0
 23 24  1  0
  3 25  1  0
 25 26  2  0
 26 27  1  0
 27 28  1  0
 27  2  1  0
 24  4  2  0
 23  7  1  0
 20 11  1  0
  1 29  1  0
  1 30  1  0
  1 31  1  0
  5 32  1  0
  6 33  1  0
 12 34  1  0
 13 35  1  0
 16 36  1  0
 16 37  1  0
 19 38  1  0
 20 39  1  0
 21 40  1  0
 24 41  1  0
 25 42  1  0
 28 43  1  0
 28 44  1  0
 28 45  1  0
M  END
>  <smiles>  (35) 
Cc1c(-c2ccc3nc(=Nc4ccc(S(N)(=O)=O)cc4)[nH]nc3c2)cnn1C

>  <score_type>  (35) 
oracle

>  <origin>  (35) 
adg

>  <m_score__min__energy>  (35) 
-9.6199999999999992

>  <m_primary>  (35) 
energy

$$$$
35:0
     RDKit          3D

 48 50  0  0  0  0  0  0  0  0999 V2000
   61.5166   29.2076   48.0115 H   0  0  0  0  0  0  0  0  0  0  0  0
   60.5460   28.8440   47.6430 C   0  0  0  0  0  0  0  0  0  0  0  0
   59.7970   29.6290   46.7660 C   0  0  0  0  0  0  0  0  0  0  0  0
   60.1783   30.6133   46.4564 H   0  0  0  0  0  0  0  0  0  0  0  0
   58.5620   29.1770   46.2740 C   0  0  0  0  0  0  0  0  0  0  0  0
   57.7720   30.0730   45.3440 C   0  0  0  0  0  0  0  0  0  0  0  0
   57.8711   29.6921   44.3168 H   0  0  0  0  0  0  0  0  0  0  0  0
   56.7235   30.0627   45.6766 H   0  0  0  0  0  0  0  0  0  0  0  0
   58.2650   31.5350   45.3810 C   0  0  0  0  0  0  0  0  0  0  0  0
   59.3382   31.5307   45.1396 H   0  0  0  0  0  0  0  0  0  0  0  0
   57.5100   32.3820   44.3230 C   0  0  0  0  0  0  0  0  0  0  0  0
   58.0022   32.2405   43.3495 H   0  0  0  0  0  0  0  0  0  0  0  0
   56.4659   32.0359   44.3203 H   0  0  0  0  0  0  0  0  0  0  0  0
   57.4830   33.8920   44.6400 C   0  0  0  0  0  0  0  0  0  0  0  0
   57.4983   34.4541   43.6946 H   0  0  0  0  0  0  0  0  0  0  0  0
   56.5680   34.1036   45.2126 H   0  0  0  0  0  0  0  0  0  0  0  0
   58.6830   34.3190   45.4890 C   0  0  0  0  0  0  0  0  0  0  0  0
   59.6085   34.0884   44.9411 H   0  0  0  0  0  0  0  0  0  0  0  0
   58.6013   35.3986   45.6833 H   0  0  0  0  0  0  0  0  0  0  0  0
   58.7070   33.5850   46.8430 C   0  0  0  0  0  0  0  0  0  0  0  0
   59.7511   33.5141   47.1817 H   0  0  0  0  0  0  0  0  0  0  0  0
   58.0810   34.1660   47.5362 H   0  0  0  0  0  0  0  0  0  0  0  0
   58.1150   32.1600   46.7840 C   0  0  0  0  0  0  0  0  0  0  0  0
   58.6394   31.5260   47.5142 H   0  0  0  0  0  0  0  0  0  0  0  0
   57.0418   32.2256   47.0162 H   0  0  0  0  0  0  0  0  0  0  0  0
   58.0830   27.9070   46.6650 C   0  0  0  0  0  0  0  0  0  0  0  0
   56.7920   27.4610   46.2100 N   0  0  0  0  0  0  0  0  0  0  0  0
   56.2760   26.2790   46.3770 C   0  0  0  0  0  0  0  0  0  0  0  0
   56.9540   25.2960   47.0300 N   0  0  0  0  0  0  0  0  0  0  0  0
   56.4040   24.0660   47.1720 C   0  0  0  0  0  0  0  0  0  0  0  0
   57.0300   23.1630   47.7850 O   0  0  0  0  0  0  0  0  0  0  0  0
   55.1780   23.8080   46.6540 N   0  0  0  0  0  0  0  0  0  0  0  0
   54.5000   24.7780   45.9820 C   0  0  0  0  0  0  0  0  0  0  0  0
   53.3140   24.5600   45.4940 N   0  0  0  0  0  0  0  0  0  0  0  0
   52.5810   23.3270   45.5450 C   0  0  0  0  0  0  0  0  0  0  0  0
   51.7980   23.0450   44.6000 O   0  0  0  0  0  0  0  0  0  0  0  0
   52.7690   22.3850   46.6040 N   0  0  0  0  0  0  0  0  0  0  0  0
   53.5670   22.4720   47.2700 H   0  0  0  0  0  0  0  0  0  0  0  0
   52.1800   21.5240   46.6470 H   0  0  0  0  0  0  0  0  0  0  0  0
   55.0530   26.0100   45.8530 N   0  0  0  0  0  0  0  0  0  0  0  0
   58.8340   27.1360   47.5710 C   0  0  0  0  0  0  0  0  0  0  0  0
   58.4478   26.1608   47.9024 H   0  0  0  0  0  0  0  0  0  0  0  0
   60.0650   27.5910   48.0570 C   0  0  0  0  0  0  0  0  0  0  0  0
   60.7710   26.7730   48.9520 O   0  0  0  0  0  0  0  0  0  0  0  0
   60.9590   27.0660   50.3330 C   0  0  0  0  0  0  0  0  0  0  0  0
   60.4643   26.2950   50.9420 H   0  0  0  0  0  0  0  0  0  0  0  0
   62.0349   27.0796   50.5618 H   0  0  0  0  0  0  0  0  0  0  0  0
   60.5230   28.0497   50.5618 H   0  0  0  0  0  0  0  0  0  0  0  0
  1  2  1  0
  2  3  2  0
  3  4  1  0
  3  5  1  0
  5  6  1  0
  6  7  1  0
  6  8  1  0
  6  9  1  0
  9 10  1  0
  9 11  1  0
 11 12  1  0
 11 13  1  0
 11 14  1  0
 14 15  1  0
 14 16  1  0
 14 17  1  0
 17 18  1  0
 17 19  1  0
 17 20  1  0
 20 21  1  0
 20 22  1  0
 20 23  1  0
 23 24  1  0
 23 25  1  0
  5 26  2  0
 26 27  1  0
 27 28  2  3
 28 29  1  0
 29 30  1  0
 30 31  2  0
 30 32  1  0
 32 33  1  0
 33 34  2  0
 34 35  1  0
 35 36  2  0
 35 37  1  0
 37 38  1  0
 37 39  1  0
 33 40  1  0
 26 41  1  0
 41 42  1  0
 41 43  2  0
 43 44  1  0
 44 45  1  0
 45 46  1  0
 45 47  1  0
 45 48  1  0
 43  2  1  0
 23  9  1  0
 40 28  1  0
M  CHG  3  29  -1  32  -1  40  -1
M  END
>  <UniqueID>  (36) 
33

>  <SMILES>  (36) 
COc1ccc(CC2CCCCC2)c(N=c2[n-]c(=O)[n-]/c(=N\C(N)=O)[n-]2)c1

>  <Energy>  (36) 
59.68246780975539

>  <Genealogy>  (36) 
COc1ccc(CC2CCCCC2)c(N=c2[n-]c(=O)[n-]c(=NC(N)=O)[n-]2)c1 (protonated)
COc1ccc(CC2CCCCC2)c(N=c2[n-]c(=O)[n-]/c(=N\C(N)=O)[n-]2)c1 (cis-trans isomerization)
COc1ccc(CC2CCCCC2)c(N=c2[n-]c(=O)[n-]/c(=N\C(N)=O)[n-]2)c1 (3D coordinates assigned)
COc1ccc(CC2CCCCC2)c(N=c2[n-]c(=O)[n-]/c(=N\C(N)=O)[n-]2)c1 (nonaromatic ring conformer: 59.68246780975539 kcal/mol)

>  <smiles>  (36) 
COc1ccc(CC2CCCCC2)c(N=c2[nH]c(=O)[nH]c(=NC(N)=O)[nH]2)c1

>  <score_type>  (36) 
oracle

>  <origin>  (36) 
adg

>  <m_score__min__energy>  (36) 
-13.74

>  <m_primary>  (36) 
energy

$$$$
36:0
     RDKit          3D

 42 44  0  0  0  0  0  0  0  0999 V2000
   56.6170   21.5380   47.7280 H   0  0  0  0  0  0  0  0  0  0  0  0
   57.0740   22.4740   47.6340 N   0  0  0  0  0  0  0  0  0  0  0  0
   56.4770   23.4920   47.0910 C   0  0  0  0  0  0  0  0  0  0  0  0
   57.1120   24.7430   47.0480 C   0  0  0  0  0  0  0  0  0  0  0  0
   58.1181   24.8662   47.4753 H   0  0  0  0  0  0  0  0  0  0  0  0
   56.4590   25.8360   46.4580 C   0  0  0  0  0  0  0  0  0  0  0  0
   57.0990   27.1680   46.4010 C   0  0  0  0  0  0  0  0  0  0  0  0
   57.8130   27.5620   47.3630 O   0  0  0  0  0  0  0  0  0  0  0  0
   56.9400   27.9990   45.2370 N   0  0  0  0  0  0  0  0  0  0  0  0
   56.6520   27.5460   44.3410 H   0  0  0  0  0  0  0  0  0  0  0  0
   57.2740   29.3980   45.1990 C   0  0  0  0  0  0  0  0  0  0  0  0
   56.6950   30.2170   44.2170 C   0  0  0  0  0  0  0  0  0  0  0  0
   56.0099   29.7800   43.4756 H   0  0  0  0  0  0  0  0  0  0  0  0
   56.9830   31.5830   44.1750 C   0  0  0  0  0  0  0  0  0  0  0  0
   56.5315   32.2142   43.3955 H   0  0  0  0  0  0  0  0  0  0  0  0
   57.8450   32.1530   45.1220 C   0  0  0  0  0  0  0  0  0  0  0  0
   58.1800   33.8820   45.1060 S   0  0  0  0  0  0  0  0  0  0  0  0
   59.3460   34.1430   44.1950 O   0  0  0  0  0  0  0  0  0  0  0  0
   56.9930   34.6510   44.5990 O   0  0  0  0  0  0  0  0  0  0  0  0
   58.5750   34.4210   46.7080 N   0  0  0  0  0  0  0  0  0  0  0  0
   59.6980   34.1530   47.3020 C   0  0  0  0  0  0  0  0  0  0  0  0
   60.8650   34.1060   46.6030 N   0  0  0  0  0  0  0  0  0  0  0  0
   62.0470   33.8390   47.2180 C   0  0  0  0  0  0  0  0  0  0  0  0
   63.3100   33.7960   46.4190 C   0  0  0  0  0  0  0  0  0  0  0  0
   64.1736   33.7666   47.0996 H   0  0  0  0  0  0  0  0  0  0  0  0
   63.3122   32.8973   45.7848 H   0  0  0  0  0  0  0  0  0  0  0  0
   63.3734   34.6925   45.7848 H   0  0  0  0  0  0  0  0  0  0  0  0
   62.0670   33.5950   48.5940 C   0  0  0  0  0  0  0  0  0  0  0  0
   63.0114   33.3709   49.1117 H   0  0  0  0  0  0  0  0  0  0  0  0
   60.8630   33.6420   49.2960 C   0  0  0  0  0  0  0  0  0  0  0  0
   60.8498   33.4534   50.3796 H   0  0  0  0  0  0  0  0  0  0  0  0
   59.7060   33.9210   48.6400 N   0  0  0  0  0  0  0  0  0  0  0  0
   58.4030   31.3460   46.1200 C   0  0  0  0  0  0  0  0  0  0  0  0
   59.0682   31.7904   46.8750 H   0  0  0  0  0  0  0  0  0  0  0  0
   58.1190   29.9780   46.1620 C   0  0  0  0  0  0  0  0  0  0  0  0
   58.5587   29.3519   46.9523 H   0  0  0  0  0  0  0  0  0  0  0  0
   55.2140   25.6650   45.9380 N   0  0  0  0  0  0  0  0  0  0  0  0
   54.5690   24.4700   45.9620 C   0  0  0  0  0  0  0  0  0  0  0  0
   52.9610   24.3710   45.2570 Cl  0  0  0  0  0  0  0  0  0  0  0  0
   55.1880   23.3500   46.5420 C   0  0  0  0  0  0  0  0  0  0  0  0
   54.5090   22.0730   46.5730 C   0  0  0  0  0  0  0  0  0  0  0  0
   53.9660   21.0520   46.5970 N   0  0  0  0  0  0  0  0  0  0  0  0
  1  2  1  0
  2  3  2  3
  3  4  1  0
  4  5  1  0
  4  6  2  0
  6  7  1  0
  7  8  2  0
  7  9  1  0
  9 10  1  0
  9 11  1  0
 11 12  2  0
 12 13  1  0
 12 14  1  0
 14 15  1  0
 14 16  2  0
 16 17  1  0
 17 18  2  0
 17 19  2  0
 17 20  1  0
 20 21  2  0
 21 22  1  0
 22 23  2  0
 23 24  1  0
 24 25  1  0
 24 26  1  0
 24 27  1  0
 23 28  1  0
 28 29  1  0
 28 30  2  0
 30 31  1  0
 30 32  1  0
 16 33  1  0
 33 34  1  0
 33 35  2  0
 35 36  1  0
  6 37  1  0
 37 38  1  0
 38 39  1  0
 38 40  2  0
 40 41  1  0
 41 42  3  0
 40  3  1  0
 35 11  1  0
 32 21  1  0
M  CHG  2  32  -1  37  -1
M  END
>  <UniqueID>  (37) 
34

>  <SMILES>  (37) 
Cc1cc[n-]/c(=N/S(=O)(=O)c2ccc(NC(=O)c3cc(=N)c(C#N)c(Cl)[n-]3)cc2)n1

>  <Energy>  (37) 
53.154891629009335

>  <Genealogy>  (37) 
Cc1cc[n-]c(=NS(=O)(=O)c2ccc(NC(=O)c3cc(=N)c(C#N)c(Cl)[n-]3)cc2)n1 (protonated)
Cc1cc[n-]/c(=N/S(=O)(=O)c2ccc(NC(=O)c3cc(=N)c(C#N)c(Cl)[n-]3)cc2)n1 (cis-trans isomerization)
Cc1cc[n-]/c(=N/S(=O)(=O)c2ccc(NC(=O)c3cc(=N)c(C#N)c(Cl)[n-]3)cc2)n1 (3D coordinates assigned)
Cc1cc[n-]/c(=N/S(=O)(=O)c2ccc(NC(=O)c3cc(=N)c(C#N)c(Cl)[n-]3)cc2)n1 (optimized conformer: 53.154891629009335 kcal/mol)

>  <smiles>  (37) 
Cc1cc[nH]c(=NS(=O)(=O)c2ccc(NC(=O)c3cc(=N)c(C#N)c(Cl)[nH]3)cc2)n1

>  <score_type>  (37) 
oracle

>  <origin>  (37) 
adg

>  <m_score__min__energy>  (37) 
-12.109999999999999

>  <m_primary>  (37) 
energy

$$$$
37:0
     RDKit          3D

 33 34  0  0  0  0  0  0  0  0999 V2000
   57.1760   20.1410   44.9650 N   0  0  0  0  0  0  0  0  0  0  0  0
   57.1740   21.7900   44.4420 S   0  0  0  0  0  0  0  0  0  0  0  0
   56.2770   21.9270   43.2450 O   0  0  0  0  0  0  0  0  0  0  0  0
   58.5710   22.1940   44.0600 O   0  0  0  0  0  0  0  0  0  0  0  0
   56.5740   22.8540   45.7440 C   0  0  0  0  0  0  0  0  0  0  0  0
   56.8310   24.2890   45.4120 C   0  0  0  0  0  0  0  0  0  0  0  0
   57.6540   24.7510   44.3920 C   0  0  0  0  0  0  0  0  0  0  0  0
   57.7680   26.1460   44.3650 C   0  0  0  0  0  0  0  0  0  0  0  0
   57.0260   26.7780   45.3570 C   0  0  0  0  0  0  0  0  0  0  0  0
   56.9970   28.2210   45.6390 C   0  0  0  0  0  0  0  0  0  0  0  0
   57.9480   28.7300   46.2880 O   0  0  0  0  0  0  0  0  0  0  0  0
   55.9060   29.0610   45.2400 N   0  0  0  0  0  0  0  0  0  0  0  0
   55.7320   29.6650   43.9210 C   0  0  0  0  0  0  0  0  0  0  0  0
   56.6340   30.8570   43.7400 C   0  0  0  0  0  0  0  0  0  0  0  0
   57.0910   31.2200   42.4610 C   0  0  0  0  0  0  0  0  0  0  0  0
   57.9530   32.3100   42.3040 C   0  0  0  0  0  0  0  0  0  0  0  0
   58.3780   33.0350   43.4210 C   0  0  0  0  0  0  0  0  0  0  0  0
   57.9490   32.6640   44.7000 C   0  0  0  0  0  0  0  0  0  0  0  0
   58.3690   33.3610   45.7830 F   0  0  0  0  0  0  0  0  0  0  0  0
   57.0880   31.5740   44.8610 C   0  0  0  0  0  0  0  0  0  0  0  0
   56.2700   25.6050   46.2960 S   0  0  0  0  0  0  0  0  0  0  0  0
   56.9520   19.5520   44.1310 H   0  0  0  0  0  0  0  0  0  0  0  0
   58.1540   19.9100   45.2470 H   0  0  0  0  0  0  0  0  0  0  0  0
   55.4918   22.6997   45.8670 H   0  0  0  0  0  0  0  0  0  0  0  0
   57.1024   22.6058   46.6763 H   0  0  0  0  0  0  0  0  0  0  0  0
   58.1642   24.0877   43.6781 H   0  0  0  0  0  0  0  0  0  0  0  0
   58.3833   26.6883   43.6320 H   0  0  0  0  0  0  0  0  0  0  0  0
   55.9688   28.9166   43.1504 H   0  0  0  0  0  0  0  0  0  0  0  0
   54.6891   30.0026   43.8294 H   0  0  0  0  0  0  0  0  0  0  0  0
   56.7694   30.6445   41.5805 H   0  0  0  0  0  0  0  0  0  0  0  0
   58.2972   32.5974   41.2996 H   0  0  0  0  0  0  0  0  0  0  0  0
   59.0495   33.8970   43.2945 H   0  0  0  0  0  0  0  0  0  0  0  0
   56.7644   31.2761   45.8693 H   0  0  0  0  0  0  0  0  0  0  0  0
  1  2  1  0
  2  3  2  0
  2  4  2  0
  2  5  1  0
  5  6  1  0
  6  7  2  0
  7  8  1  0
  8  9  2  0
  9 10  1  0
 10 11  2  0
 10 12  1  0
 12 13  1  0
 13 14  1  0
 14 15  2  0
 15 16  1  0
 16 17  2  0
 17 18  1  0
 18 19  1  0
 18 20  2  0
  9 21  1  0
 21  6  1  0
 20 14  1  0
  1 22  1  0
  1 23  1  0
  5 24  1  0
  5 25  1  0
  7 26  1  0
  8 27  1  0
 13 28  1  0
 13 29  1  0
 15 30  1  0
 16 31  1  0
 17 32  1  0
 20 33  1  0
M  CHG  1  12  -1
M  END
>  <UniqueID>  (38) 
35

>  <SMILES>  (38) 
NS(=O)(=O)Cc1ccc(C(=O)[N-]Cc2cccc(F)c2)s1

>  <Energy>  (38) 
55.18560392525818

>  <Genealogy>  (38) 
NS(=O)(=O)Cc1ccc(C(=O)[N-]Cc2cccc(F)c2)s1 (protonated)
NS(=O)(=O)Cc1ccc(C(=O)[N-]Cc2cccc(F)c2)s1 (3D coordinates assigned)
NS(=O)(=O)Cc1ccc(C(=O)[N-]Cc2cccc(F)c2)s1 (optimized conformer: 55.18560392525818 kcal/mol)

>  <smiles>  (38) 
NS(=O)(=O)Cc1ccc(C(=O)NCc2cccc(F)c2)s1

>  <score_type>  (38) 
oracle

>  <origin>  (38) 
adg

>  <m_score__min__energy>  (38) 
-9.1300000000000008

>  <m_primary>  (38) 
energy

$$$$
38:0
     RDKit          3D

 67 71  0  0  0  0  0  0  0  0999 V2000
   58.1180   32.6340   43.1060 C   0  0  0  0  0  0  0  0  0  0  0  0
   57.2220   32.1640   44.1600 N   0  0  0  0  0  0  0  0  0  0  0  0
   56.7890   33.0850   45.2210 C   0  0  0  0  0  0  0  0  0  0  0  0
   57.9410   33.4870   46.1070 C   0  0  0  0  0  0  0  0  0  0  0  0
   58.9190   34.3770   45.6340 C   0  0  0  0  0  0  0  0  0  0  0  0
   59.9920   34.7440   46.4530 C   0  0  0  0  0  0  0  0  0  0  0  0
   60.0940   34.2240   47.7460 C   0  0  0  0  0  0  0  0  0  0  0  0
   59.1180   33.3470   48.2280 C   0  0  0  0  0  0  0  0  0  0  0  0
   58.0390   32.9870   47.4160 C   0  0  0  0  0  0  0  0  0  0  0  0
   56.8880   30.7690   44.2150 C   0  0  0  0  0  0  0  0  0  0  0  0
   55.7730   30.4150   44.6800 O   0  0  0  0  0  0  0  0  0  0  0  0
   57.8720   29.7310   43.7560 C   0  0  0  0  0  0  0  0  0  0  0  0
   58.5270   29.0830   44.9180 N   0  0  0  0  0  0  0  0  0  0  0  0
   59.2600   29.8690   45.7800 C   0  0  0  0  0  0  0  0  0  0  0  0
   59.3420   31.1160   45.5970 O   0  0  0  0  0  0  0  0  0  0  0  0
   59.9680   29.2990   46.8510 C   0  0  0  0  0  0  0  0  0  0  0  0
   60.8280   30.1410   47.7130 C   0  0  0  0  0  0  0  0  0  0  0  0
   61.9100   30.8400   47.1550 C   0  0  0  0  0  0  0  0  0  0  0  0
   62.6810   31.6870   47.9530 C   0  0  0  0  0  0  0  0  0  0  0  0
   62.3840   31.8400   49.3100 C   0  0  0  0  0  0  0  0  0  0  0  0
   61.3180   31.1400   49.8840 C   0  0  0  0  0  0  0  0  0  0  0  0
   61.0400   31.3370   51.2450 O   0  0  0  0  0  0  0  0  0  0  0  0
   59.9690   32.1050   51.7080 C   0  0  0  0  0  0  0  0  0  0  0  0
   60.1810   33.4440   52.0570 C   0  0  0  0  0  0  0  0  0  0  0  0
   59.1200   34.2270   52.5170 C   0  0  0  0  0  0  0  0  0  0  0  0
   57.8430   33.6730   52.6390 C   0  0  0  0  0  0  0  0  0  0  0  0
   57.6250   32.3340   52.2960 C   0  0  0  0  0  0  0  0  0  0  0  0
   58.6840   31.5430   51.8210 C   0  0  0  0  0  0  0  0  0  0  0  0
   58.4160   29.8450   51.4300 S   0  0  0  0  0  0  0  0  0  0  0  0
   59.8320   28.9370   51.8320 N   0  0  0  0  0  0  0  0  0  0  0  0
   57.2440   29.3080   52.2050 O   0  0  0  0  0  0  0  0  0  0  0  0
   58.1280   29.7070   49.9620 O   0  0  0  0  0  0  0  0  0  0  0  0
   60.5380   30.2870   49.0780 C   0  0  0  0  0  0  0  0  0  0  0  0
   59.9130   27.9180   47.0550 C   0  0  0  0  0  0  0  0  0  0  0  0
   60.6010   27.3520   48.1270 O   0  0  0  0  0  0  0  0  0  0  0  0
   59.1710   27.1120   46.1850 C   0  0  0  0  0  0  0  0  0  0  0  0
   59.1400   25.7150   46.3610 C   0  0  0  0  0  0  0  0  0  0  0  0
   58.4480   24.9040   45.4650 C   0  0  0  0  0  0  0  0  0  0  0  0
   57.7750   25.4730   44.3900 C   0  0  0  0  0  0  0  0  0  0  0  0
   57.7830   26.8550   44.2040 C   0  0  0  0  0  0  0  0  0  0  0  0
   58.4800   27.7100   45.0960 C   0  0  0  0  0  0  0  0  0  0  0  0
   59.0054   33.0995   43.5597 H   0  0  0  0  0  0  0  0  0  0  0  0
   58.4288   31.7828   42.4824 H   0  0  0  0  0  0  0  0  0  0  0  0
   57.5944   33.3735   42.4824 H   0  0  0  0  0  0  0  0  0  0  0  0
   56.3616   33.9871   44.7589 H   0  0  0  0  0  0  0  0  0  0  0  0
   56.0399   32.5703   45.8407 H   0  0  0  0  0  0  0  0  0  0  0  0
   58.8410   34.7868   44.6162 H   0  0  0  0  0  0  0  0  0  0  0  0
   60.7556   35.4420   46.0791 H   0  0  0  0  0  0  0  0  0  0  0  0
   60.9436   34.5052   48.3855 H   0  0  0  0  0  0  0  0  0  0  0  0
   59.1993   32.9401   49.2467 H   0  0  0  0  0  0  0  0  0  0  0  0
   57.2637   32.3096   47.8034 H   0  0  0  0  0  0  0  0  0  0  0  0
   57.3434   28.9673   43.1667 H   0  0  0  0  0  0  0  0  0  0  0  0
   58.6425   30.2198   43.1416 H   0  0  0  0  0  0  0  0  0  0  0  0
   62.1504   30.7202   46.0883 H   0  0  0  0  0  0  0  0  0  0  0  0
   63.5258   32.2363   47.5119 H   0  0  0  0  0  0  0  0  0  0  0  0
   62.9922   32.5149   49.9302 H   0  0  0  0  0  0  0  0  0  0  0  0
   61.1866   33.8809   51.9686 H   0  0  0  0  0  0  0  0  0  0  0  0
   59.2897   35.2807   52.7835 H   0  0  0  0  0  0  0  0  0  0  0  0
   57.0088   34.2897   53.0048 H   0  0  0  0  0  0  0  0  0  0  0  0
   56.6199   31.8990   52.3988 H   0  0  0  0  0  0  0  0  0  0  0  0
   60.1500   29.2640   52.7730 H   0  0  0  0  0  0  0  0  0  0  0  0
   60.5740   29.2080   51.1480 H   0  0  0  0  0  0  0  0  0  0  0  0
   59.6975   29.7328   49.5212 H   0  0  0  0  0  0  0  0  0  0  0  0
   59.6667   25.2607   47.2132 H   0  0  0  0  0  0  0  0  0  0  0  0
   58.4340   23.8134   45.6079 H   0  0  0  0  0  0  0  0  0  0  0  0
   57.2328   24.8292   43.6818 H   0  0  0  0  0  0  0  0  0  0  0  0
   57.2400   27.2893   43.3517 H   0  0  0  0  0  0  0  0  0  0  0  0
  1  2  1  0
  2  3  1  0
  3  4  1  0
  4  5  2  0
  5  6  1  0
  6  7  2  0
  7  8  1  0
  8  9  2  0
  2 10  1  0
 10 11  2  0
 10 12  1  0
 12 13  1  0
 13 14  1  0
 14 15  2  0
 14 16  1  0
 16 17  1  0
 17 18  2  0
 18 19  1  0
 19 20  2  0
 20 21  1  0
 21 22  1  0
 22 23  1  0
 23 24  2  0
 24 25  1  0
 25 26  2  0
 26 27  1  0
 27 28  2  0
 28 29  1  0
 29 30  1  0
 29 31  2  0
 29 32  2  0
 21 33  2  0
 16 34  2  0
 34 35  1  0
 34 36  1  0
 36 37  2  0
 37 38  1  0
 38 39  2  0
 39 40  1  0
 40 41  2  0
  9  4  1  0
 41 13  1  0
 33 17  1  0
 41 36  1  0
 28 23  1  0
  1 42  1  0
  1 43  1  0
  1 44  1  0
  3 45  1  0
  3 46  1  0
  5 47  1  0
  6 48  1  0
  7 49  1  0
  8 50  1  0
  9 51  1  0
 12 52  1  0
 12 53  1  0
 18 54  1  0
 19 55  1  0
 20 56  1  0
 24 57  1  0
 25 58  1  0
 26 59  1  0
 27 60  1  0
 30 61  1  0
 30 62  1  0
 33 63  1  0
 37 64  1  0
 38 65  1  0
 39 66  1  0
 40 67  1  0
M  CHG  1  35  -1
M  END
>  <UniqueID>  (39) 
36

>  <SMILES>  (39) 
CN(Cc1ccccc1)C(=O)Cn1c(=O)c(-c2cccc(Oc3ccccc3S(N)(=O)=O)c2)c([O-])c2ccccc21

>  <Energy>  (39) 
99.92918560685827

>  <Genealogy>  (39) 
CN(Cc1ccccc1)C(=O)Cn1c(=O)c(-c2cccc(Oc3ccccc3S(N)(=O)=O)c2)c([O-])c2ccccc21 (protonated)
CN(Cc1ccccc1)C(=O)Cn1c(=O)c(-c2cccc(Oc3ccccc3S(N)(=O)=O)c2)c([O-])c2ccccc21 (3D coordinates assigned)
CN(Cc1ccccc1)C(=O)Cn1c(=O)c(-c2cccc(Oc3ccccc3S(N)(=O)=O)c2)c([O-])c2ccccc21 (optimized conformer: 99.92918560685827 kcal/mol)

>  <smiles>  (39) 
CN(Cc1ccccc1)C(=O)Cn1c(=O)c(-c2cccc(Oc3ccccc3S(N)(=O)=O)c2)c(O)c2ccccc21

>  <score_type>  (39) 
oracle

>  <origin>  (39) 
adg

>  <m_score__min__energy>  (39) 
-11.609999999999999

>  <m_primary>  (39) 
energy

$$$$
39:0
     RDKit          3D

 47 49  0  0  0  0  0  0  0  0999 V2000
   57.4510   32.3290   41.8000 C   0  0  0  0  0  0  0  0  0  0  0  0
   58.3960   32.2510   42.8610 O   0  0  0  0  0  0  0  0  0  0  0  0
   58.2710   32.9030   44.0960 C   0  0  0  0  0  0  0  0  0  0  0  0
   59.1890   33.8950   44.4980 C   0  0  0  0  0  0  0  0  0  0  0  0
   59.0280   34.5600   45.7140 C   0  0  0  0  0  0  0  0  0  0  0  0
   57.9480   34.2530   46.5400 C   0  0  0  0  0  0  0  0  0  0  0  0
   57.0290   33.2770   46.1540 C   0  0  0  0  0  0  0  0  0  0  0  0
   57.1890   32.5820   44.9490 C   0  0  0  0  0  0  0  0  0  0  0  0
   56.2050   31.5940   44.6090 N   0  0  0  0  0  0  0  0  0  0  0  0
   56.5100   29.8990   44.3980 S   0  0  0  0  0  0  0  0  0  0  0  0
   55.5460   29.1140   45.2430 O   0  0  0  0  0  0  0  0  0  0  0  0
   56.2850   29.5520   42.9550 O   0  0  0  0  0  0  0  0  0  0  0  0
   58.1630   29.4760   44.8380 C   0  0  0  0  0  0  0  0  0  0  0  0
   58.8210   28.4550   44.1400 C   0  0  0  0  0  0  0  0  0  0  0  0
   60.1130   28.0710   44.5090 C   0  0  0  0  0  0  0  0  0  0  0  0
   60.7510   28.6970   45.5820 C   0  0  0  0  0  0  0  0  0  0  0  0
   60.1070   29.7310   46.2800 C   0  0  0  0  0  0  0  0  0  0  0  0
   60.7470   30.3390   47.4930 C   0  0  0  0  0  0  0  0  0  0  0  0
   59.6850   30.0100   48.9470 S   0  0  0  0  0  0  0  0  0  0  0  0
   60.4030   28.3920   49.3870 C   0  0  0  0  0  0  0  0  0  0  0  0
   59.9350   27.3470   48.4250 C   0  0  0  0  0  0  0  0  0  0  0  0
   60.7370   26.4510   48.0490 O   0  0  0  0  0  0  0  0  0  0  0  0
   58.6020   27.4260   47.8960 N   0  0  0  0  0  0  0  0  0  0  0  0
   58.0670   26.6580   46.9920 C   0  0  0  0  0  0  0  0  0  0  0  0
   56.8410   26.8970   46.4790 N   0  0  0  0  0  0  0  0  0  0  0  0
   56.4590   25.9470   45.5860 C   0  0  0  0  0  0  0  0  0  0  0  0
   57.3880   24.9330   45.3790 C   0  0  0  0  0  0  0  0  0  0  0  0
   58.7280   25.2450   46.3500 S   0  0  0  0  0  0  0  0  0  0  0  0
   58.8140   30.1220   45.8990 C   0  0  0  0  0  0  0  0  0  0  0  0
   56.4368   32.4127   42.2177 H   0  0  0  0  0  0  0  0  0  0  0  0
   57.6667   33.2124   41.1811 H   0  0  0  0  0  0  0  0  0  0  0  0
   57.5189   31.4222   41.1811 H   0  0  0  0  0  0  0  0  0  0  0  0
   60.0394   34.1468   43.8473 H   0  0  0  0  0  0  0  0  0  0  0  0
   59.7540   35.3272   46.0211 H   0  0  0  0  0  0  0  0  0  0  0  0
   57.8203   34.7806   47.4967 H   0  0  0  0  0  0  0  0  0  0  0  0
   56.1699   33.0511   46.8028 H   0  0  0  0  0  0  0  0  0  0  0  0
   58.3192   27.9541   43.2990 H   0  0  0  0  0  0  0  0  0  0  0  0
   60.6285   27.2740   43.9531 H   0  0  0  0  0  0  0  0  0  0  0  0
   61.7607   28.3791   45.8811 H   0  0  0  0  0  0  0  0  0  0  0  0
   61.7394   29.8915   47.6511 H   0  0  0  0  0  0  0  0  0  0  0  0
   60.8615   31.4238   47.3513 H   0  0  0  0  0  0  0  0  0  0  0  0
   61.5004   28.4576   49.3484 H   0  0  0  0  0  0  0  0  0  0  0  0
   60.0816   28.1181   50.4027 H   0  0  0  0  0  0  0  0  0  0  0  0
   56.2480   27.7170   46.7390 H   0  0  0  0  0  0  0  0  0  0  0  0
   55.4897   25.9775   45.0668 H   0  0  0  0  0  0  0  0  0  0  0  0
   57.2683   24.0764   44.6994 H   0  0  0  0  0  0  0  0  0  0  0  0
   58.3089   30.9390   46.4351 H   0  0  0  0  0  0  0  0  0  0  0  0
  1  2  1  0
  2  3  1  0
  3  4  2  0
  4  5  1  0
  5  6  2  0
  6  7  1  0
  7  8  2  0
  8  9  1  0
  9 10  1  0
 10 11  2  0
 10 12  2  0
 10 13  1  0
 13 14  2  0
 14 15  1  0
 15 16  2  0
 16 17  1  0
 17 18  1  0
 18 19  1  0
 19 20  1  0
 20 21  1  0
 21 22  2  0
 21 23  1  0
 23 24  2  3
 24 25  1  0
 25 26  1  0
 26 27  2  0
 27 28  1  0
 17 29  2  0
  8  3  1  0
 29 13  1  0
 28 24  1  0
  1 30  1  0
  1 31  1  0
  1 32  1  0
  4 33  1  0
  5 34  1  0
  6 35  1  0
  7 36  1  0
 14 37  1  0
 15 38  1  0
 16 39  1  0
 18 40  1  0
 18 41  1  0
 20 42  1  0
 20 43  1  0
 25 44  1  0
 26 45  1  0
 27 46  1  0
 29 47  1  0
M  CHG  1   9  -1
M  END
>  <UniqueID>  (40) 
37

>  <SMILES>  (40) 
COc1ccccc1[N-]S(=O)(=O)c1cccc(CSCC(=O)N=c2[nH]ccs2)c1

>  <Energy>  (40) 
77.78437964304422

>  <Genealogy>  (40) 
COc1ccccc1[N-]S(=O)(=O)c1cccc(CSCC(=O)N=c2[nH]ccs2)c1 (protonated)
COc1ccccc1[N-]S(=O)(=O)c1cccc(CSCC(=O)N=c2[nH]ccs2)c1 (3D coordinates assigned)
COc1ccccc1[N-]S(=O)(=O)c1cccc(CSCC(=O)N=c2[nH]ccs2)c1 (optimized conformer: 77.78437964304422 kcal/mol)

>  <smiles>  (40) 
COc1ccccc1NS(=O)(=O)c1cccc(CSCC(=O)N=c2[nH]ccs2)c1

>  <score_type>  (40) 
oracle

>  <origin>  (40) 
adg

>  <m_score__min__energy>  (40) 
-11.02

>  <m_primary>  (40) 
energy

$$$$
40:0
     RDKit          3D

 54 58  0  0  0  0  0  0  0  0999 V2000
   55.7090   29.3200   45.2330 O   0  0  0  0  0  0  0  0  0  0  0  0
   56.9100   29.5610   44.9370 C   0  0  0  0  0  0  0  0  0  0  0  0
   57.9790   28.7430   45.5610 C   0  0  0  0  0  0  0  0  0  0  0  0
   59.2790   28.7130   45.0200 C   0  0  0  0  0  0  0  0  0  0  0  0
   60.2730   27.9270   45.6110 C   0  0  0  0  0  0  0  0  0  0  0  0
   59.9800   27.1570   46.7380 C   0  0  0  0  0  0  0  0  0  0  0  0
   58.6910   27.1670   47.2750 C   0  0  0  0  0  0  0  0  0  0  0  0
   57.6930   27.9510   46.6880 C   0  0  0  0  0  0  0  0  0  0  0  0
   57.2150   30.6630   43.9900 C   0  0  0  0  0  0  0  0  0  0  0  0
   56.8580   30.5300   42.6340 C   0  0  0  0  0  0  0  0  0  0  0  0
   57.1310   31.5500   41.7230 C   0  0  0  0  0  0  0  0  0  0  0  0
   57.7610   32.7190   42.1490 C   0  0  0  0  0  0  0  0  0  0  0  0
   58.1360   32.8620   43.4860 C   0  0  0  0  0  0  0  0  0  0  0  0
   57.8970   31.8310   44.4080 C   0  0  0  0  0  0  0  0  0  0  0  0
   58.2660   32.0180   45.7820 N   0  0  0  0  0  0  0  0  0  0  0  0
   59.6470   32.2040   46.2690 C   0  0  1  0  0  0  0  0  0  0  0  0
   60.0450   33.6790   46.5200 C   0  0  0  0  0  0  0  0  0  0  0  0
   61.2990   33.8120   47.3370 C   0  0  0  0  0  0  0  0  0  0  0  0
   61.3630   34.1710   48.6780 C   0  0  0  0  0  0  0  0  0  0  0  0
   62.6680   34.1830   49.1850 C   0  0  0  0  0  0  0  0  0  0  0  0
   63.6310   33.8120   48.2550 C   0  0  0  0  0  0  0  0  0  0  0  0
   62.8570   33.4710   46.8020 S   0  0  0  0  0  0  0  0  0  0  0  0
   59.8450   31.4050   47.5440 C   0  0  0  0  0  0  0  0  0  0  0  0
   60.9110   30.4920   47.6400 C   0  0  0  0  0  0  0  0  0  0  0  0
   61.0940   29.7230   48.7920 C   0  0  0  0  0  0  0  0  0  0  0  0
   60.2040   29.8470   49.8660 C   0  0  0  0  0  0  0  0  0  0  0  0
   60.3660   29.0880   51.0320 C   0  0  0  0  0  0  0  0  0  0  0  0
   59.4570   29.2270   52.0820 C   0  0  0  0  0  0  0  0  0  0  0  0
   58.3950   30.1240   51.9560 C   0  0  0  0  0  0  0  0  0  0  0  0
   58.2480   30.8550   50.8180 N   0  0  0  0  0  0  0  0  0  0  0  0
   59.1180   30.7440   49.7770 C   0  0  0  0  0  0  0  0  0  0  0  0
   58.9350   31.5140   48.6190 C   0  0  0  0  0  0  0  0  0  0  0  0
   57.8460   32.3790   48.5400 O   0  0  0  0  0  0  0  0  0  0  0  0
   59.5137   29.3114   44.1273 H   0  0  0  0  0  0  0  0  0  0  0  0
   61.2879   27.9154   45.1870 H   0  0  0  0  0  0  0  0  0  0  0  0
   60.7647   26.5423   47.2031 H   0  0  0  0  0  0  0  0  0  0  0  0
   58.4604   26.5573   48.1610 H   0  0  0  0  0  0  0  0  0  0  0  0
   56.6773   27.9485   47.1103 H   0  0  0  0  0  0  0  0  0  0  0  0
   56.3587   29.6122   42.2900 H   0  0  0  0  0  0  0  0  0  0  0  0
   56.8489   31.4323   40.6663 H   0  0  0  0  0  0  0  0  0  0  0  0
   57.9624   33.5282   41.4316 H   0  0  0  0  0  0  0  0  0  0  0  0
   58.6228   33.7903   43.8197 H   0  0  0  0  0  0  0  0  0  0  0  0
   57.5580   31.7310   46.4950 H   0  0  0  0  0  0  0  0  0  0  0  0
   60.3038   31.8442   45.4633 H   0  0  0  0  0  0  0  0  0  0  0  0
   60.2043   34.1703   45.5488 H   0  0  0  0  0  0  0  0  0  0  0  0
   59.2286   34.1509   47.0865 H   0  0  0  0  0  0  0  0  0  0  0  0
   60.4773   34.4207   49.2806 H   0  0  0  0  0  0  0  0  0  0  0  0
   62.9082   34.4601   50.2221 H   0  0  0  0  0  0  0  0  0  0  0  0
   64.7140   33.7517   48.4379 H   0  0  0  0  0  0  0  0  0  0  0  0
   61.6094   30.3822   46.7973 H   0  0  0  0  0  0  0  0  0  0  0  0
   61.9375   29.0199   48.8554 H   0  0  0  0  0  0  0  0  0  0  0  0
   61.2071   28.3845   51.1199 H   0  0  0  0  0  0  0  0  0  0  0  0
   59.5765   28.6346   53.0011 H   0  0  0  0  0  0  0  0  0  0  0  0
   57.6748   30.2402   52.7793 H   0  0  0  0  0  0  0  0  0  0  0  0
  1  2  2  0
  2  3  1  0
  3  4  2  0
  4  5  1  0
  5  6  2  0
  6  7  1  0
  7  8  2  0
  2  9  1  0
  9 10  2  0
 10 11  1  0
 11 12  2  0
 12 13  1  0
 13 14  2  0
 14 15  1  0
 15 16  1  0
 16 17  1  0
 17 18  1  0
 18 19  2  0
 19 20  1  0
 20 21  2  0
 21 22  1  0
 16 23  1  0
 23 24  2  0
 24 25  1  0
 25 26  2  0
 26 27  1  0
 27 28  2  0
 28 29  1  0
 29 30  2  0
 30 31  1  0
 31 32  2  0
 32 33  1  0
  8  3  1  0
 14  9  1  0
 22 18  1  0
 32 23  1  0
 31 26  1  0
  4 34  1  0
  5 35  1  0
  6 36  1  0
  7 37  1  0
  8 38  1  0
 10 39  1  0
 11 40  1  0
 12 41  1  0
 13 42  1  0
 15 43  1  0
 16 44  1  6
 17 45  1  0
 17 46  1  0
 19 47  1  0
 20 48  1  0
 21 49  1  0
 24 50  1  0
 25 51  1  0
 27 52  1  0
 28 53  1  0
 29 54  1  0
M  CHG  1  33  -1
M  END
>  <UniqueID>  (41) 
38

>  <SMILES>  (41) 
O=C(c1ccccc1)c1ccccc1N[C@@H](Cc1cccs1)c1ccc2cccnc2c1[O-]

>  <Energy>  (41) 
102.88111564864317

>  <Genealogy>  (41) 
O=C(c1ccccc1)c1ccccc1NC(Cc1cccs1)c1ccc2cccnc2c1[O-] (protonated)
O=C(c1ccccc1)c1ccccc1N[C@@H](Cc1cccs1)c1ccc2cccnc2c1[O-] (chirality)
O=C(c1ccccc1)c1ccccc1N[C@@H](Cc1cccs1)c1ccc2cccnc2c1[O-] (3D coordinates assigned)
O=C(c1ccccc1)c1ccccc1N[C@@H](Cc1cccs1)c1ccc2cccnc2c1[O-] (optimized conformer: 102.88111564864317 kcal/mol)

>  <smiles>  (41) 
O=C(c1ccccc1)c1ccccc1NC(Cc1cccs1)c1ccc2cccnc2c1O

>  <score_type>  (41) 
oracle

>  <origin>  (41) 
adg

>  <m_score__min__energy>  (41) 
-13

>  <m_primary>  (41) 
energy

$$$$
41:0
     RDKit          3D

 61 65  0  0  0  0  0  0  0  0999 V2000
   63.5270   31.0392   52.4901 H   0  0  0  0  0  0  0  0  0  0  0  0
   63.3810   32.0080   51.9900 C   0  0  0  0  0  0  0  0  0  0  0  0
   64.2540   33.0260   52.2150 N   0  0  0  0  0  0  0  0  0  0  0  0
   64.1060   34.2370   51.6130 C   0  0  0  0  0  0  0  0  0  0  0  0
   64.8281   35.0420   51.8142 H   0  0  0  0  0  0  0  0  0  0  0  0
   63.0390   34.4600   50.7400 C   0  0  0  0  0  0  0  0  0  0  0  0
   62.9199   35.4366   50.2479 H   0  0  0  0  0  0  0  0  0  0  0  0
   62.1210   33.4290   50.4960 C   0  0  0  0  0  0  0  0  0  0  0  0
   60.9940   33.6380   49.5610 C   0  0  0  0  0  0  0  0  0  0  0  0
   59.6590   33.3880   49.8350 C   0  0  0  0  0  0  0  0  0  0  0  0
   59.0540   33.0110   51.1320 C   0  0  0  0  0  0  0  0  0  0  0  0
   59.2580   33.8260   52.2590 C   0  0  0  0  0  0  0  0  0  0  0  0
   59.8646   34.7394   52.1705 H   0  0  0  0  0  0  0  0  0  0  0  0
   58.6950   33.4830   53.4910 C   0  0  0  0  0  0  0  0  0  0  0  0
   58.8503   34.1317   54.3657 H   0  0  0  0  0  0  0  0  0  0  0  0
   57.9350   32.3170   53.6130 C   0  0  0  0  0  0  0  0  0  0  0  0
   57.3890   31.9860   54.8090 F   0  0  0  0  0  0  0  0  0  0  0  0
   57.7420   31.4890   52.5040 C   0  0  0  0  0  0  0  0  0  0  0  0
   57.1477   30.5686   52.6019 H   0  0  0  0  0  0  0  0  0  0  0  0
   58.3040   31.8300   51.2700 C   0  0  0  0  0  0  0  0  0  0  0  0
   58.1584   31.1702   50.4019 H   0  0  0  0  0  0  0  0  0  0  0  0
   58.9430   33.5180   48.7060 N   0  0  0  0  0  0  0  0  0  0  0  0
   59.8430   33.8670   47.7650 C   0  0  0  0  0  0  0  0  0  0  0  0
   59.4530   34.1070   46.5430 N   0  0  0  0  0  0  0  0  0  0  0  0
   58.7460   33.2570   45.6370 C   0  0  0  0  0  0  0  0  0  0  0  0
   58.7230   33.5710   44.2720 C   0  0  0  0  0  0  0  0  0  0  0  0
   59.1963   34.4972   43.9139 H   0  0  0  0  0  0  0  0  0  0  0  0
   58.1000   32.7100   43.3640 C   0  0  0  0  0  0  0  0  0  0  0  0
   58.0607   32.9727   42.2966 H   0  0  0  0  0  0  0  0  0  0  0  0
   57.5270   31.5160   43.8100 C   0  0  0  0  0  0  0  0  0  0  0  0
   57.0279   30.8450   43.0954 H   0  0  0  0  0  0  0  0  0  0  0  0
   57.5880   31.1740   45.1650 C   0  0  0  0  0  0  0  0  0  0  0  0
   57.0480   30.0060   45.5940 F   0  0  0  0  0  0  0  0  0  0  0  0
   58.2120   32.0330   46.0750 C   0  0  0  0  0  0  0  0  0  0  0  0
   58.2850   31.7502   47.1355 H   0  0  0  0  0  0  0  0  0  0  0  0
   61.1250   33.9280   48.2400 N   0  0  0  0  0  0  0  0  0  0  0  0
   62.4050   33.8480   47.5080 C   0  0  0  0  0  0  0  0  0  0  0  0
   62.3349   34.4650   46.6000 H   0  0  0  0  0  0  0  0  0  0  0  0
   63.2021   34.2117   48.1731 H   0  0  0  0  0  0  0  0  0  0  0  0
   62.7430   32.4030   47.1030 C   0  0  0  0  0  0  0  0  0  0  0  0
   63.3794   32.4235   46.2060 H   0  0  0  0  0  0  0  0  0  0  0  0
   63.2644   31.9235   47.9446 H   0  0  0  0  0  0  0  0  0  0  0  0
   61.5310   31.6240   46.8100 N   0  0  0  0  0  0  0  0  0  0  0  0
   61.6900   31.0520   45.9480 H   0  0  0  0  0  0  0  0  0  0  0  0
   60.7270   32.2770   46.6590 H   0  0  0  0  0  0  0  0  0  0  0  0
   61.2090   30.7210   47.9230 C   0  0  0  0  0  0  0  0  0  0  0  0
   62.1402   30.3006   48.3306 H   0  0  0  0  0  0  0  0  0  0  0  0
   60.6794   31.2879   48.7028 H   0  0  0  0  0  0  0  0  0  0  0  0
   60.3240   29.5990   47.4450 C   0  0  0  0  0  0  0  0  0  0  0  0
   59.3760   29.0260   48.3090 C   0  0  0  0  0  0  0  0  0  0  0  0
   59.3006   29.3754   49.3493 H   0  0  0  0  0  0  0  0  0  0  0  0
   58.5280   28.0130   47.8510 C   0  0  0  0  0  0  0  0  0  0  0  0
   57.7945   27.5600   48.5342 H   0  0  0  0  0  0  0  0  0  0  0  0
   58.6110   27.5750   46.5260 C   0  0  0  0  0  0  0  0  0  0  0  0
   57.9462   26.7750   46.1683 H   0  0  0  0  0  0  0  0  0  0  0  0
   59.5390   28.1540   45.6560 C   0  0  0  0  0  0  0  0  0  0  0  0
   59.5996   27.8134   44.6118 H   0  0  0  0  0  0  0  0  0  0  0  0
   60.3910   29.1660   46.1110 C   0  0  0  0  0  0  0  0  0  0  0  0
   61.1156   29.6239   45.4216 H   0  0  0  0  0  0  0  0  0  0  0  0
   62.2990   32.1900   51.1250 C   0  0  0  0  0  0  0  0  0  0  0  0
   61.5928   31.3673   50.9394 H   0  0  0  0  0  0  0  0  0  0  0  0
  1  2  1  0
  2  3  2  0
  3  4  1  0
  4  5  1  0
  4  6  2  0
  6  7  1  0
  6  8  1  0
  8  9  1  0
  9 10  2  0
 10 11  1  0
 11 12  2  0
 12 13  1  0
 12 14  1  0
 14 15  1  0
 14 16  2  0
 16 17  1  0
 16 18  1  0
 18 19  1  0
 18 20  2  0
 20 21  1  0
 10 22  1  0
 22 23  1  0
 23 24  2  0
 24 25  1  0
 25 26  2  0
 26 27  1  0
 26 28  1  0
 28 29  1  0
 28 30  2  0
 30 31  1  0
 30 32  1  0
 32 33  1  0
 32 34  2  0
 34 35  1  0
 23 36  1  0
 36 37  1  0
 37 38  1  0
 37 39  1  0
 37 40  1  0
 40 41  1  0
 40 42  1  0
 40 43  1  0
 43 44  1  0
 43 45  1  0
 43 46  1  0
 46 47  1  0
 46 48  1  0
 46 49  1  0
 49 50  2  0
 50 51  1  0
 50 52  1  0
 52 53  1  0
 52 54  2  0
 54 55  1  0
 54 56  1  0
 56 57  1  0
 56 58  2  0
 58 59  1  0
  8 60  2  0
 60 61  1  0
 60  2  1  0
 36  9  1  0
 58 49  1  0
 20 11  1  0
 34 25  1  0
M  CHG  2  22  -1  43   1
M  END
>  <UniqueID>  (42) 
39

>  <SMILES>  (42) 
Fc1ccc(-c2[n-]/c(=N/c3cccc(F)c3)n(CC[NH2+]Cc3ccccc3)c2-c2ccncc2)cc1

>  <Energy>  (42) 
118.5596495411649

>  <Genealogy>  (42) 
Fc1ccc(-c2[n-]c(=Nc3cccc(F)c3)n(CC[NH2+]Cc3ccccc3)c2-c2ccncc2)cc1 (protonated)
Fc1ccc(-c2[n-]/c(=N/c3cccc(F)c3)n(CC[NH2+]Cc3ccccc3)c2-c2ccncc2)cc1 (cis-trans isomerization)
Fc1ccc(-c2[n-]/c(=N/c3cccc(F)c3)n(CC[NH2+]Cc3ccccc3)c2-c2ccncc2)cc1 (3D coordinates assigned)
Fc1ccc(-c2[n-]/c(=N/c3cccc(F)c3)n(CC[NH2+]Cc3ccccc3)c2-c2ccncc2)cc1 (optimized conformer: 118.5596495411649 kcal/mol)

>  <smiles>  (42) 
Fc1ccc(-c2[nH]c(=Nc3cccc(F)c3)n(CCNCc3ccccc3)c2-c2ccncc2)cc1

>  <score_type>  (42) 
oracle

>  <origin>  (42) 
adg

>  <m_score__min__energy>  (42) 
-8.5

>  <m_primary>  (42) 
energy

$$$$
42:0
     RDKit          3D

 41 43  0  0  0  0  0  0  0  0999 V2000
   60.1960   27.4260   48.2470 C   0  0  0  0  0  0  0  0  0  0  0  0
   58.9800   26.8910   47.5490 C   0  0  0  0  0  0  0  0  0  0  0  0
   58.6130   25.6050   47.8030 N   0  0  0  0  0  0  0  0  0  0  0  0
   57.5150   25.0410   47.2380 C   0  0  0  0  0  0  0  0  0  0  0  0
   57.2000   23.8150   47.5110 N   0  0  0  0  0  0  0  0  0  0  0  0
   56.7290   25.8030   46.3690 C   0  0  0  0  0  0  0  0  0  0  0  0
   55.2810   25.1490   45.6220 Cl  0  0  0  0  0  0  0  0  0  0  0  0
   57.0890   27.0850   46.1050 N   0  0  0  0  0  0  0  0  0  0  0  0
   58.1920   27.6620   46.6560 C   0  0  0  0  0  0  0  0  0  0  0  0
   58.4760   29.0730   46.3000 C   0  0  0  0  0  0  0  0  0  0  0  0
   59.6460   29.5400   46.3390 O   0  0  0  0  0  0  0  0  0  0  0  0
   57.3930   29.9180   45.8920 N   0  0  0  0  0  0  0  0  0  0  0  0
   57.3140   30.5850   44.6250 C   0  0  0  0  0  0  0  0  0  0  0  0
   56.7030   29.9060   43.5620 C   0  0  0  0  0  0  0  0  0  0  0  0
   56.6560   30.4760   42.2890 C   0  0  0  0  0  0  0  0  0  0  0  0
   57.2100   31.7360   42.0670 C   0  0  0  0  0  0  0  0  0  0  0  0
   57.7910   32.4420   43.1230 C   0  0  0  0  0  0  0  0  0  0  0  0
   57.8280   31.8930   44.4180 C   0  0  0  0  0  0  0  0  0  0  0  0
   58.3590   32.7250   45.5240 C   0  0  0  0  0  0  0  0  0  0  0  0
   58.1710   33.9730   45.5050 O   0  0  0  0  0  0  0  0  0  0  0  0
   59.0500   32.1260   46.6300 N   0  0  0  0  0  0  0  0  0  0  0  0
   59.7590   32.9390   47.6160 C   0  0  0  0  0  0  0  0  0  0  0  0
   61.2380   32.8850   47.3870 C   0  0  0  0  0  0  0  0  0  0  0  0
   61.9840   33.8120   46.6870 C   0  0  0  0  0  0  0  0  0  0  0  0
   63.2840   33.3580   46.7410 C   0  0  0  0  0  0  0  0  0  0  0  0
   63.2500   32.1830   47.4650 C   0  0  0  0  0  0  0  0  0  0  0  0
   62.0160   31.9280   47.8370 O   0  0  0  0  0  0  0  0  0  0  0  0
   60.0516   27.3625   49.3356 H   0  0  0  0  0  0  0  0  0  0  0  0
   61.0756   26.8318   47.9585 H   0  0  0  0  0  0  0  0  0  0  0  0
   60.3522   28.4759   47.9585 H   0  0  0  0  0  0  0  0  0  0  0  0
   56.6100   23.5750   48.3380 H   0  0  0  0  0  0  0  0  0  0  0  0
   56.2566   28.9152   43.7326 H   0  0  0  0  0  0  0  0  0  0  0  0
   56.1814   29.9306   41.4600 H   0  0  0  0  0  0  0  0  0  0  0  0
   57.1895   32.1749   41.0586 H   0  0  0  0  0  0  0  0  0  0  0  0
   58.2238   33.4367   42.9405 H   0  0  0  0  0  0  0  0  0  0  0  0
   59.0230   31.0870   46.7380 H   0  0  0  0  0  0  0  0  0  0  0  0
   59.4195   33.9821   47.5343 H   0  0  0  0  0  0  0  0  0  0  0  0
   59.5434   32.5430   48.6194 H   0  0  0  0  0  0  0  0  0  0  0  0
   61.6175   34.7224   46.1902 H   0  0  0  0  0  0  0  0  0  0  0  0
   64.1699   33.8354   46.2969 H   0  0  0  0  0  0  0  0  0  0  0  0
   64.1236   31.5555   47.6955 H   0  0  0  0  0  0  0  0  0  0  0  0
  1  2  1  0
  2  3  1  0
  3  4  1  0
  4  5  2  3
  4  6  1  0
  6  7  1  0
  6  8  2  0
  8  9  1  0
  9 10  1  0
 10 11  2  0
 10 12  1  0
 12 13  1  0
 13 14  2  0
 14 15  1  0
 15 16  2  0
 16 17  1  0
 17 18  2  0
 18 19  1  0
 19 20  2  0
 19 21  1  0
 21 22  1  0
 22 23  1  0
 23 24  2  0
 24 25  1  0
 25 26  2  0
 26 27  1  0
  9  2  2  0
 18 13  1  0
 27 23  1  0
  1 28  1  0
  1 29  1  0
  1 30  1  0
  5 31  1  0
 14 32  1  0
 15 33  1  0
 16 34  1  0
 17 35  1  0
 21 36  1  0
 22 37  1  0
 22 38  1  0
 24 39  1  0
 25 40  1  0
 26 41  1  0
M  CHG  2   3  -1  12  -1
M  END
>  <UniqueID>  (43) 
40

>  <SMILES>  (43) 
Cc1[n-]c(=N)c(Cl)nc1C(=O)[N-]c1ccccc1C(=O)NCc1ccco1

>  <Energy>  (43) 
77.09461349956993

>  <Genealogy>  (43) 
Cc1[n-]c(=N)c(Cl)nc1C(=O)[N-]c1ccccc1C(=O)NCc1ccco1 (protonated)
Cc1[n-]c(=N)c(Cl)nc1C(=O)[N-]c1ccccc1C(=O)NCc1ccco1 (3D coordinates assigned)
Cc1[n-]c(=N)c(Cl)nc1C(=O)[N-]c1ccccc1C(=O)NCc1ccco1 (optimized conformer: 77.09461349956993 kcal/mol)

>  <smiles>  (43) 
Cc1[nH]c(=N)c(Cl)nc1C(=O)Nc1ccccc1C(=O)NCc1ccco1

>  <score_type>  (43) 
oracle

>  <origin>  (43) 
adg

>  <m_score__min__energy>  (43) 
-10.77

>  <m_primary>  (43) 
energy

$$$$
43:0
     RDKit          3D

 58 61  0  0  0  0  0  0  0  0999 V2000
   56.7560   24.1560   43.8950 C   0  0  0  0  0  0  0  0  0  0  0  0
   55.8550   24.1060   44.8820 C   0  0  0  0  0  0  0  0  0  0  0  0
   55.8880   25.0870   46.0210 C   0  0  0  0  0  0  0  0  0  0  0  0
   56.7250   26.2360   45.6830 N   0  0  0  0  0  0  0  0  0  0  0  0
   57.9080   26.5570   46.4260 C   0  0  0  0  0  0  0  0  0  0  0  0
   58.1320   25.9820   47.5250 O   0  0  0  0  0  0  0  0  0  0  0  0
   58.8790   27.5400   45.9030 C   0  0  0  0  0  0  0  0  0  0  0  0
   58.9510   28.0830   44.6260 C   0  0  0  0  0  0  0  0  0  0  0  0
   58.0490   27.8140   43.4550 C   0  0  0  0  0  0  0  0  0  0  0  0
   57.3510   29.0240   43.0190 N   0  0  0  0  0  0  0  0  0  0  0  0
   56.5570   29.8450   44.3360 S   0  0  0  0  0  0  0  0  0  0  0  0
   55.1160   30.1470   44.0130 O   0  0  0  0  0  0  0  0  0  0  0  0
   56.6030   28.9710   45.5590 O   0  0  0  0  0  0  0  0  0  0  0  0
   57.4360   31.3350   44.6680 C   0  0  0  0  0  0  0  0  0  0  0  0
   57.8060   32.1590   43.5940 C   0  0  0  0  0  0  0  0  0  0  0  0
   58.5190   33.3390   43.8230 C   0  0  0  0  0  0  0  0  0  0  0  0
   58.8690   33.7090   45.1270 C   0  0  0  0  0  0  0  0  0  0  0  0
   59.5890   34.8900   45.3620 C   0  0  0  0  0  0  0  0  0  0  0  0
   59.9420   35.2440   46.6680 C   0  0  0  0  0  0  0  0  0  0  0  0
   59.5730   34.4310   47.7450 C   0  0  0  0  0  0  0  0  0  0  0  0
   58.8460   33.2570   47.5240 C   0  0  0  0  0  0  0  0  0  0  0  0
   58.4930   32.8850   46.2170 C   0  0  0  0  0  0  0  0  0  0  0  0
   57.7680   31.7050   45.9790 C   0  0  0  0  0  0  0  0  0  0  0  0
   60.0610   28.8390   44.5290 N   0  0  0  0  0  0  0  0  0  0  0  0
   60.6580   28.8010   45.6840 O   0  0  0  0  0  0  0  0  0  0  0  0
   59.9980   28.0560   46.5380 C   0  0  0  0  0  0  0  0  0  0  0  0
   60.4300   27.8490   47.9280 C   0  0  0  0  0  0  0  0  0  0  0  0
   60.8080   26.7010   48.2850 O   0  0  0  0  0  0  0  0  0  0  0  0
   60.4520   28.9170   48.8800 N   0  0  0  0  0  0  0  0  0  0  0  0
   59.9670   30.2660   48.6140 C   0  0  0  0  0  0  0  0  0  0  0  0
   61.1340   31.1990   48.4550 C   0  0  0  0  0  0  0  0  0  0  0  0
   61.5120   32.0300   49.5250 C   0  0  0  0  0  0  0  0  0  0  0  0
   62.6060   32.8930   49.3930 C   0  0  0  0  0  0  0  0  0  0  0  0
   63.3270   32.9320   48.1970 C   0  0  0  0  0  0  0  0  0  0  0  0
   62.9680   32.0950   47.1320 C   0  0  0  0  0  0  0  0  0  0  0  0
   61.8710   31.2360   47.2560 C   0  0  0  0  0  0  0  0  0  0  0  0
   56.7115   23.4273   43.0722 H   0  0  0  0  0  0  0  0  0  0  0  0
   57.5416   24.9258   43.9060 H   0  0  0  0  0  0  0  0  0  0  0  0
   55.0741   23.3316   44.8601 H   0  0  0  0  0  0  0  0  0  0  0  0
   54.8651   25.4334   46.2301 H   0  0  0  0  0  0  0  0  0  0  0  0
   56.3085   24.5891   46.9072 H   0  0  0  0  0  0  0  0  0  0  0  0
   56.4010   26.9030   44.9450 H   0  0  0  0  0  0  0  0  0  0  0  0
   58.6539   27.4311   42.6199 H   0  0  0  0  0  0  0  0  0  0  0  0
   57.2944   27.0767   43.7663 H   0  0  0  0  0  0  0  0  0  0  0  0
   57.5335   31.8748   42.5669 H   0  0  0  0  0  0  0  0  0  0  0  0
   58.8061   33.9792   42.9758 H   0  0  0  0  0  0  0  0  0  0  0  0
   59.8756   35.5369   44.5197 H   0  0  0  0  0  0  0  0  0  0  0  0
   60.5128   36.1666   46.8494 H   0  0  0  0  0  0  0  0  0  0  0  0
   59.8557   34.7161   48.7691 H   0  0  0  0  0  0  0  0  0  0  0  0
   58.5506   32.6248   48.3744 H   0  0  0  0  0  0  0  0  0  0  0  0
   57.4603   31.0702   46.8230 H   0  0  0  0  0  0  0  0  0  0  0  0
   59.3706   30.2650   47.6897 H   0  0  0  0  0  0  0  0  0  0  0  0
   59.3425   30.6021   49.4549 H   0  0  0  0  0  0  0  0  0  0  0  0
   60.9464   32.0016   50.4680 H   0  0  0  0  0  0  0  0  0  0  0  0
   62.8985   33.5414   50.2321 H   0  0  0  0  0  0  0  0  0  0  0  0
   64.1780   33.6209   48.0911 H   0  0  0  0  0  0  0  0  0  0  0  0
   63.5490   32.1135   46.1982 H   0  0  0  0  0  0  0  0  0  0  0  0
   61.5835   30.5880   46.4149 H   0  0  0  0  0  0  0  0  0  0  0  0
  1  2  2  0
  2  3  1  0
  3  4  1  0
  4  5  1  0
  5  6  2  0
  5  7  1  0
  7  8  1  0
  8  9  1  0
  9 10  1  0
 10 11  1  0
 11 12  2  0
 11 13  2  0
 11 14  1  0
 14 15  2  0
 15 16  1  0
 16 17  2  0
 17 18  1  0
 18 19  2  0
 19 20  1  0
 20 21  2  0
 21 22  1  0
 22 23  2  0
  8 24  2  0
 24 25  1  0
 25 26  1  0
 26 27  1  0
 27 28  2  0
 27 29  1  0
 29 30  1  0
 30 31  1  0
 31 32  2  0
 32 33  1  0
 33 34  2  0
 34 35  1  0
 35 36  2  0
 26  7  2  0
 36 31  1  0
 23 14  1  0
 22 17  1  0
  1 37  1  0
  1 38  1  0
  2 39  1  0
  3 40  1  0
  3 41  1  0
  4 42  1  0
  9 43  1  0
  9 44  1  0
 15 45  1  0
 16 46  1  0
 18 47  1  0
 19 48  1  0
 20 49  1  0
 21 50  1  0
 23 51  1  0
 30 52  1  0
 30 53  1  0
 32 54  1  0
 33 55  1  0
 34 56  1  0
 35 57  1  0
 36 58  1  0
M  CHG  2  10  -1  29  -1
M  END
>  <UniqueID>  (44) 
41

>  <SMILES>  (44) 
C=CCNC(=O)c1c(C[N-]S(=O)(=O)c2ccc3ccccc3c2)noc1C(=O)[N-]Cc1ccccc1

>  <Energy>  (44) 
88.65010843158129

>  <Genealogy>  (44) 
C=CCNC(=O)c1c(C[N-]S(=O)(=O)c2ccc3ccccc3c2)noc1C(=O)[N-]Cc1ccccc1 (protonated)
C=CCNC(=O)c1c(C[N-]S(=O)(=O)c2ccc3ccccc3c2)noc1C(=O)[N-]Cc1ccccc1 (3D coordinates assigned)
C=CCNC(=O)c1c(C[N-]S(=O)(=O)c2ccc3ccccc3c2)noc1C(=O)[N-]Cc1ccccc1 (optimized conformer: 88.65010843158129 kcal/mol)

>  <smiles>  (44) 
C=CCNC(=O)c1c(CNS(=O)(=O)c2ccc3ccccc3c2)noc1C(=O)NCc1ccccc1

>  <score_type>  (44) 
oracle

>  <origin>  (44) 
adg

>  <m_score__min__energy>  (44) 
-13.83

>  <m_primary>  (44) 
energy

$$$$
44:0
     RDKit          3D

 54 57  0  0  0  0  0  0  0  0999 V2000
   61.7960   30.3680   46.7700 H   0  0  0  0  0  0  0  0  0  0  0  0
   62.2770   30.8030   47.5470 O   0  0  0  0  0  0  0  0  0  0  0  0
   62.6320   32.1370   47.5470 N   0  0  0  0  0  0  0  0  0  0  0  0
   61.8370   33.1010   47.9120 C   0  0  0  0  0  0  0  0  0  0  0  0
   60.6340   33.4050   47.0950 C   0  0  0  0  0  0  0  0  0  0  0  0
   59.6640   32.4170   46.8170 C   0  0  0  0  0  0  0  0  0  0  0  0
   59.8380   31.1080   47.2870 O   0  0  0  0  0  0  0  0  0  0  0  0
   59.4450   29.9480   46.6050 C   0  0  0  0  0  0  0  0  0  0  0  0
   59.3440   29.9050   45.2020 C   0  0  0  0  0  0  0  0  0  0  0  0
   59.6156   30.7895   44.6071 H   0  0  0  0  0  0  0  0  0  0  0  0
   58.9010   28.7460   44.5600 C   0  0  0  0  0  0  0  0  0  0  0  0
   58.8281   28.7204   43.4627 H   0  0  0  0  0  0  0  0  0  0  0  0
   58.5490   27.6150   45.3110 C   0  0  0  0  0  0  0  0  0  0  0  0
   58.1030   26.4450   44.6750 C   0  0  0  0  0  0  0  0  0  0  0  0
   58.0275   26.4101   43.5781 H   0  0  0  0  0  0  0  0  0  0  0  0
   57.7550   25.3250   45.4350 C   0  0  0  0  0  0  0  0  0  0  0  0
   57.4098   24.4086   44.9340 H   0  0  0  0  0  0  0  0  0  0  0  0
   57.8440   25.3650   46.8300 C   0  0  0  0  0  0  0  0  0  0  0  0
   57.5696   24.4796   47.4222 H   0  0  0  0  0  0  0  0  0  0  0  0
   58.2800   26.5250   47.4740 C   0  0  0  0  0  0  0  0  0  0  0  0
   58.3422   26.5531   48.5719 H   0  0  0  0  0  0  0  0  0  0  0  0
   58.6390   27.6550   46.7230 C   0  0  0  0  0  0  0  0  0  0  0  0
   59.0840   28.8250   47.3570 C   0  0  0  0  0  0  0  0  0  0  0  0
   59.1495   28.8595   48.4545 H   0  0  0  0  0  0  0  0  0  0  0  0
   58.5600   32.7360   46.0860 N   0  0  0  0  0  0  0  0  0  0  0  0
   58.3390   33.9900   45.6120 C   0  0  0  0  0  0  0  0  0  0  0  0
   57.0860   34.2840   44.8500 C   0  0  0  0  0  0  0  0  0  0  0  0
   56.2644   34.4768   45.5556 H   0  0  0  0  0  0  0  0  0  0  0  0
   57.2412   35.1701   44.2170 H   0  0  0  0  0  0  0  0  0  0  0  0
   56.8309   33.4213   44.2170 H   0  0  0  0  0  0  0  0  0  0  0  0
   59.2550   35.0060   45.8930 C   0  0  0  0  0  0  0  0  0  0  0  0
   59.0734   36.0308   45.5369 H   0  0  0  0  0  0  0  0  0  0  0  0
   60.4020   34.7100   46.6290 C   0  0  0  0  0  0  0  0  0  0  0  0
   61.1309   35.5046   46.8464 H   0  0  0  0  0  0  0  0  0  0  0  0
   62.0980   33.8470   49.1100 N   0  0  0  0  0  0  0  0  0  0  0  0
   62.1810   34.8870   49.0600 H   0  0  0  0  0  0  0  0  0  0  0  0
   61.9910   33.2250   50.4300 C   0  0  0  0  0  0  0  0  0  0  0  0
   62.1502   32.1411   50.3308 H   0  0  0  0  0  0  0  0  0  0  0  0
   62.7525   33.6679   51.0887 H   0  0  0  0  0  0  0  0  0  0  0  0
   60.6110   33.4740   51.0440 C   0  0  0  0  0  0  0  0  0  0  0  0
   60.5975   33.0608   52.0633 H   0  0  0  0  0  0  0  0  0  0  0  0
   60.4356   34.5599   51.0485 H   0  0  0  0  0  0  0  0  0  0  0  0
   59.2690   32.6940   50.0750 S   0  0  0  0  0  0  0  0  0  0  0  0
   59.7950   31.0020   50.3690 C   0  0  0  0  0  0  0  0  0  0  0  0
   59.1980   30.2530   51.3900 C   0  0  0  0  0  0  0  0  0  0  0  0
   58.3751   30.6797   51.9822 H   0  0  0  0  0  0  0  0  0  0  0  0
   59.6550   28.9620   51.6500 C   0  0  0  0  0  0  0  0  0  0  0  0
   59.1938   28.3635   52.4494 H   0  0  0  0  0  0  0  0  0  0  0  0
   60.7000   28.4320   50.8920 C   0  0  0  0  0  0  0  0  0  0  0  0
   61.0715   27.4159   51.0909 H   0  0  0  0  0  0  0  0  0  0  0  0
   61.2690   29.2060   49.8780 C   0  0  0  0  0  0  0  0  0  0  0  0
   62.0885   28.7957   49.2697 H   0  0  0  0  0  0  0  0  0  0  0  0
   60.8130   30.4660   49.6400 N   0  0  0  0  0  0  0  0  0  0  0  0
   61.2560   31.0310   48.8810 H   0  0  0  0  0  0  0  0  0  0  0  0
  1  2  1  0
  2  3  1  0
  3  4  2  0
  4  5  1  0
  5  6  1  0
  6  7  1  0
  7  8  1  0
  8  9  2  0
  9 10  1  0
  9 11  1  0
 11 12  1  0
 11 13  2  0
 13 14  1  0
 14 15  1  0
 14 16  2  0
 16 17  1  0
 16 18  1  0
 18 19  1  0
 18 20  2  0
 20 21  1  0
 20 22  1  0
 22 23  2  0
 23 24  1  0
  6 25  2  0
 25 26  1  0
 26 27  1  0
 27 28  1  0
 27 29  1  0
 27 30  1  0
 26 31  2  0
 31 32  1  0
 31 33  1  0
 33 34  1  0
  4 35  1  0
 35 36  1  0
 35 37  1  0
 37 38  1  0
 37 39  1  0
 37 40  1  0
 40 41  1  0
 40 42  1  0
 40 43  1  0
 43 44  1  0
 44 45  2  0
 45 46  1  0
 45 47  1  0
 47 48  1  0
 47 49  2  0
 49 50  1  0
 49 51  1  0
 51 52  1  0
 51 53  2  0
 53 54  1  0
 33  5  2  0
 53 44  1  0
 23  8  1  0
 22 13  1  0
M  CHG  1  53   1
M  END
>  <UniqueID>  (45) 
42

>  <SMILES>  (45) 
Cc1ccc(/C(=N/O)NCCSc2cccc[nH+]2)c(Oc2ccc3ccccc3c2)n1

>  <Energy>  (45) 
65.51669897316769

>  <Genealogy>  (45) 
Cc1ccc(C(=NO)NCCSc2cccc[nH+]2)c(Oc2ccc3ccccc3c2)n1 (protonated)
Cc1ccc(/C(=N/O)NCCSc2cccc[nH+]2)c(Oc2ccc3ccccc3c2)n1 (cis-trans isomerization)
Cc1ccc(/C(=N/O)NCCSc2cccc[nH+]2)c(Oc2ccc3ccccc3c2)n1 (3D coordinates assigned)
Cc1ccc(/C(=N/O)NCCSc2cccc[nH+]2)c(Oc2ccc3ccccc3c2)n1 (optimized conformer: 65.51669897316769 kcal/mol)

>  <smiles>  (45) 
Cc1ccc(C(=NO)NCCSc2ccccn2)c(Oc2ccc3ccccc3c2)n1

>  <score_type>  (45) 
oracle

>  <origin>  (45) 
adg

>  <m_score__min__energy>  (45) 
-7.1900000000000004

>  <m_primary>  (45) 
energy

$$$$
45:0
     RDKit          3D

 42 44  0  0  0  0  0  0  0  0999 V2000
   54.7480   26.3010   45.9880 N   0  0  0  0  0  0  0  0  0  0  0  0
   56.2260   25.4250   46.1380 S   0  0  0  0  0  0  0  0  0  0  0  0
   56.0670   24.3900   47.2120 O   0  0  0  0  0  0  0  0  0  0  0  0
   56.5370   24.7410   44.8400 O   0  0  0  0  0  0  0  0  0  0  0  0
   57.5300   26.5370   46.5420 C   0  0  0  0  0  0  0  0  0  0  0  0
   58.6780   26.0540   47.1750 C   0  0  0  0  0  0  0  0  0  0  0  0
   59.7210   26.9260   47.4980 C   0  0  0  0  0  0  0  0  0  0  0  0
   59.6290   28.2840   47.1780 C   0  0  0  0  0  0  0  0  0  0  0  0
   58.4900   28.7800   46.5210 C   0  0  0  0  0  0  0  0  0  0  0  0
   58.3640   30.1670   46.1660 N   0  0  0  0  0  0  0  0  0  0  0  0
   57.3610   30.6920   45.2760 C   0  0  0  0  0  0  0  0  0  0  0  0
   56.7270   29.9310   44.5010 O   0  0  0  0  0  0  0  0  0  0  0  0
   57.0720   32.0950   45.2510 N   0  0  0  0  0  0  0  0  0  0  0  0
   57.9980   33.1410   45.5840 C   0  0  0  0  0  0  0  0  0  0  0  0
   58.3560   34.0540   44.5840 C   0  0  0  0  0  0  0  0  0  0  0  0
   59.2500   35.0910   44.8590 C   0  0  0  0  0  0  0  0  0  0  0  0
   59.7760   35.2360   46.1440 C   0  0  0  0  0  0  0  0  0  0  0  0
   59.4000   34.3560   47.1600 C   0  0  0  0  0  0  0  0  0  0  0  0
   58.4990   33.3070   46.8970 C   0  0  0  0  0  0  0  0  0  0  0  0
   58.0470   32.4340   47.9420 N   0  0  0  0  0  0  0  0  0  0  0  0
   59.0530   31.6540   49.1190 S   0  0  0  0  0  0  0  0  0  0  0  0
   58.8210   32.2760   50.4660 O   0  0  0  0  0  0  0  0  0  0  0  0
   58.7340   30.1840   49.1620 O   0  0  0  0  0  0  0  0  0  0  0  0
   60.7320   31.8800   48.6720 C   0  0  0  0  0  0  0  0  0  0  0  0
   61.3940   31.2310   47.6410 C   0  0  0  0  0  0  0  0  0  0  0  0
   62.7130   31.6670   47.4810 C   0  0  0  0  0  0  0  0  0  0  0  0
   63.0930   32.6460   48.3910 C   0  0  0  0  0  0  0  0  0  0  0  0
   61.7810   32.9800   49.3880 S   0  0  0  0  0  0  0  0  0  0  0  0
   57.4320   27.9030   46.2320 C   0  0  0  0  0  0  0  0  0  0  0  0
   54.7950   27.0900   46.6720 H   0  0  0  0  0  0  0  0  0  0  0  0
   58.7610   24.9848   47.4197 H   0  0  0  0  0  0  0  0  0  0  0  0
   60.6181   26.5425   48.0061 H   0  0  0  0  0  0  0  0  0  0  0  0
   60.4507   28.9662   47.4413 H   0  0  0  0  0  0  0  0  0  0  0  0
   58.9150   30.8530   46.7310 H   0  0  0  0  0  0  0  0  0  0  0  0
   57.9299   33.9535   43.5749 H   0  0  0  0  0  0  0  0  0  0  0  0
   59.5396   35.7933   44.0634 H   0  0  0  0  0  0  0  0  0  0  0  0
   60.4890   36.0463   46.3564 H   0  0  0  0  0  0  0  0  0  0  0  0
   59.8104   34.4830   48.1727 H   0  0  0  0  0  0  0  0  0  0  0  0
   60.9303   30.4547   47.0147 H   0  0  0  0  0  0  0  0  0  0  0  0
   63.3871   31.2717   46.7068 H   0  0  0  0  0  0  0  0  0  0  0  0
   64.0833   33.1214   48.4492 H   0  0  0  0  0  0  0  0  0  0  0  0
   56.5177   28.2898   45.7582 H   0  0  0  0  0  0  0  0  0  0  0  0
  1  2  1  0
  2  3  2  0
  2  4  2  0
  2  5  1  0
  5  6  2  0
  6  7  1  0
  7  8  2  0
  8  9  1  0
  9 10  1  0
 10 11  1  0
 11 12  2  0
 11 13  1  0
 13 14  1  0
 14 15  2  0
 15 16  1  0
 16 17  2  0
 17 18  1  0
 18 19  2  0
 19 20  1  0
 20 21  1  0
 21 22  2  0
 21 23  2  0
 21 24  1  0
 24 25  2  0
 25 26  1  0
 26 27  2  0
 27 28  1  0
  9 29  2  0
 29  5  1  0
 19 14  1  0
 28 24  1  0
  1 30  1  0
  6 31  1  0
  7 32  1  0
  8 33  1  0
 10 34  1  0
 15 35  1  0
 16 36  1  0
 17 37  1  0
 18 38  1  0
 25 39  1  0
 26 40  1  0
 27 41  1  0
 29 42  1  0
M  CHG  3   1  -1  13  -1  20  -1
M  END
>  <UniqueID>  (46) 
43

>  <SMILES>  (46) 
[NH-]S(=O)(=O)c1cccc(NC(=O)[N-]c2ccccc2[N-]S(=O)(=O)c2cccs2)c1

>  <Energy>  (46) 
78.40832877497132

>  <Genealogy>  (46) 
[NH-]S(=O)(=O)c1cccc(NC(=O)[N-]c2ccccc2[N-]S(=O)(=O)c2cccs2)c1 (protonated)
[NH-]S(=O)(=O)c1cccc(NC(=O)[N-]c2ccccc2[N-]S(=O)(=O)c2cccs2)c1 (3D coordinates assigned)
[NH-]S(=O)(=O)c1cccc(NC(=O)[N-]c2ccccc2[N-]S(=O)(=O)c2cccs2)c1 (optimized conformer: 78.40832877497132 kcal/mol)

>  <smiles>  (46) 
NS(=O)(=O)c1cccc(NC(=O)Nc2ccccc2NS(=O)(=O)c2cccs2)c1

>  <score_type>  (46) 
oracle

>  <origin>  (46) 
adg

>  <m_score__min__energy>  (46) 
-14.44

>  <m_primary>  (46) 
energy

$$$$
46:0
     RDKit          3D

 43 45  0  0  0  0  0  0  0  0999 V2000
   55.5993   28.9620   44.9858 H   0  0  0  0  0  0  0  0  0  0  0  0
   56.6070   29.3280   45.2320 C   0  0  0  0  0  0  0  0  0  0  0  0
   56.9890   30.5760   44.8650 N   0  0  0  0  0  0  0  0  0  0  0  0
   58.2300   31.0570   45.1570 C   0  0  0  0  0  0  0  0  0  0  0  0
   58.5730   32.2600   44.8000 N   0  0  0  0  0  0  0  0  0  0  0  0
   58.1340   33.6900   45.6780 S   0  0  0  0  0  0  0  0  0  0  0  0
   56.6370   33.8220   45.7010 O   0  0  0  0  0  0  0  0  0  0  0  0
   58.7120   34.8930   44.9870 O   0  0  0  0  0  0  0  0  0  0  0  0
   58.7820   33.6040   47.3130 C   0  0  0  0  0  0  0  0  0  0  0  0
   59.6280   34.6100   47.8040 C   0  0  0  0  0  0  0  0  0  0  0  0
   59.9062   35.4564   47.1588 H   0  0  0  0  0  0  0  0  0  0  0  0
   60.1180   34.5390   49.1110 C   0  0  0  0  0  0  0  0  0  0  0  0
   60.7832   35.3280   49.4917 H   0  0  0  0  0  0  0  0  0  0  0  0
   59.7640   33.4670   49.9350 C   0  0  0  0  0  0  0  0  0  0  0  0
   60.2390   33.3990   51.2030 F   0  0  0  0  0  0  0  0  0  0  0  0
   58.9180   32.4630   49.4510 C   0  0  0  0  0  0  0  0  0  0  0  0
   58.6398   31.6189   50.0992 H   0  0  0  0  0  0  0  0  0  0  0  0
   58.4260   32.5320   48.1440 C   0  0  0  0  0  0  0  0  0  0  0  0
   57.7581   31.7436   47.7668 H   0  0  0  0  0  0  0  0  0  0  0  0
   59.1370   30.2370   45.8530 C   0  0  0  0  0  0  0  0  0  0  0  0
   60.3270   30.6920   46.1360 N   0  0  0  0  0  0  0  0  0  0  0  0
   61.0520   30.4860   47.3860 C   0  0  0  0  0  0  0  0  0  0  0  0
   61.5978   29.5320   47.3420 H   0  0  0  0  0  0  0  0  0  0  0  0
   60.3418   30.4594   48.2256 H   0  0  0  0  0  0  0  0  0  0  0  0
   62.0250   31.6130   47.5830 C   0  0  0  0  0  0  0  0  0  0  0  0
   61.9760   32.7430   46.7520 C   0  0  0  0  0  0  0  0  0  0  0  0
   61.2415   32.7913   45.9346 H   0  0  0  0  0  0  0  0  0  0  0  0
   62.8570   33.8060   46.9600 C   0  0  0  0  0  0  0  0  0  0  0  0
   62.8228   34.6846   46.2990 H   0  0  0  0  0  0  0  0  0  0  0  0
   63.7820   33.7560   48.0060 C   0  0  0  0  0  0  0  0  0  0  0  0
   64.4752   34.5958   48.1616 H   0  0  0  0  0  0  0  0  0  0  0  0
   63.8340   32.6470   48.8570 C   0  0  0  0  0  0  0  0  0  0  0  0
   64.7740   32.6500   49.8980 O   0  0  0  0  0  0  0  0  0  0  0  0
   64.9260   31.5980   50.8470 C   0  0  0  0  0  0  0  0  0  0  0  0
   64.8663   32.0109   51.8648 H   0  0  0  0  0  0  0  0  0  0  0  0
   64.1256   30.8571   50.7044 H   0  0  0  0  0  0  0  0  0  0  0  0
   65.9034   31.1139   50.7044 H   0  0  0  0  0  0  0  0  0  0  0  0
   62.9450   31.5730   48.6430 C   0  0  0  0  0  0  0  0  0  0  0  0
   62.9726   30.6990   49.3104 H   0  0  0  0  0  0  0  0  0  0  0  0
   58.7430   28.9760   46.2200 N   0  0  0  0  0  0  0  0  0  0  0  0
   59.3830   28.3350   46.7370 H   0  0  0  0  0  0  0  0  0  0  0  0
   57.5000   28.5130   45.9230 C   0  0  0  0  0  0  0  0  0  0  0  0
   57.2008   27.4991   46.2271 H   0  0  0  0  0  0  0  0  0  0  0  0
  1  2  1  0
  2  3  1  0
  3  4  1  0
  4  5  2  0
  5  6  1  0
  6  7  2  0
  6  8  2  0
  6  9  1  0
  9 10  2  0
 10 11  1  0
 10 12  1  0
 12 13  1  0
 12 14  2  0
 14 15  1  0
 14 16  1  0
 16 17  1  0
 16 18  2  0
 18 19  1  0
  4 20  1  0
 20 21  2  0
 21 22  1  0
 22 23  1  0
 22 24  1  0
 22 25  1  0
 25 26  2  0
 26 27  1  0
 26 28  1  0
 28 29  1  0
 28 30  2  0
 30 31  1  0
 30 32  1  0
 32 33  1  0
 33 34  1  0
 34 35  1  0
 34 36  1  0
 34 37  1  0
 32 38  2  0
 38 39  1  0
 20 40  1  0
 40 41  1  0
 40 42  1  0
 42 43  1  0
 42  2  2  0
 18  9  1  0
 38 25  1  0
M  CHG  1   3  -1
M  END
>  <UniqueID>  (47) 
44

>  <SMILES>  (47) 
COc1cccc(C/N=c2\[nH]cc[n-]c2=NS(=O)(=O)c2ccc(F)cc2)c1

>  <Energy>  (47) 
50.22082903837963

>  <Genealogy>  (47) 
COc1cccc(CN=c2[nH]cc[n-]c2=NS(=O)(=O)c2ccc(F)cc2)c1 (protonated)
COc1cccc(C/N=c2\[nH]cc[n-]c2=NS(=O)(=O)c2ccc(F)cc2)c1 (cis-trans isomerization)
COc1cccc(C/N=c2\[nH]cc[n-]c2=NS(=O)(=O)c2ccc(F)cc2)c1 (3D coordinates assigned)
COc1cccc(C/N=c2\[nH]cc[n-]c2=NS(=O)(=O)c2ccc(F)cc2)c1 (optimized conformer: 50.22082903837963 kcal/mol)

>  <smiles>  (47) 
COc1cccc(CN=c2[nH]cc[nH]c2=NS(=O)(=O)c2ccc(F)cc2)c1

>  <score_type>  (47) 
oracle

>  <origin>  (47) 
adg

>  <m_score__min__energy>  (47) 
-9.5999999999999996

>  <m_primary>  (47) 
energy

$$$$
47:0
     RDKit          3D

 61 64  0  0  0  0  0  0  0  0999 V2000
   62.5550   34.3870   48.4760 O   0  0  0  0  0  0  0  0  0  0  0  0
   61.5550   33.7660   48.0200 C   0  0  0  0  0  0  0  0  0  0  0  0
   61.2820   33.7920   46.6460 O   0  0  0  0  0  0  0  0  0  0  0  0
   60.0120   33.6550   46.0650 C   0  0  0  0  0  0  0  0  0  0  0  0
   59.2900   34.7550   45.5710 C   0  0  0  0  0  0  0  0  0  0  0  0
   58.0250   34.5700   45.0070 C   0  0  0  0  0  0  0  0  0  0  0  0
   57.4780   33.2880   44.9150 C   0  0  0  0  0  0  0  0  0  0  0  0
   58.1990   32.1720   45.3680 C   0  0  0  0  0  0  0  0  0  0  0  0
   57.6070   30.8130   45.2550 C   0  0  0  0  0  0  0  0  0  0  0  0
   56.4100   30.7030   44.8680 O   0  0  0  0  0  0  0  0  0  0  0  0
   58.3550   29.6240   45.6220 N   0  0  0  0  0  0  0  0  0  0  0  0
   59.4670   29.4250   44.6560 C   0  0  0  0  0  0  0  0  0  0  0  0
   60.6210   28.5700   45.2070 C   0  0  0  0  0  0  0  0  0  0  0  0
   60.3280   27.8300   46.5220 C   0  0  0  0  0  0  0  0  0  0  0  0
   59.2680   26.7210   46.3960 C   0  0  0  0  0  0  0  0  0  0  0  0
   58.0240   27.0750   45.5430 C   0  0  0  0  0  0  0  0  0  0  0  0
   57.4180   28.4730   45.7970 C   0  0  0  0  0  0  0  0  0  0  0  0
   59.4690   32.3690   45.9460 C   0  0  0  0  0  0  0  0  0  0  0  0
   60.6330   33.0350   48.9280 C   0  0  0  0  0  0  0  0  0  0  0  0
   59.9420   33.7790   49.8980 C   0  0  0  0  0  0  0  0  0  0  0  0
   59.0570   33.1610   50.7770 C   0  0  0  0  0  0  0  0  0  0  0  0
   58.8440   31.7830   50.7200 C   0  0  0  0  0  0  0  0  0  0  0  0
   57.9750   31.1750   51.6910 N   0  0  0  0  0  0  0  0  0  0  0  0
   56.5820   31.6040   51.8250 C   0  0  0  0  0  0  0  0  0  0  0  0
   55.6950   30.3720   52.0330 C   0  0  0  0  0  0  0  0  0  0  0  0
   56.1780   29.5800   53.1040 O   0  0  0  0  0  0  0  0  0  0  0  0
   57.4520   29.0500   52.7790 C   0  0  0  0  0  0  0  0  0  0  0  0
   58.4870   30.1710   52.6260 C   0  0  0  0  0  0  0  0  0  0  0  0
   59.5250   31.0080   49.7590 C   0  0  0  0  0  0  0  0  0  0  0  0
   59.2850   29.5960   49.6780 N   0  0  0  0  0  0  0  0  0  0  0  0
   59.7880   28.8230   50.5190 O   0  0  0  0  0  0  0  0  0  0  0  0
   58.5650   29.0720   48.6290 O   0  0  0  0  0  0  0  0  0  0  0  0
   60.4220   31.6310   48.8610 C   0  0  0  0  0  0  0  0  0  0  0  0
   61.2590   30.6290   47.6670 Cl  0  0  0  0  0  0  0  0  0  0  0  0
   59.7222   35.7649   45.6285 H   0  0  0  0  0  0  0  0  0  0  0  0
   57.4585   35.4362   44.6345 H   0  0  0  0  0  0  0  0  0  0  0  0
   56.4749   33.1520   44.4844 H   0  0  0  0  0  0  0  0  0  0  0  0
   58.8140   29.8070   46.5460 H   0  0  0  0  0  0  0  0  0  0  0  0
   59.0643   28.9288   43.7607 H   0  0  0  0  0  0  0  0  0  0  0  0
   59.8817   30.4195   44.4348 H   0  0  0  0  0  0  0  0  0  0  0  0
   60.8795   27.8190   44.4460 H   0  0  0  0  0  0  0  0  0  0  0  0
   61.4366   29.2730   45.4318 H   0  0  0  0  0  0  0  0  0  0  0  0
   61.2638   27.3746   46.8781 H   0  0  0  0  0  0  0  0  0  0  0  0
   59.9251   28.5759   47.2229 H   0  0  0  0  0  0  0  0  0  0  0  0
   59.7501   25.8425   45.9423 H   0  0  0  0  0  0  0  0  0  0  0  0
   58.8931   26.5471   47.4154 H   0  0  0  0  0  0  0  0  0  0  0  0
   58.3129   27.0186   44.4831 H   0  0  0  0  0  0  0  0  0  0  0  0
   57.2459   26.3524   45.8302 H   0  0  0  0  0  0  0  0  0  0  0  0
   56.5791   28.6102   45.0988 H   0  0  0  0  0  0  0  0  0  0  0  0
   57.1213   28.4846   46.8562 H   0  0  0  0  0  0  0  0  0  0  0  0
   60.0412   31.5022   46.3083 H   0  0  0  0  0  0  0  0  0  0  0  0
   60.1023   34.8652   49.9642 H   0  0  0  0  0  0  0  0  0  0  0  0
   58.5204   33.7647   51.5237 H   0  0  0  0  0  0  0  0  0  0  0  0
   56.4856   32.2773   52.6895 H   0  0  0  0  0  0  0  0  0  0  0  0
   56.2692   32.1360   50.9145 H   0  0  0  0  0  0  0  0  0  0  0  0
   54.6699   30.6998   52.2604 H   0  0  0  0  0  0  0  0  0  0  0  0
   55.7085   29.7682   51.1136 H   0  0  0  0  0  0  0  0  0  0  0  0
   57.7742   28.3691   53.5806 H   0  0  0  0  0  0  0  0  0  0  0  0
   57.3751   28.5094   51.8241 H   0  0  0  0  0  0  0  0  0  0  0  0
   58.6698   30.6390   53.6046 H   0  0  0  0  0  0  0  0  0  0  0  0
   59.4292   29.7539   52.2409 H   0  0  0  0  0  0  0  0  0  0  0  0
  1  2  2  0
  2  3  1  0
  3  4  1  0
  4  5  2  0
  5  6  1  0
  6  7  2  0
  7  8  1  0
  8  9  1  0
  9 10  2  0
  9 11  1  0
 11 12  1  0
 12 13  1  0
 13 14  1  0
 14 15  1  0
 15 16  1  0
 16 17  1  0
  8 18  2  0
  2 19  1  0
 19 20  2  0
 20 21  1  0
 21 22  2  0
 22 23  1  0
 23 24  1  0
 24 25  1  0
 25 26  1  0
 26 27  1  0
 27 28  1  0
 22 29  1  0
 29 30  1  0
 30 31  2  0
 30 32  1  0
 29 33  2  0
 33 34  1  0
 18  4  1  0
 33 19  1  0
 17 11  1  0
 28 23  1  0
  5 35  1  0
  6 36  1  0
  7 37  1  0
 11 38  1  0
 12 39  1  0
 12 40  1  0
 13 41  1  0
 13 42  1  0
 14 43  1  0
 14 44  1  0
 15 45  1  0
 15 46  1  0
 16 47  1  0
 16 48  1  0
 17 49  1  0
 17 50  1  0
 18 51  1  0
 20 52  1  0
 21 53  1  0
 24 54  1  0
 24 55  1  0
 25 56  1  0
 25 57  1  0
 27 58  1  0
 27 59  1  0
 28 60  1  0
 28 61  1  0
M  CHG  3  11   1  30   1  32  -1
M  END
>  <UniqueID>  (48) 
45

>  <SMILES>  (48) 
O=C(Oc1cccc(C(=O)[NH+]2CCCCCC2)c1)c1ccc(N2CCOCC2)c([N+](=O)[O-])c1Cl

>  <Energy>  (48) 
105.12214527470613

>  <Genealogy>  (48) 
O=C(Oc1cccc(C(=O)[NH+]2CCCCCC2)c1)c1ccc(N2CCOCC2)c([N+](=O)[O-])c1Cl (protonated)
O=C(Oc1cccc(C(=O)[NH+]2CCCCCC2)c1)c1ccc(N2CCOCC2)c([N+](=O)[O-])c1Cl (3D coordinates assigned)
O=C(Oc1cccc(C(=O)[NH+]2CCCCCC2)c1)c1ccc(N2CCOCC2)c([N+](=O)[O-])c1Cl (nonaromatic ring conformer: 105.12214527470613 kcal/mol)

>  <smiles>  (48) 
O=C(Oc1cccc(C(=O)N2CCCCCC2)c1)c1ccc(N2CCOCC2)c([N+](=O)[O-])c1Cl

>  <score_type>  (48) 
oracle

>  <origin>  (48) 
adg

>  <m_score__min__energy>  (48) 
-6.9900000000000002

>  <m_primary>  (48) 
energy

$$$$
48:0
     RDKit          3D

 76 80  0  0  0  0  0  0  0  0999 V2000
   52.6170   22.6230   45.4290 N   0  0  0  0  0  0  0  0  0  0  0  0
   54.1500   23.3580   45.1070 S   0  0  0  0  0  0  0  0  0  0  0  0
   54.2810   24.6080   45.9320 O   0  0  0  0  0  0  0  0  0  0  0  0
   54.1990   23.7140   43.6470 O   0  0  0  0  0  0  0  0  0  0  0  0
   55.4700   22.2410   45.4980 C   0  0  0  0  0  0  0  0  0  0  0  0
   55.2090   20.8620   45.5290 C   0  0  0  0  0  0  0  0  0  0  0  0
   56.2330   19.9500   45.7910 C   0  0  0  0  0  0  0  0  0  0  0  0
   57.5320   20.4030   46.0220 C   0  0  0  0  0  0  0  0  0  0  0  0
   57.8070   21.7700   46.0030 C   0  0  0  0  0  0  0  0  0  0  0  0
   56.7850   22.7020   45.7530 C   0  0  0  0  0  0  0  0  0  0  0  0
   57.1250   24.1380   45.7720 C   0  0  0  0  0  0  0  0  0  0  0  0
   56.7620   24.9300   46.8710 C   0  0  0  0  0  0  0  0  0  0  0  0
   57.0710   26.2940   46.8880 C   0  0  0  0  0  0  0  0  0  0  0  0
   57.7270   26.8840   45.7960 C   0  0  0  0  0  0  0  0  0  0  0  0
   58.0850   28.3420   45.8250 C   0  0  0  0  0  0  0  0  0  0  0  0
   57.7210   28.9550   44.5550 N   0  0  0  0  0  0  0  0  0  0  0  0
   56.6720   29.9190   44.4350 C   0  0  0  0  0  0  0  0  0  0  0  0
   55.5220   29.6670   44.8860 O   0  0  0  0  0  0  0  0  0  0  0  0
   56.9570   31.2520   43.8120 C   0  0  0  0  0  0  0  0  0  0  0  0
   57.6380   32.1640   44.7980 C   0  0  0  0  0  0  0  0  0  0  0  0
   57.0450   33.3820   45.1650 C   0  0  0  0  0  0  0  0  0  0  0  0
   57.6700   34.2130   46.0980 C   0  0  0  0  0  0  0  0  0  0  0  0
   58.8770   33.8260   46.6880 C   0  0  0  0  0  0  0  0  0  0  0  0
   59.4610   32.5950   46.3630 C   0  0  0  0  0  0  0  0  0  0  0  0
   60.7000   32.2100   46.9850 N   0  0  0  0  0  0  0  0  0  0  0  0
   61.9100   32.9750   46.8770 C   0  0  0  0  0  0  0  0  0  0  0  0
   62.0350   33.8340   45.9610 O   0  0  0  0  0  0  0  0  0  0  0  0
   63.0520   32.7290   47.8380 C   0  0  0  0  0  0  0  0  0  0  0  0
   62.8160   31.4400   48.6750 C   0  0  0  0  0  0  0  0  0  0  0  0
   62.3850   31.7230   50.1230 C   0  0  0  0  0  0  0  0  0  0  0  0
   61.5710   32.9410   50.1860 N   0  0  0  0  0  0  0  0  0  0  0  0
   60.2020   32.9150   50.6330 C   0  0  0  0  0  0  0  0  0  0  0  0
   59.7320   33.9130   51.2480 O   0  0  0  0  0  0  0  0  0  0  0  0
   59.3240   31.7130   50.3620 C   0  0  0  0  0  0  0  0  0  0  0  0
   57.8220   31.9650   50.5080 C   0  0  0  0  0  0  0  0  0  0  0  0
   57.7740   30.9870   51.6730 C   0  0  0  0  0  0  0  0  0  0  0  0
   59.2690   30.7330   51.5290 C   0  0  0  0  0  0  0  0  0  0  0  0
   62.1510   34.2080   49.7190 C   0  0  0  0  0  0  0  0  0  0  0  0
   63.3050   33.9630   48.7280 C   0  0  0  0  0  0  0  0  0  0  0  0
   58.8450   31.7760   45.3990 C   0  0  0  0  0  0  0  0  0  0  0  0
   58.0900   26.0900   44.6980 C   0  0  0  0  0  0  0  0  0  0  0  0
   57.7830   24.7250   44.6830 C   0  0  0  0  0  0  0  0  0  0  0  0
   51.9080   23.3900   45.4570 H   0  0  0  0  0  0  0  0  0  0  0  0
   54.1879   20.4966   45.3451 H   0  0  0  0  0  0  0  0  0  0  0  0
   56.0151   18.8721   45.8153 H   0  0  0  0  0  0  0  0  0  0  0  0
   58.3392   19.6821   46.2191 H   0  0  0  0  0  0  0  0  0  0  0  0
   58.8331   22.1221   46.1853 H   0  0  0  0  0  0  0  0  0  0  0  0
   56.2326   24.4771   47.7222 H   0  0  0  0  0  0  0  0  0  0  0  0
   56.7990   26.9067   47.7602 H   0  0  0  0  0  0  0  0  0  0  0  0
   57.5394   28.8377   46.6415 H   0  0  0  0  0  0  0  0  0  0  0  0
   59.1672   28.4514   45.9889 H   0  0  0  0  0  0  0  0  0  0  0  0
   57.6113   31.1105   42.9391 H   0  0  0  0  0  0  0  0  0  0  0  0
   56.0054   31.7101   43.5044 H   0  0  0  0  0  0  0  0  0  0  0  0
   56.0864   33.6828   44.7172 H   0  0  0  0  0  0  0  0  0  0  0  0
   57.2109   35.1751   46.3694 H   0  0  0  0  0  0  0  0  0  0  0  0
   59.3706   34.4918   47.4113 H   0  0  0  0  0  0  0  0  0  0  0  0
   60.7400   31.2930   47.4830 H   0  0  0  0  0  0  0  0  0  0  0  0
   63.9654   32.5645   47.2476 H   0  0  0  0  0  0  0  0  0  0  0  0
   62.0292   30.8463   48.1867 H   0  0  0  0  0  0  0  0  0  0  0  0
   63.7746   30.9023   48.7206 H   0  0  0  0  0  0  0  0  0  0  0  0
   61.7955   30.8734   50.4982 H   0  0  0  0  0  0  0  0  0  0  0  0
   63.2838   31.8625   50.7417 H   0  0  0  0  0  0  0  0  0  0  0  0
   59.7347   31.4159   49.3858 H   0  0  0  0  0  0  0  0  0  0  0  0
   57.5640   32.9995   50.7787 H   0  0  0  0  0  0  0  0  0  0  0  0
   57.1492   31.8399   49.6468 H   0  0  0  0  0  0  0  0  0  0  0  0
   57.4874   31.4450   52.6312 H   0  0  0  0  0  0  0  0  0  0  0  0
   57.0649   30.1461   51.6626 H   0  0  0  0  0  0  0  0  0  0  0  0
   59.8629   31.0409   52.4022 H   0  0  0  0  0  0  0  0  0  0  0  0
   59.6506   29.7078   51.4132 H   0  0  0  0  0  0  0  0  0  0  0  0
   61.3685   34.7978   49.2192 H   0  0  0  0  0  0  0  0  0  0  0  0
   62.5496   34.7494   50.5896 H   0  0  0  0  0  0  0  0  0  0  0  0
   63.4141   34.8484   48.0844 H   0  0  0  0  0  0  0  0  0  0  0  0
   64.2194   33.7789   49.3110 H   0  0  0  0  0  0  0  0  0  0  0  0
   59.3140   30.8227   45.1139 H   0  0  0  0  0  0  0  0  0  0  0  0
   58.6180   26.5422   43.8455 H   0  0  0  0  0  0  0  0  0  0  0  0
   58.0591   24.1106   43.8134 H   0  0  0  0  0  0  0  0  0  0  0  0
  1  2  1  0
  2  3  2  0
  2  4  2  0
  2  5  1  0
  5  6  2  0
  6  7  1  0
  7  8  2  0
  8  9  1  0
  9 10  2  0
 10 11  1  0
 11 12  2  0
 12 13  1  0
 13 14  2  0
 14 15  1  0
 15 16  1  0
 16 17  1  0
 17 18  2  0
 17 19  1  0
 19 20  1  0
 20 21  2  0
 21 22  1  0
 22 23  2  0
 23 24  1  0
 24 25  1  0
 25 26  1  0
 26 27  2  0
 26 28  1  0
 28 29  1  0
 29 30  1  0
 30 31  1  0
 31 32  1  0
 32 33  2  0
 32 34  1  0
 34 35  1  0
 35 36  1  0
 36 37  1  0
 31 38  1  0
 38 39  1  0
 24 40  2  0
 14 41  1  0
 41 42  2  0
 10  5  1  0
 42 11  1  0
 40 20  1  0
 39 28  1  0
 37 34  1  0
  1 43  1  0
  6 44  1  0
  7 45  1  0
  8 46  1  0
  9 47  1  0
 12 48  1  0
 13 49  1  0
 15 50  1  0
 15 51  1  0
 19 52  1  0
 19 53  1  0
 21 54  1  0
 22 55  1  0
 23 56  1  0
 25 57  1  0
 28 58  1  0
 29 59  1  0
 29 60  1  0
 30 61  1  0
 30 62  1  0
 34 63  1  0
 35 64  1  0
 35 65  1  0
 36 66  1  0
 36 67  1  0
 37 68  1  0
 37 69  1  0
 38 70  1  0
 38 71  1  0
 39 72  1  0
 39 73  1  0
 40 74  1  0
 41 75  1  0
 42 76  1  0
M  CHG  2   1  -1  16  -1
M  END
>  <UniqueID>  (49) 
46

>  <SMILES>  (49) 
[NH-]S(=O)(=O)c1ccccc1-c1ccc(C[N-]C(=O)Cc2cccc(NC(=O)C3CCN(C(=O)C4CCC4)CC3)c2)cc1

>  <Energy>  (49) 
152.22458725202304

>  <Genealogy>  (49) 
[NH-]S(=O)(=O)c1ccccc1-c1ccc(C[N-]C(=O)Cc2cccc(NC(=O)C3CCN(C(=O)C4CCC4)CC3)c2)cc1 (protonated)
[NH-]S(=O)(=O)c1ccccc1-c1ccc(C[N-]C(=O)Cc2cccc(NC(=O)C3CCN(C(=O)C4CCC4)CC3)c2)cc1 (3D coordinates assigned)
[NH-]S(=O)(=O)c1ccccc1-c1ccc(C[N-]C(=O)Cc2cccc(NC(=O)C3CCN(C(=O)C4CCC4)CC3)c2)cc1 (nonaromatic ring conformer: 152.22458725202304 kcal/mol)

>  <smiles>  (49) 
NS(=O)(=O)c1ccccc1-c1ccc(CNC(=O)Cc2cccc(NC(=O)C3CCN(C(=O)C4CCC4)CC3)c2)cc1

>  <score_type>  (49) 
oracle

>  <origin>  (49) 
adg

>  <m_score__min__energy>  (49) 
-14.91

>  <m_primary>  (49) 
energy

$$$$
49:0
     RDKit          3D

 42 43  0  0  0  0  0  0  0  0999 V2000
   57.1830   27.6780   46.5230 N   0  0  0  0  0  0  0  0  0  0  0  0
   58.9010   27.7250   46.6970 S   0  0  0  0  0  0  0  0  0  0  0  0
   59.5260   27.7680   45.3300 O   0  0  0  0  0  0  0  0  0  0  0  0
   59.3700   26.4920   47.4180 O   0  0  0  0  0  0  0  0  0  0  0  0
   59.3610   29.1510   47.6180 C   0  0  0  0  0  0  0  0  0  0  0  0
   58.8980   29.3120   48.9290 C   0  0  0  0  0  0  0  0  0  0  0  0
   59.2600   30.4420   49.6700 C   0  0  0  0  0  0  0  0  0  0  0  0
   60.0860   31.4250   49.1050 C   0  0  0  0  0  0  0  0  0  0  0  0
   60.4720   32.6500   49.9000 C   0  0  0  0  0  0  0  0  0  0  0  0
   60.7760   33.8060   49.0430 N   0  0  0  0  0  0  0  0  0  0  0  0
   59.5770   34.5490   48.6120 C   0  0  0  0  0  0  0  0  0  0  0  0
   59.2610   34.3070   47.1610 C   0  0  0  0  0  0  0  0  0  0  0  0
   59.9020   34.9400   46.2790 O   0  0  0  0  0  0  0  0  0  0  0  0
   58.2120   33.3990   46.7880 N   0  0  0  0  0  0  0  0  0  0  0  0
   58.0790   32.8030   45.4850 C   0  0  0  0  0  0  0  0  0  0  0  0
   58.5600   33.4950   44.3640 C   0  0  0  0  0  0  0  0  0  0  0  0
   58.4190   32.9550   43.0840 C   0  0  0  0  0  0  0  0  0  0  0  0
   57.7800   31.7240   42.9080 C   0  0  0  0  0  0  0  0  0  0  0  0
   57.2670   31.0360   44.0140 C   0  0  0  0  0  0  0  0  0  0  0  0
   56.4510   29.4910   43.7920 S   0  0  0  0  0  0  0  0  0  0  0  0
   55.1530   29.3450   44.9240 N   0  0  0  0  0  0  0  0  0  0  0  0
   57.4190   28.3650   44.0200 O   0  0  0  0  0  0  0  0  0  0  0  0
   55.9090   29.4110   42.3930 O   0  0  0  0  0  0  0  0  0  0  0  0
   57.4170   31.5750   45.2990 C   0  0  0  0  0  0  0  0  0  0  0  0
   60.5570   31.2570   47.7930 C   0  0  0  0  0  0  0  0  0  0  0  0
   60.2000   30.1230   47.0560 C   0  0  0  0  0  0  0  0  0  0  0  0
   56.8990   28.5610   46.0430 H   0  0  0  0  0  0  0  0  0  0  0  0
   58.2472   28.5474   49.3782 H   0  0  0  0  0  0  0  0  0  0  0  0
   58.8951   30.5603   50.7009 H   0  0  0  0  0  0  0  0  0  0  0  0
   59.6381   32.9149   50.5666 H   0  0  0  0  0  0  0  0  0  0  0  0
   61.3824   32.4065   50.4674 H   0  0  0  0  0  0  0  0  0  0  0  0
   61.3600   33.5110   48.2250 H   0  0  0  0  0  0  0  0  0  0  0  0
   58.7201   34.2264   49.2216 H   0  0  0  0  0  0  0  0  0  0  0  0
   59.7745   35.6230   48.7443 H   0  0  0  0  0  0  0  0  0  0  0  0
   57.4820   33.1810   47.5030 H   0  0  0  0  0  0  0  0  0  0  0  0
   59.0519   34.4702   44.4940 H   0  0  0  0  0  0  0  0  0  0  0  0
   58.8115   33.4993   42.2124 H   0  0  0  0  0  0  0  0  0  0  0  0
   57.6803   31.2957   41.8997 H   0  0  0  0  0  0  0  0  0  0  0  0
   55.4160   28.5880   45.5950 H   0  0  0  0  0  0  0  0  0  0  0  0
   57.0145   31.0344   46.1683 H   0  0  0  0  0  0  0  0  0  0  0  0
   61.2092   32.0200   47.3430 H   0  0  0  0  0  0  0  0  0  0  0  0
   60.5791   29.9936   46.0315 H   0  0  0  0  0  0  0  0  0  0  0  0
  1  2  1  0
  2  3  2  0
  2  4  2  0
  2  5  1  0
  5  6  2  0
  6  7  1  0
  7  8  2  0
  8  9  1  0
  9 10  1  0
 10 11  1  0
 11 12  1  0
 12 13  2  0
 12 14  1  0
 14 15  1  0
 15 16  2  0
 16 17  1  0
 17 18  2  0
 18 19  1  0
 19 20  1  0
 20 21  1  0
 20 22  2  0
 20 23  2  0
 19 24  2  0
  8 25  1  0
 25 26  2  0
 26  5  1  0
 24 15  1  0
  1 27  1  0
  6 28  1  0
  7 29  1  0
  9 30  1  0
  9 31  1  0
 10 32  1  0
 11 33  1  0
 11 34  1  0
 14 35  1  0
 16 36  1  0
 17 37  1  0
 18 38  1  0
 21 39  1  0
 24 40  1  0
 25 41  1  0
 26 42  1  0
M  CHG  2   1  -1  21  -1
M  END
>  <UniqueID>  (50) 
47

>  <SMILES>  (50) 
[NH-]S(=O)(=O)c1ccc(CNCC(=O)Nc2cccc(S([NH-])(=O)=O)c2)cc1

>  <Energy>  (50) 
39.21456346046549

>  <Genealogy>  (50) 
[NH-]S(=O)(=O)c1ccc(CNCC(=O)Nc2cccc(S([NH-])(=O)=O)c2)cc1 (protonated)
[NH-]S(=O)(=O)c1ccc(CNCC(=O)Nc2cccc(S([NH-])(=O)=O)c2)cc1 (3D coordinates assigned)
[NH-]S(=O)(=O)c1ccc(CNCC(=O)Nc2cccc(S([NH-])(=O)=O)c2)cc1 (optimized conformer: 39.21456346046549 kcal/mol)

>  <smiles>  (50) 
NS(=O)(=O)c1ccc(CNCC(=O)Nc2cccc(S(N)(=O)=O)c2)cc1

>  <score_type>  (50) 
oracle

>  <origin>  (50) 
adg

>  <m_score__min__energy>  (50) 
-13.619999999999999

>  <m_primary>  (50) 
energy

$$$$
50:0
     RDKit          3D

 31 32  0  0  0  0  0  0  0  0999 V2000
   60.0440   25.8890   46.3880 C   0  0  0  0  0  0  0  0  0  0  0  0
   58.5530   26.0220   46.3010 C   0  0  0  0  0  0  0  0  0  0  0  0
   57.7260   24.9300   46.6030 C   0  0  0  0  0  0  0  0  0  0  0  0
   56.3390   25.0450   46.4870 C   0  0  0  0  0  0  0  0  0  0  0  0
   55.7660   26.2420   46.0510 C   0  0  0  0  0  0  0  0  0  0  0  0
   54.3830   26.3390   45.9380 O   0  0  0  0  0  0  0  0  0  0  0  0
   56.5790   27.3380   45.7250 C   0  0  0  0  0  0  0  0  0  0  0  0
   55.9580   28.5470   45.2630 N   0  0  0  0  0  0  0  0  0  0  0  0
   56.4190   29.4330   43.8450 S   0  0  0  0  0  0  0  0  0  0  0  0
   57.3650   28.5970   43.0290 O   0  0  0  0  0  0  0  0  0  0  0  0
   55.1910   29.7240   43.0280 O   0  0  0  0  0  0  0  0  0  0  0  0
   57.2300   30.9270   44.3040 C   0  0  0  0  0  0  0  0  0  0  0  0
   57.4100   31.9450   43.3580 C   0  0  0  0  0  0  0  0  0  0  0  0
   58.0660   33.1270   43.7130 C   0  0  0  0  0  0  0  0  0  0  0  0
   58.5440   33.3040   45.0190 C   0  0  0  0  0  0  0  0  0  0  0  0
   59.2160   34.5130   45.3810 N   0  0  0  0  0  0  0  0  0  0  0  0
   58.3570   32.2880   45.9670 C   0  0  0  0  0  0  0  0  0  0  0  0
   57.7030   31.1050   45.6110 C   0  0  0  0  0  0  0  0  0  0  0  0
   57.9770   27.2200   45.8500 C   0  0  0  0  0  0  0  0  0  0  0  0
   60.3487   25.8618   47.4446 H   0  0  0  0  0  0  0  0  0  0  0  0
   60.3588   24.9592   45.8916 H   0  0  0  0  0  0  0  0  0  0  0  0
   60.5184   26.7484   45.8916 H   0  0  0  0  0  0  0  0  0  0  0  0
   58.1715   23.9797   46.9324 H   0  0  0  0  0  0  0  0  0  0  0  0
   55.6953   24.1896   46.7400 H   0  0  0  0  0  0  0  0  0  0  0  0
   57.0338   31.8134   42.3327 H   0  0  0  0  0  0  0  0  0  0  0  0
   58.2077   33.9211   42.9651 H   0  0  0  0  0  0  0  0  0  0  0  0
   59.5950   35.1550   44.6490 H   0  0  0  0  0  0  0  0  0  0  0  0
   59.3410   34.7760   46.3850 H   0  0  0  0  0  0  0  0  0  0  0  0
   58.7262   32.4223   46.9944 H   0  0  0  0  0  0  0  0  0  0  0  0
   57.5592   30.3114   46.3590 H   0  0  0  0  0  0  0  0  0  0  0  0
   58.6221   28.0729   45.5923 H   0  0  0  0  0  0  0  0  0  0  0  0
  1  2  1  0
  2  3  2  0
  3  4  1  0
  4  5  2  0
  5  6  1  0
  5  7  1  0
  7  8  1  0
  8  9  1  0
  9 10  2  0
  9 11  2  0
  9 12  1  0
 12 13  2  0
 13 14  1  0
 14 15  2  0
 15 16  1  0
 15 17  1  0
 17 18  2  0
  7 19  2  0
 19  2  1  0
 18 12  1  0
  1 20  1  0
  1 21  1  0
  1 22  1  0
  3 23  1  0
  4 24  1  0
 13 25  1  0
 14 26  1  0
 16 27  1  0
 16 28  1  0
 17 29  1  0
 18 30  1  0
 19 31  1  0
M  CHG  2   6  -1   8  -1
M  END
>  <UniqueID>  (51) 
48

>  <SMILES>  (51) 
Cc1ccc([O-])c([N-]S(=O)(=O)c2ccc(N)cc2)c1

>  <Energy>  (51) 
32.94792015326347

>  <Genealogy>  (51) 
Cc1ccc([O-])c([N-]S(=O)(=O)c2ccc(N)cc2)c1 (protonated)
Cc1ccc([O-])c([N-]S(=O)(=O)c2ccc(N)cc2)c1 (3D coordinates assigned)
Cc1ccc([O-])c([N-]S(=O)(=O)c2ccc(N)cc2)c1 (optimized conformer: 32.94792015326347 kcal/mol)

>  <smiles>  (51) 
Cc1ccc(O)c(NS(=O)(=O)c2ccc(N)cc2)c1

>  <score_type>  (51) 
oracle

>  <origin>  (51) 
adg

>  <m_score__min__energy>  (51) 
-12.630000000000001

>  <m_primary>  (51) 
energy

$$$$
51:0
     RDKit          3D

 36 37  0  0  0  0  0  0  0  0999 V2000
   58.4440   33.4390   44.1330 C   0  0  0  0  0  0  0  0  0  0  0  0
   57.2760   32.8990   44.9020 C   0  0  0  0  0  0  0  0  0  0  0  0
   56.6270   33.6750   45.6510 O   0  0  0  0  0  0  0  0  0  0  0  0
   56.8900   31.5200   44.8290 N   0  0  0  0  0  0  0  0  0  0  0  0
   57.4300   30.4650   45.6350 C   0  0  0  0  0  0  0  0  0  0  0  0
   58.4970   30.7560   46.4890 C   0  0  0  0  0  0  0  0  0  0  0  0
   59.0740   29.7560   47.2840 C   0  0  0  0  0  0  0  0  0  0  0  0
   60.2290   30.0690   48.1640 C   0  0  0  0  0  0  0  0  0  0  0  0
   60.5000   29.2780   49.2950 C   0  0  0  0  0  0  0  0  0  0  0  0
   61.5840   29.5780   50.1250 C   0  0  0  0  0  0  0  0  0  0  0  0
   62.4090   30.6660   49.8360 C   0  0  0  0  0  0  0  0  0  0  0  0
   62.1590   31.4600   48.7090 C   0  0  0  0  0  0  0  0  0  0  0  0
   63.1930   32.8370   48.3480 S   0  0  0  0  0  0  0  0  0  0  0  0
   63.7050   32.7520   46.7010 N   0  0  0  0  0  0  0  0  0  0  0  0
   62.4380   34.1180   48.5730 O   0  0  0  0  0  0  0  0  0  0  0  0
   64.3940   32.8200   49.2510 O   0  0  0  0  0  0  0  0  0  0  0  0
   61.0670   31.1640   47.8810 C   0  0  0  0  0  0  0  0  0  0  0  0
   58.5400   28.4590   47.2420 C   0  0  0  0  0  0  0  0  0  0  0  0
   57.4310   28.1560   46.4330 C   0  0  0  0  0  0  0  0  0  0  0  0
   56.8600   26.7930   46.5090 C   0  0  0  0  0  0  0  0  0  0  0  0
   55.5210   26.5550   46.0780 N   0  0  0  0  0  0  0  0  0  0  0  0
   57.5640   25.8250   46.9020 O   0  0  0  0  0  0  0  0  0  0  0  0
   56.8790   29.1690   45.6100 C   0  0  0  0  0  0  0  0  0  0  0  0
   55.7980   28.9220   44.7590 O   0  0  0  0  0  0  0  0  0  0  0  0
   59.2126   33.7943   44.8351 H   0  0  0  0  0  0  0  0  0  0  0  0
   58.8651   32.6442   43.4998 H   0  0  0  0  0  0  0  0  0  0  0  0
   58.1113   34.2747   43.4998 H   0  0  0  0  0  0  0  0  0  0  0  0
   58.8891   31.7826   46.5380 H   0  0  0  0  0  0  0  0  0  0  0  0
   59.8549   28.4180   49.5278 H   0  0  0  0  0  0  0  0  0  0  0  0
   61.7874   28.9549   51.0084 H   0  0  0  0  0  0  0  0  0  0  0  0
   63.2579   30.9008   50.4949 H   0  0  0  0  0  0  0  0  0  0  0  0
   64.7490   32.7310   46.7050 H   0  0  0  0  0  0  0  0  0  0  0  0
   60.8632   31.7933   47.0021 H   0  0  0  0  0  0  0  0  0  0  0  0
   58.9969   27.6661   47.8524 H   0  0  0  0  0  0  0  0  0  0  0  0
   55.1450   27.0110   45.2180 H   0  0  0  0  0  0  0  0  0  0  0  0
   55.1430   28.1630   44.8900 H   0  0  0  0  0  0  0  0  0  0  0  0
  1  2  1  0
  2  3  2  0
  2  4  1  0
  4  5  1  0
  5  6  2  0
  6  7  1  0
  7  8  1  0
  8  9  2  0
  9 10  1  0
 10 11  2  0
 11 12  1  0
 12 13  1  0
 13 14  1  0
 13 15  2  0
 13 16  2  0
 12 17  2  0
  7 18  2  0
 18 19  1  0
 19 20  1  0
 20 21  1  0
 20 22  2  0
 19 23  2  0
 23 24  1  0
 23  5  1  0
 17  8  1  0
  1 25  1  0
  1 26  1  0
  1 27  1  0
  6 28  1  0
  9 29  1  0
 10 30  1  0
 11 31  1  0
 14 32  1  0
 17 33  1  0
 18 34  1  0
 21 35  1  0
 24 36  1  0
M  CHG  3   4  -1  14  -1  21  -1
M  END
>  <UniqueID>  (52) 
49

>  <SMILES>  (52) 
CC(=O)[N-]c1cc(-c2cccc(S([NH-])(=O)=O)c2)cc(C([NH-])=O)c1O

>  <Energy>  (52) 
52.163362540371445

>  <Genealogy>  (52) 
CC(=O)[N-]c1cc(-c2cccc(S([NH-])(=O)=O)c2)cc(C([NH-])=O)c1O (protonated)
CC(=O)[N-]c1cc(-c2cccc(S([NH-])(=O)=O)c2)cc(C([NH-])=O)c1O (3D coordinates assigned)
CC(=O)[N-]c1cc(-c2cccc(S([NH-])(=O)=O)c2)cc(C([NH-])=O)c1O (optimized conformer: 52.163362540371445 kcal/mol)

>  <smiles>  (52) 
CC(=O)Nc1cc(-c2cccc(S(N)(=O)=O)c2)cc(C(N)=O)c1O

>  <score_type>  (52) 
oracle

>  <origin>  (52) 
adg

>  <m_score__min__energy>  (52) 
-12.68

>  <m_primary>  (52) 
energy

$$$$
52:0
     RDKit          3D

 75 79  0  0  0  0  0  0  0  0999 V2000
   59.5740   25.4961   48.0240 H   0  0  0  0  0  0  0  0  0  0  0  0
   59.1800   26.0680   47.1710 C   0  0  0  0  0  0  0  0  0  0  0  0
   57.8080   26.0720   46.9070 C   0  0  0  0  0  0  0  0  0  0  0  0
   57.1229   25.5054   47.5548 H   0  0  0  0  0  0  0  0  0  0  0  0
   57.3040   26.7940   45.8220 C   0  0  0  0  0  0  0  0  0  0  0  0
   56.2242   26.7861   45.6123 H   0  0  0  0  0  0  0  0  0  0  0  0
   58.1720   27.5300   44.9980 C   0  0  0  0  0  0  0  0  0  0  0  0
   57.6380   28.2750   43.7990 C   0  0  0  0  0  0  0  0  0  0  0  0
   57.0446   27.5765   43.1908 H   0  0  0  0  0  0  0  0  0  0  0  0
   58.5055   28.6712   43.2509 H   0  0  0  0  0  0  0  0  0  0  0  0
   56.7840   29.4280   44.1550 N   0  0  0  0  0  0  0  0  0  0  0  0
   57.3430   30.4420   45.0150 C   0  0  0  0  0  0  0  0  0  0  0  0
   57.2580   31.7540   44.6720 N   0  0  0  0  0  0  0  0  0  0  0  0
   57.7630   32.7140   45.4870 C   0  0  0  0  0  0  0  0  0  0  0  0
   57.6820   33.9590   45.1270 N   0  0  0  0  0  0  0  0  0  0  0  0
   58.8260   34.8600   45.0140 C   0  0  0  0  0  0  0  0  0  0  0  0
   58.4750   35.9025   45.0094 H   0  0  0  0  0  0  0  0  0  0  0  0
   59.3675   34.6566   44.0784 H   0  0  0  0  0  0  0  0  0  0  0  0
   59.7390   34.6420   46.1850 C   0  0  0  0  0  0  0  0  0  0  0  0
   61.0040   34.0620   45.9940 C   0  0  0  0  0  0  0  0  0  0  0  0
   61.3426   33.8090   44.9785 H   0  0  0  0  0  0  0  0  0  0  0  0
   61.8340   33.8050   47.0880 C   0  0  0  0  0  0  0  0  0  0  0  0
   62.8300   33.3662   46.9285 H   0  0  0  0  0  0  0  0  0  0  0  0
   61.4030   34.1040   48.3890 C   0  0  0  0  0  0  0  0  0  0  0  0
   62.3110   33.8460   49.5560 C   0  0  0  0  0  0  0  0  0  0  0  0
   61.7572   34.0034   50.4933 H   0  0  0  0  0  0  0  0  0  0  0  0
   62.6751   32.8088   49.5150 H   0  0  0  0  0  0  0  0  0  0  0  0
   63.1661   34.5367   49.5150 H   0  0  0  0  0  0  0  0  0  0  0  0
   60.1400   34.6870   48.5810 C   0  0  0  0  0  0  0  0  0  0  0  0
   59.8033   34.9425   49.5966 H   0  0  0  0  0  0  0  0  0  0  0  0
   59.3090   34.9440   47.4870 C   0  0  0  0  0  0  0  0  0  0  0  0
   58.3139   35.3847   47.6467 H   0  0  0  0  0  0  0  0  0  0  0  0
   58.3470   32.3590   46.6630 N   0  0  0  0  0  0  0  0  0  0  0  0
   58.4360   31.0520   47.0220 C   0  0  0  0  0  0  0  0  0  0  0  0
   59.0370   30.6750   48.2760 N   0  0  0  0  0  0  0  0  0  0  0  0
   59.3660   29.2640   48.5390 C   0  0  0  0  0  0  0  0  0  0  0  0
   58.6470   28.6205   48.0108 H   0  0  0  0  0  0  0  0  0  0  0  0
   60.3874   29.0653   48.1824 H   0  0  0  0  0  0  0  0  0  0  0  0
   59.3000   28.9670   50.0380 C   0  0  0  0  0  0  0  0  0  0  0  0
   58.2696   29.1307   50.3866 H   0  0  0  0  0  0  0  0  0  0  0  0
   59.6127   27.9234   50.1898 H   0  0  0  0  0  0  0  0  0  0  0  0
   60.2500   29.8700   50.8530 C   0  0  0  0  0  0  0  0  0  0  0  0
   61.2407   29.3922   50.8375 H   0  0  0  0  0  0  0  0  0  0  0  0
   59.6840   29.9930   52.5530 S   0  0  0  0  0  0  0  0  0  0  0  0
   60.4330   31.0920   53.2520 O   0  0  0  0  0  0  0  0  0  0  0  0
   59.9720   28.7040   53.2670 O   0  0  0  0  0  0  0  0  0  0  0  0
   57.9270   30.2550   52.5600 C   0  0  0  0  0  0  0  0  0  0  0  0
   57.1230   29.1300   52.8050 C   0  0  0  0  0  0  0  0  0  0  0  0
   57.5968   28.1577   53.0051 H   0  0  0  0  0  0  0  0  0  0  0  0
   55.7310   29.2290   52.7980 C   0  0  0  0  0  0  0  0  0  0  0  0
   55.1157   28.3358   52.9814 H   0  0  0  0  0  0  0  0  0  0  0  0
   55.1200   30.4580   52.5590 C   0  0  0  0  0  0  0  0  0  0  0  0
   54.0228   30.5359   52.5617 H   0  0  0  0  0  0  0  0  0  0  0  0
   55.8990   31.5910   52.3160 C   0  0  0  0  0  0  0  0  0  0  0  0
   55.4095   32.5595   52.1359 H   0  0  0  0  0  0  0  0  0  0  0  0
   57.3050   31.5070   52.2990 C   0  0  0  0  0  0  0  0  0  0  0  0
   58.0900   32.7610   52.0200 C   0  0  0  0  0  0  0  0  0  0  0  0
   58.3832   33.2293   52.9712 H   0  0  0  0  0  0  0  0  0  0  0  0
   58.9915   32.5084   51.4425 H   0  0  0  0  0  0  0  0  0  0  0  0
   57.4689   33.4615   51.4425 H   0  0  0  0  0  0  0  0  0  0  0  0
   60.4430   31.2730   50.2240 C   0  0  0  0  0  0  0  0  0  0  0  0
   60.5376   32.0106   51.0346 H   0  0  0  0  0  0  0  0  0  0  0  0
   61.3471   31.2319   49.5988 H   0  0  0  0  0  0  0  0  0  0  0  0
   59.2770   31.6890   49.3180 C   0  0  0  0  0  0  0  0  0  0  0  0
   58.3685   31.8014   49.9280 H   0  0  0  0  0  0  0  0  0  0  0  0
   59.5313   32.6420   48.8310 H   0  0  0  0  0  0  0  0  0  0  0  0
   57.9350   30.1010   46.1900 N   0  0  0  0  0  0  0  0  0  0  0  0
   55.5260   29.7070   43.4430 C   0  0  0  0  0  0  0  0  0  0  0  0
   54.7230   29.8851   44.1734 H   0  0  0  0  0  0  0  0  0  0  0  0
   55.6520   30.5990   42.8118 H   0  0  0  0  0  0  0  0  0  0  0  0
   55.2630   28.8454   42.8118 H   0  0  0  0  0  0  0  0  0  0  0  0
   59.5530   27.5170   45.2650 C   0  0  0  0  0  0  0  0  0  0  0  0
   60.2419   28.0795   44.6177 H   0  0  0  0  0  0  0  0  0  0  0  0
   60.0530   26.7910   46.3510 C   0  0  0  0  0  0  0  0  0  0  0  0
   61.1329   26.7885   46.5604 H   0  0  0  0  0  0  0  0  0  0  0  0
  1  2  1  0
  2  3  2  0
  3  4  1  0
  3  5  1  0
  5  6  1  0
  5  7  2  0
  7  8  1  0
  8  9  1  0
  8 10  1  0
  8 11  1  0
 11 12  1  0
 12 13  2  0
 13 14  1  0
 14 15  2  0
 15 16  1  0
 16 17  1  0
 16 18  1  0
 16 19  1  0
 19 20  2  0
 20 21  1  0
 20 22  1  0
 22 23  1  0
 22 24  2  0
 24 25  1  0
 25 26  1  0
 25 27  1  0
 25 28  1  0
 24 29  1  0
 29 30  1  0
 29 31  2  0
 31 32  1  0
 14 33  1  0
 33 34  2  0
 34 35  1  0
 35 36  1  0
 36 37  1  0
 36 38  1  0
 36 39  1  0
 39 40  1  0
 39 41  1  0
 39 42  1  0
 42 43  1  0
 42 44  1  0
 44 45  2  0
 44 46  2  0
 44 47  1  0
 47 48  2  0
 48 49  1  0
 48 50  1  0
 50 51  1  0
 50 52  2  0
 52 53  1  0
 52 54  1  0
 54 55  1  0
 54 56  2  0
 56 57  1  0
 57 58  1  0
 57 59  1  0
 57 60  1  0
 42 61  1  0
 61 62  1  0
 61 63  1  0
 61 64  1  0
 64 65  1  0
 64 66  1  0
 34 67  1  0
 11 68  1  0
 68 69  1  0
 68 70  1  0
 68 71  1  0
  7 72  1  0
 72 73  1  0
 72 74  2  0
 74 75  1  0
 74  2  1  0
 67 12  1  0
 31 19  1  0
 64 35  1  0
 56 47  1  0
M  CHG  1  67  -1
M  END
>  <UniqueID>  (53) 
50

>  <SMILES>  (53) 
Cc1ccc(C/N=c2/nc(N(C)Cc3ccccc3)[n-]c(N3CCC(S(=O)(=O)c4ccccc4C)CC3)n2)cc1

>  <Energy>  (53) 
83.22025426709969

>  <Genealogy>  (53) 
Cc1ccc(CN=c2nc(N(C)Cc3ccccc3)[n-]c(N3CCC(S(=O)(=O)c4ccccc4C)CC3)n2)cc1 (protonated)
Cc1ccc(C/N=c2/nc(N(C)Cc3ccccc3)[n-]c(N3CCC(S(=O)(=O)c4ccccc4C)CC3)n2)cc1 (cis-trans isomerization)
Cc1ccc(C/N=c2/nc(N(C)Cc3ccccc3)[n-]c(N3CCC(S(=O)(=O)c4ccccc4C)CC3)n2)cc1 (3D coordinates assigned)
Cc1ccc(C/N=c2/nc(N(C)Cc3ccccc3)[n-]c(N3CCC(S(=O)(=O)c4ccccc4C)CC3)n2)cc1 (nonaromatic ring conformer: 83.22025426709969 kcal/mol)

>  <smiles>  (53) 
Cc1ccc(CN=c2nc(N(C)Cc3ccccc3)[nH]c(N3CCC(S(=O)(=O)c4ccccc4C)CC3)n2)cc1

>  <score_type>  (53) 
oracle

>  <origin>  (53) 
adg

>  <m_score__min__energy>  (53) 
-11.949999999999999

>  <m_primary>  (53) 
energy

$$$$
53:0
     RDKit          3D

 52 54  0  0  0  0  0  0  0  0999 V2000
   58.6040   34.6000   44.8560 C   0  0  0  0  0  0  0  0  0  0  0  0
   58.5570   33.1920   44.6590 O   0  0  0  0  0  0  0  0  0  0  0  0
   57.8630   32.3340   45.5180 C   0  0  0  0  0  0  0  0  0  0  0  0
   57.0470   31.4840   45.0620 O   0  0  0  0  0  0  0  0  0  0  0  0
   58.1360   32.3880   46.9860 C   0  0  0  0  0  0  0  0  0  0  0  0
   59.6140   32.5430   47.2310 C   0  0  0  0  0  0  0  0  0  0  0  0
   60.1080   33.7560   47.7370 C   0  0  0  0  0  0  0  0  0  0  0  0
   61.4740   33.9240   47.9660 C   0  0  0  0  0  0  0  0  0  0  0  0
   62.3690   32.8870   47.6960 C   0  0  0  0  0  0  0  0  0  0  0  0
   63.7340   33.0930   47.9420 O   0  0  0  0  0  0  0  0  0  0  0  0
   64.4250   32.6140   49.0630 C   0  0  0  0  0  0  0  0  0  0  0  0
   63.8420   31.6250   49.8540 C   0  0  0  0  0  0  0  0  0  0  0  0
   64.5320   31.1360   50.9640 C   0  0  0  0  0  0  0  0  0  0  0  0
   65.8140   31.6210   51.2730 C   0  0  0  0  0  0  0  0  0  0  0  0
   66.5440   31.1060   52.4560 C   0  0  0  0  0  0  0  0  0  0  0  0
   65.9040   30.9650   53.7260 N   0  0  0  0  0  0  0  0  0  0  0  0
   67.7630   30.7980   52.3510 O   0  0  0  0  0  0  0  0  0  0  0  0
   66.3630   32.6160   50.4460 C   0  0  0  0  0  0  0  0  0  0  0  0
   65.6660   33.0790   49.3730 N   0  0  0  0  0  0  0  0  0  0  0  0
   61.8880   31.6840   47.1490 C   0  0  0  0  0  0  0  0  0  0  0  0
   60.5110   31.5020   46.9170 C   0  0  0  0  0  0  0  0  0  0  0  0
   60.0000   30.3120   46.3710 O   0  0  0  0  0  0  0  0  0  0  0  0
   60.7010   29.4250   45.4960 C   0  0  0  0  0  0  0  0  0  0  0  0
   60.4850   27.9610   45.8960 C   0  0  0  0  0  0  0  0  0  0  0  0
   59.0200   27.6050   45.8770 C   0  0  0  0  0  0  0  0  0  0  0  0
   58.5550   26.4720   46.5670 C   0  0  0  0  0  0  0  0  0  0  0  0
   57.1880   26.1760   46.5920 C   0  0  0  0  0  0  0  0  0  0  0  0
   56.2770   27.0070   45.9330 C   0  0  0  0  0  0  0  0  0  0  0  0
   54.9200   26.7110   45.9580 O   0  0  0  0  0  0  0  0  0  0  0  0
   56.7330   28.1390   45.2490 C   0  0  0  0  0  0  0  0  0  0  0  0
   58.0980   28.4410   45.2250 C   0  0  0  0  0  0  0  0  0  0  0  0
   58.6113   34.8194   45.9339 H   0  0  0  0  0  0  0  0  0  0  0  0
   59.5162   35.0047   44.3932 H   0  0  0  0  0  0  0  0  0  0  0  0
   57.7209   35.0647   44.3932 H   0  0  0  0  0  0  0  0  0  0  0  0
   57.6026   33.2444   47.4242 H   0  0  0  0  0  0  0  0  0  0  0  0
   57.7893   31.4537   47.4518 H   0  0  0  0  0  0  0  0  0  0  0  0
   59.4127   34.5802   47.9545 H   0  0  0  0  0  0  0  0  0  0  0  0
   61.8482   34.8796   48.3618 H   0  0  0  0  0  0  0  0  0  0  0  0
   62.8449   31.2328   49.6048 H   0  0  0  0  0  0  0  0  0  0  0  0
   64.0699   30.3669   51.6003 H   0  0  0  0  0  0  0  0  0  0  0  0
   64.9530   31.3520   53.9080 H   0  0  0  0  0  0  0  0  0  0  0  0
   66.4300   30.5550   54.5290 H   0  0  0  0  0  0  0  0  0  0  0  0
   67.3609   33.0224   50.6672 H   0  0  0  0  0  0  0  0  0  0  0  0
   62.5938   30.8779   46.9001 H   0  0  0  0  0  0  0  0  0  0  0  0
   60.3367   29.5731   44.4687 H   0  0  0  0  0  0  0  0  0  0  0  0
   61.7760   29.6483   45.5640 H   0  0  0  0  0  0  0  0  0  0  0  0
   61.0219   27.3120   45.1885 H   0  0  0  0  0  0  0  0  0  0  0  0
   60.8668   27.8173   46.9175 H   0  0  0  0  0  0  0  0  0  0  0  0
   59.2679   25.8165   47.0886 H   0  0  0  0  0  0  0  0  0  0  0  0
   56.8289   25.2872   47.1315 H   0  0  0  0  0  0  0  0  0  0  0  0
   56.0167   28.7924   44.7294 H   0  0  0  0  0  0  0  0  0  0  0  0
   58.4515   29.3368   44.6935 H   0  0  0  0  0  0  0  0  0  0  0  0
  1  2  1  0
  2  3  1  0
  3  4  2  0
  3  5  1  0
  5  6  1  0
  6  7  2  0
  7  8  1  0
  8  9  2  0
  9 10  1  0
 10 11  1  0
 11 12  2  0
 12 13  1  0
 13 14  2  0
 14 15  1  0
 15 16  1  0
 15 17  2  0
 14 18  1  0
 18 19  2  0
  9 20  1  0
 20 21  2  0
 21 22  1  0
 22 23  1  0
 23 24  1  0
 24 25  1  0
 25 26  2  0
 26 27  1  0
 27 28  2  0
 28 29  1  0
 28 30  1  0
 30 31  2  0
 21  6  1  0
 31 25  1  0
 19 11  1  0
  1 32  1  0
  1 33  1  0
  1 34  1  0
  5 35  1  0
  5 36  1  0
  7 37  1  0
  8 38  1  0
 12 39  1  0
 13 40  1  0
 16 41  1  0
 16 42  1  0
 18 43  1  0
 20 44  1  0
 23 45  1  0
 23 46  1  0
 24 47  1  0
 24 48  1  0
 26 49  1  0
 27 50  1  0
 30 51  1  0
 31 52  1  0
M  CHG  1  29  -1
M  END
>  <UniqueID>  (54) 
51

>  <SMILES>  (54) 
COC(=O)Cc1ccc(Oc2ccc(C(N)=O)cn2)cc1OCCc1ccc([O-])cc1

>  <Energy>  (54) 
53.492868143356205

>  <Genealogy>  (54) 
COC(=O)Cc1ccc(Oc2ccc(C(N)=O)cn2)cc1OCCc1ccc([O-])cc1 (protonated)
COC(=O)Cc1ccc(Oc2ccc(C(N)=O)cn2)cc1OCCc1ccc([O-])cc1 (3D coordinates assigned)
COC(=O)Cc1ccc(Oc2ccc(C(N)=O)cn2)cc1OCCc1ccc([O-])cc1 (optimized conformer: 53.492868143356205 kcal/mol)

>  <smiles>  (54) 
COC(=O)Cc1ccc(Oc2ccc(C(N)=O)cn2)cc1OCCc1ccc(O)cc1

>  <score_type>  (54) 
oracle

>  <origin>  (54) 
adg

>  <m_score__min__energy>  (54) 
-11.49

>  <m_primary>  (54) 
energy

$$$$
54:0
     RDKit          3D

 75 78  0  0  0  0  0  0  0  0999 V2000
   56.5320   29.7640   43.6670 O   0  0  0  0  0  0  0  0  0  0  0  0
   56.9820   30.3540   44.6860 C   0  0  0  0  0  0  0  0  0  0  0  0
   57.7570   29.6030   45.7420 C   0  0  0  0  0  0  0  0  0  0  0  0
   59.0680   30.1930   46.1120 N   0  0  0  0  0  0  0  0  0  0  0  0
   60.2020   29.4100   45.5660 C   0  0  0  0  0  0  0  0  0  0  0  0
   59.7670   28.0080   45.0960 C   0  0  0  0  0  0  0  0  0  0  0  0
   60.0260   26.9020   46.1340 C   0  0  0  0  0  0  0  0  0  0  0  0
   59.4220   27.1750   47.5190 C   0  0  0  0  0  0  0  0  0  0  0  0
   60.2760   26.6890   48.5580 O   0  0  0  0  0  0  0  0  0  0  0  0
   60.7730   27.4120   49.6550 C   0  0  0  0  0  0  0  0  0  0  0  0
   61.1660   26.8050   50.8600 C   0  0  0  0  0  0  0  0  0  0  0  0
   61.6480   27.5810   51.9170 C   0  0  0  0  0  0  0  0  0  0  0  0
   61.7360   28.9680   51.7870 C   0  0  0  0  0  0  0  0  0  0  0  0
   61.3420   29.5830   50.5990 C   0  0  0  0  0  0  0  0  0  0  0  0
   60.8650   28.8080   49.5380 C   0  0  0  0  0  0  0  0  0  0  0  0
   59.2220   30.4490   47.5680 C   0  0  0  0  0  0  0  0  0  0  0  0
   60.0190   31.7060   47.8740 C   0  0  0  0  0  0  0  0  0  0  0  0
   61.1820   32.0020   47.1380 C   0  0  0  0  0  0  0  0  0  0  0  0
   61.9480   33.1290   47.4390 C   0  0  0  0  0  0  0  0  0  0  0  0
   61.5720   33.9700   48.4800 C   0  0  0  0  0  0  0  0  0  0  0  0
   60.4280   33.6920   49.2290 C   0  0  0  0  0  0  0  0  0  0  0  0
   59.6400   32.5590   48.9370 C   0  0  0  0  0  0  0  0  0  0  0  0
   58.4730   32.2620   49.6640 O   0  0  0  0  0  0  0  0  0  0  0  0
   58.4000   32.0240   51.0710 C   0  0  0  0  0  0  0  0  0  0  0  0
   57.7020   30.7340   51.4050 C   0  0  0  0  0  0  0  0  0  0  0  0
   58.1240   29.6650   50.8830 O   0  0  0  0  0  0  0  0  0  0  0  0
   56.6390   30.6720   52.3670 N   0  0  0  0  0  0  0  0  0  0  0  0
   56.7460   29.7480   53.5000 C   0  0  0  0  0  0  0  0  0  0  0  0
   55.6680   28.6460   53.3900 C   0  0  0  0  0  0  0  0  0  0  0  0
   54.7100   28.9000   52.3700 O   0  0  0  0  0  0  0  0  0  0  0  0
   54.2260   30.2250   52.4760 C   0  0  0  0  0  0  0  0  0  0  0  0
   55.3170   31.2150   52.0430 C   0  0  0  0  0  0  0  0  0  0  0  0
   56.6340   31.7210   44.9400 N   0  0  0  0  0  0  0  0  0  0  0  0
   57.5480   32.7910   45.2060 C   0  0  0  0  0  0  0  0  0  0  0  0
   58.4150   33.1920   44.1810 C   0  0  0  0  0  0  0  0  0  0  0  0
   59.3210   34.2370   44.3860 C   0  0  0  0  0  0  0  0  0  0  0  0
   59.3570   34.9020   45.6130 C   0  0  0  0  0  0  0  0  0  0  0  0
   58.4740   34.5330   46.6310 C   0  0  0  0  0  0  0  0  0  0  0  0
   57.5620   33.4870   46.4300 C   0  0  0  0  0  0  0  0  0  0  0  0
   56.6560   33.2180   47.4030 F   0  0  0  0  0  0  0  0  0  0  0  0
   57.1372   29.5579   46.6496 H   0  0  0  0  0  0  0  0  0  0  0  0
   57.9806   28.6169   45.3089 H   0  0  0  0  0  0  0  0  0  0  0  0
   60.6291   29.9540   44.7106 H   0  0  0  0  0  0  0  0  0  0  0  0
   60.9429   29.2828   46.3690 H   0  0  0  0  0  0  0  0  0  0  0  0
   58.6894   28.0336   44.8768 H   0  0  0  0  0  0  0  0  0  0  0  0
   60.3691   27.7644   44.2082 H   0  0  0  0  0  0  0  0  0  0  0  0
   59.5974   25.9641   45.7510 H   0  0  0  0  0  0  0  0  0  0  0  0
   61.1161   26.8517   46.2723 H   0  0  0  0  0  0  0  0  0  0  0  0
   59.2854   28.2593   47.6440 H   0  0  0  0  0  0  0  0  0  0  0  0
   58.4561   26.6532   47.5880 H   0  0  0  0  0  0  0  0  0  0  0  0
   61.0937   25.7131   50.9715 H   0  0  0  0  0  0  0  0  0  0  0  0
   61.9592   27.0974   52.8547 H   0  0  0  0  0  0  0  0  0  0  0  0
   62.1160   29.5758   52.6214 H   0  0  0  0  0  0  0  0  0  0  0  0
   61.4065   30.6764   50.4970 H   0  0  0  0  0  0  0  0  0  0  0  0
   60.5585   29.2970   48.6016 H   0  0  0  0  0  0  0  0  0  0  0  0
   58.2212   30.5528   48.0124 H   0  0  0  0  0  0  0  0  0  0  0  0
   59.7765   29.5991   47.9924 H   0  0  0  0  0  0  0  0  0  0  0  0
   61.4902   31.3379   46.3170 H   0  0  0  0  0  0  0  0  0  0  0  0
   62.8508   33.3522   46.8515 H   0  0  0  0  0  0  0  0  0  0  0  0
   62.1783   34.8575   48.7141 H   0  0  0  0  0  0  0  0  0  0  0  0
   60.1386   34.3610   50.0529 H   0  0  0  0  0  0  0  0  0  0  0  0
   59.4223   31.9861   51.4752 H   0  0  0  0  0  0  0  0  0  0  0  0
   57.8169   32.8431   51.5172 H   0  0  0  0  0  0  0  0  0  0  0  0
   57.7430   29.2832   53.4976 H   0  0  0  0  0  0  0  0  0  0  0  0
   56.5958   30.3066   54.4356 H   0  0  0  0  0  0  0  0  0  0  0  0
   56.1662   27.6899   53.1716 H   0  0  0  0  0  0  0  0  0  0  0  0
   55.1273   28.6205   54.3476 H   0  0  0  0  0  0  0  0  0  0  0  0
   53.3459   30.3450   51.8271 H   0  0  0  0  0  0  0  0  0  0  0  0
   53.9473   30.4267   53.5208 H   0  0  0  0  0  0  0  0  0  0  0  0
   55.2474   31.3832   50.9582 H   0  0  0  0  0  0  0  0  0  0  0  0
   55.1753   32.1667   52.5762 H   0  0  0  0  0  0  0  0  0  0  0  0
   58.3826   32.6808   43.2076 H   0  0  0  0  0  0  0  0  0  0  0  0
   60.0065   34.5357   43.5792 H   0  0  0  0  0  0  0  0  0  0  0  0
   60.0793   35.7151   45.7780 H   0  0  0  0  0  0  0  0  0  0  0  0
   58.4943   35.0650   47.5936 H   0  0  0  0  0  0  0  0  0  0  0  0
  1  2  2  0
  2  3  1  0
  3  4  1  0
  4  5  1  0
  5  6  1  0
  6  7  1  0
  7  8  1  0
  8  9  1  0
  9 10  1  0
 10 11  2  0
 11 12  1  0
 12 13  2  0
 13 14  1  0
 14 15  2  0
  4 16  1  0
 16 17  1  0
 17 18  2  0
 18 19  1  0
 19 20  2  0
 20 21  1  0
 21 22  2  0
 22 23  1  0
 23 24  1  0
 24 25  1  0
 25 26  2  0
 25 27  1  0
 27 28  1  0
 28 29  1  0
 29 30  1  0
 30 31  1  0
 31 32  1  0
  2 33  1  0
 33 34  1  0
 34 35  2  0
 35 36  1  0
 36 37  2  0
 37 38  1  0
 38 39  2  0
 39 40  1  0
 15 10  1  0
 22 17  1  0
 32 27  1  0
 39 34  1  0
  3 41  1  0
  3 42  1  0
  5 43  1  0
  5 44  1  0
  6 45  1  0
  6 46  1  0
  7 47  1  0
  7 48  1  0
  8 49  1  0
  8 50  1  0
 11 51  1  0
 12 52  1  0
 13 53  1  0
 14 54  1  0
 15 55  1  0
 16 56  1  0
 16 57  1  0
 18 58  1  0
 19 59  1  0
 20 60  1  0
 21 61  1  0
 24 62  1  0
 24 63  1  0
 28 64  1  0
 28 65  1  0
 29 66  1  0
 29 67  1  0
 31 68  1  0
 31 69  1  0
 32 70  1  0
 32 71  1  0
 35 72  1  0
 36 73  1  0
 37 74  1  0
 38 75  1  0
M  CHG  1  33  -1
M  END
>  <UniqueID>  (55) 
52

>  <SMILES>  (55) 
O=C(CN(CCCCOc1ccccc1)Cc1ccccc1OCC(=O)N1CCOCC1)[N-]c1ccccc1F

>  <Energy>  (55) 
100.65491846093435

>  <Genealogy>  (55) 
O=C(CN(CCCCOc1ccccc1)Cc1ccccc1OCC(=O)N1CCOCC1)[N-]c1ccccc1F (protonated)
O=C(CN(CCCCOc1ccccc1)Cc1ccccc1OCC(=O)N1CCOCC1)[N-]c1ccccc1F (3D coordinates assigned)
O=C(CN(CCCCOc1ccccc1)Cc1ccccc1OCC(=O)N1CCOCC1)[N-]c1ccccc1F (nonaromatic ring conformer: 100.65491846093435 kcal/mol)

>  <smiles>  (55) 
O=C(CN(CCCCOc1ccccc1)Cc1ccccc1OCC(=O)N1CCOCC1)Nc1ccccc1F

>  <score_type>  (55) 
oracle

>  <origin>  (55) 
adg

>  <m_score__min__energy>  (55) 
-11.220000000000001

>  <m_primary>  (55) 
energy

$$$$
55:0
     RDKit          3D

 40 42  0  0  0  0  0  0  0  0999 V2000
   59.5430   33.0350   49.2520 C   0  0  0  0  0  0  0  0  0  0  0  0
   59.6930   31.8010   48.4120 C   0  0  0  0  0  0  0  0  0  0  0  0
   60.6210   31.7640   47.3620 C   0  0  0  0  0  0  0  0  0  0  0  0
   60.7630   30.6110   46.5840 C   0  0  0  0  0  0  0  0  0  0  0  0
   59.9720   29.4760   46.8470 C   0  0  0  0  0  0  0  0  0  0  0  0
   60.0560   28.2960   46.0900 O   0  0  0  0  0  0  0  0  0  0  0  0
   59.7130   28.1610   44.7100 C   0  0  0  0  0  0  0  0  0  0  0  0
   58.5610   27.1690   44.5090 C   0  0  0  0  0  0  0  0  0  0  0  0
   57.9970   26.6590   45.8420 C   0  0  0  0  0  0  0  0  0  0  0  0
   56.5280   26.9730   45.9520 C   0  0  0  0  0  0  0  0  0  0  0  0
   55.7940   26.1790   46.6040 O   0  0  0  0  0  0  0  0  0  0  0  0
   55.9000   28.0600   45.2490 N   0  0  0  0  0  0  0  0  0  0  0  0
   56.4380   29.1750   44.8490 C   0  0  0  0  0  0  0  0  0  0  0  0
   56.4390   29.5320   43.5400 N   0  0  0  0  0  0  0  0  0  0  0  0
   57.0690   30.7150   43.5620 C   0  0  0  0  0  0  0  0  0  0  0  0
   57.3720   31.5410   42.4820 C   0  0  0  0  0  0  0  0  0  0  0  0
   58.0550   32.7430   42.7520 C   0  0  0  0  0  0  0  0  0  0  0  0
   58.3990   33.0870   44.0780 C   0  0  0  0  0  0  0  0  0  0  0  0
   58.0630   32.2320   45.1420 C   0  0  0  0  0  0  0  0  0  0  0  0
   57.4080   31.0420   44.8380 C   0  0  0  0  0  0  0  0  0  0  0  0
   57.0200   30.0780   45.6810 N   0  0  0  0  0  0  0  0  0  0  0  0
   59.0630   29.5110   47.9110 C   0  0  0  0  0  0  0  0  0  0  0  0
   58.9320   30.6600   48.6970 C   0  0  0  0  0  0  0  0  0  0  0  0
   59.5764   32.7602   50.3166 H   0  0  0  0  0  0  0  0  0  0  0  0
   60.3629   33.7332   49.0276 H   0  0  0  0  0  0  0  0  0  0  0  0
   58.5797   33.5164   49.0276 H   0  0  0  0  0  0  0  0  0  0  0  0
   61.2411   32.6472   47.1489 H   0  0  0  0  0  0  0  0  0  0  0  0
   61.4953   30.5904   45.7634 H   0  0  0  0  0  0  0  0  0  0  0  0
   59.4100   29.1438   44.3197 H   0  0  0  0  0  0  0  0  0  0  0  0
   60.5935   27.7792   44.1724 H   0  0  0  0  0  0  0  0  0  0  0  0
   57.7555   27.6695   43.9517 H   0  0  0  0  0  0  0  0  0  0  0  0
   58.9530   26.3036   43.9546 H   0  0  0  0  0  0  0  0  0  0  0  0
   58.1391   25.5698   45.9014 H   0  0  0  0  0  0  0  0  0  0  0  0
   58.5285   27.1581   46.6656 H   0  0  0  0  0  0  0  0  0  0  0  0
   57.0883   31.2647   41.4558 H   0  0  0  0  0  0  0  0  0  0  0  0
   58.3220   33.4177   41.9253 H   0  0  0  0  0  0  0  0  0  0  0  0
   58.9321   34.0280   44.2789 H   0  0  0  0  0  0  0  0  0  0  0  0
   58.3097   32.4948   46.1812 H   0  0  0  0  0  0  0  0  0  0  0  0
   58.4464   28.6269   48.1307 H   0  0  0  0  0  0  0  0  0  0  0  0
   58.2285   30.6679   49.5426 H   0  0  0  0  0  0  0  0  0  0  0  0
  1  2  1  0
  2  3  2  0
  3  4  1  0
  4  5  2  0
  5  6  1  0
  6  7  1  0
  7  8  1  0
  8  9  1  0
  9 10  1  0
 10 11  2  0
 10 12  1  0
 12 13  2  3
 13 14  1  0
 14 15  1  0
 15 16  2  0
 16 17  1  0
 17 18  2  0
 18 19  1  0
 19 20  2  0
 20 21  1  0
  5 22  1  0
 22 23  2  0
 23  2  1  0
 21 13  1  0
 20 15  1  0
  1 24  1  0
  1 25  1  0
  1 26  1  0
  3 27  1  0
  4 28  1  0
  7 29  1  0
  7 30  1  0
  8 31  1  0
  8 32  1  0
  9 33  1  0
  9 34  1  0
 16 35  1  0
 17 36  1  0
 18 37  1  0
 19 38  1  0
 22 39  1  0
 23 40  1  0
M  CHG  2  14  -1  21  -1
M  END
>  <UniqueID>  (56) 
53

>  <SMILES>  (56) 
Cc1ccc(OCCCC(=O)N=c2[n-]c3ccccc3[n-]2)cc1

>  <Energy>  (56) 
73.06486714791822

>  <Genealogy>  (56) 
Cc1ccc(OCCCC(=O)N=c2[n-]c3ccccc3[n-]2)cc1 (protonated)
Cc1ccc(OCCCC(=O)N=c2[n-]c3ccccc3[n-]2)cc1 (3D coordinates assigned)
Cc1ccc(OCCCC(=O)N=c2[n-]c3ccccc3[n-]2)cc1 (optimized conformer: 73.06486714791822 kcal/mol)

>  <smiles>  (56) 
Cc1ccc(OCCCC(=O)N=c2[nH]c3ccccc3[nH]2)cc1

>  <score_type>  (56) 
oracle

>  <origin>  (56) 
adg

>  <m_score__min__energy>  (56) 
-11.300000000000001

>  <m_primary>  (56) 
energy

$$$$
56:0
     RDKit          3D

 54 57  0  0  0  0  0  0  0  0999 V2000
   63.7120   32.9750   49.0330 C   0  0  0  0  0  0  0  0  0  0  0  0
   62.7250   33.1760   47.9400 N   0  0  0  0  0  0  0  0  0  0  0  0
   63.3940   33.9910   46.8930 C   0  0  0  0  0  0  0  0  0  0  0  0
   62.3410   31.8600   47.3280 C   0  0  0  0  0  0  0  0  0  0  0  0
   61.3920   30.9740   48.1750 C   0  0  0  0  0  0  0  0  0  0  0  0
   60.8470   29.8580   47.3990 N   0  0  0  0  0  0  0  0  0  0  0  0
   59.5900   29.2590   47.7360 C   0  0  0  0  0  0  0  0  0  0  0  0
   58.8730   29.7520   48.6490 O   0  0  0  0  0  0  0  0  0  0  0  0
   59.1210   28.0730   47.0080 C   0  0  0  0  0  0  0  0  0  0  0  0
   59.3720   26.7870   47.5270 C   0  0  0  0  0  0  0  0  0  0  0  0
   58.9920   25.6320   46.8120 C   0  0  0  0  0  0  0  0  0  0  0  0
   58.3520   25.7420   45.5670 C   0  0  0  0  0  0  0  0  0  0  0  0
   58.0940   27.0180   45.0720 C   0  0  0  0  0  0  0  0  0  0  0  0
   57.4530   27.3170   43.9220 N   0  0  0  0  0  0  0  0  0  0  0  0
   57.3870   28.6640   43.9020 C   0  0  0  0  0  0  0  0  0  0  0  0
   56.7730   29.4530   42.9290 C   0  0  0  0  0  0  0  0  0  0  0  0
   56.7630   30.8450   43.1170 C   0  0  0  0  0  0  0  0  0  0  0  0
   57.3470   31.4160   44.2690 C   0  0  0  0  0  0  0  0  0  0  0  0
   57.9570   30.6020   45.2400 C   0  0  0  0  0  0  0  0  0  0  0  0
   57.9790   29.2220   45.0200 C   0  0  0  0  0  0  0  0  0  0  0  0
   58.4550   28.1570   45.7730 C   0  0  0  0  0  0  0  0  0  0  0  0
   61.5530   33.9280   48.4980 C   0  0  0  0  0  0  0  0  0  0  0  0
   60.3300   33.9770   47.5930 C   0  0  0  0  0  0  0  0  0  0  0  0
   60.3960   34.6510   46.3600 C   0  0  0  0  0  0  0  0  0  0  0  0
   59.2780   34.7120   45.5230 C   0  0  0  0  0  0  0  0  0  0  0  0
   58.0780   34.1140   45.9130 C   0  0  0  0  0  0  0  0  0  0  0  0
   56.9930   34.1780   45.1010 F   0  0  0  0  0  0  0  0  0  0  0  0
   57.9910   33.4650   47.1460 C   0  0  0  0  0  0  0  0  0  0  0  0
   59.1040   33.4010   47.9900 C   0  0  0  0  0  0  0  0  0  0  0  0
   58.9780   32.7970   49.1970 F   0  0  0  0  0  0  0  0  0  0  0  0
   63.2082   33.0776   50.0054 H   0  0  0  0  0  0  0  0  0  0  0  0
   64.1499   31.9692   48.9512 H   0  0  0  0  0  0  0  0  0  0  0  0
   64.5084   33.7294   48.9512 H   0  0  0  0  0  0  0  0  0  0  0  0
   64.0227   34.7569   47.3706 H   0  0  0  0  0  0  0  0  0  0  0  0
   64.0215   33.3398   46.2667 H   0  0  0  0  0  0  0  0  0  0  0  0
   62.6331   34.4796   46.2667 H   0  0  0  0  0  0  0  0  0  0  0  0
   61.8438   32.0661   46.3687 H   0  0  0  0  0  0  0  0  0  0  0  0
   63.2770   31.2899   47.2332 H   0  0  0  0  0  0  0  0  0  0  0  0
   61.9523   30.5711   49.0316 H   0  0  0  0  0  0  0  0  0  0  0  0
   60.5507   31.5991   48.5090 H   0  0  0  0  0  0  0  0  0  0  0  0
   61.3940   29.4460   46.6110 H   0  0  0  0  0  0  0  0  0  0  0  0
   59.8705   26.6826   48.5020 H   0  0  0  0  0  0  0  0  0  0  0  0
   59.1987   24.6371   47.2331 H   0  0  0  0  0  0  0  0  0  0  0  0
   58.0626   24.8457   44.9987 H   0  0  0  0  0  0  0  0  0  0  0  0
   57.0630   26.6510   43.2190 H   0  0  0  0  0  0  0  0  0  0  0  0
   56.3103   28.9984   42.0406 H   0  0  0  0  0  0  0  0  0  0  0  0
   56.2970   31.4948   42.3616 H   0  0  0  0  0  0  0  0  0  0  0  0
   57.3246   32.5070   44.4080 H   0  0  0  0  0  0  0  0  0  0  0  0
   58.4035   31.0384   46.1456 H   0  0  0  0  0  0  0  0  0  0  0  0
   61.2589   33.4488   49.4434 H   0  0  0  0  0  0  0  0  0  0  0  0
   61.8862   34.9691   48.6211 H   0  0  0  0  0  0  0  0  0  0  0  0
   61.3350   35.1340   46.0519 H   0  0  0  0  0  0  0  0  0  0  0  0
   59.3437   35.2318   44.5558 H   0  0  0  0  0  0  0  0  0  0  0  0
   57.0424   33.0018   47.4550 H   0  0  0  0  0  0  0  0  0  0  0  0
  1  2  1  0
  2  3  1  0
  2  4  1  0
  4  5  1  0
  5  6  1  0
  6  7  1  0
  7  8  2  0
  7  9  1  0
  9 10  2  0
 10 11  1  0
 11 12  2  0
 12 13  1  0
 13 14  1  0
 14 15  1  0
 15 16  2  0
 16 17  1  0
 17 18  2  0
 18 19  1  0
 19 20  2  0
 20 21  1  0
  2 22  1  0
 22 23  1  0
 23 24  2  0
 24 25  1  0
 25 26  2  0
 26 27  1  0
 26 28  1  0
 28 29  2  0
 29 30  1  0
 21  9  1  0
 29 23  1  0
 21 13  2  0
 20 15  1  0
  1 31  1  0
  1 32  1  0
  1 33  1  0
  3 34  1  0
  3 35  1  0
  3 36  1  0
  4 37  1  0
  4 38  1  0
  5 39  1  0
  5 40  1  0
  6 41  1  0
 10 42  1  0
 11 43  1  0
 12 44  1  0
 14 45  1  0
 16 46  1  0
 17 47  1  0
 18 48  1  0
 19 49  1  0
 22 50  1  0
 22 51  1  0
 24 52  1  0
 25 53  1  0
 28 54  1  0
M  CHG  1   2   1
M  END
>  <UniqueID>  (57) 
54

>  <SMILES>  (57) 
C[N+](C)(CCNC(=O)c1cccc2[nH]c3ccccc3c12)Cc1ccc(F)cc1F

>  <Energy>  (57) 
115.37378399210378

>  <Genealogy>  (57) 
C[N+](C)(CCNC(=O)c1cccc2[nH]c3ccccc3c12)Cc1ccc(F)cc1F (3D coordinates assigned)
C[N+](C)(CCNC(=O)c1cccc2[nH]c3ccccc3c12)Cc1ccc(F)cc1F (optimized conformer: 115.37378399210378 kcal/mol)

>  <smiles>  (57) 
C[N+](C)(CCNC(=O)c1cccc2[nH]c3ccccc3c12)Cc1ccc(F)cc1F

>  <score_type>  (57) 
oracle

>  <origin>  (57) 
adg

>  <m_score__min__energy>  (57) 
-7.5499999999999998

>  <m_primary>  (57) 
energy

$$$$
57:0
     RDKit          3D

 50 52  0  0  0  0  0  0  0  0999 V2000
   59.3020   31.4610   51.6340 C   0  0  0  0  0  0  0  0  0  0  0  0
   59.0380   31.1030   50.2050 C   0  0  0  0  0  0  0  0  0  0  0  0
   58.1630   31.7460   49.5630 O   0  0  0  0  0  0  0  0  0  0  0  0
   59.7040   29.9760   49.6140 N   0  0  0  0  0  0  0  0  0  0  0  0
   59.6730   29.6650   48.2080 C   0  0  0  0  0  0  0  0  0  0  0  0
   60.8150   29.9000   47.4270 C   0  0  0  0  0  0  0  0  0  0  0  0
   60.7970   29.6510   46.0510 C   0  0  0  0  0  0  0  0  0  0  0  0
   59.6310   29.1860   45.4370 C   0  0  0  0  0  0  0  0  0  0  0  0
   58.4740   28.9600   46.2020 C   0  0  0  0  0  0  0  0  0  0  0  0
   57.2650   28.4810   45.5950 N   0  0  0  0  0  0  0  0  0  0  0  0
   56.3730   29.2810   44.8080 C   0  0  0  0  0  0  0  0  0  0  0  0
   55.1430   29.0120   44.8230 O   0  0  0  0  0  0  0  0  0  0  0  0
   56.8580   30.4410   44.0240 C   0  0  0  0  0  0  0  0  0  0  0  0
   56.7520   30.4500   42.6230 C   0  0  0  0  0  0  0  0  0  0  0  0
   57.2080   31.5480   41.8880 C   0  0  0  0  0  0  0  0  0  0  0  0
   57.7710   32.6460   42.5420 C   0  0  0  0  0  0  0  0  0  0  0  0
   57.8750   32.6550   43.9380 C   0  0  0  0  0  0  0  0  0  0  0  0
   58.6040   34.0250   44.7730 S   0  0  0  0  0  0  0  0  0  0  0  0
   57.7770   35.2560   44.5270 O   0  0  0  0  0  0  0  0  0  0  0  0
   59.9930   34.2680   44.2480 O   0  0  0  0  0  0  0  0  0  0  0  0
   58.6930   33.6950   46.4840 N   0  0  0  0  0  0  0  0  0  0  0  0
   57.4490   33.4670   47.2240 C   0  0  0  0  0  0  0  0  0  0  0  0
   59.9700   33.5970   47.1570 C   0  0  0  0  0  0  0  0  0  0  0  0
   61.1010   33.0830   46.4910 C   0  0  0  0  0  0  0  0  0  0  0  0
   62.3240   32.9600   47.1540 C   0  0  0  0  0  0  0  0  0  0  0  0
   62.4370   33.3440   48.4930 C   0  0  0  0  0  0  0  0  0  0  0  0
   64.1010   33.1470   49.4060 Br  0  0  0  0  0  0  0  0  0  0  0  0
   61.3250   33.8540   49.1690 C   0  0  0  0  0  0  0  0  0  0  0  0
   60.1000   33.9810   48.5060 C   0  0  0  0  0  0  0  0  0  0  0  0
   57.4050   31.5610   44.6740 C   0  0  0  0  0  0  0  0  0  0  0  0
   58.5010   29.1930   47.5840 C   0  0  0  0  0  0  0  0  0  0  0  0
   58.7790   30.7517   52.2923 H   0  0  0  0  0  0  0  0  0  0  0  0
   60.3834   31.4141   51.8300 H   0  0  0  0  0  0  0  0  0  0  0  0
   58.9377   32.4802   51.8300 H   0  0  0  0  0  0  0  0  0  0  0  0
   60.1640   29.2920   50.2560 H   0  0  0  0  0  0  0  0  0  0  0  0
   61.7310   30.2829   47.9006 H   0  0  0  0  0  0  0  0  0  0  0  0
   61.7028   29.8216   45.4506 H   0  0  0  0  0  0  0  0  0  0  0  0
   59.6188   28.9966   44.3535 H   0  0  0  0  0  0  0  0  0  0  0  0
   56.3080   29.5889   42.1021 H   0  0  0  0  0  0  0  0  0  0  0  0
   57.1232   31.5472   40.7913 H   0  0  0  0  0  0  0  0  0  0  0  0
   58.1335   33.5055   41.9590 H   0  0  0  0  0  0  0  0  0  0  0  0
   57.6529   33.5044   48.3043 H   0  0  0  0  0  0  0  0  0  0  0  0
   56.7182   34.2462   46.9616 H   0  0  0  0  0  0  0  0  0  0  0  0
   57.0420   32.4793   46.9616 H   0  0  0  0  0  0  0  0  0  0  0  0
   61.0195   32.7755   45.4380 H   0  0  0  0  0  0  0  0  0  0  0  0
   63.1996   32.5603   46.6215 H   0  0  0  0  0  0  0  0  0  0  0  0
   61.4133   34.1557   50.2231 H   0  0  0  0  0  0  0  0  0  0  0  0
   59.2293   34.3848   49.0435 H   0  0  0  0  0  0  0  0  0  0  0  0
   57.4643   31.5779   45.7723 H   0  0  0  0  0  0  0  0  0  0  0  0
   57.5998   29.0058   48.1864 H   0  0  0  0  0  0  0  0  0  0  0  0
  1  2  1  0
  2  3  2  0
  2  4  1  0
  4  5  1  0
  5  6  2  0
  6  7  1  0
  7  8  2  0
  8  9  1  0
  9 10  1  0
 10 11  1  0
 11 12  2  0
 11 13  1  0
 13 14  2  0
 14 15  1  0
 15 16  2  0
 16 17  1  0
 17 18  1  0
 18 19  2  0
 18 20  2  0
 18 21  1  0
 21 22  1  0
 21 23  1  0
 23 24  2  0
 24 25  1  0
 25 26  2  0
 26 27  1  0
 26 28  1  0
 28 29  2  0
 17 30  2  0
  9 31  2  0
 31  5  1  0
 30 13  1  0
 29 23  1  0
  1 32  1  0
  1 33  1  0
  1 34  1  0
  4 35  1  0
  6 36  1  0
  7 37  1  0
  8 38  1  0
 14 39  1  0
 15 40  1  0
 16 41  1  0
 22 42  1  0
 22 43  1  0
 22 44  1  0
 24 45  1  0
 25 46  1  0
 28 47  1  0
 29 48  1  0
 30 49  1  0
 31 50  1  0
M  CHG  1  10  -1
M  END
>  <UniqueID>  (58) 
55

>  <SMILES>  (58) 
CC(=O)Nc1cccc([N-]C(=O)c2cccc(S(=O)(=O)N(C)c3ccc(Br)cc3)c2)c1

>  <Energy>  (58) 
58.72084685696554

>  <Genealogy>  (58) 
CC(=O)Nc1cccc([N-]C(=O)c2cccc(S(=O)(=O)N(C)c3ccc(Br)cc3)c2)c1 (protonated)
CC(=O)Nc1cccc([N-]C(=O)c2cccc(S(=O)(=O)N(C)c3ccc(Br)cc3)c2)c1 (3D coordinates assigned)
CC(=O)Nc1cccc([N-]C(=O)c2cccc(S(=O)(=O)N(C)c3ccc(Br)cc3)c2)c1 (optimized conformer: 58.72084685696554 kcal/mol)

>  <smiles>  (58) 
CC(=O)Nc1cccc(NC(=O)c2cccc(S(=O)(=O)N(C)c3ccc(Br)cc3)c2)c1

>  <score_type>  (58) 
oracle

>  <origin>  (58) 
adg

>  <m_score__min__energy>  (58) 
-11.59

>  <m_primary>  (58) 
energy

$$$$
58:0
     RDKit          3D

 43 45  0  0  0  0  0  0  0  0999 V2000
   56.6090   34.9830   44.4940 O   0  0  0  0  0  0  0  0  0  0  0  0
   57.6460   34.0520   45.0580 S   0  0  0  0  0  0  0  0  0  0  0  0
   57.1560   33.5200   46.3760 O   0  0  0  0  0  0  0  0  0  0  0  0
   59.1830   34.9290   45.3290 C   0  0  0  0  0  0  0  0  0  0  0  0
   59.9850   34.2690   46.4170 C   0  0  0  0  0  0  0  0  0  0  0  0
   61.2950   33.8280   46.1620 C   0  0  0  0  0  0  0  0  0  0  0  0
   62.0660   33.2730   47.1890 C   0  0  0  0  0  0  0  0  0  0  0  0
   61.5420   33.1670   48.4800 C   0  0  0  0  0  0  0  0  0  0  0  0
   60.2400   33.6050   48.7450 C   0  0  0  0  0  0  0  0  0  0  0  0
   59.5970   33.5070   50.3740 Cl  0  0  0  0  0  0  0  0  0  0  0  0
   59.4580   34.1420   47.7160 C   0  0  0  0  0  0  0  0  0  0  0  0
   57.8870   32.7150   43.9780 N   0  0  0  0  0  0  0  0  0  0  0  0
   57.5840   31.3510   44.2940 C   0  0  0  0  0  0  0  0  0  0  0  0
   58.5720   30.4550   44.7330 C   0  0  0  0  0  0  0  0  0  0  0  0
   58.2240   29.1650   45.1340 C   0  0  0  0  0  0  0  0  0  0  0  0
   56.8810   28.7500   45.1010 C   0  0  0  0  0  0  0  0  0  0  0  0
   56.4760   27.4630   45.5850 N   0  0  0  0  0  0  0  0  0  0  0  0
   57.5450   26.3240   46.3380 S   0  0  0  0  0  0  0  0  0  0  0  0
   58.3330   25.6070   45.2770 O   0  0  0  0  0  0  0  0  0  0  0  0
   56.7380   25.3200   47.1120 O   0  0  0  0  0  0  0  0  0  0  0  0
   58.6130   27.1760   47.4500 C   0  0  0  0  0  0  0  0  0  0  0  0
   58.2200   28.4180   47.9690 C   0  0  0  0  0  0  0  0  0  0  0  0
   59.0870   29.1410   48.7960 C   0  0  0  0  0  0  0  0  0  0  0  0
   60.3530   28.6280   49.1030 C   0  0  0  0  0  0  0  0  0  0  0  0
   61.4480   29.5460   50.1200 Cl  0  0  0  0  0  0  0  0  0  0  0  0
   60.7450   27.3840   48.5950 C   0  0  0  0  0  0  0  0  0  0  0  0
   59.8780   26.6580   47.7710 C   0  0  0  0  0  0  0  0  0  0  0  0
   55.9090   29.6240   44.6020 C   0  0  0  0  0  0  0  0  0  0  0  0
   56.2580   30.9160   44.1990 C   0  0  0  0  0  0  0  0  0  0  0  0
   59.7683   34.9287   44.3977 H   0  0  0  0  0  0  0  0  0  0  0  0
   58.9534   35.9606   45.6341 H   0  0  0  0  0  0  0  0  0  0  0  0
   61.7161   33.9197   45.1499 H   0  0  0  0  0  0  0  0  0  0  0  0
   63.0864   32.9195   46.9799 H   0  0  0  0  0  0  0  0  0  0  0  0
   62.1534   32.7391   49.2882 H   0  0  0  0  0  0  0  0  0  0  0  0
   58.4275   34.4661   47.9232 H   0  0  0  0  0  0  0  0  0  0  0  0
   59.6251   30.7717   44.7608 H   0  0  0  0  0  0  0  0  0  0  0  0
   59.0038   28.4693   45.4776 H   0  0  0  0  0  0  0  0  0  0  0  0
   57.2275   28.8251   47.7254 H   0  0  0  0  0  0  0  0  0  0  0  0
   58.7737   30.1129   49.2051 H   0  0  0  0  0  0  0  0  0  0  0  0
   61.7360   26.9766   48.8439 H   0  0  0  0  0  0  0  0  0  0  0  0
   60.1878   25.6800   47.3741 H   0  0  0  0  0  0  0  0  0  0  0  0
   54.8630   29.2920   44.5264 H   0  0  0  0  0  0  0  0  0  0  0  0
   55.4863   31.5939   43.8053 H   0  0  0  0  0  0  0  0  0  0  0  0
  1  2  2  0
  2  3  2  0
  2  4  1  0
  4  5  1  0
  5  6  2  0
  6  7  1  0
  7  8  2  0
  8  9  1  0
  9 10  1  0
  9 11  2  0
  2 12  1  0
 12 13  1  0
 13 14  2  0
 14 15  1  0
 15 16  2  0
 16 17  1  0
 17 18  1  0
 18 19  2  0
 18 20  2  0
 18 21  1  0
 21 22  2  0
 22 23  1  0
 23 24  2  0
 24 25  1  0
 24 26  1  0
 26 27  2  0
 16 28  1  0
 28 29  2  0
 11  5  1  0
 29 13  1  0
 27 21  1  0
  4 30  1  0
  4 31  1  0
  6 32  1  0
  7 33  1  0
  8 34  1  0
 11 35  1  0
 14 36  1  0
 15 37  1  0
 22 38  1  0
 23 39  1  0
 26 40  1  0
 27 41  1  0
 28 42  1  0
 29 43  1  0
M  CHG  2  12  -1  17  -1
M  END
>  <UniqueID>  (59) 
56

>  <SMILES>  (59) 
O=S(=O)(Cc1cccc(Cl)c1)[N-]c1ccc([N-]S(=O)(=O)c2ccc(Cl)cc2)cc1

>  <Energy>  (59) 
43.876142990024896

>  <Genealogy>  (59) 
O=S(=O)(Cc1cccc(Cl)c1)[N-]c1ccc([N-]S(=O)(=O)c2ccc(Cl)cc2)cc1 (protonated)
O=S(=O)(Cc1cccc(Cl)c1)[N-]c1ccc([N-]S(=O)(=O)c2ccc(Cl)cc2)cc1 (3D coordinates assigned)
O=S(=O)(Cc1cccc(Cl)c1)[N-]c1ccc([N-]S(=O)(=O)c2ccc(Cl)cc2)cc1 (optimized conformer: 43.876142990024896 kcal/mol)

>  <smiles>  (59) 
O=S(=O)(Cc1cccc(Cl)c1)Nc1ccc(NS(=O)(=O)c2ccc(Cl)cc2)cc1

>  <score_type>  (59) 
oracle

>  <origin>  (59) 
adg

>  <m_score__min__energy>  (59) 
-12.49

>  <m_primary>  (59) 
energy

$$$$
59:0
     RDKit          3D

 23 23  0  0  0  0  0  0  0  0999 V2000
   57.4110   33.2680   44.7960 C   0  0  0  0  0  0  0  0  0  0  0  0
   57.4940   31.7640   44.8200 C   0  0  0  0  0  0  0  0  0  0  0  0
   56.3500   31.0210   44.8260 N   0  0  0  0  0  0  0  0  0  0  0  0
   56.3920   29.6770   44.8480 C   0  0  0  0  0  0  0  0  0  0  0  0
   55.1850   28.9890   44.8540 O   0  0  0  0  0  0  0  0  0  0  0  0
   57.6190   29.0260   44.8630 C   0  0  0  0  0  0  0  0  0  0  0  0
   57.6490   27.6050   44.8860 N   0  0  0  0  0  0  0  0  0  0  0  0
   58.0910   26.9060   43.6930 C   0  0  0  0  0  0  0  0  0  0  0  0
   57.2530   26.8340   46.0650 C   0  0  0  0  0  0  0  0  0  0  0  0
   58.7920   29.7900   44.8560 C   0  0  0  0  0  0  0  0  0  0  0  0
   59.9200   29.2120   44.8690 O   0  0  0  0  0  0  0  0  0  0  0  0
   58.7010   31.1520   44.8340 N   0  0  0  0  0  0  0  0  0  0  0  0
   57.3899   33.6506   45.8271 H   0  0  0  0  0  0  0  0  0  0  0  0
   58.2880   33.6753   44.2717 H   0  0  0  0  0  0  0  0  0  0  0  0
   56.4945   33.5763   44.2717 H   0  0  0  0  0  0  0  0  0  0  0  0
   55.1460   28.0010   44.9180 H   0  0  0  0  0  0  0  0  0  0  0  0
   58.6582   26.0091   43.9825 H   0  0  0  0  0  0  0  0  0  0  0  0
   57.2158   26.6096   43.0962 H   0  0  0  0  0  0  0  0  0  0  0  0
   58.7340   27.5696   43.0962 H   0  0  0  0  0  0  0  0  0  0  0  0
   57.5355   27.3841   46.9747 H   0  0  0  0  0  0  0  0  0  0  0  0
   56.1640   26.6795   46.0533 H   0  0  0  0  0  0  0  0  0  0  0  0
   57.7618   25.8588   46.0533 H   0  0  0  0  0  0  0  0  0  0  0  0
   59.5910   31.7210   44.8290 H   0  0  0  0  0  0  0  0  0  0  0  0
  1  2  1  0
  2  3  2  0
  3  4  1  0
  4  5  1  0
  4  6  2  0
  6  7  1  0
  7  8  1  0
  7  9  1  0
  6 10  1  0
 10 11  2  0
 10 12  1  0
 12  2  1  0
  1 13  1  0
  1 14  1  0
  1 15  1  0
  5 16  1  0
  8 17  1  0
  8 18  1  0
  8 19  1  0
  9 20  1  0
  9 21  1  0
  9 22  1  0
 12 23  1  0
M  END
>  <smiles>  (60) 
Cc1nc(O)c(N(C)C)c(=O)[nH]1

>  <score_type>  (60) 
oracle

>  <origin>  (60) 
adg

>  <m_score__min__energy>  (60) 
-5.6200000000000001

>  <m_primary>  (60) 
energy

$$$$
60:0
     RDKit          3D

 52 54  0  0  0  0  0  0  0  0999 V2000
   62.4690   29.6900   51.6870 C   0  0  0  0  0  0  0  0  0  0  0  0
   61.8110   29.9250   50.4470 O   0  0  0  0  0  0  0  0  0  0  0  0
   62.2380   30.8470   49.4780 C   0  0  0  0  0  0  0  0  0  0  0  0
   63.2480   31.7910   49.7470 C   0  0  0  0  0  0  0  0  0  0  0  0
   63.6000   32.7440   48.7870 C   0  0  0  0  0  0  0  0  0  0  0  0
   62.9450   32.7710   47.5550 C   0  0  0  0  0  0  0  0  0  0  0  0
   63.3740   33.9820   46.3600 Cl  0  0  0  0  0  0  0  0  0  0  0  0
   61.9510   31.8320   47.2720 C   0  0  0  0  0  0  0  0  0  0  0  0
   61.6150   30.8490   48.2110 C   0  0  0  0  0  0  0  0  0  0  0  0
   60.5960   29.8990   47.8750 N   0  0  0  0  0  0  0  0  0  0  0  0
   60.3350   29.4200   46.5500 C   0  0  0  0  0  0  0  0  0  0  0  0
   61.1330   29.7030   45.6150 O   0  0  0  0  0  0  0  0  0  0  0  0
   59.1300   28.5970   46.2840 C   0  0  0  0  0  0  0  0  0  0  0  0
   58.7990   27.5670   47.1850 C   0  0  0  0  0  0  0  0  0  0  0  0
   57.7200   26.7170   46.9290 C   0  0  0  0  0  0  0  0  0  0  0  0
   56.9540   26.8850   45.7770 C   0  0  0  0  0  0  0  0  0  0  0  0
   57.2580   27.9100   44.8810 C   0  0  0  0  0  0  0  0  0  0  0  0
   58.3370   28.7730   45.1220 C   0  0  0  0  0  0  0  0  0  0  0  0
   58.5940   29.8410   44.2030 N   0  0  0  0  0  0  0  0  0  0  0  0
   57.6980   31.3200   44.3000 S   0  0  0  0  0  0  0  0  0  0  0  0
   56.2580   31.0020   44.5900 O   0  0  0  0  0  0  0  0  0  0  0  0
   57.7700   32.0570   42.9930 O   0  0  0  0  0  0  0  0  0  0  0  0
   58.3640   32.3130   45.5930 C   0  0  0  0  0  0  0  0  0  0  0  0
   59.0660   33.4880   45.3010 C   0  0  0  0  0  0  0  0  0  0  0  0
   59.5670   34.2830   46.3340 C   0  0  0  0  0  0  0  0  0  0  0  0
   59.3560   33.9210   47.6780 C   0  0  0  0  0  0  0  0  0  0  0  0
   59.8400   34.6970   48.7430 O   0  0  0  0  0  0  0  0  0  0  0  0
   60.7110   34.2150   49.7600 C   0  0  0  0  0  0  0  0  0  0  0  0
   58.6350   32.7540   47.9760 C   0  0  0  0  0  0  0  0  0  0  0  0
   58.4140   32.4300   49.3240 O   0  0  0  0  0  0  0  0  0  0  0  0
   58.7600   31.1840   49.9210 C   0  0  0  0  0  0  0  0  0  0  0  0
   58.1490   31.9490   46.9270 C   0  0  0  0  0  0  0  0  0  0  0  0
   61.7876   29.9333   52.5156 H   0  0  0  0  0  0  0  0  0  0  0  0
   62.7619   28.6317   51.7519 H   0  0  0  0  0  0  0  0  0  0  0  0
   63.3660   30.3233   51.7519 H   0  0  0  0  0  0  0  0  0  0  0  0
   63.7631   31.7782   50.7188 H   0  0  0  0  0  0  0  0  0  0  0  0
   64.3943   33.4737   49.0029 H   0  0  0  0  0  0  0  0  0  0  0  0
   61.4283   31.8647   46.3047 H   0  0  0  0  0  0  0  0  0  0  0  0
   59.3955   27.4302   48.0991 H   0  0  0  0  0  0  0  0  0  0  0  0
   57.4745   25.9131   47.6386 H   0  0  0  0  0  0  0  0  0  0  0  0
   56.1098   26.2095   45.5743 H   0  0  0  0  0  0  0  0  0  0  0  0
   56.6457   28.0427   43.9769 H   0  0  0  0  0  0  0  0  0  0  0  0
   59.1190   29.6430   43.3230 H   0  0  0  0  0  0  0  0  0  0  0  0
   59.2237   33.7864   44.2540 H   0  0  0  0  0  0  0  0  0  0  0  0
   60.1299   35.1976   46.0961 H   0  0  0  0  0  0  0  0  0  0  0  0
   60.2869   34.4497   50.7475 H   0  0  0  0  0  0  0  0  0  0  0  0
   60.8248   33.1255   49.6593 H   0  0  0  0  0  0  0  0  0  0  0  0
   61.6945   34.6972   49.6593 H   0  0  0  0  0  0  0  0  0  0  0  0
   58.7328   31.2821   51.0163 H   0  0  0  0  0  0  0  0  0  0  0  0
   58.0418   30.4135   49.6039 H   0  0  0  0  0  0  0  0  0  0  0  0
   59.7726   30.8941   49.6039 H   0  0  0  0  0  0  0  0  0  0  0  0
   57.5960   31.0267   47.1584 H   0  0  0  0  0  0  0  0  0  0  0  0
  1  2  1  0
  2  3  1  0
  3  4  2  0
  4  5  1  0
  5  6  2  0
  6  7  1  0
  6  8  1  0
  8  9  2  0
  9 10  1  0
 10 11  1  0
 11 12  2  0
 11 13  1  0
 13 14  2  0
 14 15  1  0
 15 16  2  0
 16 17  1  0
 17 18  2  0
 18 19  1  0
 19 20  1  0
 20 21  2  0
 20 22  2  0
 20 23  1  0
 23 24  2  0
 24 25  1  0
 25 26  2  0
 26 27  1  0
 27 28  1  0
 26 29  1  0
 29 30  1  0
 30 31  1  0
 29 32  2  0
  9  3  1  0
 18 13  1  0
 32 23  1  0
  1 33  1  0
  1 34  1  0
  1 35  1  0
  4 36  1  0
  5 37  1  0
  8 38  1  0
 14 39  1  0
 15 40  1  0
 16 41  1  0
 17 42  1  0
 19 43  1  0
 24 44  1  0
 25 45  1  0
 28 46  1  0
 28 47  1  0
 28 48  1  0
 31 49  1  0
 31 50  1  0
 31 51  1  0
 32 52  1  0
M  CHG  1  10  -1
M  END
>  <UniqueID>  (61) 
57

>  <SMILES>  (61) 
COc1ccc(Cl)cc1[N-]C(=O)c1ccccc1NS(=O)(=O)c1ccc(OC)c(OC)c1

>  <Energy>  (61) 
64.18136223183205

>  <Genealogy>  (61) 
COc1ccc(Cl)cc1[N-]C(=O)c1ccccc1NS(=O)(=O)c1ccc(OC)c(OC)c1 (protonated)
COc1ccc(Cl)cc1[N-]C(=O)c1ccccc1NS(=O)(=O)c1ccc(OC)c(OC)c1 (3D coordinates assigned)
COc1ccc(Cl)cc1[N-]C(=O)c1ccccc1NS(=O)(=O)c1ccc(OC)c(OC)c1 (optimized conformer: 64.18136223183205 kcal/mol)

>  <smiles>  (61) 
COc1ccc(Cl)cc1NC(=O)c1ccccc1NS(=O)(=O)c1ccc(OC)c(OC)c1

>  <score_type>  (61) 
oracle

>  <origin>  (61) 
adg

>  <m_score__min__energy>  (61) 
-11.300000000000001

>  <m_primary>  (61) 
energy

$$$$
61:0
     RDKit          3D

 31 32  0  0  0  0  0  0  0  0999 V2000
   55.0070   30.8310   51.9440 C   0  0  0  0  0  0  0  0  0  0  0  0
   56.3780   31.9500   52.3650 S   0  0  0  0  0  0  0  0  0  0  0  0
   57.5370   31.1080   51.2940 C   0  0  0  0  0  0  0  0  0  0  0  0
   57.7410   29.7730   51.3120 N   0  0  0  0  0  0  0  0  0  0  0  0
   58.6330   29.3700   50.4090 N   0  0  0  0  0  0  0  0  0  0  0  0
   59.1480   30.3830   49.6780 C   0  0  0  0  0  0  0  0  0  0  0  0
   60.0950   30.1820   48.5300 C   0  0  0  0  0  0  0  0  0  0  0  0
   60.3220   28.7540   48.2550 N   0  0  0  0  0  0  0  0  0  0  0  0
   59.5070   28.2930   47.1550 C   0  0  0  0  0  0  0  0  0  0  0  0
   59.6180   26.9700   46.6940 C   0  0  0  0  0  0  0  0  0  0  0  0
   58.8650   26.5370   45.6000 C   0  0  0  0  0  0  0  0  0  0  0  0
   57.9990   27.4220   44.9520 C   0  0  0  0  0  0  0  0  0  0  0  0
   57.8810   28.7450   45.3940 C   0  0  0  0  0  0  0  0  0  0  0  0
   56.7890   29.8480   44.5650 S   0  0  0  0  0  0  0  0  0  0  0  0
   55.1560   29.3470   44.8250 N   0  0  0  0  0  0  0  0  0  0  0  0
   57.0920   29.8430   43.0930 O   0  0  0  0  0  0  0  0  0  0  0  0
   56.9620   31.2460   45.0900 O   0  0  0  0  0  0  0  0  0  0  0  0
   58.6310   29.1760   46.4970 C   0  0  0  0  0  0  0  0  0  0  0  0
   58.4800   31.8650   50.1250 S   0  0  0  0  0  0  0  0  0  0  0  0
   54.5447   30.4537   52.8681 H   0  0  0  0  0  0  0  0  0  0  0  0
   54.2557   31.3771   51.3547 H   0  0  0  0  0  0  0  0  0  0  0  0
   55.3915   29.9855   51.3547 H   0  0  0  0  0  0  0  0  0  0  0  0
   59.6717   30.6551   47.6317 H   0  0  0  0  0  0  0  0  0  0  0  0
   61.0599   30.6372   48.7978 H   0  0  0  0  0  0  0  0  0  0  0  0
   61.3310   28.6150   48.0150 H   0  0  0  0  0  0  0  0  0  0  0  0
   60.1300   28.1920   49.1180 H   0  0  0  0  0  0  0  0  0  0  0  0
   60.3020   26.2712   47.1977 H   0  0  0  0  0  0  0  0  0  0  0  0
   58.9538   25.4985   45.2483 H   0  0  0  0  0  0  0  0  0  0  0  0
   57.4075   27.0775   44.0909 H   0  0  0  0  0  0  0  0  0  0  0  0
   55.1670   28.6680   45.6190 H   0  0  0  0  0  0  0  0  0  0  0  0
   58.5340   30.2129   46.8511 H   0  0  0  0  0  0  0  0  0  0  0  0
  1  2  1  0
  2  3  1  0
  3  4  2  0
  4  5  1  0
  5  6  2  0
  6  7  1  0
  7  8  1  0
  8  9  1  0
  9 10  2  0
 10 11  1  0
 11 12  2  0
 12 13  1  0
 13 14  1  0
 14 15  1  0
 14 16  2  0
 14 17  2  0
 13 18  2  0
  6 19  1  0
 19  3  1  0
 18  9  1  0
  1 20  1  0
  1 21  1  0
  1 22  1  0
  7 23  1  0
  7 24  1  0
  8 25  1  0
  8 26  1  0
 10 27  1  0
 11 28  1  0
 12 29  1  0
 15 30  1  0
 18 31  1  0
M  CHG  2   8   1  15  -1
M  END
>  <UniqueID>  (62) 
58

>  <SMILES>  (62) 
CSc1nnc(C[NH2+]c2cccc(S([NH-])(=O)=O)c2)s1

>  <Energy>  (62) 
58.708527326591025

>  <Genealogy>  (62) 
CSc1nnc(C[NH2+]c2cccc(S([NH-])(=O)=O)c2)s1 (protonated)
CSc1nnc(C[NH2+]c2cccc(S([NH-])(=O)=O)c2)s1 (3D coordinates assigned)
CSc1nnc(C[NH2+]c2cccc(S([NH-])(=O)=O)c2)s1 (optimized conformer: 58.708527326591025 kcal/mol)

>  <smiles>  (62) 
CSc1nnc(CNc2cccc(S(N)(=O)=O)c2)s1

>  <score_type>  (62) 
oracle

>  <origin>  (62) 
adg

>  <m_score__min__energy>  (62) 
-9.0700000000000003

>  <m_primary>  (62) 
energy

$$$$
62:0
     RDKit          3D

 33 35  0  0  0  0  0  0  0  0999 V2000
   57.2690   23.9410   47.4290 C   0  0  0  0  0  0  0  0  0  0  0  0
   56.8080   25.2140   46.8040 C   0  0  0  0  0  0  0  0  0  0  0  0
   57.6030   26.2900   46.4670 C   0  0  0  0  0  0  0  0  0  0  0  0
   56.6950   27.1920   45.9600 C   0  0  0  0  0  0  0  0  0  0  0  0
   57.0040   28.3750   45.5180 N   0  0  0  0  0  0  0  0  0  0  0  0
   56.2550   29.1350   44.5580 C   0  0  0  0  0  0  0  0  0  0  0  0
   55.2020   29.7470   44.8880 O   0  0  0  0  0  0  0  0  0  0  0  0
   56.7420   29.2160   43.1460 C   0  0  0  0  0  0  0  0  0  0  0  0
   56.9550   30.9560   42.6320 S   0  0  0  0  0  0  0  0  0  0  0  0
   57.8540   31.4360   44.1090 C   0  0  0  0  0  0  0  0  0  0  0  0
   57.8110   32.7220   44.5310 N   0  0  0  0  0  0  0  0  0  0  0  0
   58.4640   33.1290   45.6490 C   0  0  0  0  0  0  0  0  0  0  0  0
   58.3810   34.3390   45.9850 O   0  0  0  0  0  0  0  0  0  0  0  0
   59.2130   32.1980   46.4070 C   0  0  0  0  0  0  0  0  0  0  0  0
   59.9250   32.5240   47.5950 C   0  0  0  0  0  0  0  0  0  0  0  0
   59.9920   34.2830   48.3710 Br  0  0  0  0  0  0  0  0  0  0  0  0
   60.6360   31.5280   48.2740 C   0  0  0  0  0  0  0  0  0  0  0  0
   60.6550   30.2170   47.8010 C   0  0  0  0  0  0  0  0  0  0  0  0
   59.9650   29.8820   46.6390 C   0  0  0  0  0  0  0  0  0  0  0  0
   59.2430   30.8580   45.9360 C   0  0  0  0  0  0  0  0  0  0  0  0
   58.5710   30.5150   44.8020 N   0  0  0  0  0  0  0  0  0  0  0  0
   55.4470   26.6840   46.0010 N   0  0  0  0  0  0  0  0  0  0  0  0
   55.5560   25.4940   46.5180 O   0  0  0  0  0  0  0  0  0  0  0  0
   57.2343   24.0367   48.5243 H   0  0  0  0  0  0  0  0  0  0  0  0
   56.6119   23.1178   47.1119 H   0  0  0  0  0  0  0  0  0  0  0  0
   58.3008   23.7295   47.1119 H   0  0  0  0  0  0  0  0  0  0  0  0
   58.6920   26.3999   46.5763 H   0  0  0  0  0  0  0  0  0  0  0  0
   57.7081   28.6959   43.0673 H   0  0  0  0  0  0  0  0  0  0  0  0
   55.9977   28.7428   42.4887 H   0  0  0  0  0  0  0  0  0  0  0  0
   61.1863   31.7828   49.1917 H   0  0  0  0  0  0  0  0  0  0  0  0
   61.2167   29.4449   48.3473 H   0  0  0  0  0  0  0  0  0  0  0  0
   59.9861   28.8459   46.2700 H   0  0  0  0  0  0  0  0  0  0  0  0
   58.5940   29.5290   44.4550 H   0  0  0  0  0  0  0  0  0  0  0  0
  1  2  1  0
  2  3  2  0
  3  4  1  0
  4  5  2  3
  5  6  1  0
  6  7  2  0
  6  8  1  0
  8  9  1  0
  9 10  1  0
 10 11  2  0
 11 12  1  0
 12 13  2  0
 12 14  1  0
 14 15  2  0
 15 16  1  0
 15 17  1  0
 17 18  2  0
 18 19  1  0
 19 20  2  0
 20 21  1  0
  4 22  1  0
 22 23  1  0
 23  2  1  0
 21 10  1  0
 20 14  1  0
  1 24  1  0
  1 25  1  0
  1 26  1  0
  3 27  1  0
  8 28  1  0
  8 29  1  0
 17 30  1  0
 18 31  1  0
 19 32  1  0
 21 33  1  0
M  CHG  1  22  -1
M  END
>  <UniqueID>  (63) 
59

>  <SMILES>  (63) 
Cc1cc(=NC(=O)CSc2nc(=O)c3c(Br)cccc3[nH]2)[n-]o1

>  <Energy>  (63) 
70.1637177904034

>  <Genealogy>  (63) 
Cc1cc(=NC(=O)CSc2nc(=O)c3c(Br)cccc3[nH]2)[n-]o1 (protonated)
Cc1cc(=NC(=O)CSc2nc(=O)c3c(Br)cccc3[nH]2)[n-]o1 (3D coordinates assigned)
Cc1cc(=NC(=O)CSc2nc(=O)c3c(Br)cccc3[nH]2)[n-]o1 (optimized conformer: 70.1637177904034 kcal/mol)

>  <smiles>  (63) 
Cc1cc(=NC(=O)CSc2nc(=O)c3c(Br)cccc3[nH]2)[nH]o1

>  <score_type>  (63) 
oracle

>  <origin>  (63) 
adg

>  <m_score__min__energy>  (63) 
-11.109999999999999

>  <m_primary>  (63) 
energy

$$$$
63:0
     RDKit          3D

 48 51  0  0  0  0  0  0  0  0999 V2000
   60.7960   34.2600   49.1230 C   0  0  0  0  0  0  0  0  0  0  0  0
   59.9170   33.9260   47.9540 C   0  0  0  0  0  0  0  0  0  0  0  0
   60.0550   34.6380   46.7520 C   0  0  0  0  0  0  0  0  0  0  0  0
   59.2560   34.3240   45.6490 C   0  0  0  0  0  0  0  0  0  0  0  0
   58.2970   33.3010   45.7380 C   0  0  0  0  0  0  0  0  0  0  0  0
   57.3930   32.9950   44.5730 C   0  0  0  0  0  0  0  0  0  0  0  0
   56.5330   31.8520   44.8730 N   0  0  0  0  0  0  0  0  0  0  0  0
   56.7310   30.5200   44.3800 C   0  0  0  0  0  0  0  0  0  0  0  0
   56.0060   30.0980   43.4390 O   0  0  0  0  0  0  0  0  0  0  0  0
   57.7700   29.6380   44.9350 C   0  0  0  0  0  0  0  0  0  0  0  0
   59.1270   29.9340   44.7400 C   0  0  0  0  0  0  0  0  0  0  0  0
   60.1100   29.0690   45.2270 C   0  0  0  0  0  0  0  0  0  0  0  0
   59.7460   27.9080   45.9150 C   0  0  0  0  0  0  0  0  0  0  0  0
   58.3900   27.6130   46.1400 C   0  0  0  0  0  0  0  0  0  0  0  0
   57.9940   26.3520   46.8690 C   0  0  0  0  0  0  0  0  0  0  0  0
   56.7730   25.7180   46.2480 C   0  0  0  0  0  0  0  0  0  0  0  0
   55.5680   26.3120   46.4690 N   0  0  0  0  0  0  0  0  0  0  0  0
   54.4300   25.8130   45.9900 N   0  0  0  0  0  0  0  0  0  0  0  0
   54.4040   24.6740   45.2550 C   0  0  0  0  0  0  0  0  0  0  0  0
   53.2980   24.2420   44.8280 O   0  0  0  0  0  0  0  0  0  0  0  0
   55.6020   23.9930   44.9890 C   0  0  0  0  0  0  0  0  0  0  0  0
   55.6160   22.8020   44.2380 C   0  0  0  0  0  0  0  0  0  0  0  0
   56.8160   22.1340   43.9950 C   0  0  0  0  0  0  0  0  0  0  0  0
   58.0150   22.6500   44.4890 C   0  0  0  0  0  0  0  0  0  0  0  0
   58.0210   23.8330   45.2310 C   0  0  0  0  0  0  0  0  0  0  0  0
   56.8180   24.5200   45.4940 C   0  0  0  0  0  0  0  0  0  0  0  0
   57.4050   28.4840   45.6410 C   0  0  0  0  0  0  0  0  0  0  0  0
   58.1650   32.5840   46.9390 C   0  0  0  0  0  0  0  0  0  0  0  0
   58.9720   32.8910   48.0390 C   0  0  0  0  0  0  0  0  0  0  0  0
   60.2554   34.0546   50.0587 H   0  0  0  0  0  0  0  0  0  0  0  0
   61.7076   33.6456   49.0837 H   0  0  0  0  0  0  0  0  0  0  0  0
   61.0695   35.3247   49.0837 H   0  0  0  0  0  0  0  0  0  0  0  0
   60.7961   35.4475   46.6778 H   0  0  0  0  0  0  0  0  0  0  0  0
   59.3784   34.8799   44.7077 H   0  0  0  0  0  0  0  0  0  0  0  0
   56.7655   33.8736   44.3623 H   0  0  0  0  0  0  0  0  0  0  0  0
   58.0136   32.7508   43.6983 H   0  0  0  0  0  0  0  0  0  0  0  0
   59.4178   30.8488   44.2027 H   0  0  0  0  0  0  0  0  0  0  0  0
   61.1733   29.3022   45.0686 H   0  0  0  0  0  0  0  0  0  0  0  0
   60.5239   27.2222   46.2819 H   0  0  0  0  0  0  0  0  0  0  0  0
   58.8290   25.6371   46.8273 H   0  0  0  0  0  0  0  0  0  0  0  0
   57.7565   26.6140   47.9106 H   0  0  0  0  0  0  0  0  0  0  0  0
   54.6743   22.3957   43.8403 H   0  0  0  0  0  0  0  0  0  0  0  0
   56.8174   21.2001   43.4138 H   0  0  0  0  0  0  0  0  0  0  0  0
   58.9600   22.1222   44.2929 H   0  0  0  0  0  0  0  0  0  0  0  0
   58.9720   24.2322   45.6135 H   0  0  0  0  0  0  0  0  0  0  0  0
   56.3412   28.2579   45.8060 H   0  0  0  0  0  0  0  0  0  0  0  0
   57.4223   31.7761   47.0145 H   0  0  0  0  0  0  0  0  0  0  0  0
   58.8662   32.3202   48.9733 H   0  0  0  0  0  0  0  0  0  0  0  0
  1  2  1  0
  2  3  2  0
  3  4  1  0
  4  5  2  0
  5  6  1  0
  6  7  1  0
  7  8  1  0
  8  9  2  0
  8 10  1  0
 10 11  2  0
 11 12  1  0
 12 13  2  0
 13 14  1  0
 14 15  1  0
 15 16  1  0
 16 17  2  0
 17 18  1  0
 18 19  1  0
 19 20  2  0
 19 21  1  0
 21 22  2  0
 22 23  1  0
 23 24  2  0
 24 25  1  0
 25 26  2  0
 14 27  2  0
  5 28  1  0
 28 29  2  0
 29  2  1  0
 27 10  1  0
 26 16  1  0
 26 21  1  0
  1 30  1  0
  1 31  1  0
  1 32  1  0
  3 33  1  0
  4 34  1  0
  6 35  1  0
  6 36  1  0
 11 37  1  0
 12 38  1  0
 13 39  1  0
 15 40  1  0
 15 41  1  0
 22 42  1  0
 23 43  1  0
 24 44  1  0
 25 45  1  0
 27 46  1  0
 28 47  1  0
 29 48  1  0
M  CHG  2   7  -1  18  -1
M  END
>  <UniqueID>  (64) 
60

>  <SMILES>  (64) 
Cc1ccc(C[N-]C(=O)c2cccc(Cc3n[n-]c(=O)c4ccccc34)c2)cc1

>  <Energy>  (64) 
60.21155398845603

>  <Genealogy>  (64) 
Cc1ccc(C[N-]C(=O)c2cccc(Cc3n[n-]c(=O)c4ccccc34)c2)cc1 (protonated)
Cc1ccc(C[N-]C(=O)c2cccc(Cc3n[n-]c(=O)c4ccccc34)c2)cc1 (3D coordinates assigned)
Cc1ccc(C[N-]C(=O)c2cccc(Cc3n[n-]c(=O)c4ccccc34)c2)cc1 (optimized conformer: 60.21155398845603 kcal/mol)

>  <smiles>  (64) 
Cc1ccc(CNC(=O)c2cccc(Cc3n[nH]c(=O)c4ccccc34)c2)cc1

>  <score_type>  (64) 
oracle

>  <origin>  (64) 
adg

>  <m_score__min__energy>  (64) 
-14.35

>  <m_primary>  (64) 
energy

$$$$
64:0
     RDKit          3D

 59 63  0  0  0  0  0  0  0  0999 V2000
   59.9150   34.1950   51.3240 O   0  0  0  0  0  0  0  0  0  0  0  0
   59.3450   33.4530   50.4770 C   0  0  0  0  0  0  0  0  0  0  0  0
   59.6460   33.6320   49.0410 C   0  0  0  0  0  0  0  0  0  0  0  0
   58.6240   33.4900   48.0900 C   0  0  0  0  0  0  0  0  0  0  0  0
   58.8990   33.6070   46.7190 C   0  0  0  0  0  0  0  0  0  0  0  0
   57.8110   33.3520   45.7130 C   0  0  0  0  0  0  0  0  0  0  0  0
   58.0080   32.0070   45.0830 C   0  0  0  0  0  0  0  0  0  0  0  0
   57.7440   31.6530   43.7600 C   0  0  0  0  0  0  0  0  0  0  0  0
   57.9010   30.3180   43.5850 N   0  0  0  0  0  0  0  0  0  0  0  0
   58.2450   29.8270   44.7870 C   0  0  0  0  0  0  0  0  0  0  0  0
   58.4730   28.5010   45.1440 C   0  0  0  0  0  0  0  0  0  0  0  0
   58.7720   28.2370   46.4920 C   0  0  0  0  0  0  0  0  0  0  0  0
   58.8240   29.3020   47.4230 C   0  0  0  0  0  0  0  0  0  0  0  0
   58.5870   30.5870   47.0230 N   0  0  0  0  0  0  0  0  0  0  0  0
   58.3120   30.8240   45.7150 C   0  0  0  0  0  0  0  0  0  0  0  0
   60.2090   33.8870   46.3020 C   0  0  0  0  0  0  0  0  0  0  0  0
   61.2230   34.0690   47.2440 C   0  0  0  0  0  0  0  0  0  0  0  0
   60.9480   33.9450   48.6090 C   0  0  0  0  0  0  0  0  0  0  0  0
   61.9590   34.0930   49.5030 F   0  0  0  0  0  0  0  0  0  0  0  0
   58.4180   32.4450   50.9240 N   0  0  0  0  0  0  0  0  0  0  0  0
   58.3690   31.1370   50.2570 C   0  0  0  0  0  0  0  0  0  0  0  0
   57.7800   30.0750   51.1900 C   0  0  0  0  0  0  0  0  0  0  0  0
   56.4400   30.4740   51.6830 N   0  0  0  0  0  0  0  0  0  0  0  0
   55.9540   29.5540   52.7380 C   0  0  0  0  0  0  0  0  0  0  0  0
   54.6250   28.8790   52.3610 C   0  0  0  0  0  0  0  0  0  0  0  0
   53.5380   29.8890   52.1210 C   0  0  0  0  0  0  0  0  0  0  0  0
   52.9430   30.0200   50.8570 C   0  0  0  0  0  0  0  0  0  0  0  0
   51.9320   30.9660   50.6820 C   0  0  0  0  0  0  0  0  0  0  0  0
   51.3740   31.0970   49.5600 O   0  0  0  0  0  0  0  0  0  0  0  0
   51.5440   31.7600   51.7630 C   0  0  0  0  0  0  0  0  0  0  0  0
   50.5450   32.7190   51.6220 O   0  0  0  0  0  0  0  0  0  0  0  0
   52.1760   31.5770   52.9940 C   0  0  0  0  0  0  0  0  0  0  0  0
   53.1320   30.6610   53.1290 O   0  0  0  0  0  0  0  0  0  0  0  0
   56.3430   31.8970   52.1150 C   0  0  0  0  0  0  0  0  0  0  0  0
   57.6920   32.6260   52.1830 C   0  0  0  0  0  0  0  0  0  0  0  0
   57.5959   33.2847   48.4229 H   0  0  0  0  0  0  0  0  0  0  0  0
   56.8337   33.3796   46.2171 H   0  0  0  0  0  0  0  0  0  0  0  0
   57.8478   34.1273   44.9335 H   0  0  0  0  0  0  0  0  0  0  0  0
   57.4495   32.3585   42.9691 H   0  0  0  0  0  0  0  0  0  0  0  0
   57.7490   29.7820   42.7030 H   0  0  0  0  0  0  0  0  0  0  0  0
   58.4213   27.6918   44.4007 H   0  0  0  0  0  0  0  0  0  0  0  0
   58.9650   27.2057   46.8224 H   0  0  0  0  0  0  0  0  0  0  0  0
   59.0572   29.0934   48.4776 H   0  0  0  0  0  0  0  0  0  0  0  0
   60.4379   33.9634   45.2288 H   0  0  0  0  0  0  0  0  0  0  0  0
   62.2430   34.3111   46.9107 H   0  0  0  0  0  0  0  0  0  0  0  0
   57.7420   31.2142   49.3565 H   0  0  0  0  0  0  0  0  0  0  0  0
   59.3927   30.8402   49.9852 H   0  0  0  0  0  0  0  0  0  0  0  0
   57.6919   29.1255   50.6416 H   0  0  0  0  0  0  0  0  0  0  0  0
   58.4494   29.9639   52.0558 H   0  0  0  0  0  0  0  0  0  0  0  0
   56.7119   28.7740   52.9030 H   0  0  0  0  0  0  0  0  0  0  0  0
   55.7820   30.1481   53.6476 H   0  0  0  0  0  0  0  0  0  0  0  0
   54.7721   28.2888   51.4445 H   0  0  0  0  0  0  0  0  0  0  0  0
   54.3170   28.2356   53.1984 H   0  0  0  0  0  0  0  0  0  0  0  0
   53.2681   29.3875   50.0178 H   0  0  0  0  0  0  0  0  0  0  0  0
   51.8824   32.1929   53.8568 H   0  0  0  0  0  0  0  0  0  0  0  0
   55.6976   32.4310   51.4020 H   0  0  0  0  0  0  0  0  0  0  0  0
   55.9347   31.8907   53.1364 H   0  0  0  0  0  0  0  0  0  0  0  0
   57.5191   33.6988   52.3538 H   0  0  0  0  0  0  0  0  0  0  0  0
   58.2881   32.2104   53.0088 H   0  0  0  0  0  0  0  0  0  0  0  0
  1  2  2  0
  2  3  1  0
  3  4  2  0
  4  5  1  0
  5  6  1  0
  6  7  1  0
  7  8  2  0
  8  9  1  0
  9 10  1  0
 10 11  2  0
 11 12  1  0
 12 13  2  0
 13 14  1  0
 14 15  2  0
  5 16  2  0
 16 17  1  0
 17 18  2  0
 18 19  1  0
  2 20  1  0
 20 21  1  0
 21 22  1  0
 22 23  1  0
 23 24  1  0
 24 25  1  0
 25 26  1  0
 26 27  2  0
 27 28  1  0
 28 29  2  0
 28 30  1  0
 30 31  1  0
 30 32  2  0
 32 33  1  0
 23 34  1  0
 34 35  1  0
 18  3  1  0
 35 20  1  0
 15  7  1  0
 33 26  1  0
 15 10  1  0
  4 36  1  0
  6 37  1  0
  6 38  1  0
  8 39  1  0
  9 40  1  0
 11 41  1  0
 12 42  1  0
 13 43  1  0
 16 44  1  0
 17 45  1  0
 21 46  1  0
 21 47  1  0
 22 48  1  0
 22 49  1  0
 24 50  1  0
 24 51  1  0
 25 52  1  0
 25 53  1  0
 27 54  1  0
 32 55  1  0
 34 56  1  0
 34 57  1  0
 35 58  1  0
 35 59  1  0
M  CHG  1  31  -1
M  END
>  <UniqueID>  (65) 
61

>  <SMILES>  (65) 
O=C(c1cc(Cc2c[nH]c3cccnc23)ccc1F)N1CCN(CCc2cc(=O)c([O-])co2)CC1

>  <Energy>  (65) 
109.10120012762555

>  <Genealogy>  (65) 
O=C(c1cc(Cc2c[nH]c3cccnc23)ccc1F)N1CCN(CCc2cc(=O)c([O-])co2)CC1 (protonated)
O=C(c1cc(Cc2c[nH]c3cccnc23)ccc1F)N1CCN(CCc2cc(=O)c([O-])co2)CC1 (3D coordinates assigned)
O=C(c1cc(Cc2c[nH]c3cccnc23)ccc1F)N1CCN(CCc2cc(=O)c([O-])co2)CC1 (nonaromatic ring conformer: 109.10120012762555 kcal/mol)

>  <smiles>  (65) 
O=C(c1cc(Cc2c[nH]c3cccnc23)ccc1F)N1CCN(CCc2cc(=O)c(O)co2)CC1

>  <score_type>  (65) 
oracle

>  <origin>  (65) 
adg

>  <m_score__min__energy>  (65) 
-14.720000000000001

>  <m_primary>  (65) 
energy

$$$$
65:0
     RDKit          3D

 39 41  0  0  0  0  0  0  0  0999 V2000
   59.9810   27.9760   47.1730 O   0  0  0  0  0  0  0  0  0  0  0  0
   59.1260   28.8610   47.4360 C   0  0  0  0  0  0  0  0  0  0  0  0
   57.9240   28.8970   46.6520 N   0  0  0  0  0  0  0  0  0  0  0  0
   57.6690   29.6920   45.4840 C   0  0  0  0  0  0  0  0  0  0  0  0
   58.6170   30.6100   44.9950 C   0  0  0  0  0  0  0  0  0  0  0  0
   58.3470   31.3580   43.8460 C   0  0  0  0  0  0  0  0  0  0  0  0
   57.1390   31.1860   43.1660 C   0  0  0  0  0  0  0  0  0  0  0  0
   56.2020   30.2590   43.6320 C   0  0  0  0  0  0  0  0  0  0  0  0
   56.4670   29.5110   44.7830 C   0  0  0  0  0  0  0  0  0  0  0  0
   55.5280   28.5890   45.2330 O   0  0  0  0  0  0  0  0  0  0  0  0
   59.3380   29.7600   48.6010 C   0  0  0  0  0  0  0  0  0  0  0  0
   58.6040   29.5330   49.7810 C   0  0  0  0  0  0  0  0  0  0  0  0
   58.7880   30.3450   50.9020 C   0  0  0  0  0  0  0  0  0  0  0  0
   59.7180   31.3820   50.8700 C   0  0  0  0  0  0  0  0  0  0  0  0
   60.4680   31.6120   49.7170 C   0  0  0  0  0  0  0  0  0  0  0  0
   60.2820   30.8180   48.5760 C   0  0  0  0  0  0  0  0  0  0  0  0
   61.2800   31.1940   47.1200 S   0  0  0  0  0  0  0  0  0  0  0  0
   61.0660   33.0070   47.2150 C   0  0  0  0  0  0  0  0  0  0  0  0
   59.7500   33.4290   46.6210 C   0  0  0  0  0  0  0  0  0  0  0  0
   59.7100   34.1710   45.4280 C   0  0  0  0  0  0  0  0  0  0  0  0
   58.4820   34.5300   44.8630 C   0  0  0  0  0  0  0  0  0  0  0  0
   57.2890   34.1520   45.4840 C   0  0  0  0  0  0  0  0  0  0  0  0
   57.3200   33.4140   46.6700 C   0  0  0  0  0  0  0  0  0  0  0  0
   58.5460   33.0520   47.2380 C   0  0  0  0  0  0  0  0  0  0  0  0
   59.5751   30.7393   45.5198 H   0  0  0  0  0  0  0  0  0  0  0  0
   59.0868   32.0833   43.4764 H   0  0  0  0  0  0  0  0  0  0  0  0
   56.9252   31.7793   42.2648 H   0  0  0  0  0  0  0  0  0  0  0  0
   55.2542   30.1178   43.0919 H   0  0  0  0  0  0  0  0  0  0  0  0
   57.8781   28.7074   49.8201 H   0  0  0  0  0  0  0  0  0  0  0  0
   58.1973   30.1655   51.8125 H   0  0  0  0  0  0  0  0  0  0  0  0
   59.8607   32.0197   51.7548 H   0  0  0  0  0  0  0  0  0  0  0  0
   61.2114   32.4226   49.7023 H   0  0  0  0  0  0  0  0  0  0  0  0
   61.1003   33.3180   48.2696 H   0  0  0  0  0  0  0  0  0  0  0  0
   61.8760   33.4847   46.6444 H   0  0  0  0  0  0  0  0  0  0  0  0
   60.6477   34.4704   44.9370 H   0  0  0  0  0  0  0  0  0  0  0  0
   58.4555   35.1104   43.9290 H   0  0  0  0  0  0  0  0  0  0  0  0
   56.3240   34.4358   45.0387 H   0  0  0  0  0  0  0  0  0  0  0  0
   56.3796   33.1174   47.1575 H   0  0  0  0  0  0  0  0  0  0  0  0
   58.5671   32.4700   48.1712 H   0  0  0  0  0  0  0  0  0  0  0  0
  1  2  2  0
  2  3  1  0
  3  4  1  0
  4  5  2  0
  5  6  1  0
  6  7  2  0
  7  8  1  0
  8  9  2  0
  9 10  1  0
  2 11  1  0
 11 12  2  0
 12 13  1  0
 13 14  2  0
 14 15  1  0
 15 16  2  0
 16 17  1  0
 17 18  1  0
 18 19  1  0
 19 20  2  0
 20 21  1  0
 21 22  2  0
 22 23  1  0
 23 24  2  0
  9  4  1  0
 16 11  1  0
 24 19  1  0
  5 25  1  0
  6 26  1  0
  7 27  1  0
  8 28  1  0
 12 29  1  0
 13 30  1  0
 14 31  1  0
 15 32  1  0
 18 33  1  0
 18 34  1  0
 20 35  1  0
 21 36  1  0
 22 37  1  0
 23 38  1  0
 24 39  1  0
M  CHG  2   3  -1  10  -1
M  END
>  <UniqueID>  (66) 
62

>  <SMILES>  (66) 
O=C([N-]c1ccccc1[O-])c1ccccc1SCc1ccccc1

>  <Energy>  (66) 
45.3915494012812

>  <Genealogy>  (66) 
O=C([N-]c1ccccc1[O-])c1ccccc1SCc1ccccc1 (protonated)
O=C([N-]c1ccccc1[O-])c1ccccc1SCc1ccccc1 (3D coordinates assigned)
O=C([N-]c1ccccc1[O-])c1ccccc1SCc1ccccc1 (optimized conformer: 45.3915494012812 kcal/mol)

>  <smiles>  (66) 
O=C(Nc1ccccc1O)c1ccccc1SCc1ccccc1

>  <score_type>  (66) 
oracle

>  <origin>  (66) 
adg

>  <m_score__min__energy>  (66) 
-14.48

>  <m_primary>  (66) 
energy

$$$$
66:0
     RDKit          3D

 52 55  0  0  0  0  0  0  0  0999 V2000
   54.5970   29.3790   45.3130 H   0  0  0  0  0  0  0  0  0  0  0  0
   55.1410   28.9830   44.5150 N   0  0  0  0  0  0  0  0  0  0  0  0
   56.5930   29.9100   44.3870 S   0  0  0  0  0  0  0  0  0  0  0  0
   56.2650   31.3710   44.5050 O   0  0  0  0  0  0  0  0  0  0  0  0
   57.2300   29.6650   43.0470 O   0  0  0  0  0  0  0  0  0  0  0  0
   57.7050   29.4410   45.6690 C   0  0  0  0  0  0  0  0  0  0  0  0
   57.5830   28.1890   46.2830 C   0  0  0  0  0  0  0  0  0  0  0  0
   56.7983   27.4916   45.9546 H   0  0  0  0  0  0  0  0  0  0  0  0
   58.4550   27.8220   47.3120 C   0  0  0  0  0  0  0  0  0  0  0  0
   58.3508   26.8375   47.7915 H   0  0  0  0  0  0  0  0  0  0  0  0
   59.4620   28.7010   47.7370 C   0  0  0  0  0  0  0  0  0  0  0  0
   60.3790   28.3310   48.8710 C   0  0  0  0  0  0  0  0  0  0  0  0
   60.6010   27.2546   48.8244 H   0  0  0  0  0  0  0  0  0  0  0  0
   61.3123   28.9069   48.7851 H   0  0  0  0  0  0  0  0  0  0  0  0
   59.7390   28.6390   50.1480 N   0  0  0  0  0  0  0  0  0  0  0  0
   59.0290   29.7000   50.3930 C   0  0  0  0  0  0  0  0  0  0  0  0
   59.3920   30.8820   49.8360 N   0  0  0  0  0  0  0  0  0  0  0  0
   58.6610   32.0060   50.0630 C   0  0  0  0  0  0  0  0  0  0  0  0
   59.0030   33.1510   49.5490 N   0  0  0  0  0  0  0  0  0  0  0  0
   58.8950   33.5470   48.1710 C   0  0  0  0  0  0  0  0  0  0  0  0
   59.8760   34.3930   47.6360 C   0  0  0  0  0  0  0  0  0  0  0  0
   60.7187   34.7184   48.2637 H   0  0  0  0  0  0  0  0  0  0  0  0
   59.7900   34.8260   46.3090 C   0  0  0  0  0  0  0  0  0  0  0  0
   60.5725   35.4771   45.8921 H   0  0  0  0  0  0  0  0  0  0  0  0
   58.7120   34.4330   45.5120 C   0  0  0  0  0  0  0  0  0  0  0  0
   58.6503   34.7671   44.4658 H   0  0  0  0  0  0  0  0  0  0  0  0
   57.7120   33.6150   46.0450 C   0  0  0  0  0  0  0  0  0  0  0  0
   56.8586   33.3133   45.4199 H   0  0  0  0  0  0  0  0  0  0  0  0
   57.7940   33.1790   47.3720 C   0  0  0  0  0  0  0  0  0  0  0  0
   56.9974   32.5476   47.7925 H   0  0  0  0  0  0  0  0  0  0  0  0
   57.5770   31.9440   50.8780 N   0  0  0  0  0  0  0  0  0  0  0  0
   57.2130   30.7690   51.4520 C   0  0  0  0  0  0  0  0  0  0  0  0
   56.1840   30.7430   52.2480 N   0  0  0  0  0  0  0  0  0  0  0  0
   55.1360   29.7240   52.2300 C   0  0  0  0  0  0  0  0  0  0  0  0
   55.2717   29.0815   51.3475 H   0  0  0  0  0  0  0  0  0  0  0  0
   55.2070   29.1263   53.1507 H   0  0  0  0  0  0  0  0  0  0  0  0
   53.7730   30.3650   52.1710 C   0  0  0  0  0  0  0  0  0  0  0  0
   53.2570   30.8430   50.9550 C   0  0  0  0  0  0  0  0  0  0  0  0
   53.8545   30.7573   50.0354 H   0  0  0  0  0  0  0  0  0  0  0  0
   51.9880   31.4270   50.9080 C   0  0  0  0  0  0  0  0  0  0  0  0
   51.5877   31.7943   49.9515 H   0  0  0  0  0  0  0  0  0  0  0  0
   51.2270   31.5450   52.0740 C   0  0  0  0  0  0  0  0  0  0  0  0
   50.2269   32.0014   52.0346 H   0  0  0  0  0  0  0  0  0  0  0  0
   51.7370   31.0830   53.2900 C   0  0  0  0  0  0  0  0  0  0  0  0
   51.1397   31.1803   54.2085 H   0  0  0  0  0  0  0  0  0  0  0  0
   53.0060   30.4970   53.3410 C   0  0  0  0  0  0  0  0  0  0  0  0
   53.4053   30.1380   54.3010 H   0  0  0  0  0  0  0  0  0  0  0  0
   57.9370   29.6450   51.2010 N   0  0  0  0  0  0  0  0  0  0  0  0
   59.5710   29.9630   47.1310 C   0  0  0  0  0  0  0  0  0  0  0  0
   60.3470   30.6661   47.4678 H   0  0  0  0  0  0  0  0  0  0  0  0
   58.6990   30.3310   46.1020 C   0  0  0  0  0  0  0  0  0  0  0  0
   58.7926   31.3206   45.6309 H   0  0  0  0  0  0  0  0  0  0  0  0
  1  2  1  0
  2  3  1  0
  3  4  2  0
  3  5  2  0
  3  6  1  0
  6  7  2  0
  7  8  1  0
  7  9  1  0
  9 10  1  0
  9 11  2  0
 11 12  1  0
 12 13  1  0
 12 14  1  0
 12 15  1  0
 15 16  2  0
 16 17  1  0
 17 18  1  0
 18 19  2  3
 19 20  1  0
 20 21  2  0
 21 22  1  0
 21 23  1  0
 23 24  1  0
 23 25  2  0
 25 26  1  0
 25 27  1  0
 27 28  1  0
 27 29  2  0
 29 30  1  0
 18 31  1  0
 31 32  1  0
 32 33  2  3
 33 34  1  0
 34 35  1  0
 34 36  1  0
 34 37  1  0
 37 38  2  0
 38 39  1  0
 38 40  1  0
 40 41  1  0
 40 42  2  0
 42 43  1  0
 42 44  1  0
 44 45  1  0
 44 46  2  0
 46 47  1  0
 32 48  1  0
 11 49  1  0
 49 50  1  0
 49 51  2  0
 51 52  1  0
 51  6  1  0
 48 16  1  0
 29 20  1  0
 46 37  1  0
M  CHG  4   2  -1  17  -1  31  -1  48  -1
M  END
>  <UniqueID>  (67) 
63

>  <SMILES>  (67) 
[NH-]S(=O)(=O)c1ccc(C/N=c2\[n-]c(=NCc3ccccc3)[n-]c(=Nc3ccccc3)[n-]2)cc1

>  <Energy>  (67) 
60.4325364176435

>  <Genealogy>  (67) 
[NH-]S(=O)(=O)c1ccc(CN=c2[n-]c(=NCc3ccccc3)[n-]c(=Nc3ccccc3)[n-]2)cc1 (protonated)
[NH-]S(=O)(=O)c1ccc(C/N=c2\[n-]c(=NCc3ccccc3)[n-]c(=Nc3ccccc3)[n-]2)cc1 (cis-trans isomerization)
[NH-]S(=O)(=O)c1ccc(C/N=c2\[n-]c(=NCc3ccccc3)[n-]c(=Nc3ccccc3)[n-]2)cc1 (3D coordinates assigned)
[NH-]S(=O)(=O)c1ccc(C/N=c2\[n-]c(=NCc3ccccc3)[n-]c(=Nc3ccccc3)[n-]2)cc1 (optimized conformer: 60.4325364176435 kcal/mol)

>  <smiles>  (67) 
NS(=O)(=O)c1ccc(CN=c2[nH]c(=NCc3ccccc3)[nH]c(=Nc3ccccc3)[nH]2)cc1

>  <score_type>  (67) 
oracle

>  <origin>  (67) 
adg

>  <m_score__min__energy>  (67) 
-15.06

>  <m_primary>  (67) 
energy

$$$$
67:0
     RDKit          3D

 52 55  0  0  0  0  0  0  0  0999 V2000
   58.8750   31.5010   52.6440 C   0  0  0  0  0  0  0  0  0  0  0  0
   59.2880   30.5340   51.6300 N   0  0  0  0  0  0  0  0  0  0  0  0
   59.9000   29.3390   51.8240 C   0  0  0  0  0  0  0  0  0  0  0  0
   60.1490   28.8630   52.9640 O   0  0  0  0  0  0  0  0  0  0  0  0
   60.2400   28.7230   50.6630 N   0  0  0  0  0  0  0  0  0  0  0  0
   60.9910   27.4800   50.4980 C   0  0  0  0  0  0  0  0  0  0  0  0
   59.8600   29.5910   49.7060 C   0  0  0  0  0  0  0  0  0  0  0  0
   60.0240   29.4950   48.3250 C   0  0  0  0  0  0  0  0  0  0  0  0
   59.5550   30.5650   47.5280 C   0  0  0  0  0  0  0  0  0  0  0  0
   59.6370   30.5080   46.1310 O   0  0  0  0  0  0  0  0  0  0  0  0
   58.5360   30.5880   45.2650 C   0  0  0  0  0  0  0  0  0  0  0  0
   58.5550   31.5420   44.2410 C   0  0  0  0  0  0  0  0  0  0  0  0
   57.4620   31.6790   43.3810 C   0  0  0  0  0  0  0  0  0  0  0  0
   56.3470   30.8510   43.5290 C   0  0  0  0  0  0  0  0  0  0  0  0
   56.3110   29.8990   44.5510 C   0  0  0  0  0  0  0  0  0  0  0  0
   55.1900   29.0850   44.6940 O   0  0  0  0  0  0  0  0  0  0  0  0
   57.3990   29.7720   45.4240 C   0  0  0  0  0  0  0  0  0  0  0  0
   58.9920   31.7120   48.1380 C   0  0  0  0  0  0  0  0  0  0  0  0
   58.5380   32.7880   47.3190 N   0  0  0  0  0  0  0  0  0  0  0  0
   59.6350   34.0060   46.7750 S   0  0  0  0  0  0  0  0  0  0  0  0
   59.1300   35.3560   47.1920 O   0  0  0  0  0  0  0  0  0  0  0  0
   59.7370   33.9740   45.2780 O   0  0  0  0  0  0  0  0  0  0  0  0
   61.2060   33.7210   47.5150 C   0  0  0  0  0  0  0  0  0  0  0  0
   61.4520   34.1080   48.8370 C   0  0  0  0  0  0  0  0  0  0  0  0
   62.7070   33.8910   49.4110 C   0  0  0  0  0  0  0  0  0  0  0  0
   63.7340   33.2920   48.6740 C   0  0  0  0  0  0  0  0  0  0  0  0
   64.9650   33.0680   49.3090 O   0  0  0  0  0  0  0  0  0  0  0  0
   65.1610   32.2430   50.4550 C   0  0  0  0  0  0  0  0  0  0  0  0
   64.2540   31.2020   50.4170 F   0  0  0  0  0  0  0  0  0  0  0  0
   66.4420   31.7160   50.4500 F   0  0  0  0  0  0  0  0  0  0  0  0
   64.9550   32.9710   51.6160 F   0  0  0  0  0  0  0  0  0  0  0  0
   63.4930   32.9300   47.3350 C   0  0  0  0  0  0  0  0  0  0  0  0
   62.2350   33.1460   46.7630 C   0  0  0  0  0  0  0  0  0  0  0  0
   58.8430   31.7760   49.5380 C   0  0  0  0  0  0  0  0  0  0  0  0
   59.2840   30.6880   50.2910 C   0  0  0  0  0  0  0  0  0  0  0  0
   59.0541   31.0817   53.6450 H   0  0  0  0  0  0  0  0  0  0  0  0
   59.4559   32.4275   52.5253 H   0  0  0  0  0  0  0  0  0  0  0  0
   57.8040   31.7220   52.5253 H   0  0  0  0  0  0  0  0  0  0  0  0
   61.2399   27.0680   51.4871 H   0  0  0  0  0  0  0  0  0  0  0  0
   60.3804   26.7538   49.9414 H   0  0  0  0  0  0  0  0  0  0  0  0
   61.9179   27.6827   49.9414 H   0  0  0  0  0  0  0  0  0  0  0  0
   60.5027   28.6154   47.8699 H   0  0  0  0  0  0  0  0  0  0  0  0
   59.4359   32.1881   44.1123 H   0  0  0  0  0  0  0  0  0  0  0  0
   57.4799   32.4398   42.5867 H   0  0  0  0  0  0  0  0  0  0  0  0
   55.4955   30.9486   42.8395 H   0  0  0  0  0  0  0  0  0  0  0  0
   54.7390   28.9580   45.5920 H   0  0  0  0  0  0  0  0  0  0  0  0
   57.3653   29.0319   46.2371 H   0  0  0  0  0  0  0  0  0  0  0  0
   60.6547   34.5846   49.4262 H   0  0  0  0  0  0  0  0  0  0  0  0
   62.8893   34.1941   50.4526 H   0  0  0  0  0  0  0  0  0  0  0  0
   64.2966   32.4758   46.7367 H   0  0  0  0  0  0  0  0  0  0  0  0
   62.0542   32.8619   45.7158 H   0  0  0  0  0  0  0  0  0  0  0  0
   58.3933   32.6559   50.0213 H   0  0  0  0  0  0  0  0  0  0  0  0
  1  2  1  0
  2  3  1  0
  3  4  2  0
  3  5  1  0
  5  6  1  0
  5  7  1  0
  7  8  2  0
  8  9  1  0
  9 10  1  0
 10 11  1  0
 11 12  2  0
 12 13  1  0
 13 14  2  0
 14 15  1  0
 15 16  1  0
 15 17  2  0
  9 18  2  0
 18 19  1  0
 19 20  1  0
 20 21  2  0
 20 22  2  0
 20 23  1  0
 23 24  2  0
 24 25  1  0
 25 26  2  0
 26 27  1  0
 27 28  1  0
 28 29  1  0
 28 30  1  0
 28 31  1  0
 26 32  1  0
 32 33  2  0
 18 34  1  0
 34 35  2  0
 35  2  1  0
 35  7  1  0
 17 11  1  0
 33 23  1  0
  1 36  1  0
  1 37  1  0
  1 38  1  0
  6 39  1  0
  6 40  1  0
  6 41  1  0
  8 42  1  0
 12 43  1  0
 13 44  1  0
 14 45  1  0
 16 46  1  0
 17 47  1  0
 24 48  1  0
 25 49  1  0
 32 50  1  0
 33 51  1  0
 34 52  1  0
M  CHG  1  19  -1
M  END
>  <UniqueID>  (68) 
64

>  <SMILES>  (68) 
Cn1c(=O)n(C)c2cc(Oc3cccc(O)c3)c([N-]S(=O)(=O)c3ccc(OC(F)(F)F)cc3)cc21

>  <Energy>  (68) 
107.26343136597117

>  <Genealogy>  (68) 
Cn1c(=O)n(C)c2cc(Oc3cccc(O)c3)c([N-]S(=O)(=O)c3ccc(OC(F)(F)F)cc3)cc21 (protonated)
Cn1c(=O)n(C)c2cc(Oc3cccc(O)c3)c([N-]S(=O)(=O)c3ccc(OC(F)(F)F)cc3)cc21 (3D coordinates assigned)
Cn1c(=O)n(C)c2cc(Oc3cccc(O)c3)c([N-]S(=O)(=O)c3ccc(OC(F)(F)F)cc3)cc21 (optimized conformer: 107.26343136597117 kcal/mol)

>  <smiles>  (68) 
Cn1c(=O)n(C)c2cc(Oc3cccc(O)c3)c(NS(=O)(=O)c3ccc(OC(F)(F)F)cc3)cc21

>  <score_type>  (68) 
oracle

>  <origin>  (68) 
adg

>  <m_score__min__energy>  (68) 
-10.26

>  <m_primary>  (68) 
energy

$$$$
68:0
     RDKit          3D

 42 44  0  0  0  0  0  0  0  0999 V2000
   62.1630   34.0680   46.3920 C   0  0  0  0  0  0  0  0  0  0  0  0
   60.8610   34.6550   46.3710 O   0  0  0  0  0  0  0  0  0  0  0  0
   59.6870   33.9650   46.0300 C   0  0  0  0  0  0  0  0  0  0  0  0
   58.8460   33.3740   46.9930 C   0  0  0  0  0  0  0  0  0  0  0  0
   57.7030   32.6720   46.5950 C   0  0  0  0  0  0  0  0  0  0  0  0
   57.3900   32.5340   45.2360 C   0  0  0  0  0  0  0  0  0  0  0  0
   56.2560   31.7410   44.8660 N   0  0  0  0  0  0  0  0  0  0  0  0
   56.3630   30.1520   44.1770 S   0  0  0  0  0  0  0  0  0  0  0  0
   56.2920   30.2510   42.6830 O   0  0  0  0  0  0  0  0  0  0  0  0
   55.1940   29.3450   44.6560 O   0  0  0  0  0  0  0  0  0  0  0  0
   57.8720   29.3680   44.6340 C   0  0  0  0  0  0  0  0  0  0  0  0
   58.1670   28.0770   44.1740 C   0  0  0  0  0  0  0  0  0  0  0  0
   59.3330   27.4780   44.5300 N   0  0  0  0  0  0  0  0  0  0  0  0
   60.2490   28.1050   45.3150 C   0  0  0  0  0  0  0  0  0  0  0  0
   60.0140   29.4140   45.7780 C   0  0  0  0  0  0  0  0  0  0  0  0
   60.9730   30.1070   46.5990 N   0  0  0  0  0  0  0  0  0  0  0  0
   60.6420   30.7010   47.8670 C   0  0  0  0  0  0  0  0  0  0  0  0
   59.5730   30.3720   48.4570 O   0  0  0  0  0  0  0  0  0  0  0  0
   61.5650   31.6670   48.5030 C   0  0  0  0  0  0  0  0  0  0  0  0
   61.0940   32.6600   49.3790 C   0  0  0  0  0  0  0  0  0  0  0  0
   61.9910   33.5730   49.9440 C   0  0  0  0  0  0  0  0  0  0  0  0
   63.3420   33.5000   49.6210 C   0  0  0  0  0  0  0  0  0  0  0  0
   63.7850   32.5040   48.7430 C   0  0  0  0  0  0  0  0  0  0  0  0
   62.8970   31.6170   48.2120 N   0  0  0  0  0  0  0  0  0  0  0  0
   58.7990   30.0320   45.4510 C   0  0  0  0  0  0  0  0  0  0  0  0
   58.2190   33.1400   44.2760 C   0  0  0  0  0  0  0  0  0  0  0  0
   59.3530   33.8550   44.6760 C   0  0  0  0  0  0  0  0  0  0  0  0
   62.4833   33.9236   47.4344 H   0  0  0  0  0  0  0  0  0  0  0  0
   62.1350   33.0954   45.8789 H   0  0  0  0  0  0  0  0  0  0  0  0
   62.8733   34.7330   45.8789 H   0  0  0  0  0  0  0  0  0  0  0  0
   59.0887   33.4647   48.0620 H   0  0  0  0  0  0  0  0  0  0  0  0
   57.0450   32.2250   47.3547 H   0  0  0  0  0  0  0  0  0  0  0  0
   57.4537   27.5487   43.5243 H   0  0  0  0  0  0  0  0  0  0  0  0
   61.1794   27.5866   45.5901 H   0  0  0  0  0  0  0  0  0  0  0  0
   61.9770   30.0920   46.3020 H   0  0  0  0  0  0  0  0  0  0  0  0
   60.0223   32.7192   49.6199 H   0  0  0  0  0  0  0  0  0  0  0  0
   61.6298   34.3445   50.6400 H   0  0  0  0  0  0  0  0  0  0  0  0
   64.0554   34.2182   50.0515 H   0  0  0  0  0  0  0  0  0  0  0  0
   64.8513   32.4371   48.4812 H   0  0  0  0  0  0  0  0  0  0  0  0
   58.5725   31.0376   45.8351 H   0  0  0  0  0  0  0  0  0  0  0  0
   57.9753   33.0517   43.2070 H   0  0  0  0  0  0  0  0  0  0  0  0
   59.9887   34.3357   43.9179 H   0  0  0  0  0  0  0  0  0  0  0  0
  1  2  1  0
  2  3  1  0
  3  4  2  0
  4  5  1  0
  5  6  2  0
  6  7  1  0
  7  8  1  0
  8  9  2  0
  8 10  2  0
  8 11  1  0
 11 12  2  0
 12 13  1  0
 13 14  2  0
 14 15  1  0
 15 16  1  0
 16 17  1  0
 17 18  2  0
 17 19  1  0
 19 20  2  0
 20 21  1  0
 21 22  2  0
 22 23  1  0
 23 24  2  0
 15 25  2  0
  6 26  1  0
 26 27  2  0
 27  3  1  0
 25 11  1  0
 24 19  1  0
  1 28  1  0
  1 29  1  0
  1 30  1  0
  4 31  1  0
  5 32  1  0
 12 33  1  0
 14 34  1  0
 16 35  1  0
 20 36  1  0
 21 37  1  0
 22 38  1  0
 23 39  1  0
 25 40  1  0
 26 41  1  0
 27 42  1  0
M  CHG  1   7  -1
M  END
>  <UniqueID>  (69) 
65

>  <SMILES>  (69) 
COc1ccc([N-]S(=O)(=O)c2cncc(NC(=O)c3ccccn3)c2)cc1

>  <Energy>  (69) 
54.10505636306413

>  <Genealogy>  (69) 
COc1ccc([N-]S(=O)(=O)c2cncc(NC(=O)c3ccccn3)c2)cc1 (protonated)
COc1ccc([N-]S(=O)(=O)c2cncc(NC(=O)c3ccccn3)c2)cc1 (3D coordinates assigned)
COc1ccc([N-]S(=O)(=O)c2cncc(NC(=O)c3ccccn3)c2)cc1 (optimized conformer: 54.10505636306413 kcal/mol)

>  <smiles>  (69) 
COc1ccc(NS(=O)(=O)c2cncc(NC(=O)c3ccccn3)c2)cc1

>  <score_type>  (69) 
oracle

>  <origin>  (69) 
adg

>  <m_score__min__energy>  (69) 
-8.9299999999999997

>  <m_primary>  (69) 
energy

$$$$
69:0
     RDKit          3D

 29 30  0  0  0  0  0  0  0  0999 V2000
   53.4130   25.0100   45.4230 O   0  0  0  0  0  0  0  0  0  0  0  0
   54.6400   25.2250   45.6240 C   0  0  0  0  0  0  0  0  0  0  0  0
   55.0620   26.4970   46.1350 N   0  0  0  0  0  0  0  0  0  0  0  0
   56.3220   27.1410   45.8960 C   0  0  0  0  0  0  0  0  0  0  0  0
   57.5440   26.5280   46.2330 C   0  0  0  0  0  0  0  0  0  0  0  0
   58.7580   27.1750   45.9680 C   0  0  0  0  0  0  0  0  0  0  0  0
   60.2830   26.4070   46.3880 S   0  0  0  0  0  0  0  0  0  0  0  0
   61.4100   27.1020   45.6780 O   0  0  0  0  0  0  0  0  0  0  0  0
   60.4970   26.4830   47.8730 O   0  0  0  0  0  0  0  0  0  0  0  0
   60.2540   24.7940   45.9350 F   0  0  0  0  0  0  0  0  0  0  0  0
   58.7560   28.4270   45.3410 C   0  0  0  0  0  0  0  0  0  0  0  0
   57.5480   29.0280   44.9810 C   0  0  0  0  0  0  0  0  0  0  0  0
   56.3350   28.3860   45.2510 C   0  0  0  0  0  0  0  0  0  0  0  0
   55.1410   28.9950   44.8800 O   0  0  0  0  0  0  0  0  0  0  0  0
   55.6380   24.1790   45.2670 C   0  0  0  0  0  0  0  0  0  0  0  0
   56.0410   24.0410   43.9240 C   0  0  0  0  0  0  0  0  0  0  0  0
   56.9770   23.0740   43.5550 C   0  0  0  0  0  0  0  0  0  0  0  0
   57.5260   22.2270   44.5160 C   0  0  0  0  0  0  0  0  0  0  0  0
   57.1410   22.3390   45.8540 C   0  0  0  0  0  0  0  0  0  0  0  0
   57.7070   21.4740   46.7910 O   0  0  0  0  0  0  0  0  0  0  0  0
   56.1960   23.3090   46.2360 C   0  0  0  0  0  0  0  0  0  0  0  0
   55.8200   23.3930   47.5730 O   0  0  0  0  0  0  0  0  0  0  0  0
   57.5454   25.5354   46.7071 H   0  0  0  0  0  0  0  0  0  0  0  0
   59.7074   28.9379   45.1317 H   0  0  0  0  0  0  0  0  0  0  0  0
   57.5504   30.0091   44.4836 H   0  0  0  0  0  0  0  0  0  0  0  0
   55.6127   24.7034   43.1573 H   0  0  0  0  0  0  0  0  0  0  0  0
   57.2824   22.9800   42.5024 H   0  0  0  0  0  0  0  0  0  0  0  0
   58.2649   21.4678   44.2198 H   0  0  0  0  0  0  0  0  0  0  0  0
   57.2780   21.2980   47.6910 H   0  0  0  0  0  0  0  0  0  0  0  0
  1  2  2  0
  2  3  1  0
  3  4  1  0
  4  5  2  0
  5  6  1  0
  6  7  1  0
  7  8  2  0
  7  9  2  0
  7 10  1  0
  6 11  2  0
 11 12  1  0
 12 13  2  0
 13 14  1  0
  2 15  1  0
 15 16  2  0
 16 17  1  0
 17 18  2  0
 18 19  1  0
 19 20  1  0
 19 21  2  0
 21 22  1  0
 13  4  1  0
 21 15  1  0
  5 23  1  0
 11 24  1  0
 12 25  1  0
 16 26  1  0
 17 27  1  0
 18 28  1  0
 20 29  1  0
M  CHG  3   3  -1  14  -1  22  -1
M  END
>  <UniqueID>  (70) 
66

>  <SMILES>  (70) 
O=C([N-]c1cc(S(=O)(=O)F)ccc1[O-])c1cccc(O)c1[O-]

>  <Energy>  (70) 
37.75662008653046

>  <Genealogy>  (70) 
O=C([N-]c1cc(S(=O)(=O)F)ccc1[O-])c1cccc(O)c1[O-] (protonated)
O=C([N-]c1cc(S(=O)(=O)F)ccc1[O-])c1cccc(O)c1[O-] (3D coordinates assigned)
O=C([N-]c1cc(S(=O)(=O)F)ccc1[O-])c1cccc(O)c1[O-] (optimized conformer: 37.75662008653046 kcal/mol)

>  <smiles>  (70) 
O=C(Nc1cc(S(=O)(=O)F)ccc1O)c1cccc(O)c1O

>  <score_type>  (70) 
oracle

>  <origin>  (70) 
adg

>  <m_score__min__energy>  (70) 
-14.16

>  <m_primary>  (70) 
energy

$$$$
70:0
     RDKit          3D

 41 44  0  0  0  0  0  0  0  0999 V2000
   49.9750   30.8730   53.1890 C   0  0  0  0  0  0  0  0  0  0  0  0
   51.4400   30.9430   52.8580 C   0  0  0  0  0  0  0  0  0  0  0  0
   52.3540   30.1140   53.5260 C   0  0  0  0  0  0  0  0  0  0  0  0
   53.7190   30.1920   53.2390 C   0  0  0  0  0  0  0  0  0  0  0  0
   54.1960   31.1060   52.2830 C   0  0  0  0  0  0  0  0  0  0  0  0
   55.6430   31.1890   51.9800 C   0  0  0  0  0  0  0  0  0  0  0  0
   56.3440   32.3550   52.0330 N   0  0  0  0  0  0  0  0  0  0  0  0
   57.5820   31.9700   51.6920 C   0  0  0  0  0  0  0  0  0  0  0  0
   58.7220   32.7620   51.5900 C   0  0  0  0  0  0  0  0  0  0  0  0
   59.9340   32.1320   51.2080 C   0  0  0  0  0  0  0  0  0  0  0  0
   61.1660   32.8590   51.0960 N   0  0  0  0  0  0  0  0  0  0  0  0
   62.0410   32.8940   49.9630 C   0  0  0  0  0  0  0  0  0  0  0  0
   62.9940   32.0760   49.8600 O   0  0  0  0  0  0  0  0  0  0  0  0
   61.8140   33.8790   48.9480 N   0  0  0  0  0  0  0  0  0  0  0  0
   60.7390   33.9010   47.9960 C   0  0  0  0  0  0  0  0  0  0  0  0
   61.0360   34.1880   46.6570 C   0  0  0  0  0  0  0  0  0  0  0  0
   60.0260   34.1870   45.6910 C   0  0  0  0  0  0  0  0  0  0  0  0
   58.7090   33.8870   46.0550 C   0  0  0  0  0  0  0  0  0  0  0  0
   57.4420   33.8780   44.8410 Cl  0  0  0  0  0  0  0  0  0  0  0  0
   58.4060   33.5810   47.3850 C   0  0  0  0  0  0  0  0  0  0  0  0
   59.4170   33.5780   48.3520 C   0  0  0  0  0  0  0  0  0  0  0  0
   59.9530   30.7340   50.9820 C   0  0  0  0  0  0  0  0  0  0  0  0
   58.7770   29.9700   51.0950 C   0  0  0  0  0  0  0  0  0  0  0  0
   57.6080   30.6330   51.4520 C   0  0  0  0  0  0  0  0  0  0  0  0
   56.3880   30.1060   51.6280 N   0  0  0  0  0  0  0  0  0  0  0  0
   53.2790   31.9400   51.6210 C   0  0  0  0  0  0  0  0  0  0  0  0
   51.9120   31.8650   51.9080 C   0  0  0  0  0  0  0  0  0  0  0  0
   51.0290   32.7110   51.2470 O   0  0  0  0  0  0  0  0  0  0  0  0
   49.8458   30.8668   54.2814 H   0  0  0  0  0  0  0  0  0  0  0  0
   49.4608   31.7476   52.7639 H   0  0  0  0  0  0  0  0  0  0  0  0
   49.5466   29.9534   52.7639 H   0  0  0  0  0  0  0  0  0  0  0  0
   51.9937   29.3986   54.2799 H   0  0  0  0  0  0  0  0  0  0  0  0
   54.4259   29.5334   53.7649 H   0  0  0  0  0  0  0  0  0  0  0  0
   58.6842   33.8413   51.7988 H   0  0  0  0  0  0  0  0  0  0  0  0
   62.0715   34.4157   46.3641 H   0  0  0  0  0  0  0  0  0  0  0  0
   60.2668   34.4223   44.6438 H   0  0  0  0  0  0  0  0  0  0  0  0
   57.3712   33.3422   47.6716 H   0  0  0  0  0  0  0  0  0  0  0  0
   59.1772   33.3221   49.3946 H   0  0  0  0  0  0  0  0  0  0  0  0
   60.8986   30.2396   50.7149 H   0  0  0  0  0  0  0  0  0  0  0  0
   58.7821   28.8861   50.9075 H   0  0  0  0  0  0  0  0  0  0  0  0
   53.6395   32.6585   50.8701 H   0  0  0  0  0  0  0  0  0  0  0  0
  1  2  1  0
  2  3  2  0
  3  4  1  0
  4  5  2  0
  5  6  1  0
  6  7  2  0
  7  8  1  0
  8  9  2  0
  9 10  1  0
 10 11  1  0
 11 12  1  0
 12 13  2  0
 12 14  1  0
 14 15  1  0
 15 16  2  0
 16 17  1  0
 17 18  2  0
 18 19  1  0
 18 20  1  0
 20 21  2  0
 10 22  2  0
 22 23  1  0
 23 24  2  0
 24 25  1  0
  5 26  1  0
 26 27  2  0
 27 28  1  0
 27  2  1  0
 25  6  1  0
 24  8  1  0
 21 15  1  0
  1 29  1  0
  1 30  1  0
  1 31  1  0
  3 32  1  0
  4 33  1  0
  9 34  1  0
 16 35  1  0
 17 36  1  0
 20 37  1  0
 21 38  1  0
 22 39  1  0
 23 40  1  0
 26 41  1  0
M  CHG  4  11  -1  14  -1  25  -1  28  -1
M  END
>  <UniqueID>  (71) 
67

>  <SMILES>  (71) 
Cc1ccc(-c2nc3cc([N-]C(=O)[N-]c4ccc(Cl)cc4)ccc3[n-]2)cc1[O-]

>  <Energy>  (71) 
88.05838808925984

>  <Genealogy>  (71) 
Cc1ccc(-c2nc3cc([N-]C(=O)[N-]c4ccc(Cl)cc4)ccc3[n-]2)cc1[O-] (protonated)
Cc1ccc(-c2nc3cc([N-]C(=O)[N-]c4ccc(Cl)cc4)ccc3[n-]2)cc1[O-] (3D coordinates assigned)
Cc1ccc(-c2nc3cc([N-]C(=O)[N-]c4ccc(Cl)cc4)ccc3[n-]2)cc1[O-] (optimized conformer: 88.05838808925984 kcal/mol)

>  <smiles>  (71) 
Cc1ccc(-c2nc3cc(NC(=O)Nc4ccc(Cl)cc4)ccc3[nH]2)cc1O

>  <score_type>  (71) 
oracle

>  <origin>  (71) 
adg

>  <m_score__min__energy>  (71) 
-14.210000000000001

>  <m_primary>  (71) 
energy

$$$$
71:0
     RDKit          3D

 48 51  0  0  0  0  0  0  0  0999 V2000
   65.5280   33.0920   49.3400 O   0  0  0  0  0  0  0  0  0  0  0  0
   64.2240   33.1030   50.0840 S   0  0  0  0  0  0  0  0  0  0  0  0
   64.2990   34.1280   51.1820 O   0  0  0  0  0  0  0  0  0  0  0  0
   63.9530   31.5390   50.7870 N   0  0  0  0  0  0  0  0  0  0  0  0
   62.7120   30.8150   50.6900 C   0  0  0  0  0  0  0  0  0  0  0  0
   62.2060   30.0590   51.7640 C   0  0  0  0  0  0  0  0  0  0  0  0
   61.0030   29.3640   51.6320 C   0  0  0  0  0  0  0  0  0  0  0  0
   60.2930   29.4080   50.4310 C   0  0  0  0  0  0  0  0  0  0  0  0
   60.7860   30.1430   49.3390 C   0  0  0  0  0  0  0  0  0  0  0  0
   60.0460   30.2020   48.0520 C   0  0  0  0  0  0  0  0  0  0  0  0
   60.5010   29.5350   46.9070 C   0  0  0  0  0  0  0  0  0  0  0  0
   59.7790   29.6370   45.7200 C   0  0  0  0  0  0  0  0  0  0  0  0
   58.6030   30.4010   45.6890 C   0  0  0  0  0  0  0  0  0  0  0  0
   57.8170   30.5430   44.4850 N   0  0  0  0  0  0  0  0  0  0  0  0
   57.7700   31.8200   43.7570 C   0  0  0  0  0  0  0  0  0  0  0  0
   57.4240   31.5860   42.2830 C   0  0  0  0  0  0  0  0  0  0  0  0
   56.2740   30.7750   42.1580 O   0  0  0  0  0  0  0  0  0  0  0  0
   56.5530   29.4830   42.6550 C   0  0  0  0  0  0  0  0  0  0  0  0
   56.8070   29.5270   44.1620 C   0  0  0  0  0  0  0  0  0  0  0  0
   58.2160   31.0380   46.8280 N   0  0  0  0  0  0  0  0  0  0  0  0
   58.9070   30.9420   47.9640 N   0  0  0  0  0  0  0  0  0  0  0  0
   61.9940   30.8490   49.4840 C   0  0  0  0  0  0  0  0  0  0  0  0
   62.9270   33.4870   48.9560 C   0  0  0  0  0  0  0  0  0  0  0  0
   63.1230   33.3080   47.5790 C   0  0  0  0  0  0  0  0  0  0  0  0
   62.0950   33.6020   46.6770 C   0  0  0  0  0  0  0  0  0  0  0  0
   60.8670   34.0830   47.1470 C   0  0  0  0  0  0  0  0  0  0  0  0
   59.5790   34.4580   46.0160 Cl  0  0  0  0  0  0  0  0  0  0  0  0
   60.6680   34.2640   48.5220 C   0  0  0  0  0  0  0  0  0  0  0  0
   61.6960   33.9700   49.4240 C   0  0  0  0  0  0  0  0  0  0  0  0
   64.7650   31.0910   51.2680 H   0  0  0  0  0  0  0  0  0  0  0  0
   62.7617   30.0157   52.7124 H   0  0  0  0  0  0  0  0  0  0  0  0
   60.6127   28.7791   52.4779 H   0  0  0  0  0  0  0  0  0  0  0  0
   59.3415   28.8639   50.3385 H   0  0  0  0  0  0  0  0  0  0  0  0
   61.4221   28.9349   46.9451 H   0  0  0  0  0  0  0  0  0  0  0  0
   60.1287   29.1219   44.8132 H   0  0  0  0  0  0  0  0  0  0  0  0
   57.0043   32.4668   44.2101 H   0  0  0  0  0  0  0  0  0  0  0  0
   58.7576   32.3005   43.8182 H   0  0  0  0  0  0  0  0  0  0  0  0
   57.2353   32.5556   41.7990 H   0  0  0  0  0  0  0  0  0  0  0  0
   58.2695   31.0739   41.8004 H   0  0  0  0  0  0  0  0  0  0  0  0
   55.6950   28.8251   42.4525 H   0  0  0  0  0  0  0  0  0  0  0  0
   57.4546   29.0990   42.1554 H   0  0  0  0  0  0  0  0  0  0  0  0
   55.8682   29.7726   44.6801 H   0  0  0  0  0  0  0  0  0  0  0  0
   57.1752   28.5434   44.4891 H   0  0  0  0  0  0  0  0  0  0  0  0
   62.3822   31.4370   48.6392 H   0  0  0  0  0  0  0  0  0  0  0  0
   64.0886   32.9351   47.2068 H   0  0  0  0  0  0  0  0  0  0  0  0
   62.2515   33.4552   45.5981 H   0  0  0  0  0  0  0  0  0  0  0  0
   59.7022   34.6378   48.8927 H   0  0  0  0  0  0  0  0  0  0  0  0
   61.5387   34.1179   50.5026 H   0  0  0  0  0  0  0  0  0  0  0  0
  1  2  2  0
  2  3  2  0
  2  4  1  0
  4  5  1  0
  5  6  2  0
  6  7  1  0
  7  8  2  0
  8  9  1  0
  9 10  1  0
 10 11  2  0
 11 12  1  0
 12 13  2  0
 13 14  1  0
 14 15  1  0
 15 16  1  0
 16 17  1  0
 17 18  1  0
 18 19  1  0
 13 20  1  0
 20 21  2  0
  9 22  2  0
  2 23  1  0
 23 24  2  0
 24 25  1  0
 25 26  2  0
 26 27  1  0
 26 28  1  0
 28 29  2  0
 22  5  1  0
 29 23  1  0
 21 10  1  0
 19 14  1  0
  4 30  1  0
  6 31  1  0
  7 32  1  0
  8 33  1  0
 11 34  1  0
 12 35  1  0
 15 36  1  0
 15 37  1  0
 16 38  1  0
 16 39  1  0
 18 40  1  0
 18 41  1  0
 19 42  1  0
 19 43  1  0
 22 44  1  0
 24 45  1  0
 25 46  1  0
 28 47  1  0
 29 48  1  0
M  END
>  <UniqueID>  (72) 
68

>  <SMILES>  (72) 
O=S(=O)(Nc1cccc(-c2ccc(N3CCOCC3)nn2)c1)c1ccc(Cl)cc1

>  <Energy>  (72) 
63.54090877829311

>  <Genealogy>  (72) 
O=S(=O)(Nc1cccc(-c2ccc(N3CCOCC3)nn2)c1)c1ccc(Cl)cc1 (3D coordinates assigned)
O=S(=O)(Nc1cccc(-c2ccc(N3CCOCC3)nn2)c1)c1ccc(Cl)cc1 (nonaromatic ring conformer: 63.54090877829311 kcal/mol)

>  <smiles>  (72) 
O=S(=O)(Nc1cccc(-c2ccc(N3CCOCC3)nn2)c1)c1ccc(Cl)cc1

>  <score_type>  (72) 
oracle

>  <origin>  (72) 
adg

>  <m_score__min__energy>  (72) 
-9.8699999999999992

>  <m_primary>  (72) 
energy

$$$$
72:0
     RDKit          3D

 38 40  0  0  0  0  0  0  0  0999 V2000
   57.2970   32.5520   44.8220 C   0  0  0  0  0  0  0  0  0  0  0  0
   56.6310   31.2920   44.8240 O   0  0  0  0  0  0  0  0  0  0  0  0
   57.1860   30.1020   45.3200 C   0  0  0  0  0  0  0  0  0  0  0  0
   58.4750   30.0510   45.8810 C   0  0  0  0  0  0  0  0  0  0  0  0
   58.9930   28.8550   46.4150 C   0  0  0  0  0  0  0  0  0  0  0  0
   58.2450   27.6660   46.2460 C   0  0  0  0  0  0  0  0  0  0  0  0
   56.9560   27.7200   45.6980 C   0  0  0  0  0  0  0  0  0  0  0  0
   56.4280   28.9300   45.2470 C   0  0  0  0  0  0  0  0  0  0  0  0
   55.1470   28.9610   44.7070 O   0  0  0  0  0  0  0  0  0  0  0  0
   58.8030   26.3310   46.6530 C   0  0  0  0  0  0  0  0  0  0  0  0
   60.3250   26.3950   46.7630 C   0  0  0  0  0  0  0  0  0  0  0  0
   60.7180   27.5070   47.6280 N   0  0  0  0  0  0  0  0  0  0  0  0
   60.4020   28.8200   47.0260 C   0  0  2  0  0  0  0  0  0  0  0  0
   60.6120   29.9100   48.1170 C   0  0  0  0  0  0  0  0  0  0  0  0
   61.3500   31.1370   47.6380 C   0  0  0  0  0  0  0  0  0  0  0  0
   60.6410   32.2370   47.1220 C   0  0  0  0  0  0  0  0  0  0  0  0
   61.3240   33.3750   46.6840 C   0  0  0  0  0  0  0  0  0  0  0  0
   62.7180   33.4350   46.7770 C   0  0  0  0  0  0  0  0  0  0  0  0
   63.3960   34.5660   46.3410 O   0  0  0  0  0  0  0  0  0  0  0  0
   63.4280   32.3570   47.3120 C   0  0  0  0  0  0  0  0  0  0  0  0
   62.7490   31.2150   47.7470 C   0  0  0  0  0  0  0  0  0  0  0  0
   57.4690   32.8775   45.8586 H   0  0  0  0  0  0  0  0  0  0  0  0
   58.2621   32.4558   44.3029 H   0  0  0  0  0  0  0  0  0  0  0  0
   56.6740   33.2952   44.3029 H   0  0  0  0  0  0  0  0  0  0  0  0
   59.0902   30.9626   45.9031 H   0  0  0  0  0  0  0  0  0  0  0  0
   56.3560   26.8011   45.6230 H   0  0  0  0  0  0  0  0  0  0  0  0
   58.3818   26.0453   47.6282 H   0  0  0  0  0  0  0  0  0  0  0  0
   58.5338   25.5866   45.8892 H   0  0  0  0  0  0  0  0  0  0  0  0
   60.6993   25.4524   47.1889 H   0  0  0  0  0  0  0  0  0  0  0  0
   60.7532   26.5481   45.7614 H   0  0  0  0  0  0  0  0  0  0  0  0
   60.2170   27.4070   48.5440 H   0  0  0  0  0  0  0  0  0  0  0  0
   61.0784   29.0162   46.1810 H   0  0  0  0  0  0  0  0  0  0  0  0
   59.6239   30.2242   48.4842 H   0  0  0  0  0  0  0  0  0  0  0  0
   61.2353   29.4543   48.9005 H   0  0  0  0  0  0  0  0  0  0  0  0
   59.5432   32.2013   47.0629 H   0  0  0  0  0  0  0  0  0  0  0  0
   60.7643   34.2245   46.2656 H   0  0  0  0  0  0  0  0  0  0  0  0
   64.5240   32.4070   47.3911 H   0  0  0  0  0  0  0  0  0  0  0  0
   63.3124   30.3735   48.1766 H   0  0  0  0  0  0  0  0  0  0  0  0
  1  2  1  0
  2  3  1  0
  3  4  2  0
  4  5  1  0
  5  6  2  0
  6  7  1  0
  7  8  2  0
  8  9  1  0
  6 10  1  0
 10 11  1  0
 11 12  1  0
 12 13  1  0
 13 14  1  0
 14 15  1  0
 15 16  2  0
 16 17  1  0
 17 18  2  0
 18 19  1  0
 18 20  1  0
 20 21  2  0
  8  3  1  0
 21 15  1  0
 13  5  1  0
  1 22  1  0
  1 23  1  0
  1 24  1  0
  4 25  1  0
  7 26  1  0
 10 27  1  0
 10 28  1  0
 11 29  1  0
 11 30  1  0
 12 31  1  0
 13 32  1  6
 14 33  1  0
 14 34  1  0
 16 35  1  0
 17 36  1  0
 20 37  1  0
 21 38  1  0
M  CHG  2   9  -1  19  -1
M  END
>  <UniqueID>  (73) 
69

>  <SMILES>  (73) 
COc1cc2c(cc1[O-])CCN[C@@H]2Cc1ccc([O-])cc1

>  <Energy>  (73) 
44.901912028067734

>  <Genealogy>  (73) 
COc1cc2c(cc1[O-])CCNC2Cc1ccc([O-])cc1 (protonated)
COc1cc2c(cc1[O-])CCN[C@@H]2Cc1ccc([O-])cc1 (chirality)
COc1cc2c(cc1[O-])CCN[C@@H]2Cc1ccc([O-])cc1 (3D coordinates assigned)
COc1cc2c(cc1[O-])CCN[C@@H]2Cc1ccc([O-])cc1 (nonaromatic ring conformer: 44.901912028067734 kcal/mol)

>  <smiles>  (73) 
COc1cc2c(cc1O)CCNC2Cc1ccc(O)cc1

>  <score_type>  (73) 
oracle

>  <origin>  (73) 
adg

>  <m_score__min__energy>  (73) 
-10.92

>  <m_primary>  (73) 
energy

$$$$
73:0
     RDKit          3D

 46 49  0  0  0  0  0  0  0  0999 V2000
   63.3750   33.6050   46.4380 C   0  0  0  0  0  0  0  0  0  0  0  0
   63.0170   32.3920   47.0910 O   0  0  0  0  0  0  0  0  0  0  0  0
   62.4330   32.3160   48.3670 C   0  0  0  0  0  0  0  0  0  0  0  0
   62.8790   33.1170   49.4370 C   0  0  0  0  0  0  0  0  0  0  0  0
   62.2780   33.0170   50.6930 C   0  0  0  0  0  0  0  0  0  0  0  0
   61.2230   32.1270   50.8950 C   0  0  0  0  0  0  0  0  0  0  0  0
   60.7700   31.3280   49.8440 C   0  0  0  0  0  0  0  0  0  0  0  0
   61.3780   31.4050   48.5770 C   0  0  0  0  0  0  0  0  0  0  0  0
   60.8950   30.6030   47.4830 N   0  0  0  0  0  0  0  0  0  0  0  0
   60.1120   29.4110   47.6540 C   0  0  0  0  0  0  0  0  0  0  0  0
   60.1240   28.8020   48.7590 O   0  0  0  0  0  0  0  0  0  0  0  0
   59.3600   28.8350   46.5180 C   0  0  0  0  0  0  0  0  0  0  0  0
   58.3750   29.6170   45.8880 C   0  0  0  0  0  0  0  0  0  0  0  0
   57.6270   29.1030   44.8210 C   0  0  0  0  0  0  0  0  0  0  0  0
   56.3940   30.0900   44.0440 S   0  0  0  0  0  0  0  0  0  0  0  0
   56.7810   30.3420   42.6130 O   0  0  0  0  0  0  0  0  0  0  0  0
   55.0790   29.3660   44.1000 O   0  0  0  0  0  0  0  0  0  0  0  0
   56.2700   31.6080   44.8720 N   0  0  0  0  0  0  0  0  0  0  0  0
   57.3710   32.4720   45.1820 C   0  0  0  0  0  0  0  0  0  0  0  0
   58.1670   33.0740   44.1670 C   0  0  0  0  0  0  0  0  0  0  0  0
   59.2430   33.9180   44.5040 C   0  0  0  0  0  0  0  0  0  0  0  0
   59.4930   34.1380   45.8540 C   0  0  0  0  0  0  0  0  0  0  0  0
   60.4550   34.8990   46.4030 N   0  0  0  0  0  0  0  0  0  0  0  0
   60.3160   34.8130   47.7240 N   0  0  0  0  0  0  0  0  0  0  0  0
   59.2700   34.0030   48.0130 C   0  0  0  0  0  0  0  0  0  0  0  0
   58.7340   33.5640   46.8280 C   0  0  0  0  0  0  0  0  0  0  0  0
   57.6630   32.7240   46.5390 C   0  0  0  0  0  0  0  0  0  0  0  0
   57.8770   27.8060   44.3640 C   0  0  0  0  0  0  0  0  0  0  0  0
   58.8650   27.0260   44.9670 C   0  0  0  0  0  0  0  0  0  0  0  0
   59.6120   27.5290   46.0380 C   0  0  0  0  0  0  0  0  0  0  0  0
   60.9070   26.5230   46.6820 Cl  0  0  0  0  0  0  0  0  0  0  0  0
   63.6019   34.3738   47.1913 H   0  0  0  0  0  0  0  0  0  0  0  0
   64.2613   33.4351   45.8090 H   0  0  0  0  0  0  0  0  0  0  0  0
   62.5385   33.9435   45.8090 H   0  0  0  0  0  0  0  0  0  0  0  0
   63.7059   33.8256   49.2816 H   0  0  0  0  0  0  0  0  0  0  0  0
   62.6369   33.6410   51.5247 H   0  0  0  0  0  0  0  0  0  0  0  0
   60.7473   32.0548   51.8842 H   0  0  0  0  0  0  0  0  0  0  0  0
   59.9325   30.6337   50.0070 H   0  0  0  0  0  0  0  0  0  0  0  0
   61.1940   30.8510   46.5130 H   0  0  0  0  0  0  0  0  0  0  0  0
   58.1901   30.6436   46.2371 H   0  0  0  0  0  0  0  0  0  0  0  0
   57.9395   32.8781   43.1088 H   0  0  0  0  0  0  0  0  0  0  0  0
   59.8639   34.3868   43.7264 H   0  0  0  0  0  0  0  0  0  0  0  0
   58.9127   33.7426   49.0202 H   0  0  0  0  0  0  0  0  0  0  0  0
   57.0635   32.2712   47.3425 H   0  0  0  0  0  0  0  0  0  0  0  0
   57.2928   27.3984   43.5258 H   0  0  0  0  0  0  0  0  0  0  0  0
   59.0579   26.0080   44.5975 H   0  0  0  0  0  0  0  0  0  0  0  0
  1  2  1  0
  2  3  1  0
  3  4  2  0
  4  5  1  0
  5  6  2  0
  6  7  1  0
  7  8  2  0
  8  9  1  0
  9 10  1  0
 10 11  2  0
 10 12  1  0
 12 13  2  0
 13 14  1  0
 14 15  1  0
 15 16  2  0
 15 17  2  0
 15 18  1  0
 18 19  1  0
 19 20  2  0
 20 21  1  0
 21 22  2  0
 22 23  1  0
 23 24  1  0
 24 25  2  0
 25 26  1  0
 26 27  2  0
 14 28  2  0
 28 29  1  0
 29 30  2  0
 30 31  1  0
  8  3  1  0
 30 12  1  0
 27 19  1  0
 26 22  1  0
  1 32  1  0
  1 33  1  0
  1 34  1  0
  4 35  1  0
  5 36  1  0
  6 37  1  0
  7 38  1  0
  9 39  1  0
 13 40  1  0
 20 41  1  0
 21 42  1  0
 25 43  1  0
 27 44  1  0
 28 45  1  0
 29 46  1  0
M  CHG  2  18  -1  23  -1
M  END
>  <UniqueID>  (74) 
70

>  <SMILES>  (74) 
COc1ccccc1NC(=O)c1cc(S(=O)(=O)[N-]c2ccc3[n-]ncc3c2)ccc1Cl

>  <Energy>  (74) 
101.40161628341143

>  <Genealogy>  (74) 
COc1ccccc1NC(=O)c1cc(S(=O)(=O)[N-]c2ccc3[n-]ncc3c2)ccc1Cl (protonated)
COc1ccccc1NC(=O)c1cc(S(=O)(=O)[N-]c2ccc3[n-]ncc3c2)ccc1Cl (3D coordinates assigned)
COc1ccccc1NC(=O)c1cc(S(=O)(=O)[N-]c2ccc3[n-]ncc3c2)ccc1Cl (optimized conformer: 101.40161628341143 kcal/mol)

>  <smiles>  (74) 
COc1ccccc1NC(=O)c1cc(S(=O)(=O)Nc2ccc3[nH]ncc3c2)ccc1Cl

>  <score_type>  (74) 
oracle

>  <origin>  (74) 
adg

>  <m_score__min__energy>  (74) 
-11.99

>  <m_primary>  (74) 
energy

$$$$
74:0
     RDKit          3D

 44 46  0  0  0  0  0  0  0  0999 V2000
   56.1740   25.5570   46.0770 O   0  0  0  0  0  0  0  0  0  0  0  0
   56.5790   26.7370   46.2490 C   0  0  0  0  0  0  0  0  0  0  0  0
   57.8260   26.9690   47.0560 C   0  0  0  0  0  0  0  0  0  0  0  0
   59.2970   27.1090   45.9790 S   0  0  0  0  0  0  0  0  0  0  0  0
   60.0180   28.5030   46.8470 C   0  0  0  0  0  0  0  0  0  0  0  0
   60.6260   29.5430   46.1350 C   0  0  0  0  0  0  0  0  0  0  0  0
   61.1890   30.6120   46.8350 C   0  0  0  0  0  0  0  0  0  0  0  0
   61.1470   30.6270   48.2300 C   0  0  0  0  0  0  0  0  0  0  0  0
   60.5420   29.5650   48.9070 C   0  0  0  0  0  0  0  0  0  0  0  0
   59.9970   28.5330   48.2070 N   0  0  0  0  0  0  0  0  0  0  0  0
   55.8960   27.8030   45.5740 N   0  0  0  0  0  0  0  0  0  0  0  0
   56.4870   28.9780   45.0030 C   0  0  0  0  0  0  0  0  0  0  0  0
   57.3680   29.7870   45.7350 C   0  0  0  0  0  0  0  0  0  0  0  0
   57.9060   30.9430   45.1630 C   0  0  0  0  0  0  0  0  0  0  0  0
   57.5540   31.3220   43.8540 C   0  0  0  0  0  0  0  0  0  0  0  0
   58.1260   32.5460   43.2460 C   0  0  0  0  0  0  0  0  0  0  0  0
   58.3190   32.6010   42.0000 O   0  0  0  0  0  0  0  0  0  0  0  0
   58.4640   33.6690   44.0670 N   0  0  0  0  0  0  0  0  0  0  0  0
   57.6540   34.1190   45.1950 C   0  0  0  0  0  0  0  0  0  0  0  0
   58.4250   33.9810   46.4790 C   0  0  0  0  0  0  0  0  0  0  0  0
   59.6170   34.7020   46.6640 C   0  0  0  0  0  0  0  0  0  0  0  0
   60.3490   34.5610   47.8470 C   0  0  0  0  0  0  0  0  0  0  0  0
   59.9000   33.6970   48.8500 C   0  0  0  0  0  0  0  0  0  0  0  0
   58.7190   32.9710   48.6700 C   0  0  0  0  0  0  0  0  0  0  0  0
   57.9830   33.1100   47.4890 C   0  0  0  0  0  0  0  0  0  0  0  0
   56.6450   30.5230   43.1380 C   0  0  0  0  0  0  0  0  0  0  0  0
   56.1090   29.3680   43.7140 C   0  0  0  0  0  0  0  0  0  0  0  0
   57.7128   27.8999   47.6310 H   0  0  0  0  0  0  0  0  0  0  0  0
   57.9688   26.1110   47.7293 H   0  0  0  0  0  0  0  0  0  0  0  0
   60.6600   29.5186   45.0358 H   0  0  0  0  0  0  0  0  0  0  0  0
   61.6643   31.4400   46.2886 H   0  0  0  0  0  0  0  0  0  0  0  0
   61.5855   31.4659   48.7904 H   0  0  0  0  0  0  0  0  0  0  0  0
   60.5062   29.5631   50.0064 H   0  0  0  0  0  0  0  0  0  0  0  0
   57.6371   29.5102   46.7650 H   0  0  0  0  0  0  0  0  0  0  0  0
   58.6096   31.5611   45.7399 H   0  0  0  0  0  0  0  0  0  0  0  0
   57.3807   35.1742   45.0474 H   0  0  0  0  0  0  0  0  0  0  0  0
   56.7469   33.4996   45.2539 H   0  0  0  0  0  0  0  0  0  0  0  0
   59.9755   35.3798   45.8753 H   0  0  0  0  0  0  0  0  0  0  0  0
   61.2793   35.1307   47.9886 H   0  0  0  0  0  0  0  0  0  0  0  0
   60.4760   33.5884   49.7808 H   0  0  0  0  0  0  0  0  0  0  0  0
   58.3680   32.2892   49.4587 H   0  0  0  0  0  0  0  0  0  0  0  0
   57.0552   32.5356   47.3504 H   0  0  0  0  0  0  0  0  0  0  0  0
   56.3536   30.8093   42.1167 H   0  0  0  0  0  0  0  0  0  0  0  0
   55.3851   28.7616   43.1499 H   0  0  0  0  0  0  0  0  0  0  0  0
  1  2  2  0
  2  3  1  0
  3  4  1  0
  4  5  1  0
  5  6  2  0
  6  7  1  0
  7  8  2  0
  8  9  1  0
  9 10  2  0
  2 11  1  0
 11 12  1  0
 12 13  2  0
 13 14  1  0
 14 15  2  0
 15 16  1  0
 16 17  2  0
 16 18  1  0
 18 19  1  0
 19 20  1  0
 20 21  2  0
 21 22  1  0
 22 23  2  0
 23 24  1  0
 24 25  2  0
 15 26  1  0
 26 27  2  0
 10  5  1  0
 27 12  1  0
 25 20  1  0
  3 28  1  0
  3 29  1  0
  6 30  1  0
  7 31  1  0
  8 32  1  0
  9 33  1  0
 13 34  1  0
 14 35  1  0
 19 36  1  0
 19 37  1  0
 21 38  1  0
 22 39  1  0
 23 40  1  0
 24 41  1  0
 25 42  1  0
 26 43  1  0
 27 44  1  0
M  CHG  2  11  -1  18  -1
M  END
>  <UniqueID>  (75) 
71

>  <SMILES>  (75) 
O=C(CSc1ccccn1)[N-]c1ccc(C(=O)[N-]Cc2ccccc2)cc1

>  <Energy>  (75) 
47.407605246862424

>  <Genealogy>  (75) 
O=C(CSc1ccccn1)[N-]c1ccc(C(=O)[N-]Cc2ccccc2)cc1 (protonated)
O=C(CSc1ccccn1)[N-]c1ccc(C(=O)[N-]Cc2ccccc2)cc1 (3D coordinates assigned)
O=C(CSc1ccccn1)[N-]c1ccc(C(=O)[N-]Cc2ccccc2)cc1 (optimized conformer: 47.407605246862424 kcal/mol)

>  <smiles>  (75) 
O=C(CSc1ccccn1)Nc1ccc(C(=O)NCc2ccccc2)cc1

>  <score_type>  (75) 
oracle

>  <origin>  (75) 
adg

>  <m_score__min__energy>  (75) 
-11.1

>  <m_primary>  (75) 
energy

$$$$
75:0
     RDKit          3D

 42 44  0  0  0  0  0  0  0  0999 V2000
   59.2608   34.8156   43.9025 H   0  0  0  0  0  0  0  0  0  0  0  0
   58.8450   34.0430   44.5660 C   0  0  0  0  0  0  0  0  0  0  0  0
   59.1330   34.0680   45.9330 C   0  0  0  0  0  0  0  0  0  0  0  0
   59.7673   34.8657   46.3469 H   0  0  0  0  0  0  0  0  0  0  0  0
   58.6150   33.0790   46.7750 C   0  0  0  0  0  0  0  0  0  0  0  0
   59.0020   33.0960   48.4870 Cl  0  0  0  0  0  0  0  0  0  0  0  0
   57.7980   32.0710   46.2510 C   0  0  0  0  0  0  0  0  0  0  0  0
   57.4022   31.2865   46.9127 H   0  0  0  0  0  0  0  0  0  0  0  0
   57.4810   32.0580   44.8790 C   0  0  0  0  0  0  0  0  0  0  0  0
   56.6640   31.0330   44.2940 N   0  0  0  0  0  0  0  0  0  0  0  0
   56.3570   29.7510   44.8590 C   0  0  0  0  0  0  0  0  0  0  0  0
   55.1720   29.3240   44.8580 O   0  0  0  0  0  0  0  0  0  0  0  0
   57.4290   28.8920   45.3970 C   0  0  0  0  0  0  0  0  0  0  0  0
   58.0090   28.9940   46.9770 S   0  0  0  0  0  0  0  0  0  0  0  0
   59.1280   27.7510   46.7650 C   0  0  0  0  0  0  0  0  0  0  0  0
   59.9550   27.2880   47.6570 N   0  0  0  0  0  0  0  0  0  0  0  0
   60.5280   27.9880   48.7760 C   0  0  0  0  0  0  0  0  0  0  0  0
   60.5720   27.4510   49.9160 O   0  0  0  0  0  0  0  0  0  0  0  0
   61.0780   29.3520   48.5860 C   0  0  0  0  0  0  0  0  0  0  0  0
   61.5770   30.0800   49.6810 C   0  0  0  0  0  0  0  0  0  0  0  0
   61.5494   29.6382   50.6880 H   0  0  0  0  0  0  0  0  0  0  0  0
   62.1080   31.3610   49.5000 C   0  0  0  0  0  0  0  0  0  0  0  0
   62.4983   31.9190   50.3639 H   0  0  0  0  0  0  0  0  0  0  0  0
   62.1450   31.9360   48.2250 C   0  0  0  0  0  0  0  0  0  0  0  0
   62.8260   33.5410   47.9810 S   0  0  0  0  0  0  0  0  0  0  0  0
   62.4450   34.4440   49.1210 O   0  0  0  0  0  0  0  0  0  0  0  0
   62.2910   34.1230   46.7050 O   0  0  0  0  0  0  0  0  0  0  0  0
   64.5490   33.4330   47.8940 N   0  0  0  0  0  0  0  0  0  0  0  0
   64.7870   33.1110   46.9290 H   0  0  0  0  0  0  0  0  0  0  0  0
   64.8400   32.6710   48.5470 H   0  0  0  0  0  0  0  0  0  0  0  0
   61.6480   31.2180   47.1300 C   0  0  0  0  0  0  0  0  0  0  0  0
   61.6769   31.6644   46.1251 H   0  0  0  0  0  0  0  0  0  0  0  0
   61.1160   29.9390   47.3060 C   0  0  0  0  0  0  0  0  0  0  0  0
   60.7240   29.3862   46.4395 H   0  0  0  0  0  0  0  0  0  0  0  0
   59.0770   27.2490   45.5140 N   0  0  0  0  0  0  0  0  0  0  0  0
   58.1410   27.8730   44.7440 C   0  0  0  0  0  0  0  0  0  0  0  0
   57.9310   27.4640   43.3200 C   0  0  0  0  0  0  0  0  0  0  0  0
   57.4288   26.4858   43.2897 H   0  0  0  0  0  0  0  0  0  0  0  0
   57.3060   28.2130   42.8117 H   0  0  0  0  0  0  0  0  0  0  0  0
   58.9039   27.3925   42.8117 H   0  0  0  0  0  0  0  0  0  0  0  0
   58.0290   33.0370   44.0410 C   0  0  0  0  0  0  0  0  0  0  0  0
   57.8158   33.0141   42.9621 H   0  0  0  0  0  0  0  0  0  0  0  0
  1  2  1  0
  2  3  2  0
  3  4  1  0
  3  5  1  0
  5  6  1  0
  5  7  2  0
  7  8  1  0
  7  9  1  0
  9 10  1  0
 10 11  1  0
 11 12  2  0
 11 13  1  0
 13 14  1  0
 14 15  1  0
 15 16  2  0
 16 17  1  0
 17 18  2  0
 17 19  1  0
 19 20  2  0
 20 21  1  0
 20 22  1  0
 22 23  1  0
 22 24  2  0
 24 25  1  0
 25 26  2  0
 25 27  2  0
 25 28  1  0
 28 29  1  0
 28 30  1  0
 24 31  1  0
 31 32  1  0
 31 33  2  0
 33 34  1  0
 15 35  1  0
 35 36  1  0
 36 37  1  0
 37 38  1  0
 37 39  1  0
 37 40  1  0
  9 41  2  0
 41 42  1  0
 41  2  1  0
 36 13  2  0
 33 19  1  0
M  CHG  2  10  -1  35  -1
M  END
>  <UniqueID>  (76) 
72

>  <SMILES>  (76) 
Cc1[n-]/c(=N/C(=O)c2ccc(S(N)(=O)=O)cc2)sc1C(=O)[N-]c1cccc(Cl)c1

>  <Energy>  (76) 
80.64008973001884

>  <Genealogy>  (76) 
Cc1[n-]c(=NC(=O)c2ccc(S(N)(=O)=O)cc2)sc1C(=O)[N-]c1cccc(Cl)c1 (protonated)
Cc1[n-]/c(=N/C(=O)c2ccc(S(N)(=O)=O)cc2)sc1C(=O)[N-]c1cccc(Cl)c1 (cis-trans isomerization)
Cc1[n-]/c(=N/C(=O)c2ccc(S(N)(=O)=O)cc2)sc1C(=O)[N-]c1cccc(Cl)c1 (3D coordinates assigned)
Cc1[n-]/c(=N/C(=O)c2ccc(S(N)(=O)=O)cc2)sc1C(=O)[N-]c1cccc(Cl)c1 (optimized conformer: 80.64008973001884 kcal/mol)

>  <smiles>  (76) 
Cc1[nH]c(=NC(=O)c2ccc(S(N)(=O)=O)cc2)sc1C(=O)Nc1cccc(Cl)c1

>  <score_type>  (76) 
oracle

>  <origin>  (76) 
adg

>  <m_score__min__energy>  (76) 
-11.94

>  <m_primary>  (76) 
energy

$$$$
76:0
     RDKit          3D

 40 42  0  0  0  0  0  0  0  0999 V2000
   60.2020   30.8730   50.2800 H   0  0  0  0  0  0  0  0  0  0  0  0
   59.4460   30.3060   50.6540 O   0  0  0  0  0  0  0  0  0  0  0  0
   58.3060   30.8750   51.2200 C   0  0  0  0  0  0  0  0  0  0  0  0
   57.1460   30.1690   51.3070 N   0  0  0  0  0  0  0  0  0  0  0  0
   56.1720   30.8810   51.9130 C   0  0  0  0  0  0  0  0  0  0  0  0
   55.0050   30.3650   52.1680 N   0  0  0  0  0  0  0  0  0  0  0  0
   53.7740   30.6240   51.4730 C   0  0  0  0  0  0  0  0  0  0  0  0
   53.2790   29.7500   50.4850 C   0  0  0  0  0  0  0  0  0  0  0  0
   53.8595   28.8614   50.1964 H   0  0  0  0  0  0  0  0  0  0  0  0
   52.0480   30.0120   49.8700 C   0  0  0  0  0  0  0  0  0  0  0  0
   51.6712   29.3374   49.0871 H   0  0  0  0  0  0  0  0  0  0  0  0
   51.2950   31.1320   50.2500 C   0  0  0  0  0  0  0  0  0  0  0  0
   50.3312   31.3372   49.7612 H   0  0  0  0  0  0  0  0  0  0  0  0
   51.7680   31.9900   51.2510 C   0  0  0  0  0  0  0  0  0  0  0  0
   51.0120   33.0970   51.6380 O   0  0  0  0  0  0  0  0  0  0  0  0
   53.0000   31.7290   51.8680 C   0  0  0  0  0  0  0  0  0  0  0  0
   53.3630   32.3932   52.6662 H   0  0  0  0  0  0  0  0  0  0  0  0
   56.7150   32.4090   52.3870 S   0  0  0  0  0  0  0  0  0  0  0  0
   58.2570   32.1680   51.7530 C   0  0  0  0  0  0  0  0  0  0  0  0
   59.3960   33.1250   51.9250 C   0  0  0  0  0  0  0  0  0  0  0  0
   60.0645   32.7601   52.7187 H   0  0  0  0  0  0  0  0  0  0  0  0
   59.0039   34.1149   52.2013 H   0  0  0  0  0  0  0  0  0  0  0  0
   60.1610   33.2320   50.6360 C   0  0  0  0  0  0  0  0  0  0  0  0
   59.6820   33.9180   49.6850 O   0  0  0  0  0  0  0  0  0  0  0  0
   61.3510   32.4680   50.4140 N   0  0  0  0  0  0  0  0  0  0  0  0
   62.1840   32.5710   49.2490 C   0  0  0  0  0  0  0  0  0  0  0  0
   62.9330   33.7360   49.0060 C   0  0  0  0  0  0  0  0  0  0  0  0
   62.9032   34.5659   49.7273 H   0  0  0  0  0  0  0  0  0  0  0  0
   63.7150   33.8450   47.8530 C   0  0  0  0  0  0  0  0  0  0  0  0
   64.3031   34.7569   47.6725 H   0  0  0  0  0  0  0  0  0  0  0  0
   63.7510   32.7950   46.9270 C   0  0  0  0  0  0  0  0  0  0  0  0
   64.3740   32.8789   46.0243 H   0  0  0  0  0  0  0  0  0  0  0  0
   62.9950   31.6400   47.1500 C   0  0  0  0  0  0  0  0  0  0  0  0
   63.0190   30.8201   46.4171 H   0  0  0  0  0  0  0  0  0  0  0  0
   62.2000   31.5210   48.3130 C   0  0  0  0  0  0  0  0  0  0  0  0
   61.4300   30.3750   48.5740 O   0  0  0  0  0  0  0  0  0  0  0  0
   60.3350   29.9400   47.7690 C   0  0  0  0  0  0  0  0  0  0  0  0
   59.5099   29.6122   48.4185 H   0  0  0  0  0  0  0  0  0  0  0  0
   59.9939   30.7709   47.1340 H   0  0  0  0  0  0  0  0  0  0  0  0
   60.6571   29.1015   47.1340 H   0  0  0  0  0  0  0  0  0  0  0  0
  1  2  1  0
  2  3  1  0
  3  4  1  0
  4  5  1  0
  5  6  2  0
  6  7  1  0
  7  8  2  0
  8  9  1  0
  8 10  1  0
 10 11  1  0
 10 12  2  0
 12 13  1  0
 12 14  1  0
 14 15  1  0
 14 16  2  0
 16 17  1  0
  5 18  1  0
 18 19  1  0
 19 20  1  0
 20 21  1  0
 20 22  1  0
 20 23  1  0
 23 24  2  0
 23 25  1  0
 25 26  1  0
 26 27  2  0
 27 28  1  0
 27 29  1  0
 29 30  1  0
 29 31  2  0
 31 32  1  0
 31 33  1  0
 33 34  1  0
 33 35  2  0
 35 36  1  0
 36 37  1  0
 37 38  1  0
 37 39  1  0
 37 40  1  0
 19  3  2  0
 35 26  1  0
 16  7  1  0
M  CHG  3   4  -1  15  -1  25  -1
M  END
>  <UniqueID>  (77) 
73

>  <SMILES>  (77) 
COc1ccccc1[N-]C(=O)Cc1s/c(=N\c2cccc([O-])c2)[n-]c1O

>  <Energy>  (77) 
82.33518457232758

>  <Genealogy>  (77) 
COc1ccccc1[N-]C(=O)Cc1sc(=Nc2cccc([O-])c2)[n-]c1O (protonated)
COc1ccccc1[N-]C(=O)Cc1s/c(=N\c2cccc([O-])c2)[n-]c1O (cis-trans isomerization)
COc1ccccc1[N-]C(=O)Cc1s/c(=N\c2cccc([O-])c2)[n-]c1O (3D coordinates assigned)
COc1ccccc1[N-]C(=O)Cc1s/c(=N\c2cccc([O-])c2)[n-]c1O (optimized conformer: 82.33518457232758 kcal/mol)

>  <smiles>  (77) 
COc1ccccc1NC(=O)Cc1sc(=Nc2cccc(O)c2)[nH]c1O

>  <score_type>  (77) 
oracle

>  <origin>  (77) 
adg

>  <m_score__min__energy>  (77) 
-13.27

>  <m_primary>  (77) 
energy

$$$$
77:0
     RDKit          3D

 65 68  0  0  0  0  0  0  0  0999 V2000
   55.4560   29.8490   52.3990 C   0  0  0  0  0  0  0  0  0  0  0  0
   56.6610   29.7590   51.6520 O   0  0  0  0  0  0  0  0  0  0  0  0
   57.5300   30.8360   51.4150 C   0  0  0  0  0  0  0  0  0  0  0  0
   57.5490   31.9780   52.2410 C   0  0  0  0  0  0  0  0  0  0  0  0
   58.4420   33.0210   51.9840 C   0  0  0  0  0  0  0  0  0  0  0  0
   59.3460   32.9300   50.9150 C   0  0  0  0  0  0  0  0  0  0  0  0
   60.2910   33.9720   50.6380 N   0  0  0  0  0  0  0  0  0  0  0  0
   61.6940   33.8000   50.3900 C   0  0  0  0  0  0  0  0  0  0  0  0
   62.4820   33.8240   51.3720 O   0  0  0  0  0  0  0  0  0  0  0  0
   62.2420   33.6690   49.0160 C   0  0  0  0  0  0  0  0  0  0  0  0
   61.4380   33.9630   47.8970 C   0  0  0  0  0  0  0  0  0  0  0  0
   61.9560   33.8480   46.6010 C   0  0  0  0  0  0  0  0  0  0  0  0
   63.2830   33.4490   46.4070 C   0  0  0  0  0  0  0  0  0  0  0  0
   64.0940   33.1700   47.5100 C   0  0  0  0  0  0  0  0  0  0  0  0
   63.5820   33.2810   48.8100 C   0  0  0  0  0  0  0  0  0  0  0  0
   64.3920   32.9860   49.8590 F   0  0  0  0  0  0  0  0  0  0  0  0
   59.3080   31.8110   50.0780 C   0  0  0  0  0  0  0  0  0  0  0  0
   58.3970   30.7650   50.3150 C   0  0  0  0  0  0  0  0  0  0  0  0
   58.3560   29.6240   49.5000 O   0  0  0  0  0  0  0  0  0  0  0  0
   59.3570   29.2400   48.5960 C   0  0  0  0  0  0  0  0  0  0  0  0
   60.3530   28.5690   48.9770 O   0  0  0  0  0  0  0  0  0  0  0  0
   59.2790   29.7030   47.1680 C   0  0  2  0  0  0  0  0  0  0  0  0
   59.9530   31.0740   46.9980 C   0  0  0  0  0  0  0  0  0  0  0  0
   59.0140   32.0880   46.3930 C   0  0  0  0  0  0  0  0  0  0  0  0
   58.2470   32.9250   47.2190 C   0  0  0  0  0  0  0  0  0  0  0  0
   57.3450   33.8350   46.6570 C   0  0  0  0  0  0  0  0  0  0  0  0
   57.2100   33.9200   45.2680 C   0  0  0  0  0  0  0  0  0  0  0  0
   57.9700   33.0910   44.4400 C   0  0  0  0  0  0  0  0  0  0  0  0
   58.8600   32.1690   44.9980 C   0  0  0  0  0  0  0  0  0  0  0  0
   57.8820   29.8020   46.7580 N   0  0  0  0  0  0  0  0  0  0  0  0
   57.4180   29.4210   45.4620 C   0  0  0  0  0  0  0  0  0  0  0  0
   56.1790   29.3680   45.2430 O   0  0  0  0  0  0  0  0  0  0  0  0
   58.3370   29.1100   44.4510 O   0  0  0  0  0  0  0  0  0  0  0  0
   59.2260   27.9950   44.5140 C   0  0  0  0  0  0  0  0  0  0  0  0
   58.5410   26.8090   45.1310 C   0  0  0  0  0  0  0  0  0  0  0  0
   57.7870   25.9280   44.3390 C   0  0  0  0  0  0  0  0  0  0  0  0
   57.1260   24.8480   44.9250 C   0  0  0  0  0  0  0  0  0  0  0  0
   57.2160   24.6320   46.3000 C   0  0  0  0  0  0  0  0  0  0  0  0
   57.9690   25.5000   47.0930 C   0  0  0  0  0  0  0  0  0  0  0  0
   58.6220   26.5900   46.5130 C   0  0  0  0  0  0  0  0  0  0  0  0
   55.6888   29.8316   53.4739 H   0  0  0  0  0  0  0  0  0  0  0  0
   54.9400   30.7882   52.1507 H   0  0  0  0  0  0  0  0  0  0  0  0
   54.8062   28.9969   52.1507 H   0  0  0  0  0  0  0  0  0  0  0  0
   56.8566   32.0483   53.0929 H   0  0  0  0  0  0  0  0  0  0  0  0
   58.4364   33.9170   52.6221 H   0  0  0  0  0  0  0  0  0  0  0  0
   60.3963   34.2851   48.0423 H   0  0  0  0  0  0  0  0  0  0  0  0
   61.3180   34.0719   45.7333 H   0  0  0  0  0  0  0  0  0  0  0  0
   63.6869   33.3552   45.3882 H   0  0  0  0  0  0  0  0  0  0  0  0
   65.1389   32.8619   47.3574 H   0  0  0  0  0  0  0  0  0  0  0  0
   59.9984   31.7474   49.2240 H   0  0  0  0  0  0  0  0  0  0  0  0
   59.8047   28.9692   46.5393 H   0  0  0  0  0  0  0  0  0  0  0  0
   60.2796   31.4351   47.9844 H   0  0  0  0  0  0  0  0  0  0  0  0
   60.8094   30.9524   46.3184 H   0  0  0  0  0  0  0  0  0  0  0  0
   58.3556   32.8651   48.3120 H   0  0  0  0  0  0  0  0  0  0  0  0
   56.7415   34.4841   47.3085 H   0  0  0  0  0  0  0  0  0  0  0  0
   56.5049   34.6401   44.8272 H   0  0  0  0  0  0  0  0  0  0  0  0
   57.8680   33.1638   43.3472 H   0  0  0  0  0  0  0  0  0  0  0  0
   59.4422   31.5041   44.3430 H   0  0  0  0  0  0  0  0  0  0  0  0
   59.5530   27.7350   43.4964 H   0  0  0  0  0  0  0  0  0  0  0  0
   60.0933   28.2666   45.1337 H   0  0  0  0  0  0  0  0  0  0  0  0
   57.7173   26.0899   43.2532 H   0  0  0  0  0  0  0  0  0  0  0  0
   56.5319   24.1646   44.3005 H   0  0  0  0  0  0  0  0  0  0  0  0
   56.6945   23.7791   46.7589 H   0  0  0  0  0  0  0  0  0  0  0  0
   58.0481   25.3252   48.1761 H   0  0  0  0  0  0  0  0  0  0  0  0
   59.2024   27.2796   47.1436 H   0  0  0  0  0  0  0  0  0  0  0  0
  1  2  1  0
  2  3  1  0
  3  4  2  0
  4  5  1  0
  5  6  2  0
  6  7  1  0
  7  8  1  0
  8  9  2  0
  8 10  1  0
 10 11  2  0
 11 12  1  0
 12 13  2  0
 13 14  1  0
 14 15  2  0
 15 16  1  0
  6 17  1  0
 17 18  2  0
 18 19  1  0
 19 20  1  0
 20 21  2  0
 20 22  1  0
 22 23  1  0
 23 24  1  0
 24 25  2  0
 25 26  1  0
 26 27  2  0
 27 28  1  0
 28 29  2  0
 22 30  1  0
 30 31  1  0
 31 32  2  0
 31 33  1  0
 33 34  1  0
 34 35  1  0
 35 36  2  0
 36 37  1  0
 37 38  2  0
 38 39  1  0
 39 40  2  0
 18  3  1  0
 29 24  1  0
 40 35  1  0
 15 10  1  0
  1 41  1  0
  1 42  1  0
  1 43  1  0
  4 44  1  0
  5 45  1  0
 11 46  1  0
 12 47  1  0
 13 48  1  0
 14 49  1  0
 17 50  1  0
 22 51  1  6
 23 52  1  0
 23 53  1  0
 25 54  1  0
 26 55  1  0
 27 56  1  0
 28 57  1  0
 29 58  1  0
 34 59  1  0
 34 60  1  0
 36 61  1  0
 37 62  1  0
 38 63  1  0
 39 64  1  0
 40 65  1  0
M  CHG  2   7  -1  30  -1
M  END
>  <UniqueID>  (78) 
74

>  <SMILES>  (78) 
COc1ccc([N-]C(=O)c2ccccc2F)cc1OC(=O)[C@H](Cc1ccccc1)[N-]C(=O)OCc1ccccc1

>  <Energy>  (78) 
69.12568769698679

>  <Genealogy>  (78) 
COc1ccc([N-]C(=O)c2ccccc2F)cc1OC(=O)C(Cc1ccccc1)[N-]C(=O)OCc1ccccc1 (protonated)
COc1ccc([N-]C(=O)c2ccccc2F)cc1OC(=O)[C@H](Cc1ccccc1)[N-]C(=O)OCc1ccccc1 (chirality)
COc1ccc([N-]C(=O)c2ccccc2F)cc1OC(=O)[C@H](Cc1ccccc1)[N-]C(=O)OCc1ccccc1 (3D coordinates assigned)
COc1ccc([N-]C(=O)c2ccccc2F)cc1OC(=O)[C@H](Cc1ccccc1)[N-]C(=O)OCc1ccccc1 (optimized conformer: 69.12568769698679 kcal/mol)

>  <smiles>  (78) 
COc1ccc(NC(=O)c2ccccc2F)cc1OC(=O)C(Cc1ccccc1)NC(=O)OCc1ccccc1

>  <score_type>  (78) 
oracle

>  <origin>  (78) 
adg

>  <m_score__min__energy>  (78) 
-11.699999999999999

>  <m_primary>  (78) 
energy

$$$$
78:0
     RDKit          3D

 38 40  0  0  0  0  0  0  0  0999 V2000
   60.3500   34.7440   46.4070 C   0  0  0  0  0  0  0  0  0  0  0  0
   59.1290   34.9430   45.5170 C   0  0  0  0  0  0  0  0  0  0  0  0
   58.6620   33.6560   45.0000 N   0  0  0  0  0  0  0  0  0  0  0  0
   58.4430   33.4390   43.7110 N   0  0  0  0  0  0  0  0  0  0  0  0
   57.9810   32.1820   43.5760 C   0  0  0  0  0  0  0  0  0  0  0  0
   57.9090   31.5790   44.8190 C   0  0  0  0  0  0  0  0  0  0  0  0
   57.4480   30.2040   45.0820 C   0  0  0  0  0  0  0  0  0  0  0  0
   56.2230   29.9410   44.9470 O   0  0  0  0  0  0  0  0  0  0  0  0
   58.3760   29.1750   45.4680 N   0  0  0  0  0  0  0  0  0  0  0  0
   57.9950   27.8260   45.7840 C   0  0  0  0  0  0  0  0  0  0  0  0
   58.9350   26.8840   46.2460 C   0  0  0  0  0  0  0  0  0  0  0  0
   58.5310   25.5860   46.5780 C   0  0  0  0  0  0  0  0  0  0  0  0
   57.1860   25.2260   46.4700 C   0  0  0  0  0  0  0  0  0  0  0  0
   56.2460   26.1540   46.0060 C   0  0  0  0  0  0  0  0  0  0  0  0
   56.6440   27.4560   45.6880 C   0  0  0  0  0  0  0  0  0  0  0  0
   54.9110   25.7590   45.8690 O   0  0  0  0  0  0  0  0  0  0  0  0
   54.5400   24.3800   45.9230 C   0  0  0  0  0  0  0  0  0  0  0  0
   55.3670   23.6480   46.9870 C   0  0  0  0  0  0  0  0  0  0  0  0
   56.7570   23.9420   46.8250 O   0  0  0  0  0  0  0  0  0  0  0  0
   58.3220   32.5580   45.7120 C   0  0  0  0  0  0  0  0  0  0  0  0
   58.3640   32.4560   47.2090 C   0  0  0  0  0  0  0  0  0  0  0  0
   60.0460   34.7935   47.4630 H   0  0  0  0  0  0  0  0  0  0  0  0
   60.7982   33.7610   46.2002 H   0  0  0  0  0  0  0  0  0  0  0  0
   61.0871   35.5339   46.2002 H   0  0  0  0  0  0  0  0  0  0  0  0
   58.3250   35.4118   46.1034 H   0  0  0  0  0  0  0  0  0  0  0  0
   59.4046   35.5897   44.6709 H   0  0  0  0  0  0  0  0  0  0  0  0
   57.7033   31.7071   42.6235 H   0  0  0  0  0  0  0  0  0  0  0  0
   59.3820   29.4240   45.5840 H   0  0  0  0  0  0  0  0  0  0  0  0
   59.9923   27.1703   46.3463 H   0  0  0  0  0  0  0  0  0  0  0  0
   59.2720   24.8501   46.9236 H   0  0  0  0  0  0  0  0  0  0  0  0
   55.8959   28.1933   45.3614 H   0  0  0  0  0  0  0  0  0  0  0  0
   53.4723   24.3010   46.1754 H   0  0  0  0  0  0  0  0  0  0  0  0
   54.7302   23.9195   44.9423 H   0  0  0  0  0  0  0  0  0  0  0  0
   55.0416   23.9728   47.9863 H   0  0  0  0  0  0  0  0  0  0  0  0
   55.2153   22.5643   46.8747 H   0  0  0  0  0  0  0  0  0  0  0  0
   57.9804   33.3875   47.6509 H   0  0  0  0  0  0  0  0  0  0  0  0
   57.7407   31.6109   47.5366 H   0  0  0  0  0  0  0  0  0  0  0  0
   59.4017   32.2949   47.5366 H   0  0  0  0  0  0  0  0  0  0  0  0
  1  2  1  0
  2  3  1  0
  3  4  1  0
  4  5  2  0
  5  6  1  0
  6  7  1  0
  7  8  2  0
  7  9  1  0
  9 10  1  0
 10 11  2  0
 11 12  1  0
 12 13  2  0
 13 14  1  0
 14 15  2  0
 14 16  1  0
 16 17  1  0
 17 18  1  0
 18 19  1  0
  6 20  2  0
 20 21  1  0
 20  3  1  0
 15 10  1  0
 19 13  1  0
  1 22  1  0
  1 23  1  0
  1 24  1  0
  2 25  1  0
  2 26  1  0
  5 27  1  0
  9 28  1  0
 11 29  1  0
 12 30  1  0
 15 31  1  0
 17 32  1  0
 17 33  1  0
 18 34  1  0
 18 35  1  0
 21 36  1  0
 21 37  1  0
 21 38  1  0
M  END
>  <UniqueID>  (79) 
75

>  <SMILES>  (79) 
CCn1ncc(C(=O)Nc2ccc3c(c2)OCCO3)c1C

>  <Energy>  (79) 
73.65932487451863

>  <Genealogy>  (79) 
CCn1ncc(C(=O)Nc2ccc3c(c2)OCCO3)c1C (3D coordinates assigned)
CCn1ncc(C(=O)Nc2ccc3c(c2)OCCO3)c1C (nonaromatic ring conformer: 73.65932487451863 kcal/mol)

>  <smiles>  (79) 
CCn1ncc(C(=O)Nc2ccc3c(c2)OCCO3)c1C

>  <score_type>  (79) 
oracle

>  <origin>  (79) 
adg

>  <m_score__min__energy>  (79) 
-7.1699999999999999

>  <m_primary>  (79) 
energy

$$$$
79:0
     RDKit          3D

 26 27  0  0  0  0  0  0  0  0999 V2000
   56.8960   25.7310   44.6130 O   0  0  0  0  0  0  0  0  0  0  0  0
   56.5590   26.4880   45.8670 S   0  0  0  0  0  0  0  0  0  0  0  0
   57.1260   25.7550   47.0500 O   0  0  0  0  0  0  0  0  0  0  0  0
   54.8880   26.5820   46.0090 O   0  0  0  0  0  0  0  0  0  0  0  0
   57.2360   28.1150   45.8040 C   0  0  0  0  0  0  0  0  0  0  0  0
   58.5370   28.3580   46.2660 C   0  0  0  0  0  0  0  0  0  0  0  0
   59.0750   29.6480   46.2190 C   0  0  0  0  0  0  0  0  0  0  0  0
   58.3160   30.7170   45.7150 C   0  0  0  0  0  0  0  0  0  0  0  0
   58.8870   32.0840   45.6520 C   0  0  0  0  0  0  0  0  0  0  0  0
   58.4690   32.9660   44.6400 C   0  0  0  0  0  0  0  0  0  0  0  0
   59.0010   34.2540   44.5570 C   0  0  0  0  0  0  0  0  0  0  0  0
   59.9550   34.6780   45.4830 C   0  0  0  0  0  0  0  0  0  0  0  0
   60.3780   33.8200   46.5030 C   0  0  0  0  0  0  0  0  0  0  0  0
   61.3260   34.2750   47.4190 O   0  0  0  0  0  0  0  0  0  0  0  0
   59.8420   32.5230   46.5940 C   0  0  0  0  0  0  0  0  0  0  0  0
   60.2430   31.6850   47.6310 O   0  0  0  0  0  0  0  0  0  0  0  0
   57.0140   30.4700   45.2460 C   0  0  0  0  0  0  0  0  0  0  0  0
   56.4750   29.1800   45.2940 C   0  0  0  0  0  0  0  0  0  0  0  0
   55.1790   28.9680   44.8350 O   0  0  0  0  0  0  0  0  0  0  0  0
   59.1382   27.5291   46.6679 H   0  0  0  0  0  0  0  0  0  0  0  0
   60.0990   29.8266   46.5790 H   0  0  0  0  0  0  0  0  0  0  0  0
   57.7165   32.6384   43.9076 H   0  0  0  0  0  0  0  0  0  0  0  0
   58.6677   34.9356   43.7606 H   0  0  0  0  0  0  0  0  0  0  0  0
   60.3761   35.6916   45.4103 H   0  0  0  0  0  0  0  0  0  0  0  0
   61.6610   33.6960   48.1790 H   0  0  0  0  0  0  0  0  0  0  0  0
   56.4146   31.2973   44.8382 H   0  0  0  0  0  0  0  0  0  0  0  0
  1  2  2  0
  2  3  2  0
  2  4  1  0
  2  5  1  0
  5  6  2  0
  6  7  1  0
  7  8  2  0
  8  9  1  0
  9 10  2  0
 10 11  1  0
 11 12  2  0
 12 13  1  0
 13 14  1  0
 13 15  2  0
 15 16  1  0
  8 17  1  0
 17 18  2  0
 18 19  1  0
 18  5  1  0
 15  9  1  0
  6 20  1  0
  7 21  1  0
 10 22  1  0
 11 23  1  0
 12 24  1  0
 14 25  1  0
 17 26  1  0
M  CHG  3   4  -1  16  -1  19  -1
M  END
>  <UniqueID>  (80) 
76

>  <SMILES>  (80) 
O=S(=O)([O-])c1ccc(-c2cccc(O)c2[O-])cc1[O-]

>  <Energy>  (80) 
35.611919140343495

>  <Genealogy>  (80) 
O=S(=O)([O-])c1ccc(-c2cccc(O)c2[O-])cc1[O-] (protonated)
O=S(=O)([O-])c1ccc(-c2cccc(O)c2[O-])cc1[O-] (3D coordinates assigned)
O=S(=O)([O-])c1ccc(-c2cccc(O)c2[O-])cc1[O-] (optimized conformer: 35.611919140343495 kcal/mol)

>  <smiles>  (80) 
O=S(=O)(O)c1ccc(-c2cccc(O)c2O)cc1O

>  <score_type>  (80) 
oracle

>  <origin>  (80) 
adg

>  <m_score__min__energy>  (80) 
-14.289999999999999

>  <m_primary>  (80) 
energy

$$$$
80:0
     RDKit          3D

 47 49  0  0  0  0  0  0  0  0999 V2000
   60.3600   28.9880   46.7600 C   0  0  0  0  0  0  0  0  0  0  0  0
   59.9320   29.1400   48.2140 C   0  0  0  0  0  0  0  0  0  0  0  0
   61.0720   29.3120   49.0520 O   0  0  0  0  0  0  0  0  0  0  0  0
   61.3880   30.5200   49.6900 C   0  0  0  0  0  0  0  0  0  0  0  0
   61.1070   30.6850   50.9090 O   0  0  0  0  0  0  0  0  0  0  0  0
   62.0620   31.5940   48.9290 C   0  0  0  0  0  0  0  0  0  0  0  0
   63.3910   31.9530   49.2120 C   0  0  0  0  0  0  0  0  0  0  0  0
   64.0290   32.9450   48.4630 C   0  0  0  0  0  0  0  0  0  0  0  0
   63.3560   33.5750   47.4130 C   0  0  0  0  0  0  0  0  0  0  0  0
   62.0340   33.2220   47.1040 C   0  0  0  0  0  0  0  0  0  0  0  0
   61.3800   33.8510   45.9880 N   0  0  0  0  0  0  0  0  0  0  0  0
   59.7050   34.3120   45.9990 S   0  0  0  0  0  0  0  0  0  0  0  0
   59.3200   34.7300   47.3900 O   0  0  0  0  0  0  0  0  0  0  0  0
   59.5010   35.4700   45.0650 O   0  0  0  0  0  0  0  0  0  0  0  0
   58.7100   32.9630   45.4530 C   0  0  0  0  0  0  0  0  0  0  0  0
   58.1410   32.9930   44.1730 C   0  0  0  0  0  0  0  0  0  0  0  0
   57.4000   31.9040   43.7060 C   0  0  0  0  0  0  0  0  0  0  0  0
   57.2230   30.7730   44.5150 C   0  0  0  0  0  0  0  0  0  0  0  0
   56.2870   29.3940   43.9450 S   0  0  0  0  0  0  0  0  0  0  0  0
   57.0500   28.7020   42.8510 O   0  0  0  0  0  0  0  0  0  0  0  0
   54.9630   29.8510   43.3950 O   0  0  0  0  0  0  0  0  0  0  0  0
   56.0180   28.2820   45.2480 N   0  0  0  0  0  0  0  0  0  0  0  0
   57.1420   27.3540   45.3100 C   0  0  0  0  0  0  0  0  0  0  0  0
   57.6090   27.0450   46.7200 C   0  0  0  0  0  0  0  0  0  0  0  0
   56.7650   26.0350   45.9590 C   0  0  0  0  0  0  0  0  0  0  0  0
   57.7850   30.7470   45.7980 C   0  0  0  0  0  0  0  0  0  0  0  0
   58.5240   31.8360   46.2660 C   0  0  0  0  0  0  0  0  0  0  0  0
   61.3850   32.2510   47.8880 C   0  0  0  0  0  0  0  0  0  0  0  0
   61.3959   28.6201   46.7192 H   0  0  0  0  0  0  0  0  0  0  0  0
   59.6960   28.2707   46.2554 H   0  0  0  0  0  0  0  0  0  0  0  0
   60.2972   29.9634   46.2554 H   0  0  0  0  0  0  0  0  0  0  0  0
   59.2765   30.0182   48.3090 H   0  0  0  0  0  0  0  0  0  0  0  0
   59.3945   28.2319   48.5246 H   0  0  0  0  0  0  0  0  0  0  0  0
   63.9317   31.4503   50.0275 H   0  0  0  0  0  0  0  0  0  0  0  0
   65.0643   33.2309   48.7007 H   0  0  0  0  0  0  0  0  0  0  0  0
   63.8659   34.3525   46.8251 H   0  0  0  0  0  0  0  0  0  0  0  0
   61.8830   33.9170   45.0750 H   0  0  0  0  0  0  0  0  0  0  0  0
   58.2781   33.8772   43.5331 H   0  0  0  0  0  0  0  0  0  0  0  0
   56.9544   31.9344   42.7008 H   0  0  0  0  0  0  0  0  0  0  0  0
   57.6443   27.6625   44.3813 H   0  0  0  0  0  0  0  0  0  0  0  0
   58.6717   26.8384   46.9147 H   0  0  0  0  0  0  0  0  0  0  0  0
   57.5288   27.5493   47.6943 H   0  0  0  0  0  0  0  0  0  0  0  0
   57.2169   25.0975   45.6028 H   0  0  0  0  0  0  0  0  0  0  0  0
   55.8208   25.5054   46.1541 H   0  0  0  0  0  0  0  0  0  0  0  0
   57.6437   29.8649   46.4398 H   0  0  0  0  0  0  0  0  0  0  0  0
   58.9612   31.8093   47.2750 H   0  0  0  0  0  0  0  0  0  0  0  0
   60.3331   32.0027   47.6832 H   0  0  0  0  0  0  0  0  0  0  0  0
  1  2  1  0
  2  3  1  0
  3  4  1  0
  4  5  2  0
  4  6  1  0
  6  7  2  0
  7  8  1  0
  8  9  2  0
  9 10  1  0
 10 11  1  0
 11 12  1  0
 12 13  2  0
 12 14  2  0
 12 15  1  0
 15 16  2  0
 16 17  1  0
 17 18  2  0
 18 19  1  0
 19 20  2  0
 19 21  2  0
 19 22  1  0
 22 23  1  0
 23 24  1  0
 24 25  1  0
 18 26  1  0
 26 27  2  0
 10 28  2  0
 28  6  1  0
 27 15  1  0
 25 23  1  0
  1 29  1  0
  1 30  1  0
  1 31  1  0
  2 32  1  0
  2 33  1  0
  7 34  1  0
  8 35  1  0
  9 36  1  0
 11 37  1  0
 16 38  1  0
 17 39  1  0
 23 40  1  0
 24 41  1  0
 24 42  1  0
 25 43  1  0
 25 44  1  0
 26 45  1  0
 27 46  1  0
 28 47  1  0
M  CHG  1  22  -1
M  END
>  <UniqueID>  (81) 
77

>  <SMILES>  (81) 
CCOC(=O)c1cccc(NS(=O)(=O)c2ccc(S(=O)(=O)[N-]C3CC3)cc2)c1

>  <Energy>  (81) 
307.9666124800379

>  <Genealogy>  (81) 
CCOC(=O)c1cccc(NS(=O)(=O)c2ccc(S(=O)(=O)[N-]C3CC3)cc2)c1 (protonated)
CCOC(=O)c1cccc(NS(=O)(=O)c2ccc(S(=O)(=O)[N-]C3CC3)cc2)c1 (3D coordinates assigned)
CCOC(=O)c1cccc(NS(=O)(=O)c2ccc(S(=O)(=O)[N-]C3CC3)cc2)c1 (nonaromatic ring conformer: 307.9666124800379 kcal/mol)

>  <smiles>  (81) 
CCOC(=O)c1cccc(NS(=O)(=O)c2ccc(S(=O)(=O)NC3CC3)cc2)c1

>  <score_type>  (81) 
oracle

>  <origin>  (81) 
adg

>  <m_score__min__energy>  (81) 
-10.5

>  <m_primary>  (81) 
energy

$$$$
81:0
     RDKit          3D

 51 53  0  0  0  0  0  0  0  0999 V2000
   59.4010   32.8310   49.7140 C   0  0  0  0  0  0  0  0  0  0  0  0
   58.5100   32.7930   48.6070 O   0  0  0  0  0  0  0  0  0  0  0  0
   58.7450   33.3280   47.3280 C   0  0  0  0  0  0  0  0  0  0  0  0
   59.2800   34.6240   47.2950 C   0  0  0  0  0  0  0  0  0  0  0  0
   59.5320   35.2700   46.0860 C   0  0  0  0  0  0  0  0  0  0  0  0
   59.2480   34.6300   44.8820 C   0  0  0  0  0  0  0  0  0  0  0  0
   58.7050   33.3450   44.8870 C   0  0  0  0  0  0  0  0  0  0  0  0
   58.4390   32.6720   46.0960 C   0  0  0  0  0  0  0  0  0  0  0  0
   57.7490   31.3300   46.0070 C   0  0  0  0  0  0  0  0  0  0  0  0
   56.9870   31.2150   44.7670 N   0  0  0  0  0  0  0  0  0  0  0  0
   56.4260   29.9760   44.3140 C   0  0  0  0  0  0  0  0  0  0  0  0
   55.4920   29.4270   44.9590 O   0  0  0  0  0  0  0  0  0  0  0  0
   56.9300   29.3370   43.0560 C   0  0  0  0  0  0  0  0  0  0  0  0
   57.9580   27.8570   43.3720 S   0  0  0  0  0  0  0  0  0  0  0  0
   58.6320   28.4310   44.9440 C   0  0  0  0  0  0  0  0  0  0  0  0
   59.6650   29.3100   44.9140 N   0  0  0  0  0  0  0  0  0  0  0  0
   60.2620   29.7410   46.0480 C   0  0  0  0  0  0  0  0  0  0  0  0
   59.8290   29.2770   47.2960 C   0  0  0  0  0  0  0  0  0  0  0  0
   60.5120   29.7370   48.5360 C   0  0  0  0  0  0  0  0  0  0  0  0
   59.9070   29.7140   49.6430 O   0  0  0  0  0  0  0  0  0  0  0  0
   61.8820   30.1590   48.4840 N   0  0  0  0  0  0  0  0  0  0  0  0
   62.3550   31.4950   48.2600 C   0  0  0  0  0  0  0  0  0  0  0  0
   61.9800   32.2390   47.1250 C   0  0  0  0  0  0  0  0  0  0  0  0
   62.4920   33.5260   46.9270 C   0  0  0  0  0  0  0  0  0  0  0  0
   63.3860   34.0750   47.8510 C   0  0  0  0  0  0  0  0  0  0  0  0
   63.7770   33.3340   48.9690 C   0  0  0  0  0  0  0  0  0  0  0  0
   63.2700   32.0460   49.1680 C   0  0  0  0  0  0  0  0  0  0  0  0
   58.7330   28.3850   47.3170 C   0  0  0  0  0  0  0  0  0  0  0  0
   58.2940   27.9620   48.4230 O   0  0  0  0  0  0  0  0  0  0  0  0
   58.1410   27.9820   46.1440 N   0  0  0  0  0  0  0  0  0  0  0  0
   56.9480   27.1200   46.1550 C   0  0  0  0  0  0  0  0  0  0  0  0
   58.8239   32.8064   50.6502 H   0  0  0  0  0  0  0  0  0  0  0  0
   60.0725   31.9607   49.6742 H   0  0  0  0  0  0  0  0  0  0  0  0
   59.9960   33.7553   49.6742 H   0  0  0  0  0  0  0  0  0  0  0  0
   59.5047   35.1399   48.2402 H   0  0  0  0  0  0  0  0  0  0  0  0
   59.9552   36.2853   46.0827 H   0  0  0  0  0  0  0  0  0  0  0  0
   59.4518   35.1375   43.9276 H   0  0  0  0  0  0  0  0  0  0  0  0
   58.4808   32.8489   43.9312 H   0  0  0  0  0  0  0  0  0  0  0  0
   58.5066   30.5331   46.0389 H   0  0  0  0  0  0  0  0  0  0  0  0
   57.0548   31.2358   46.8551 H   0  0  0  0  0  0  0  0  0  0  0  0
   56.0664   29.0401   42.4427 H   0  0  0  0  0  0  0  0  0  0  0  0
   57.5630   30.0750   42.5415 H   0  0  0  0  0  0  0  0  0  0  0  0
   61.0924   30.4601   45.9898 H   0  0  0  0  0  0  0  0  0  0  0  0
   61.2826   31.8073   46.3920 H   0  0  0  0  0  0  0  0  0  0  0  0
   62.1906   34.1068   46.0428 H   0  0  0  0  0  0  0  0  0  0  0  0
   63.7814   35.0900   47.6979 H   0  0  0  0  0  0  0  0  0  0  0  0
   64.4843   33.7641   49.6934 H   0  0  0  0  0  0  0  0  0  0  0  0
   63.5912   31.4614   50.0427 H   0  0  0  0  0  0  0  0  0  0  0  0
   56.6571   26.9098   47.1948 H   0  0  0  0  0  0  0  0  0  0  0  0
   56.1217   27.6310   45.6392 H   0  0  0  0  0  0  0  0  0  0  0  0
   57.1737   26.1750   45.6392 H   0  0  0  0  0  0  0  0  0  0  0  0
  1  2  1  0
  2  3  1  0
  3  4  2  0
  4  5  1  0
  5  6  2  0
  6  7  1  0
  7  8  2  0
  8  9  1  0
  9 10  1  0
 10 11  1  0
 11 12  2  0
 11 13  1  0
 13 14  1  0
 14 15  1  0
 15 16  2  0
 16 17  1  0
 17 18  2  0
 18 19  1  0
 19 20  2  0
 19 21  1  0
 21 22  1  0
 22 23  2  0
 23 24  1  0
 24 25  2  0
 25 26  1  0
 26 27  2  0
 18 28  1  0
 28 29  2  0
 28 30  1  0
 30 31  1  0
  8  3  1  0
 30 15  1  0
 27 22  1  0
  1 32  1  0
  1 33  1  0
  1 34  1  0
  4 35  1  0
  5 36  1  0
  6 37  1  0
  7 38  1  0
  9 39  1  0
  9 40  1  0
 13 41  1  0
 13 42  1  0
 17 43  1  0
 23 44  1  0
 24 45  1  0
 25 46  1  0
 26 47  1  0
 27 48  1  0
 31 49  1  0
 31 50  1  0
 31 51  1  0
M  CHG  2  10  -1  21  -1
M  END
>  <UniqueID>  (82) 
78

>  <SMILES>  (82) 
COc1ccccc1C[N-]C(=O)CSc1ncc(C(=O)[N-]c2ccccc2)c(=O)n1C

>  <Energy>  (82) 
63.914883645315705

>  <Genealogy>  (82) 
COc1ccccc1C[N-]C(=O)CSc1ncc(C(=O)[N-]c2ccccc2)c(=O)n1C (protonated)
COc1ccccc1C[N-]C(=O)CSc1ncc(C(=O)[N-]c2ccccc2)c(=O)n1C (3D coordinates assigned)
COc1ccccc1C[N-]C(=O)CSc1ncc(C(=O)[N-]c2ccccc2)c(=O)n1C (optimized conformer: 63.914883645315705 kcal/mol)

>  <smiles>  (82) 
COc1ccccc1CNC(=O)CSc1ncc(C(=O)Nc2ccccc2)c(=O)n1C

>  <score_type>  (82) 
oracle

>  <origin>  (82) 
adg

>  <m_score__min__energy>  (82) 
-11.84

>  <m_primary>  (82) 
energy

$$$$
82:0
     RDKit          3D

 32 33  0  0  0  0  0  0  0  0999 V2000
   60.4190   27.2760   46.0450 C   0  0  0  0  0  0  0  0  0  0  0  0
   58.9530   26.9590   45.9960 C   0  0  0  0  0  0  0  0  0  0  0  0
   58.4830   25.7100   46.4270 C   0  0  0  0  0  0  0  0  0  0  0  0
   57.1140   25.4300   46.4150 C   0  0  0  0  0  0  0  0  0  0  0  0
   56.2030   26.4060   46.0000 C   0  0  0  0  0  0  0  0  0  0  0  0
   56.6540   27.6730   45.6110 C   0  0  0  0  0  0  0  0  0  0  0  0
   55.6930   28.6650   45.2250 N   0  0  0  0  0  0  0  0  0  0  0  0
   55.7550   29.4860   44.0500 C   0  0  0  0  0  0  0  0  0  0  0  0
   54.6980   29.7080   43.4050 O   0  0  0  0  0  0  0  0  0  0  0  0
   56.9840   30.0650   43.5880 N   0  0  0  0  0  0  0  0  0  0  0  0
   57.5350   31.3230   44.0120 C   0  0  0  0  0  0  0  0  0  0  0  0
   57.7600   31.6240   45.3660 C   0  0  0  0  0  0  0  0  0  0  0  0
   57.3960   30.7220   46.3660 O   0  0  0  0  0  0  0  0  0  0  0  0
   58.3370   32.8490   45.7060 C   0  0  0  0  0  0  0  0  0  0  0  0
   58.6480   33.7590   44.6890 C   0  0  0  0  0  0  0  0  0  0  0  0
   59.2680   35.0780   45.0220 C   0  0  0  0  0  0  0  0  0  0  0  0
   58.3860   33.4570   43.4210 O   0  0  0  0  0  0  0  0  0  0  0  0
   57.8460   32.2990   43.0530 C   0  0  0  0  0  0  0  0  0  0  0  0
   57.6310   32.0780   41.8310 O   0  0  0  0  0  0  0  0  0  0  0  0
   58.0350   27.9390   45.5870 C   0  0  0  0  0  0  0  0  0  0  0  0
   60.7441   27.3463   47.0935 H   0  0  0  0  0  0  0  0  0  0  0  0
   60.9836   26.4792   45.5387 H   0  0  0  0  0  0  0  0  0  0  0  0
   60.6039   28.2349   45.5387 H   0  0  0  0  0  0  0  0  0  0  0  0
   59.1950   24.9475   46.7760 H   0  0  0  0  0  0  0  0  0  0  0  0
   56.7527   24.4407   46.7324 H   0  0  0  0  0  0  0  0  0  0  0  0
   55.1272   26.1774   45.9790 H   0  0  0  0  0  0  0  0  0  0  0  0
   56.6110   30.0920   46.2530 H   0  0  0  0  0  0  0  0  0  0  0  0
   58.5442   33.0954   46.7578 H   0  0  0  0  0  0  0  0  0  0  0  0
   59.3218   35.1924   46.1147 H   0  0  0  0  0  0  0  0  0  0  0  0
   60.2820   35.1240   44.5982 H   0  0  0  0  0  0  0  0  0  0  0  0
   58.6564   35.8881   44.5982 H   0  0  0  0  0  0  0  0  0  0  0  0
   58.3975   28.9200   45.2460 H   0  0  0  0  0  0  0  0  0  0  0  0
  1  2  1  0
  2  3  2  0
  3  4  1  0
  4  5  2  0
  5  6  1  0
  6  7  1  0
  7  8  1  0
  8  9  2  0
  8 10  1  0
 10 11  1  0
 11 12  2  0
 12 13  1  0
 12 14  1  0
 14 15  2  0
 15 16  1  0
 15 17  1  0
 17 18  1  0
 18 19  2  0
  6 20  2  0
 20  2  1  0
 18 11  1  0
  1 21  1  0
  1 22  1  0
  1 23  1  0
  3 24  1  0
  4 25  1  0
  5 26  1  0
 13 27  1  0
 14 28  1  0
 16 29  1  0
 16 30  1  0
 16 31  1  0
 20 32  1  0
M  CHG  2   7  -1  10  -1
M  END
>  <UniqueID>  (83) 
79

>  <SMILES>  (83) 
Cc1cccc([N-]C(=O)[N-]c2c(O)cc(C)oc2=O)c1

>  <Energy>  (83) 
39.889118700946376

>  <Genealogy>  (83) 
Cc1cccc([N-]C(=O)[N-]c2c(O)cc(C)oc2=O)c1 (protonated)
Cc1cccc([N-]C(=O)[N-]c2c(O)cc(C)oc2=O)c1 (3D coordinates assigned)
Cc1cccc([N-]C(=O)[N-]c2c(O)cc(C)oc2=O)c1 (optimized conformer: 39.889118700946376 kcal/mol)

>  <smiles>  (83) 
Cc1cccc(NC(=O)Nc2c(O)cc(C)oc2=O)c1

>  <score_type>  (83) 
oracle

>  <origin>  (83) 
adg

>  <m_score__min__energy>  (83) 
-10.83

>  <m_primary>  (83) 
energy

$$$$
83:0
     RDKit          3D

 57 60  0  0  0  0  0  0  0  0999 V2000
   53.8760   22.3674   46.7294 H   0  0  0  0  0  0  0  0  0  0  0  0
   54.6570   22.9430   46.2110 C   0  0  0  0  0  0  0  0  0  0  0  0
   54.7180   24.2920   46.3580 N   0  0  0  0  0  0  0  0  0  0  0  0
   55.6720   25.0430   45.7370 C   0  0  0  0  0  0  0  0  0  0  0  0
   55.7240   26.3320   45.8780 N   0  0  0  0  0  0  0  0  0  0  0  0
   56.8310   27.1280   46.3280 C   0  0  0  0  0  0  0  0  0  0  0  0
   57.3470   26.9310   47.4610 O   0  0  0  0  0  0  0  0  0  0  0  0
   57.3840   28.1720   45.4280 C   0  0  0  0  0  0  0  0  0  0  0  0
   56.5240   29.0800   44.7720 C   0  0  0  0  0  0  0  0  0  0  0  0
   55.1440   28.9790   44.9020 O   0  0  0  0  0  0  0  0  0  0  0  0
   57.0520   30.1180   43.9990 C   0  0  0  0  0  0  0  0  0  0  0  0
   56.3746   30.8137   43.4822 H   0  0  0  0  0  0  0  0  0  0  0  0
   58.4310   30.2770   43.8790 C   0  0  0  0  0  0  0  0  0  0  0  0
   58.8385   31.1072   43.2834 H   0  0  0  0  0  0  0  0  0  0  0  0
   59.2950   29.3850   44.5130 C   0  0  0  0  0  0  0  0  0  0  0  0
   60.3828   29.5131   44.4118 H   0  0  0  0  0  0  0  0  0  0  0  0
   58.7860   28.3240   45.2800 C   0  0  0  0  0  0  0  0  0  0  0  0
   59.6800   27.3650   45.8630 N   0  0  0  0  0  0  0  0  0  0  0  0
   60.2760   27.4450   47.1640 C   0  0  0  0  0  0  0  0  0  0  0  0
   60.5360   26.3630   47.7630 O   0  0  0  0  0  0  0  0  0  0  0  0
   60.4600   28.7430   47.8790 C   0  0  0  0  0  0  0  0  0  0  0  0
   59.8480   28.9400   49.1360 C   0  0  0  0  0  0  0  0  0  0  0  0
   59.2828   28.1179   49.5995 H   0  0  0  0  0  0  0  0  0  0  0  0
   59.9510   30.1660   49.7990 C   0  0  0  0  0  0  0  0  0  0  0  0
   59.4449   30.3078   50.7653 H   0  0  0  0  0  0  0  0  0  0  0  0
   60.6950   31.2180   49.2420 C   0  0  0  0  0  0  0  0  0  0  0  0
   60.8270   32.5500   49.9530 C   0  0  0  0  0  0  0  0  0  0  0  0
   61.8597   32.6451   50.3196 H   0  0  0  0  0  0  0  0  0  0  0  0
   60.0860   32.5506   50.7660 H   0  0  0  0  0  0  0  0  0  0  0  0
   60.5260   33.7240   49.0990 N   0  0  0  0  0  0  0  0  0  0  0  0
   59.1900   33.6830   48.4630 C   0  0  0  0  0  0  0  0  0  0  0  0
   58.4162   33.7113   49.2443 H   0  0  0  0  0  0  0  0  0  0  0  0
   59.1034   32.7562   47.8768 H   0  0  0  0  0  0  0  0  0  0  0  0
   59.0040   34.8850   47.5230 C   0  0  0  0  0  0  0  0  0  0  0  0
   59.0331   35.8066   48.1228 H   0  0  0  0  0  0  0  0  0  0  0  0
   58.0379   34.7569   47.0128 H   0  0  0  0  0  0  0  0  0  0  0  0
   60.0530   34.9700   46.4730 N   0  0  0  0  0  0  0  0  0  0  0  0
   59.4980   34.7040   45.1330 C   0  0  0  0  0  0  0  0  0  0  0  0
   58.5101   34.2305   45.2327 H   0  0  0  0  0  0  0  0  0  0  0  0
   59.3967   35.6514   44.5834 H   0  0  0  0  0  0  0  0  0  0  0  0
   60.1731   34.0316   44.5834 H   0  0  0  0  0  0  0  0  0  0  0  0
   61.2220   34.0980   46.7230 C   0  0  0  0  0  0  0  0  0  0  0  0
   62.0659   34.4424   46.1072 H   0  0  0  0  0  0  0  0  0  0  0  0
   60.9508   33.0645   46.4615 H   0  0  0  0  0  0  0  0  0  0  0  0
   61.6300   34.1370   48.1990 C   0  0  0  0  0  0  0  0  0  0  0  0
   61.9307   35.1634   48.4559 H   0  0  0  0  0  0  0  0  0  0  0  0
   62.4601   33.4287   48.3376 H   0  0  0  0  0  0  0  0  0  0  0  0
   61.3090   31.0260   47.9930 C   0  0  0  0  0  0  0  0  0  0  0  0
   61.8959   31.8408   47.5440 H   0  0  0  0  0  0  0  0  0  0  0  0
   61.1820   29.8120   47.3160 C   0  0  0  0  0  0  0  0  0  0  0  0
   61.6525   29.6891   46.3293 H   0  0  0  0  0  0  0  0  0  0  0  0
   56.6200   24.4160   44.9160 C   0  0  0  0  0  0  0  0  0  0  0  0
   57.3934   25.0110   44.4082 H   0  0  0  0  0  0  0  0  0  0  0  0
   56.5750   23.0320   44.7480 C   0  0  0  0  0  0  0  0  0  0  0  0
   57.3127   22.5291   44.1055 H   0  0  0  0  0  0  0  0  0  0  0  0
   55.5880   22.2870   45.4000 C   0  0  0  0  0  0  0  0  0  0  0  0
   55.5160   20.5480   45.1960 Cl  0  0  0  0  0  0  0  0  0  0  0  0
  1  2  1  0
  2  3  1  0
  3  4  1  0
  4  5  2  0
  5  6  1  0
  6  7  2  0
  6  8  1  0
  8  9  2  0
  9 10  1  0
  9 11  1  0
 11 12  1  0
 11 13  2  0
 13 14  1  0
 13 15  1  0
 15 16  1  0
 15 17  2  0
 17 18  1  0
 18 19  1  0
 19 20  2  0
 19 21  1  0
 21 22  2  0
 22 23  1  0
 22 24  1  0
 24 25  1  0
 24 26  2  0
 26 27  1  0
 27 28  1  0
 27 29  1  0
 27 30  1  0
 30 31  1  0
 31 32  1  0
 31 33  1  0
 31 34  1  0
 34 35  1  0
 34 36  1  0
 34 37  1  0
 37 38  1  0
 38 39  1  0
 38 40  1  0
 38 41  1  0
 37 42  1  0
 42 43  1  0
 42 44  1  0
 42 45  1  0
 45 46  1  0
 45 47  1  0
 26 48  1  0
 48 49  1  0
 48 50  2  0
 50 51  1  0
  4 52  1  0
 52 53  1  0
 52 54  2  0
 54 55  1  0
 54 56  1  0
 56 57  1  0
 56  2  2  0
 17  8  1  0
 50 21  1  0
 45 30  1  0
M  CHG  3   3  -1  10  -1  18  -1
M  END
>  <UniqueID>  (84) 
80

>  <SMILES>  (84) 
CN1CCN(Cc2ccc(C(=O)[N-]c3cccc([O-])c3C(=O)/N=c3/ccc(Cl)c[n-]3)cc2)CC1

>  <Energy>  (84) 
94.97096320682805

>  <Genealogy>  (84) 
CN1CCN(Cc2ccc(C(=O)[N-]c3cccc([O-])c3C(=O)N=c3ccc(Cl)c[n-]3)cc2)CC1 (protonated)
CN1CCN(Cc2ccc(C(=O)[N-]c3cccc([O-])c3C(=O)/N=c3/ccc(Cl)c[n-]3)cc2)CC1 (cis-trans isomerization)
CN1CCN(Cc2ccc(C(=O)[N-]c3cccc([O-])c3C(=O)/N=c3/ccc(Cl)c[n-]3)cc2)CC1 (3D coordinates assigned)
CN1CCN(Cc2ccc(C(=O)[N-]c3cccc([O-])c3C(=O)/N=c3/ccc(Cl)c[n-]3)cc2)CC1 (nonaromatic ring conformer: 94.97096320682805 kcal/mol)

>  <smiles>  (84) 
CN1CCN(Cc2ccc(C(=O)Nc3cccc(O)c3C(=O)N=c3ccc(Cl)c[nH]3)cc2)CC1

>  <score_type>  (84) 
oracle

>  <origin>  (84) 
adg

>  <m_score__min__energy>  (84) 
-15.109999999999999

>  <m_primary>  (84) 
energy

$$$$
84:0
     RDKit          3D

 62 65  0  0  0  0  0  0  0  0999 V2000
   60.0590   28.1210   49.5470 C   0  0  0  0  0  0  0  0  0  0  0  0
   58.9230   28.9720   49.4390 O   0  0  0  0  0  0  0  0  0  0  0  0
   58.8310   30.2510   50.0150 C   0  0  0  0  0  0  0  0  0  0  0  0
   57.8100   30.5890   50.9230 C   0  0  0  0  0  0  0  0  0  0  0  0
   57.7590   31.8670   51.4830 C   0  0  0  0  0  0  0  0  0  0  0  0
   58.7190   32.8190   51.1420 C   0  0  0  0  0  0  0  0  0  0  0  0
   59.7370   32.4960   50.2420 C   0  0  0  0  0  0  0  0  0  0  0  0
   59.8030   31.2090   49.6770 C   0  0  0  0  0  0  0  0  0  0  0  0
   60.8470   30.8400   48.7660 N   0  0  0  0  0  0  0  0  0  0  0  0
   61.0300   31.4450   47.1520 S   0  0  0  0  0  0  0  0  0  0  0  0
   62.2590   32.3090   47.0790 O   0  0  0  0  0  0  0  0  0  0  0  0
   61.1820   30.3050   46.1850 O   0  0  0  0  0  0  0  0  0  0  0  0
   59.6010   32.4030   46.7270 C   0  0  0  0  0  0  0  0  0  0  0  0
   59.5890   33.7690   47.0580 C   0  0  0  0  0  0  0  0  0  0  0  0
   58.5170   34.5820   46.6860 C   0  0  0  0  0  0  0  0  0  0  0  0
   57.4440   34.0430   45.9780 C   0  0  0  0  0  0  0  0  0  0  0  0
   57.4330   32.6860   45.6500 C   0  0  0  0  0  0  0  0  0  0  0  0
   58.4940   31.8510   46.0350 C   0  0  0  0  0  0  0  0  0  0  0  0
   58.4110   30.4180   45.6950 C   0  0  0  0  0  0  0  0  0  0  0  0
   57.8710   30.0790   44.6080 O   0  0  0  0  0  0  0  0  0  0  0  0
   58.9370   29.4310   46.5960 N   0  0  0  0  0  0  0  0  0  0  0  0
   58.9810   28.0210   46.3170 C   0  0  0  0  0  0  0  0  0  0  0  0
   57.8290   27.3050   45.9470 C   0  0  0  0  0  0  0  0  0  0  0  0
   57.8990   25.9300   45.7080 C   0  0  0  0  0  0  0  0  0  0  0  0
   59.1150   25.2410   45.8640 C   0  0  0  0  0  0  0  0  0  0  0  0
   59.2150   23.8290   45.6120 N   0  0  0  0  0  0  0  0  0  0  0  0
   58.1420   23.0280   45.0920 C   0  0  0  0  0  0  0  0  0  0  0  0
   58.4950   21.5490   44.4770 S   0  0  0  0  0  0  0  0  0  0  0  0
   56.7770   23.3930   45.3600 N   0  0  0  0  0  0  0  0  0  0  0  0
   55.6710   23.0130   44.5230 C   0  0  0  0  0  0  0  0  0  0  0  0
   55.8870   22.5780   43.3580 O   0  0  0  0  0  0  0  0  0  0  0  0
   54.2710   23.1720   44.9890 C   0  0  0  0  0  0  0  0  0  0  0  0
   53.9160   22.7870   46.2960 C   0  0  0  0  0  0  0  0  0  0  0  0
   52.5980   22.9310   46.7440 C   0  0  0  0  0  0  0  0  0  0  0  0
   51.6240   23.4650   45.8970 C   0  0  0  0  0  0  0  0  0  0  0  0
   51.9660   23.8630   44.6020 C   0  0  0  0  0  0  0  0  0  0  0  0
   50.6350   24.6110   43.4510 Br  0  0  0  0  0  0  0  0  0  0  0  0
   53.2830   23.7200   44.1490 C   0  0  0  0  0  0  0  0  0  0  0  0
   60.2620   25.9560   46.2320 C   0  0  0  0  0  0  0  0  0  0  0  0
   60.1910   27.3310   46.4730 C   0  0  0  0  0  0  0  0  0  0  0  0
   60.2886   27.9490   50.6089 H   0  0  0  0  0  0  0  0  0  0  0  0
   59.8446   27.1594   49.0578 H   0  0  0  0  0  0  0  0  0  0  0  0
   60.9216   28.5970   49.0578 H   0  0  0  0  0  0  0  0  0  0  0  0
   57.0484   29.8425   51.1928 H   0  0  0  0  0  0  0  0  0  0  0  0
   56.9601   32.1232   52.1944 H   0  0  0  0  0  0  0  0  0  0  0  0
   58.6745   33.8260   51.5825 H   0  0  0  0  0  0  0  0  0  0  0  0
   60.4905   33.2511   49.9737 H   0  0  0  0  0  0  0  0  0  0  0  0
   60.4327   34.2016   47.6157 H   0  0  0  0  0  0  0  0  0  0  0  0
   58.5190   35.6494   46.9519 H   0  0  0  0  0  0  0  0  0  0  0  0
   56.6049   34.6876   45.6774 H   0  0  0  0  0  0  0  0  0  0  0  0
   56.5865   32.2678   45.0856 H   0  0  0  0  0  0  0  0  0  0  0  0
   59.3970   29.7650   47.4720 H   0  0  0  0  0  0  0  0  0  0  0  0
   56.8677   27.8299   45.8451 H   0  0  0  0  0  0  0  0  0  0  0  0
   56.9971   25.3830   45.3958 H   0  0  0  0  0  0  0  0  0  0  0  0
   60.1170   23.3530   45.8420 H   0  0  0  0  0  0  0  0  0  0  0  0
   56.6010   24.0540   46.1490 H   0  0  0  0  0  0  0  0  0  0  0  0
   54.6796   22.3703   46.9693 H   0  0  0  0  0  0  0  0  0  0  0  0
   52.3285   22.6231   47.7651 H   0  0  0  0  0  0  0  0  0  0  0  0
   50.5876   23.5722   46.2496 H   0  0  0  0  0  0  0  0  0  0  0  0
   53.5476   24.0380   43.1298 H   0  0  0  0  0  0  0  0  0  0  0  0
   61.2242   25.4323   46.3319 H   0  0  0  0  0  0  0  0  0  0  0  0
   61.0928   27.8765   46.7879 H   0  0  0  0  0  0  0  0  0  0  0  0
  1  2  1  0
  2  3  1  0
  3  4  2  0
  4  5  1  0
  5  6  2  0
  6  7  1  0
  7  8  2  0
  8  9  1  0
  9 10  1  0
 10 11  2  0
 10 12  2  0
 10 13  1  0
 13 14  2  0
 14 15  1  0
 15 16  2  0
 16 17  1  0
 17 18  2  0
 18 19  1  0
 19 20  2  0
 19 21  1  0
 21 22  1  0
 22 23  2  0
 23 24  1  0
 24 25  2  0
 25 26  1  0
 26 27  1  0
 27 28  2  0
 27 29  1  0
 29 30  1  0
 30 31  2  0
 30 32  1  0
 32 33  2  0
 33 34  1  0
 34 35  2  0
 35 36  1  0
 36 37  1  0
 36 38  2  0
 25 39  1  0
 39 40  2  0
  8  3  1  0
 18 13  1  0
 40 22  1  0
 38 32  1  0
  1 41  1  0
  1 42  1  0
  1 43  1  0
  4 44  1  0
  5 45  1  0
  6 46  1  0
  7 47  1  0
 14 48  1  0
 15 49  1  0
 16 50  1  0
 17 51  1  0
 21 52  1  0
 23 53  1  0
 24 54  1  0
 26 55  1  0
 29 56  1  0
 33 57  1  0
 34 58  1  0
 35 59  1  0
 38 60  1  0
 39 61  1  0
 40 62  1  0
M  CHG  1   9  -1
M  END
>  <UniqueID>  (85) 
81

>  <SMILES>  (85) 
COc1ccccc1[N-]S(=O)(=O)c1ccccc1C(=O)Nc1ccc(NC(=S)NC(=O)c2cccc(Br)c2)cc1

>  <Energy>  (85) 
87.6314488111446

>  <Genealogy>  (85) 
COc1ccccc1[N-]S(=O)(=O)c1ccccc1C(=O)Nc1ccc(NC(=S)NC(=O)c2cccc(Br)c2)cc1 (protonated)
COc1ccccc1[N-]S(=O)(=O)c1ccccc1C(=O)Nc1ccc(NC(=S)NC(=O)c2cccc(Br)c2)cc1 (3D coordinates assigned)
COc1ccccc1[N-]S(=O)(=O)c1ccccc1C(=O)Nc1ccc(NC(=S)NC(=O)c2cccc(Br)c2)cc1 (optimized conformer: 87.6314488111446 kcal/mol)

>  <smiles>  (85) 
COc1ccccc1NS(=O)(=O)c1ccccc1C(=O)Nc1ccc(NC(=S)NC(=O)c2cccc(Br)c2)cc1

>  <score_type>  (85) 
oracle

>  <origin>  (85) 
adg

>  <m_score__min__energy>  (85) 
-11.5

>  <m_primary>  (85) 
energy

$$$$
85:0
     RDKit          3D

 28 29  0  0  0  0  0  0  0  0999 V2000
   55.5690   26.5000   46.0660 O   0  0  0  0  0  0  0  0  0  0  0  0
   56.2410   27.4620   45.6140 C   0  0  0  0  0  0  0  0  0  0  0  0
   57.5930   27.3700   45.5400 N   0  0  0  0  0  0  0  0  0  0  0  0
   58.3370   28.3960   45.0560 C   0  0  0  0  0  0  0  0  0  0  0  0
   57.7150   29.5770   44.6270 C   0  0  0  0  0  0  0  0  0  0  0  0
   58.5340   30.7140   44.0640 C   0  0  0  0  0  0  0  0  0  0  0  0
   58.4230   31.9480   44.9290 C   0  0  0  0  0  0  0  0  0  0  0  0
   57.6590   33.0500   44.5420 C   0  0  0  0  0  0  0  0  0  0  0  0
   57.7670   34.2240   45.7350 S   0  0  0  0  0  0  0  0  0  0  0  0
   58.8020   33.3750   46.7490 C   0  0  0  0  0  0  0  0  0  0  0  0
   59.2890   33.8910   48.0710 C   0  0  0  0  0  0  0  0  0  0  0  0
   58.8450   33.0650   49.1110 O   0  0  0  0  0  0  0  0  0  0  0  0
   59.0940   32.1380   46.1620 C   0  0  0  0  0  0  0  0  0  0  0  0
   59.9900   31.1110   46.8000 C   0  0  0  0  0  0  0  0  0  0  0  0
   59.4020   30.6500   47.9840 O   0  0  0  0  0  0  0  0  0  0  0  0
   56.3140   29.6450   44.7060 C   0  0  0  0  0  0  0  0  0  0  0  0
   55.6960   30.6740   44.3240 O   0  0  0  0  0  0  0  0  0  0  0  0
   55.6110   28.5910   45.1970 N   0  0  0  0  0  0  0  0  0  0  0  0
   59.4315   28.3010   45.0000 H   0  0  0  0  0  0  0  0  0  0  0  0
   59.5886   30.4055   44.0127 H   0  0  0  0  0  0  0  0  0  0  0  0
   58.1514   30.9558   43.0614 H   0  0  0  0  0  0  0  0  0  0  0  0
   57.0818   33.1346   43.6094 H   0  0  0  0  0  0  0  0  0  0  0  0
   60.3888   33.9119   48.0691 H   0  0  0  0  0  0  0  0  0  0  0  0
   58.8920   34.9050   48.2264 H   0  0  0  0  0  0  0  0  0  0  0  0
   58.4230   32.2740   48.6840 H   0  0  0  0  0  0  0  0  0  0  0  0
   60.1316   30.2675   46.1083 H   0  0  0  0  0  0  0  0  0  0  0  0
   60.9653   31.5660   47.0278 H   0  0  0  0  0  0  0  0  0  0  0  0
   59.8110   31.1770   48.7190 H   0  0  0  0  0  0  0  0  0  0  0  0
  1  2  2  0
  2  3  1  0
  3  4  1  0
  4  5  2  0
  5  6  1  0
  6  7  1  0
  7  8  2  0
  8  9  1  0
  9 10  1  0
 10 11  1  0
 11 12  1  0
 10 13  2  0
 13 14  1  0
 14 15  1  0
  5 16  1  0
 16 17  2  0
 16 18  1  0
 18  2  1  0
 13  7  1  0
  4 19  1  0
  6 20  1  0
  6 21  1  0
  8 22  1  0
 11 23  1  0
 11 24  1  0
 12 25  1  0
 14 26  1  0
 14 27  1  0
 15 28  1  0
M  CHG  2   3  -1  18  -1
M  END
>  <UniqueID>  (86) 
82

>  <SMILES>  (86) 
O=c1[n-]cc(Cc2csc(CO)c2CO)c(=O)[n-]1

>  <Energy>  (86) 
54.51269156421569

>  <Genealogy>  (86) 
O=c1[n-]cc(Cc2csc(CO)c2CO)c(=O)[n-]1 (protonated)
O=c1[n-]cc(Cc2csc(CO)c2CO)c(=O)[n-]1 (3D coordinates assigned)
O=c1[n-]cc(Cc2csc(CO)c2CO)c(=O)[n-]1 (optimized conformer: 54.51269156421569 kcal/mol)

>  <smiles>  (86) 
O=c1[nH]cc(Cc2csc(CO)c2CO)c(=O)[nH]1

>  <score_type>  (86) 
oracle

>  <origin>  (86) 
adg

>  <m_score__min__energy>  (86) 
-10.6

>  <m_primary>  (86) 
energy

$$$$
86:0
     RDKit          3D

 56 58  0  0  0  0  0  0  0  0999 V2000
   60.7670   29.7350   45.9590 C   0  0  0  0  0  0  0  0  0  0  0  0
   60.8020   30.0170   47.3930 N   0  0  0  0  0  0  0  0  0  0  0  0
   61.6320   31.0740   47.9080 C   0  0  0  0  0  0  0  0  0  0  0  0
   62.0900   32.1000   47.0650 C   0  0  0  0  0  0  0  0  0  0  0  0
   62.9040   33.1200   47.5700 C   0  0  0  0  0  0  0  0  0  0  0  0
   63.2710   33.1200   48.9200 C   0  0  0  0  0  0  0  0  0  0  0  0
   62.8130   32.1070   49.7700 C   0  0  0  0  0  0  0  0  0  0  0  0
   61.9950   31.0890   49.2680 C   0  0  0  0  0  0  0  0  0  0  0  0
   59.9300   28.9760   48.4770 S   0  0  0  0  0  0  0  0  0  0  0  0
   59.1050   29.8180   49.4110 O   0  0  0  0  0  0  0  0  0  0  0  0
   60.8780   28.1330   49.2850 O   0  0  0  0  0  0  0  0  0  0  0  0
   58.9090   27.9050   47.5230 C   0  0  0  0  0  0  0  0  0  0  0  0
   59.2910   26.5690   47.3530 C   0  0  0  0  0  0  0  0  0  0  0  0
   58.5430   25.7250   46.5300 C   0  0  0  0  0  0  0  0  0  0  0  0
   57.4260   26.2200   45.8540 C   0  0  0  0  0  0  0  0  0  0  0  0
   57.0460   27.5650   46.0020 C   0  0  0  0  0  0  0  0  0  0  0  0
   55.9450   28.1120   45.2710 N   0  0  0  0  0  0  0  0  0  0  0  0
   56.0120   29.3510   44.5620 C   0  0  0  0  0  0  0  0  0  0  0  0
   55.1440   30.2370   44.7820 O   0  0  0  0  0  0  0  0  0  0  0  0
   57.0900   29.6030   43.6580 N   0  0  0  0  0  0  0  0  0  0  0  0
   57.8690   30.8310   43.6510 C   0  0  0  0  0  0  0  0  0  0  0  0
   58.0350   31.3610   45.0810 C   0  0  0  0  0  0  0  0  0  0  0  0
   57.2950   32.6840   45.3360 C   0  0  0  0  0  0  0  0  0  0  0  0
   58.0210   33.4930   46.3420 N   0  0  0  0  0  0  0  0  0  0  0  0
   59.0800   34.3190   45.7290 C   0  0  0  0  0  0  0  0  0  0  0  0
   59.9770   34.9570   46.8120 C   0  0  0  0  0  0  0  0  0  0  0  0
   59.3430   34.9170   48.0780 O   0  0  0  0  0  0  0  0  0  0  0  0
   59.2040   33.5710   48.5080 C   0  0  0  0  0  0  0  0  0  0  0  0
   58.5910   32.6640   47.4180 C   0  0  0  0  0  0  0  0  0  0  0  0
   57.7740   28.3960   46.8600 C   0  0  0  0  0  0  0  0  0  0  0  0
   60.6329   28.6547   45.8009 H   0  0  0  0  0  0  0  0  0  0  0  0
   59.9296   30.2797   45.4985 H   0  0  0  0  0  0  0  0  0  0  0  0
   61.7122   30.0584   45.4985 H   0  0  0  0  0  0  0  0  0  0  0  0
   61.8072   32.1016   46.0020 H   0  0  0  0  0  0  0  0  0  0  0  0
   63.2556   33.9225   46.9049 H   0  0  0  0  0  0  0  0  0  0  0  0
   63.9197   33.9165   49.3135 H   0  0  0  0  0  0  0  0  0  0  0  0
   63.0962   32.1111   50.8329 H   0  0  0  0  0  0  0  0  0  0  0  0
   61.6336   30.2962   49.9395 H   0  0  0  0  0  0  0  0  0  0  0  0
   60.1826   26.1833   47.8691 H   0  0  0  0  0  0  0  0  0  0  0  0
   58.8335   24.6704   46.4141 H   0  0  0  0  0  0  0  0  0  0  0  0
   56.8408   25.5542   45.2026 H   0  0  0  0  0  0  0  0  0  0  0  0
   58.8611   30.6295   43.2207 H   0  0  0  0  0  0  0  0  0  0  0  0
   57.3440   31.5858   43.0471 H   0  0  0  0  0  0  0  0  0  0  0  0
   57.6468   30.6050   45.7794 H   0  0  0  0  0  0  0  0  0  0  0  0
   59.1071   31.5567   45.2304 H   0  0  0  0  0  0  0  0  0  0  0  0
   57.2282   33.2497   44.3950 H   0  0  0  0  0  0  0  0  0  0  0  0
   56.2863   32.4627   45.7149 H   0  0  0  0  0  0  0  0  0  0  0  0
   59.6985   33.6854   45.0763 H   0  0  0  0  0  0  0  0  0  0  0  0
   58.6060   35.1229   45.1467 H   0  0  0  0  0  0  0  0  0  0  0  0
   60.9260   34.4034   46.8663 H   0  0  0  0  0  0  0  0  0  0  0  0
   60.1613   36.0076   46.5431 H   0  0  0  0  0  0  0  0  0  0  0  0
   60.1975   33.1810   48.7743 H   0  0  0  0  0  0  0  0  0  0  0  0
   58.5229   33.5639   49.3718 H   0  0  0  0  0  0  0  0  0  0  0  0
   59.3739   32.0130   47.0017 H   0  0  0  0  0  0  0  0  0  0  0  0
   57.7952   32.0485   47.8628 H   0  0  0  0  0  0  0  0  0  0  0  0
   57.4558   29.4374   47.0154 H   0  0  0  0  0  0  0  0  0  0  0  0
  1  2  1  0
  2  3  1  0
  3  4  2  0
  4  5  1  0
  5  6  2  0
  6  7  1  0
  7  8  2  0
  2  9  1  0
  9 10  2  0
  9 11  2  0
  9 12  1  0
 12 13  2  0
 13 14  1  0
 14 15  2  0
 15 16  1  0
 16 17  1  0
 17 18  1  0
 18 19  2  0
 18 20  1  0
 20 21  1  0
 21 22  1  0
 22 23  1  0
 23 24  1  0
 24 25  1  0
 25 26  1  0
 26 27  1  0
 27 28  1  0
 28 29  1  0
 16 30  2  0
  8  3  1  0
 30 12  1  0
 29 24  1  0
  1 31  1  0
  1 32  1  0
  1 33  1  0
  4 34  1  0
  5 35  1  0
  6 36  1  0
  7 37  1  0
  8 38  1  0
 13 39  1  0
 14 40  1  0
 15 41  1  0
 21 42  1  0
 21 43  1  0
 22 44  1  0
 22 45  1  0
 23 46  1  0
 23 47  1  0
 25 48  1  0
 25 49  1  0
 26 50  1  0
 26 51  1  0
 28 52  1  0
 28 53  1  0
 29 54  1  0
 29 55  1  0
 30 56  1  0
M  CHG  2  17  -1  20  -1
M  END
>  <UniqueID>  (87) 
83

>  <SMILES>  (87) 
CN(c1ccccc1)S(=O)(=O)c1cccc([N-]C(=O)[N-]CCCN2CCOCC2)c1

>  <Energy>  (87) 
69.75068553726267

>  <Genealogy>  (87) 
CN(c1ccccc1)S(=O)(=O)c1cccc([N-]C(=O)[N-]CCCN2CCOCC2)c1 (protonated)
CN(c1ccccc1)S(=O)(=O)c1cccc([N-]C(=O)[N-]CCCN2CCOCC2)c1 (3D coordinates assigned)
CN(c1ccccc1)S(=O)(=O)c1cccc([N-]C(=O)[N-]CCCN2CCOCC2)c1 (nonaromatic ring conformer: 69.75068553726267 kcal/mol)

>  <smiles>  (87) 
CN(c1ccccc1)S(=O)(=O)c1cccc(NC(=O)NCCCN2CCOCC2)c1

>  <score_type>  (87) 
oracle

>  <origin>  (87) 
adg

>  <m_score__min__energy>  (87) 
-13.33

>  <m_primary>  (87) 
energy

$$$$
87:0
     RDKit          3D

 35 36  0  0  0  0  0  0  0  0999 V2000
   55.6910   29.1220   45.2290 O   0  0  0  0  0  0  0  0  0  0  0  0
   56.6000   29.8780   44.7930 C   0  0  0  0  0  0  0  0  0  0  0  0
   57.8790   29.3170   44.3190 C   0  0  0  0  0  0  0  0  0  0  0  0
   59.0940   29.6640   44.7670 C   0  0  0  0  0  0  0  0  0  0  0  0
   59.5810   29.4590   46.1410 C   0  0  0  0  0  0  0  0  0  0  0  0
   59.4480   28.3240   46.6740 O   0  0  0  0  0  0  0  0  0  0  0  0
   60.1020   30.5310   46.8770 O   0  0  0  0  0  0  0  0  0  0  0  0
   61.0920   30.3810   47.8920 C   0  0  0  0  0  0  0  0  0  0  0  0
   62.0590   31.5330   47.8470 C   0  0  0  0  0  0  0  0  0  0  0  0
   62.0050   32.4640   46.7960 C   0  0  0  0  0  0  0  0  0  0  0  0
   62.8780   33.5550   46.7750 C   0  0  0  0  0  0  0  0  0  0  0  0
   63.8070   33.7300   47.8040 C   0  0  0  0  0  0  0  0  0  0  0  0
   63.8640   32.8130   48.8570 C   0  0  0  0  0  0  0  0  0  0  0  0
   62.9940   31.7180   48.8830 C   0  0  0  0  0  0  0  0  0  0  0  0
   63.0580   30.8440   49.9200 F   0  0  0  0  0  0  0  0  0  0  0  0
   56.4190   31.2990   44.7720 N   0  0  0  0  0  0  0  0  0  0  0  0
   57.4010   32.2930   45.1000 C   0  0  0  0  0  0  0  0  0  0  0  0
   57.9350   33.1650   44.1320 C   0  0  0  0  0  0  0  0  0  0  0  0
   58.8790   34.1300   44.5000 C   0  0  0  0  0  0  0  0  0  0  0  0
   59.2850   34.2440   45.8320 C   0  0  0  0  0  0  0  0  0  0  0  0
   58.7390   33.3980   46.8020 C   0  0  0  0  0  0  0  0  0  0  0  0
   59.2800   33.5630   48.6270 Br  0  0  0  0  0  0  0  0  0  0  0  0
   57.7940   32.4320   46.4380 C   0  0  0  0  0  0  0  0  0  0  0  0
   57.8321   28.5498   43.5321 H   0  0  0  0  0  0  0  0  0  0  0  0
   59.7811   30.1393   44.0515 H   0  0  0  0  0  0  0  0  0  0  0  0
   60.6023   30.3556   48.8767 H   0  0  0  0  0  0  0  0  0  0  0  0
   61.6416   29.4434   47.7224 H   0  0  0  0  0  0  0  0  0  0  0  0
   61.2722   32.3335   45.9861 H   0  0  0  0  0  0  0  0  0  0  0  0
   62.8338   34.2775   45.9467 H   0  0  0  0  0  0  0  0  0  0  0  0
   64.4933   34.5894   47.7852 H   0  0  0  0  0  0  0  0  0  0  0  0
   64.5947   32.9526   49.6673 H   0  0  0  0  0  0  0  0  0  0  0  0
   57.6093   33.0874   43.0842 H   0  0  0  0  0  0  0  0  0  0  0  0
   59.3028   34.8010   43.7383 H   0  0  0  0  0  0  0  0  0  0  0  0
   60.0332   34.9983   46.1171 H   0  0  0  0  0  0  0  0  0  0  0  0
   57.3570   31.7778   47.2068 H   0  0  0  0  0  0  0  0  0  0  0  0
  1  2  2  0
  2  3  1  0
  3  4  2  3
  4  5  1  0
  5  6  2  0
  5  7  1  0
  7  8  1  0
  8  9  1  0
  9 10  2  0
 10 11  1  0
 11 12  2  0
 12 13  1  0
 13 14  2  0
 14 15  1  0
  2 16  1  0
 16 17  1  0
 17 18  2  0
 18 19  1  0
 19 20  2  0
 20 21  1  0
 21 22  1  0
 21 23  2  0
 14  9  1  0
 23 17  1  0
  3 24  1  0
  4 25  1  0
  8 26  1  0
  8 27  1  0
 10 28  1  0
 11 29  1  0
 12 30  1  0
 13 31  1  0
 18 32  1  0
 19 33  1  0
 20 34  1  0
 23 35  1  0
M  CHG  1  16  -1
M  END
>  <UniqueID>  (88) 
84

>  <SMILES>  (88) 
O=C(C=CC(=O)OCc1ccccc1F)[N-]c1cccc(Br)c1

>  <Energy>  (88) 
41.60513731919396

>  <Genealogy>  (88) 
O=C(C=CC(=O)OCc1ccccc1F)[N-]c1cccc(Br)c1 (protonated)
O=C(C=CC(=O)OCc1ccccc1F)[N-]c1cccc(Br)c1 (3D coordinates assigned)
O=C(C=CC(=O)OCc1ccccc1F)[N-]c1cccc(Br)c1 (optimized conformer: 41.60513731919396 kcal/mol)

>  <smiles>  (88) 
O=C(C=CC(=O)OCc1ccccc1F)Nc1cccc(Br)c1

>  <score_type>  (88) 
oracle

>  <origin>  (88) 
adg

>  <m_score__min__energy>  (88) 
-9.0800000000000001

>  <m_primary>  (88) 
energy

$$$$
88:0
     RDKit          3D

 49 51  0  0  0  0  0  0  0  0999 V2000
   55.2240   28.9930   44.9040 O   0  0  0  0  0  0  0  0  0  0  0  0
   56.5960   28.9550   45.1440 C   0  0  0  0  0  0  0  0  0  0  0  0
   57.1240   28.1250   46.1430 C   0  0  0  0  0  0  0  0  0  0  0  0
   58.5030   28.0950   46.3750 C   0  0  0  0  0  0  0  0  0  0  0  0
   59.3670   28.8860   45.6020 C   0  0  0  0  0  0  0  0  0  0  0  0
   60.8470   28.8850   45.8720 C   0  0  0  0  0  0  0  0  0  0  0  0
   61.3080   30.2620   46.0890 N   0  0  0  0  0  0  0  0  0  0  0  0
   61.5310   30.5560   47.5180 C   0  0  0  0  0  0  0  0  0  0  0  0
   60.2010   30.8820   48.2520 C   0  0  0  0  0  0  0  0  0  0  0  0
   60.4400   31.8000   49.4580 C   0  0  0  0  0  0  0  0  0  0  0  0
   61.0630   33.1000   49.0850 N   0  0  0  0  0  0  0  0  0  0  0  0
   60.0810   34.2050   49.0510 C   0  0  0  0  0  0  0  0  0  0  0  0
   60.1330   34.9240   47.6970 C   0  0  0  0  0  0  0  0  0  0  0  0
   59.2590   34.2240   46.6910 C   0  0  0  0  0  0  0  0  0  0  0  0
   58.2230   33.3780   47.1190 C   0  0  0  0  0  0  0  0  0  0  0  0
   57.3890   32.7580   46.1840 C   0  0  0  0  0  0  0  0  0  0  0  0
   57.5770   32.9860   44.8170 C   0  0  0  0  0  0  0  0  0  0  0  0
   58.5980   33.8370   44.3840 C   0  0  0  0  0  0  0  0  0  0  0  0
   59.4350   34.4580   45.3180 C   0  0  0  0  0  0  0  0  0  0  0  0
   61.8490   33.0550   47.8270 C   0  0  0  0  0  0  0  0  0  0  0  0
   62.5530   31.7060   47.6510 C   0  0  0  0  0  0  0  0  0  0  0  0
   58.8310   29.7280   44.6130 C   0  0  0  0  0  0  0  0  0  0  0  0
   57.4530   29.7560   44.3820 C   0  0  0  0  0  0  0  0  0  0  0  0
   54.7360   28.2050   44.4930 H   0  0  0  0  0  0  0  0  0  0  0  0
   56.4523   27.4960   46.7457 H   0  0  0  0  0  0  0  0  0  0  0  0
   58.9118   27.4492   47.1661 H   0  0  0  0  0  0  0  0  0  0  0  0
   61.0553   28.2834   46.7690 H   0  0  0  0  0  0  0  0  0  0  0  0
   61.3759   28.4539   45.0092 H   0  0  0  0  0  0  0  0  0  0  0  0
   60.5960   30.9260   45.7000 H   0  0  0  0  0  0  0  0  0  0  0  0
   61.9412   29.6588   48.0046 H   0  0  0  0  0  0  0  0  0  0  0  0
   59.5180   31.3830   47.5502 H   0  0  0  0  0  0  0  0  0  0  0  0
   59.7645   29.9396   48.6143 H   0  0  0  0  0  0  0  0  0  0  0  0
   59.4732   32.0009   49.9427 H   0  0  0  0  0  0  0  0  0  0  0  0
   61.1377   31.2822   50.1326 H   0  0  0  0  0  0  0  0  0  0  0  0
   59.0712   33.7976   49.2067 H   0  0  0  0  0  0  0  0  0  0  0  0
   60.3248   34.9241   49.8469 H   0  0  0  0  0  0  0  0  0  0  0  0
   59.7814   35.9586   47.8234 H   0  0  0  0  0  0  0  0  0  0  0  0
   61.1704   34.9165   47.3313 H   0  0  0  0  0  0  0  0  0  0  0  0
   58.0672   33.2026   48.1937 H   0  0  0  0  0  0  0  0  0  0  0  0
   56.5839   32.0900   46.5239 H   0  0  0  0  0  0  0  0  0  0  0  0
   56.9213   32.4956   44.0824 H   0  0  0  0  0  0  0  0  0  0  0  0
   58.7436   34.0186   43.3089 H   0  0  0  0  0  0  0  0  0  0  0  0
   60.2338   35.1320   44.9750 H   0  0  0  0  0  0  0  0  0  0  0  0
   61.1710   33.2177   46.9762 H   0  0  0  0  0  0  0  0  0  0  0  0
   62.6171   33.8411   47.8725 H   0  0  0  0  0  0  0  0  0  0  0  0
   63.1739   31.7410   46.7437 H   0  0  0  0  0  0  0  0  0  0  0  0
   63.1744   31.5188   48.5392 H   0  0  0  0  0  0  0  0  0  0  0  0
   59.4990   30.3680   44.0179 H   0  0  0  0  0  0  0  0  0  0  0  0
   57.0412   30.4096   43.5989 H   0  0  0  0  0  0  0  0  0  0  0  0
  1  2  1  0
  2  3  2  0
  3  4  1  0
  4  5  2  0
  5  6  1  0
  6  7  1  0
  7  8  1  0
  8  9  1  0
  9 10  1  0
 10 11  1  0
 11 12  1  0
 12 13  1  0
 13 14  1  0
 14 15  2  0
 15 16  1  0
 16 17  2  0
 17 18  1  0
 18 19  2  0
 11 20  1  0
 20 21  1  0
  5 22  1  0
 22 23  2  0
 23  2  1  0
 21  8  1  0
 19 14  1  0
  1 24  1  0
  3 25  1  0
  4 26  1  0
  6 27  1  0
  6 28  1  0
  7 29  1  0
  8 30  1  0
  9 31  1  0
  9 32  1  0
 10 33  1  0
 10 34  1  0
 12 35  1  0
 12 36  1  0
 13 37  1  0
 13 38  1  0
 15 39  1  0
 16 40  1  0
 17 41  1  0
 18 42  1  0
 19 43  1  0
 20 44  1  0
 20 45  1  0
 21 46  1  0
 21 47  1  0
 22 48  1  0
 23 49  1  0
M  END
>  <UniqueID>  (89) 
85

>  <SMILES>  (89) 
Oc1ccc(CNC2CCN(CCc3ccccc3)CC2)cc1

>  <Energy>  (89) 
55.87832585560639

>  <Genealogy>  (89) 
Oc1ccc(CNC2CCN(CCc3ccccc3)CC2)cc1 (3D coordinates assigned)
Oc1ccc(CNC2CCN(CCc3ccccc3)CC2)cc1 (nonaromatic ring conformer: 55.87832585560639 kcal/mol)

>  <smiles>  (89) 
Oc1ccc(CNC2CCN(CCc3ccccc3)CC2)cc1

>  <score_type>  (89) 
oracle

>  <origin>  (89) 
adg

>  <m_score__min__energy>  (89) 
-8.5700000000000003

>  <m_primary>  (89) 
energy

$$$$
89:0
     RDKit          3D

 45 47  0  0  0  0  0  0  0  0999 V2000
   55.6800   25.5870   47.1420 H   0  0  0  0  0  0  0  0  0  0  0  0
   55.1440   25.3020   46.3310 O   0  0  0  0  0  0  0  0  0  0  0  0
   55.6930   24.4900   45.3370 C   0  0  0  0  0  0  0  0  0  0  0  0
   54.8640   24.0050   44.3160 C   0  0  0  0  0  0  0  0  0  0  0  0
   53.8075   24.3091   44.2782 H   0  0  0  0  0  0  0  0  0  0  0  0
   55.3710   23.1400   43.3490 C   0  0  0  0  0  0  0  0  0  0  0  0
   54.7253   22.7729   42.5376 H   0  0  0  0  0  0  0  0  0  0  0  0
   56.7020   22.7460   43.4210 C   0  0  0  0  0  0  0  0  0  0  0  0
   57.1073   22.0387   42.6825 H   0  0  0  0  0  0  0  0  0  0  0  0
   57.5020   23.2350   44.4040 N   0  0  0  0  0  0  0  0  0  0  0  0
   57.0590   24.1100   45.3490 C   0  0  0  0  0  0  0  0  0  0  0  0
   57.9170   24.5330   46.2370 N   0  0  0  0  0  0  0  0  0  0  0  0
   57.9830   25.8210   46.8620 C   0  0  0  0  0  0  0  0  0  0  0  0
   57.6530   25.9430   48.0720 O   0  0  0  0  0  0  0  0  0  0  0  0
   58.3820   27.0080   46.0750 C   0  0  0  0  0  0  0  0  0  0  0  0
   59.7250   27.2250   45.7230 C   0  0  0  0  0  0  0  0  0  0  0  0
   60.5019   26.5289   46.0720 H   0  0  0  0  0  0  0  0  0  0  0  0
   60.0780   28.3220   44.9310 C   0  0  0  0  0  0  0  0  0  0  0  0
   61.1337   28.4971   44.6765 H   0  0  0  0  0  0  0  0  0  0  0  0
   59.0950   29.1960   44.4620 C   0  0  0  0  0  0  0  0  0  0  0  0
   59.3775   30.0533   43.8333 H   0  0  0  0  0  0  0  0  0  0  0  0
   57.7480   28.9830   44.7910 C   0  0  0  0  0  0  0  0  0  0  0  0
   56.4790   30.0030   44.1110 S   0  0  0  0  0  0  0  0  0  0  0  0
   55.1380   29.3950   44.4050 O   0  0  0  0  0  0  0  0  0  0  0  0
   56.6300   30.1060   42.6210 O   0  0  0  0  0  0  0  0  0  0  0  0
   56.5390   31.5700   44.8550 N   0  0  0  0  0  0  0  0  0  0  0  0
   57.6410   32.1110   45.5990 C   0  0  0  0  0  0  0  0  0  0  0  0
   58.2680   31.4000   46.6320 C   0  0  0  0  0  0  0  0  0  0  0  0
   57.9193   30.3894   46.8910 H   0  0  0  0  0  0  0  0  0  0  0  0
   59.3320   31.9680   47.3330 C   0  0  0  0  0  0  0  0  0  0  0  0
   59.8099   31.4028   48.1467 H   0  0  0  0  0  0  0  0  0  0  0  0
   59.8000   33.2510   47.0130 C   0  0  0  0  0  0  0  0  0  0  0  0
   60.9640   33.8260   47.7720 C   0  0  0  0  0  0  0  0  0  0  0  0
   60.7785   33.7344   48.8524 H   0  0  0  0  0  0  0  0  0  0  0  0
   61.8802   33.2769   47.5094 H   0  0  0  0  0  0  0  0  0  0  0  0
   61.0847   34.8874   47.5094 H   0  0  0  0  0  0  0  0  0  0  0  0
   59.1860   33.9660   45.9610 C   0  0  0  0  0  0  0  0  0  0  0  0
   59.6440   35.3510   45.5880 C   0  0  0  0  0  0  0  0  0  0  0  0
   59.8362   35.9322   46.5019 H   0  0  0  0  0  0  0  0  0  0  0  0
   60.5679   35.2843   44.9948 H   0  0  0  0  0  0  0  0  0  0  0  0
   58.8625   35.8483   44.9948 H   0  0  0  0  0  0  0  0  0  0  0  0
   58.1170   33.3800   45.2580 C   0  0  0  0  0  0  0  0  0  0  0  0
   57.6490   33.9290   44.4276 H   0  0  0  0  0  0  0  0  0  0  0  0
   57.4030   27.9060   45.6160 C   0  0  0  0  0  0  0  0  0  0  0  0
   56.3527   27.7607   45.9087 H   0  0  0  0  0  0  0  0  0  0  0  0
  1  2  1  0
  2  3  1  0
  3  4  2  0
  4  5  1  0
  4  6  1  0
  6  7  1  0
  6  8  2  0
  8  9  1  0
  8 10  1  0
 10 11  1  0
 11 12  2  0
 12 13  1  0
 13 14  2  0
 13 15  1  0
 15 16  2  0
 16 17  1  0
 16 18  1  0
 18 19  1  0
 18 20  2  0
 20 21  1  0
 20 22  1  0
 22 23  1  0
 23 24  2  0
 23 25  2  0
 23 26  1  0
 26 27  1  0
 27 28  2  0
 28 29  1  0
 28 30  1  0
 30 31  1  0
 30 32  2  0
 32 33  1  0
 33 34  1  0
 33 35  1  0
 33 36  1  0
 32 37  1  0
 37 38  1  0
 38 39  1  0
 38 40  1  0
 38 41  1  0
 37 42  2  0
 42 43  1  0
 22 44  2  0
 44 45  1  0
 11  3  1  0
 44 15  1  0
 42 27  1  0
M  CHG  2  10  -1  26  -1
M  END
>  <UniqueID>  (90) 
86

>  <SMILES>  (90) 
Cc1ccc([N-]S(=O)(=O)c2cccc(C(=O)/N=c3/[n-]cccc3O)c2)cc1C

>  <Energy>  (90) 
64.11370139539052

>  <Genealogy>  (90) 
Cc1ccc([N-]S(=O)(=O)c2cccc(C(=O)N=c3[n-]cccc3O)c2)cc1C (protonated)
Cc1ccc([N-]S(=O)(=O)c2cccc(C(=O)/N=c3/[n-]cccc3O)c2)cc1C (cis-trans isomerization)
Cc1ccc([N-]S(=O)(=O)c2cccc(C(=O)/N=c3/[n-]cccc3O)c2)cc1C (3D coordinates assigned)
Cc1ccc([N-]S(=O)(=O)c2cccc(C(=O)/N=c3/[n-]cccc3O)c2)cc1C (optimized conformer: 64.11370139539052 kcal/mol)

>  <smiles>  (90) 
Cc1ccc(NS(=O)(=O)c2cccc(C(=O)N=c3[nH]cccc3O)c2)cc1C

>  <score_type>  (90) 
oracle

>  <origin>  (90) 
adg

>  <m_score__min__energy>  (90) 
-12.890000000000001

>  <m_primary>  (90) 
energy

$$$$
90:0
     RDKit          3D

 39 42  0  0  0  0  0  0  0  0999 V2000
   64.1380   32.3790   47.5900 N   0  0  0  0  0  0  0  0  0  0  0  0
   62.8980   33.0290   47.8860 C   0  0  0  0  0  0  0  0  0  0  0  0
   62.7770   33.8250   49.0320 C   0  0  0  0  0  0  0  0  0  0  0  0
   61.5660   34.4560   49.3230 C   0  0  0  0  0  0  0  0  0  0  0  0
   60.4690   34.2970   48.4720 C   0  0  0  0  0  0  0  0  0  0  0  0
   60.5720   33.5020   47.3170 C   0  0  0  0  0  0  0  0  0  0  0  0
   59.4070   33.3330   46.4110 C   0  0  0  0  0  0  0  0  0  0  0  0
   58.8790   34.4350   45.7170 C   0  0  0  0  0  0  0  0  0  0  0  0
   57.7840   34.2740   44.8670 C   0  0  0  0  0  0  0  0  0  0  0  0
   57.2040   33.0160   44.6970 C   0  0  0  0  0  0  0  0  0  0  0  0
   57.7120   31.8970   45.3780 C   0  0  0  0  0  0  0  0  0  0  0  0
   57.0820   30.5680   45.1820 C   0  0  0  0  0  0  0  0  0  0  0  0
   55.9390   30.2800   44.4610 C   0  0  0  0  0  0  0  0  0  0  0  0
   55.7000   28.9590   44.5240 N   0  0  0  0  0  0  0  0  0  0  0  0
   56.7070   28.4780   45.2830 C   0  0  0  0  0  0  0  0  0  0  0  0
   56.8590   27.0530   45.6260 C   0  0  0  0  0  0  0  0  0  0  0  0
   58.1110   26.4200   45.5650 C   0  0  0  0  0  0  0  0  0  0  0  0
   58.2130   25.0680   45.8990 C   0  0  0  0  0  0  0  0  0  0  0  0
   57.0740   24.3600   46.2880 C   0  0  0  0  0  0  0  0  0  0  0  0
   55.8450   25.0190   46.3380 C   0  0  0  0  0  0  0  0  0  0  0  0
   55.7650   26.3360   46.0100 N   0  0  0  0  0  0  0  0  0  0  0  0
   57.5690   29.4270   45.7020 N   0  0  0  0  0  0  0  0  0  0  0  0
   58.8180   32.0670   46.2340 C   0  0  0  0  0  0  0  0  0  0  0  0
   61.7980   32.8700   47.0320 C   0  0  0  0  0  0  0  0  0  0  0  0
   64.5190   31.6420   48.2250 H   0  0  0  0  0  0  0  0  0  0  0  0
   64.6830   32.6300   46.7360 H   0  0  0  0  0  0  0  0  0  0  0  0
   63.6381   33.9533   49.7044 H   0  0  0  0  0  0  0  0  0  0  0  0
   61.4752   35.0799   50.2244 H   0  0  0  0  0  0  0  0  0  0  0  0
   59.5181   34.7974   48.7075 H   0  0  0  0  0  0  0  0  0  0  0  0
   59.3312   35.4296   45.8444 H   0  0  0  0  0  0  0  0  0  0  0  0
   57.3763   35.1423   44.3287 H   0  0  0  0  0  0  0  0  0  0  0  0
   56.3417   32.8996   44.0240 H   0  0  0  0  0  0  0  0  0  0  0  0
   55.3231   31.0146   43.9216 H   0  0  0  0  0  0  0  0  0  0  0  0
   59.0036   26.9842   45.2568 H   0  0  0  0  0  0  0  0  0  0  0  0
   59.1886   24.5617   45.8558 H   0  0  0  0  0  0  0  0  0  0  0  0
   57.1448   23.2945   46.5521 H   0  0  0  0  0  0  0  0  0  0  0  0
   54.9403   24.4726   46.6430 H   0  0  0  0  0  0  0  0  0  0  0  0
   59.2268   31.1985   46.7713 H   0  0  0  0  0  0  0  0  0  0  0  0
   61.8931   32.2460   46.1311 H   0  0  0  0  0  0  0  0  0  0  0  0
  1  2  1  0
  2  3  2  0
  3  4  1  0
  4  5  2  0
  5  6  1  0
  6  7  1  0
  7  8  2  0
  8  9  1  0
  9 10  2  0
 10 11  1  0
 11 12  1  0
 12 13  2  0
 13 14  1  0
 14 15  1  0
 15 16  1  0
 16 17  2  0
 17 18  1  0
 18 19  2  0
 19 20  1  0
 20 21  2  0
 15 22  2  0
 11 23  2  0
  6 24  2  0
 24  2  1  0
 23  7  1  0
 22 12  1  0
 21 16  1  0
  1 25  1  0
  1 26  1  0
  3 27  1  0
  4 28  1  0
  5 29  1  0
  8 30  1  0
  9 31  1  0
 10 32  1  0
 13 33  1  0
 17 34  1  0
 18 35  1  0
 19 36  1  0
 20 37  1  0
 23 38  1  0
 24 39  1  0
M  CHG  1  14  -1
M  END
>  <UniqueID>  (91) 
87

>  <SMILES>  (91) 
Nc1cccc(-c2cccc(-c3c[n-]c(-c4ccccn4)n3)c2)c1

>  <Energy>  (91) 
77.83845429801718

>  <Genealogy>  (91) 
Nc1cccc(-c2cccc(-c3c[n-]c(-c4ccccn4)n3)c2)c1 (protonated)
Nc1cccc(-c2cccc(-c3c[n-]c(-c4ccccn4)n3)c2)c1 (3D coordinates assigned)
Nc1cccc(-c2cccc(-c3c[n-]c(-c4ccccn4)n3)c2)c1 (optimized conformer: 77.83845429801718 kcal/mol)

>  <smiles>  (91) 
Nc1cccc(-c2cccc(-c3c[nH]c(-c4ccccn4)n3)c2)c1

>  <score_type>  (91) 
oracle

>  <origin>  (91) 
adg

>  <m_score__min__energy>  (91) 
-10.630000000000001

>  <m_primary>  (91) 
energy

$$$$
91:0
     RDKit          3D

 40 41  0  0  0  0  0  0  0  0999 V2000
   56.2926   21.9994   43.7160 H   0  0  0  0  0  0  0  0  0  0  0  0
   56.6830   22.9260   44.1620 C   0  0  0  0  0  0  0  0  0  0  0  0
   56.9810   22.9730   45.5270 C   0  0  0  0  0  0  0  0  0  0  0  0
   56.8275   22.0821   46.1536 H   0  0  0  0  0  0  0  0  0  0  0  0
   57.4740   24.1510   46.0970 C   0  0  0  0  0  0  0  0  0  0  0  0
   57.7138   24.1823   47.1701 H   0  0  0  0  0  0  0  0  0  0  0  0
   57.6640   25.2950   45.3030 C   0  0  0  0  0  0  0  0  0  0  0  0
   58.2300   26.5510   45.9080 C   0  0  0  0  0  0  0  0  0  0  0  0
   59.2317   26.7357   45.4927 H   0  0  0  0  0  0  0  0  0  0  0  0
   58.2947   26.4282   46.9992 H   0  0  0  0  0  0  0  0  0  0  0  0
   57.3420   27.7160   45.5970 C   0  0  0  0  0  0  0  0  0  0  0  0
   57.7870   28.9060   45.1570 N   0  0  0  0  0  0  0  0  0  0  0  0
   56.6510   29.6080   44.9480 C   0  0  0  0  0  0  0  0  0  0  0  0
   56.6660   30.8320   44.5170 N   0  0  0  0  0  0  0  0  0  0  0  0
   57.4990   31.2870   43.4070 C   0  0  0  0  0  0  0  0  0  0  0  0
   56.8597   31.5012   42.5378 H   0  0  0  0  0  0  0  0  0  0  0  0
   58.2236   30.4980   43.1572 H   0  0  0  0  0  0  0  0  0  0  0  0
   58.2600   32.5550   43.7980 C   0  0  0  0  0  0  0  0  0  0  0  0
   58.0660   33.3328   43.0448 H   0  0  0  0  0  0  0  0  0  0  0  0
   59.3310   32.3088   43.8466 H   0  0  0  0  0  0  0  0  0  0  0  0
   57.8280   33.0800   45.1780 C   0  0  0  0  0  0  0  0  0  0  0  0
   58.3678   32.5194   45.9554 H   0  0  0  0  0  0  0  0  0  0  0  0
   56.7405   32.9411   45.2674 H   0  0  0  0  0  0  0  0  0  0  0  0
   58.1300   34.5840   45.3490 C   0  0  0  0  0  0  0  0  0  0  0  0
   57.4380   34.9946   46.0991 H   0  0  0  0  0  0  0  0  0  0  0  0
   58.0033   35.0527   44.3620 H   0  0  0  0  0  0  0  0  0  0  0  0
   59.5700   34.8750   45.8050 C   0  0  0  0  0  0  0  0  0  0  0  0
   59.7815   35.9416   45.6389 H   0  0  0  0  0  0  0  0  0  0  0  0
   60.2381   34.2276   45.2181 H   0  0  0  0  0  0  0  0  0  0  0  0
   59.8050   34.5560   47.2810 C   0  0  0  0  0  0  0  0  0  0  0  0
   59.2673   35.2859   47.9040 H   0  0  0  0  0  0  0  0  0  0  0  0
   59.4353   33.5435   47.5007 H   0  0  0  0  0  0  0  0  0  0  0  0
   60.8815   34.6089   47.5007 H   0  0  0  0  0  0  0  0  0  0  0  0
   55.5110   28.9280   45.2180 N   0  0  0  0  0  0  0  0  0  0  0  0
   55.9690   27.7320   45.6210 C   0  0  0  0  0  0  0  0  0  0  0  0
   55.1480   26.6760   45.9970 O   0  0  0  0  0  0  0  0  0  0  0  0
   57.3740   25.2360   43.9290 C   0  0  0  0  0  0  0  0  0  0  0  0
   57.5354   26.1211   43.2961 H   0  0  0  0  0  0  0  0  0  0  0  0
   56.8810   24.0560   43.3640 C   0  0  0  0  0  0  0  0  0  0  0  0
   56.6486   24.0170   42.2895 H   0  0  0  0  0  0  0  0  0  0  0  0
  1  2  1  0
  2  3  2  0
  3  4  1  0
  3  5  1  0
  5  6  1  0
  5  7  2  0
  7  8  1  0
  8  9  1  0
  8 10  1  0
  8 11  1  0
 11 12  1  0
 12 13  1  0
 13 14  2  0
 14 15  1  0
 15 16  1  0
 15 17  1  0
 15 18  1  0
 18 19  1  0
 18 20  1  0
 18 21  1  0
 21 22  1  0
 21 23  1  0
 21 24  1  0
 24 25  1  0
 24 26  1  0
 24 27  1  0
 27 28  1  0
 27 29  1  0
 27 30  1  0
 30 31  1  0
 30 32  1  0
 30 33  1  0
 13 34  1  0
 34 35  1  0
 35 36  1  0
  7 37  1  0
 37 38  1  0
 37 39  2  0
 39 40  1  0
 39  2  1  0
 35 11  2  0
M  CHG  3  12  -1  34  -1  36  -1
M  END
>  <UniqueID>  (92) 
88

>  <SMILES>  (92) 
CCCCCC/N=c1\[n-]c([O-])c(Cc2ccccc2)[n-]1

>  <Energy>  (92) 
58.628724701438315

>  <Genealogy>  (92) 
CCCCCCN=c1[n-]c([O-])c(Cc2ccccc2)[n-]1 (protonated)
CCCCCC/N=c1\[n-]c([O-])c(Cc2ccccc2)[n-]1 (cis-trans isomerization)
CCCCCC/N=c1\[n-]c([O-])c(Cc2ccccc2)[n-]1 (3D coordinates assigned)
CCCCCC/N=c1\[n-]c([O-])c(Cc2ccccc2)[n-]1 (optimized conformer: 58.628724701438315 kcal/mol)

>  <smiles>  (92) 
CCCCCCN=c1[nH]c(O)c(Cc2ccccc2)[nH]1

>  <score_type>  (92) 
oracle

>  <origin>  (92) 
adg

>  <m_score__min__energy>  (92) 
-12.93

>  <m_primary>  (92) 
energy

$$$$
92:0
     RDKit          3D

 61 63  0  0  0  0  0  0  0  0999 V2000
   61.4160   31.3920   51.4820 C   0  0  0  0  0  0  0  0  0  0  0  0
   61.7490   32.7910   50.9710 C   0  0  0  0  0  0  0  0  0  0  0  0
   60.6340   33.7870   51.3140 C   0  0  0  0  0  0  0  0  0  0  0  0
   60.2460   33.6830   52.7920 C   0  0  0  0  0  0  0  0  0  0  0  0
   58.8010   34.1310   53.0240 C   0  0  0  0  0  0  0  0  0  0  0  0
   57.9030   32.9390   53.0950 C   0  0  0  0  0  0  0  0  0  0  0  0
   57.7090   32.3670   54.1980 O   0  0  0  0  0  0  0  0  0  0  0  0
   57.2620   32.4910   51.9310 O   0  0  0  0  0  0  0  0  0  0  0  0
   57.8510   31.6360   50.9880 C   0  0  0  0  0  0  0  0  0  0  0  0
   58.4080   32.1370   49.7980 C   0  0  0  0  0  0  0  0  0  0  0  0
   58.9930   31.2720   48.8700 C   0  0  0  0  0  0  0  0  0  0  0  0
   59.0330   29.8940   49.1150 C   0  0  0  0  0  0  0  0  0  0  0  0
   59.6600   28.9570   48.1160 C   0  0  0  0  0  0  0  0  0  0  0  0
   59.3390   29.3920   46.7170 C   0  0  0  0  0  0  0  0  0  0  0  0
   60.2640   29.4480   45.8610 O   0  0  0  0  0  0  0  0  0  0  0  0
   58.0020   29.7870   46.3760 N   0  0  0  0  0  0  0  0  0  0  0  0
   57.5860   30.1470   45.0490 C   0  0  0  0  0  0  0  0  0  0  0  0
   58.2710   31.1720   44.3730 C   0  0  0  0  0  0  0  0  0  0  0  0
   57.8770   31.5660   43.0920 C   0  0  0  0  0  0  0  0  0  0  0  0
   56.7870   30.9460   42.4780 C   0  0  0  0  0  0  0  0  0  0  0  0
   56.0790   29.9440   43.1520 C   0  0  0  0  0  0  0  0  0  0  0  0
   56.4620   29.5560   44.4400 C   0  0  0  0  0  0  0  0  0  0  0  0
   55.7030   28.6440   45.1030 F   0  0  0  0  0  0  0  0  0  0  0  0
   58.5160   29.3940   50.3190 C   0  0  0  0  0  0  0  0  0  0  0  0
   57.9130   30.2530   51.2480 C   0  0  0  0  0  0  0  0  0  0  0  0
   57.4020   29.6840   52.5060 C   0  0  0  0  0  0  0  0  0  0  0  0
   58.2350   29.4530   53.4260 O   0  0  0  0  0  0  0  0  0  0  0  0
   56.0140   29.3980   52.7690 N   0  0  0  0  0  0  0  0  0  0  0  0
   54.8990   30.0340   52.5260 C   0  0  0  0  0  0  0  0  0  0  0  0
   53.9280   30.3210   53.5070 C   0  0  0  0  0  0  0  0  0  0  0  0
   52.7610   30.9960   53.1390 C   0  0  0  0  0  0  0  0  0  0  0  0
   52.5820   31.4450   51.8200 C   0  0  0  0  0  0  0  0  0  0  0  0
   51.3610   32.1800   51.4310 C   0  0  0  0  0  0  0  0  0  0  0  0
   50.6010   32.6710   52.3080 O   0  0  0  0  0  0  0  0  0  0  0  0
   51.0280   32.3330   50.0920 O   0  0  0  0  0  0  0  0  0  0  0  0
   53.5940   31.1870   50.8850 C   0  0  0  0  0  0  0  0  0  0  0  0
   54.7020   30.4950   51.2570 N   0  0  0  0  0  0  0  0  0  0  0  0
   61.4164   31.3937   52.5820 H   0  0  0  0  0  0  0  0  0  0  0  0
   60.4221   31.0950   51.1162 H   0  0  0  0  0  0  0  0  0  0  0  0
   62.1695   30.6790   51.1162 H   0  0  0  0  0  0  0  0  0  0  0  0
   62.6872   33.1287   51.4355 H   0  0  0  0  0  0  0  0  0  0  0  0
   61.8519   32.7467   49.8767 H   0  0  0  0  0  0  0  0  0  0  0  0
   60.9858   34.8080   51.1047 H   0  0  0  0  0  0  0  0  0  0  0  0
   59.7514   33.5523   50.7009 H   0  0  0  0  0  0  0  0  0  0  0  0
   60.3530   32.6376   53.1172 H   0  0  0  0  0  0  0  0  0  0  0  0
   60.9095   34.3423   53.3709 H   0  0  0  0  0  0  0  0  0  0  0  0
   58.7400   34.6901   53.9693 H   0  0  0  0  0  0  0  0  0  0  0  0
   58.4833   34.7739   52.1899 H   0  0  0  0  0  0  0  0  0  0  0  0
   58.3829   33.2181   49.5963 H   0  0  0  0  0  0  0  0  0  0  0  0
   59.4244   31.6755   47.9421 H   0  0  0  0  0  0  0  0  0  0  0  0
   60.7513   28.9575   48.2542 H   0  0  0  0  0  0  0  0  0  0  0  0
   59.2588   27.9453   48.2756 H   0  0  0  0  0  0  0  0  0  0  0  0
   57.3330   29.9600   47.1620 H   0  0  0  0  0  0  0  0  0  0  0  0
   59.1250   31.6682   44.8573 H   0  0  0  0  0  0  0  0  0  0  0  0
   58.4245   32.3633   42.5680 H   0  0  0  0  0  0  0  0  0  0  0  0
   56.4843   31.2452   41.4637 H   0  0  0  0  0  0  0  0  0  0  0  0
   55.2184   29.4601   42.6670 H   0  0  0  0  0  0  0  0  0  0  0  0
   58.5844   28.3178   50.5362 H   0  0  0  0  0  0  0  0  0  0  0  0
   54.0874   30.0166   54.5519 H   0  0  0  0  0  0  0  0  0  0  0  0
   51.9762   31.1772   53.8882 H   0  0  0  0  0  0  0  0  0  0  0  0
   53.4908   31.5450   49.8500 H   0  0  0  0  0  0  0  0  0  0  0  0
  1  2  1  0
  2  3  1  0
  3  4  1  0
  4  5  1  0
  5  6  1  0
  6  7  2  0
  6  8  1  0
  8  9  1  0
  9 10  2  0
 10 11  1  0
 11 12  2  0
 12 13  1  0
 13 14  1  0
 14 15  2  0
 14 16  1  0
 16 17  1  0
 17 18  2  0
 18 19  1  0
 19 20  2  0
 20 21  1  0
 21 22  2  0
 22 23  1  0
 12 24  1  0
 24 25  2  0
 25 26  1  0
 26 27  2  0
 26 28  1  0
 28 29  2  3
 29 30  1  0
 30 31  2  0
 31 32  1  0
 32 33  1  0
 33 34  2  0
 33 35  1  0
 32 36  2  0
 36 37  1  0
 25  9  1  0
 37 29  1  0
 22 17  1  0
  1 38  1  0
  1 39  1  0
  1 40  1  0
  2 41  1  0
  2 42  1  0
  3 43  1  0
  3 44  1  0
  4 45  1  0
  4 46  1  0
  5 47  1  0
  5 48  1  0
 10 49  1  0
 11 50  1  0
 13 51  1  0
 13 52  1  0
 16 53  1  0
 18 54  1  0
 19 55  1  0
 20 56  1  0
 21 57  1  0
 24 58  1  0
 30 59  1  0
 31 60  1  0
 36 61  1  0
M  CHG  2  35  -1  37  -1
M  END
>  <UniqueID>  (93) 
89

>  <SMILES>  (93) 
CCCCCC(=O)Oc1ccc(CC(=O)Nc2ccccc2F)cc1C(=O)N=c1ccc(C(=O)[O-])c[n-]1

>  <Energy>  (93) 
77.18198484515993

>  <Genealogy>  (93) 
CCCCCC(=O)Oc1ccc(CC(=O)Nc2ccccc2F)cc1C(=O)N=c1ccc(C(=O)[O-])c[n-]1 (protonated)
CCCCCC(=O)Oc1ccc(CC(=O)Nc2ccccc2F)cc1C(=O)N=c1ccc(C(=O)[O-])c[n-]1 (3D coordinates assigned)
CCCCCC(=O)Oc1ccc(CC(=O)Nc2ccccc2F)cc1C(=O)N=c1ccc(C(=O)[O-])c[n-]1 (optimized conformer: 77.18198484515993 kcal/mol)

>  <smiles>  (93) 
CCCCCC(=O)Oc1ccc(CC(=O)Nc2ccccc2F)cc1C(=O)N=c1ccc(C(=O)O)c[nH]1

>  <score_type>  (93) 
oracle

>  <origin>  (93) 
adg

>  <m_score__min__energy>  (93) 
-13.44

>  <m_primary>  (93) 
energy

$$$$
93:0
     RDKit          3D

 32 33  0  0  0  0  0  0  0  0999 V2000
   54.7740   26.3410   46.0080 N   0  0  0  0  0  0  0  0  0  0  0  0
   56.3470   25.6690   46.2540 S   0  0  0  0  0  0  0  0  0  0  0  0
   56.3640   24.8940   47.5420 O   0  0  0  0  0  0  0  0  0  0  0  0
   56.6760   24.7340   45.1240 O   0  0  0  0  0  0  0  0  0  0  0  0
   57.5360   26.9660   46.3230 C   0  0  0  0  0  0  0  0  0  0  0  0
   57.5580   27.9530   45.3280 C   0  0  0  0  0  0  0  0  0  0  0  0
   58.4890   28.9950   45.3930 C   0  0  0  0  0  0  0  0  0  0  0  0
   59.4070   29.0590   46.4520 C   0  0  0  0  0  0  0  0  0  0  0  0
   60.3760   30.2140   46.5480 C   0  0  0  0  0  0  0  0  0  0  0  0
   59.8660   31.2860   47.4190 N   0  0  0  0  0  0  0  0  0  0  0  0
   59.3570   32.4020   46.6510 C   0  0  0  0  0  0  0  0  0  0  0  0
   58.0270   32.3820   46.1890 C   0  0  0  0  0  0  0  0  0  0  0  0
   57.5020   33.4650   45.4800 C   0  0  0  0  0  0  0  0  0  0  0  0
   58.2980   34.5810   45.2210 C   0  0  0  0  0  0  0  0  0  0  0  0
   59.6190   34.6190   45.6720 C   0  0  0  0  0  0  0  0  0  0  0  0
   60.1550   33.5410   46.3860 C   0  0  0  0  0  0  0  0  0  0  0  0
   61.8250   33.6500   46.9310 Cl  0  0  0  0  0  0  0  0  0  0  0  0
   59.3740   28.0750   47.4520 C   0  0  0  0  0  0  0  0  0  0  0  0
   58.4430   27.0350   47.3890 C   0  0  0  0  0  0  0  0  0  0  0  0
   54.6480   27.0900   46.7250 H   0  0  0  0  0  0  0  0  0  0  0  0
   56.8417   27.9081   44.4944 H   0  0  0  0  0  0  0  0  0  0  0  0
   58.5014   29.7677   44.6102 H   0  0  0  0  0  0  0  0  0  0  0  0
   61.3287   29.8462   46.9569 H   0  0  0  0  0  0  0  0  0  0  0  0
   60.5126   30.6299   45.5389 H   0  0  0  0  0  0  0  0  0  0  0  0
   59.1050   30.9010   48.0260 H   0  0  0  0  0  0  0  0  0  0  0  0
   60.6250   31.6060   48.0660 H   0  0  0  0  0  0  0  0  0  0  0  0
   57.3948   31.5042   46.3885 H   0  0  0  0  0  0  0  0  0  0  0  0
   56.4609   33.4379   45.1259 H   0  0  0  0  0  0  0  0  0  0  0  0
   57.8844   35.4324   44.6606 H   0  0  0  0  0  0  0  0  0  0  0  0
   60.2422   35.5015   45.4649 H   0  0  0  0  0  0  0  0  0  0  0  0
   60.0849   28.1227   48.2900 H   0  0  0  0  0  0  0  0  0  0  0  0
   58.4220   26.2687   48.1779 H   0  0  0  0  0  0  0  0  0  0  0  0
  1  2  1  0
  2  3  2  0
  2  4  2  0
  2  5  1  0
  5  6  2  0
  6  7  1  0
  7  8  2  0
  8  9  1  0
  9 10  1  0
 10 11  1  0
 11 12  2  0
 12 13  1  0
 13 14  2  0
 14 15  1  0
 15 16  2  0
 16 17  1  0
  8 18  1  0
 18 19  2  0
 19  5  1  0
 16 11  1  0
  1 20  1  0
  6 21  1  0
  7 22  1  0
  9 23  1  0
  9 24  1  0
 10 25  1  0
 10 26  1  0
 12 27  1  0
 13 28  1  0
 14 29  1  0
 15 30  1  0
 18 31  1  0
 19 32  1  0
M  CHG  2   1  -1  10   1
M  END
>  <UniqueID>  (94) 
90

>  <SMILES>  (94) 
[NH-]S(=O)(=O)c1ccc(C[NH2+]c2ccccc2Cl)cc1

>  <Energy>  (94) 
33.29129901648545

>  <Genealogy>  (94) 
[NH-]S(=O)(=O)c1ccc(C[NH2+]c2ccccc2Cl)cc1 (protonated)
[NH-]S(=O)(=O)c1ccc(C[NH2+]c2ccccc2Cl)cc1 (3D coordinates assigned)
[NH-]S(=O)(=O)c1ccc(C[NH2+]c2ccccc2Cl)cc1 (optimized conformer: 33.29129901648545 kcal/mol)

>  <smiles>  (94) 
NS(=O)(=O)c1ccc(CNc2ccccc2Cl)cc1

>  <score_type>  (94) 
oracle

>  <origin>  (94) 
adg

>  <m_score__min__energy>  (94) 
-9.1899999999999995

>  <m_primary>  (94) 
energy

$$$$
94:0
     RDKit          3D

 53 55  0  0  0  0  0  0  0  0999 V2000
   55.3770   25.7180   46.0520 N   0  0  0  0  0  0  0  0  0  0  0  0
   57.0660   25.6850   46.4270 S   0  0  0  0  0  0  0  0  0  0  0  0
   57.7430   24.6910   45.5250 O   0  0  0  0  0  0  0  0  0  0  0  0
   57.2520   25.2700   47.8590 O   0  0  0  0  0  0  0  0  0  0  0  0
   57.7680   27.2810   46.1850 C   0  0  0  0  0  0  0  0  0  0  0  0
   59.0800   27.5410   46.6000 C   0  0  0  0  0  0  0  0  0  0  0  0
   59.6410   28.8060   46.4040 C   0  0  0  0  0  0  0  0  0  0  0  0
   58.8910   29.8210   45.8040 C   0  0  0  0  0  0  0  0  0  0  0  0
   57.5620   29.5790   45.4100 C   0  0  0  0  0  0  0  0  0  0  0  0
   56.7600   30.5840   44.7710 N   0  0  0  0  0  0  0  0  0  0  0  0
   57.0050   31.1990   43.5000 C   0  0  0  0  0  0  0  0  0  0  0  0
   56.6220   30.6520   42.4310 O   0  0  0  0  0  0  0  0  0  0  0  0
   57.7710   32.4840   43.4460 C   0  0  0  0  0  0  0  0  0  0  0  0
   58.1900   32.8910   44.8010 N   0  0  0  0  0  0  0  0  0  0  0  0
   57.0320   33.3040   45.6090 C   0  0  0  0  0  0  0  0  0  0  0  0
   57.4530   33.4980   47.0820 C   0  0  0  0  0  0  0  0  0  0  0  0
   58.8900   33.8300   47.2410 N   0  0  0  0  0  0  0  0  0  0  0  0
   59.7440   32.6400   47.4600 C   0  0  0  0  0  0  0  0  0  0  0  0
   61.1550   33.0510   47.8290 C   0  0  0  0  0  0  0  0  0  0  0  0
   62.1330   33.0410   46.8170 C   0  0  0  0  0  0  0  0  0  0  0  0
   63.4530   33.3900   47.0940 C   0  0  0  0  0  0  0  0  0  0  0  0
   63.8210   33.7610   48.3840 C   0  0  0  0  0  0  0  0  0  0  0  0
   62.8690   33.7860   49.4030 C   0  0  0  0  0  0  0  0  0  0  0  0
   61.5250   33.4330   49.1520 C   0  0  0  0  0  0  0  0  0  0  0  0
   60.5140   33.5070   50.2830 C   0  0  0  0  0  0  0  0  0  0  0  0
   61.1150   33.8200   51.4910 F   0  0  0  0  0  0  0  0  0  0  0  0
   59.8780   32.2890   50.4360 F   0  0  0  0  0  0  0  0  0  0  0  0
   59.5760   34.4850   50.0100 F   0  0  0  0  0  0  0  0  0  0  0  0
   59.3750   34.6660   46.1250 C   0  0  0  0  0  0  0  0  0  0  0  0
   59.2010   33.9720   44.7560 C   0  0  0  0  0  0  0  0  0  0  0  0
   57.0140   28.3030   45.5910 C   0  0  0  0  0  0  0  0  0  0  0  0
   55.2770   26.2070   45.1340 H   0  0  0  0  0  0  0  0  0  0  0  0
   54.9160   26.3220   46.7690 H   0  0  0  0  0  0  0  0  0  0  0  0
   59.6705   26.7476   47.0815 H   0  0  0  0  0  0  0  0  0  0  0  0
   60.6752   29.0031   46.7227 H   0  0  0  0  0  0  0  0  0  0  0  0
   59.3405   30.8114   45.6393 H   0  0  0  0  0  0  0  0  0  0  0  0
   58.6628   32.3481   42.8165 H   0  0  0  0  0  0  0  0  0  0  0  0
   57.1247   33.2669   43.0224 H   0  0  0  0  0  0  0  0  0  0  0  0
   56.6343   34.2516   45.2167 H   0  0  0  0  0  0  0  0  0  0  0  0
   56.2596   32.5226   45.5559 H   0  0  0  0  0  0  0  0  0  0  0  0
   56.8558   34.3159   47.5113 H   0  0  0  0  0  0  0  0  0  0  0  0
   57.2792   32.5431   47.5997 H   0  0  0  0  0  0  0  0  0  0  0  0
   59.3192   32.0364   48.2756 H   0  0  0  0  0  0  0  0  0  0  0  0
   59.7791   32.0550   46.5291 H   0  0  0  0  0  0  0  0  0  0  0  0
   61.8513   32.7537   45.7932 H   0  0  0  0  0  0  0  0  0  0  0  0
   64.2056   33.3723   46.2919 H   0  0  0  0  0  0  0  0  0  0  0  0
   64.8642   34.0349   48.6002 H   0  0  0  0  0  0  0  0  0  0  0  0
   63.1698   34.0853   50.4179 H   0  0  0  0  0  0  0  0  0  0  0  0
   58.8098   35.6096   46.1179 H   0  0  0  0  0  0  0  0  0  0  0  0
   60.4496   34.8434   46.2789 H   0  0  0  0  0  0  0  0  0  0  0  0
   58.8847   34.7222   44.0163 H   0  0  0  0  0  0  0  0  0  0  0  0
   60.1658   33.5206   44.4813 H   0  0  0  0  0  0  0  0  0  0  0  0
   55.9833   28.1008   45.2644 H   0  0  0  0  0  0  0  0  0  0  0  0
  1  2  1  0
  2  3  2  0
  2  4  2  0
  2  5  1  0
  5  6  2  0
  6  7  1  0
  7  8  2  0
  8  9  1  0
  9 10  1  0
 10 11  1  0
 11 12  2  0
 11 13  1  0
 13 14  1  0
 14 15  1  0
 15 16  1  0
 16 17  1  0
 17 18  1  0
 18 19  1  0
 19 20  2  0
 20 21  1  0
 21 22  2  0
 22 23  1  0
 23 24  2  0
 24 25  1  0
 25 26  1  0
 25 27  1  0
 25 28  1  0
 17 29  1  0
 29 30  1  0
  9 31  2  0
 31  5  1  0
 30 14  1  0
 24 19  1  0
  1 32  1  0
  1 33  1  0
  6 34  1  0
  7 35  1  0
  8 36  1  0
 13 37  1  0
 13 38  1  0
 15 39  1  0
 15 40  1  0
 16 41  1  0
 16 42  1  0
 18 43  1  0
 18 44  1  0
 20 45  1  0
 21 46  1  0
 22 47  1  0
 23 48  1  0
 29 49  1  0
 29 50  1  0
 30 51  1  0
 30 52  1  0
 31 53  1  0
M  CHG  1  10  -1
M  END
>  <UniqueID>  (95) 
91

>  <SMILES>  (95) 
NS(=O)(=O)c1cccc([N-]C(=O)CN2CCN(Cc3ccccc3C(F)(F)F)CC2)c1

>  <Energy>  (95) 
70.29300394392969

>  <Genealogy>  (95) 
NS(=O)(=O)c1cccc([N-]C(=O)CN2CCN(Cc3ccccc3C(F)(F)F)CC2)c1 (protonated)
NS(=O)(=O)c1cccc([N-]C(=O)CN2CCN(Cc3ccccc3C(F)(F)F)CC2)c1 (3D coordinates assigned)
NS(=O)(=O)c1cccc([N-]C(=O)CN2CCN(Cc3ccccc3C(F)(F)F)CC2)c1 (nonaromatic ring conformer: 70.29300394392969 kcal/mol)

>  <smiles>  (95) 
NS(=O)(=O)c1cccc(NC(=O)CN2CCN(Cc3ccccc3C(F)(F)F)CC2)c1

>  <score_type>  (95) 
oracle

>  <origin>  (95) 
adg

>  <m_score__min__energy>  (95) 
-11.23

>  <m_primary>  (95) 
energy

$$$$
