0:0
     RDKit          3D

 37 39  0  0  0  0  0  0  0  0999 V2000
   56.6400   34.0800   45.2270 N   0  0  0  0  0  0  0  0  0  0  0  0
   57.6760   33.8780   45.7040 C   0  0  0  0  0  0  0  0  0  0  0  0
   58.9650   33.6290   46.2990 C   0  0  0  0  0  0  0  0  0  0  0  0
   59.1930   32.4290   46.9790 C   0  0  0  0  0  0  0  0  0  0  0  0
   60.4410   32.1870   47.5820 C   0  0  0  0  0  0  0  0  0  0  0  0
   61.4620   33.1490   47.4250 C   0  0  0  0  0  0  0  0  0  0  0  0
   61.2060   34.3150   46.7770 N   0  0  0  0  0  0  0  0  0  0  0  0
   59.9940   34.5800   46.2230 C   0  0  0  0  0  0  0  0  0  0  0  0
   59.8130   35.6780   45.6350 O   0  0  0  0  0  0  0  0  0  0  0  0
   62.6600   32.9210   47.8760 N   0  0  0  0  0  0  0  0  0  0  0  0
   63.0240   31.6230   48.4450 C   0  0  0  0  0  0  0  0  0  0  0  0
   61.8790   31.0270   49.1490 N   0  0  0  0  0  0  0  0  0  0  0  0
   60.6730   31.0980   48.3510 C   0  0  0  0  0  0  0  0  0  0  0  0
   59.6560   30.1040   48.5420 N   0  0  0  0  0  0  0  0  0  0  0  0
   59.5560   28.9190   47.7370 C   0  0  0  0  0  0  0  0  0  0  0  0
   60.0750   27.7120   48.2200 C   0  0  0  0  0  0  0  0  0  0  0  0
   60.0360   26.5600   47.4290 C   0  0  0  0  0  0  0  0  0  0  0  0
   59.4740   26.6020   46.1530 C   0  0  0  0  0  0  0  0  0  0  0  0
   58.9360   27.8010   45.6520 C   0  0  0  0  0  0  0  0  0  0  0  0
   58.3230   27.8400   44.3070 C   0  0  0  0  0  0  0  0  0  0  0  0
   58.2280   26.7820   43.6250 O   0  0  0  0  0  0  0  0  0  0  0  0
   57.8510   29.0490   43.7910 O   0  0  0  0  0  0  0  0  0  0  0  0
   56.3080   29.6670   44.1800 S   0  0  0  0  0  0  0  0  0  0  0  0
   55.4870   29.8110   42.9300 O   0  0  0  0  0  0  0  0  0  0  0  0
   56.4580   31.0090   44.8380 O   0  0  0  0  0  0  0  0  0  0  0  0
   55.5350   28.6140   45.2350 O   0  0  0  0  0  0  0  0  0  0  0  0
   58.9940   28.9590   46.4480 C   0  0  0  0  0  0  0  0  0  0  0  0
   58.3961   31.6734   47.0427 H   0  0  0  0  0  0  0  0  0  0  0  0
   63.3409   30.9494   47.6352 H   0  0  0  0  0  0  0  0  0  0  0  0
   63.8450   31.7681   49.1626 H   0  0  0  0  0  0  0  0  0  0  0  0
   62.0970   30.0260   49.3650 H   0  0  0  0  0  0  0  0  0  0  0  0
   61.7240   31.5430   50.0460 H   0  0  0  0  0  0  0  0  0  0  0  0
   58.9370   30.2830   49.2780 H   0  0  0  0  0  0  0  0  0  0  0  0
   60.5157   27.6698   49.2270 H   0  0  0  0  0  0  0  0  0  0  0  0
   60.4502   25.6166   47.8144 H   0  0  0  0  0  0  0  0  0  0  0  0
   59.4515   25.6922   45.5351 H   0  0  0  0  0  0  0  0  0  0  0  0
   58.5952   29.9071   46.0581 H   0  0  0  0  0  0  0  0  0  0  0  0
  1  2  3  0
  2  3  1  0
  3  4  2  0
  4  5  1  0
  5  6  1  0
  6  7  1  0
  7  8  1  0
  8  9  2  0
  6 10  2  0
 10 11  1  0
 11 12  1  0
 12 13  1  0
 13 14  1  0
 14 15  1  0
 15 16  2  0
 16 17  1  0
 17 18  2  0
 18 19  1  0
 19 20  1  0
 20 21  2  0
 20 22  1  0
 22 23  1  0
 23 24  2  0
 23 25  2  0
 23 26  1  0
 19 27  2  0
  8  3  1  0
 27 15  1  0
 13  5  2  0
  4 28  1  0
 11 29  1  0
 11 30  1  0
 12 31  1  0
 12 32  1  0
 14 33  1  0
 16 34  1  0
 17 35  1  0
 18 36  1  0
 27 37  1  0
M  CHG  3   7  -1  12   1  26  -1
M  END
>  <UniqueID>  (1) 
1

>  <SMILES>  (1) 
N#Cc1cc2c([n-]c1=O)=NC[NH2+]C=2Nc1cccc(C(=O)OS(=O)(=O)[O-])c1

>  <Energy>  (1) 
53.31553805862409

>  <Genealogy>  (1) 
N#Cc1cc2c([n-]c1=O)=NC[NH2+]C=2Nc1cccc(C(=O)OS(=O)(=O)[O-])c1 (protonated)
N#Cc1cc2c([n-]c1=O)=NC[NH2+]C=2Nc1cccc(C(=O)OS(=O)(=O)[O-])c1 (3D coordinates assigned)
N#Cc1cc2c([n-]c1=O)=NC[NH2+]C=2Nc1cccc(C(=O)OS(=O)(=O)[O-])c1 (nonaromatic ring conformer: 53.31553805862409 kcal/mol)

>  <smiles>  (1) 
N#Cc1cc2c([nH]c1=O)=NCNC=2Nc1cccc(C(=O)OS(=O)(=O)O)c1

>  <score_type>  (1) 
oracle

>  <origin>  (1) 
adg

>  <m_score__min__energy>  (1) 
-11.25

>  <m_primary>  (1) 
energy

$$$$
1:0
     RDKit          3D

 42 43  0  0  0  0  0  0  0  0999 V2000
   65.0763   32.9551   47.7542 H   0  0  0  0  0  0  0  0  0  0  0  0
   64.0180   33.2260   47.8830 C   0  0  0  0  0  0  0  0  0  0  0  0
   63.2170   33.4660   46.7630 C   0  0  0  0  0  0  0  0  0  0  0  0
   63.6458   33.3867   45.7531 H   0  0  0  0  0  0  0  0  0  0  0  0
   61.8700   33.8070   46.9260 C   0  0  0  0  0  0  0  0  0  0  0  0
   61.2443   34.0039   46.0430 H   0  0  0  0  0  0  0  0  0  0  0  0
   61.3130   33.8990   48.2120 C   0  0  0  0  0  0  0  0  0  0  0  0
   59.8660   34.2780   48.3940 C   0  0  0  0  0  0  0  0  0  0  0  0
   59.8026   35.1445   49.0686 H   0  0  0  0  0  0  0  0  0  0  0  0
   59.3283   33.4188   48.8214 H   0  0  0  0  0  0  0  0  0  0  0  0
   59.2670   34.6150   47.1420 O   0  0  0  0  0  0  0  0  0  0  0  0
   58.6760   33.7030   46.2530 C   0  0  0  0  0  0  0  0  0  0  0  0
   58.3900   32.4150   46.7220 C   0  0  0  0  0  0  0  0  0  0  0  0
   58.6251   32.1490   47.7631 H   0  0  0  0  0  0  0  0  0  0  0  0
   57.8080   31.4640   45.8780 C   0  0  0  0  0  0  0  0  0  0  0  0
   57.6004   30.4514   46.2544 H   0  0  0  0  0  0  0  0  0  0  0  0
   57.4880   31.7960   44.5540 C   0  0  0  0  0  0  0  0  0  0  0  0
   56.9010   30.7620   43.6380 C   0  0  0  0  0  0  0  0  0  0  0  0
   57.3445   30.8636   42.6365 H   0  0  0  0  0  0  0  0  0  0  0  0
   55.8124   30.9044   43.5699 H   0  0  0  0  0  0  0  0  0  0  0  0
   57.1810   29.4690   44.1520 O   0  0  0  0  0  0  0  0  0  0  0  0
   58.4550   28.9500   44.0790 N   0  0  0  0  0  0  0  0  0  0  0  0
   58.9800   28.2680   45.0510 C   0  0  0  0  0  0  0  0  0  0  0  0
   58.1460   27.2790   45.7720 C   0  0  0  0  0  0  0  0  0  0  0  0
   58.6960   26.4700   46.5690 O   0  0  0  0  0  0  0  0  0  0  0  0
   56.7210   27.2360   45.5680 N   0  0  0  0  0  0  0  0  0  0  0  0
   56.2890   27.8810   44.8690 H   0  0  0  0  0  0  0  0  0  0  0  0
   55.8380   26.3390   46.2560 C   0  0  0  0  0  0  0  0  0  0  0  0
   56.2690   25.5510   47.1390 O   0  0  0  0  0  0  0  0  0  0  0  0
   54.4840   26.3410   45.9490 O   0  0  0  0  0  0  0  0  0  0  0  0
   60.3910   28.5450   45.4990 C   0  0  0  0  0  0  0  0  0  0  0  0
   60.4318   28.5530   46.5982 H   0  0  0  0  0  0  0  0  0  0  0  0
   61.0589   27.7608   45.1130 H   0  0  0  0  0  0  0  0  0  0  0  0
   60.7129   29.5235   45.1130 H   0  0  0  0  0  0  0  0  0  0  0  0
   57.7820   33.0810   44.0760 C   0  0  0  0  0  0  0  0  0  0  0  0
   57.5540   33.3424   43.0321 H   0  0  0  0  0  0  0  0  0  0  0  0
   58.3640   34.0320   44.9210 C   0  0  0  0  0  0  0  0  0  0  0  0
   58.5788   35.0421   44.5422 H   0  0  0  0  0  0  0  0  0  0  0  0
   62.1290   33.6700   49.3330 C   0  0  0  0  0  0  0  0  0  0  0  0
   61.7075   33.7585   50.3452 H   0  0  0  0  0  0  0  0  0  0  0  0
   63.4750   33.3300   49.1660 C   0  0  0  0  0  0  0  0  0  0  0  0
   64.1075   33.1441   50.0465 H   0  0  0  0  0  0  0  0  0  0  0  0
  1  2  1  0
  2  3  2  0
  3  4  1  0
  3  5  1  0
  5  6  1  0
  5  7  2  0
  7  8  1  0
  8  9  1  0
  8 10  1  0
  8 11  1  0
 11 12  1  0
 12 13  2  0
 13 14  1  0
 13 15  1  0
 15 16  1  0
 15 17  2  0
 17 18  1  0
 18 19  1  0
 18 20  1  0
 18 21  1  0
 21 22  1  0
 22 23  2  0
 23 24  1  0
 24 25  2  0
 24 26  1  0
 26 27  1  0
 26 28  1  0
 28 29  2  0
 28 30  1  0
 23 31  1  0
 31 32  1  0
 31 33  1  0
 31 34  1  0
 17 35  1  0
 35 36  1  0
 35 37  2  0
 37 38  1  0
  7 39  1  0
 39 40  1  0
 39 41  2  0
 41 42  1  0
 41  2  1  0
 37 12  1  0
M  CHG  1  30  -1
M  END
>  <UniqueID>  (2) 
2

>  <SMILES>  (2) 
C/C(=N\OCc1ccc(OCc2ccccc2)cc1)C(=O)NC(=O)[O-]

>  <Energy>  (2) 
36.91703092582983

>  <Genealogy>  (2) 
CC(=NOCc1ccc(OCc2ccccc2)cc1)C(=O)NC(=O)[O-] (protonated)
C/C(=N\OCc1ccc(OCc2ccccc2)cc1)C(=O)NC(=O)[O-] (cis-trans isomerization)
C/C(=N\OCc1ccc(OCc2ccccc2)cc1)C(=O)NC(=O)[O-] (3D coordinates assigned)
C/C(=N\OCc1ccc(OCc2ccccc2)cc1)C(=O)NC(=O)[O-] (optimized conformer: 36.91703092582983 kcal/mol)

>  <smiles>  (2) 
CC(=NOCc1ccc(OCc2ccccc2)cc1)C(=O)NC(=O)O

>  <score_type>  (2) 
oracle

>  <origin>  (2) 
adg

>  <m_score__min__energy>  (2) 
-11.859999999999999

>  <m_primary>  (2) 
energy

$$$$
2:0
     RDKit          3D

 62 65  0  0  0  0  0  0  0  0999 V2000
   61.1290   26.9690   47.8620 O   0  0  0  0  0  0  0  0  0  0  0  0
   60.0370   27.5940   47.7840 C   0  0  0  0  0  0  0  0  0  0  0  0
   59.0050   27.1710   46.7760 C   0  0  0  0  0  0  0  0  0  0  0  0
   59.5420   27.3140   45.4030 N   0  0  0  0  0  0  0  0  0  0  0  0
   58.5150   27.1840   44.3470 C   0  0  0  0  0  0  0  0  0  0  0  0
   58.0240   28.5370   43.7970 C   0  0  0  0  0  0  0  0  0  0  0  0
   58.0990   29.5600   44.8450 N   0  0  0  0  0  0  0  0  0  0  0  0
   57.3620   31.0390   44.2840 S   0  0  0  0  0  0  0  0  0  0  0  0
   55.8760   30.9850   44.5110 O   0  0  0  0  0  0  0  0  0  0  0  0
   57.6200   31.2090   42.8090 O   0  0  0  0  0  0  0  0  0  0  0  0
   58.0240   32.4070   45.1780 C   0  0  0  0  0  0  0  0  0  0  0  0
   57.9080   32.4780   46.5750 C   0  0  0  0  0  0  0  0  0  0  0  0
   58.4310   33.5750   47.2680 C   0  0  0  0  0  0  0  0  0  0  0  0
   59.0710   34.6020   46.5710 C   0  0  0  0  0  0  0  0  0  0  0  0
   59.1820   34.5410   45.1780 C   0  0  0  0  0  0  0  0  0  0  0  0
   58.6570   33.4480   44.4840 C   0  0  0  0  0  0  0  0  0  0  0  0
   59.5020   29.8160   45.2420 C   0  0  0  0  0  0  0  0  0  0  0  0
   60.3610   28.5330   45.2340 C   0  0  0  0  0  0  0  0  0  0  0  0
   59.7920   28.7240   48.6900 C   0  0  0  0  0  0  0  0  0  0  0  0
   58.7530   29.6250   48.4170 C   0  0  0  0  0  0  0  0  0  0  0  0
   58.5370   30.7240   49.2560 C   0  0  0  0  0  0  0  0  0  0  0  0
   59.3850   30.9610   50.3470 C   0  0  0  0  0  0  0  0  0  0  0  0
   59.1940   32.4260   51.3050 S   0  0  0  0  0  0  0  0  0  0  0  0
   59.9240   32.2460   52.6050 O   0  0  0  0  0  0  0  0  0  0  0  0
   57.7410   32.6440   51.6270 O   0  0  0  0  0  0  0  0  0  0  0  0
   59.8610   33.8080   50.4820 N   0  0  0  0  0  0  0  0  0  0  0  0
   61.3280   33.8310   50.5670 C   0  0  0  0  0  0  0  0  0  0  0  0
   61.9490   33.4940   49.2380 C   0  0  0  0  0  0  0  0  0  0  0  0
   61.3520   32.5450   48.3890 C   0  0  0  0  0  0  0  0  0  0  0  0
   61.9140   32.2650   47.1400 C   0  0  0  0  0  0  0  0  0  0  0  0
   63.0900   32.9090   46.7430 C   0  0  0  0  0  0  0  0  0  0  0  0
   63.7030   33.8380   47.5920 C   0  0  0  0  0  0  0  0  0  0  0  0
   63.1320   34.1350   48.8320 C   0  0  0  0  0  0  0  0  0  0  0  0
   60.4220   30.0550   50.6280 C   0  0  0  0  0  0  0  0  0  0  0  0
   60.6130   28.9320   49.8130 C   0  0  0  0  0  0  0  0  0  0  0  0
   58.7343   26.1196   46.9526 H   0  0  0  0  0  0  0  0  0  0  0  0
   58.1164   27.8106   46.8822 H   0  0  0  0  0  0  0  0  0  0  0  0
   58.9422   26.6045   43.5153 H   0  0  0  0  0  0  0  0  0  0  0  0
   57.6461   26.6847   44.8005 H   0  0  0  0  0  0  0  0  0  0  0  0
   58.6569   28.8370   42.9488 H   0  0  0  0  0  0  0  0  0  0  0  0
   56.9802   28.4351   43.4651 H   0  0  0  0  0  0  0  0  0  0  0  0
   57.4050   31.6696   47.1259 H   0  0  0  0  0  0  0  0  0  0  0  0
   58.3380   33.6286   48.3628 H   0  0  0  0  0  0  0  0  0  0  0  0
   59.4884   35.4601   47.1182 H   0  0  0  0  0  0  0  0  0  0  0  0
   59.6821   35.3528   44.6295 H   0  0  0  0  0  0  0  0  0  0  0  0
   58.7406   33.4039   43.3881 H   0  0  0  0  0  0  0  0  0  0  0  0
   59.9413   30.5393   44.5393 H   0  0  0  0  0  0  0  0  0  0  0  0
   59.4930   30.2064   46.2703 H   0  0  0  0  0  0  0  0  0  0  0  0
   60.8962   28.4705   44.2750 H   0  0  0  0  0  0  0  0  0  0  0  0
   61.0622   28.5897   46.0796 H   0  0  0  0  0  0  0  0  0  0  0  0
   58.1061   29.4677   47.5413 H   0  0  0  0  0  0  0  0  0  0  0  0
   57.6969   31.4060   49.0583 H   0  0  0  0  0  0  0  0  0  0  0  0
   59.5040   34.6500   50.9920 H   0  0  0  0  0  0  0  0  0  0  0  0
   61.6552   34.8357   50.8729 H   0  0  0  0  0  0  0  0  0  0  0  0
   61.6488   33.0809   51.3048 H   0  0  0  0  0  0  0  0  0  0  0  0
   60.4393   32.0210   48.7090 H   0  0  0  0  0  0  0  0  0  0  0  0
   61.4314   31.5384   46.4698 H   0  0  0  0  0  0  0  0  0  0  0  0
   63.5342   32.6852   45.7619 H   0  0  0  0  0  0  0  0  0  0  0  0
   64.6346   34.3344   47.2827 H   0  0  0  0  0  0  0  0  0  0  0  0
   63.6100   34.8731   49.4928 H   0  0  0  0  0  0  0  0  0  0  0  0
   61.0844   30.2280   51.4890 H   0  0  0  0  0  0  0  0  0  0  0  0
   61.4079   28.2102   50.0520 H   0  0  0  0  0  0  0  0  0  0  0  0
  1  2  2  0
  2  3  1  0
  3  4  1  0
  4  5  1  0
  5  6  1  0
  6  7  1  0
  7  8  1  0
  8  9  2  0
  8 10  2  0
  8 11  1  0
 11 12  2  0
 12 13  1  0
 13 14  2  0
 14 15  1  0
 15 16  2  0
  7 17  1  0
 17 18  1  0
  2 19  1  0
 19 20  2  0
 20 21  1  0
 21 22  2  0
 22 23  1  0
 23 24  2  0
 23 25  2  0
 23 26  1  0
 26 27  1  0
 27 28  1  0
 28 29  2  0
 29 30  1  0
 30 31  2  0
 31 32  1  0
 32 33  2  0
 22 34  1  0
 34 35  2  0
 18  4  1  0
 35 19  1  0
 16 11  1  0
 33 28  1  0
  3 36  1  0
  3 37  1  0
  5 38  1  0
  5 39  1  0
  6 40  1  0
  6 41  1  0
 12 42  1  0
 13 43  1  0
 14 44  1  0
 15 45  1  0
 16 46  1  0
 17 47  1  0
 17 48  1  0
 18 49  1  0
 18 50  1  0
 20 51  1  0
 21 52  1  0
 26 53  1  0
 27 54  1  0
 27 55  1  0
 29 56  1  0
 30 57  1  0
 31 58  1  0
 32 59  1  0
 33 60  1  0
 34 61  1  0
 35 62  1  0
M  END
>  <UniqueID>  (3) 
3

>  <SMILES>  (3) 
O=C(CN1CCN(S(=O)(=O)c2ccccc2)CC1)c1ccc(S(=O)(=O)NCc2ccccc2)cc1

>  <Energy>  (3) 
79.5785793425274

>  <Genealogy>  (3) 
O=C(CN1CCN(S(=O)(=O)c2ccccc2)CC1)c1ccc(S(=O)(=O)NCc2ccccc2)cc1 (3D coordinates assigned)
O=C(CN1CCN(S(=O)(=O)c2ccccc2)CC1)c1ccc(S(=O)(=O)NCc2ccccc2)cc1 (nonaromatic ring conformer: 79.5785793425274 kcal/mol)

>  <smiles>  (3) 
O=C(CN1CCN(S(=O)(=O)c2ccccc2)CC1)c1ccc(S(=O)(=O)NCc2ccccc2)cc1

>  <score_type>  (3) 
oracle

>  <origin>  (3) 
adg

>  <m_score__min__energy>  (3) 
-11.710000000000001

>  <m_primary>  (3) 
energy

$$$$
3:0
     RDKit          3D

 59 63  0  0  0  0  0  0  0  0999 V2000
   63.0160   34.2670   49.4480 C   0  0  0  0  0  0  0  0  0  0  0  0
   64.0910   32.9830   48.7070 S   0  0  0  0  0  0  0  0  0  0  0  0
   62.8010   31.9520   48.0170 N   0  0  0  0  0  0  0  0  0  0  0  0
   62.2060   32.5070   46.7820 C   0  0  0  0  0  0  0  0  0  0  0  0
   60.8070   33.0290   46.9840 C   0  0  0  0  0  0  0  0  0  0  0  0
   60.3580   34.1370   46.2490 C   0  0  0  0  0  0  0  0  0  0  0  0
   59.0240   34.5370   46.3260 C   0  0  0  0  0  0  0  0  0  0  0  0
   58.1240   33.8140   47.1090 C   0  0  0  0  0  0  0  0  0  0  0  0
   58.5580   32.7010   47.8330 C   0  0  0  0  0  0  0  0  0  0  0  0
   59.9150   32.3140   47.8080 C   0  0  0  0  0  0  0  0  0  0  0  0
   60.4620   31.0990   48.5620 C   0  0  1  0  0  0  0  0  0  0  0  0
   59.5870   30.6680   49.7690 C   0  0  0  0  0  0  0  0  0  0  0  0
   58.6930   29.5400   49.2690 C   0  0  0  0  0  0  0  0  0  0  0  0
   59.3210   29.0610   48.0520 N   0  0  0  0  0  0  0  0  0  0  0  0
   58.7900   27.9810   47.2680 C   0  0  0  0  0  0  0  0  0  0  0  0
   57.7610   28.2220   46.3440 C   0  0  0  0  0  0  0  0  0  0  0  0
   57.2380   27.1770   45.5800 C   0  0  0  0  0  0  0  0  0  0  0  0
   57.7460   25.8780   45.7190 C   0  0  0  0  0  0  0  0  0  0  0  0
   57.1920   24.7770   44.9090 C   0  0  0  0  0  0  0  0  0  0  0  0
   57.3920   24.8080   43.5190 C   0  0  0  0  0  0  0  0  0  0  0  0
   56.8700   23.8020   42.7050 C   0  0  0  0  0  0  0  0  0  0  0  0
   56.1430   22.7540   43.2700 C   0  0  0  0  0  0  0  0  0  0  0  0
   55.9450   22.7040   44.6510 C   0  0  0  0  0  0  0  0  0  0  0  0
   56.4700   23.7030   45.4880 C   0  0  0  0  0  0  0  0  0  0  0  0
   56.2380   23.5590   47.2400 S   0  0  0  0  0  0  0  0  0  0  0  0
   54.7010   22.8380   47.5830 N   0  0  0  0  0  0  0  0  0  0  0  0
   57.3400   22.7260   47.8320 O   0  0  0  0  0  0  0  0  0  0  0  0
   56.2730   24.9230   47.8720 O   0  0  0  0  0  0  0  0  0  0  0  0
   58.7600   25.6290   46.6550 C   0  0  0  0  0  0  0  0  0  0  0  0
   59.2840   26.6750   47.4220 C   0  0  0  0  0  0  0  0  0  0  0  0
   60.2960   26.4160   48.2870 F   0  0  0  0  0  0  0  0  0  0  0  0
   60.4590   29.8630   47.6360 C   0  0  0  0  0  0  0  0  0  0  0  0
   61.8890   31.4480   49.0680 C   0  0  0  0  0  0  0  0  0  0  0  0
   63.0702   34.2023   50.5448 H   0  0  0  0  0  0  0  0  0  0  0  0
   63.3547   35.2615   49.1222 H   0  0  0  0  0  0  0  0  0  0  0  0
   61.9774   34.1084   49.1222 H   0  0  0  0  0  0  0  0  0  0  0  0
   62.8404   33.3330   46.4281 H   0  0  0  0  0  0  0  0  0  0  0  0
   62.1487   31.6891   46.0487 H   0  0  0  0  0  0  0  0  0  0  0  0
   61.0606   34.6920   45.6099 H   0  0  0  0  0  0  0  0  0  0  0  0
   58.6819   35.4221   45.7696 H   0  0  0  0  0  0  0  0  0  0  0  0
   57.0689   34.1214   47.1565 H   0  0  0  0  0  0  0  0  0  0  0  0
   57.8363   32.1215   48.4274 H   0  0  0  0  0  0  0  0  0  0  0  0
   60.2233   30.3127   50.5929 H   0  0  0  0  0  0  0  0  0  0  0  0
   58.9915   31.5100   50.1516 H   0  0  0  0  0  0  0  0  0  0  0  0
   58.6363   28.7342   50.0156 H   0  0  0  0  0  0  0  0  0  0  0  0
   57.6632   29.8830   49.0902 H   0  0  0  0  0  0  0  0  0  0  0  0
   57.3643   29.2406   46.2211 H   0  0  0  0  0  0  0  0  0  0  0  0
   56.4243   27.3738   44.8664 H   0  0  0  0  0  0  0  0  0  0  0  0
   57.9648   25.6320   43.0685 H   0  0  0  0  0  0  0  0  0  0  0  0
   57.0318   23.8353   41.6175 H   0  0  0  0  0  0  0  0  0  0  0  0
   55.7251   21.9659   42.6264 H   0  0  0  0  0  0  0  0  0  0  0  0
   55.3717   21.8735   45.0887 H   0  0  0  0  0  0  0  0  0  0  0  0
   54.8800   21.8650   47.9170 H   0  0  0  0  0  0  0  0  0  0  0  0
   54.2940   23.3540   48.3950 H   0  0  0  0  0  0  0  0  0  0  0  0
   59.1450   24.6070   46.7867 H   0  0  0  0  0  0  0  0  0  0  0  0
   61.3927   29.2936   47.7538 H   0  0  0  0  0  0  0  0  0  0  0  0
   60.3869   30.1503   46.5766 H   0  0  0  0  0  0  0  0  0  0  0  0
   61.7994   32.2205   49.8460 H   0  0  0  0  0  0  0  0  0  0  0  0
   62.3279   30.5120   49.4439 H   0  0  0  0  0  0  0  0  0  0  0  0
  1  2  1  0
  2  3  1  0
  3  4  1  0
  4  5  1  0
  5  6  2  0
  6  7  1  0
  7  8  2  0
  8  9  1  0
  9 10  2  0
 10 11  1  0
 11 12  1  1
 12 13  1  0
 13 14  1  0
 14 15  1  0
 15 16  2  0
 16 17  1  0
 17 18  2  0
 18 19  1  0
 19 20  2  0
 20 21  1  0
 21 22  2  0
 22 23  1  0
 23 24  2  0
 24 25  1  0
 25 26  1  0
 25 27  2  0
 25 28  2  0
 18 29  1  0
 29 30  2  0
 30 31  1  0
 14 32  1  0
 11 33  1  0
 33  3  1  0
 10  5  1  0
 32 11  1  0
 30 15  1  0
 24 19  1  0
  1 34  1  0
  1 35  1  0
  1 36  1  0
  4 37  1  0
  4 38  1  0
  6 39  1  0
  7 40  1  0
  8 41  1  0
  9 42  1  0
 12 43  1  0
 12 44  1  0
 13 45  1  0
 13 46  1  0
 16 47  1  0
 17 48  1  0
 20 49  1  0
 21 50  1  0
 22 51  1  0
 23 52  1  0
 26 53  1  0
 26 54  1  0
 29 55  1  0
 32 56  1  0
 32 57  1  0
 33 58  1  0
 33 59  1  0
M  END
>  <UniqueID>  (4) 
4

>  <SMILES>  (4) 
CSN1Cc2ccccc2[C@]2(CCN(c3ccc(-c4ccccc4S(N)(=O)=O)cc3F)C2)C1

>  <Energy>  (4) 
94.88735755271705

>  <Genealogy>  (4) 
CSN1Cc2ccccc2[C@]2(CCN(c3ccc(-c4ccccc4S(N)(=O)=O)cc3F)C2)C1 (chirality)
CSN1Cc2ccccc2[C@]2(CCN(c3ccc(-c4ccccc4S(N)(=O)=O)cc3F)C2)C1 (3D coordinates assigned)
CSN1Cc2ccccc2[C@]2(CCN(c3ccc(-c4ccccc4S(N)(=O)=O)cc3F)C2)C1 (nonaromatic ring conformer: 94.88735755271705 kcal/mol)

>  <smiles>  (4) 
CSN1Cc2ccccc2C2(CCN(c3ccc(-c4ccccc4S(N)(=O)=O)cc3F)C2)C1

>  <score_type>  (4) 
oracle

>  <origin>  (4) 
adg

>  <m_score__min__energy>  (4) 
-9.0700000000000003

>  <m_primary>  (4) 
energy

$$$$
4:0
     RDKit          3D

 33 36  0  0  0  0  0  0  0  0999 V2000
   55.1500   29.7110   43.4580 N   0  0  0  0  0  0  0  0  0  0  0  0
   56.2100   29.8240   44.1560 C   0  0  0  0  0  0  0  0  0  0  0  0
   56.6000   31.0730   44.5080 N   0  0  0  0  0  0  0  0  0  0  0  0
   57.7140   31.2340   45.2460 C   0  0  0  0  0  0  0  0  0  0  0  0
   58.1840   32.5520   45.6550 C   0  0  0  0  0  0  0  0  0  0  0  0
   58.6400   33.5390   44.8070 C   0  0  0  0  0  0  0  0  0  0  0  0
   58.9710   34.5980   45.6620 C   0  0  0  0  0  0  0  0  0  0  0  0
   58.6940   34.1800   46.9690 C   0  0  0  0  0  0  0  0  0  0  0  0
   58.2280   32.9520   46.9020 O   0  0  0  0  0  0  0  0  0  0  0  0
   58.4240   30.0940   45.6200 C   0  0  0  0  0  0  0  0  0  0  0  0
   58.0530   28.8260   45.2770 C   0  0  0  0  0  0  0  0  0  0  0  0
   58.6870   27.5880   45.6360 C   0  0  0  0  0  0  0  0  0  0  0  0
   59.8190   27.5250   46.4650 C   0  0  0  0  0  0  0  0  0  0  0  0
   60.1720   26.2400   46.6470 N   0  0  0  0  0  0  0  0  0  0  0  0
   59.3370   25.4360   45.9870 C   0  0  0  0  0  0  0  0  0  0  0  0
   59.3020   24.0770   45.8940 C   0  0  0  0  0  0  0  0  0  0  0  0
   58.3100   23.4580   45.1460 C   0  0  0  0  0  0  0  0  0  0  0  0
   57.4010   24.2870   44.5310 C   0  0  0  0  0  0  0  0  0  0  0  0
   57.4420   25.6610   44.6270 C   0  0  0  0  0  0  0  0  0  0  0  0
   58.4160   26.2760   45.3600 C   0  0  0  0  0  0  0  0  0  0  0  0
   56.9130   28.7350   44.5280 N   0  0  0  0  0  0  0  0  0  0  0  0
   55.0890   29.1990   42.5570 H   0  0  0  0  0  0  0  0  0  0  0  0
   58.7244   33.5030   43.7108 H   0  0  0  0  0  0  0  0  0  0  0  0
   59.3739   35.5766   45.3620 H   0  0  0  0  0  0  0  0  0  0  0  0
   58.8396   34.7710   47.8852 H   0  0  0  0  0  0  0  0  0  0  0  0
   59.3335   30.2235   46.2250 H   0  0  0  0  0  0  0  0  0  0  0  0
   60.3371   28.3930   46.8987 H   0  0  0  0  0  0  0  0  0  0  0  0
   60.9910   25.9040   47.2280 H   0  0  0  0  0  0  0  0  0  0  0  0
   60.0598   23.4705   46.4116 H   0  0  0  0  0  0  0  0  0  0  0  0
   58.2539   22.3636   45.0503 H   0  0  0  0  0  0  0  0  0  0  0  0
   56.6000   23.8296   43.9316 H   0  0  0  0  0  0  0  0  0  0  0  0
   56.6841   26.2671   44.1091 H   0  0  0  0  0  0  0  0  0  0  0  0
   56.5270   27.8230   44.2030 H   0  0  0  0  0  0  0  0  0  0  0  0
  1  2  2  3
  2  3  1  0
  3  4  2  0
  4  5  1  0
  5  6  2  0
  6  7  1  0
  7  8  2  0
  8  9  1  0
  4 10  1  0
 10 11  2  0
 11 12  1  0
 12 13  2  0
 13 14  1  0
 14 15  1  0
 15 16  2  0
 16 17  1  0
 17 18  2  0
 18 19  1  0
 19 20  2  0
 11 21  1  0
 21  2  1  0
  9  5  1  0
 20 12  1  0
 20 15  1  0
  1 22  1  0
  6 23  1  0
  7 24  1  0
  8 25  1  0
 10 26  1  0
 13 27  1  0
 14 28  1  0
 16 29  1  0
 17 30  1  0
 18 31  1  0
 19 32  1  0
 21 33  1  0
M  END
>  <smiles>  (5) 
N=c1nc(-c2ccco2)cc(-c2c[nH]c3ccccc23)[nH]1

>  <score_type>  (5) 
oracle

>  <origin>  (5) 
adg

>  <m_score__min__energy>  (5) 
-7.4400000000000004

>  <m_primary>  (5) 
energy

$$$$
5:0
     RDKit          3D

 44 47  0  0  0  0  0  0  0  0999 V2000
   55.0720   21.9780   49.0340 C   0  0  0  0  0  0  0  0  0  0  0  0
   56.8490   22.0070   48.9200 S   0  0  0  0  0  0  0  0  0  0  0  0
   57.3690   23.3940   49.1800 O   0  0  0  0  0  0  0  0  0  0  0  0
   57.4140   21.0770   49.9560 O   0  0  0  0  0  0  0  0  0  0  0  0
   57.3560   21.4670   47.3520 N   0  0  0  0  0  0  0  0  0  0  0  0
   57.2300   22.2040   46.1280 C   0  0  0  0  0  0  0  0  0  0  0  0
   57.1920   21.5740   44.8730 C   0  0  0  0  0  0  0  0  0  0  0  0
   57.0700   22.3350   43.7090 C   0  0  0  0  0  0  0  0  0  0  0  0
   56.9840   23.7270   43.7820 C   0  0  0  0  0  0  0  0  0  0  0  0
   57.0190   24.3770   45.0280 C   0  0  0  0  0  0  0  0  0  0  0  0
   56.9280   25.8550   45.1120 C   0  0  0  0  0  0  0  0  0  0  0  0
   55.9410   26.4600   45.6800 N   0  0  0  0  0  0  0  0  0  0  0  0
   56.1190   27.8160   45.6120 O   0  0  0  0  0  0  0  0  0  0  0  0
   57.3260   28.1750   44.9610 C   0  0  1  0  0  0  0  0  0  0  0  0
   57.0590   29.1430   43.7780 C   0  0  0  0  0  0  0  0  0  0  0  0
   57.8200   30.3730   44.1510 C   0  0  0  0  0  0  0  0  0  0  0  0
   57.8940   31.3920   43.4140 O   0  0  0  0  0  0  0  0  0  0  0  0
   58.4960   30.2620   45.3950 N   0  0  0  0  0  0  0  0  0  0  0  0
   59.3140   31.2620   46.0300 C   0  0  0  0  0  0  0  0  0  0  0  0
   60.3240   30.8890   46.9320 C   0  0  0  0  0  0  0  0  0  0  0  0
   61.1180   31.8620   47.5450 C   0  0  0  0  0  0  0  0  0  0  0  0
   60.9100   33.2140   47.2650 C   0  0  0  0  0  0  0  0  0  0  0  0
   59.9080   33.5970   46.3690 C   0  0  0  0  0  0  0  0  0  0  0  0
   59.6430   35.2960   46.0230 Cl  0  0  0  0  0  0  0  0  0  0  0  0
   59.1120   32.6260   45.7530 C   0  0  0  0  0  0  0  0  0  0  0  0
   58.2030   28.9630   45.8850 C   0  0  0  0  0  0  0  0  0  0  0  0
   58.5890   28.5470   47.0110 O   0  0  0  0  0  0  0  0  0  0  0  0
   57.9380   26.8140   44.5590 C   0  0  0  0  0  0  0  0  0  0  0  0
   57.1430   23.6010   46.1960 C   0  0  0  0  0  0  0  0  0  0  0  0
   54.7725   21.9731   50.0924 H   0  0  0  0  0  0  0  0  0  0  0  0
   54.6583   22.8695   48.5400 H   0  0  0  0  0  0  0  0  0  0  0  0
   54.6876   21.0735   48.5400 H   0  0  0  0  0  0  0  0  0  0  0  0
   57.2586   20.4780   44.8073 H   0  0  0  0  0  0  0  0  0  0  0  0
   57.0415   21.8357   42.7293 H   0  0  0  0  0  0  0  0  0  0  0  0
   56.8883   24.3181   42.8593 H   0  0  0  0  0  0  0  0  0  0  0  0
   57.4331   28.7212   42.8335 H   0  0  0  0  0  0  0  0  0  0  0  0
   55.9880   29.3357   43.6172 H   0  0  0  0  0  0  0  0  0  0  0  0
   60.4909   29.8253   47.1571 H   0  0  0  0  0  0  0  0  0  0  0  0
   61.9081   31.5623   48.2492 H   0  0  0  0  0  0  0  0  0  0  0  0
   61.5352   33.9782   47.7499 H   0  0  0  0  0  0  0  0  0  0  0  0
   58.3241   32.9306   45.0484 H   0  0  0  0  0  0  0  0  0  0  0  0
   58.0249   26.7199   43.4665 H   0  0  0  0  0  0  0  0  0  0  0  0
   58.9596   26.6541   44.9343 H   0  0  0  0  0  0  0  0  0  0  0  0
   57.1720   24.0986   47.1766 H   0  0  0  0  0  0  0  0  0  0  0  0
  1  2  1  0
  2  3  2  0
  2  4  2  0
  2  5  1  0
  5  6  1  0
  6  7  2  0
  7  8  1  0
  8  9  2  0
  9 10  1  0
 10 11  1  0
 11 12  2  0
 12 13  1  0
 14 13  1  1
 14 15  1  0
 15 16  1  0
 16 17  2  0
 16 18  1  0
 18 19  1  0
 19 20  2  0
 20 21  1  0
 21 22  2  0
 22 23  1  0
 23 24  1  0
 23 25  2  0
 18 26  1  0
 26 27  2  0
 14 28  1  0
 10 29  2  0
 29  6  1  0
 28 11  1  0
 26 14  1  0
 25 19  1  0
  1 30  1  0
  1 31  1  0
  1 32  1  0
  7 33  1  0
  8 34  1  0
  9 35  1  0
 15 36  1  0
 15 37  1  0
 20 38  1  0
 21 39  1  0
 22 40  1  0
 25 41  1  0
 28 42  1  0
 28 43  1  0
 29 44  1  0
M  CHG  1   5  -1
M  END
>  <UniqueID>  (6) 
5

>  <SMILES>  (6) 
CS(=O)(=O)[N-]c1cccc(C2=NO[C@]3(CC(=O)N(c4cccc(Cl)c4)C3=O)C2)c1

>  <Energy>  (6) 
79.44308224002522

>  <Genealogy>  (6) 
CS(=O)(=O)[N-]c1cccc(C2=NOC3(CC(=O)N(c4cccc(Cl)c4)C3=O)C2)c1 (protonated)
CS(=O)(=O)[N-]c1cccc(C2=NO[C@]3(CC(=O)N(c4cccc(Cl)c4)C3=O)C2)c1 (chirality)
CS(=O)(=O)[N-]c1cccc(C2=NO[C@]3(CC(=O)N(c4cccc(Cl)c4)C3=O)C2)c1 (3D coordinates assigned)
CS(=O)(=O)[N-]c1cccc(C2=NO[C@]3(CC(=O)N(c4cccc(Cl)c4)C3=O)C2)c1 (nonaromatic ring conformer: 79.44308224002522 kcal/mol)

>  <smiles>  (6) 
CS(=O)(=O)Nc1cccc(C2=NOC3(CC(=O)N(c4cccc(Cl)c4)C3=O)C2)c1

>  <score_type>  (6) 
oracle

>  <origin>  (6) 
adg

>  <m_score__min__energy>  (6) 
-11.1

>  <m_primary>  (6) 
energy

$$$$
6:0
     RDKit          3D

 50 52  0  0  0  0  0  0  0  0999 V2000
   59.9780   29.6710   48.3700 O   0  0  0  0  0  0  0  0  0  0  0  0
   60.8150   30.1410   47.5520 C   0  0  0  0  0  0  0  0  0  0  0  0
   60.6630   29.7930   46.0950 C   0  0  0  0  0  0  0  0  0  0  0  0
   59.2140   29.5660   45.7650 C   0  0  0  0  0  0  0  0  0  0  0  0
   58.4310   30.6200   45.2660 C   0  0  0  0  0  0  0  0  0  0  0  0
   57.0800   30.4140   44.9690 C   0  0  0  0  0  0  0  0  0  0  0  0
   56.5000   29.1570   45.1700 C   0  0  0  0  0  0  0  0  0  0  0  0
   55.1570   28.9660   44.8620 O   0  0  0  0  0  0  0  0  0  0  0  0
   57.2730   28.0970   45.6770 C   0  0  0  0  0  0  0  0  0  0  0  0
   56.7210   26.8300   45.8700 O   0  0  0  0  0  0  0  0  0  0  0  0
   58.6220   28.3100   45.9890 C   0  0  0  0  0  0  0  0  0  0  0  0
   61.8880   30.9810   48.0300 N   0  0  0  0  0  0  0  0  0  0  0  0
   61.9750   31.3500   49.4540 C   0  0  0  0  0  0  0  0  0  0  0  0
   63.3770   31.8540   49.8170 C   0  0  0  0  0  0  0  0  0  0  0  0
   63.8280   33.0000   48.8950 C   0  0  0  0  0  0  0  0  0  0  0  0
   63.4350   32.8030   47.4020 C   0  0  2  0  0  0  0  0  0  0  0  0
   62.3500   33.8070   46.9650 C   0  0  0  0  0  0  0  0  0  0  0  0
   61.2150   33.0910   46.3840 N   0  0  0  0  0  0  0  0  0  0  0  0
   59.7290   33.8130   46.9180 S   0  0  0  0  0  0  0  0  0  0  0  0
   59.8440   35.3110   46.8300 O   0  0  0  0  0  0  0  0  0  0  0  0
   58.6090   33.3640   46.0220 O   0  0  0  0  0  0  0  0  0  0  0  0
   59.3730   33.3190   48.5730 C   0  0  0  0  0  0  0  0  0  0  0  0
   58.4040   32.3370   48.8280 C   0  0  0  0  0  0  0  0  0  0  0  0
   58.1050   31.9670   50.1430 C   0  0  0  0  0  0  0  0  0  0  0  0
   58.7760   32.5720   51.2100 C   0  0  0  0  0  0  0  0  0  0  0  0
   59.7460   33.5490   50.9630 C   0  0  0  0  0  0  0  0  0  0  0  0
   60.0430   33.9250   49.6480 C   0  0  0  0  0  0  0  0  0  0  0  0
   60.9790   34.8840   49.4260 F   0  0  0  0  0  0  0  0  0  0  0  0
   62.9760   31.3590   47.1170 C   0  0  0  0  0  0  0  0  0  0  0  0
   61.0504   30.6197   45.4814 H   0  0  0  0  0  0  0  0  0  0  0  0
   61.2280   28.8730   45.8844 H   0  0  0  0  0  0  0  0  0  0  0  0
   58.8820   31.6108   45.1083 H   0  0  0  0  0  0  0  0  0  0  0  0
   56.4720   31.2424   44.5764 H   0  0  0  0  0  0  0  0  0  0  0  0
   56.0370   26.4400   45.2350 H   0  0  0  0  0  0  0  0  0  0  0  0
   59.2216   27.4903   46.4116 H   0  0  0  0  0  0  0  0  0  0  0  0
   61.2438   32.1448   49.6630 H   0  0  0  0  0  0  0  0  0  0  0  0
   61.7621   30.4550   50.0571 H   0  0  0  0  0  0  0  0  0  0  0  0
   63.3676   32.2154   50.8559 H   0  0  0  0  0  0  0  0  0  0  0  0
   64.0828   31.0191   49.6955 H   0  0  0  0  0  0  0  0  0  0  0  0
   63.3690   33.9333   49.2533 H   0  0  0  0  0  0  0  0  0  0  0  0
   64.9270   33.0263   48.9341 H   0  0  0  0  0  0  0  0  0  0  0  0
   64.3409   32.9949   46.8083 H   0  0  0  0  0  0  0  0  0  0  0  0
   62.0103   34.3808   47.8399 H   0  0  0  0  0  0  0  0  0  0  0  0
   62.7707   34.4906   46.2128 H   0  0  0  0  0  0  0  0  0  0  0  0
   57.8774   31.8563   47.9904 H   0  0  0  0  0  0  0  0  0  0  0  0
   57.3415   31.1995   50.3380 H   0  0  0  0  0  0  0  0  0  0  0  0
   58.5410   32.2796   52.2440 H   0  0  0  0  0  0  0  0  0  0  0  0
   60.2758   34.0222   51.8029 H   0  0  0  0  0  0  0  0  0  0  0  0
   62.6193   31.2897   46.0788 H   0  0  0  0  0  0  0  0  0  0  0  0
   63.8251   30.6765   47.2696 H   0  0  0  0  0  0  0  0  0  0  0  0
  1  2  2  0
  2  3  1  0
  3  4  1  0
  4  5  2  0
  5  6  1  0
  6  7  2  0
  7  8  1  0
  7  9  1  0
  9 10  1  0
  9 11  2  0
  2 12  1  0
 12 13  1  0
 13 14  1  0
 14 15  1  0
 15 16  1  0
 16 17  1  0
 17 18  1  0
 18 19  1  0
 19 20  2  0
 19 21  2  0
 19 22  1  0
 22 23  2  0
 23 24  1  0
 24 25  2  0
 25 26  1  0
 26 27  2  0
 27 28  1  0
 16 29  1  0
 11  4  1  0
 29 12  1  0
 27 22  1  0
  3 30  1  0
  3 31  1  0
  5 32  1  0
  6 33  1  0
 10 34  1  0
 11 35  1  0
 13 36  1  0
 13 37  1  0
 14 38  1  0
 14 39  1  0
 15 40  1  0
 15 41  1  0
 16 42  1  6
 17 43  1  0
 17 44  1  0
 23 45  1  0
 24 46  1  0
 25 47  1  0
 26 48  1  0
 29 49  1  0
 29 50  1  0
M  CHG  2   8  -1  18  -1
M  END
>  <UniqueID>  (7) 
6

>  <SMILES>  (7) 
O=C(Cc1ccc([O-])c(O)c1)N1CCC[C@H](C[N-]S(=O)(=O)c2ccccc2F)C1

>  <Energy>  (7) 
48.80784452895886

>  <Genealogy>  (7) 
O=C(Cc1ccc([O-])c(O)c1)N1CCCC(C[N-]S(=O)(=O)c2ccccc2F)C1 (protonated)
O=C(Cc1ccc([O-])c(O)c1)N1CCC[C@H](C[N-]S(=O)(=O)c2ccccc2F)C1 (chirality)
O=C(Cc1ccc([O-])c(O)c1)N1CCC[C@H](C[N-]S(=O)(=O)c2ccccc2F)C1 (3D coordinates assigned)
O=C(Cc1ccc([O-])c(O)c1)N1CCC[C@H](C[N-]S(=O)(=O)c2ccccc2F)C1 (nonaromatic ring conformer: 48.80784452895886 kcal/mol)

>  <smiles>  (7) 
O=C(Cc1ccc(O)c(O)c1)N1CCCC(CNS(=O)(=O)c2ccccc2F)C1

>  <score_type>  (7) 
oracle

>  <origin>  (7) 
adg

>  <m_score__min__energy>  (7) 
-13.24

>  <m_primary>  (7) 
energy

$$$$
7:0
     RDKit          3D

 53 55  0  0  0  0  0  0  0  0999 V2000
   56.6750   22.5350   43.3830 C   0  0  0  0  0  0  0  0  0  0  0  0
   57.6420   22.3740   44.2900 C   0  0  0  0  0  0  0  0  0  0  0  0
   57.4060   21.5740   45.5360 C   0  0  0  0  0  0  0  0  0  0  0  0
   57.3340   22.4670   46.6900 N   0  0  0  0  0  0  0  0  0  0  0  0
   57.3380   23.7630   46.6070 C   0  0  0  0  0  0  0  0  0  0  0  0
   56.1930   24.4530   46.3690 N   0  0  0  0  0  0  0  0  0  0  0  0
   56.2080   25.8060   46.2820 C   0  0  0  0  0  0  0  0  0  0  0  0
   55.1240   26.4160   46.0730 O   0  0  0  0  0  0  0  0  0  0  0  0
   57.3860   26.4940   46.4250 N   0  0  0  0  0  0  0  0  0  0  0  0
   57.4130   27.9690   46.3580 C   0  0  0  0  0  0  0  0  0  0  0  0
   56.9650   28.4580   45.0040 C   0  0  0  0  0  0  0  0  0  0  0  0
   57.3900   27.8900   43.9630 O   0  0  0  0  0  0  0  0  0  0  0  0
   56.1180   29.6030   44.8630 N   0  0  0  0  0  0  0  0  0  0  0  0
   56.5600   30.8970   44.3600 C   0  0  0  0  0  0  0  0  0  0  0  0
   57.7430   31.3620   45.1600 C   0  0  0  0  0  0  0  0  0  0  0  0
   57.6900   32.5740   45.8630 C   0  0  0  0  0  0  0  0  0  0  0  0
   58.7780   32.9900   46.6370 C   0  0  0  0  0  0  0  0  0  0  0  0
   59.9320   32.1910   46.7350 C   0  0  0  0  0  0  0  0  0  0  0  0
   61.0930   32.6250   47.5480 C   0  0  0  0  0  0  0  0  0  0  0  0
   61.3530   33.8560   47.6530 O   0  0  0  0  0  0  0  0  0  0  0  0
   61.9390   31.6630   48.2010 N   0  0  0  0  0  0  0  0  0  0  0  0
   62.9530   32.0480   49.1400 C   0  0  0  0  0  0  0  0  0  0  0  0
   62.8370   31.6260   50.4730 C   0  0  0  0  0  0  0  0  0  0  0  0
   63.8210   31.9500   51.4080 C   0  0  0  0  0  0  0  0  0  0  0  0
   64.9280   32.7070   51.0220 C   0  0  0  0  0  0  0  0  0  0  0  0
   65.0440   33.1570   49.7060 C   0  0  0  0  0  0  0  0  0  0  0  0
   64.0550   32.8490   48.7580 C   0  0  0  0  0  0  0  0  0  0  0  0
   64.1600   33.3980   47.4380 N   0  0  0  0  0  0  0  0  0  0  0  0
   59.9780   30.9750   46.0310 C   0  0  0  0  0  0  0  0  0  0  0  0
   58.8900   30.5590   45.2580 C   0  0  0  0  0  0  0  0  0  0  0  0
   58.5340   25.7900   46.6830 C   0  0  0  0  0  0  0  0  0  0  0  0
   59.6330   26.3850   46.8490 O   0  0  0  0  0  0  0  0  0  0  0  0
   58.5010   24.4370   46.7660 N   0  0  0  0  0  0  0  0  0  0  0  0
   56.8657   23.1252   42.4745 H   0  0  0  0  0  0  0  0  0  0  0  0
   55.6878   22.0774   43.5444 H   0  0  0  0  0  0  0  0  0  0  0  0
   58.6262   22.8351   44.1204 H   0  0  0  0  0  0  0  0  0  0  0  0
   56.4594   21.0217   45.4418 H   0  0  0  0  0  0  0  0  0  0  0  0
   58.2356   20.8654   45.6758 H   0  0  0  0  0  0  0  0  0  0  0  0
   56.7409   28.3762   47.1277 H   0  0  0  0  0  0  0  0  0  0  0  0
   58.4454   28.3081   46.5285 H   0  0  0  0  0  0  0  0  0  0  0  0
   56.8461   30.8019   43.3021 H   0  0  0  0  0  0  0  0  0  0  0  0
   55.7425   31.6272   44.4521 H   0  0  0  0  0  0  0  0  0  0  0  0
   56.7880   33.2009   45.8054 H   0  0  0  0  0  0  0  0  0  0  0  0
   58.7312   33.9493   47.1733 H   0  0  0  0  0  0  0  0  0  0  0  0
   61.9880   30.6980   47.8030 H   0  0  0  0  0  0  0  0  0  0  0  0
   61.9630   31.0347   50.7837 H   0  0  0  0  0  0  0  0  0  0  0  0
   63.7241   31.6087   52.4492 H   0  0  0  0  0  0  0  0  0  0  0  0
   65.7104   32.9494   51.7562 H   0  0  0  0  0  0  0  0  0  0  0  0
   65.9166   33.7574   49.4092 H   0  0  0  0  0  0  0  0  0  0  0  0
   64.9310   33.1270   46.7900 H   0  0  0  0  0  0  0  0  0  0  0  0
   63.4130   34.0260   47.0640 H   0  0  0  0  0  0  0  0  0  0  0  0
   60.8781   30.3453   46.0889 H   0  0  0  0  0  0  0  0  0  0  0  0
   58.9330   29.5981   44.7242 H   0  0  0  0  0  0  0  0  0  0  0  0
  1  2  2  0
  2  3  1  0
  3  4  1  0
  4  5  2  3
  5  6  1  0
  6  7  1  0
  7  8  2  0
  7  9  1  0
  9 10  1  0
 10 11  1  0
 11 12  2  0
 11 13  1  0
 13 14  1  0
 14 15  1  0
 15 16  2  0
 16 17  1  0
 17 18  2  0
 18 19  1  0
 19 20  2  0
 19 21  1  0
 21 22  1  0
 22 23  2  0
 23 24  1  0
 24 25  2  0
 25 26  1  0
 26 27  2  0
 27 28  1  0
 18 29  1  0
 29 30  2  0
  9 31  1  0
 31 32  2  0
 31 33  1  0
 33  5  1  0
 30 15  1  0
 27 22  1  0
  1 34  1  0
  1 35  1  0
  2 36  1  0
  3 37  1  0
  3 38  1  0
 10 39  1  0
 10 40  1  0
 14 41  1  0
 14 42  1  0
 16 43  1  0
 17 44  1  0
 21 45  1  0
 23 46  1  0
 24 47  1  0
 25 48  1  0
 26 49  1  0
 28 50  1  0
 28 51  1  0
 29 52  1  0
 30 53  1  0
M  CHG  3   6  -1  13  -1  33  -1
M  END
>  <UniqueID>  (8) 
7

>  <SMILES>  (8) 
C=CCN=c1[n-]c(=O)n(CC(=O)[N-]Cc2ccc(C(=O)Nc3ccccc3N)cc2)c(=O)[n-]1

>  <Energy>  (8) 
60.5456343760385

>  <Genealogy>  (8) 
C=CCN=c1[n-]c(=O)n(CC(=O)[N-]Cc2ccc(C(=O)Nc3ccccc3N)cc2)c(=O)[n-]1 (protonated)
C=CCN=c1[n-]c(=O)n(CC(=O)[N-]Cc2ccc(C(=O)Nc3ccccc3N)cc2)c(=O)[n-]1 (3D coordinates assigned)
C=CCN=c1[n-]c(=O)n(CC(=O)[N-]Cc2ccc(C(=O)Nc3ccccc3N)cc2)c(=O)[n-]1 (optimized conformer: 60.5456343760385 kcal/mol)

>  <smiles>  (8) 
C=CCN=c1[nH]c(=O)n(CC(=O)NCc2ccc(C(=O)Nc3ccccc3N)cc2)c(=O)[nH]1

>  <score_type>  (8) 
oracle

>  <origin>  (8) 
adg

>  <m_score__min__energy>  (8) 
-12.58

>  <m_primary>  (8) 
energy

$$$$
8:0
     RDKit          3D

 52 55  0  0  0  0  0  0  0  0999 V2000
   55.5260   22.3310   42.7960 O   0  0  0  0  0  0  0  0  0  0  0  0
   55.7510   23.3150   43.5490 C   0  0  0  0  0  0  0  0  0  0  0  0
   56.9720   24.1460   43.3430 C   0  0  0  0  0  0  0  0  0  0  0  0
   57.9070   24.1180   44.5710 C   0  0  0  0  0  0  0  0  0  0  0  0
   57.2960   24.5670   45.8590 N   0  0  1  0  0  0  0  0  0  0  0  0
   56.6490   25.8740   45.8000 C   0  0  0  0  0  0  0  0  0  0  0  0
   55.4200   25.9870   46.0710 O   0  0  0  0  0  0  0  0  0  0  0  0
   57.4040   27.1110   45.4480 C   0  0  0  0  0  0  0  0  0  0  0  0
   58.7950   27.0440   45.2660 C   0  0  0  0  0  0  0  0  0  0  0  0
   59.5080   28.1940   44.9280 C   0  0  0  0  0  0  0  0  0  0  0  0
   58.8620   29.3780   44.7870 N   0  0  0  0  0  0  0  0  0  0  0  0
   57.5180   29.4930   44.9750 C   0  0  0  0  0  0  0  0  0  0  0  0
   56.9130   30.6350   44.8260 N   0  0  0  0  0  0  0  0  0  0  0  0
   57.5470   31.9020   44.5820 C   0  0  0  0  0  0  0  0  0  0  0  0
   57.3280   32.4810   43.4840 O   0  0  0  0  0  0  0  0  0  0  0  0
   58.3940   32.5720   45.5970 C   0  0  0  0  0  0  0  0  0  0  0  0
   58.8720   33.8740   45.3680 C   0  0  0  0  0  0  0  0  0  0  0  0
   59.6640   34.5150   46.3250 C   0  0  0  0  0  0  0  0  0  0  0  0
   59.9630   33.8820   47.5370 C   0  0  0  0  0  0  0  0  0  0  0  0
   60.8270   34.5410   48.4750 N   0  0  0  0  0  0  0  0  0  0  0  0
   62.0010   34.1490   48.8870 C   0  0  0  0  0  0  0  0  0  0  0  0
   62.9150   33.4730   48.0510 C   0  0  0  0  0  0  0  0  0  0  0  0
   64.1490   33.0700   48.5670 C   0  0  0  0  0  0  0  0  0  0  0  0
   64.4640   33.3280   49.9010 C   0  0  0  0  0  0  0  0  0  0  0  0
   63.5320   33.9820   50.7070 C   0  0  0  0  0  0  0  0  0  0  0  0
   62.3360   34.3690   50.1880 N   0  0  0  0  0  0  0  0  0  0  0  0
   59.5020   32.5760   47.7630 C   0  0  0  0  0  0  0  0  0  0  0  0
   58.7090   31.9330   46.8080 C   0  0  0  0  0  0  0  0  0  0  0  0
   56.7670   28.3570   45.3030 C   0  0  0  0  0  0  0  0  0  0  0  0
   56.4410   23.5290   46.4930 C   0  0  0  0  0  0  0  0  0  0  0  0
   54.9730   23.4530   45.9920 C   0  0  0  0  0  0  0  0  0  0  0  0
   54.7970   23.6580   44.5560 N   0  0  0  0  0  0  0  0  0  0  0  0
   57.5204   23.7607   42.4707 H   0  0  0  0  0  0  0  0  0  0  0  0
   56.6512   25.1863   43.1849 H   0  0  0  0  0  0  0  0  0  0  0  0
   58.2581   23.0842   44.7054 H   0  0  0  0  0  0  0  0  0  0  0  0
   58.7110   24.8364   44.3531 H   0  0  0  0  0  0  0  0  0  0  0  0
   58.1170   24.6930   46.4950 H   0  0  0  0  0  0  0  0  0  0  0  0
   59.3213   26.0860   45.3898 H   0  0  0  0  0  0  0  0  0  0  0  0
   60.5961   28.1405   44.7755 H   0  0  0  0  0  0  0  0  0  0  0  0
   58.6213   34.3914   44.4302 H   0  0  0  0  0  0  0  0  0  0  0  0
   60.0548   35.5235   46.1243 H   0  0  0  0  0  0  0  0  0  0  0  0
   62.6580   33.2651   47.0018 H   0  0  0  0  0  0  0  0  0  0  0  0
   64.8719   32.5495   47.9216 H   0  0  0  0  0  0  0  0  0  0  0  0
   65.4362   33.0193   50.3128 H   0  0  0  0  0  0  0  0  0  0  0  0
   63.7646   34.1848   51.7628 H   0  0  0  0  0  0  0  0  0  0  0  0
   59.7658   32.0559   48.6957 H   0  0  0  0  0  0  0  0  0  0  0  0
   58.3291   30.9199   47.0060 H   0  0  0  0  0  0  0  0  0  0  0  0
   55.6796   28.4391   45.4472 H   0  0  0  0  0  0  0  0  0  0  0  0
   56.9094   22.5505   46.3106 H   0  0  0  0  0  0  0  0  0  0  0  0
   56.3765   23.8079   47.5551 H   0  0  0  0  0  0  0  0  0  0  0  0
   54.5775   22.4583   46.2453 H   0  0  0  0  0  0  0  0  0  0  0  0
   54.4372   24.2763   46.4870 H   0  0  0  0  0  0  0  0  0  0  0  0
  1  2  2  0
  2  3  1  0
  3  4  1  0
  4  5  1  0
  5  6  1  0
  6  7  2  0
  6  8  1  0
  8  9  1  0
  9 10  2  0
 10 11  1  0
 11 12  1  0
 12 13  2  3
 13 14  1  0
 14 15  2  0
 14 16  1  0
 16 17  2  0
 17 18  1  0
 18 19  2  0
 19 20  1  0
 20 21  2  3
 21 22  1  0
 22 23  2  0
 23 24  1  0
 24 25  2  0
 25 26  1  0
 19 27  1  0
 27 28  2  0
 12 29  1  0
  5 30  1  0
 30 31  1  0
 31 32  1  0
 32  2  1  0
 29  8  2  0
 28 16  1  0
 26 21  1  0
  3 33  1  0
  3 34  1  0
  4 35  1  0
  4 36  1  0
  5 37  1  1
  9 38  1  0
 10 39  1  0
 17 40  1  0
 18 41  1  0
 22 42  1  0
 23 43  1  0
 24 44  1  0
 25 45  1  0
 27 46  1  0
 28 47  1  0
 29 48  1  0
 30 49  1  0
 30 50  1  0
 31 51  1  0
 31 52  1  0
M  CHG  4   5   1  11  -1  26  -1  32  -1
M  END
>  <UniqueID>  (9) 
8

>  <SMILES>  (9) 
O=C1CC[N@@H+](C(=O)c2cc[n-]c(=NC(=O)c3ccc(N=c4cccc[n-]4)cc3)c2)CC[N-]1

>  <Energy>  (9) 
95.41265295361906

>  <Genealogy>  (9) 
O=C1CC[NH+](C(=O)c2cc[n-]c(=NC(=O)c3ccc(N=c4cccc[n-]4)cc3)c2)CC[N-]1 (protonated)
O=C1CC[N@@H+](C(=O)c2cc[n-]c(=NC(=O)c3ccc(N=c4cccc[n-]4)cc3)c2)CC[N-]1 (chirality)
O=C1CC[N@@H+](C(=O)c2cc[n-]c(=NC(=O)c3ccc(N=c4cccc[n-]4)cc3)c2)CC[N-]1 (3D coordinates assigned)
O=C1CC[N@@H+](C(=O)c2cc[n-]c(=NC(=O)c3ccc(N=c4cccc[n-]4)cc3)c2)CC[N-]1 (nonaromatic ring conformer: 95.41265295361906 kcal/mol)

>  <smiles>  (9) 
O=C1CCN(C(=O)c2cc[nH]c(=NC(=O)c3ccc(N=c4cccc[nH]4)cc3)c2)CCN1

>  <score_type>  (9) 
oracle

>  <origin>  (9) 
adg

>  <m_score__min__energy>  (9) 
-9.3599999999999994

>  <m_primary>  (9) 
energy

$$$$
9:0
     RDKit          3D

 50 53  0  0  0  0  0  0  0  0999 V2000
   59.6070   34.5170   47.1920 O   0  0  0  0  0  0  0  0  0  0  0  0
   59.0430   33.4680   46.7800 C   0  0  0  0  0  0  0  0  0  0  0  0
   57.8890   33.5910   45.8210 C   0  0  0  0  0  0  0  0  0  0  0  0
   58.1230   32.7860   44.5370 C   0  0  0  0  0  0  0  0  0  0  0  0
   57.4850   31.4330   44.6130 C   0  0  0  0  0  0  0  0  0  0  0  0
   56.1640   31.2230   44.4770 N   0  0  0  0  0  0  0  0  0  0  0  0
   55.9670   29.9330   44.6740 N   0  0  0  0  0  0  0  0  0  0  0  0
   57.1710   29.3890   44.9370 C   0  0  0  0  0  0  0  0  0  0  0  0
   57.3840   27.9560   45.2270 C   0  0  0  0  0  0  0  0  0  0  0  0
   57.0470   27.4260   46.4860 C   0  0  0  0  0  0  0  0  0  0  0  0
   57.2440   26.0690   46.7570 C   0  0  0  0  0  0  0  0  0  0  0  0
   57.7760   25.2210   45.7750 C   0  0  0  0  0  0  0  0  0  0  0  0
   57.9990   23.5010   46.1080 S   0  0  0  0  0  0  0  0  0  0  0  0
   57.7690   23.2430   47.5730 O   0  0  0  0  0  0  0  0  0  0  0  0
   59.4160   23.1150   45.7850 O   0  0  0  0  0  0  0  0  0  0  0  0
   56.8990   22.5200   45.1690 N   0  0  0  0  0  0  0  0  0  0  0  0
   55.8930   23.3480   44.4580 C   0  0  0  0  0  0  0  0  0  0  0  0
   56.2060   23.5200   42.9640 C   0  0  0  0  0  0  0  0  0  0  0  0
   56.3030   22.1600   42.2500 C   0  0  0  0  0  0  0  0  0  0  0  0
   56.7790   21.0310   43.1800 C   0  0  0  0  0  0  0  0  0  0  0  0
   57.6540   21.5840   44.3070 C   0  0  0  0  0  0  0  0  0  0  0  0
   58.1270   25.7490   44.5260 C   0  0  0  0  0  0  0  0  0  0  0  0
   57.9310   27.1050   44.2530 C   0  0  0  0  0  0  0  0  0  0  0  0
   58.1600   30.3070   44.9170 N   0  0  0  0  0  0  0  0  0  0  0  0
   59.5040   32.1590   47.2790 C   0  0  0  0  0  0  0  0  0  0  0  0
   60.5110   31.3640   46.7370 C   0  0  0  0  0  0  0  0  0  0  0  0
   60.7110   30.1690   47.4410 C   0  0  0  0  0  0  0  0  0  0  0  0
   59.8720   30.0170   48.5360 C   0  0  0  0  0  0  0  0  0  0  0  0
   58.8780   31.3700   48.6270 S   0  0  0  0  0  0  0  0  0  0  0  0
   56.9775   33.2196   46.3122 H   0  0  0  0  0  0  0  0  0  0  0  0
   57.7874   34.6509   45.5446 H   0  0  0  0  0  0  0  0  0  0  0  0
   57.6936   33.3364   43.6869 H   0  0  0  0  0  0  0  0  0  0  0  0
   59.2069   32.6496   44.4081 H   0  0  0  0  0  0  0  0  0  0  0  0
   56.6262   28.0832   47.2613 H   0  0  0  0  0  0  0  0  0  0  0  0
   56.9805   25.6643   47.7453 H   0  0  0  0  0  0  0  0  0  0  0  0
   54.9091   22.8662   44.5569 H   0  0  0  0  0  0  0  0  0  0  0  0
   55.9076   24.3485   44.9149 H   0  0  0  0  0  0  0  0  0  0  0  0
   55.4061   24.1132   42.4968 H   0  0  0  0  0  0  0  0  0  0  0  0
   57.1761   24.0301   42.8702 H   0  0  0  0  0  0  0  0  0  0  0  0
   55.3093   21.8971   41.8582 H   0  0  0  0  0  0  0  0  0  0  0  0
   57.0456   22.2610   41.4448 H   0  0  0  0  0  0  0  0  0  0  0  0
   55.9022   20.5308   43.6172 H   0  0  0  0  0  0  0  0  0  0  0  0
   57.3742   20.3179   42.5908 H   0  0  0  0  0  0  0  0  0  0  0  0
   58.0178   20.7468   44.9209 H   0  0  0  0  0  0  0  0  0  0  0  0
   58.4941   22.1317   43.8551 H   0  0  0  0  0  0  0  0  0  0  0  0
   58.5591   25.0927   43.7563 H   0  0  0  0  0  0  0  0  0  0  0  0
   58.2072   27.5091   43.2679 H   0  0  0  0  0  0  0  0  0  0  0  0
   61.0910   31.6459   45.8459 H   0  0  0  0  0  0  0  0  0  0  0  0
   61.4636   29.4205   47.1524 H   0  0  0  0  0  0  0  0  0  0  0  0
   59.8595   29.1597   49.2251 H   0  0  0  0  0  0  0  0  0  0  0  0
  1  2  2  0
  2  3  1  0
  3  4  1  0
  4  5  1  0
  5  6  2  0
  6  7  1  0
  7  8  1  0
  8  9  1  0
  9 10  2  0
 10 11  1  0
 11 12  2  0
 12 13  1  0
 13 14  2  0
 13 15  2  0
 13 16  1  0
 16 17  1  0
 17 18  1  0
 18 19  1  0
 19 20  1  0
 20 21  1  0
 12 22  1  0
 22 23  2  0
  8 24  2  0
  2 25  1  0
 25 26  2  0
 26 27  1  0
 27 28  2  0
 28 29  1  0
 24  5  1  0
 29 25  1  0
 23  9  1  0
 21 16  1  0
  3 30  1  0
  3 31  1  0
  4 32  1  0
  4 33  1  0
 10 34  1  0
 11 35  1  0
 17 36  1  0
 17 37  1  0
 18 38  1  0
 18 39  1  0
 19 40  1  0
 19 41  1  0
 20 42  1  0
 20 43  1  0
 21 44  1  0
 21 45  1  0
 22 46  1  0
 23 47  1  0
 26 48  1  0
 27 49  1  0
 28 50  1  0
M  CHG  1   7  -1
M  END
>  <UniqueID>  (10) 
9

>  <SMILES>  (10) 
O=C(CCc1n[n-]c(-c2ccc(S(=O)(=O)N3CCCCC3)cc2)n1)c1cccs1

>  <Energy>  (10) 
110.97793618511564

>  <Genealogy>  (10) 
O=C(CCc1n[n-]c(-c2ccc(S(=O)(=O)N3CCCCC3)cc2)n1)c1cccs1 (protonated)
O=C(CCc1n[n-]c(-c2ccc(S(=O)(=O)N3CCCCC3)cc2)n1)c1cccs1 (3D coordinates assigned)
O=C(CCc1n[n-]c(-c2ccc(S(=O)(=O)N3CCCCC3)cc2)n1)c1cccs1 (nonaromatic ring conformer: 110.97793618511564 kcal/mol)

>  <smiles>  (10) 
O=C(CCc1n[nH]c(-c2ccc(S(=O)(=O)N3CCCCC3)cc2)n1)c1cccs1

>  <score_type>  (10) 
oracle

>  <origin>  (10) 
adg

>  <m_score__min__energy>  (10) 
-10.970000000000001

>  <m_primary>  (10) 
energy

$$$$
10:0
     RDKit          3D

 68 71  0  0  0  0  0  0  0  0999 V2000
   59.2500   29.2290   48.1310 O   0  0  0  0  0  0  0  0  0  0  0  0
   59.5370   30.3290   47.5860 C   0  0  0  0  0  0  0  0  0  0  0  0
   60.7740   30.4400   46.7510 C   0  0  0  0  0  0  0  0  0  0  0  0
   60.7940   29.3760   45.6470 C   0  0  0  0  0  0  0  0  0  0  0  0
   59.4630   29.3560   44.8910 C   0  0  0  0  0  0  0  0  0  0  0  0
   58.5650   28.3530   45.4590 N   0  0  0  0  0  0  0  0  0  0  0  0
   58.2060   27.1500   44.7600 C   0  0  0  0  0  0  0  0  0  0  0  0
   58.4650   27.0440   43.5320 O   0  0  0  0  0  0  0  0  0  0  0  0
   57.5190   26.0390   45.4650 C   0  0  0  0  0  0  0  0  0  0  0  0
   57.6640   25.8640   46.8540 C   0  0  0  0  0  0  0  0  0  0  0  0
   56.9960   24.8280   47.5120 C   0  0  0  0  0  0  0  0  0  0  0  0
   56.1880   23.9470   46.7930 C   0  0  0  0  0  0  0  0  0  0  0  0
   56.0570   24.0840   45.4050 C   0  0  0  0  0  0  0  0  0  0  0  0
   55.0240   22.9630   44.5180 S   0  0  0  0  0  0  0  0  0  0  0  0
   53.8170   22.6090   45.3440 O   0  0  0  0  0  0  0  0  0  0  0  0
   54.5590   23.6420   43.2570 O   0  0  0  0  0  0  0  0  0  0  0  0
   55.9340   21.5240   44.1140 N   0  0  0  0  0  0  0  0  0  0  0  0
   57.0680   21.8570   43.2450 C   0  0  0  0  0  0  0  0  0  0  0  0
   58.2880   22.0810   44.1270 C   0  0  0  0  0  0  0  0  0  0  0  0
   57.9430   21.4570   45.4650 C   0  0  0  0  0  0  0  0  0  0  0  0
   56.5220   20.9300   45.3190 C   0  0  0  0  0  0  0  0  0  0  0  0
   56.7230   25.1270   44.7430 C   0  0  0  0  0  0  0  0  0  0  0  0
   58.6840   31.4690   47.7550 N   0  0  0  0  0  0  0  0  0  0  0  0
   58.5430   32.5230   46.7910 C   0  0  0  0  0  0  0  0  0  0  0  0
   57.8060   32.2660   45.6300 C   0  0  0  0  0  0  0  0  0  0  0  0
   57.5910   33.2770   44.6890 C   0  0  0  0  0  0  0  0  0  0  0  0
   58.1200   34.5520   44.9000 C   0  0  0  0  0  0  0  0  0  0  0  0
   58.8870   34.8120   46.0360 C   0  0  0  0  0  0  0  0  0  0  0  0
   59.1320   33.7990   46.9760 C   0  0  0  0  0  0  0  0  0  0  0  0
   60.0560   34.0780   48.0970 C   0  0  0  0  0  0  0  0  0  0  0  0
   59.6060   34.6490   49.1300 O   0  0  0  0  0  0  0  0  0  0  0  0
   61.4440   33.6970   48.0340 N   0  0  0  0  0  0  0  0  0  0  0  0
   62.1860   33.8530   46.7760 C   0  0  0  0  0  0  0  0  0  0  0  0
   63.3840   32.9040   46.7650 C   0  0  0  0  0  0  0  0  0  0  0  0
   64.1790   33.0990   47.9190 O   0  0  0  0  0  0  0  0  0  0  0  0
   63.4540   32.7040   49.0670 C   0  0  0  0  0  0  0  0  0  0  0  0
   62.2180   33.5930   49.2760 C   0  0  0  0  0  0  0  0  0  0  0  0
   60.8067   31.4376   46.2887 H   0  0  0  0  0  0  0  0  0  0  0  0
   61.6482   30.2851   47.4005 H   0  0  0  0  0  0  0  0  0  0  0  0
   61.6068   29.6030   44.9414 H   0  0  0  0  0  0  0  0  0  0  0  0
   60.9536   28.3903   46.1085 H   0  0  0  0  0  0  0  0  0  0  0  0
   58.9908   30.3468   44.9637 H   0  0  0  0  0  0  0  0  0  0  0  0
   59.6566   29.1036   43.8380 H   0  0  0  0  0  0  0  0  0  0  0  0
   58.1540   28.5530   46.3980 H   0  0  0  0  0  0  0  0  0  0  0  0
   58.3081   26.5481   47.4260 H   0  0  0  0  0  0  0  0  0  0  0  0
   57.1075   24.7068   48.5996 H   0  0  0  0  0  0  0  0  0  0  0  0
   55.6521   23.1422   47.3175 H   0  0  0  0  0  0  0  0  0  0  0  0
   57.2592   21.0285   42.5472 H   0  0  0  0  0  0  0  0  0  0  0  0
   56.8480   22.7626   42.6607 H   0  0  0  0  0  0  0  0  0  0  0  0
   59.1718   21.5919   43.6915 H   0  0  0  0  0  0  0  0  0  0  0  0
   58.5284   23.1498   44.2259 H   0  0  0  0  0  0  0  0  0  0  0  0
   58.6357   20.6339   45.6945 H   0  0  0  0  0  0  0  0  0  0  0  0
   58.0240   22.1849   46.2857 H   0  0  0  0  0  0  0  0  0  0  0  0
   56.5393   19.8343   45.2235 H   0  0  0  0  0  0  0  0  0  0  0  0
   55.9253   21.1967   46.2038 H   0  0  0  0  0  0  0  0  0  0  0  0
   56.6231   25.2335   43.6527 H   0  0  0  0  0  0  0  0  0  0  0  0
   57.3929   31.2614   45.4565 H   0  0  0  0  0  0  0  0  0  0  0  0
   57.0049   33.0682   43.7819 H   0  0  0  0  0  0  0  0  0  0  0  0
   57.9317   35.3525   44.1695 H   0  0  0  0  0  0  0  0  0  0  0  0
   59.3026   35.8178   46.1960 H   0  0  0  0  0  0  0  0  0  0  0  0
   61.5245   33.6170   45.9294 H   0  0  0  0  0  0  0  0  0  0  0  0
   62.5414   34.8903   46.6883 H   0  0  0  0  0  0  0  0  0  0  0  0
   63.0231   31.8651   46.7450 H   0  0  0  0  0  0  0  0  0  0  0  0
   63.9938   33.1099   45.8730 H   0  0  0  0  0  0  0  0  0  0  0  0
   63.1289   31.6603   48.9447 H   0  0  0  0  0  0  0  0  0  0  0  0
   64.1089   32.8055   49.9449 H   0  0  0  0  0  0  0  0  0  0  0  0
   61.5850   33.1541   50.0613 H   0  0  0  0  0  0  0  0  0  0  0  0
   62.5494   34.5987   49.5740 H   0  0  0  0  0  0  0  0  0  0  0  0
  1  2  2  0
  2  3  1  0
  3  4  1  0
  4  5  1  0
  5  6  1  0
  6  7  1  0
  7  8  2  0
  7  9  1  0
  9 10  2  0
 10 11  1  0
 11 12  2  0
 12 13  1  0
 13 14  1  0
 14 15  2  0
 14 16  2  0
 14 17  1  0
 17 18  1  0
 18 19  1  0
 19 20  1  0
 20 21  1  0
 13 22  2  0
  2 23  1  0
 23 24  1  0
 24 25  2  0
 25 26  1  0
 26 27  2  0
 27 28  1  0
 28 29  2  0
 29 30  1  0
 30 31  2  0
 30 32  1  0
 32 33  1  0
 33 34  1  0
 34 35  1  0
 35 36  1  0
 36 37  1  0
 22  9  1  0
 29 24  1  0
 37 32  1  0
 21 17  1  0
  3 38  1  0
  3 39  1  0
  4 40  1  0
  4 41  1  0
  5 42  1  0
  5 43  1  0
  6 44  1  0
 10 45  1  0
 11 46  1  0
 12 47  1  0
 18 48  1  0
 18 49  1  0
 19 50  1  0
 19 51  1  0
 20 52  1  0
 20 53  1  0
 21 54  1  0
 21 55  1  0
 22 56  1  0
 25 57  1  0
 26 58  1  0
 27 59  1  0
 28 60  1  0
 33 61  1  0
 33 62  1  0
 34 63  1  0
 34 64  1  0
 36 65  1  0
 36 66  1  0
 37 67  1  0
 37 68  1  0
M  CHG  1  23  -1
M  END
>  <UniqueID>  (11) 
10

>  <SMILES>  (11) 
O=C(CCCNC(=O)c1cccc(S(=O)(=O)N2CCCC2)c1)[N-]c1ccccc1C(=O)N1CCOCC1

>  <Energy>  (11) 
78.25026026385154

>  <Genealogy>  (11) 
O=C(CCCNC(=O)c1cccc(S(=O)(=O)N2CCCC2)c1)[N-]c1ccccc1C(=O)N1CCOCC1 (protonated)
O=C(CCCNC(=O)c1cccc(S(=O)(=O)N2CCCC2)c1)[N-]c1ccccc1C(=O)N1CCOCC1 (3D coordinates assigned)
O=C(CCCNC(=O)c1cccc(S(=O)(=O)N2CCCC2)c1)[N-]c1ccccc1C(=O)N1CCOCC1 (nonaromatic ring conformer: 78.25026026385154 kcal/mol)

>  <smiles>  (11) 
O=C(CCCNC(=O)c1cccc(S(=O)(=O)N2CCCC2)c1)Nc1ccccc1C(=O)N1CCOCC1

>  <score_type>  (11) 
oracle

>  <origin>  (11) 
adg

>  <m_score__min__energy>  (11) 
-13.34

>  <m_primary>  (11) 
energy

$$$$
11:0
     RDKit          3D

 42 44  0  0  0  0  0  0  0  0999 V2000
   52.6221   27.8167   52.7403 H   0  0  0  0  0  0  0  0  0  0  0  0
   53.7050   27.8300   52.9330 C   0  0  0  0  0  0  0  0  0  0  0  0
   54.2288   26.8983   53.1930 H   0  0  0  0  0  0  0  0  0  0  0  0
   54.3860   28.9810   52.8510 C   0  0  0  0  0  0  0  0  0  0  0  0
   55.7220   28.9170   53.1030 N   0  0  0  0  0  0  0  0  0  0  0  0
   56.5690   29.9490   52.8680 C   0  0  0  0  0  0  0  0  0  0  0  0
   57.6324   29.8574   53.1341 H   0  0  0  0  0  0  0  0  0  0  0  0
   56.0950   31.1280   52.2890 C   0  0  0  0  0  0  0  0  0  0  0  0
   57.0140   32.2490   51.9920 C   0  0  0  0  0  0  0  0  0  0  0  0
   56.6960   33.4180   52.3440 O   0  0  0  0  0  0  0  0  0  0  0  0
   58.2600   32.0320   51.3070 N   0  0  0  0  0  0  0  0  0  0  0  0
   59.4710   32.7300   51.7520 C   0  0  0  0  0  0  0  0  0  0  0  0
   59.2115   33.4367   52.5540 H   0  0  0  0  0  0  0  0  0  0  0  0
   60.1975   31.9944   52.1277 H   0  0  0  0  0  0  0  0  0  0  0  0
   60.0870   33.4960   50.5790 C   0  0  0  0  0  0  0  0  0  0  0  0
   59.4477   34.3591   50.3418 H   0  0  0  0  0  0  0  0  0  0  0  0
   61.0955   33.8217   50.8738 H   0  0  0  0  0  0  0  0  0  0  0  0
   60.2100   32.6500   49.3810 N   0  0  0  0  0  0  0  0  0  0  0  0
   60.9790   33.1470   48.2630 C   0  0  0  0  0  0  0  0  0  0  0  0
   61.2620   34.3730   48.1950 O   0  0  0  0  0  0  0  0  0  0  0  0
   61.4450   32.2450   47.1590 C   0  0  0  0  0  0  0  0  0  0  0  0
   61.9093   31.3463   47.5911 H   0  0  0  0  0  0  0  0  0  0  0  0
   60.5858   31.9513   46.5381 H   0  0  0  0  0  0  0  0  0  0  0  0
   62.1817   32.7758   46.5381 H   0  0  0  0  0  0  0  0  0  0  0  0
   59.6570   31.2850   49.3860 C   0  0  0  0  0  0  0  0  0  0  0  0
   59.5620   30.9302   48.3491 H   0  0  0  0  0  0  0  0  0  0  0  0
   60.3357   30.6308   49.9529 H   0  0  0  0  0  0  0  0  0  0  0  0
   58.2760   31.2610   50.0550 C   0  0  0  0  0  0  0  0  0  0  0  0
   57.5378   31.6918   49.3625 H   0  0  0  0  0  0  0  0  0  0  0  0
   58.0315   30.2157   50.2951 H   0  0  0  0  0  0  0  0  0  0  0  0
   54.7190   31.2510   52.0560 C   0  0  0  0  0  0  0  0  0  0  0  0
   54.3302   32.1721   51.5973 H   0  0  0  0  0  0  0  0  0  0  0  0
   53.8220   30.2170   52.3980 C   0  0  0  0  0  0  0  0  0  0  0  0
   52.4970   30.4900   52.2870 C   0  0  0  0  0  0  0  0  0  0  0  0
   51.9013   30.4408   53.2104 H   0  0  0  0  0  0  0  0  0  0  0  0
   51.7780   30.8460   51.0500 C   0  0  0  0  0  0  0  0  0  0  0  0
   51.7730   30.0750   49.9490 N   0  0  0  0  0  0  0  0  0  0  0  0
   51.1030   30.8220   49.0450 C   0  0  0  0  0  0  0  0  0  0  0  0
   50.8750   30.4250   47.8730 O   0  0  0  0  0  0  0  0  0  0  0  0
   50.7050   32.0320   49.4940 N   0  0  0  0  0  0  0  0  0  0  0  0
   51.1520   32.0390   50.7590 C   0  0  0  0  0  0  0  0  0  0  0  0
   51.0200   33.1230   51.6180 O   0  0  0  0  0  0  0  0  0  0  0  0
  1  2  1  0
  2  3  1  0
  2  4  2  0
  4  5  1  0
  5  6  2  0
  6  7  1  0
  6  8  1  0
  8  9  1  0
  9 10  2  0
  9 11  1  0
 11 12  1  0
 12 13  1  0
 12 14  1  0
 12 15  1  0
 15 16  1  0
 15 17  1  0
 15 18  1  0
 18 19  1  0
 19 20  2  0
 19 21  1  0
 21 22  1  0
 21 23  1  0
 21 24  1  0
 18 25  1  0
 25 26  1  0
 25 27  1  0
 25 28  1  0
 28 29  1  0
 28 30  1  0
  8 31  2  0
 31 32  1  0
 31 33  1  0
 33 34  2  0
 34 35  1  0
 34 36  1  0
 36 37  1  0
 37 38  1  0
 38 39  2  0
 38 40  1  0
 40 41  1  0
 41 42  1  0
 33  4  1  0
 41 36  2  0
 28 11  1  0
M  CHG  3  37  -1  40  -1  42  -1
M  END
>  <UniqueID>  (12) 
11

>  <SMILES>  (12) 
C=c1ncc(C(=O)N2CCN(C(C)=O)CC2)c/c1=C/c1[n-]c(=O)[n-]c1[O-]

>  <Energy>  (12) 
98.74243984682577

>  <Genealogy>  (12) 
C=c1ncc(C(=O)N2CCN(C(C)=O)CC2)cc1=Cc1[n-]c(=O)[n-]c1[O-] (protonated)
C=c1ncc(C(=O)N2CCN(C(C)=O)CC2)c/c1=C/c1[n-]c(=O)[n-]c1[O-] (cis-trans isomerization)
C=c1ncc(C(=O)N2CCN(C(C)=O)CC2)c/c1=C/c1[n-]c(=O)[n-]c1[O-] (3D coordinates assigned)
C=c1ncc(C(=O)N2CCN(C(C)=O)CC2)c/c1=C/c1[n-]c(=O)[n-]c1[O-] (nonaromatic ring conformer: 98.74243984682577 kcal/mol)

>  <smiles>  (12) 
C=c1ncc(C(=O)N2CCN(C(C)=O)CC2)cc1=Cc1[nH]c(=O)[nH]c1O

>  <score_type>  (12) 
oracle

>  <origin>  (12) 
adg

>  <m_score__min__energy>  (12) 
-16.739999999999998

>  <m_primary>  (12) 
energy

$$$$
12:0
     RDKit          3D

 63 68  0  0  0  0  0  0  0  0999 V2000
   61.3860   30.0490   46.7130 O   0  0  0  0  0  0  0  0  0  0  0  0
   61.2470   31.2070   47.1930 C   0  0  0  0  0  0  0  0  0  0  0  0
   60.0400   31.9520   46.9440 N   0  0  0  0  0  0  0  0  0  0  0  0
   58.9820   31.5000   46.0790 C   0  0  0  0  0  0  0  0  0  0  0  0
   58.0150   32.3890   45.5790 C   0  0  0  0  0  0  0  0  0  0  0  0
   56.9880   31.9210   44.7560 C   0  0  0  0  0  0  0  0  0  0  0  0
   56.9060   30.5640   44.4370 C   0  0  0  0  0  0  0  0  0  0  0  0
   57.8470   29.6540   44.9500 C   0  0  0  0  0  0  0  0  0  0  0  0
   57.7510   28.2090   44.6260 C   0  0  0  0  0  0  0  0  0  0  0  0
   58.1030   27.7400   43.3480 C   0  0  0  0  0  0  0  0  0  0  0  0
   58.0140   26.3810   43.0440 C   0  0  0  0  0  0  0  0  0  0  0  0
   57.5710   25.4720   44.0070 C   0  0  0  0  0  0  0  0  0  0  0  0
   57.2110   25.9170   45.2910 C   0  0  0  0  0  0  0  0  0  0  0  0
   56.7290   24.9550   46.3080 C   0  0  0  0  0  0  0  0  0  0  0  0
   55.4360   24.5350   46.3760 N   0  0  0  0  0  0  0  0  0  0  0  0
   55.4550   23.6870   47.4140 C   0  0  0  0  0  0  0  0  0  0  0  0
   54.3910   22.9550   47.9360 C   0  0  0  0  0  0  0  0  0  0  0  0
   54.6540   22.1200   49.0380 C   0  0  0  0  0  0  0  0  0  0  0  0
   55.9570   22.0410   49.5810 C   0  0  0  0  0  0  0  0  0  0  0  0
   57.0070   22.7960   49.0250 C   0  0  0  0  0  0  0  0  0  0  0  0
   56.7080   23.6110   47.9350 C   0  0  0  0  0  0  0  0  0  0  0  0
   57.5430   24.4070   47.2520 N   0  0  0  0  0  0  0  0  0  0  0  0
   57.3060   27.2880   45.5930 C   0  0  0  0  0  0  0  0  0  0  0  0
   58.8780   30.1330   45.7790 C   0  0  0  0  0  0  0  0  0  0  0  0
   62.3410   31.7750   48.0180 C   0  0  0  0  0  0  0  0  0  0  0  0
   63.0680   32.8810   47.5530 C   0  0  0  0  0  0  0  0  0  0  0  0
   64.1010   33.4210   48.3200 C   0  0  0  0  0  0  0  0  0  0  0  0
   64.4200   32.8420   49.5580 C   0  0  0  0  0  0  0  0  0  0  0  0
   65.4840   33.3620   50.3780 N   0  0  0  0  0  0  0  0  0  0  0  0
   65.2900   34.2240   51.5360 C   0  0  0  0  0  0  0  0  0  0  0  0
   66.6660   34.3770   52.1730 C   0  0  0  0  0  0  0  0  0  0  0  0
   67.6640   33.9780   51.0790 C   0  0  1  0  0  0  0  0  0  0  0  0
   68.9540   33.3420   51.6270 C   0  0  0  0  0  0  0  0  0  0  0  0
   68.7410   32.0120   52.0290 O   0  0  0  0  0  0  0  0  0  0  0  0
   66.8850   33.0680   50.1270 C   0  0  0  0  0  0  0  0  0  0  0  0
   63.7130   31.7580   49.9830 N   0  0  0  0  0  0  0  0  0  0  0  0
   62.6990   31.2200   49.2570 C   0  0  0  0  0  0  0  0  0  0  0  0
   59.8780   32.8460   47.4580 H   0  0  0  0  0  0  0  0  0  0  0  0
   58.0671   33.4571   45.8367 H   0  0  0  0  0  0  0  0  0  0  0  0
   56.2413   32.6238   44.3578 H   0  0  0  0  0  0  0  0  0  0  0  0
   56.1001   30.2047   43.7802 H   0  0  0  0  0  0  0  0  0  0  0  0
   58.4509   28.4493   42.5826 H   0  0  0  0  0  0  0  0  0  0  0  0
   58.2939   26.0244   42.0418 H   0  0  0  0  0  0  0  0  0  0  0  0
   57.5034   24.4023   43.7597 H   0  0  0  0  0  0  0  0  0  0  0  0
   53.3824   23.0269   47.5029 H   0  0  0  0  0  0  0  0  0  0  0  0
   53.8408   21.5252   49.4795 H   0  0  0  0  0  0  0  0  0  0  0  0
   56.1514   21.3858   50.4429 H   0  0  0  0  0  0  0  0  0  0  0  0
   58.0261   22.7445   49.4359 H   0  0  0  0  0  0  0  0  0  0  0  0
   57.0293   27.6442   46.5963 H   0  0  0  0  0  0  0  0  0  0  0  0
   59.6113   29.4276   46.1970 H   0  0  0  0  0  0  0  0  0  0  0  0
   62.8221   33.3255   46.5773 H   0  0  0  0  0  0  0  0  0  0  0  0
   64.6617   34.2949   47.9567 H   0  0  0  0  0  0  0  0  0  0  0  0
   64.9012   35.2043   51.2233 H   0  0  0  0  0  0  0  0  0  0  0  0
   64.5617   33.7975   52.2415 H   0  0  0  0  0  0  0  0  0  0  0  0
   66.8325   35.4185   52.4854 H   0  0  0  0  0  0  0  0  0  0  0  0
   66.7731   33.7541   53.0733 H   0  0  0  0  0  0  0  0  0  0  0  0
   68.0450   34.8636   50.5494 H   0  0  0  0  0  0  0  0  0  0  0  0
   69.7231   33.3592   50.8408 H   0  0  0  0  0  0  0  0  0  0  0  0
   69.2788   33.9204   52.5045 H   0  0  0  0  0  0  0  0  0  0  0  0
   68.9830   31.9540   52.9890 H   0  0  0  0  0  0  0  0  0  0  0  0
   67.1445   33.2913   49.0816 H   0  0  0  0  0  0  0  0  0  0  0  0
   67.1176   32.0056   50.2922 H   0  0  0  0  0  0  0  0  0  0  0  0
   62.1553   30.3446   49.6418 H   0  0  0  0  0  0  0  0  0  0  0  0
  1  2  2  0
  2  3  1  0
  3  4  1  0
  4  5  2  0
  5  6  1  0
  6  7  2  0
  7  8  1  0
  8  9  1  0
  9 10  2  0
 10 11  1  0
 11 12  2  0
 12 13  1  0
 13 14  1  0
 14 15  2  0
 15 16  1  0
 16 17  2  0
 17 18  1  0
 18 19  2  0
 19 20  1  0
 20 21  2  0
 21 22  1  0
 13 23  2  0
  8 24  2  0
  2 25  1  0
 25 26  2  0
 26 27  1  0
 27 28  2  0
 28 29  1  0
 29 30  1  0
 30 31  1  0
 31 32  1  0
 32 33  1  0
 33 34  1  0
 32 35  1  0
 28 36  1  0
 36 37  2  0
 24  4  1  0
 37 25  1  0
 23  9  1  0
 35 29  1  0
 22 14  1  0
 21 16  1  0
  3 38  1  0
  5 39  1  0
  6 40  1  0
  7 41  1  0
 10 42  1  0
 11 43  1  0
 12 44  1  0
 17 45  1  0
 18 46  1  0
 19 47  1  0
 20 48  1  0
 23 49  1  0
 24 50  1  0
 26 51  1  0
 27 52  1  0
 30 53  1  0
 30 54  1  0
 31 55  1  0
 31 56  1  0
 32 57  1  6
 33 58  1  0
 33 59  1  0
 34 60  1  0
 35 61  1  0
 35 62  1  0
 37 63  1  0
M  CHG  1  22  -1
M  END
>  <UniqueID>  (13) 
12

>  <SMILES>  (13) 
O=C(Nc1cccc(-c2cccc(-c3nc4ccccc4[n-]3)c2)c1)c1ccc(N2CC[C@@H](CO)C2)nc1

>  <Energy>  (13) 
119.63245400619091

>  <Genealogy>  (13) 
O=C(Nc1cccc(-c2cccc(-c3nc4ccccc4[n-]3)c2)c1)c1ccc(N2CCC(CO)C2)nc1 (protonated)
O=C(Nc1cccc(-c2cccc(-c3nc4ccccc4[n-]3)c2)c1)c1ccc(N2CC[C@@H](CO)C2)nc1 (chirality)
O=C(Nc1cccc(-c2cccc(-c3nc4ccccc4[n-]3)c2)c1)c1ccc(N2CC[C@@H](CO)C2)nc1 (3D coordinates assigned)
O=C(Nc1cccc(-c2cccc(-c3nc4ccccc4[n-]3)c2)c1)c1ccc(N2CC[C@@H](CO)C2)nc1 (nonaromatic ring conformer: 119.63245400619091 kcal/mol)

>  <smiles>  (13) 
O=C(Nc1cccc(-c2cccc(-c3nc4ccccc4[nH]3)c2)c1)c1ccc(N2CCC(CO)C2)nc1

>  <score_type>  (13) 
oracle

>  <origin>  (13) 
adg

>  <m_score__min__energy>  (13) 
-10.039999999999999

>  <m_primary>  (13) 
energy

$$$$
13:0
     RDKit          3D

 55 58  0  0  0  0  0  0  0  0999 V2000
   55.2360   30.0810   45.6130 H   0  0  0  0  0  0  0  0  0  0  0  0
   55.4340   29.3490   44.9430 O   0  0  0  0  0  0  0  0  0  0  0  0
   56.2590   28.2830   45.2830 C   0  0  0  0  0  0  0  0  0  0  0  0
   55.8130   27.1220   45.7910 N   0  0  0  0  0  0  0  0  0  0  0  0
   56.9510   26.4070   45.9350 C   0  0  0  0  0  0  0  0  0  0  0  0
   56.9600   25.2340   46.3900 O   0  0  0  0  0  0  0  0  0  0  0  0
   58.0740   27.0460   45.5430 N   0  0  0  0  0  0  0  0  0  0  0  0
   57.6250   28.2530   45.1490 C   0  0  0  0  0  0  0  0  0  0  0  0
   58.4570   29.3040   44.5320 C   0  0  0  0  0  0  0  0  0  0  0  0
   59.1656   28.9870   43.7527 H   0  0  0  0  0  0  0  0  0  0  0  0
   58.4280   30.6260   44.8380 C   0  0  0  0  0  0  0  0  0  0  0  0
   59.0970   31.0190   46.0200 C   0  0  0  0  0  0  0  0  0  0  0  0
   59.7104   30.2826   46.5599 H   0  0  0  0  0  0  0  0  0  0  0  0
   58.9970   32.3270   46.5210 C   0  0  0  0  0  0  0  0  0  0  0  0
   59.6570   32.7050   47.7940 C   0  0  0  0  0  0  0  0  0  0  0  0
   59.0300   33.4310   48.6150 O   0  0  0  0  0  0  0  0  0  0  0  0
   60.9930   32.2670   48.1200 N   0  0  0  0  0  0  0  0  0  0  0  0
   62.0230   32.1050   47.0880 C   0  0  0  0  0  0  0  0  0  0  0  0
   62.1710   31.0351   46.8795 H   0  0  0  0  0  0  0  0  0  0  0  0
   61.7069   32.6126   46.1647 H   0  0  0  0  0  0  0  0  0  0  0  0
   63.3360   32.7170   47.5920 C   0  0  0  0  0  0  0  0  0  0  0  0
   64.1056   32.5742   46.8192 H   0  0  0  0  0  0  0  0  0  0  0  0
   63.1398   33.7801   47.7950 H   0  0  0  0  0  0  0  0  0  0  0  0
   63.8270   32.1110   48.8650 N   0  0  0  0  0  0  0  0  0  0  0  0
   64.6530   33.0600   49.6760 C   0  0  0  0  0  0  0  0  0  0  0  0
   64.9216   33.8882   49.0038 H   0  0  0  0  0  0  0  0  0  0  0  0
   65.9610   32.3970   50.1990 C   0  0  0  0  0  0  0  0  0  0  0  0
   65.6936   31.5738   50.8779 H   0  0  0  0  0  0  0  0  0  0  0  0
   66.5252   32.0316   49.3283 H   0  0  0  0  0  0  0  0  0  0  0  0
   66.8600   33.3970   50.9600 C   0  0  0  0  0  0  0  0  0  0  0  0
   67.4657   32.8369   51.6876 H   0  0  0  0  0  0  0  0  0  0  0  0
   67.4791   33.9113   50.2102 H   0  0  0  0  0  0  0  0  0  0  0  0
   66.0700   34.4800   51.7150 C   0  0  0  0  0  0  0  0  0  0  0  0
   66.6312   34.7733   52.6145 H   0  0  0  0  0  0  0  0  0  0  0  0
   65.9333   35.3435   51.0474 H   0  0  0  0  0  0  0  0  0  0  0  0
   64.6940   33.9640   52.1310 C   0  0  0  0  0  0  0  0  0  0  0  0
   64.8190   33.0634   52.7502 H   0  0  0  0  0  0  0  0  0  0  0  0
   64.1798   34.7526   52.6999 H   0  0  0  0  0  0  0  0  0  0  0  0
   63.8430   33.6130   50.8960 C   0  0  0  0  0  0  0  0  0  0  0  0
   63.1078   32.8504   51.1926 H   0  0  0  0  0  0  0  0  0  0  0  0
   63.3816   34.5535   50.5605 H   0  0  0  0  0  0  0  0  0  0  0  0
   62.7450   31.4470   49.6490 C   0  0  0  0  0  0  0  0  0  0  0  0
   62.6329   30.4146   49.2864 H   0  0  0  0  0  0  0  0  0  0  0  0
   63.0388   31.4815   50.7085 H   0  0  0  0  0  0  0  0  0  0  0  0
   61.3900   32.1580   49.5260 C   0  0  0  0  0  0  0  0  0  0  0  0
   60.6286   31.5831   50.0735 H   0  0  0  0  0  0  0  0  0  0  0  0
   61.4793   33.1692   49.9497 H   0  0  0  0  0  0  0  0  0  0  0  0
   58.2050   33.2570   45.8430 C   0  0  0  0  0  0  0  0  0  0  0  0
   58.0588   34.2616   46.2665 H   0  0  0  0  0  0  0  0  0  0  0  0
   57.5990   32.9210   44.6340 C   0  0  0  0  0  0  0  0  0  0  0  0
   56.9900   33.6703   44.1071 H   0  0  0  0  0  0  0  0  0  0  0  0
   57.7540   31.6370   44.0760 C   0  0  0  0  0  0  0  0  0  0  0  0
   57.3700   31.4710   42.7970 C   0  0  0  0  0  0  0  0  0  0  0  0
   57.4708   30.4870   42.3158 H   0  0  0  0  0  0  0  0  0  0  0  0
   56.9553   32.3193   42.2327 H   0  0  0  0  0  0  0  0  0  0  0  0
  1  2  1  0
  2  3  1  0
  3  4  1  0
  4  5  1  0
  5  6  2  0
  5  7  1  0
  7  8  1  0
  8  9  1  0
  9 10  1  0
  9 11  2  0
 11 12  1  0
 12 13  1  0
 12 14  2  0
 14 15  1  0
 15 16  2  0
 15 17  1  0
 17 18  1  0
 18 19  1  0
 18 20  1  0
 18 21  1  0
 21 22  1  0
 21 23  1  0
 21 24  1  0
 24 25  1  0
 25 26  1  0
 25 27  1  0
 27 28  1  0
 27 29  1  0
 27 30  1  0
 30 31  1  0
 30 32  1  0
 30 33  1  0
 33 34  1  0
 33 35  1  0
 33 36  1  0
 36 37  1  0
 36 38  1  0
 36 39  1  0
 39 40  1  0
 39 41  1  0
 24 42  1  0
 42 43  1  0
 42 44  1  0
 42 45  1  0
 45 46  1  0
 45 47  1  0
 14 48  1  0
 48 49  1  0
 48 50  2  0
 50 51  1  0
 50 52  1  0
 52 53  2  0
 53 54  1  0
 53 55  1  0
  8  3  2  0
 52 11  1  0
 45 17  1  0
 39 25  1  0
M  CHG  2   4  -1   7  -1
M  END
>  <UniqueID>  (14) 
13

>  <SMILES>  (14) 
C=c1ccc(C(=O)N2CCN(C3CCCCC3)CC2)c/c1=C/c1[n-]c(=O)[n-]c1O

>  <Energy>  (14) 
125.96594686042289

>  <Genealogy>  (14) 
C=c1ccc(C(=O)N2CCN(C3CCCCC3)CC2)cc1=Cc1[n-]c(=O)[n-]c1O (protonated)
C=c1ccc(C(=O)N2CCN(C3CCCCC3)CC2)c/c1=C/c1[n-]c(=O)[n-]c1O (cis-trans isomerization)
C=c1ccc(C(=O)N2CCN(C3CCCCC3)CC2)c/c1=C/c1[n-]c(=O)[n-]c1O (3D coordinates assigned)
C=c1ccc(C(=O)N2CCN(C3CCCCC3)CC2)c/c1=C/c1[n-]c(=O)[n-]c1O (nonaromatic ring conformer: 125.96594686042289 kcal/mol)

>  <smiles>  (14) 
C=c1ccc(C(=O)N2CCN(C3CCCCC3)CC2)cc1=Cc1[nH]c(=O)[nH]c1O

>  <score_type>  (14) 
oracle

>  <origin>  (14) 
adg

>  <m_score__min__energy>  (14) 
-14.279999999999999

>  <m_primary>  (14) 
energy

$$$$
14:0
     RDKit          3D

 38 40  0  0  0  0  0  0  0  0999 V2000
   54.5560   27.0850   46.7210 H   0  0  0  0  0  0  0  0  0  0  0  0
   55.1450   26.6400   45.9830 N   0  0  0  0  0  0  0  0  0  0  0  0
   56.5680   26.6200   46.0930 C   0  0  0  0  0  0  0  0  0  0  0  0
   57.1270   25.6290   46.6360 O   0  0  0  0  0  0  0  0  0  0  0  0
   57.3810   27.7420   45.5670 C   0  0  0  0  0  0  0  0  0  0  0  0
   58.6750   27.5130   45.0680 C   0  0  0  0  0  0  0  0  0  0  0  0
   59.0897   26.4942   45.0719 H   0  0  0  0  0  0  0  0  0  0  0  0
   59.4380   28.5710   44.5670 C   0  0  0  0  0  0  0  0  0  0  0  0
   60.4571   28.3854   44.1969 H   0  0  0  0  0  0  0  0  0  0  0  0
   58.9100   29.8630   44.5350 C   0  0  0  0  0  0  0  0  0  0  0  0
   59.5180   30.6915   44.1426 H   0  0  0  0  0  0  0  0  0  0  0  0
   57.6140   30.1120   44.9980 C   0  0  0  0  0  0  0  0  0  0  0  0
   57.1120   31.4200   44.9100 O   0  0  0  0  0  0  0  0  0  0  0  0
   57.8400   32.5830   45.1980 C   0  0  0  0  0  0  0  0  0  0  0  0
   58.3210   32.8200   46.4460 N   0  0  0  0  0  0  0  0  0  0  0  0
   59.0060   33.9530   46.7550 C   0  0  0  0  0  0  0  0  0  0  0  0
   59.5130   34.1310   47.9420 N   0  0  0  0  0  0  0  0  0  0  0  0
   60.8790   33.8790   48.3220 C   0  0  0  0  0  0  0  0  0  0  0  0
   61.7670   33.3880   47.3580 C   0  0  0  0  0  0  0  0  0  0  0  0
   61.4203   33.2292   46.3262 H   0  0  0  0  0  0  0  0  0  0  0  0
   63.0920   33.0980   47.6980 C   0  0  0  0  0  0  0  0  0  0  0  0
   63.7806   32.7081   46.9339 H   0  0  0  0  0  0  0  0  0  0  0  0
   63.5470   33.3020   49.0090 C   0  0  0  0  0  0  0  0  0  0  0  0
   64.9710   33.0050   49.3730 C   0  0  0  0  0  0  0  0  0  0  0  0
   65.0728   32.9838   50.4681 H   0  0  0  0  0  0  0  0  0  0  0  0
   65.2591   32.0275   48.9590 H   0  0  0  0  0  0  0  0  0  0  0  0
   65.6258   33.7859   48.9590 H   0  0  0  0  0  0  0  0  0  0  0  0
   62.6760   33.8510   49.9610 C   0  0  0  0  0  0  0  0  0  0  0  0
   63.0365   34.0529   50.9805 H   0  0  0  0  0  0  0  0  0  0  0  0
   61.3520   34.1430   49.6210 C   0  0  0  0  0  0  0  0  0  0  0  0
   60.6773   34.5807   50.3714 H   0  0  0  0  0  0  0  0  0  0  0  0
   59.2160   34.9060   45.7530 C   0  0  0  0  0  0  0  0  0  0  0  0
   59.7677   35.8316   45.9742 H   0  0  0  0  0  0  0  0  0  0  0  0
   58.7320   34.6780   44.5030 N   0  0  0  0  0  0  0  0  0  0  0  0
   58.0500   33.5400   44.2030 C   0  0  0  0  0  0  0  0  0  0  0  0
   57.6671   33.3749   43.1851 H   0  0  0  0  0  0  0  0  0  0  0  0
   56.8670   29.0520   45.5510 C   0  0  0  0  0  0  0  0  0  0  0  0
   55.8715   29.2510   45.9746 H   0  0  0  0  0  0  0  0  0  0  0  0
  1  2  1  0
  2  3  1  0
  3  4  2  0
  3  5  1  0
  5  6  2  0
  6  7  1  0
  6  8  1  0
  8  9  1  0
  8 10  2  0
 10 11  1  0
 10 12  1  0
 12 13  1  0
 13 14  1  0
 14 15  1  0
 15 16  1  0
 16 17  2  0
 17 18  1  0
 18 19  2  0
 19 20  1  0
 19 21  1  0
 21 22  1  0
 21 23  2  0
 23 24  1  0
 24 25  1  0
 24 26  1  0
 24 27  1  0
 23 28  1  0
 28 29  1  0
 28 30  2  0
 30 31  1  0
 16 32  1  0
 32 33  1  0
 32 34  2  0
 34 35  1  0
 35 36  1  0
 12 37  2  0
 37 38  1  0
 37  5  1  0
 35 14  2  0
 30 18  1  0
M  CHG  2   2  -1  15  -1
M  END
>  <UniqueID>  (15) 
14

>  <SMILES>  (15) 
Cc1ccc(/N=c2/cncc(Oc3cccc(C([NH-])=O)c3)[n-]2)cc1

>  <Energy>  (15) 
50.01542923803325

>  <Genealogy>  (15) 
Cc1ccc(N=c2cncc(Oc3cccc(C([NH-])=O)c3)[n-]2)cc1 (protonated)
Cc1ccc(/N=c2/cncc(Oc3cccc(C([NH-])=O)c3)[n-]2)cc1 (cis-trans isomerization)
Cc1ccc(/N=c2/cncc(Oc3cccc(C([NH-])=O)c3)[n-]2)cc1 (3D coordinates assigned)
Cc1ccc(/N=c2/cncc(Oc3cccc(C([NH-])=O)c3)[n-]2)cc1 (optimized conformer: 50.01542923803325 kcal/mol)

>  <smiles>  (15) 
Cc1ccc(N=c2cncc(Oc3cccc(C(N)=O)c3)[nH]2)cc1

>  <score_type>  (15) 
oracle

>  <origin>  (15) 
adg

>  <m_score__min__energy>  (15) 
-12.93

>  <m_primary>  (15) 
energy

$$$$
15:0
     RDKit          3D

 53 56  0  0  0  0  0  0  0  0999 V2000
   55.9010   25.3450   46.5570 N   0  0  0  0  0  0  0  0  0  0  0  0
   56.7930   26.0800   46.6190 C   0  0  0  0  0  0  0  0  0  0  0  0
   57.9060   26.9950   46.6970 C   0  0  0  0  0  0  0  0  0  0  0  0
   58.9080   26.7760   47.6530 C   0  0  0  0  0  0  0  0  0  0  0  0
   59.9940   27.6490   47.7450 C   0  0  0  0  0  0  0  0  0  0  0  0
   60.0910   28.7390   46.8780 C   0  0  0  0  0  0  0  0  0  0  0  0
   59.0970   28.9640   45.9220 C   0  0  0  0  0  0  0  0  0  0  0  0
   57.9860   28.1060   45.8350 C   0  0  0  0  0  0  0  0  0  0  0  0
   56.9630   28.3140   44.8470 N   0  0  0  0  0  0  0  0  0  0  0  0
   56.2760   29.5460   44.5880 C   0  0  0  0  0  0  0  0  0  0  0  0
   55.1310   29.7130   45.0840 O   0  0  0  0  0  0  0  0  0  0  0  0
   56.9060   30.6450   43.8150 C   0  0  0  0  0  0  0  0  0  0  0  0
   56.8070   30.6530   42.4130 C   0  0  0  0  0  0  0  0  0  0  0  0
   57.3960   31.6770   41.6670 C   0  0  0  0  0  0  0  0  0  0  0  0
   58.0850   32.7030   42.3100 C   0  0  0  0  0  0  0  0  0  0  0  0
   58.1970   32.7060   43.7030 C   0  0  0  0  0  0  0  0  0  0  0  0
   57.6230   31.6710   44.4670 C   0  0  0  0  0  0  0  0  0  0  0  0
   57.6920   31.6710   45.8690 O   0  0  0  0  0  0  0  0  0  0  0  0
   57.7970   32.8060   46.6860 C   0  0  0  0  0  0  0  0  0  0  0  0
   57.2100   33.8780   46.3730 O   0  0  0  0  0  0  0  0  0  0  0  0
   58.6590   32.7580   47.8890 C   0  0  0  0  0  0  0  0  0  0  0  0
   59.3700   33.8950   48.3100 C   0  0  0  0  0  0  0  0  0  0  0  0
   60.1710   33.8430   49.4520 C   0  0  0  0  0  0  0  0  0  0  0  0
   60.2810   32.6570   50.1800 C   0  0  0  0  0  0  0  0  0  0  0  0
   59.5970   31.5050   49.7670 C   0  0  0  0  0  0  0  0  0  0  0  0
   59.7090   30.2990   50.5450 N   0  0  0  0  0  0  0  0  0  0  0  0
   58.6700   29.8100   51.4100 C   0  0  0  0  0  0  0  0  0  0  0  0
   57.4730   30.1480   51.1990 O   0  0  0  0  0  0  0  0  0  0  0  0
   58.9800   28.8770   52.5200 C   0  0  0  0  0  0  0  0  0  0  0  0
   60.2340   28.2410   52.5830 C   0  0  0  0  0  0  0  0  0  0  0  0
   60.5290   27.3540   53.6230 C   0  0  0  0  0  0  0  0  0  0  0  0
   59.5740   27.0860   54.6060 C   0  0  0  0  0  0  0  0  0  0  0  0
   58.3230   27.7020   54.5500 C   0  0  0  0  0  0  0  0  0  0  0  0
   58.0230   28.5910   53.5140 C   0  0  0  0  0  0  0  0  0  0  0  0
   58.7720   31.5670   48.6300 C   0  0  0  0  0  0  0  0  0  0  0  0
   58.8384   25.9139   48.3326 H   0  0  0  0  0  0  0  0  0  0  0  0
   60.7740   27.4777   48.5015 H   0  0  0  0  0  0  0  0  0  0  0  0
   60.9509   29.4215   46.9475 H   0  0  0  0  0  0  0  0  0  0  0  0
   59.1840   29.8173   45.2333 H   0  0  0  0  0  0  0  0  0  0  0  0
   56.2619   29.8473   41.8994 H   0  0  0  0  0  0  0  0  0  0  0  0
   57.3156   31.6731   40.5700 H   0  0  0  0  0  0  0  0  0  0  0  0
   58.5414   33.5118   41.7205 H   0  0  0  0  0  0  0  0  0  0  0  0
   58.7368   33.5218   44.2061 H   0  0  0  0  0  0  0  0  0  0  0  0
   59.2948   34.8307   47.7366 H   0  0  0  0  0  0  0  0  0  0  0  0
   60.7175   34.7397   49.7794 H   0  0  0  0  0  0  0  0  0  0  0  0
   60.9081   32.6261   51.0832 H   0  0  0  0  0  0  0  0  0  0  0  0
   60.5450   29.6920   50.3890 H   0  0  0  0  0  0  0  0  0  0  0  0
   60.9880   28.4433   51.8080 H   0  0  0  0  0  0  0  0  0  0  0  0
   61.5143   26.8669   53.6668 H   0  0  0  0  0  0  0  0  0  0  0  0
   59.8078   26.3893   55.4245 H   0  0  0  0  0  0  0  0  0  0  0  0
   57.5709   27.4873   55.3234 H   0  0  0  0  0  0  0  0  0  0  0  0
   57.0337   29.0703   53.4744 H   0  0  0  0  0  0  0  0  0  0  0  0
   58.2092   30.6754   48.3166 H   0  0  0  0  0  0  0  0  0  0  0  0
  1  2  3  0
  2  3  1  0
  3  4  2  0
  4  5  1  0
  5  6  2  0
  6  7  1  0
  7  8  2  0
  8  9  1  0
  9 10  1  0
 10 11  2  0
 10 12  1  0
 12 13  2  0
 13 14  1  0
 14 15  2  0
 15 16  1  0
 16 17  2  0
 17 18  1  0
 18 19  1  0
 19 20  2  0
 19 21  1  0
 21 22  2  0
 22 23  1  0
 23 24  2  0
 24 25  1  0
 25 26  1  0
 26 27  1  0
 27 28  2  0
 27 29  1  0
 29 30  2  0
 30 31  1  0
 31 32  2  0
 32 33  1  0
 33 34  2  0
 25 35  2  0
  8  3  1  0
 17 12  1  0
 35 21  1  0
 34 29  1  0
  4 36  1  0
  5 37  1  0
  6 38  1  0
  7 39  1  0
 13 40  1  0
 14 41  1  0
 15 42  1  0
 16 43  1  0
 22 44  1  0
 23 45  1  0
 24 46  1  0
 26 47  1  0
 30 48  1  0
 31 49  1  0
 32 50  1  0
 33 51  1  0
 34 52  1  0
 35 53  1  0
M  CHG  1   9  -1
M  END
>  <UniqueID>  (16) 
15

>  <SMILES>  (16) 
N#Cc1ccccc1[N-]C(=O)c1ccccc1OC(=O)c1cccc(NC(=O)c2ccccc2)c1

>  <Energy>  (16) 
76.10529473478643

>  <Genealogy>  (16) 
N#Cc1ccccc1[N-]C(=O)c1ccccc1OC(=O)c1cccc(NC(=O)c2ccccc2)c1 (protonated)
N#Cc1ccccc1[N-]C(=O)c1ccccc1OC(=O)c1cccc(NC(=O)c2ccccc2)c1 (3D coordinates assigned)
N#Cc1ccccc1[N-]C(=O)c1ccccc1OC(=O)c1cccc(NC(=O)c2ccccc2)c1 (optimized conformer: 76.10529473478643 kcal/mol)

>  <smiles>  (16) 
N#Cc1ccccc1NC(=O)c1ccccc1OC(=O)c1cccc(NC(=O)c2ccccc2)c1

>  <score_type>  (16) 
oracle

>  <origin>  (16) 
adg

>  <m_score__min__energy>  (16) 
-12.75

>  <m_primary>  (16) 
energy

$$$$
16:0
     RDKit          3D

 47 49  0  0  0  0  0  0  0  0999 V2000
   58.5990   32.9850   51.2460 S   0  0  0  0  0  0  0  0  0  0  0  0
   60.0830   33.5050   50.7750 C   0  0  0  0  0  0  0  0  0  0  0  0
   61.1420   33.5540   51.7410 N   0  0  0  0  0  0  0  0  0  0  0  0
   62.5350   33.8360   51.3930 C   0  0  0  0  0  0  0  0  0  0  0  0
   63.2970   32.5560   51.0150 C   0  0  0  0  0  0  0  0  0  0  0  0
   64.3240   32.7710   49.8930 C   0  0  0  0  0  0  0  0  0  0  0  0
   63.6720   32.8780   48.5900 N   0  0  0  0  0  0  0  0  0  0  0  0
   63.7240   33.9180   47.7430 C   0  0  0  0  0  0  0  0  0  0  0  0
   63.0000   33.5830   46.6200 C   0  0  0  0  0  0  0  0  0  0  0  0
   62.4990   32.3370   46.7600 N   0  0  0  0  0  0  0  0  0  0  0  0
   62.9310   31.9370   47.9730 C   0  0  0  0  0  0  0  0  0  0  0  0
   60.2640   34.0630   49.4650 N   0  0  0  0  0  0  0  0  0  0  0  0
   59.7210   33.4830   48.2650 C   0  0  0  0  0  0  0  0  0  0  0  0
   59.5780   32.0950   48.1750 C   0  0  0  0  0  0  0  0  0  0  0  0
   59.0310   31.5080   47.0310 C   0  0  0  0  0  0  0  0  0  0  0  0
   58.5910   32.2980   45.9430 C   0  0  0  0  0  0  0  0  0  0  0  0
   58.0190   31.6880   44.7450 N   0  0  0  0  0  0  0  0  0  0  0  0
   57.9420   32.4750   43.4960 C   0  0  0  0  0  0  0  0  0  0  0  0
   57.3910   31.6860   42.3060 C   0  0  0  0  0  0  0  0  0  0  0  0
   56.3510   30.8270   42.7070 O   0  0  0  0  0  0  0  0  0  0  0  0
   56.9040   29.8030   43.4980 C   0  0  0  0  0  0  0  0  0  0  0  0
   57.3940   30.3500   44.8420 C   0  0  0  0  0  0  0  0  0  0  0  0
   58.7280   33.7020   46.0570 C   0  0  0  0  0  0  0  0  0  0  0  0
   59.2770   34.2840   47.2040 C   0  0  0  0  0  0  0  0  0  0  0  0
   60.9230   33.3330   52.7400 H   0  0  0  0  0  0  0  0  0  0  0  0
   62.5558   34.5286   50.5387 H   0  0  0  0  0  0  0  0  0  0  0  0
   63.0250   34.2796   52.2723 H   0  0  0  0  0  0  0  0  0  0  0  0
   63.8256   32.1878   51.9067 H   0  0  0  0  0  0  0  0  0  0  0  0
   62.5560   31.8321   50.6450 H   0  0  0  0  0  0  0  0  0  0  0  0
   64.8827   33.6976   50.0913 H   0  0  0  0  0  0  0  0  0  0  0  0
   65.0018   31.9049   49.8720 H   0  0  0  0  0  0  0  0  0  0  0  0
   64.2508   34.8682   47.9150 H   0  0  0  0  0  0  0  0  0  0  0  0
   62.8526   34.2312   45.7436 H   0  0  0  0  0  0  0  0  0  0  0  0
   62.7040   30.9532   48.4097 H   0  0  0  0  0  0  0  0  0  0  0  0
   60.8160   34.9460   49.3800 H   0  0  0  0  0  0  0  0  0  0  0  0
   59.8993   31.4589   49.0130 H   0  0  0  0  0  0  0  0  0  0  0  0
   58.9410   30.4131   46.9754 H   0  0  0  0  0  0  0  0  0  0  0  0
   57.2877   33.3417   43.6712 H   0  0  0  0  0  0  0  0  0  0  0  0
   58.9696   32.7709   43.2381 H   0  0  0  0  0  0  0  0  0  0  0  0
   57.0055   32.3910   41.5548 H   0  0  0  0  0  0  0  0  0  0  0  0
   58.2039   31.0775   41.8830 H   0  0  0  0  0  0  0  0  0  0  0  0
   56.1372   29.0356   43.6802 H   0  0  0  0  0  0  0  0  0  0  0  0
   57.7622   29.3715   42.9620 H   0  0  0  0  0  0  0  0  0  0  0  0
   56.5340   30.4166   45.5247 H   0  0  0  0  0  0  0  0  0  0  0  0
   58.1671   29.6588   45.2089 H   0  0  0  0  0  0  0  0  0  0  0  0
   58.3970   34.3465   45.2293 H   0  0  0  0  0  0  0  0  0  0  0  0
   59.3610   35.3786   47.2740 H   0  0  0  0  0  0  0  0  0  0  0  0
  1  2  2  0
  2  3  1  0
  3  4  1  0
  4  5  1  0
  5  6  1  0
  6  7  1  0
  7  8  1  0
  8  9  2  0
  9 10  1  0
 10 11  2  0
  2 12  1  0
 12 13  1  0
 13 14  2  0
 14 15  1  0
 15 16  2  0
 16 17  1  0
 17 18  1  0
 18 19  1  0
 19 20  1  0
 20 21  1  0
 21 22  1  0
 16 23  1  0
 23 24  2  0
 11  7  1  0
 24 13  1  0
 22 17  1  0
  3 25  1  0
  4 26  1  0
  4 27  1  0
  5 28  1  0
  5 29  1  0
  6 30  1  0
  6 31  1  0
  8 32  1  0
  9 33  1  0
 11 34  1  0
 12 35  1  0
 14 36  1  0
 15 37  1  0
 18 38  1  0
 18 39  1  0
 19 40  1  0
 19 41  1  0
 21 42  1  0
 21 43  1  0
 22 44  1  0
 22 45  1  0
 23 46  1  0
 24 47  1  0
M  END
>  <UniqueID>  (17) 
16

>  <SMILES>  (17) 
S=C(NCCCn1ccnc1)Nc1ccc(N2CCOCC2)cc1

>  <Energy>  (17) 
82.59483168298875

>  <Genealogy>  (17) 
S=C(NCCCn1ccnc1)Nc1ccc(N2CCOCC2)cc1 (3D coordinates assigned)
S=C(NCCCn1ccnc1)Nc1ccc(N2CCOCC2)cc1 (nonaromatic ring conformer: 82.59483168298875 kcal/mol)

>  <smiles>  (17) 
S=C(NCCCn1ccnc1)Nc1ccc(N2CCOCC2)cc1

>  <score_type>  (17) 
oracle

>  <origin>  (17) 
adg

>  <m_score__min__energy>  (17) 
-6.7999999999999998

>  <m_primary>  (17) 
energy

$$$$
17:0
     RDKit          3D

 38 41  0  0  0  0  0  0  0  0999 V2000
   52.4436   23.8299   44.9163 H   0  0  0  0  0  0  0  0  0  0  0  0
   53.5160   24.0740   44.8990 C   0  0  0  0  0  0  0  0  0  0  0  0
   53.9870   25.1140   45.6350 N   0  0  0  0  0  0  0  0  0  0  0  0
   55.3090   25.4450   45.6540 C   0  0  0  0  0  0  0  0  0  0  0  0
   55.7410   26.4490   46.3610 N   0  0  0  0  0  0  0  0  0  0  0  0
   57.0800   26.9680   46.3600 C   0  0  0  0  0  0  0  0  0  0  0  0
   58.0130   26.2320   46.7750 O   0  0  0  0  0  0  0  0  0  0  0  0
   57.3830   28.3550   45.9490 C   0  0  0  0  0  0  0  0  0  0  0  0
   56.5440   29.2430   45.2650 C   0  0  0  0  0  0  0  0  0  0  0  0
   55.2480   28.9690   44.8410 O   0  0  0  0  0  0  0  0  0  0  0  0
   57.1490   30.4390   45.0960 N   0  0  0  0  0  0  0  0  0  0  0  0
   58.3350   30.3320   45.6980 C   0  0  0  0  0  0  0  0  0  0  0  0
   59.2640   31.3540   45.7880 C   0  0  0  0  0  0  0  0  0  0  0  0
   60.4630   31.0830   46.4780 C   0  0  0  0  0  0  0  0  0  0  0  0
   61.2216   31.8710   46.5941 H   0  0  0  0  0  0  0  0  0  0  0  0
   60.6900   29.7940   47.0220 C   0  0  0  0  0  0  0  0  0  0  0  0
   61.6348   29.5825   47.5441 H   0  0  0  0  0  0  0  0  0  0  0  0
   59.7160   28.7780   46.9010 C   0  0  0  0  0  0  0  0  0  0  0  0
   59.8847   27.7757   47.3217 H   0  0  0  0  0  0  0  0  0  0  0  0
   58.5310   29.0890   46.2290 C   0  0  0  0  0  0  0  0  0  0  0  0
   58.8950   32.7100   45.2380 C   0  0  0  0  0  0  0  0  0  0  0  0
   58.4995   33.3312   46.0551 H   0  0  0  0  0  0  0  0  0  0  0  0
   59.7983   33.1623   44.8028 H   0  0  0  0  0  0  0  0  0  0  0  0
   57.8220   32.6010   44.1240 C   0  0  0  0  0  0  0  0  0  0  0  0
   57.4312   33.6071   43.9117 H   0  0  0  0  0  0  0  0  0  0  0  0
   58.3036   32.1578   43.2399 H   0  0  0  0  0  0  0  0  0  0  0  0
   56.6400   31.6840   44.5230 C   0  0  0  0  0  0  0  0  0  0  0  0
   56.0136   32.1987   45.2665 H   0  0  0  0  0  0  0  0  0  0  0  0
   56.0418   31.4538   43.6291 H   0  0  0  0  0  0  0  0  0  0  0  0
   56.2150   24.7130   44.8780 C   0  0  0  0  0  0  0  0  0  0  0  0
   57.2835   24.9742   44.8818 H   0  0  0  0  0  0  0  0  0  0  0  0
   55.7530   23.6440   44.0950 C   0  0  0  0  0  0  0  0  0  0  0  0
   56.7160   22.8200   43.2940 C   0  0  0  0  0  0  0  0  0  0  0  0
   57.3725   22.2583   43.9748 H   0  0  0  0  0  0  0  0  0  0  0  0
   56.1571   22.1162   42.6598 H   0  0  0  0  0  0  0  0  0  0  0  0
   57.3249   23.4810   42.6598 H   0  0  0  0  0  0  0  0  0  0  0  0
   54.3910   23.3150   44.1210 C   0  0  0  0  0  0  0  0  0  0  0  0
   54.0147   22.4651   43.5327 H   0  0  0  0  0  0  0  0  0  0  0  0
  1  2  1  0
  2  3  1  0
  3  4  1  0
  4  5  2  0
  5  6  1  0
  6  7  2  0
  6  8  1  0
  8  9  2  0
  9 10  1  0
  9 11  1  0
 11 12  1  0
 12 13  2  0
 13 14  1  0
 14 15  1  0
 14 16  2  0
 16 17  1  0
 16 18  1  0
 18 19  1  0
 18 20  2  0
 13 21  1  0
 21 22  1  0
 21 23  1  0
 21 24  1  0
 24 25  1  0
 24 26  1  0
 24 27  1  0
 27 28  1  0
 27 29  1  0
  4 30  1  0
 30 31  1  0
 30 32  2  0
 32 33  1  0
 33 34  1  0
 33 35  1  0
 33 36  1  0
 32 37  1  0
 37 38  1  0
 37  2  2  0
 20  8  1  0
 27 11  1  0
 20 12  1  0
M  CHG  2   3  -1  10  -1
M  END
>  <UniqueID>  (18) 
17

>  <SMILES>  (18) 
Cc1cc[n-]/c(=N\C(=O)c2c([O-])n3c4c(cccc24)CCC3)c1

>  <Energy>  (18) 
87.15688173970025

>  <Genealogy>  (18) 
Cc1cc[n-]c(=NC(=O)c2c([O-])n3c4c(cccc24)CCC3)c1 (protonated)
Cc1cc[n-]/c(=N\C(=O)c2c([O-])n3c4c(cccc24)CCC3)c1 (cis-trans isomerization)
Cc1cc[n-]/c(=N\C(=O)c2c([O-])n3c4c(cccc24)CCC3)c1 (3D coordinates assigned)
Cc1cc[n-]/c(=N\C(=O)c2c([O-])n3c4c(cccc24)CCC3)c1 (nonaromatic ring conformer: 87.15688173970025 kcal/mol)

>  <smiles>  (18) 
Cc1cc[nH]c(=NC(=O)c2c(O)n3c4c(cccc24)CCC3)c1

>  <score_type>  (18) 
oracle

>  <origin>  (18) 
adg

>  <m_score__min__energy>  (18) 
-12.949999999999999

>  <m_primary>  (18) 
energy

$$$$
18:0
     RDKit          3D

 46 49  0  0  0  0  0  0  0  0999 V2000
   58.9794   26.5371   46.5487 H   0  0  0  0  0  0  0  0  0  0  0  0
   58.6770   27.4020   45.9400 C   0  0  0  0  0  0  0  0  0  0  0  0
   57.4860   27.9550   45.9500 O   0  0  0  0  0  0  0  0  0  0  0  0
   57.4800   28.9580   45.1010 C   0  0  0  0  0  0  0  0  0  0  0  0
   56.3150   29.8240   44.8440 C   0  0  0  0  0  0  0  0  0  0  0  0
   55.1570   29.3310   44.8900 O   0  0  0  0  0  0  0  0  0  0  0  0
   56.4670   31.2000   44.4740 N   0  0  0  0  0  0  0  0  0  0  0  0
   57.4380   32.1160   45.0000 C   0  0  0  0  0  0  0  0  0  0  0  0
   58.0480   33.0300   44.1310 C   0  0  0  0  0  0  0  0  0  0  0  0
   57.7918   33.0237   43.0613 H   0  0  0  0  0  0  0  0  0  0  0  0
   58.9810   33.9500   44.6180 C   0  0  0  0  0  0  0  0  0  0  0  0
   59.4720   34.6516   43.9276 H   0  0  0  0  0  0  0  0  0  0  0  0
   59.2910   33.9800   45.9800 C   0  0  0  0  0  0  0  0  0  0  0  0
   60.0355   34.6958   46.3586 H   0  0  0  0  0  0  0  0  0  0  0  0
   58.6550   33.1000   46.8630 C   0  0  0  0  0  0  0  0  0  0  0  0
   59.0240   33.1700   48.6180 S   0  0  0  0  0  0  0  0  0  0  0  0
   59.4840   31.4290   48.7080 C   0  0  0  0  0  0  0  0  0  0  0  0
   60.3750   30.9390   47.7420 C   0  0  0  0  0  0  0  0  0  0  0  0
   60.7855   31.6210   46.9828 H   0  0  0  0  0  0  0  0  0  0  0  0
   60.7450   29.5940   47.7360 C   0  0  0  0  0  0  0  0  0  0  0  0
   61.4436   29.2196   46.9733 H   0  0  0  0  0  0  0  0  0  0  0  0
   60.2300   28.7240   48.6960 C   0  0  0  0  0  0  0  0  0  0  0  0
   60.5208   27.6632   48.6882 H   0  0  0  0  0  0  0  0  0  0  0  0
   59.3460   29.1970   49.6670 C   0  0  0  0  0  0  0  0  0  0  0  0
   58.9459   28.5052   50.4229 H   0  0  0  0  0  0  0  0  0  0  0  0
   58.9620   30.5500   49.6880 C   0  0  0  0  0  0  0  0  0  0  0  0
   58.0110   31.0100   50.7300 C   0  0  0  0  0  0  0  0  0  0  0  0
   57.8340   32.2440   50.9050 O   0  0  0  0  0  0  0  0  0  0  0  0
   57.3780   30.0940   51.6400 N   0  0  0  0  0  0  0  0  0  0  0  0
   56.1400   30.0820   52.0560 C   0  0  0  0  0  0  0  0  0  0  0  0
   55.6120   29.0380   52.8490 C   0  0  0  0  0  0  0  0  0  0  0  0
   56.2530   28.1985   53.1563 H   0  0  0  0  0  0  0  0  0  0  0  0
   54.2730   29.0780   53.2400 C   0  0  0  0  0  0  0  0  0  0  0  0
   53.8562   28.2704   53.8598 H   0  0  0  0  0  0  0  0  0  0  0  0
   53.4650   30.1410   52.8450 C   0  0  0  0  0  0  0  0  0  0  0  0
   52.4102   30.1827   53.1543 H   0  0  0  0  0  0  0  0  0  0  0  0
   54.0080   31.1520   52.0530 C   0  0  0  0  0  0  0  0  0  0  0  0
   53.3777   31.9946   51.7324 H   0  0  0  0  0  0  0  0  0  0  0  0
   55.3140   31.1010   51.6750 N   0  0  0  0  0  0  0  0  0  0  0  0
   55.6890   31.8730   51.0770 H   0  0  0  0  0  0  0  0  0  0  0  0
   57.7330   32.1670   46.3740 C   0  0  0  0  0  0  0  0  0  0  0  0
   57.2375   31.4712   47.0671 H   0  0  0  0  0  0  0  0  0  0  0  0
   58.7220   29.0780   44.5080 C   0  0  0  0  0  0  0  0  0  0  0  0
   59.0323   29.8220   43.7595 H   0  0  0  0  0  0  0  0  0  0  0  0
   59.4910   28.0710   45.0500 C   0  0  0  0  0  0  0  0  0  0  0  0
   60.5427   27.8460   44.8192 H   0  0  0  0  0  0  0  0  0  0  0  0
  1  2  1  0
  2  3  1  0
  3  4  1  0
  4  5  1  0
  5  6  2  0
  5  7  1  0
  7  8  1  0
  8  9  2  0
  9 10  1  0
  9 11  1  0
 11 12  1  0
 11 13  2  0
 13 14  1  0
 13 15  1  0
 15 16  1  0
 16 17  1  0
 17 18  2  0
 18 19  1  0
 18 20  1  0
 20 21  1  0
 20 22  2  0
 22 23  1  0
 22 24  1  0
 24 25  1  0
 24 26  2  0
 26 27  1  0
 27 28  2  0
 27 29  1  0
 29 30  2  0
 30 31  1  0
 31 32  1  0
 31 33  2  0
 33 34  1  0
 33 35  1  0
 35 36  1  0
 35 37  2  0
 37 38  1  0
 37 39  1  0
 39 40  1  0
 15 41  2  0
 41 42  1  0
  4 43  2  0
 43 44  1  0
 43 45  1  0
 45 46  1  0
 45  2  2  0
 41  8  1  0
 26 17  1  0
 39 30  1  0
M  CHG  1   7  -1
M  END
>  <UniqueID>  (19) 
18

>  <SMILES>  (19) 
O=C([N-]c1cccc(Sc2ccccc2C(=O)/N=c2\cccc[nH]2)c1)c1ccco1

>  <Energy>  (19) 
87.72888475945457

>  <Genealogy>  (19) 
O=C([N-]c1cccc(Sc2ccccc2C(=O)N=c2cccc[nH]2)c1)c1ccco1 (protonated)
O=C([N-]c1cccc(Sc2ccccc2C(=O)/N=c2\cccc[nH]2)c1)c1ccco1 (cis-trans isomerization)
O=C([N-]c1cccc(Sc2ccccc2C(=O)/N=c2\cccc[nH]2)c1)c1ccco1 (3D coordinates assigned)
O=C([N-]c1cccc(Sc2ccccc2C(=O)/N=c2\cccc[nH]2)c1)c1ccco1 (optimized conformer: 87.72888475945457 kcal/mol)

>  <smiles>  (19) 
O=C(Nc1cccc(Sc2ccccc2C(=O)N=c2cccc[nH]2)c1)c1ccco1

>  <score_type>  (19) 
oracle

>  <origin>  (19) 
adg

>  <m_score__min__energy>  (19) 
-10.57

>  <m_primary>  (19) 
energy

$$$$
19:0
     RDKit          3D

 35 37  0  0  0  0  0  0  0  0999 V2000
   57.9690   27.5590   43.4520 C   0  0  0  0  0  0  0  0  0  0  0  0
   57.8980   27.5820   44.7910 C   0  0  0  0  0  0  0  0  0  0  0  0
   57.7160   26.5030   45.6700 C   0  0  0  0  0  0  0  0  0  0  0  0
   57.3830   25.2230   45.4190 C   0  0  0  0  0  0  0  0  0  0  0  0
   56.0390   24.6390   45.5570 C   0  0  0  0  0  0  0  0  0  0  0  0
   55.7340   23.3510   45.3110 N   0  0  0  0  0  0  0  0  0  0  0  0
   54.3890   23.3220   45.4280 C   0  0  0  0  0  0  0  0  0  0  0  0
   53.7180   22.2680   45.2810 O   0  0  0  0  0  0  0  0  0  0  0  0
   53.8180   24.5160   45.7020 N   0  0  0  0  0  0  0  0  0  0  0  0
   54.8770   25.3390   45.7650 C   0  0  0  0  0  0  0  0  0  0  0  0
   54.7810   26.7040   46.0020 O   0  0  0  0  0  0  0  0  0  0  0  0
   57.9080   26.9320   46.9360 N   0  0  0  0  0  0  0  0  0  0  0  0
   58.1500   28.2500   46.8130 C   0  0  0  0  0  0  0  0  0  0  0  0
   58.3650   28.9980   47.8040 O   0  0  0  0  0  0  0  0  0  0  0  0
   58.1460   28.6860   45.5370 N   0  0  0  0  0  0  0  0  0  0  0  0
   58.4000   30.0600   45.0820 C   0  0  0  0  0  0  0  0  0  0  0  0
   57.1100   30.7990   44.8230 C   0  0  0  0  0  0  0  0  0  0  0  0
   56.0290   30.1590   44.7340 O   0  0  0  0  0  0  0  0  0  0  0  0
   57.0610   32.2310   44.8190 N   0  0  0  0  0  0  0  0  0  0  0  0
   57.8960   33.1020   45.5890 C   0  0  0  0  0  0  0  0  0  0  0  0
   58.5890   34.1330   44.9410 C   0  0  0  0  0  0  0  0  0  0  0  0
   59.4400   34.9740   45.6650 C   0  0  0  0  0  0  0  0  0  0  0  0
   59.6210   34.7750   47.0370 C   0  0  0  0  0  0  0  0  0  0  0  0
   58.9590   33.7270   47.6830 C   0  0  0  0  0  0  0  0  0  0  0  0
   58.1070   32.8850   46.9610 C   0  0  0  0  0  0  0  0  0  0  0  0
   58.1156   28.4949   42.8928 H   0  0  0  0  0  0  0  0  0  0  0  0
   57.8806   26.6043   42.9129 H   0  0  0  0  0  0  0  0  0  0  0  0
   58.1875   24.5535   45.0804 H   0  0  0  0  0  0  0  0  0  0  0  0
   58.9698   30.5944   45.8564 H   0  0  0  0  0  0  0  0  0  0  0  0
   58.9691   30.0148   44.1417 H   0  0  0  0  0  0  0  0  0  0  0  0
   58.4632   34.2815   43.8584 H   0  0  0  0  0  0  0  0  0  0  0  0
   59.9676   35.7931   45.1544 H   0  0  0  0  0  0  0  0  0  0  0  0
   60.2836   35.4424   47.6075 H   0  0  0  0  0  0  0  0  0  0  0  0
   59.1083   33.5643   48.7606 H   0  0  0  0  0  0  0  0  0  0  0  0
   57.6008   32.0507   47.4686 H   0  0  0  0  0  0  0  0  0  0  0  0
  1  2  2  0
  2  3  1  0
  3  4  2  3
  4  5  1  0
  5  6  1  0
  6  7  1  0
  7  8  2  0
  7  9  1  0
  9 10  1  0
 10 11  1  0
  3 12  1  0
 12 13  1  0
 13 14  2  0
 13 15  1  0
 15 16  1  0
 16 17  1  0
 17 18  2  0
 17 19  1  0
 19 20  1  0
 20 21  2  0
 21 22  1  0
 22 23  2  0
 23 24  1  0
 24 25  2  0
 15  2  1  0
 25 20  1  0
 10  5  2  0
  1 26  1  0
  1 27  1  0
  4 28  1  0
 16 29  1  0
 16 30  1  0
 21 31  1  0
 22 32  1  0
 23 33  1  0
 24 34  1  0
 25 35  1  0
M  CHG  5   6  -1   9  -1  11  -1  12  -1  19  -1
M  END
>  <UniqueID>  (20) 
19

>  <SMILES>  (20) 
C=c1c(=Cc2[n-]c(=O)[n-]c2[O-])[n-]c(=O)n1CC(=O)[N-]c1ccccc1

>  <Energy>  (20) 
116.77918178879824

>  <Genealogy>  (20) 
C=c1c(=Cc2[n-]c(=O)[n-]c2[O-])[n-]c(=O)n1CC(=O)[N-]c1ccccc1 (protonated)
C=c1c(=Cc2[n-]c(=O)[n-]c2[O-])[n-]c(=O)n1CC(=O)[N-]c1ccccc1 (3D coordinates assigned)
C=c1c(=Cc2[n-]c(=O)[n-]c2[O-])[n-]c(=O)n1CC(=O)[N-]c1ccccc1 (optimized conformer: 116.77918178879824 kcal/mol)

>  <smiles>  (20) 
C=c1c(=Cc2[nH]c(=O)[nH]c2O)[nH]c(=O)n1CC(=O)Nc1ccccc1

>  <score_type>  (20) 
oracle

>  <origin>  (20) 
adg

>  <m_score__min__energy>  (20) 
-17.68

>  <m_primary>  (20) 
energy

$$$$
20:0
     RDKit          3D

 55 58  0  0  0  0  0  0  0  0999 V2000
   53.9900   29.6270   52.4120 C   0  0  0  0  0  0  0  0  0  0  0  0
   55.3710   30.0530   52.2220 N   0  0  0  0  0  0  0  0  0  0  0  0
   55.7700   31.2940   51.8850 C   0  0  0  0  0  0  0  0  0  0  0  0
   57.1420   31.2960   51.8800 C   0  0  0  0  0  0  0  0  0  0  0  0
   57.9810   32.4010   51.5250 N   0  0  0  0  0  0  0  0  0  0  0  0
   58.9060   32.4180   50.4300 C   0  0  0  0  0  0  0  0  0  0  0  0
   59.3220   33.5280   50.0060 O   0  0  0  0  0  0  0  0  0  0  0  0
   59.4300   31.1660   49.8390 C   0  0  0  0  0  0  0  0  0  0  0  0
   58.6440   30.1510   49.3210 C   0  0  0  0  0  0  0  0  0  0  0  0
   59.5200   29.1980   48.8500 C   0  0  0  0  0  0  0  0  0  0  0  0
   59.1130   28.0190   48.1470 N   0  0  0  0  0  0  0  0  0  0  0  0
   59.6140   27.5440   46.8920 C   0  0  0  0  0  0  0  0  0  0  0  0
   60.6690   26.8550   46.8410 O   0  0  0  0  0  0  0  0  0  0  0  0
   58.9290   27.9360   45.6430 C   0  0  0  0  0  0  0  0  0  0  0  0
   58.9030   27.0640   44.5400 C   0  0  0  0  0  0  0  0  0  0  0  0
   58.1420   27.3760   43.4080 C   0  0  0  0  0  0  0  0  0  0  0  0
   57.3830   28.5470   43.3760 C   0  0  0  0  0  0  0  0  0  0  0  0
   57.4060   29.4270   44.4640 C   0  0  0  0  0  0  0  0  0  0  0  0
   56.5100   30.5900   44.4890 C   0  0  0  0  0  0  0  0  0  0  0  0
   55.2660   30.4100   44.5160 O   0  0  0  0  0  0  0  0  0  0  0  0
   57.0270   31.9280   44.4750 N   0  0  0  0  0  0  0  0  0  0  0  0
   57.1050   32.8150   45.6350 C   0  0  0  0  0  0  0  0  0  0  0  0
   58.5320   33.0510   46.0560 C   0  0  0  0  0  0  0  0  0  0  0  0
   59.3770   31.9660   46.3390 C   0  0  0  0  0  0  0  0  0  0  0  0
   60.6930   32.1850   46.7590 C   0  0  0  0  0  0  0  0  0  0  0  0
   61.1780   33.4910   46.8920 C   0  0  0  0  0  0  0  0  0  0  0  0
   62.8200   33.7640   47.4420 Cl  0  0  0  0  0  0  0  0  0  0  0  0
   60.3500   34.5750   46.5890 C   0  0  0  0  0  0  0  0  0  0  0  0
   59.0350   34.3580   46.1680 C   0  0  0  0  0  0  0  0  0  0  0  0
   58.2040   29.1380   45.5800 C   0  0  0  0  0  0  0  0  0  0  0  0
   60.8050   29.6440   49.1080 C   0  0  0  0  0  0  0  0  0  0  0  0
   60.7400   30.8470   49.7160 N   0  0  0  0  0  0  0  0  0  0  0  0
   61.8890   31.6510   50.1210 C   0  0  0  0  0  0  0  0  0  0  0  0
   57.5290   30.0090   52.2130 C   0  0  0  0  0  0  0  0  0  0  0  0
   56.4210   29.2730   52.4300 N   0  0  0  0  0  0  0  0  0  0  0  0
   53.7718   29.5597   53.4880 H   0  0  0  0  0  0  0  0  0  0  0  0
   53.3133   30.3582   51.9457 H   0  0  0  0  0  0  0  0  0  0  0  0
   53.8428   28.6417   51.9457 H   0  0  0  0  0  0  0  0  0  0  0  0
   55.1165   32.1487   51.6559 H   0  0  0  0  0  0  0  0  0  0  0  0
   57.5450   30.1132   49.2915 H   0  0  0  0  0  0  0  0  0  0  0  0
   59.4846   26.1307   44.5673 H   0  0  0  0  0  0  0  0  0  0  0  0
   58.1419   26.6975   42.5422 H   0  0  0  0  0  0  0  0  0  0  0  0
   56.7663   28.7783   42.4950 H   0  0  0  0  0  0  0  0  0  0  0  0
   56.6440   33.7802   45.3783 H   0  0  0  0  0  0  0  0  0  0  0  0
   56.5737   32.3366   46.4710 H   0  0  0  0  0  0  0  0  0  0  0  0
   59.0018   30.9377   46.2298 H   0  0  0  0  0  0  0  0  0  0  0  0
   61.3473   31.3301   46.9849 H   0  0  0  0  0  0  0  0  0  0  0  0
   60.7340   35.6016   46.6820 H   0  0  0  0  0  0  0  0  0  0  0  0
   58.3905   35.2151   45.9231 H   0  0  0  0  0  0  0  0  0  0  0  0
   58.2628   29.8563   46.4110 H   0  0  0  0  0  0  0  0  0  0  0  0
   61.7303   29.1044   48.8576 H   0  0  0  0  0  0  0  0  0  0  0  0
   61.9419   31.6880   51.2191 H   0  0  0  0  0  0  0  0  0  0  0  0
   62.8104   31.1996   49.7245 H   0  0  0  0  0  0  0  0  0  0  0  0
   61.7806   32.6713   49.7245 H   0  0  0  0  0  0  0  0  0  0  0  0
   58.5655   29.6482   52.2878 H   0  0  0  0  0  0  0  0  0  0  0  0
  1  2  1  0
  2  3  1  0
  3  4  2  0
  4  5  1  0
  5  6  1  0
  6  7  2  0
  6  8  1  0
  8  9  2  0
  9 10  1  0
 10 11  1  0
 11 12  1  0
 12 13  2  0
 12 14  1  0
 14 15  2  0
 15 16  1  0
 16 17  2  0
 17 18  1  0
 18 19  1  0
 19 20  2  0
 19 21  1  0
 21 22  1  0
 22 23  1  0
 23 24  2  0
 24 25  1  0
 25 26  2  0
 26 27  1  0
 26 28  1  0
 28 29  2  0
 18 30  2  0
 10 31  2  0
 31 32  1  0
 32 33  1  0
  4 34  1  0
 34 35  2  0
 35  2  1  0
 32  8  1  0
 30 14  1  0
 29 23  1  0
  1 36  1  0
  1 37  1  0
  1 38  1  0
  3 39  1  0
  9 40  1  0
 15 41  1  0
 16 42  1  0
 17 43  1  0
 22 44  1  0
 22 45  1  0
 24 46  1  0
 25 47  1  0
 28 48  1  0
 29 49  1  0
 30 50  1  0
 31 51  1  0
 33 52  1  0
 33 53  1  0
 33 54  1  0
 34 55  1  0
M  CHG  3   5  -1  11  -1  21  -1
M  END
>  <UniqueID>  (21) 
20

>  <SMILES>  (21) 
Cn1cc([N-]C(=O)c2cc([N-]C(=O)c3cccc(C(=O)[N-]Cc4ccc(Cl)cc4)c3)cn2C)cn1

>  <Energy>  (21) 
124.81838937258772

>  <Genealogy>  (21) 
Cn1cc([N-]C(=O)c2cc([N-]C(=O)c3cccc(C(=O)[N-]Cc4ccc(Cl)cc4)c3)cn2C)cn1 (protonated)
Cn1cc([N-]C(=O)c2cc([N-]C(=O)c3cccc(C(=O)[N-]Cc4ccc(Cl)cc4)c3)cn2C)cn1 (3D coordinates assigned)
Cn1cc([N-]C(=O)c2cc([N-]C(=O)c3cccc(C(=O)[N-]Cc4ccc(Cl)cc4)c3)cn2C)cn1 (optimized conformer: 124.81838937258772 kcal/mol)

>  <smiles>  (21) 
Cn1cc(NC(=O)c2cc(NC(=O)c3cccc(C(=O)NCc4ccc(Cl)cc4)c3)cn2C)cn1

>  <score_type>  (21) 
oracle

>  <origin>  (21) 
adg

>  <m_score__min__energy>  (21) 
-14.029999999999999

>  <m_primary>  (21) 
energy

$$$$
21:0
     RDKit          3D

 57 60  0  0  0  0  0  0  0  0999 V2000
   66.8680   30.1550   52.0760 C   0  0  0  0  0  0  0  0  0  0  0  0
   66.7400   31.3970   51.3180 N   0  0  0  0  0  0  0  0  0  0  0  0
   67.6770   32.3680   51.2370 C   0  0  0  0  0  0  0  0  0  0  0  0
   67.1920   33.4270   50.4950 C   0  0  0  0  0  0  0  0  0  0  0  0
   65.9050   33.0870   50.1110 C   0  0  0  0  0  0  0  0  0  0  0  0
   65.6560   31.8290   50.6320 C   0  0  0  0  0  0  0  0  0  0  0  0
   64.3460   31.0880   50.5090 C   0  0  0  0  0  0  0  0  0  0  0  0
   63.4880   31.2630   51.7090 N   0  0  0  0  0  0  0  0  0  0  0  0
   63.4940   32.6710   52.2070 C   0  0  0  0  0  0  0  0  0  0  0  0
   62.2460   33.4850   51.8030 C   0  0  0  0  0  0  0  0  0  0  0  0
   61.7170   33.0180   50.5210 N   0  0  0  0  0  0  0  0  0  0  0  0
   61.6780   33.9050   49.3790 C   0  0  0  0  0  0  0  0  0  0  0  0
   62.5210   34.8380   49.2900 O   0  0  0  0  0  0  0  0  0  0  0  0
   60.6980   33.7240   48.2850 C   0  0  0  0  0  0  0  0  0  0  0  0
   59.3480   33.4650   48.5670 C   0  0  0  0  0  0  0  0  0  0  0  0
   58.4280   33.2940   47.5280 C   0  0  0  0  0  0  0  0  0  0  0  0
   58.8370   33.4190   46.1950 C   0  0  0  0  0  0  0  0  0  0  0  0
   57.6620   33.2180   44.9000 S   0  0  0  0  0  0  0  0  0  0  0  0
   56.6400   34.3140   45.0080 O   0  0  0  0  0  0  0  0  0  0  0  0
   58.3200   33.3200   43.5500 O   0  0  0  0  0  0  0  0  0  0  0  0
   56.8650   31.6870   45.0670 N   0  0  0  0  0  0  0  0  0  0  0  0
   57.4960   30.4030   44.9910 C   0  0  0  0  0  0  0  0  0  0  0  0
   58.8950   30.2620   44.9710 C   0  0  0  0  0  0  0  0  0  0  0  0
   59.4690   28.9870   44.9430 C   0  0  0  0  0  0  0  0  0  0  0  0
   58.6590   27.8450   44.9290 C   0  0  0  0  0  0  0  0  0  0  0  0
   57.2700   27.9780   44.9160 C   0  0  0  0  0  0  0  0  0  0  0  0
   56.6910   29.2540   44.9480 C   0  0  0  0  0  0  0  0  0  0  0  0
   55.3400   29.3660   44.9560 F   0  0  0  0  0  0  0  0  0  0  0  0
   60.1790   33.7090   45.9090 C   0  0  0  0  0  0  0  0  0  0  0  0
   61.1030   33.8620   46.9480 C   0  0  0  0  0  0  0  0  0  0  0  0
   61.3980   31.5920   50.3780 C   0  0  0  0  0  0  0  0  0  0  0  0
   62.1160   30.7630   51.4580 C   0  0  0  0  0  0  0  0  0  0  0  0
   66.8450   30.3786   53.1528 H   0  0  0  0  0  0  0  0  0  0  0  0
   66.0343   29.4835   51.8230 H   0  0  0  0  0  0  0  0  0  0  0  0
   67.8211   29.6676   51.8230 H   0  0  0  0  0  0  0  0  0  0  0  0
   68.6766   32.3216   51.6939 H   0  0  0  0  0  0  0  0  0  0  0  0
   67.7242   34.3594   50.2554 H   0  0  0  0  0  0  0  0  0  0  0  0
   65.2156   33.6976   49.5095 H   0  0  0  0  0  0  0  0  0  0  0  0
   63.8058   31.4670   49.6289 H   0  0  0  0  0  0  0  0  0  0  0  0
   64.5722   30.0162   50.4087 H   0  0  0  0  0  0  0  0  0  0  0  0
   63.8770   30.6560   52.4720 H   0  0  0  0  0  0  0  0  0  0  0  0
   63.5522   32.6493   53.3052 H   0  0  0  0  0  0  0  0  0  0  0  0
   64.3608   33.1678   51.7467 H   0  0  0  0  0  0  0  0  0  0  0  0
   61.4728   33.3685   52.5767 H   0  0  0  0  0  0  0  0  0  0  0  0
   62.5304   34.5430   51.7041 H   0  0  0  0  0  0  0  0  0  0  0  0
   59.0114   33.3961   49.6120 H   0  0  0  0  0  0  0  0  0  0  0  0
   57.3783   33.0602   47.7591 H   0  0  0  0  0  0  0  0  0  0  0  0
   59.5379   31.1546   44.9774 H   0  0  0  0  0  0  0  0  0  0  0  0
   60.5638   28.8807   44.9319 H   0  0  0  0  0  0  0  0  0  0  0  0
   59.1168   26.8448   44.9283 H   0  0  0  0  0  0  0  0  0  0  0  0
   56.6309   27.0834   44.8807 H   0  0  0  0  0  0  0  0  0  0  0  0
   60.5060   33.8165   44.8643 H   0  0  0  0  0  0  0  0  0  0  0  0
   62.1534   34.0919   46.7160 H   0  0  0  0  0  0  0  0  0  0  0  0
   60.3115   31.4531   50.4791 H   0  0  0  0  0  0  0  0  0  0  0  0
   61.7358   31.2516   49.3880 H   0  0  0  0  0  0  0  0  0  0  0  0
   61.5392   30.8192   52.3930 H   0  0  0  0  0  0  0  0  0  0  0  0
   62.1886   29.7247   51.1022 H   0  0  0  0  0  0  0  0  0  0  0  0
  1  2  1  0
  2  3  1  0
  3  4  2  0
  4  5  1  0
  5  6  2  0
  6  7  1  0
  7  8  1  0
  8  9  1  0
  9 10  1  0
 10 11  1  0
 11 12  1  0
 12 13  2  0
 12 14  1  0
 14 15  2  0
 15 16  1  0
 16 17  2  0
 17 18  1  0
 18 19  2  0
 18 20  2  0
 18 21  1  0
 21 22  1  0
 22 23  2  0
 23 24  1  0
 24 25  2  0
 25 26  1  0
 26 27  2  0
 27 28  1  0
 17 29  1  0
 29 30  2  0
 11 31  1  0
 31 32  1  0
  6  2  1  0
 32  8  1  0
 30 14  1  0
 27 22  1  0
  1 33  1  0
  1 34  1  0
  1 35  1  0
  3 36  1  0
  4 37  1  0
  5 38  1  0
  7 39  1  0
  7 40  1  0
  8 41  1  0
  9 42  1  0
  9 43  1  0
 10 44  1  0
 10 45  1  0
 15 46  1  0
 16 47  1  0
 23 48  1  0
 24 49  1  0
 25 50  1  0
 26 51  1  0
 29 52  1  0
 30 53  1  0
 31 54  1  0
 31 55  1  0
 32 56  1  0
 32 57  1  0
M  CHG  2   8   1  21  -1
M  END
>  <UniqueID>  (22) 
21

>  <SMILES>  (22) 
Cn1cccc1C[NH+]1CCN(C(=O)c2ccc(S(=O)(=O)[N-]c3ccccc3F)cc2)CC1

>  <Energy>  (22) 
103.3658294936428

>  <Genealogy>  (22) 
Cn1cccc1C[NH+]1CCN(C(=O)c2ccc(S(=O)(=O)[N-]c3ccccc3F)cc2)CC1 (protonated)
Cn1cccc1C[NH+]1CCN(C(=O)c2ccc(S(=O)(=O)[N-]c3ccccc3F)cc2)CC1 (3D coordinates assigned)
Cn1cccc1C[NH+]1CCN(C(=O)c2ccc(S(=O)(=O)[N-]c3ccccc3F)cc2)CC1 (nonaromatic ring conformer: 103.3658294936428 kcal/mol)

>  <smiles>  (22) 
Cn1cccc1CN1CCN(C(=O)c2ccc(S(=O)(=O)Nc3ccccc3F)cc2)CC1

>  <score_type>  (22) 
oracle

>  <origin>  (22) 
adg

>  <m_score__min__energy>  (22) 
-9.2799999999999994

>  <m_primary>  (22) 
energy

$$$$
22:0
     RDKit          3D

 58 61  0  0  0  0  0  0  0  0999 V2000
   60.0179   24.8220   46.2709 H   0  0  0  0  0  0  0  0  0  0  0  0
   58.9880   24.8030   45.8850 C   0  0  0  0  0  0  0  0  0  0  0  0
   58.1600   25.9170   46.0490 C   0  0  0  0  0  0  0  0  0  0  0  0
   58.5336   26.8027   46.5838 H   0  0  0  0  0  0  0  0  0  0  0  0
   56.8500   25.9110   45.5330 C   0  0  0  0  0  0  0  0  0  0  0  0
   55.9790   27.0430   45.6710 N   0  0  0  0  0  0  0  0  0  0  0  0
   56.2670   28.3900   45.2740 C   0  0  0  0  0  0  0  0  0  0  0  0
   55.4810   28.9630   44.4730 O   0  0  0  0  0  0  0  0  0  0  0  0
   57.4830   29.1010   45.7280 C   0  0  0  0  0  0  0  0  0  0  0  0
   58.0380   30.1260   44.9260 C   0  0  0  0  0  0  0  0  0  0  0  0
   57.5564   30.3927   43.9737 H   0  0  0  0  0  0  0  0  0  0  0  0
   59.1980   30.8070   45.3330 C   0  0  0  0  0  0  0  0  0  0  0  0
   59.6214   31.6108   44.7128 H   0  0  0  0  0  0  0  0  0  0  0  0
   59.8040   30.4460   46.5380 C   0  0  0  0  0  0  0  0  0  0  0  0
   60.9260   31.0270   47.0360 N   0  0  0  0  0  0  0  0  0  0  0  0
   61.2760   30.4670   48.2200 C   0  0  0  0  0  0  0  0  0  0  0  0
   62.3140   30.8700   48.8860 N   0  0  0  0  0  0  0  0  0  0  0  0
   62.2930   31.6450   50.1330 C   0  0  0  0  0  0  0  0  0  0  0  0
   62.8818   31.1237   50.9021 H   0  0  0  0  0  0  0  0  0  0  0  0
   60.8500   31.7770   50.6520 C   0  0  0  0  0  0  0  0  0  0  0  0
   60.8548   32.3524   51.5895 H   0  0  0  0  0  0  0  0  0  0  0  0
   60.4429   30.7697   50.8241 H   0  0  0  0  0  0  0  0  0  0  0  0
   59.9650   32.4980   49.6220 C   0  0  0  0  0  0  0  0  0  0  0  0
   59.0631   32.8765   50.1253 H   0  0  0  0  0  0  0  0  0  0  0  0
   59.6946   31.7825   48.8314 H   0  0  0  0  0  0  0  0  0  0  0  0
   60.6800   33.6240   49.0080 N   0  0  0  0  0  0  0  0  0  0  0  0
   60.0770   34.2890   47.8890 C   0  0  0  0  0  0  0  0  0  0  0  0
   59.0530   35.0030   48.0760 O   0  0  0  0  0  0  0  0  0  0  0  0
   60.5990   34.1140   46.5570 N   0  0  0  0  0  0  0  0  0  0  0  0
   61.9870   33.6780   46.3540 C   0  0  0  0  0  0  0  0  0  0  0  0
   62.4702   33.5262   47.3305 H   0  0  0  0  0  0  0  0  0  0  0  0
   61.9959   32.7338   45.7898 H   0  0  0  0  0  0  0  0  0  0  0  0
   62.5343   34.4475   45.7898 H   0  0  0  0  0  0  0  0  0  0  0  0
   59.7200   34.3470   45.4070 C   0  0  0  0  0  0  0  0  0  0  0  0
   58.7138   34.6137   45.7627 H   0  0  0  0  0  0  0  0  0  0  0  0
   60.1235   35.1692   44.7978 H   0  0  0  0  0  0  0  0  0  0  0  0
   59.6632   33.4329   44.7978 H   0  0  0  0  0  0  0  0  0  0  0  0
   61.8910   34.1570   49.6360 C   0  0  0  0  0  0  0  0  0  0  0  0
   61.6241   34.6182   50.5983 H   0  0  0  0  0  0  0  0  0  0  0  0
   62.3363   34.9032   48.9616 H   0  0  0  0  0  0  0  0  0  0  0  0
   62.9240   33.0380   49.8820 C   0  0  0  0  0  0  0  0  0  0  0  0
   63.5256   33.3094   50.7620 H   0  0  0  0  0  0  0  0  0  0  0  0
   63.5284   32.9545   48.9667 H   0  0  0  0  0  0  0  0  0  0  0  0
   60.2120   29.2260   48.6900 S   0  0  0  0  0  0  0  0  0  0  0  0
   59.2660   29.4330   47.3160 C   0  0  0  0  0  0  0  0  0  0  0  0
   58.1150   28.7460   46.9410 C   0  0  0  0  0  0  0  0  0  0  0  0
   57.7066   27.9449   47.5746 H   0  0  0  0  0  0  0  0  0  0  0  0
   56.3640   24.7570   44.8990 C   0  0  0  0  0  0  0  0  0  0  0  0
   55.3306   24.7323   44.5229 H   0  0  0  0  0  0  0  0  0  0  0  0
   57.1930   23.6330   44.7430 C   0  0  0  0  0  0  0  0  0  0  0  0
   56.5980   22.1810   43.9410 S   0  0  0  0  0  0  0  0  0  0  0  0
   55.6150   21.4600   44.8230 O   0  0  0  0  0  0  0  0  0  0  0  0
   55.9080   22.5700   42.6620 O   0  0  0  0  0  0  0  0  0  0  0  0
   57.9220   21.1210   43.5950 N   0  0  0  0  0  0  0  0  0  0  0  0
   58.4080   20.9380   44.4980 H   0  0  0  0  0  0  0  0  0  0  0  0
   57.5120   20.2110   43.2860 H   0  0  0  0  0  0  0  0  0  0  0  0
   58.5080   23.6650   45.2310 C   0  0  0  0  0  0  0  0  0  0  0  0
   59.1633   22.7915   45.0984 H   0  0  0  0  0  0  0  0  0  0  0  0
  1  2  1  0
  2  3  2  0
  3  4  1  0
  3  5  1  0
  5  6  1  0
  6  7  1  0
  7  8  2  0
  7  9  1  0
  9 10  2  0
 10 11  1  0
 10 12  1  0
 12 13  1  0
 12 14  2  0
 14 15  1  0
 15 16  1  0
 16 17  2  0
 17 18  1  0
 18 19  1  0
 18 20  1  0
 20 21  1  0
 20 22  1  0
 20 23  1  0
 23 24  1  0
 23 25  1  0
 23 26  1  0
 26 27  1  0
 27 28  2  0
 27 29  1  0
 29 30  1  0
 30 31  1  0
 30 32  1  0
 30 33  1  0
 29 34  1  0
 34 35  1  0
 34 36  1  0
 34 37  1  0
 26 38  1  0
 38 39  1  0
 38 40  1  0
 38 41  1  0
 41 42  1  0
 41 43  1  0
 16 44  1  0
 44 45  1  0
 45 46  2  0
 46 47  1  0
  5 48  2  0
 48 49  1  0
 48 50  1  0
 50 51  1  0
 51 52  2  0
 51 53  2  0
 51 54  1  0
 54 55  1  0
 54 56  1  0
 50 57  2  0
 57 58  1  0
 57  2  1  0
 46  9  1  0
 45 14  1  0
 41 18  1  0
M  CHG  2   6  -1  15  -1
M  END
>  <UniqueID>  (23) 
22

>  <SMILES>  (23) 
CN(C)C(=O)N1CCC(/N=c2/[n-]c3ccc(C(=O)[N-]c4cccc(S(N)(=O)=O)c4)cc3s2)CC1

>  <Energy>  (23) 
106.92051884627801

>  <Genealogy>  (23) 
CN(C)C(=O)N1CCC(N=c2[n-]c3ccc(C(=O)[N-]c4cccc(S(N)(=O)=O)c4)cc3s2)CC1 (protonated)
CN(C)C(=O)N1CCC(/N=c2/[n-]c3ccc(C(=O)[N-]c4cccc(S(N)(=O)=O)c4)cc3s2)CC1 (cis-trans isomerization)
CN(C)C(=O)N1CCC(/N=c2/[n-]c3ccc(C(=O)[N-]c4cccc(S(N)(=O)=O)c4)cc3s2)CC1 (3D coordinates assigned)
CN(C)C(=O)N1CCC(/N=c2/[n-]c3ccc(C(=O)[N-]c4cccc(S(N)(=O)=O)c4)cc3s2)CC1 (nonaromatic ring conformer: 106.92051884627801 kcal/mol)

>  <smiles>  (23) 
CN(C)C(=O)N1CCC(N=c2[nH]c3ccc(C(=O)Nc4cccc(S(N)(=O)=O)c4)cc3s2)CC1

>  <score_type>  (23) 
oracle

>  <origin>  (23) 
adg

>  <m_score__min__energy>  (23) 
-12.42

>  <m_primary>  (23) 
energy

$$$$
23:0
     RDKit          3D

 39 41  0  0  0  0  0  0  0  0999 V2000
   58.1570   34.0300   46.4490 C   0  0  0  0  0  0  0  0  0  0  0  0
   59.4090   33.7910   45.8150 O   0  0  0  0  0  0  0  0  0  0  0  0
   60.4990   33.1420   46.4190 C   0  0  0  0  0  0  0  0  0  0  0  0
   61.6700   33.8380   46.7790 C   0  0  0  0  0  0  0  0  0  0  0  0
   62.7570   33.1560   47.3290 C   0  0  0  0  0  0  0  0  0  0  0  0
   62.6940   31.7770   47.5230 C   0  0  0  0  0  0  0  0  0  0  0  0
   61.5360   31.0760   47.1780 C   0  0  0  0  0  0  0  0  0  0  0  0
   60.4270   31.7500   46.6480 C   0  0  0  0  0  0  0  0  0  0  0  0
   59.2540   30.9960   46.3020 N   0  0  0  0  0  0  0  0  0  0  0  0
   59.3110   29.7000   45.6910 C   0  0  0  0  0  0  0  0  0  0  0  0
   60.3530   29.3420   45.0760 O   0  0  0  0  0  0  0  0  0  0  0  0
   58.1480   28.7940   45.7130 C   0  0  0  0  0  0  0  0  0  0  0  0
   58.0990   27.3520   46.5840 S   0  0  0  0  0  0  0  0  0  0  0  0
   56.5310   26.9990   46.1070 C   0  0  0  0  0  0  0  0  0  0  0  0
   55.8930   25.9290   46.4770 N   0  0  0  0  0  0  0  0  0  0  0  0
   55.1330   25.0570   45.6230 C   0  0  0  0  0  0  0  0  0  0  0  0
   53.8740   25.0910   45.6160 O   0  0  0  0  0  0  0  0  0  0  0  0
   55.8310   24.1140   44.7410 C   0  0  0  0  0  0  0  0  0  0  0  0
   57.1900   23.8740   44.7210 C   0  0  0  0  0  0  0  0  0  0  0  0
   57.3830   22.9220   43.7430 C   0  0  0  0  0  0  0  0  0  0  0  0
   56.1320   22.6420   43.2280 C   0  0  0  0  0  0  0  0  0  0  0  0
   55.2280   23.3690   43.8440 O   0  0  0  0  0  0  0  0  0  0  0  0
   56.0160   27.9560   45.3050 N   0  0  0  0  0  0  0  0  0  0  0  0
   56.9020   28.9660   45.0880 C   0  0  0  0  0  0  0  0  0  0  0  0
   56.5160   30.1560   44.2630 C   0  0  0  0  0  0  0  0  0  0  0  0
   58.2882   34.0050   47.5409 H   0  0  0  0  0  0  0  0  0  0  0  0
   57.7761   35.0171   46.1480 H   0  0  0  0  0  0  0  0  0  0  0  0
   57.4393   33.2526   46.1480 H   0  0  0  0  0  0  0  0  0  0  0  0
   61.7281   34.9257   46.6257 H   0  0  0  0  0  0  0  0  0  0  0  0
   63.6658   33.7084   47.6101 H   0  0  0  0  0  0  0  0  0  0  0  0
   63.5557   31.2411   47.9475 H   0  0  0  0  0  0  0  0  0  0  0  0
   61.4940   29.9865   47.3234 H   0  0  0  0  0  0  0  0  0  0  0  0
   58.3320   31.4870   46.3190 H   0  0  0  0  0  0  0  0  0  0  0  0
   57.9580   24.3439   45.3530 H   0  0  0  0  0  0  0  0  0  0  0  0
   58.3399   22.4754   43.4348 H   0  0  0  0  0  0  0  0  0  0  0  0
   55.9246   21.9201   42.4244 H   0  0  0  0  0  0  0  0  0  0  0  0
   56.2454   30.9902   44.9269 H   0  0  0  0  0  0  0  0  0  0  0  0
   57.3640   30.4527   43.6282 H   0  0  0  0  0  0  0  0  0  0  0  0
   55.6553   29.8985   43.6282 H   0  0  0  0  0  0  0  0  0  0  0  0
  1  2  1  0
  2  3  1  0
  3  4  2  0
  4  5  1  0
  5  6  2  0
  6  7  1  0
  7  8  2  0
  8  9  1  0
  9 10  1  0
 10 11  2  0
 10 12  1  0
 12 13  1  0
 13 14  1  0
 14 15  2  3
 15 16  1  0
 16 17  2  0
 16 18  1  0
 18 19  2  0
 19 20  1  0
 20 21  2  0
 21 22  1  0
 14 23  1  0
 23 24  1  0
 24 25  1  0
  8  3  1  0
 24 12  2  0
 22 18  1  0
  1 26  1  0
  1 27  1  0
  1 28  1  0
  4 29  1  0
  5 30  1  0
  6 31  1  0
  7 32  1  0
  9 33  1  0
 19 34  1  0
 20 35  1  0
 21 36  1  0
 25 37  1  0
 25 38  1  0
 25 39  1  0
M  CHG  1  23  -1
M  END
>  <UniqueID>  (24) 
23

>  <SMILES>  (24) 
COc1ccccc1NC(=O)c1sc(=NC(=O)c2ccco2)[n-]c1C

>  <Energy>  (24) 
103.42900198979106

>  <Genealogy>  (24) 
COc1ccccc1NC(=O)c1sc(=NC(=O)c2ccco2)[n-]c1C (protonated)
COc1ccccc1NC(=O)c1sc(=NC(=O)c2ccco2)[n-]c1C (3D coordinates assigned)
COc1ccccc1NC(=O)c1sc(=NC(=O)c2ccco2)[n-]c1C (optimized conformer: 103.42900198979106 kcal/mol)

>  <smiles>  (24) 
COc1ccccc1NC(=O)c1sc(=NC(=O)c2ccco2)[nH]c1C

>  <score_type>  (24) 
oracle

>  <origin>  (24) 
adg

>  <m_score__min__energy>  (24) 
-8.8699999999999992

>  <m_primary>  (24) 
energy

$$$$
24:0
     RDKit          3D

 55 58  0  0  0  0  0  0  0  0999 V2000
   58.5680   21.9880   44.5160 C   0  0  0  0  0  0  0  0  0  0  0  0
   58.0200   21.3420   45.7860 C   0  0  0  0  0  0  0  0  0  0  0  0
   57.7070   22.3370   46.7630 O   0  0  0  0  0  0  0  0  0  0  0  0
   57.1920   23.6170   46.4910 C   0  0  0  0  0  0  0  0  0  0  0  0
   55.9320   23.8240   45.8940 C   0  0  0  0  0  0  0  0  0  0  0  0
   55.4870   25.1200   45.6150 C   0  0  0  0  0  0  0  0  0  0  0  0
   56.2840   26.2310   45.9470 C   0  0  0  0  0  0  0  0  0  0  0  0
   55.8960   27.5810   45.6390 N   0  0  0  0  0  0  0  0  0  0  0  0
   56.6060   28.5460   44.8530 C   0  0  0  0  0  0  0  0  0  0  0  0
   56.2950   29.7660   44.8860 O   0  0  0  0  0  0  0  0  0  0  0  0
   57.7620   28.1000   44.0190 C   0  0  0  0  0  0  0  0  0  0  0  0
   59.3440   28.4420   44.8670 S   0  0  0  0  0  0  0  0  0  0  0  0
   58.9540   30.1580   45.2350 C   0  0  0  0  0  0  0  0  0  0  0  0
   58.8480   31.0980   44.2580 N   0  0  0  0  0  0  0  0  0  0  0  0
   58.5770   32.2120   44.9580 C   0  0  0  0  0  0  0  0  0  0  0  0
   58.4130   33.4580   44.4520 N   0  0  0  0  0  0  0  0  0  0  0  0
   58.1850   34.4960   45.3120 C   0  0  0  0  0  0  0  0  0  0  0  0
   58.1360   34.2750   46.7080 C   0  0  0  0  0  0  0  0  0  0  0  0
   58.3170   32.9770   47.2170 C   0  0  0  0  0  0  0  0  0  0  0  0
   58.5310   31.9570   46.2910 C   0  0  0  0  0  0  0  0  0  0  0  0
   58.7660   30.6500   46.4910 N   0  0  0  0  0  0  0  0  0  0  0  0
   58.9350   29.9610   47.7740 C   0  0  0  0  0  0  0  0  0  0  0  0
   60.2290   30.3730   48.4100 C   0  0  0  0  0  0  0  0  0  0  0  0
   60.3390   30.3530   49.6650 O   0  0  0  0  0  0  0  0  0  0  0  0
   61.3470   30.7400   47.5910 N   0  0  0  0  0  0  0  0  0  0  0  0
   62.3610   31.6820   47.9900 C   0  0  0  0  0  0  0  0  0  0  0  0
   63.0510   31.4780   49.1960 C   0  0  0  0  0  0  0  0  0  0  0  0
   64.0630   32.3580   49.5900 C   0  0  0  0  0  0  0  0  0  0  0  0
   64.4040   33.4430   48.7780 C   0  0  0  0  0  0  0  0  0  0  0  0
   63.7380   33.6450   47.5670 C   0  0  0  0  0  0  0  0  0  0  0  0
   62.7250   32.7660   47.1670 C   0  0  0  0  0  0  0  0  0  0  0  0
   57.5360   26.0190   46.5360 C   0  0  0  0  0  0  0  0  0  0  0  0
   57.9830   24.7250   46.8100 C   0  0  0  0  0  0  0  0  0  0  0  0
   59.2577   22.8011   44.7865 H   0  0  0  0  0  0  0  0  0  0  0  0
   59.1055   21.2332   43.9232 H   0  0  0  0  0  0  0  0  0  0  0  0
   57.7357   22.3952   43.9232 H   0  0  0  0  0  0  0  0  0  0  0  0
   57.1083   20.7779   45.5399 H   0  0  0  0  0  0  0  0  0  0  0  0
   58.7851   20.6683   46.1992 H   0  0  0  0  0  0  0  0  0  0  0  0
   55.2955   22.9617   45.6463 H   0  0  0  0  0  0  0  0  0  0  0  0
   54.5095   25.2716   45.1338 H   0  0  0  0  0  0  0  0  0  0  0  0
   57.6779   27.0188   43.8348 H   0  0  0  0  0  0  0  0  0  0  0  0
   57.7449   28.6528   43.0682 H   0  0  0  0  0  0  0  0  0  0  0  0
   58.0385   35.5113   44.9149 H   0  0  0  0  0  0  0  0  0  0  0  0
   57.9568   35.1163   47.3936 H   0  0  0  0  0  0  0  0  0  0  0  0
   58.2909   32.7752   48.2980 H   0  0  0  0  0  0  0  0  0  0  0  0
   58.1010   30.2238   48.4414 H   0  0  0  0  0  0  0  0  0  0  0  0
   58.9466   28.8746   47.6020 H   0  0  0  0  0  0  0  0  0  0  0  0
   61.4130   30.3150   46.6390 H   0  0  0  0  0  0  0  0  0  0  0  0
   62.7934   30.6202   49.8346 H   0  0  0  0  0  0  0  0  0  0  0  0
   64.5919   32.1962   50.5408 H   0  0  0  0  0  0  0  0  0  0  0  0
   65.1967   34.1378   49.0925 H   0  0  0  0  0  0  0  0  0  0  0  0
   64.0102   34.4967   46.9263 H   0  0  0  0  0  0  0  0  0  0  0  0
   62.2113   32.9220   46.2069 H   0  0  0  0  0  0  0  0  0  0  0  0
   58.1737   26.8799   46.7853 H   0  0  0  0  0  0  0  0  0  0  0  0
   58.9659   24.5759   47.2809 H   0  0  0  0  0  0  0  0  0  0  0  0
  1  2  1  0
  2  3  1  0
  3  4  1  0
  4  5  2  0
  5  6  1  0
  6  7  2  0
  7  8  1  0
  8  9  1  0
  9 10  2  0
  9 11  1  0
 11 12  1  0
 12 13  1  0
 13 14  2  0
 14 15  1  0
 15 16  2  0
 16 17  1  0
 17 18  2  0
 18 19  1  0
 19 20  2  0
 20 21  1  0
 21 22  1  0
 22 23  1  0
 23 24  2  0
 23 25  1  0
 25 26  1  0
 26 27  2  0
 27 28  1  0
 28 29  2  0
 29 30  1  0
 30 31  2  0
  7 32  1  0
 32 33  2  0
 33  4  1  0
 21 13  1  0
 31 26  1  0
 20 15  1  0
  1 34  1  0
  1 35  1  0
  1 36  1  0
  2 37  1  0
  2 38  1  0
  5 39  1  0
  6 40  1  0
 11 41  1  0
 11 42  1  0
 17 43  1  0
 18 44  1  0
 19 45  1  0
 22 46  1  0
 22 47  1  0
 25 48  1  0
 27 49  1  0
 28 50  1  0
 29 51  1  0
 30 52  1  0
 31 53  1  0
 32 54  1  0
 33 55  1  0
M  CHG  1   8  -1
M  END
>  <UniqueID>  (25) 
24

>  <SMILES>  (25) 
CCOc1ccc([N-]C(=O)CSc2nc3ncccc3n2CC(=O)Nc2ccccc2)cc1

>  <Energy>  (25) 
97.80340092899034

>  <Genealogy>  (25) 
CCOc1ccc([N-]C(=O)CSc2nc3ncccc3n2CC(=O)Nc2ccccc2)cc1 (protonated)
CCOc1ccc([N-]C(=O)CSc2nc3ncccc3n2CC(=O)Nc2ccccc2)cc1 (3D coordinates assigned)
CCOc1ccc([N-]C(=O)CSc2nc3ncccc3n2CC(=O)Nc2ccccc2)cc1 (optimized conformer: 97.80340092899034 kcal/mol)

>  <smiles>  (25) 
CCOc1ccc(NC(=O)CSc2nc3ncccc3n2CC(=O)Nc2ccccc2)cc1

>  <score_type>  (25) 
oracle

>  <origin>  (25) 
adg

>  <m_score__min__energy>  (25) 
-10.35

>  <m_primary>  (25) 
energy

$$$$
25:0
     RDKit          3D

 41 44  0  0  0  0  0  0  0  0999 V2000
   57.7040   22.5880   45.1870 C   0  0  0  0  0  0  0  0  0  0  0  0
   56.4760   23.3480   44.9660 N   0  0  0  0  0  0  0  0  0  0  0  0
   55.9890   24.3640   45.7080 C   0  0  0  0  0  0  0  0  0  0  0  0
   56.6310   24.9460   46.9390 C   0  0  0  0  0  0  0  0  0  0  0  0
   57.7930   25.8360   46.5710 C   0  0  0  0  0  0  0  0  0  0  0  0
   59.1060   25.3580   46.7010 C   0  0  0  0  0  0  0  0  0  0  0  0
   60.1890   26.1770   46.3850 C   0  0  0  0  0  0  0  0  0  0  0  0
   59.9780   27.4810   45.9400 C   0  0  0  0  0  0  0  0  0  0  0  0
   58.6740   27.9870   45.7990 C   0  0  0  0  0  0  0  0  0  0  0  0
   58.4600   29.3850   45.3470 C   0  0  0  0  0  0  0  0  0  0  0  0
   57.6290   29.6780   44.2500 C   0  0  0  0  0  0  0  0  0  0  0  0
   57.4530   31.0020   43.8470 C   0  0  0  0  0  0  0  0  0  0  0  0
   58.1030   32.0320   44.5330 C   0  0  0  0  0  0  0  0  0  0  0  0
   57.9490   33.3750   44.1550 C   0  0  0  0  0  0  0  0  0  0  0  0
   58.6110   34.3820   44.8650 C   0  0  0  0  0  0  0  0  0  0  0  0
   58.4610   35.6790   44.4990 F   0  0  0  0  0  0  0  0  0  0  0  0
   59.4270   34.0550   45.9530 C   0  0  0  0  0  0  0  0  0  0  0  0
   59.5870   32.7190   46.3370 C   0  0  0  0  0  0  0  0  0  0  0  0
   58.9290   31.7060   45.6320 C   0  0  0  0  0  0  0  0  0  0  0  0
   59.0810   30.4070   46.0020 N   0  0  0  0  0  0  0  0  0  0  0  0
   57.5780   27.1550   46.1190 C   0  0  0  0  0  0  0  0  0  0  0  0
   56.2750   27.6260   45.9740 O   0  0  0  0  0  0  0  0  0  0  0  0
   54.7770   24.7350   45.1600 C   0  0  0  0  0  0  0  0  0  0  0  0
   53.9450   25.7390   45.6440 O   0  0  0  0  0  0  0  0  0  0  0  0
   54.4910   23.9810   44.0800 N   0  0  0  0  0  0  0  0  0  0  0  0
   55.5510   23.1490   44.0010 C   0  0  0  0  0  0  0  0  0  0  0  0
   55.6560   22.2660   43.1090 O   0  0  0  0  0  0  0  0  0  0  0  0
   57.8788   22.4798   46.2676 H   0  0  0  0  0  0  0  0  0  0  0  0
   57.6062   21.5923   44.7299 H   0  0  0  0  0  0  0  0  0  0  0  0
   58.5516   23.1197   44.7299 H   0  0  0  0  0  0  0  0  0  0  0  0
   55.8844   25.5376   47.4891 H   0  0  0  0  0  0  0  0  0  0  0  0
   57.0042   24.1213   47.5640 H   0  0  0  0  0  0  0  0  0  0  0  0
   59.2817   24.3312   47.0543 H   0  0  0  0  0  0  0  0  0  0  0  0
   61.2145   25.7925   46.4873 H   0  0  0  0  0  0  0  0  0  0  0  0
   60.8397   28.1200   45.6969 H   0  0  0  0  0  0  0  0  0  0  0  0
   57.1195   28.8653   43.7116 H   0  0  0  0  0  0  0  0  0  0  0  0
   56.8035   31.2351   42.9904 H   0  0  0  0  0  0  0  0  0  0  0  0
   57.3076   33.6356   43.3002 H   0  0  0  0  0  0  0  0  0  0  0  0
   59.9447   34.8508   46.5086 H   0  0  0  0  0  0  0  0  0  0  0  0
   60.2299   32.4656   47.1928 H   0  0  0  0  0  0  0  0  0  0  0  0
   54.2520   26.3470   46.3930 H   0  0  0  0  0  0  0  0  0  0  0  0
  1  2  1  0
  2  3  1  0
  3  4  1  0
  4  5  1  0
  5  6  2  0
  6  7  1  0
  7  8  2  0
  8  9  1  0
  9 10  1  0
 10 11  2  0
 11 12  1  0
 12 13  2  0
 13 14  1  0
 14 15  2  0
 15 16  1  0
 15 17  1  0
 17 18  2  0
 18 19  1  0
 19 20  2  0
  9 21  2  0
 21 22  1  0
  3 23  2  0
 23 24  1  0
 23 25  1  0
 25 26  1  0
 26 27  2  0
 26  2  1  0
 21  5  1  0
 20 10  1  0
 19 13  1  0
  1 28  1  0
  1 29  1  0
  1 30  1  0
  4 31  1  0
  4 32  1  0
  6 33  1  0
  7 34  1  0
  8 35  1  0
 11 36  1  0
 12 37  1  0
 14 38  1  0
 17 39  1  0
 18 40  1  0
 24 41  1  0
M  CHG  2  22  -1  25  -1
M  END
>  <UniqueID>  (26) 
25

>  <SMILES>  (26) 
Cn1c(Cc2cccc(-c3ccc4cc(F)ccc4n3)c2[O-])c(O)[n-]c1=O

>  <Energy>  (26) 
84.58983471688137

>  <Genealogy>  (26) 
Cn1c(Cc2cccc(-c3ccc4cc(F)ccc4n3)c2[O-])c(O)[n-]c1=O (protonated)
Cn1c(Cc2cccc(-c3ccc4cc(F)ccc4n3)c2[O-])c(O)[n-]c1=O (3D coordinates assigned)
Cn1c(Cc2cccc(-c3ccc4cc(F)ccc4n3)c2[O-])c(O)[n-]c1=O (optimized conformer: 84.58983471688137 kcal/mol)

>  <smiles>  (26) 
Cn1c(Cc2cccc(-c3ccc4cc(F)ccc4n3)c2O)c(O)[nH]c1=O

>  <score_type>  (26) 
oracle

>  <origin>  (26) 
adg

>  <m_score__min__energy>  (26) 
-13.289999999999999

>  <m_primary>  (26) 
energy

$$$$
26:0
     RDKit          3D

 54 57  0  0  0  0  0  0  0  0999 V2000
   61.2669   27.7280   46.5307 H   0  0  0  0  0  0  0  0  0  0  0  0
   60.3410   27.3460   46.0760 C   0  0  0  0  0  0  0  0  0  0  0  0
   60.1935   26.2626   45.9561 H   0  0  0  0  0  0  0  0  0  0  0  0
   59.3900   28.2030   45.6670 C   0  0  0  0  0  0  0  0  0  0  0  0
   58.1670   27.8620   45.0740 C   0  0  0  0  0  0  0  0  0  0  0  0
   57.7330   26.6200   44.7610 C   0  0  0  0  0  0  0  0  0  0  0  0
   57.8198   26.3067   43.7101 H   0  0  0  0  0  0  0  0  0  0  0  0
   57.1510   25.6460   45.7120 C   0  0  0  0  0  0  0  0  0  0  0  0
   57.7460   24.5210   46.1520 N   0  0  0  0  0  0  0  0  0  0  0  0
   56.8100   23.9560   46.9440 C   0  0  0  0  0  0  0  0  0  0  0  0
   57.0020   22.8730   47.5550 O   0  0  0  0  0  0  0  0  0  0  0  0
   55.6490   24.6430   47.0280 N   0  0  0  0  0  0  0  0  0  0  0  0
   55.8800   25.7050   46.2390 C   0  0  0  0  0  0  0  0  0  0  0  0
   54.9480   26.7080   46.0040 O   0  0  0  0  0  0  0  0  0  0  0  0
   57.5000   29.0620   44.8580 C   0  0  0  0  0  0  0  0  0  0  0  0
   56.5090   29.1868   44.3971 H   0  0  0  0  0  0  0  0  0  0  0  0
   58.3180   30.0670   45.3320 C   0  0  0  0  0  0  0  0  0  0  0  0
   57.9260   31.4950   45.3350 C   0  0  0  0  0  0  0  0  0  0  0  0
   56.7760   31.7990   44.9110 O   0  0  0  0  0  0  0  0  0  0  0  0
   58.7560   32.5000   45.9700 N   0  0  1  0  0  0  0  0  0  0  0  0
   59.5980   32.0210   46.3570 H   0  0  0  0  0  0  0  0  0  0  0  0
   59.1910   33.5240   44.9880 C   0  0  0  0  0  0  0  0  0  0  0  0
   58.3091   33.8648   44.4257 H   0  0  0  0  0  0  0  0  0  0  0  0
   59.9418   33.0518   44.3374 H   0  0  0  0  0  0  0  0  0  0  0  0
   59.8630   34.7570   45.6420 C   0  0  0  0  0  0  0  0  0  0  0  0
   59.1868   35.6188   45.5416 H   0  0  0  0  0  0  0  0  0  0  0  0
   60.8198   34.9223   45.1250 H   0  0  0  0  0  0  0  0  0  0  0  0
   60.1780   34.5510   47.1400 C   0  0  2  0  0  0  0  0  0  0  0  0
   60.5744   35.4564   47.6228 H   0  0  0  0  0  0  0  0  0  0  0  0
   61.2680   33.5420   47.3050 N   0  0  0  0  0  0  0  0  0  0  0  0
   61.6650   33.3010   48.7100 C   0  0  0  0  0  0  0  0  0  0  0  0
   61.8837   34.2647   49.1931 H   0  0  0  0  0  0  0  0  0  0  0  0
   60.8384   32.7918   49.2271 H   0  0  0  0  0  0  0  0  0  0  0  0
   62.9190   32.4040   48.7800 C   0  0  0  0  0  0  0  0  0  0  0  0
   63.2479   32.3643   49.8289 H   0  0  0  0  0  0  0  0  0  0  0  0
   62.6137   31.4296   48.3708 H   0  0  0  0  0  0  0  0  0  0  0  0
   64.0290   32.8280   47.9880 O   0  0  0  0  0  0  0  0  0  0  0  0
   63.7550   33.9830   47.2190 C   0  0  0  0  0  0  0  0  0  0  0  0
   63.6787   34.8500   47.8917 H   0  0  0  0  0  0  0  0  0  0  0  0
   64.5734   34.1175   46.4964 H   0  0  0  0  0  0  0  0  0  0  0  0
   62.4390   33.8420   46.4350 C   0  0  0  0  0  0  0  0  0  0  0  0
   62.2465   34.7849   45.9023 H   0  0  0  0  0  0  0  0  0  0  0  0
   62.5589   32.9946   45.7440 H   0  0  0  0  0  0  0  0  0  0  0  0
   58.8350   34.1910   47.8350 C   0  0  0  0  0  0  0  0  0  0  0  0
   58.2206   35.1016   47.8930 H   0  0  0  0  0  0  0  0  0  0  0  0
   59.0880   33.7869   48.8263 H   0  0  0  0  0  0  0  0  0  0  0  0
   58.0190   33.0990   47.1010 C   0  0  0  0  0  0  0  0  0  0  0  0
   57.0922   33.5505   46.7174 H   0  0  0  0  0  0  0  0  0  0  0  0
   57.8117   32.2967   47.8245 H   0  0  0  0  0  0  0  0  0  0  0  0
   59.4820   29.5520   45.7980 N   0  0  0  0  0  0  0  0  0  0  0  0
   60.6390   30.3060   46.2950 C   0  0  0  0  0  0  0  0  0  0  0  0
   60.6338   30.3026   47.3950 H   0  0  0  0  0  0  0  0  0  0  0  0
   61.5655   29.8378   45.9312 H   0  0  0  0  0  0  0  0  0  0  0  0
   60.5848   31.3427   45.9312 H   0  0  0  0  0  0  0  0  0  0  0  0
  1  2  1  0
  2  3  1  0
  2  4  2  0
  4  5  1  0
  5  6  2  0
  6  7  1  0
  6  8  1  0
  8  9  1  0
  9 10  1  0
 10 11  2  0
 10 12  1  0
 12 13  1  0
 13 14  1  0
  5 15  1  0
 15 16  1  0
 15 17  2  0
 17 18  1  0
 18 19  2  0
 18 20  1  0
 20 21  1  6
 20 22  1  0
 22 23  1  0
 22 24  1  0
 22 25  1  0
 25 26  1  0
 25 27  1  0
 25 28  1  0
 28 29  1  6
 28 30  1  0
 30 31  1  0
 31 32  1  0
 31 33  1  0
 31 34  1  0
 34 35  1  0
 34 36  1  0
 34 37  1  0
 37 38  1  0
 38 39  1  0
 38 40  1  0
 38 41  1  0
 41 42  1  0
 41 43  1  0
 28 44  1  0
 44 45  1  0
 44 46  1  0
 44 47  1  0
 47 48  1  0
 47 49  1  0
 17 50  1  0
 50 51  1  0
 51 52  1  0
 51 53  1  0
 51 54  1  0
 50  4  1  0
 13  8  2  0
 47 20  1  0
 41 30  1  0
M  CHG  4   9  -1  12  -1  14  -1  20   1
M  END
>  <UniqueID>  (27) 
26

>  <SMILES>  (27) 
C=c1/c(=C/c2[n-]c(=O)[n-]c2[O-])cc(C(=O)[NH+]2CCC(N3CCOCC3)CC2)n1C

>  <Energy>  (27) 
153.14563891732791

>  <Genealogy>  (27) 
C=c1c(=Cc2[n-]c(=O)[n-]c2[O-])cc(C(=O)[NH+]2CCC(N3CCOCC3)CC2)n1C (protonated)
C=c1/c(=C/c2[n-]c(=O)[n-]c2[O-])cc(C(=O)[NH+]2CCC(N3CCOCC3)CC2)n1C (cis-trans isomerization)
C=c1/c(=C/c2[n-]c(=O)[n-]c2[O-])cc(C(=O)[NH+]2CCC(N3CCOCC3)CC2)n1C (3D coordinates assigned)
C=c1/c(=C/c2[n-]c(=O)[n-]c2[O-])cc(C(=O)[NH+]2CCC(N3CCOCC3)CC2)n1C (nonaromatic ring conformer: 153.14563891732791 kcal/mol)

>  <smiles>  (27) 
C=c1c(=Cc2[nH]c(=O)[nH]c2O)cc(C(=O)N2CCC(N3CCOCC3)CC2)n1C

>  <score_type>  (27) 
oracle

>  <origin>  (27) 
adg

>  <m_score__min__energy>  (27) 
-16.57

>  <m_primary>  (27) 
energy

$$$$
27:0
     RDKit          3D

 43 45  0  0  0  0  0  0  0  0999 V2000
   57.2320   33.9910   47.0950 O   0  0  0  0  0  0  0  0  0  0  0  0
   58.1430   33.1540   47.3390 C   0  0  0  0  0  0  0  0  0  0  0  0
   58.7960   32.4140   46.2130 C   0  0  0  0  0  0  0  0  0  0  0  0
   59.2140   31.0030   46.6420 C   0  0  0  0  0  0  0  0  0  0  0  0
   58.5550   29.9460   45.7920 C   0  0  0  0  0  0  0  0  0  0  0  0
   58.2030   30.2320   44.4640 C   0  0  0  0  0  0  0  0  0  0  0  0
   57.6400   29.2430   43.6560 C   0  0  0  0  0  0  0  0  0  0  0  0
   57.4270   27.9600   44.1640 C   0  0  0  0  0  0  0  0  0  0  0  0
   57.7740   27.6550   45.4890 C   0  0  0  0  0  0  0  0  0  0  0  0
   57.5410   26.2940   46.0250 C   0  0  0  0  0  0  0  0  0  0  0  0
   56.2400   25.8430   46.3070 C   0  0  0  0  0  0  0  0  0  0  0  0
   55.1420   26.6750   46.1040 O   0  0  0  0  0  0  0  0  0  0  0  0
   56.0470   24.5800   46.7710 N   0  0  0  0  0  0  0  0  0  0  0  0
   57.0910   23.7380   46.9750 C   0  0  0  0  0  0  0  0  0  0  0  0
   56.8860   22.5750   47.4080 O   0  0  0  0  0  0  0  0  0  0  0  0
   58.3580   24.1510   46.7150 N   0  0  0  0  0  0  0  0  0  0  0  0
   58.6060   25.4020   46.2460 C   0  0  0  0  0  0  0  0  0  0  0  0
   59.7970   25.7520   46.0290 O   0  0  0  0  0  0  0  0  0  0  0  0
   58.3420   28.6520   46.2990 C   0  0  0  0  0  0  0  0  0  0  0  0
   58.5930   32.9410   48.6790 N   0  0  0  0  0  0  0  0  0  0  0  0
   59.7030   33.6720   49.2780 C   0  0  0  0  0  0  0  0  0  0  0  0
   60.9680   33.4020   48.5130 C   0  0  0  0  0  0  0  0  0  0  0  0
   61.2680   34.1560   47.3670 C   0  0  0  0  0  0  0  0  0  0  0  0
   62.4370   33.9050   46.6420 C   0  0  0  0  0  0  0  0  0  0  0  0
   63.3170   32.9030   47.0600 C   0  0  0  0  0  0  0  0  0  0  0  0
   64.4340   32.6420   46.3390 F   0  0  0  0  0  0  0  0  0  0  0  0
   63.0390   32.1650   48.2150 C   0  0  0  0  0  0  0  0  0  0  0  0
   61.8720   32.4160   48.9430 C   0  0  0  0  0  0  0  0  0  0  0  0
   58.0873   32.3386   45.3751 H   0  0  0  0  0  0  0  0  0  0  0  0
   59.6980   32.9666   45.9113 H   0  0  0  0  0  0  0  0  0  0  0  0
   60.3057   30.9093   46.5454 H   0  0  0  0  0  0  0  0  0  0  0  0
   58.8974   30.8526   47.6847 H   0  0  0  0  0  0  0  0  0  0  0  0
   58.3716   31.2403   44.0580 H   0  0  0  0  0  0  0  0  0  0  0  0
   57.3635   29.4748   42.6168 H   0  0  0  0  0  0  0  0  0  0  0  0
   56.9847   27.1840   43.5220 H   0  0  0  0  0  0  0  0  0  0  0  0
   54.3740   26.6930   46.7640 H   0  0  0  0  0  0  0  0  0  0  0  0
   58.6221   28.4189   47.3369 H   0  0  0  0  0  0  0  0  0  0  0  0
   59.4851   34.7499   49.2531 H   0  0  0  0  0  0  0  0  0  0  0  0
   59.8330   33.3419   50.3192 H   0  0  0  0  0  0  0  0  0  0  0  0
   60.5797   34.9484   47.0378 H   0  0  0  0  0  0  0  0  0  0  0  0
   62.6640   34.4962   45.7426 H   0  0  0  0  0  0  0  0  0  0  0  0
   63.7393   31.3861   48.5511 H   0  0  0  0  0  0  0  0  0  0  0  0
   61.6608   31.8395   49.8557 H   0  0  0  0  0  0  0  0  0  0  0  0
  1  2  2  0
  2  3  1  0
  3  4  1  0
  4  5  1  0
  5  6  2  0
  6  7  1  0
  7  8  2  0
  8  9  1  0
  9 10  1  0
 10 11  2  0
 11 12  1  0
 11 13  1  0
 13 14  1  0
 14 15  2  0
 14 16  1  0
 16 17  1  0
 17 18  2  0
  9 19  2  0
  2 20  1  0
 20 21  1  0
 21 22  1  0
 22 23  2  0
 23 24  1  0
 24 25  2  0
 25 26  1  0
 25 27  1  0
 27 28  2  0
 19  5  1  0
 28 22  1  0
 17 10  1  0
  3 29  1  0
  3 30  1  0
  4 31  1  0
  4 32  1  0
  6 33  1  0
  7 34  1  0
  8 35  1  0
 12 36  1  0
 19 37  1  0
 21 38  1  0
 21 39  1  0
 23 40  1  0
 24 41  1  0
 27 42  1  0
 28 43  1  0
M  CHG  3  13  -1  16  -1  20  -1
M  END
>  <UniqueID>  (28) 
27

>  <SMILES>  (28) 
O=C(CCc1cccc(-c2c(O)[n-]c(=O)[n-]c2=O)c1)[N-]Cc1ccc(F)cc1

>  <Energy>  (28) 
42.810650426084386

>  <Genealogy>  (28) 
O=C(CCc1cccc(-c2c(O)[n-]c(=O)[n-]c2=O)c1)[N-]Cc1ccc(F)cc1 (protonated)
O=C(CCc1cccc(-c2c(O)[n-]c(=O)[n-]c2=O)c1)[N-]Cc1ccc(F)cc1 (3D coordinates assigned)
O=C(CCc1cccc(-c2c(O)[n-]c(=O)[n-]c2=O)c1)[N-]Cc1ccc(F)cc1 (optimized conformer: 42.810650426084386 kcal/mol)

>  <smiles>  (28) 
O=C(CCc1cccc(-c2c(O)[nH]c(=O)[nH]c2=O)c1)NCc1ccc(F)cc1

>  <score_type>  (28) 
oracle

>  <origin>  (28) 
adg

>  <m_score__min__energy>  (28) 
-15.57

>  <m_primary>  (28) 
energy

$$$$
28:0
     RDKit          3D

 47 50  0  0  0  0  0  0  0  0999 V2000
   53.8730   23.3790   45.6010 O   0  0  0  0  0  0  0  0  0  0  0  0
   54.7480   23.8490   46.3780 C   0  0  0  0  0  0  0  0  0  0  0  0
   55.1920   25.1940   46.1690 N   0  0  0  0  0  0  0  0  0  0  0  0
   56.4160   25.6040   45.4730 C   0  0  1  0  0  0  0  0  0  0  0  0
   57.2700   26.4480   46.3930 C   0  0  0  0  0  0  0  0  0  0  0  0
   57.5530   26.0280   47.5430 O   0  0  0  0  0  0  0  0  0  0  0  0
   57.7340   27.7530   45.9920 N   0  0  0  0  0  0  0  0  0  0  0  0
   57.0150   28.6720   45.1860 C   0  0  0  0  0  0  0  0  0  0  0  0
   55.7530   28.7050   45.1490 O   0  0  0  0  0  0  0  0  0  0  0  0
   57.8810   29.6060   44.4700 C   0  0  0  0  0  0  0  0  0  0  0  0
   57.5710   30.8590   44.1150 C   0  0  0  0  0  0  0  0  0  0  0  0
   57.9690   32.0410   44.9000 C   0  0  0  0  0  0  0  0  0  0  0  0
   58.1830   31.9000   46.2830 C   0  0  0  0  0  0  0  0  0  0  0  0
   58.5610   33.0060   47.0490 C   0  0  0  0  0  0  0  0  0  0  0  0
   58.7330   34.2550   46.4430 C   0  0  0  0  0  0  0  0  0  0  0  0
   59.0940   35.3280   47.1890 F   0  0  0  0  0  0  0  0  0  0  0  0
   58.5380   34.3980   45.0670 C   0  0  0  0  0  0  0  0  0  0  0  0
   58.1610   33.2940   44.2910 C   0  0  0  0  0  0  0  0  0  0  0  0
   59.5930   29.0600   44.5300 S   0  0  0  0  0  0  0  0  0  0  0  0
   59.1240   28.0640   45.9580 C   0  0  0  0  0  0  0  0  0  0  0  0
   59.8950   28.3690   47.3610 S   0  0  0  0  0  0  0  0  0  0  0  0
   57.1770   24.3720   45.0260 C   0  0  0  0  0  0  0  0  0  0  0  0
   58.4010   24.0310   45.6330 C   0  0  0  0  0  0  0  0  0  0  0  0
   59.0930   22.8870   45.2270 C   0  0  0  0  0  0  0  0  0  0  0  0
   58.5670   22.0710   44.2210 C   0  0  0  0  0  0  0  0  0  0  0  0
   57.3570   22.4020   43.6090 C   0  0  0  0  0  0  0  0  0  0  0  0
   56.6710   23.5530   44.0010 C   0  0  0  0  0  0  0  0  0  0  0  0
   55.2600   23.0060   47.4770 C   0  0  0  0  0  0  0  0  0  0  0  0
   54.5140   22.5840   48.5670 C   0  0  0  0  0  0  0  0  0  0  0  0
   55.3470   21.7870   49.3210 C   0  0  0  0  0  0  0  0  0  0  0  0
   56.5500   21.7620   48.6450 C   0  0  0  0  0  0  0  0  0  0  0  0
   57.6920   21.0820   49.0590 O   0  0  0  0  0  0  0  0  0  0  0  0
   56.5070   22.4900   47.5150 N   0  0  0  0  0  0  0  0  0  0  0  0
   56.1555   26.2040   44.5886 H   0  0  0  0  0  0  0  0  0  0  0  0
   56.9913   31.0137   43.1930 H   0  0  0  0  0  0  0  0  0  0  0  0
   58.0527   30.9184   46.7620 H   0  0  0  0  0  0  0  0  0  0  0  0
   58.7237   32.8942   48.1311 H   0  0  0  0  0  0  0  0  0  0  0  0
   58.6808   35.3797   44.5917 H   0  0  0  0  0  0  0  0  0  0  0  0
   58.0154   33.4072   43.2066 H   0  0  0  0  0  0  0  0  0  0  0  0
   58.8138   24.6674   46.4296 H   0  0  0  0  0  0  0  0  0  0  0  0
   60.0522   22.6283   45.6992 H   0  0  0  0  0  0  0  0  0  0  0  0
   59.1085   21.1652   43.9108 H   0  0  0  0  0  0  0  0  0  0  0  0
   56.9446   21.7570   42.8191 H   0  0  0  0  0  0  0  0  0  0  0  0
   55.7271   23.8214   43.5041 H   0  0  0  0  0  0  0  0  0  0  0  0
   53.4658   22.8356   48.7860 H   0  0  0  0  0  0  0  0  0  0  0  0
   55.1041   21.2770   50.2648 H   0  0  0  0  0  0  0  0  0  0  0  0
   58.5190   21.5810   49.3720 H   0  0  0  0  0  0  0  0  0  0  0  0
  1  2  2  0
  2  3  1  0
  3  4  1  0
  4  5  1  0
  5  6  2  0
  5  7  1  0
  7  8  1  0
  8  9  2  0
  8 10  1  0
 10 11  2  3
 11 12  1  0
 12 13  2  0
 13 14  1  0
 14 15  2  0
 15 16  1  0
 15 17  1  0
 17 18  2  0
 10 19  1  0
 19 20  1  0
 20 21  2  0
  4 22  1  0
 22 23  2  0
 23 24  1  0
 24 25  2  0
 25 26  1  0
 26 27  2  0
  2 28  1  0
 28 29  2  0
 29 30  1  0
 30 31  2  0
 31 32  1  0
 31 33  1  0
 20  7  1  0
 27 22  1  0
 33 28  1  0
 18 12  1  0
  4 34  1  6
 11 35  1  0
 13 36  1  0
 14 37  1  0
 17 38  1  0
 18 39  1  0
 23 40  1  0
 24 41  1  0
 25 42  1  0
 26 43  1  0
 27 44  1  0
 29 45  1  0
 30 46  1  0
 32 47  1  0
M  CHG  2   3  -1  33  -1
M  END
>  <UniqueID>  (29) 
28

>  <SMILES>  (29) 
O=C([N-][C@@H](C(=O)N1C(=O)C(=Cc2ccc(F)cc2)SC1=S)c1ccccc1)c1ccc(O)[n-]1

>  <Energy>  (29) 
113.7186277963636

>  <Genealogy>  (29) 
O=C([N-]C(C(=O)N1C(=O)C(=Cc2ccc(F)cc2)SC1=S)c1ccccc1)c1ccc(O)[n-]1 (protonated)
O=C([N-][C@@H](C(=O)N1C(=O)C(=Cc2ccc(F)cc2)SC1=S)c1ccccc1)c1ccc(O)[n-]1 (chirality)
O=C([N-][C@@H](C(=O)N1C(=O)C(=Cc2ccc(F)cc2)SC1=S)c1ccccc1)c1ccc(O)[n-]1 (3D coordinates assigned)
O=C([N-][C@@H](C(=O)N1C(=O)C(=Cc2ccc(F)cc2)SC1=S)c1ccccc1)c1ccc(O)[n-]1 (nonaromatic ring conformer: 113.7186277963636 kcal/mol)

>  <smiles>  (29) 
O=C(NC(C(=O)N1C(=O)C(=Cc2ccc(F)cc2)SC1=S)c1ccccc1)c1ccc(O)[nH]1

>  <score_type>  (29) 
oracle

>  <origin>  (29) 
adg

>  <m_score__min__energy>  (29) 
-13.58

>  <m_primary>  (29) 
energy

$$$$
29:0
     RDKit          3D

 50 52  0  0  0  0  0  0  0  0999 V2000
   56.2600   30.3120   42.9990 C   0  0  0  0  0  0  0  0  0  0  0  0
   57.0370   29.7770   44.5090 S   0  0  0  0  0  0  0  0  0  0  0  0
   57.2840   30.9890   45.3660 O   0  0  0  0  0  0  0  0  0  0  0  0
   56.0920   28.8520   45.2230 O   0  0  0  0  0  0  0  0  0  0  0  0
   58.5470   28.9730   44.1220 N   0  0  2  0  0  0  0  0  0  0  0  0
   58.4010   27.4900   44.0870 C   0  0  0  0  0  0  0  0  0  0  0  0
   59.1140   26.7540   45.2370 C   0  0  0  0  0  0  0  0  0  0  0  0
   59.0060   27.5410   46.5350 C   0  0  0  0  0  0  0  0  0  0  0  0
   59.7150   28.9050   46.3970 C   0  0  2  0  0  0  0  0  0  0  0  0
   59.2200   29.9220   47.4090 C   0  0  0  0  0  0  0  0  0  0  0  0
   58.1600   29.6870   48.0520 O   0  0  0  0  0  0  0  0  0  0  0  0
   59.9320   31.1550   47.6610 N   0  0  0  0  0  0  0  0  0  0  0  0
   59.7340   31.8220   48.9600 C   0  0  0  0  0  0  0  0  0  0  0  0
   60.5730   33.0980   49.0760 C   0  0  0  0  0  0  0  0  0  0  0  0
   61.9280   32.8470   48.5670 N   0  0  0  0  0  0  0  0  0  0  0  0
   63.0840   33.1230   49.3820 C   0  0  0  0  0  0  0  0  0  0  0  0
   62.9920   34.0060   50.4730 C   0  0  0  0  0  0  0  0  0  0  0  0
   64.1110   34.2630   51.2700 C   0  0  0  0  0  0  0  0  0  0  0  0
   65.3290   33.6390   50.9890 C   0  0  0  0  0  0  0  0  0  0  0  0
   65.4300   32.7560   49.9120 C   0  0  0  0  0  0  0  0  0  0  0  0
   64.3130   32.4950   49.1120 C   0  0  0  0  0  0  0  0  0  0  0  0
   62.1030   32.2380   47.2390 C   0  0  0  0  0  0  0  0  0  0  0  0
   60.7590   31.8130   46.6350 C   0  0  0  0  0  0  0  0  0  0  0  0
   59.6780   29.4620   44.9460 C   0  0  0  0  0  0  0  0  0  0  0  0
   55.3756   30.9210   43.2375 H   0  0  0  0  0  0  0  0  0  0  0  0
   56.9715   30.9125   42.4133 H   0  0  0  0  0  0  0  0  0  0  0  0
   55.9528   29.4330   42.4133 H   0  0  0  0  0  0  0  0  0  0  0  0
   58.7610   29.2770   43.1430 H   0  0  0  0  0  0  0  0  0  0  0  0
   57.3290   27.2484   44.1360 H   0  0  0  0  0  0  0  0  0  0  0  0
   58.8746   27.1495   43.1544 H   0  0  0  0  0  0  0  0  0  0  0  0
   58.6499   25.7663   45.3750 H   0  0  0  0  0  0  0  0  0  0  0  0
   60.1778   26.6459   44.9790 H   0  0  0  0  0  0  0  0  0  0  0  0
   57.9445   27.7064   46.7715 H   0  0  0  0  0  0  0  0  0  0  0  0
   59.4877   26.9681   47.3411 H   0  0  0  0  0  0  0  0  0  0  0  0
   60.7736   28.7158   46.6287 H   0  0  0  0  0  0  0  0  0  0  0  0
   58.6710   32.0834   49.0680 H   0  0  0  0  0  0  0  0  0  0  0  0
   60.0525   31.1293   49.7529 H   0  0  0  0  0  0  0  0  0  0  0  0
   60.1035   33.8993   48.4865 H   0  0  0  0  0  0  0  0  0  0  0  0
   60.6306   33.4016   50.1317 H   0  0  0  0  0  0  0  0  0  0  0  0
   62.0342   34.4969   50.7002 H   0  0  0  0  0  0  0  0  0  0  0  0
   64.0326   34.9574   52.1195 H   0  0  0  0  0  0  0  0  0  0  0  0
   66.2090   33.8434   51.6166 H   0  0  0  0  0  0  0  0  0  0  0  0
   66.3895   32.2650   49.6925 H   0  0  0  0  0  0  0  0  0  0  0  0
   64.3961   31.7951   48.2675 H   0  0  0  0  0  0  0  0  0  0  0  0
   62.5803   32.9694   46.5703 H   0  0  0  0  0  0  0  0  0  0  0  0
   62.7308   31.3416   47.3500 H   0  0  0  0  0  0  0  0  0  0  0  0
   60.2321   32.7015   46.2570 H   0  0  0  0  0  0  0  0  0  0  0  0
   60.9402   31.1081   45.8102 H   0  0  0  0  0  0  0  0  0  0  0  0
   59.6119   30.5586   45.0018 H   0  0  0  0  0  0  0  0  0  0  0  0
   60.5959   29.1074   44.4543 H   0  0  0  0  0  0  0  0  0  0  0  0
  1  2  1  0
  2  3  2  0
  2  4  2  0
  2  5  1  0
  5  6  1  0
  6  7  1  0
  7  8  1  0
  8  9  1  0
  9 10  1  0
 10 11  2  0
 10 12  1  0
 12 13  1  0
 13 14  1  0
 14 15  1  0
 15 16  1  0
 16 17  2  0
 17 18  1  0
 18 19  2  0
 19 20  1  0
 20 21  2  0
 15 22  1  0
 22 23  1  0
  9 24  1  0
 24  5  1  0
 23 12  1  0
 21 16  1  0
  1 25  1  0
  1 26  1  0
  1 27  1  0
  5 28  1  6
  6 29  1  0
  6 30  1  0
  7 31  1  0
  7 32  1  0
  8 33  1  0
  8 34  1  0
  9 35  1  1
 13 36  1  0
 13 37  1  0
 14 38  1  0
 14 39  1  0
 17 40  1  0
 18 41  1  0
 19 42  1  0
 20 43  1  0
 21 44  1  0
 22 45  1  0
 22 46  1  0
 23 47  1  0
 23 48  1  0
 24 49  1  0
 24 50  1  0
M  CHG  1   5   1
M  END
>  <UniqueID>  (30) 
29

>  <SMILES>  (30) 
CS(=O)(=O)[N@@H+]1CCC[C@H](C(=O)N2CCN(c3ccccc3)CC2)C1

>  <Energy>  (30) 
63.173974110168786

>  <Genealogy>  (30) 
CS(=O)(=O)[NH+]1CCCC(C(=O)N2CCN(c3ccccc3)CC2)C1 (protonated)
CS(=O)(=O)[N@@H+]1CCC[C@H](C(=O)N2CCN(c3ccccc3)CC2)C1 (chirality)
CS(=O)(=O)[N@@H+]1CCC[C@H](C(=O)N2CCN(c3ccccc3)CC2)C1 (3D coordinates assigned)
CS(=O)(=O)[N@@H+]1CCC[C@H](C(=O)N2CCN(c3ccccc3)CC2)C1 (nonaromatic ring conformer: 63.173974110168786 kcal/mol)

>  <smiles>  (30) 
CS(=O)(=O)N1CCCC(C(=O)N2CCN(c3ccccc3)CC2)C1

>  <score_type>  (30) 
oracle

>  <origin>  (30) 
adg

>  <m_score__min__energy>  (30) 
-6.3799999999999999

>  <m_primary>  (30) 
energy

$$$$
30:0
     RDKit          3D

 43 45  0  0  0  0  0  0  0  0999 V2000
   57.7230   32.2880   52.3750 C   0  0  0  0  0  0  0  0  0  0  0  0
   57.5830   31.0400   51.5560 C   0  0  0  0  0  0  0  0  0  0  0  0
   56.8410   30.1180   51.9920 O   0  0  0  0  0  0  0  0  0  0  0  0
   58.2880   30.8670   50.2570 C   0  0  0  0  0  0  0  0  0  0  0  0
   58.7550   29.5980   49.8730 C   0  0  0  0  0  0  0  0  0  0  0  0
   59.4200   29.4190   48.6570 C   0  0  0  0  0  0  0  0  0  0  0  0
   59.6360   30.5070   47.7930 C   0  0  0  0  0  0  0  0  0  0  0  0
   60.3430   30.3170   46.5050 C   0  0  0  0  0  0  0  0  0  0  0  0
   61.5460   30.6790   46.3880 O   0  0  0  0  0  0  0  0  0  0  0  0
   59.6810   29.6740   45.4080 N   0  0  0  0  0  0  0  0  0  0  0  0
   58.4650   28.9160   45.4900 C   0  0  0  0  0  0  0  0  0  0  0  0
   58.5190   27.6140   45.9950 C   0  0  0  0  0  0  0  0  0  0  0  0
   57.3540   26.8390   46.1040 C   0  0  0  0  0  0  0  0  0  0  0  0
   57.4350   25.4380   46.6580 C   0  0  0  0  0  0  0  0  0  0  0  0
   57.0120   24.4290   45.6190 C   0  0  0  0  0  0  0  0  0  0  0  0
   57.9580   23.9340   44.7040 C   0  0  0  0  0  0  0  0  0  0  0  0
   57.5940   22.9750   43.7560 C   0  0  0  0  0  0  0  0  0  0  0  0
   56.2820   22.4970   43.7130 C   0  0  0  0  0  0  0  0  0  0  0  0
   55.9210   21.5430   42.7690 O   0  0  0  0  0  0  0  0  0  0  0  0
   55.3340   22.9760   44.6200 C   0  0  0  0  0  0  0  0  0  0  0  0
   55.6900   23.9390   45.5760 C   0  0  0  0  0  0  0  0  0  0  0  0
   54.7360   24.4070   46.4780 O   0  0  0  0  0  0  0  0  0  0  0  0
   56.1300   27.4120   45.7130 C   0  0  0  0  0  0  0  0  0  0  0  0
   54.9470   26.6870   45.7870 O   0  0  0  0  0  0  0  0  0  0  0  0
   56.0920   28.6920   45.2580 N   0  0  0  0  0  0  0  0  0  0  0  0
   57.2100   29.4560   45.1480 C   0  0  0  0  0  0  0  0  0  0  0  0
   57.1020   30.6510   44.7690 O   0  0  0  0  0  0  0  0  0  0  0  0
   59.1720   31.7770   48.1760 C   0  0  0  0  0  0  0  0  0  0  0  0
   58.5060   31.9560   49.3920 C   0  0  0  0  0  0  0  0  0  0  0  0
   57.6941   32.0302   53.4440 H   0  0  0  0  0  0  0  0  0  0  0  0
   58.6814   32.7746   52.1410 H   0  0  0  0  0  0  0  0  0  0  0  0
   56.8963   32.9748   52.1410 H   0  0  0  0  0  0  0  0  0  0  0  0
   58.5952   28.7359   50.5373 H   0  0  0  0  0  0  0  0  0  0  0  0
   59.7776   28.4182   48.3733 H   0  0  0  0  0  0  0  0  0  0  0  0
   59.4847   27.1922   46.3104 H   0  0  0  0  0  0  0  0  0  0  0  0
   58.4711   25.2296   46.9631 H   0  0  0  0  0  0  0  0  0  0  0  0
   56.7597   25.3598   47.5228 H   0  0  0  0  0  0  0  0  0  0  0  0
   58.9931   24.3050   44.7350 H   0  0  0  0  0  0  0  0  0  0  0  0
   58.3408   22.5959   43.0429 H   0  0  0  0  0  0  0  0  0  0  0  0
   54.3023   22.5960   44.5845 H   0  0  0  0  0  0  0  0  0  0  0  0
   54.2920   25.3100   46.3620 H   0  0  0  0  0  0  0  0  0  0  0  0
   59.3345   32.6390   47.5122 H   0  0  0  0  0  0  0  0  0  0  0  0
   58.1490   32.9571   49.6755 H   0  0  0  0  0  0  0  0  0  0  0  0
  1  2  1  0
  2  3  2  0
  2  4  1  0
  4  5  2  0
  5  6  1  0
  6  7  2  0
  7  8  1  0
  8  9  2  0
  8 10  1  0
 10 11  1  0
 11 12  2  0
 12 13  1  0
 13 14  1  0
 14 15  1  0
 15 16  2  0
 16 17  1  0
 17 18  2  0
 18 19  1  0
 18 20  1  0
 20 21  2  0
 21 22  1  0
 13 23  2  0
 23 24  1  0
 23 25  1  0
 25 26  1  0
 26 27  2  0
  7 28  1  0
 28 29  2  0
 29  4  1  0
 26 11  1  0
 21 15  1  0
  1 30  1  0
  1 31  1  0
  1 32  1  0
  5 33  1  0
  6 34  1  0
 12 35  1  0
 14 36  1  0
 14 37  1  0
 16 38  1  0
 17 39  1  0
 20 40  1  0
 22 41  1  0
 28 42  1  0
 29 43  1  0
M  CHG  4  10  -1  19  -1  24  -1  25  -1
M  END
>  <UniqueID>  (31) 
30

>  <SMILES>  (31) 
CC(=O)c1ccc(C(=O)[N-]c2cc(Cc3ccc([O-])cc3O)c([O-])[n-]c2=O)cc1

>  <Energy>  (31) 
53.77606038005101

>  <Genealogy>  (31) 
CC(=O)c1ccc(C(=O)[N-]c2cc(Cc3ccc([O-])cc3O)c([O-])[n-]c2=O)cc1 (protonated)
CC(=O)c1ccc(C(=O)[N-]c2cc(Cc3ccc([O-])cc3O)c([O-])[n-]c2=O)cc1 (3D coordinates assigned)
CC(=O)c1ccc(C(=O)[N-]c2cc(Cc3ccc([O-])cc3O)c([O-])[n-]c2=O)cc1 (optimized conformer: 53.77606038005101 kcal/mol)

>  <smiles>  (31) 
CC(=O)c1ccc(C(=O)Nc2cc(Cc3ccc(O)cc3O)c(O)[nH]c2=O)cc1

>  <score_type>  (31) 
oracle

>  <origin>  (31) 
adg

>  <m_score__min__energy>  (31) 
-17.109999999999999

>  <m_primary>  (31) 
energy

$$$$
31:0
     RDKit          3D

 62 66  0  0  0  0  0  0  0  0999 V2000
   55.1800   28.5570   53.0980 C   0  0  0  0  0  0  0  0  0  0  0  0
   55.7830   29.8210   53.6330 C   0  0  0  0  0  0  0  0  0  0  0  0
   55.1610   30.4480   54.5330 O   0  0  0  0  0  0  0  0  0  0  0  0
   57.0520   30.3210   53.1530 N   0  0  0  0  0  0  0  0  0  0  0  0
   57.9740   29.5050   52.3520 C   0  0  0  0  0  0  0  0  0  0  0  0
   58.1200   30.1260   50.9640 C   0  0  0  0  0  0  0  0  0  0  0  0
   58.4270   31.5600   51.0810 N   0  0  0  0  0  0  0  0  0  0  0  0
   59.2670   32.2010   50.1030 C   0  0  0  0  0  0  0  0  0  0  0  0
   59.5960   33.5580   50.2360 C   0  0  0  0  0  0  0  0  0  0  0  0
   60.3890   34.1880   49.2760 C   0  0  0  0  0  0  0  0  0  0  0  0
   60.8590   33.4750   48.1700 C   0  0  0  0  0  0  0  0  0  0  0  0
   61.6100   34.1200   47.2420 F   0  0  0  0  0  0  0  0  0  0  0  0
   60.5520   32.1100   48.0280 C   0  0  0  0  0  0  0  0  0  0  0  0
   60.9960   31.3350   46.8120 C   0  0  0  0  0  0  0  0  0  0  0  0
   59.8360   30.9390   46.0140 N   0  0  0  0  0  0  0  0  0  0  0  0
   58.8380   31.8370   45.5160 C   0  0  0  0  0  0  0  0  0  0  0  0
   59.0020   33.0800   45.3900 O   0  0  0  0  0  0  0  0  0  0  0  0
   57.6130   31.1130   45.2150 C   0  0  0  0  0  0  0  0  0  0  0  0
   56.5330   31.5930   44.7820 O   0  0  0  0  0  0  0  0  0  0  0  0
   57.8850   29.7290   45.5620 C   0  0  0  0  0  0  0  0  0  0  0  0
   57.0630   28.6060   45.4970 C   0  0  0  0  0  0  0  0  0  0  0  0
   57.5940   27.3680   45.9090 C   0  0  0  0  0  0  0  0  0  0  0  0
   56.6140   25.9090   45.8310 S   0  0  0  0  0  0  0  0  0  0  0  0
   55.1580   26.2280   46.0220 O   0  0  0  0  0  0  0  0  0  0  0  0
   57.0530   24.9730   46.9210 O   0  0  0  0  0  0  0  0  0  0  0  0
   56.8320   25.1310   44.2920 N   0  0  0  0  0  0  0  0  0  0  0  0
   57.0170   23.8570   44.0850 C   0  0  0  0  0  0  0  0  0  0  0  0
   56.4050   23.1680   43.0170 C   0  0  0  0  0  0  0  0  0  0  0  0
   56.6500   21.8050   42.8460 C   0  0  0  0  0  0  0  0  0  0  0  0
   57.4950   21.1330   43.7270 C   0  0  0  0  0  0  0  0  0  0  0  0
   58.0860   21.8380   44.7750 C   0  0  0  0  0  0  0  0  0  0  0  0
   57.8390   23.1680   44.9330 N   0  0  0  0  0  0  0  0  0  0  0  0
   58.9230   27.2900   46.3790 C   0  0  0  0  0  0  0  0  0  0  0  0
   59.7320   28.4380   46.4380 C   0  0  0  0  0  0  0  0  0  0  0  0
   59.1870   29.6580   46.0280 C   0  0  0  0  0  0  0  0  0  0  0  0
   59.7580   31.4800   49.0020 C   0  0  0  0  0  0  0  0  0  0  0  0
   57.5740   32.3860   51.9530 C   0  0  0  0  0  0  0  0  0  0  0  0
   57.4230   31.7290   53.3270 C   0  0  0  0  0  0  0  0  0  0  0  0
   54.8732   27.9138   53.9360 H   0  0  0  0  0  0  0  0  0  0  0  0
   54.3016   28.8016   52.4827 H   0  0  0  0  0  0  0  0  0  0  0  0
   55.9228   28.0282   52.4827 H   0  0  0  0  0  0  0  0  0  0  0  0
   58.9570   29.4703   52.8445 H   0  0  0  0  0  0  0  0  0  0  0  0
   57.5771   28.4833   52.2593 H   0  0  0  0  0  0  0  0  0  0  0  0
   58.9354   29.6223   50.4241 H   0  0  0  0  0  0  0  0  0  0  0  0
   57.1752   30.0040   50.4140 H   0  0  0  0  0  0  0  0  0  0  0  0
   59.2271   34.1284   51.1012 H   0  0  0  0  0  0  0  0  0  0  0  0
   60.6455   35.2515   49.3905 H   0  0  0  0  0  0  0  0  0  0  0  0
   61.6589   31.9656   46.2014 H   0  0  0  0  0  0  0  0  0  0  0  0
   61.5324   30.4318   47.1382 H   0  0  0  0  0  0  0  0  0  0  0  0
   56.0276   28.6839   45.1339 H   0  0  0  0  0  0  0  0  0  0  0  0
   55.7388   23.7019   42.3233 H   0  0  0  0  0  0  0  0  0  0  0  0
   56.1761   21.2610   42.0157 H   0  0  0  0  0  0  0  0  0  0  0  0
   57.6935   20.0589   43.5973 H   0  0  0  0  0  0  0  0  0  0  0  0
   58.7544   21.3178   45.4769 H   0  0  0  0  0  0  0  0  0  0  0  0
   58.3000   23.6680   45.7270 H   0  0  0  0  0  0  0  0  0  0  0  0
   59.3297   26.3205   46.7025 H   0  0  0  0  0  0  0  0  0  0  0  0
   60.7695   28.3776   46.7983 H   0  0  0  0  0  0  0  0  0  0  0  0
   59.5187   30.4111   48.9009 H   0  0  0  0  0  0  0  0  0  0  0  0
   58.0325   33.3785   52.0740 H   0  0  0  0  0  0  0  0  0  0  0  0
   56.5799   32.4831   51.4922 H   0  0  0  0  0  0  0  0  0  0  0  0
   58.3765   31.7931   53.8717 H   0  0  0  0  0  0  0  0  0  0  0  0
   56.6403   32.2482   53.8996 H   0  0  0  0  0  0  0  0  0  0  0  0
  1  2  1  0
  2  3  2  0
  2  4  1  0
  4  5  1  0
  5  6  1  0
  6  7  1  0
  7  8  1  0
  8  9  2  0
  9 10  1  0
 10 11  2  0
 11 12  1  0
 11 13  1  0
 13 14  1  0
 14 15  1  0
 15 16  1  0
 16 17  2  0
 16 18  1  0
 18 19  2  0
 18 20  1  0
 20 21  2  0
 21 22  1  0
 22 23  1  0
 23 24  2  0
 23 25  2  0
 23 26  1  0
 26 27  2  3
 27 28  1  0
 28 29  2  0
 29 30  1  0
 30 31  2  0
 31 32  1  0
 22 33  2  0
 33 34  1  0
 34 35  2  0
 13 36  2  0
  7 37  1  0
 37 38  1  0
 38  4  1  0
 36  8  1  0
 35 15  1  0
 35 20  1  0
 32 27  1  0
  1 39  1  0
  1 40  1  0
  1 41  1  0
  5 42  1  0
  5 43  1  0
  6 44  1  0
  6 45  1  0
  9 46  1  0
 10 47  1  0
 14 48  1  0
 14 49  1  0
 21 50  1  0
 28 51  1  0
 29 52  1  0
 30 53  1  0
 31 54  1  0
 32 55  1  0
 33 56  1  0
 34 57  1  0
 36 58  1  0
 37 59  1  0
 37 60  1  0
 38 61  1  0
 38 62  1  0
M  END
>  <UniqueID>  (32) 
31

>  <SMILES>  (32) 
CC(=O)N1CCN(c2ccc(F)c(CN3C(=O)C(=O)c4cc(S(=O)(=O)N=c5cccc[nH]5)ccc43)c2)CC1

>  <Energy>  (32) 
107.13633008227077

>  <Genealogy>  (32) 
CC(=O)N1CCN(c2ccc(F)c(CN3C(=O)C(=O)c4cc(S(=O)(=O)N=c5cccc[nH]5)ccc43)c2)CC1 (3D coordinates assigned)
CC(=O)N1CCN(c2ccc(F)c(CN3C(=O)C(=O)c4cc(S(=O)(=O)N=c5cccc[nH]5)ccc43)c2)CC1 (nonaromatic ring conformer: 107.13633008227077 kcal/mol)

>  <smiles>  (32) 
CC(=O)N1CCN(c2ccc(F)c(CN3C(=O)C(=O)c4cc(S(=O)(=O)N=c5cccc[nH]5)ccc43)c2)CC1

>  <score_type>  (32) 
oracle

>  <origin>  (32) 
adg

>  <m_score__min__energy>  (32) 
-10.039999999999999

>  <m_primary>  (32) 
energy

$$$$
32:0
     RDKit          3D

 51 54  0  0  0  0  0  0  0  0999 V2000
   54.9660   23.9930   44.9700 C   0  0  0  0  0  0  0  0  0  0  0  0
   55.0130   25.1470   45.6320 C   0  0  0  0  0  0  0  0  0  0  0  0
   56.2590   25.6570   46.2250 C   0  0  0  0  0  0  0  0  0  0  0  0
   57.0140   25.0100   47.1720 C   0  0  0  0  0  0  0  0  0  0  0  0
   58.0790   25.7710   47.4750 N   0  0  0  0  0  0  0  0  0  0  0  0
   57.9360   26.8670   46.6960 C   0  0  0  0  0  0  0  0  0  0  0  0
   58.8940   27.9940   46.6980 C   0  0  0  0  0  0  0  0  0  0  0  0
   59.6430   28.2960   45.5480 C   0  0  0  0  0  0  0  0  0  0  0  0
   60.5520   29.3590   45.5540 C   0  0  0  0  0  0  0  0  0  0  0  0
   60.7350   30.1300   46.7150 C   0  0  0  0  0  0  0  0  0  0  0  0
   61.6350   31.2050   46.7580 O   0  0  0  0  0  0  0  0  0  0  0  0
   61.8620   32.0230   47.8740 C   0  0  0  0  0  0  0  0  0  0  0  0
   62.9460   31.7210   48.7080 C   0  0  0  0  0  0  0  0  0  0  0  0
   63.2190   32.5080   49.8280 C   0  0  0  0  0  0  0  0  0  0  0  0
   62.4160   33.6110   50.1180 C   0  0  0  0  0  0  0  0  0  0  0  0
   61.3460   33.9380   49.2830 C   0  0  0  0  0  0  0  0  0  0  0  0
   61.0650   33.1570   48.1430 C   0  0  0  0  0  0  0  0  0  0  0  0
   60.0280   33.4840   47.2530 O   0  0  0  0  0  0  0  0  0  0  0  0
   58.7630   32.8270   47.1720 C   0  0  0  0  0  0  0  0  0  0  0  0
   58.4210   32.5090   45.7420 C   0  0  0  0  0  0  0  0  0  0  0  0
   58.7700   33.3940   44.7100 C   0  0  0  0  0  0  0  0  0  0  0  0
   58.4380   33.0970   43.3850 C   0  0  0  0  0  0  0  0  0  0  0  0
   57.7500   31.9190   43.0820 C   0  0  0  0  0  0  0  0  0  0  0  0
   57.3920   31.0290   44.1050 C   0  0  0  0  0  0  0  0  0  0  0  0
   56.5110   29.5500   43.7320 S   0  0  0  0  0  0  0  0  0  0  0  0
   55.2300   29.3400   44.8730 N   0  0  0  0  0  0  0  0  0  0  0  0
   57.4450   28.3740   43.7990 O   0  0  0  0  0  0  0  0  0  0  0  0
   55.9360   29.6310   42.3460 O   0  0  0  0  0  0  0  0  0  0  0  0
   57.7190   31.3320   45.4330 C   0  0  0  0  0  0  0  0  0  0  0  0
   59.9740   29.8440   47.8520 C   0  0  0  0  0  0  0  0  0  0  0  0
   59.0660   28.7820   47.8500 C   0  0  0  0  0  0  0  0  0  0  0  0
   56.8330   26.8330   45.9160 N   0  0  0  0  0  0  0  0  0  0  0  0
   54.0156   23.6438   44.5401 H   0  0  0  0  0  0  0  0  0  0  0  0
   55.8776   23.3886   44.8529 H   0  0  0  0  0  0  0  0  0  0  0  0
   54.0913   25.7377   45.7390 H   0  0  0  0  0  0  0  0  0  0  0  0
   56.7842   24.0280   47.6113 H   0  0  0  0  0  0  0  0  0  0  0  0
   59.5136   27.6926   44.6374 H   0  0  0  0  0  0  0  0  0  0  0  0
   61.1266   29.5928   44.6456 H   0  0  0  0  0  0  0  0  0  0  0  0
   63.5871   30.8570   48.4786 H   0  0  0  0  0  0  0  0  0  0  0  0
   64.0675   32.2583   50.4820 H   0  0  0  0  0  0  0  0  0  0  0  0
   62.6262   34.2245   51.0065 H   0  0  0  0  0  0  0  0  0  0  0  0
   60.7180   34.8106   49.5159 H   0  0  0  0  0  0  0  0  0  0  0  0
   58.8037   31.8921   47.7503 H   0  0  0  0  0  0  0  0  0  0  0  0
   57.9903   33.4946   47.5809 H   0  0  0  0  0  0  0  0  0  0  0  0
   59.3069   34.3249   44.9448 H   0  0  0  0  0  0  0  0  0  0  0  0
   58.7187   33.7916   42.5796 H   0  0  0  0  0  0  0  0  0  0  0  0
   57.4886   31.6892   42.0385 H   0  0  0  0  0  0  0  0  0  0  0  0
   55.4930   28.5300   45.4790 H   0  0  0  0  0  0  0  0  0  0  0  0
   57.4242   30.6439   46.2390 H   0  0  0  0  0  0  0  0  0  0  0  0
   60.0909   30.4600   48.7558 H   0  0  0  0  0  0  0  0  0  0  0  0
   58.4819   28.5609   48.7555 H   0  0  0  0  0  0  0  0  0  0  0  0
  1  2  2  0
  2  3  1  0
  3  4  2  0
  4  5  1  0
  5  6  1  0
  6  7  1  0
  7  8  2  0
  8  9  1  0
  9 10  2  0
 10 11  1  0
 11 12  1  0
 12 13  2  0
 13 14  1  0
 14 15  2  0
 15 16  1  0
 16 17  2  0
 17 18  1  0
 18 19  1  0
 19 20  1  0
 20 21  2  0
 21 22  1  0
 22 23  2  0
 23 24  1  0
 24 25  1  0
 25 26  1  0
 25 27  2  0
 25 28  2  0
 24 29  2  0
 10 30  1  0
 30 31  2  0
  6 32  2  0
 32  3  1  0
 31  7  1  0
 17 12  1  0
 29 20  1  0
  1 33  1  0
  1 34  1  0
  2 35  1  0
  4 36  1  0
  8 37  1  0
  9 38  1  0
 13 39  1  0
 14 40  1  0
 15 41  1  0
 16 42  1  0
 19 43  1  0
 19 44  1  0
 21 45  1  0
 22 46  1  0
 23 47  1  0
 26 48  1  0
 29 49  1  0
 30 50  1  0
 31 51  1  0
M  CHG  2   5  -1  26  -1
M  END
>  <UniqueID>  (33) 
32

>  <SMILES>  (33) 
C=Cc1c[n-]c(-c2ccc(Oc3ccccc3OCc3cccc(S([NH-])(=O)=O)c3)cc2)n1

>  <Energy>  (33) 
88.06804825467619

>  <Genealogy>  (33) 
C=Cc1c[n-]c(-c2ccc(Oc3ccccc3OCc3cccc(S([NH-])(=O)=O)c3)cc2)n1 (protonated)
C=Cc1c[n-]c(-c2ccc(Oc3ccccc3OCc3cccc(S([NH-])(=O)=O)c3)cc2)n1 (3D coordinates assigned)
C=Cc1c[n-]c(-c2ccc(Oc3ccccc3OCc3cccc(S([NH-])(=O)=O)c3)cc2)n1 (optimized conformer: 88.06804825467619 kcal/mol)

>  <smiles>  (33) 
C=Cc1c[nH]c(-c2ccc(Oc3ccccc3OCc3cccc(S(N)(=O)=O)c3)cc2)n1

>  <score_type>  (33) 
oracle

>  <origin>  (33) 
adg

>  <m_score__min__energy>  (33) 
-13.66

>  <m_primary>  (33) 
energy

$$$$
33:0
     RDKit          3D

 34 36  0  0  0  0  0  0  0  0999 V2000
   64.5230   32.3050   46.7340 H   0  0  0  0  0  0  0  0  0  0  0  0
   63.9060   32.3260   47.5360 O   0  0  0  0  0  0  0  0  0  0  0  0
   62.5290   32.4810   47.3910 C   0  0  0  0  0  0  0  0  0  0  0  0
   62.0260   33.6110   46.7390 C   0  0  0  0  0  0  0  0  0  0  0  0
   62.7174   34.3730   46.3501 H   0  0  0  0  0  0  0  0  0  0  0  0
   60.6470   33.7750   46.5800 C   0  0  0  0  0  0  0  0  0  0  0  0
   60.2554   34.6645   46.0648 H   0  0  0  0  0  0  0  0  0  0  0  0
   59.7650   32.8100   47.0750 C   0  0  0  0  0  0  0  0  0  0  0  0
   58.6809   32.9378   46.9392 H   0  0  0  0  0  0  0  0  0  0  0  0
   60.2570   31.6780   47.7450 C   0  0  0  0  0  0  0  0  0  0  0  0
   59.3120   30.6200   48.2410 C   0  0  0  0  0  0  0  0  0  0  0  0
   58.5538   31.0837   48.8892 H   0  0  0  0  0  0  0  0  0  0  0  0
   59.8786   29.8674   48.8089 H   0  0  0  0  0  0  0  0  0  0  0  0
   58.6350   29.9550   47.0840 C   0  0  0  0  0  0  0  0  0  0  0  0
   58.6120   28.5960   46.8460 C   0  0  0  0  0  0  0  0  0  0  0  0
   59.0382   27.8095   47.4861 H   0  0  0  0  0  0  0  0  0  0  0  0
   57.9470   28.4150   45.6430 C   0  0  0  0  0  0  0  0  0  0  0  0
   57.6940   27.2000   45.1210 C   0  0  0  0  0  0  0  0  0  0  0  0
   57.9111   27.0577   44.0521 H   0  0  0  0  0  0  0  0  0  0  0  0
   57.1530   26.0470   45.8550 C   0  0  0  0  0  0  0  0  0  0  0  0
   57.9170   25.0770   46.3830 N   0  0  0  0  0  0  0  0  0  0  0  0
   57.0310   24.3170   47.0640 C   0  0  0  0  0  0  0  0  0  0  0  0
   57.3690   23.2800   47.6930 O   0  0  0  0  0  0  0  0  0  0  0  0
   55.7560   24.7620   47.0280 N   0  0  0  0  0  0  0  0  0  0  0  0
   55.8530   25.8670   46.2720 C   0  0  0  0  0  0  0  0  0  0  0  0
   54.7810   26.7050   45.9920 O   0  0  0  0  0  0  0  0  0  0  0  0
   57.6490   29.7030   45.1700 C   0  0  0  0  0  0  0  0  0  0  0  0
   57.1630   30.0550   43.9750 C   0  0  0  0  0  0  0  0  0  0  0  0
   56.8395   29.2813   43.2632 H   0  0  0  0  0  0  0  0  0  0  0  0
   57.0867   31.1183   43.7038 H   0  0  0  0  0  0  0  0  0  0  0  0
   58.0560   30.6220   46.0700 N   0  0  0  0  0  0  0  0  0  0  0  0
   57.9960   31.6620   45.9730 H   0  0  0  0  0  0  0  0  0  0  0  0
   61.6450   31.5120   47.8890 C   0  0  0  0  0  0  0  0  0  0  0  0
   62.0401   30.6184   48.3944 H   0  0  0  0  0  0  0  0  0  0  0  0
  1  2  1  0
  2  3  1  0
  3  4  2  0
  4  5  1  0
  4  6  1  0
  6  7  1  0
  6  8  2  0
  8  9  1  0
  8 10  1  0
 10 11  1  0
 11 12  1  0
 11 13  1  0
 11 14  1  0
 14 15  2  0
 15 16  1  0
 15 17  1  0
 17 18  2  0
 18 19  1  0
 18 20  1  0
 20 21  1  0
 21 22  1  0
 22 23  2  0
 22 24  1  0
 24 25  1  0
 25 26  1  0
 17 27  1  0
 27 28  2  0
 28 29  1  0
 28 30  1  0
 27 31  1  0
 31 32  1  0
 10 33  2  0
 33 34  1  0
 33  3  1  0
 31 14  1  0
 25 20  2  0
M  CHG  3  21  -1  24  -1  26  -1
M  END
>  <UniqueID>  (34) 
33

>  <SMILES>  (34) 
C=c1[nH]c(Cc2cccc(O)c2)c/c1=C/c1[n-]c(=O)[n-]c1[O-]

>  <Energy>  (34) 
101.7013579178053

>  <Genealogy>  (34) 
C=c1[nH]c(Cc2cccc(O)c2)cc1=Cc1[n-]c(=O)[n-]c1[O-] (protonated)
C=c1[nH]c(Cc2cccc(O)c2)c/c1=C/c1[n-]c(=O)[n-]c1[O-] (cis-trans isomerization)
C=c1[nH]c(Cc2cccc(O)c2)c/c1=C/c1[n-]c(=O)[n-]c1[O-] (3D coordinates assigned)
C=c1[nH]c(Cc2cccc(O)c2)c/c1=C/c1[n-]c(=O)[n-]c1[O-] (optimized conformer: 101.7013579178053 kcal/mol)

>  <smiles>  (34) 
C=c1[nH]c(Cc2cccc(O)c2)cc1=Cc1[nH]c(=O)[nH]c1O

>  <score_type>  (34) 
oracle

>  <origin>  (34) 
adg

>  <m_score__min__energy>  (34) 
-16.079999999999998

>  <m_primary>  (34) 
energy

$$$$
34:0
     RDKit          3D

 40 41  0  0  0  0  0  0  0  0999 V2000
   60.6200   27.8500   45.7400 C   0  0  0  0  0  0  0  0  0  0  0  0
   59.8790   28.7430   44.7510 C   0  0  0  0  0  0  0  0  0  0  0  0
   58.4700   28.8860   45.1460 N   0  0  0  0  0  0  0  0  0  0  0  0
   57.4960   29.4020   44.1760 C   0  0  0  0  0  0  0  0  0  0  0  0
   57.2060   30.8400   44.4630 C   0  0  0  0  0  0  0  0  0  0  0  0
   56.0100   31.2270   44.5590 O   0  0  0  0  0  0  0  0  0  0  0  0
   58.2910   31.7600   44.6360 N   0  0  0  0  0  0  0  0  0  0  0  0
   58.8500   32.1900   45.8860 C   0  0  0  0  0  0  0  0  0  0  0  0
   59.9890   31.5710   46.4330 C   0  0  0  0  0  0  0  0  0  0  0  0
   60.4990   31.9940   47.6630 C   0  0  0  0  0  0  0  0  0  0  0  0
   61.9230   31.2190   48.3340 Cl  0  0  0  0  0  0  0  0  0  0  0  0
   59.8720   33.0270   48.3610 C   0  0  0  0  0  0  0  0  0  0  0  0
   58.7260   33.6310   47.8410 C   0  0  0  0  0  0  0  0  0  0  0  0
   58.2010   33.2120   46.6020 C   0  0  0  0  0  0  0  0  0  0  0  0
   57.0450   33.7870   46.0510 O   0  0  0  0  0  0  0  0  0  0  0  0
   57.0230   34.5770   44.8670 C   0  0  0  0  0  0  0  0  0  0  0  0
   58.0190   28.2980   46.3800 C   0  0  0  0  0  0  0  0  0  0  0  0
   58.2650   28.8810   47.4710 O   0  0  0  0  0  0  0  0  0  0  0  0
   57.2380   27.0430   46.3810 C   0  0  0  0  0  0  0  0  0  0  0  0
   57.8100   25.8340   46.8050 C   0  0  0  0  0  0  0  0  0  0  0  0
   57.0210   24.6830   46.7990 C   0  0  0  0  0  0  0  0  0  0  0  0
   57.5050   23.5810   47.1670 O   0  0  0  0  0  0  0  0  0  0  0  0
   55.7260   24.7510   46.3950 N   0  0  0  0  0  0  0  0  0  0  0  0
   55.1820   25.9280   45.9950 C   0  0  0  0  0  0  0  0  0  0  0  0
   53.9800   25.9730   45.6260 O   0  0  0  0  0  0  0  0  0  0  0  0
   55.9350   27.0590   45.9930 N   0  0  0  0  0  0  0  0  0  0  0  0
   60.3686   28.1529   46.7671 H   0  0  0  0  0  0  0  0  0  0  0  0
   60.3218   26.8029   45.5832 H   0  0  0  0  0  0  0  0  0  0  0  0
   61.7042   27.9499   45.5832 H   0  0  0  0  0  0  0  0  0  0  0  0
   60.3530   29.7355   44.7332 H   0  0  0  0  0  0  0  0  0  0  0  0
   59.9249   28.2843   43.7522 H   0  0  0  0  0  0  0  0  0  0  0  0
   57.9080   29.3085   43.1603 H   0  0  0  0  0  0  0  0  0  0  0  0
   56.5647   28.8219   44.2540 H   0  0  0  0  0  0  0  0  0  0  0  0
   60.4802   30.7503   45.8897 H   0  0  0  0  0  0  0  0  0  0  0  0
   60.2820   33.3663   49.3237 H   0  0  0  0  0  0  0  0  0  0  0  0
   58.2304   34.4378   48.4009 H   0  0  0  0  0  0  0  0  0  0  0  0
   56.9933   35.6427   45.1378 H   0  0  0  0  0  0  0  0  0  0  0  0
   57.9271   34.3744   44.2741 H   0  0  0  0  0  0  0  0  0  0  0  0
   56.1315   34.3244   44.2741 H   0  0  0  0  0  0  0  0  0  0  0  0
   58.8585   25.7943   47.1352 H   0  0  0  0  0  0  0  0  0  0  0  0
  1  2  1  0
  2  3  1  0
  3  4  1  0
  4  5  1  0
  5  6  2  0
  5  7  1  0
  7  8  1  0
  8  9  2  0
  9 10  1  0
 10 11  1  0
 10 12  2  0
 12 13  1  0
 13 14  2  0
 14 15  1  0
 15 16  1  0
  3 17  1  0
 17 18  2  0
 17 19  1  0
 19 20  2  0
 20 21  1  0
 21 22  2  0
 21 23  1  0
 23 24  1  0
 24 25  2  0
 24 26  1  0
 14  8  1  0
 26 19  1  0
  1 27  1  0
  1 28  1  0
  1 29  1  0
  2 30  1  0
  2 31  1  0
  4 32  1  0
  4 33  1  0
  9 34  1  0
 12 35  1  0
 13 36  1  0
 16 37  1  0
 16 38  1  0
 16 39  1  0
 20 40  1  0
M  CHG  3   7  -1  23  -1  26  -1
M  END
>  <UniqueID>  (35) 
34

>  <SMILES>  (35) 
CCN(CC(=O)[N-]c1cc(Cl)ccc1OC)C(=O)c1cc(=O)[n-]c(=O)[n-]1

>  <Energy>  (35) 
42.967219123069455

>  <Genealogy>  (35) 
CCN(CC(=O)[N-]c1cc(Cl)ccc1OC)C(=O)c1cc(=O)[n-]c(=O)[n-]1 (protonated)
CCN(CC(=O)[N-]c1cc(Cl)ccc1OC)C(=O)c1cc(=O)[n-]c(=O)[n-]1 (3D coordinates assigned)
CCN(CC(=O)[N-]c1cc(Cl)ccc1OC)C(=O)c1cc(=O)[n-]c(=O)[n-]1 (optimized conformer: 42.967219123069455 kcal/mol)

>  <smiles>  (35) 
CCN(CC(=O)Nc1cc(Cl)ccc1OC)C(=O)c1cc(=O)[nH]c(=O)[nH]1

>  <score_type>  (35) 
oracle

>  <origin>  (35) 
adg

>  <m_score__min__energy>  (35) 
-13.84

>  <m_primary>  (35) 
energy

$$$$
35:0
     RDKit          3D

 38 40  0  0  0  0  0  0  0  0999 V2000
   59.3050   35.7330   44.8500 N   0  0  0  0  0  0  0  0  0  0  0  0
   59.1970   34.8000   45.7410 C   0  0  0  0  0  0  0  0  0  0  0  0
   58.0170   34.0580   45.8360 C   0  0  0  0  0  0  0  0  0  0  0  0
   57.9140   33.0550   46.8010 C   0  0  0  0  0  0  0  0  0  0  0  0
   58.9900   32.7890   47.6670 C   0  0  0  0  0  0  0  0  0  0  0  0
   58.9130   31.7360   48.7120 C   0  0  0  0  0  0  0  0  0  0  0  0
   58.2640   31.9540   49.9380 C   0  0  0  0  0  0  0  0  0  0  0  0
   58.2270   30.9190   50.8700 C   0  0  0  0  0  0  0  0  0  0  0  0
   58.8060   29.7270   50.5840 N   0  0  0  0  0  0  0  0  0  0  0  0
   59.4280   29.5170   49.3920 C   0  0  0  0  0  0  0  0  0  0  0  0
   59.9830   28.3740   49.1170 N   0  0  0  0  0  0  0  0  0  0  0  0
   60.6000   28.0290   47.8370 C   0  0  0  0  0  0  0  0  0  0  0  0
   59.5500   27.6370   46.8320 C   0  0  0  0  0  0  0  0  0  0  0  0
   59.3520   26.2890   46.4920 C   0  0  0  0  0  0  0  0  0  0  0  0
   58.3930   25.9370   45.5390 C   0  0  0  0  0  0  0  0  0  0  0  0
   57.6240   26.9260   44.9200 C   0  0  0  0  0  0  0  0  0  0  0  0
   57.8070   28.2730   45.2540 C   0  0  0  0  0  0  0  0  0  0  0  0
   56.8520   29.5210   44.4610 S   0  0  0  0  0  0  0  0  0  0  0  0
   55.1850   29.3060   44.8600 N   0  0  0  0  0  0  0  0  0  0  0  0
   57.0290   29.4260   42.9720 O   0  0  0  0  0  0  0  0  0  0  0  0
   57.3070   30.8790   44.9160 O   0  0  0  0  0  0  0  0  0  0  0  0
   58.7750   28.6270   46.2050 C   0  0  0  0  0  0  0  0  0  0  0  0
   59.4720   30.5170   48.4720 N   0  0  0  0  0  0  0  0  0  0  0  0
   60.1520   33.5710   47.5380 C   0  0  0  0  0  0  0  0  0  0  0  0
   60.2280   34.5420   46.5890 N   0  0  0  0  0  0  0  0  0  0  0  0
   58.4900   36.0280   44.2670 H   0  0  0  0  0  0  0  0  0  0  0  0
   57.1767   34.2625   45.1563 H   0  0  0  0  0  0  0  0  0  0  0  0
   56.9866   32.4695   46.8848 H   0  0  0  0  0  0  0  0  0  0  0  0
   57.7937   32.9236   50.1584 H   0  0  0  0  0  0  0  0  0  0  0  0
   57.7276   31.0691   51.8386 H   0  0  0  0  0  0  0  0  0  0  0  0
   61.1567   28.8987   47.4578 H   0  0  0  0  0  0  0  0  0  0  0  0
   61.2809   27.1785   47.9890 H   0  0  0  0  0  0  0  0  0  0  0  0
   59.9543   25.5072   46.9779 H   0  0  0  0  0  0  0  0  0  0  0  0
   58.2430   24.8796   45.2755 H   0  0  0  0  0  0  0  0  0  0  0  0
   56.8723   26.6451   44.1677 H   0  0  0  0  0  0  0  0  0  0  0  0
   55.1430   28.5970   45.6250 H   0  0  0  0  0  0  0  0  0  0  0  0
   58.9283   29.6856   46.4614 H   0  0  0  0  0  0  0  0  0  0  0  0
   61.0054   33.3959   48.2096 H   0  0  0  0  0  0  0  0  0  0  0  0
  1  2  2  3
  2  3  1  0
  3  4  2  0
  4  5  1  0
  5  6  1  0
  6  7  1  0
  7  8  2  0
  8  9  1  0
  9 10  1  0
 10 11  2  3
 11 12  1  0
 12 13  1  0
 13 14  2  0
 14 15  1  0
 15 16  2  0
 16 17  1  0
 17 18  1  0
 18 19  1  0
 18 20  2  0
 18 21  2  0
 17 22  2  0
 10 23  1  0
  5 24  2  0
 24 25  1  0
 25  2  1  0
 23  6  2  0
 22 13  1  0
  1 26  1  0
  3 27  1  0
  4 28  1  0
  7 29  1  0
  8 30  1  0
 12 31  1  0
 12 32  1  0
 14 33  1  0
 15 34  1  0
 16 35  1  0
 19 36  1  0
 22 37  1  0
 24 38  1  0
M  CHG  3   9  -1  19  -1  25  -1
M  END
>  <UniqueID>  (36) 
35

>  <SMILES>  (36) 
N=c1ccc(-c2cc[n-]c(=NCc3cccc(S([NH-])(=O)=O)c3)n2)c[n-]1

>  <Energy>  (36) 
45.06249744787529

>  <Genealogy>  (36) 
N=c1ccc(-c2cc[n-]c(=NCc3cccc(S([NH-])(=O)=O)c3)n2)c[n-]1 (protonated)
N=c1ccc(-c2cc[n-]c(=NCc3cccc(S([NH-])(=O)=O)c3)n2)c[n-]1 (3D coordinates assigned)
N=c1ccc(-c2cc[n-]c(=NCc3cccc(S([NH-])(=O)=O)c3)n2)c[n-]1 (optimized conformer: 45.06249744787529 kcal/mol)

>  <smiles>  (36) 
N=c1ccc(-c2cc[nH]c(=NCc3cccc(S(N)(=O)=O)c3)n2)c[nH]1

>  <score_type>  (36) 
oracle

>  <origin>  (36) 
adg

>  <m_score__min__energy>  (36) 
-13.52

>  <m_primary>  (36) 
energy

$$$$
36:0
     RDKit          3D

 56 59  0  0  0  0  0  0  0  0999 V2000
   55.7000   28.6890   43.9420 H   0  0  0  0  0  0  0  0  0  0  0  0
   55.6100   28.5960   44.9460 O   0  0  0  0  0  0  0  0  0  0  0  0
   56.2100   27.5340   45.6150 C   0  0  0  0  0  0  0  0  0  0  0  0
   55.5240   26.5440   46.2120 N   0  0  0  0  0  0  0  0  0  0  0  0
   56.5020   25.8020   46.7730 C   0  0  0  0  0  0  0  0  0  0  0  0
   56.2660   24.7630   47.4430 O   0  0  0  0  0  0  0  0  0  0  0  0
   57.7540   26.2660   46.5710 N   0  0  0  0  0  0  0  0  0  0  0  0
   57.5630   27.3590   45.8090 C   0  0  0  0  0  0  0  0  0  0  0  0
   58.6560   28.2560   45.3940 C   0  0  0  0  0  0  0  0  0  0  0  0
   59.4821   27.8275   44.8076 H   0  0  0  0  0  0  0  0  0  0  0  0
   58.7040   29.5700   45.6900 C   0  0  0  0  0  0  0  0  0  0  0  0
   59.2660   30.1370   46.8250 C   0  0  0  0  0  0  0  0  0  0  0  0
   59.7760   29.6046   47.6413 H   0  0  0  0  0  0  0  0  0  0  0  0
   59.0610   31.4980   46.7310 C   0  0  0  0  0  0  0  0  0  0  0  0
   59.5130   32.4670   47.7450 C   0  0  0  0  0  0  0  0  0  0  0  0
   58.6780   32.8990   48.5860 O   0  0  0  0  0  0  0  0  0  0  0  0
   60.8930   32.8740   47.8290 N   0  0  0  0  0  0  0  0  0  0  0  0
   61.9580   31.9440   47.4160 C   0  0  0  0  0  0  0  0  0  0  0  0
   61.7137   30.9361   47.7826 H   0  0  0  0  0  0  0  0  0  0  0  0
   62.0204   31.9581   46.3179 H   0  0  0  0  0  0  0  0  0  0  0  0
   63.3230   32.3620   47.9800 C   0  0  0  0  0  0  0  0  0  0  0  0
   64.0201   31.5138   47.9127 H   0  0  0  0  0  0  0  0  0  0  0  0
   63.7102   33.2104   47.3966 H   0  0  0  0  0  0  0  0  0  0  0  0
   63.1770   32.7860   49.4520 C   0  0  0  0  0  0  0  0  0  0  0  0
   62.7365   31.9428   50.0043 H   0  0  0  0  0  0  0  0  0  0  0  0
   64.5330   33.0870   50.0490 C   0  0  0  0  0  0  0  0  0  0  0  0
   65.5730   32.7810   49.4030 O   0  0  0  0  0  0  0  0  0  0  0  0
   64.6580   33.7060   51.3430 N   0  0  0  0  0  0  0  0  0  0  0  0
   63.9140   33.1770   52.4930 C   0  0  0  0  0  0  0  0  0  0  0  0
   62.9221   32.8364   52.1610 H   0  0  0  0  0  0  0  0  0  0  0  0
   64.4691   32.3327   52.9278 H   0  0  0  0  0  0  0  0  0  0  0  0
   63.7480   34.2720   53.5510 C   0  0  0  0  0  0  0  0  0  0  0  0
   63.0823   35.0547   53.1584 H   0  0  0  0  0  0  0  0  0  0  0  0
   63.3180   33.8229   54.4584 H   0  0  0  0  0  0  0  0  0  0  0  0
   64.9980   34.8480   53.8790 O   0  0  0  0  0  0  0  0  0  0  0  0
   65.5250   35.5190   52.7510 C   0  0  0  0  0  0  0  0  0  0  0  0
   64.7882   36.2520   52.3907 H   0  0  0  0  0  0  0  0  0  0  0  0
   66.4563   36.0251   53.0451 H   0  0  0  0  0  0  0  0  0  0  0  0
   65.8390   34.5280   51.6260 C   0  0  0  0  0  0  0  0  0  0  0  0
   66.1233   35.0827   50.7197 H   0  0  0  0  0  0  0  0  0  0  0  0
   66.6685   33.8762   51.9376 H   0  0  0  0  0  0  0  0  0  0  0  0
   62.1980   33.9810   49.6200 C   0  0  0  0  0  0  0  0  0  0  0  0
   61.5885   33.8091   50.5194 H   0  0  0  0  0  0  0  0  0  0  0  0
   62.8081   34.8928   49.7003 H   0  0  0  0  0  0  0  0  0  0  0  0
   61.2540   34.1690   48.4190 C   0  0  0  0  0  0  0  0  0  0  0  0
   60.3394   34.6787   48.7561 H   0  0  0  0  0  0  0  0  0  0  0  0
   61.7704   34.7709   47.6567 H   0  0  0  0  0  0  0  0  0  0  0  0
   58.3720   31.7980   45.6050 N   0  0  0  0  0  0  0  0  0  0  0  0
   57.8630   33.1180   45.2110 C   0  0  0  0  0  0  0  0  0  0  0  0
   57.6358   33.7072   46.1117 H   0  0  0  0  0  0  0  0  0  0  0  0
   58.6240   33.6409   44.6131 H   0  0  0  0  0  0  0  0  0  0  0  0
   56.9480   32.9946   44.6131 H   0  0  0  0  0  0  0  0  0  0  0  0
   58.1510   30.6260   44.9580 C   0  0  0  0  0  0  0  0  0  0  0  0
   57.4990   30.5280   43.7890 C   0  0  0  0  0  0  0  0  0  0  0  0
   57.1048   31.4319   43.3016 H   0  0  0  0  0  0  0  0  0  0  0  0
   57.3588   29.5438   43.3183 H   0  0  0  0  0  0  0  0  0  0  0  0
  1  2  1  0
  2  3  1  0
  3  4  1  0
  4  5  1  0
  5  6  2  0
  5  7  1  0
  7  8  1  0
  8  9  1  0
  9 10  1  0
  9 11  2  0
 11 12  1  0
 12 13  1  0
 12 14  2  0
 14 15  1  0
 15 16  2  0
 15 17  1  0
 17 18  1  0
 18 19  1  0
 18 20  1  0
 18 21  1  0
 21 22  1  0
 21 23  1  0
 21 24  1  0
 24 25  1  0
 24 26  1  0
 26 27  2  0
 26 28  1  0
 28 29  1  0
 29 30  1  0
 29 31  1  0
 29 32  1  0
 32 33  1  0
 32 34  1  0
 32 35  1  0
 35 36  1  0
 36 37  1  0
 36 38  1  0
 36 39  1  0
 39 40  1  0
 39 41  1  0
 24 42  1  0
 42 43  1  0
 42 44  1  0
 42 45  1  0
 45 46  1  0
 45 47  1  0
 14 48  1  0
 48 49  1  0
 49 50  1  0
 49 51  1  0
 49 52  1  0
 48 53  1  0
 53 54  2  0
 54 55  1  0
 54 56  1  0
  8  3  2  0
 53 11  1  0
 45 17  1  0
 39 28  1  0
M  CHG  2   4  -1   7  -1
M  END
>  <UniqueID>  (37) 
36

>  <SMILES>  (37) 
C=c1/c(=C/c2[n-]c(=O)[n-]c2O)cc(C(=O)N2CCC(C(=O)N3CCOCC3)CC2)n1C

>  <Energy>  (37) 
133.76402476174445

>  <Genealogy>  (37) 
C=c1c(=Cc2[n-]c(=O)[n-]c2O)cc(C(=O)N2CCC(C(=O)N3CCOCC3)CC2)n1C (protonated)
C=c1/c(=C/c2[n-]c(=O)[n-]c2O)cc(C(=O)N2CCC(C(=O)N3CCOCC3)CC2)n1C (cis-trans isomerization)
C=c1/c(=C/c2[n-]c(=O)[n-]c2O)cc(C(=O)N2CCC(C(=O)N3CCOCC3)CC2)n1C (3D coordinates assigned)
C=c1/c(=C/c2[n-]c(=O)[n-]c2O)cc(C(=O)N2CCC(C(=O)N3CCOCC3)CC2)n1C (nonaromatic ring conformer: 133.76402476174445 kcal/mol)

>  <smiles>  (37) 
C=c1c(=Cc2[nH]c(=O)[nH]c2O)cc(C(=O)N2CCC(C(=O)N3CCOCC3)CC2)n1C

>  <score_type>  (37) 
oracle

>  <origin>  (37) 
adg

>  <m_score__min__energy>  (37) 
-13.15

>  <m_primary>  (37) 
energy

$$$$
37:0
     RDKit          3D

 57 60  0  0  0  0  0  0  0  0999 V2000
   60.6150   27.2110   48.0420 C   0  0  0  0  0  0  0  0  0  0  0  0
   60.7600   28.6380   48.5560 C   0  0  0  0  0  0  0  0  0  0  0  0
   60.6020   28.6980   50.0830 C   0  0  0  0  0  0  0  0  0  0  0  0
   60.1380   30.0710   50.5140 C   0  0  0  0  0  0  0  0  0  0  0  0
   61.0970   31.0880   50.6620 C   0  0  0  0  0  0  0  0  0  0  0  0
   60.7440   32.3430   51.1740 C   0  0  0  0  0  0  0  0  0  0  0  0
   62.0320   33.5740   51.4560 S   0  0  0  0  0  0  0  0  0  0  0  0
   62.2970   33.9430   49.6830 C   0  0  0  0  0  0  0  0  0  0  0  0
   61.0360   34.5200   49.0080 C   0  0  0  0  0  0  0  0  0  0  0  0
   60.7240   33.8800   47.7130 N   0  0  0  0  0  0  0  0  0  0  0  0
   61.4150   32.5830   47.5100 C   0  0  0  0  0  0  0  0  0  0  0  0
   60.6050   31.6080   46.6550 C   0  0  0  0  0  0  0  0  0  0  0  0
   59.2340   31.3680   47.2960 C   0  0  0  0  0  0  0  0  0  0  0  0
   58.4210   30.4900   46.4360 N   0  0  0  0  0  0  0  0  0  0  0  0
   57.8910   29.2730   46.7420 C   0  0  0  0  0  0  0  0  0  0  0  0
   58.0800   28.6900   47.8440 O   0  0  0  0  0  0  0  0  0  0  0  0
   57.1270   28.7360   45.7600 N   0  0  0  0  0  0  0  0  0  0  0  0
   57.1790   29.6780   44.8000 C   0  0  0  0  0  0  0  0  0  0  0  0
   56.5530   29.6500   43.5560 C   0  0  0  0  0  0  0  0  0  0  0  0
   56.7310   30.7590   42.7060 C   0  0  0  0  0  0  0  0  0  0  0  0
   57.5260   31.8520   43.1120 C   0  0  0  0  0  0  0  0  0  0  0  0
   58.1460   31.8510   44.3750 C   0  0  0  0  0  0  0  0  0  0  0  0
   57.9500   30.7360   45.1980 C   0  0  0  0  0  0  0  0  0  0  0  0
   58.4890   32.6870   47.6270 C   0  0  0  0  0  0  0  0  0  0  0  0
   59.3000   33.9560   47.3030 C   0  0  0  0  0  0  0  0  0  0  0  0
   59.3990   32.6130   51.4840 C   0  0  0  0  0  0  0  0  0  0  0  0
   58.8880   34.1950   52.0680 Cl  0  0  0  0  0  0  0  0  0  0  0  0
   58.4340   31.6140   51.3200 C   0  0  0  0  0  0  0  0  0  0  0  0
   58.7900   30.3410   50.8630 C   0  0  0  0  0  0  0  0  0  0  0  0
   57.7880   29.3710   50.7790 O   0  0  0  0  0  0  0  0  0  0  0  0
   60.5447   26.5195   48.8946 H   0  0  0  0  0  0  0  0  0  0  0  0
   59.7042   27.1324   47.4302 H   0  0  0  0  0  0  0  0  0  0  0  0
   61.4913   26.9508   47.4302 H   0  0  0  0  0  0  0  0  0  0  0  0
   61.7556   29.0181   48.2832 H   0  0  0  0  0  0  0  0  0  0  0  0
   59.9709   29.2540   48.1000 H   0  0  0  0  0  0  0  0  0  0  0  0
   59.8609   27.9495   50.3999 H   0  0  0  0  0  0  0  0  0  0  0  0
   61.5758   28.4889   50.5498 H   0  0  0  0  0  0  0  0  0  0  0  0
   62.1403   30.8954   50.3714 H   0  0  0  0  0  0  0  0  0  0  0  0
   63.1127   34.6755   49.5926 H   0  0  0  0  0  0  0  0  0  0  0  0
   62.5459   32.9984   49.1772 H   0  0  0  0  0  0  0  0  0  0  0  0
   60.1805   34.3758   49.6843 H   0  0  0  0  0  0  0  0  0  0  0  0
   61.2302   35.5841   48.8082 H   0  0  0  0  0  0  0  0  0  0  0  0
   62.3774   32.7716   47.0118 H   0  0  0  0  0  0  0  0  0  0  0  0
   61.5514   32.1218   48.4993 H   0  0  0  0  0  0  0  0  0  0  0  0
   60.4683   32.0315   45.6491 H   0  0  0  0  0  0  0  0  0  0  0  0
   61.1449   30.6521   46.5855 H   0  0  0  0  0  0  0  0  0  0  0  0
   59.4020   30.8651   48.2598 H   0  0  0  0  0  0  0  0  0  0  0  0
   55.9399   28.7903   43.2476 H   0  0  0  0  0  0  0  0  0  0  0  0
   56.2467   30.7732   41.7184 H   0  0  0  0  0  0  0  0  0  0  0  0
   57.6618   32.7099   42.4370 H   0  0  0  0  0  0  0  0  0  0  0  0
   58.7645   32.6987   44.7048 H   0  0  0  0  0  0  0  0  0  0  0  0
   57.5557   32.7137   47.0454 H   0  0  0  0  0  0  0  0  0  0  0  0
   58.3085   32.6899   48.7121 H   0  0  0  0  0  0  0  0  0  0  0  0
   59.2608   34.1242   46.2166 H   0  0  0  0  0  0  0  0  0  0  0  0
   58.8466   34.7794   47.8743 H   0  0  0  0  0  0  0  0  0  0  0  0
   57.3815   31.8323   51.5535 H   0  0  0  0  0  0  0  0  0  0  0  0
   57.4000   29.0440   49.9080 H   0  0  0  0  0  0  0  0  0  0  0  0
  1  2  1  0
  2  3  1  0
  3  4  1  0
  4  5  2  0
  5  6  1  0
  6  7  1  0
  7  8  1  0
  8  9  1  0
  9 10  1  0
 10 11  1  0
 11 12  1  0
 12 13  1  0
 13 14  1  0
 14 15  1  0
 15 16  2  0
 15 17  1  0
 17 18  1  0
 18 19  2  0
 19 20  1  0
 20 21  2  0
 21 22  1  0
 22 23  2  0
 13 24  1  0
 24 25  1  0
  6 26  2  0
 26 27  1  0
 26 28  1  0
 28 29  2  0
 29 30  1  0
 29  4  1  0
 25 10  1  0
 23 14  1  0
 23 18  1  0
  1 31  1  0
  1 32  1  0
  1 33  1  0
  2 34  1  0
  2 35  1  0
  3 36  1  0
  3 37  1  0
  5 38  1  0
  8 39  1  0
  8 40  1  0
  9 41  1  0
  9 42  1  0
 11 43  1  0
 11 44  1  0
 12 45  1  0
 12 46  1  0
 13 47  1  0
 19 48  1  0
 20 49  1  0
 21 50  1  0
 22 51  1  0
 24 52  1  0
 24 53  1  0
 25 54  1  0
 25 55  1  0
 28 56  1  0
 30 57  1  0
M  CHG  1  17  -1
M  END
>  <UniqueID>  (38) 
37

>  <SMILES>  (38) 
CCCc1cc(SCCN2CCC(n3c(=O)[n-]c4ccccc43)CC2)c(Cl)cc1O

>  <Energy>  (38) 
101.60202945140259

>  <Genealogy>  (38) 
CCCc1cc(SCCN2CCC(n3c(=O)[n-]c4ccccc43)CC2)c(Cl)cc1O (protonated)
CCCc1cc(SCCN2CCC(n3c(=O)[n-]c4ccccc43)CC2)c(Cl)cc1O (3D coordinates assigned)
CCCc1cc(SCCN2CCC(n3c(=O)[n-]c4ccccc43)CC2)c(Cl)cc1O (nonaromatic ring conformer: 101.60202945140259 kcal/mol)

>  <smiles>  (38) 
CCCc1cc(SCCN2CCC(n3c(=O)[nH]c4ccccc43)CC2)c(Cl)cc1O

>  <score_type>  (38) 
oracle

>  <origin>  (38) 
adg

>  <m_score__min__energy>  (38) 
-10.75

>  <m_primary>  (38) 
energy

$$$$
38:0
     RDKit          3D

 52 55  0  0  0  0  0  0  0  0999 V2000
   64.3120   32.1605   48.8245 H   0  0  0  0  0  0  0  0  0  0  0  0
   63.4760   32.6030   48.2630 C   0  0  0  0  0  0  0  0  0  0  0  0
   63.7220   33.3010   47.0810 C   0  0  0  0  0  0  0  0  0  0  0  0
   64.7518   33.4042   46.7083 H   0  0  0  0  0  0  0  0  0  0  0  0
   62.6630   33.8690   46.3700 C   0  0  0  0  0  0  0  0  0  0  0  0
   62.8661   34.4125   45.4355 H   0  0  0  0  0  0  0  0  0  0  0  0
   61.3380   33.7550   46.8340 C   0  0  0  0  0  0  0  0  0  0  0  0
   60.2560   34.4010   46.0500 C   0  0  0  0  0  0  0  0  0  0  0  0
   59.8860   35.5650   46.3590 O   0  0  0  0  0  0  0  0  0  0  0  0
   59.6250   33.6890   44.9720 N   0  0  0  0  0  0  0  0  0  0  0  0
   58.6480   32.8260   45.0270 C   0  0  0  0  0  0  0  0  0  0  0  0
   58.7330   31.4440   45.1090 C   0  0  0  0  0  0  0  0  0  0  0  0
   59.6384   30.8207   45.1501 H   0  0  0  0  0  0  0  0  0  0  0  0
   57.4080   31.0320   45.1270 C   0  0  0  0  0  0  0  0  0  0  0  0
   56.9530   29.6250   45.1490 C   0  0  0  0  0  0  0  0  0  0  0  0
   55.7450   29.3770   44.8770 O   0  0  0  0  0  0  0  0  0  0  0  0
   57.8350   28.5350   45.4820 N   0  0  0  0  0  0  0  0  0  0  0  0
   57.3460   27.1850   45.7180 C   0  0  0  0  0  0  0  0  0  0  0  0
   56.6308   27.1766   46.5537 H   0  0  0  0  0  0  0  0  0  0  0  0
   56.8197   26.7841   44.8392 H   0  0  0  0  0  0  0  0  0  0  0  0
   58.5750   26.3570   46.0630 C   0  0  0  0  0  0  0  0  0  0  0  0
   58.6444   26.2073   47.1506 H   0  0  0  0  0  0  0  0  0  0  0  0
   58.5357   25.3585   45.6031 H   0  0  0  0  0  0  0  0  0  0  0  0
   59.7680   27.1650   45.5590 C   0  0  0  0  0  0  0  0  0  0  0  0
   60.6130   27.0779   46.2579 H   0  0  0  0  0  0  0  0  0  0  0  0
   60.1193   26.8035   44.5813 H   0  0  0  0  0  0  0  0  0  0  0  0
   59.2870   28.6070   45.4850 C   0  0  0  0  0  0  0  0  0  0  0  0
   59.6415   29.1753   46.3576 H   0  0  0  0  0  0  0  0  0  0  0  0
   59.6710   29.1188   44.5903 H   0  0  0  0  0  0  0  0  0  0  0  0
   56.5900   32.1060   45.0570 N   0  0  0  0  0  0  0  0  0  0  0  0
   57.3500   33.1870   45.0010 N   0  0  0  0  0  0  0  0  0  0  0  0
   56.8250   34.5460   44.9100 C   0  0  0  0  0  0  0  0  0  0  0  0
   56.6698   34.9477   45.9222 H   0  0  0  0  0  0  0  0  0  0  0  0
   57.5426   35.1809   44.3696 H   0  0  0  0  0  0  0  0  0  0  0  0
   55.8670   34.5336   44.3696 H   0  0  0  0  0  0  0  0  0  0  0  0
   61.0940   33.0250   48.0290 C   0  0  0  0  0  0  0  0  0  0  0  0
   59.4390   32.7260   48.6770 S   0  0  0  0  0  0  0  0  0  0  0  0
   59.8140   31.0370   49.1510 C   0  0  0  0  0  0  0  0  0  0  0  0
   60.0640   30.0720   48.1680 C   0  0  0  0  0  0  0  0  0  0  0  0
   60.0275   30.3505   47.1045 H   0  0  0  0  0  0  0  0  0  0  0  0
   60.3600   28.7550   48.5340 C   0  0  0  0  0  0  0  0  0  0  0  0
   60.5493   27.9989   47.7578 H   0  0  0  0  0  0  0  0  0  0  0  0
   60.4160   28.3960   49.8910 C   0  0  0  0  0  0  0  0  0  0  0  0
   60.7210   27.0500   50.2680 N   0  0  0  0  0  0  0  0  0  0  0  0
   60.2200   26.5900   51.0610 H   0  0  0  0  0  0  0  0  0  0  0  0
   61.4690   26.5120   49.7760 H   0  0  0  0  0  0  0  0  0  0  0  0
   60.1730   29.3680   50.8740 C   0  0  0  0  0  0  0  0  0  0  0  0
   60.2173   29.0937   51.9383 H   0  0  0  0  0  0  0  0  0  0  0  0
   59.8750   30.6830   50.5060 C   0  0  0  0  0  0  0  0  0  0  0  0
   59.6881   31.4412   51.2807 H   0  0  0  0  0  0  0  0  0  0  0  0
   62.1710   32.4660   48.7330 C   0  0  0  0  0  0  0  0  0  0  0  0
   61.9836   31.9138   49.6657 H   0  0  0  0  0  0  0  0  0  0  0  0
  1  2  1  0
  2  3  2  0
  3  4  1  0
  3  5  1  0
  5  6  1  0
  5  7  2  0
  7  8  1  0
  8  9  2  0
  8 10  1  0
 10 11  2  0
 11 12  1  0
 12 13  1  0
 12 14  2  0
 14 15  1  0
 15 16  2  0
 15 17  1  0
 17 18  1  0
 18 19  1  0
 18 20  1  0
 18 21  1  0
 21 22  1  0
 21 23  1  0
 21 24  1  0
 24 25  1  0
 24 26  1  0
 24 27  1  0
 27 28  1  0
 27 29  1  0
 14 30  1  0
 30 31  1  0
 31 32  1  0
 32 33  1  0
 32 34  1  0
 32 35  1  0
  7 36  1  0
 36 37  1  0
 37 38  1  0
 38 39  2  0
 39 40  1  0
 39 41  1  0
 41 42  1  0
 41 43  2  0
 43 44  1  0
 44 45  1  0
 44 46  1  0
 43 47  1  0
 47 48  1  0
 47 49  2  0
 49 50  1  0
 36 51  2  0
 51 52  1  0
 51  2  1  0
 31 11  1  0
 49 38  1  0
 27 17  1  0
M  CHG  1  30  -1
M  END
>  <UniqueID>  (39) 
38

>  <SMILES>  (39) 
Cn1[n-]c(C(=O)N2CCCC2)c/c1=N\C(=O)c1ccccc1Sc1ccc(N)cc1

>  <Energy>  (39) 
88.11959524036637

>  <Genealogy>  (39) 
Cn1[n-]c(C(=O)N2CCCC2)cc1=NC(=O)c1ccccc1Sc1ccc(N)cc1 (protonated)
Cn1[n-]c(C(=O)N2CCCC2)c/c1=N\C(=O)c1ccccc1Sc1ccc(N)cc1 (cis-trans isomerization)
Cn1[n-]c(C(=O)N2CCCC2)c/c1=N\C(=O)c1ccccc1Sc1ccc(N)cc1 (3D coordinates assigned)
Cn1[n-]c(C(=O)N2CCCC2)c/c1=N\C(=O)c1ccccc1Sc1ccc(N)cc1 (nonaromatic ring conformer: 88.11959524036637 kcal/mol)

>  <smiles>  (39) 
Cn1[nH]c(C(=O)N2CCCC2)cc1=NC(=O)c1ccccc1Sc1ccc(N)cc1

>  <score_type>  (39) 
oracle

>  <origin>  (39) 
adg

>  <m_score__min__energy>  (39) 
-11.02

>  <m_primary>  (39) 
energy

$$$$
39:0
     RDKit          3D

 54 57  0  0  0  0  0  0  0  0999 V2000
   54.4050   28.2280   53.2100 C   0  0  0  0  0  0  0  0  0  0  0  0
   54.7090   29.4330   52.7020 C   0  0  0  0  0  0  0  0  0  0  0  0
   53.8060   30.4430   52.3240 C   0  0  0  0  0  0  0  0  0  0  0  0
   52.4670   30.4270   52.1730 C   0  0  0  0  0  0  0  0  0  0  0  0
   51.7340   30.7930   50.9500 C   0  0  0  0  0  0  0  0  0  0  0  0
   51.6930   30.0490   49.8290 N   0  0  0  0  0  0  0  0  0  0  0  0
   51.0350   30.8440   48.9540 C   0  0  0  0  0  0  0  0  0  0  0  0
   50.7780   30.4860   47.7750 O   0  0  0  0  0  0  0  0  0  0  0  0
   50.6840   32.0560   49.4390 N   0  0  0  0  0  0  0  0  0  0  0  0
   51.1470   32.0090   50.7000 C   0  0  0  0  0  0  0  0  0  0  0  0
   51.0280   33.0590   51.6090 O   0  0  0  0  0  0  0  0  0  0  0  0
   54.5690   31.5710   52.0760 C   0  0  0  0  0  0  0  0  0  0  0  0
   55.8910   31.2010   52.2260 C   0  0  0  0  0  0  0  0  0  0  0  0
   57.0270   32.1080   51.9620 C   0  0  0  0  0  0  0  0  0  0  0  0
   56.9240   33.3130   52.3120 O   0  0  0  0  0  0  0  0  0  0  0  0
   58.2070   31.6640   51.2630 N   0  0  0  0  0  0  0  0  0  0  0  0
   59.4640   32.4170   51.4330 C   0  0  0  0  0  0  0  0  0  0  0  0
   60.5730   31.8810   50.5220 C   0  0  0  0  0  0  0  0  0  0  0  0
   60.0390   31.6840   49.1690 N   0  0  0  0  0  0  0  0  0  0  0  0
   60.8260   32.1000   48.0370 C   0  0  0  0  0  0  0  0  0  0  0  0
   62.0430   31.7710   47.9830 O   0  0  0  0  0  0  0  0  0  0  0  0
   60.2560   32.9530   46.9250 C   0  0  0  0  0  0  0  0  0  0  0  0
   59.2880   32.1920   46.0120 C   0  0  0  0  0  0  0  0  0  0  0  0
   58.0330   33.0540   45.8880 C   0  0  0  0  0  0  0  0  0  0  0  0
   58.3950   34.4290   46.4290 C   0  0  0  0  0  0  0  0  0  0  0  0
   59.5120   34.1940   47.4300 C   0  0  0  0  0  0  0  0  0  0  0  0
   58.7770   30.9540   48.9750 C   0  0  0  0  0  0  0  0  0  0  0  0
   58.1570   30.5380   50.3150 C   0  0  0  0  0  0  0  0  0  0  0  0
   55.9820   29.9070   52.6160 N   0  0  0  0  0  0  0  0  0  0  0  0
   57.2070   29.1950   53.0000 C   0  0  0  0  0  0  0  0  0  0  0  0
   55.2076   27.5213   53.4675 H   0  0  0  0  0  0  0  0  0  0  0  0
   53.3533   27.9475   53.3688 H   0  0  0  0  0  0  0  0  0  0  0  0
   51.8686   30.1125   53.0407 H   0  0  0  0  0  0  0  0  0  0  0  0
   54.1942   32.5705   51.8104 H   0  0  0  0  0  0  0  0  0  0  0  0
   59.2821   33.4741   51.1892 H   0  0  0  0  0  0  0  0  0  0  0  0
   59.7929   32.3042   52.4766 H   0  0  0  0  0  0  0  0  0  0  0  0
   61.4016   32.6037   50.4880 H   0  0  0  0  0  0  0  0  0  0  0  0
   60.9406   30.9218   50.9155 H   0  0  0  0  0  0  0  0  0  0  0  0
   61.1495   33.2553   46.3590 H   0  0  0  0  0  0  0  0  0  0  0  0
   59.7420   32.0386   45.0219 H   0  0  0  0  0  0  0  0  0  0  0  0
   59.0487   31.2016   46.4266 H   0  0  0  0  0  0  0  0  0  0  0  0
   57.7269   33.1293   44.8341 H   0  0  0  0  0  0  0  0  0  0  0  0
   57.1938   32.6157   46.4480 H   0  0  0  0  0  0  0  0  0  0  0  0
   58.7406   35.0830   45.6148 H   0  0  0  0  0  0  0  0  0  0  0  0
   57.5296   34.9237   46.8942 H   0  0  0  0  0  0  0  0  0  0  0  0
   60.1880   35.0612   47.4631 H   0  0  0  0  0  0  0  0  0  0  0  0
   59.1246   34.0522   48.4497 H   0  0  0  0  0  0  0  0  0  0  0  0
   58.0680   31.6019   48.4388 H   0  0  0  0  0  0  0  0  0  0  0  0
   58.9903   30.0435   48.3957 H   0  0  0  0  0  0  0  0  0  0  0  0
   57.1097   30.2419   50.1557 H   0  0  0  0  0  0  0  0  0  0  0  0
   58.7246   29.6915   50.7288 H   0  0  0  0  0  0  0  0  0  0  0  0
   57.2784   29.1535   54.0969 H   0  0  0  0  0  0  0  0  0  0  0  0
   57.1789   28.1725   52.5954 H   0  0  0  0  0  0  0  0  0  0  0  0
   58.0816   29.7255   52.5954 H   0  0  0  0  0  0  0  0  0  0  0  0
  1  2  2  0
  2  3  1  0
  3  4  2  3
  4  5  1  0
  5  6  1  0
  6  7  1  0
  7  8  2  0
  7  9  1  0
  9 10  1  0
 10 11  1  0
  3 12  1  0
 12 13  2  0
 13 14  1  0
 14 15  2  0
 14 16  1  0
 16 17  1  0
 17 18  1  0
 18 19  1  0
 19 20  1  0
 20 21  2  0
 20 22  1  0
 22 23  1  0
 23 24  1  0
 24 25  1  0
 25 26  1  0
 19 27  1  0
 27 28  1  0
 13 29  1  0
 29 30  1  0
 29  2  1  0
 10  5  2  0
 28 16  1  0
 26 22  1  0
  1 31  1  0
  1 32  1  0
  4 33  1  0
 12 34  1  0
 17 35  1  0
 17 36  1  0
 18 37  1  0
 18 38  1  0
 22 39  1  0
 23 40  1  0
 23 41  1  0
 24 42  1  0
 24 43  1  0
 25 44  1  0
 25 45  1  0
 26 46  1  0
 26 47  1  0
 27 48  1  0
 27 49  1  0
 28 50  1  0
 28 51  1  0
 30 52  1  0
 30 53  1  0
 30 54  1  0
M  CHG  3   6  -1   9  -1  11  -1
M  END
>  <UniqueID>  (40) 
39

>  <SMILES>  (40) 
C=c1c(=Cc2[n-]c(=O)[n-]c2[O-])cc(C(=O)N2CCN(C(=O)C3CCCC3)CC2)n1C

>  <Energy>  (40) 
134.35738933057172

>  <Genealogy>  (40) 
C=c1c(=Cc2[n-]c(=O)[n-]c2[O-])cc(C(=O)N2CCN(C(=O)C3CCCC3)CC2)n1C (protonated)
C=c1c(=Cc2[n-]c(=O)[n-]c2[O-])cc(C(=O)N2CCN(C(=O)C3CCCC3)CC2)n1C (3D coordinates assigned)
C=c1c(=Cc2[n-]c(=O)[n-]c2[O-])cc(C(=O)N2CCN(C(=O)C3CCCC3)CC2)n1C (nonaromatic ring conformer: 134.35738933057172 kcal/mol)

>  <smiles>  (40) 
C=c1c(=Cc2[nH]c(=O)[nH]c2O)cc(C(=O)N2CCN(C(=O)C3CCCC3)CC2)n1C

>  <score_type>  (40) 
oracle

>  <origin>  (40) 
adg

>  <m_score__min__energy>  (40) 
-18.329999999999998

>  <m_primary>  (40) 
energy

$$$$
40:0
     RDKit          3D

 51 53  0  0  0  0  0  0  0  0999 V2000
   58.1370   32.5540   43.4810 C   0  0  0  0  0  0  0  0  0  0  0  0
   57.5020   32.4170   44.8220 C   0  0  0  0  0  0  0  0  0  0  0  0
   57.3840   33.4310   45.5640 O   0  0  0  0  0  0  0  0  0  0  0  0
   56.9420   31.1880   45.1900 O   0  0  0  0  0  0  0  0  0  0  0  0
   57.6280   29.9650   45.1780 C   0  0  0  0  0  0  0  0  0  0  0  0
   57.4230   29.0160   44.1630 C   0  0  0  0  0  0  0  0  0  0  0  0
   58.1070   27.7920   44.1710 C   0  0  0  0  0  0  0  0  0  0  0  0
   57.8520   26.8380   43.0680 C   0  0  0  0  0  0  0  0  0  0  0  0
   58.5250   26.8580   42.0040 O   0  0  0  0  0  0  0  0  0  0  0  0
   58.9960   27.5020   45.2270 C   0  0  0  0  0  0  0  0  0  0  0  0
   59.6810   26.2770   45.2540 O   0  0  0  0  0  0  0  0  0  0  0  0
   59.3880   25.2100   46.1600 C   0  0  0  0  0  0  0  0  0  0  0  0
   58.2590   24.3510   45.6320 C   0  0  0  0  0  0  0  0  0  0  0  0
   58.5650   23.1760   44.9190 C   0  0  0  0  0  0  0  0  0  0  0  0
   57.5540   22.3160   44.4910 C   0  0  0  0  0  0  0  0  0  0  0  0
   56.2210   22.6170   44.7590 C   0  0  0  0  0  0  0  0  0  0  0  0
   55.8890   23.8010   45.4210 C   0  0  0  0  0  0  0  0  0  0  0  0
   56.8910   24.6970   45.8380 C   0  0  0  0  0  0  0  0  0  0  0  0
   56.4690   25.9830   46.4480 C   0  0  0  0  0  0  0  0  0  0  0  0
   55.3410   26.6930   45.9420 N   0  0  0  0  0  0  0  0  0  0  0  0
   57.0710   26.4250   47.4640 O   0  0  0  0  0  0  0  0  0  0  0  0
   59.2080   28.4610   46.2330 C   0  0  0  0  0  0  0  0  0  0  0  0
   58.5130   29.6830   46.2240 C   0  0  0  0  0  0  0  0  0  0  0  0
   58.6840   30.6490   47.2300 O   0  0  0  0  0  0  0  0  0  0  0  0
   59.8300   30.7740   48.0710 C   0  0  0  0  0  0  0  0  0  0  0  0
   60.7730   31.8290   47.5540 C   0  0  0  0  0  0  0  0  0  0  0  0
   60.2730   32.9880   46.9330 C   0  0  0  0  0  0  0  0  0  0  0  0
   61.1510   33.9620   46.4460 C   0  0  0  0  0  0  0  0  0  0  0  0
   62.5330   33.7790   46.5600 C   0  0  0  0  0  0  0  0  0  0  0  0
   63.0380   32.6160   47.1490 C   0  0  0  0  0  0  0  0  0  0  0  0
   62.1630   31.6420   47.6430 C   0  0  0  0  0  0  0  0  0  0  0  0
   59.2056   32.7846   43.6032 H   0  0  0  0  0  0  0  0  0  0  0  0
   58.0265   31.6113   42.9249 H   0  0  0  0  0  0  0  0  0  0  0  0
   57.6477   33.3672   42.9249 H   0  0  0  0  0  0  0  0  0  0  0  0
   56.7156   29.2362   43.3500 H   0  0  0  0  0  0  0  0  0  0  0  0
   57.0525   26.0910   43.1811 H   0  0  0  0  0  0  0  0  0  0  0  0
   60.2860   24.5874   46.2864 H   0  0  0  0  0  0  0  0  0  0  0  0
   59.0817   25.6408   47.1247 H   0  0  0  0  0  0  0  0  0  0  0  0
   59.6146   22.9334   44.6968 H   0  0  0  0  0  0  0  0  0  0  0  0
   57.8099   21.3985   43.9409 H   0  0  0  0  0  0  0  0  0  0  0  0
   55.4280   21.9208   44.4486 H   0  0  0  0  0  0  0  0  0  0  0  0
   54.8327   24.0359   45.6187 H   0  0  0  0  0  0  0  0  0  0  0  0
   55.4610   27.4860   45.2750 H   0  0  0  0  0  0  0  0  0  0  0  0
   59.9277   28.2523   47.0383 H   0  0  0  0  0  0  0  0  0  0  0  0
   59.5030   31.0505   49.0842 H   0  0  0  0  0  0  0  0  0  0  0  0
   60.3594   29.8098   48.0838 H   0  0  0  0  0  0  0  0  0  0  0  0
   59.1869   33.1290   46.8299 H   0  0  0  0  0  0  0  0  0  0  0  0
   60.7543   34.8725   45.9731 H   0  0  0  0  0  0  0  0  0  0  0  0
   63.2226   34.5502   46.1862 H   0  0  0  0  0  0  0  0  0  0  0  0
   64.1252   32.4663   47.2243 H   0  0  0  0  0  0  0  0  0  0  0  0
   62.5646   30.7268   48.1026 H   0  0  0  0  0  0  0  0  0  0  0  0
  1  2  1  0
  2  3  2  0
  2  4  1  0
  4  5  1  0
  5  6  2  0
  6  7  1  0
  7  8  1  0
  8  9  2  0
  7 10  2  0
 10 11  1  0
 11 12  1  0
 12 13  1  0
 13 14  2  0
 14 15  1  0
 15 16  2  0
 16 17  1  0
 17 18  2  0
 18 19  1  0
 19 20  1  0
 19 21  2  0
 10 22  1  0
 22 23  2  0
 23 24  1  0
 24 25  1  0
 25 26  1  0
 26 27  2  0
 27 28  1  0
 28 29  2  0
 29 30  1  0
 30 31  2  0
 23  5  1  0
 31 26  1  0
 18 13  1  0
  1 32  1  0
  1 33  1  0
  1 34  1  0
  6 35  1  0
  8 36  1  0
 12 37  1  0
 12 38  1  0
 14 39  1  0
 15 40  1  0
 16 41  1  0
 17 42  1  0
 20 43  1  0
 22 44  1  0
 25 45  1  0
 25 46  1  0
 27 47  1  0
 28 48  1  0
 29 49  1  0
 30 50  1  0
 31 51  1  0
M  CHG  1  20  -1
M  END
>  <UniqueID>  (41) 
40

>  <SMILES>  (41) 
CC(=O)Oc1cc(C=O)c(OCc2ccccc2C([NH-])=O)cc1OCc1ccccc1

>  <Energy>  (41) 
67.1108318094306

>  <Genealogy>  (41) 
CC(=O)Oc1cc(C=O)c(OCc2ccccc2C([NH-])=O)cc1OCc1ccccc1 (protonated)
CC(=O)Oc1cc(C=O)c(OCc2ccccc2C([NH-])=O)cc1OCc1ccccc1 (3D coordinates assigned)
CC(=O)Oc1cc(C=O)c(OCc2ccccc2C([NH-])=O)cc1OCc1ccccc1 (optimized conformer: 67.1108318094306 kcal/mol)

>  <smiles>  (41) 
CC(=O)Oc1cc(C=O)c(OCc2ccccc2C(N)=O)cc1OCc1ccccc1

>  <score_type>  (41) 
oracle

>  <origin>  (41) 
adg

>  <m_score__min__energy>  (41) 
-11.4

>  <m_primary>  (41) 
energy

$$$$
41:0
     RDKit          3D

 50 52  0  0  0  0  0  0  0  0999 V2000
   56.4320   32.1060   52.1600 O   0  0  0  0  0  0  0  0  0  0  0  0
   56.4800   30.8490   52.0680 C   0  0  0  0  0  0  0  0  0  0  0  0
   57.7800   30.1640   51.7830 C   0  0  0  0  0  0  0  0  0  0  0  0
   58.1470   30.3110   50.3790 N   0  0  0  0  0  0  0  0  0  0  0  0
   59.3740   30.9020   49.9330 C   0  0  0  0  0  0  0  0  0  0  0  0
   60.4710   30.5030   50.4120 O   0  0  0  0  0  0  0  0  0  0  0  0
   59.3720   31.9460   48.8810 C   0  0  0  0  0  0  0  0  0  0  0  0
   58.6100   31.7260   47.7180 C   0  0  0  0  0  0  0  0  0  0  0  0
   58.5690   32.6790   46.6920 C   0  0  0  0  0  0  0  0  0  0  0  0
   57.6240   32.3740   45.2300 S   0  0  0  0  0  0  0  0  0  0  0  0
   56.3920   33.2370   45.2480 O   0  0  0  0  0  0  0  0  0  0  0  0
   58.4390   32.7550   44.0260 O   0  0  0  0  0  0  0  0  0  0  0  0
   57.1570   30.6930   45.1040 N   0  0  0  0  0  0  0  0  0  0  0  0
   56.0870   30.4970   44.0990 C   0  0  0  0  0  0  0  0  0  0  0  0
   56.6190   29.8510   42.8070 C   0  0  0  0  0  0  0  0  0  0  0  0
   57.2270   28.5860   43.0270 O   0  0  0  0  0  0  0  0  0  0  0  0
   57.9250   28.4910   44.2650 C   0  0  0  0  0  0  0  0  0  0  0  0
   58.3400   29.8460   44.8620 C   0  0  0  0  0  0  0  0  0  0  0  0
   59.2850   33.8720   46.8320 C   0  0  0  0  0  0  0  0  0  0  0  0
   60.0550   34.1000   47.9730 C   0  0  0  0  0  0  0  0  0  0  0  0
   60.1120   33.1470   48.9970 C   0  0  0  0  0  0  0  0  0  0  0  0
   61.2910   33.5180   50.4660 Br  0  0  0  0  0  0  0  0  0  0  0  0
   55.2850   30.0720   52.1820 N   0  0  0  0  0  0  0  0  0  0  0  0
   54.1770   30.1860   51.2430 C   0  0  0  0  0  0  0  0  0  0  0  0
   52.9220   30.5250   51.9930 C   0  0  0  0  0  0  0  0  0  0  0  0
   52.4460   29.6640   52.9970 C   0  0  0  0  0  0  0  0  0  0  0  0
   51.2550   29.9570   53.6690 C   0  0  0  0  0  0  0  0  0  0  0  0
   50.5280   31.1040   53.3380 C   0  0  0  0  0  0  0  0  0  0  0  0
   50.9890   31.9610   52.3320 C   0  0  0  0  0  0  0  0  0  0  0  0
   50.2590   33.0940   51.9970 O   0  0  0  0  0  0  0  0  0  0  0  0
   52.1800   31.6720   51.6590 C   0  0  0  0  0  0  0  0  0  0  0  0
   58.5669   30.6089   52.4098 H   0  0  0  0  0  0  0  0  0  0  0  0
   57.6705   29.0929   52.0081 H   0  0  0  0  0  0  0  0  0  0  0  0
   58.0383   30.7921   47.6133 H   0  0  0  0  0  0  0  0  0  0  0  0
   55.3118   29.8454   44.5284 H   0  0  0  0  0  0  0  0  0  0  0  0
   55.6788   31.4853   43.8409 H   0  0  0  0  0  0  0  0  0  0  0  0
   55.7787   29.7192   42.1095 H   0  0  0  0  0  0  0  0  0  0  0  0
   57.3910   30.5200   42.3991 H   0  0  0  0  0  0  0  0  0  0  0  0
   57.2738   27.9801   44.9895 H   0  0  0  0  0  0  0  0  0  0  0  0
   58.8540   27.9381   44.0617 H   0  0  0  0  0  0  0  0  0  0  0  0
   58.8633   29.6759   45.8145 H   0  0  0  0  0  0  0  0  0  0  0  0
   59.0024   30.3588   44.1490 H   0  0  0  0  0  0  0  0  0  0  0  0
   59.2410   34.6336   46.0395 H   0  0  0  0  0  0  0  0  0  0  0  0
   60.6226   35.0373   48.0689 H   0  0  0  0  0  0  0  0  0  0  0  0
   54.3944   30.9798   50.5132 H   0  0  0  0  0  0  0  0  0  0  0  0
   54.0430   29.2306   50.7145 H   0  0  0  0  0  0  0  0  0  0  0  0
   53.0121   28.7568   53.2550 H   0  0  0  0  0  0  0  0  0  0  0  0
   50.8900   29.2841   54.4589 H   0  0  0  0  0  0  0  0  0  0  0  0
   49.5923   31.3334   53.8689 H   0  0  0  0  0  0  0  0  0  0  0  0
   52.5379   32.3443   50.8653 H   0  0  0  0  0  0  0  0  0  0  0  0
  1  2  2  0
  2  3  1  0
  3  4  1  0
  4  5  1  0
  5  6  2  0
  5  7  1  0
  7  8  2  0
  8  9  1  0
  9 10  1  0
 10 11  2  0
 10 12  2  0
 10 13  1  0
 13 14  1  0
 14 15  1  0
 15 16  1  0
 16 17  1  0
 17 18  1  0
  9 19  2  0
 19 20  1  0
 20 21  2  0
 21 22  1  0
  2 23  1  0
 23 24  1  0
 24 25  1  0
 25 26  2  0
 26 27  1  0
 27 28  2  0
 28 29  1  0
 29 30  1  0
 29 31  2  0
 21  7  1  0
 31 25  1  0
 18 13  1  0
  3 32  1  0
  3 33  1  0
  8 34  1  0
 14 35  1  0
 14 36  1  0
 15 37  1  0
 15 38  1  0
 17 39  1  0
 17 40  1  0
 18 41  1  0
 18 42  1  0
 19 43  1  0
 20 44  1  0
 24 45  1  0
 24 46  1  0
 26 47  1  0
 27 48  1  0
 28 49  1  0
 31 50  1  0
M  CHG  3   4  -1  23  -1  30  -1
M  END
>  <UniqueID>  (42) 
41

>  <SMILES>  (42) 
O=C(C[N-]C(=O)c1cc(S(=O)(=O)N2CCOCC2)ccc1Br)[N-]Cc1cccc([O-])c1

>  <Energy>  (42) 
63.65926281875669

>  <Genealogy>  (42) 
O=C(C[N-]C(=O)c1cc(S(=O)(=O)N2CCOCC2)ccc1Br)[N-]Cc1cccc([O-])c1 (protonated)
O=C(C[N-]C(=O)c1cc(S(=O)(=O)N2CCOCC2)ccc1Br)[N-]Cc1cccc([O-])c1 (3D coordinates assigned)
O=C(C[N-]C(=O)c1cc(S(=O)(=O)N2CCOCC2)ccc1Br)[N-]Cc1cccc([O-])c1 (nonaromatic ring conformer: 63.65926281875669 kcal/mol)

>  <smiles>  (42) 
O=C(CNC(=O)c1cc(S(=O)(=O)N2CCOCC2)ccc1Br)NCc1cccc(O)c1

>  <score_type>  (42) 
oracle

>  <origin>  (42) 
adg

>  <m_score__min__energy>  (42) 
-16.16

>  <m_primary>  (42) 
energy

$$$$
42:0
     RDKit          3D

 51 54  0  0  0  0  0  0  0  0999 V2000
   59.0749   31.3428   44.8294 H   0  0  0  0  0  0  0  0  0  0  0  0
   58.7000   30.3190   44.9750 C   0  0  0  0  0  0  0  0  0  0  0  0
   58.1990   29.7940   44.1484 H   0  0  0  0  0  0  0  0  0  0  0  0
   58.8540   29.7100   46.1620 C   0  0  0  0  0  0  0  0  0  0  0  0
   58.4310   28.4180   46.4920 C   0  0  0  0  0  0  0  0  0  0  0  0
   57.7540   27.5550   45.7090 C   0  0  0  0  0  0  0  0  0  0  0  0
   57.6012   27.8254   44.6537 H   0  0  0  0  0  0  0  0  0  0  0  0
   57.2060   26.2710   46.1810 C   0  0  0  0  0  0  0  0  0  0  0  0
   57.9680   25.2810   46.6760 N   0  0  0  0  0  0  0  0  0  0  0  0
   57.0660   24.3500   47.0580 C   0  0  0  0  0  0  0  0  0  0  0  0
   57.4030   23.2500   47.5670 O   0  0  0  0  0  0  0  0  0  0  0  0
   55.7770   24.6960   46.8610 N   0  0  0  0  0  0  0  0  0  0  0  0
   55.8790   25.9200   46.3170 C   0  0  0  0  0  0  0  0  0  0  0  0
   54.7840   26.7140   45.9990 O   0  0  0  0  0  0  0  0  0  0  0  0
   58.7990   28.2150   47.8140 C   0  0  0  0  0  0  0  0  0  0  0  0
   58.6122   27.3141   48.4169 H   0  0  0  0  0  0  0  0  0  0  0  0
   59.4450   29.3630   48.2260 C   0  0  0  0  0  0  0  0  0  0  0  0
   60.0040   29.5490   49.5790 C   0  0  0  0  0  0  0  0  0  0  0  0
   61.2500   29.4510   49.7430 O   0  0  0  0  0  0  0  0  0  0  0  0
   59.1580   29.8810   50.6940 N   0  0  0  0  0  0  0  0  0  0  0  0
   58.0180   30.7900   50.4910 C   0  0  0  0  0  0  0  0  0  0  0  0
   58.3748   31.7045   49.9945 H   0  0  0  0  0  0  0  0  0  0  0  0
   57.2713   30.2719   49.8713 H   0  0  0  0  0  0  0  0  0  0  0  0
   57.3570   31.1710   51.8180 C   0  0  0  0  0  0  0  0  0  0  0  0
   57.9909   31.8984   52.3463 H   0  0  0  0  0  0  0  0  0  0  0  0
   56.3707   31.6154   51.6185 H   0  0  0  0  0  0  0  0  0  0  0  0
   57.1900   29.9730   52.6520 N   0  0  0  0  0  0  0  0  0  0  0  0
   55.9580   29.7240   53.3550 C   0  0  0  0  0  0  0  0  0  0  0  0
   55.9920   29.2100   54.5060 O   0  0  0  0  0  0  0  0  0  0  0  0
   54.6460   30.0020   52.7250 C   0  0  0  0  0  0  0  0  0  0  0  0
   54.4390   31.2450   52.1010 C   0  0  0  0  0  0  0  0  0  0  0  0
   55.2431   31.9956   52.0995 H   0  0  0  0  0  0  0  0  0  0  0  0
   53.2200   31.5340   51.4830 C   0  0  0  0  0  0  0  0  0  0  0  0
   53.0671   32.5102   50.9996 H   0  0  0  0  0  0  0  0  0  0  0  0
   52.1960   30.5860   51.4780 C   0  0  0  0  0  0  0  0  0  0  0  0
   51.2366   30.8154   50.9912 H   0  0  0  0  0  0  0  0  0  0  0  0
   52.3890   29.3460   52.0910 C   0  0  0  0  0  0  0  0  0  0  0  0
   51.5796   28.6012   52.0845 H   0  0  0  0  0  0  0  0  0  0  0  0
   53.6070   29.0450   52.7140 C   0  0  0  0  0  0  0  0  0  0  0  0
   53.7670   27.4840   53.5130 Cl  0  0  0  0  0  0  0  0  0  0  0  0
   58.3290   29.0690   52.8680 C   0  0  0  0  0  0  0  0  0  0  0  0
   58.5909   29.0755   53.9364 H   0  0  0  0  0  0  0  0  0  0  0  0
   58.0328   28.0620   52.5391 H   0  0  0  0  0  0  0  0  0  0  0  0
   59.5580   29.4940   52.0530 C   0  0  0  0  0  0  0  0  0  0  0  0
   60.0427   30.3494   52.5463 H   0  0  0  0  0  0  0  0  0  0  0  0
   60.2583   28.6479   51.9931 H   0  0  0  0  0  0  0  0  0  0  0  0
   59.4660   30.2810   47.2300 N   0  0  0  0  0  0  0  0  0  0  0  0
   59.9610   31.6600   47.3120 C   0  0  0  0  0  0  0  0  0  0  0  0
   60.0651   31.9500   48.3680 H   0  0  0  0  0  0  0  0  0  0  0  0
   60.9398   31.7284   46.8148 H   0  0  0  0  0  0  0  0  0  0  0  0
   59.2491   32.3353   46.8148 H   0  0  0  0  0  0  0  0  0  0  0  0
  1  2  1  0
  2  3  1  0
  2  4  2  0
  4  5  1  0
  5  6  2  0
  6  7  1  0
  6  8  1  0
  8  9  1  0
  9 10  1  0
 10 11  2  0
 10 12  1  0
 12 13  1  0
 13 14  1  0
  5 15  1  0
 15 16  1  0
 15 17  2  0
 17 18  1  0
 18 19  2  0
 18 20  1  0
 20 21  1  0
 21 22  1  0
 21 23  1  0
 21 24  1  0
 24 25  1  0
 24 26  1  0
 24 27  1  0
 27 28  1  0
 28 29  2  0
 28 30  1  0
 30 31  2  0
 31 32  1  0
 31 33  1  0
 33 34  1  0
 33 35  2  0
 35 36  1  0
 35 37  1  0
 37 38  1  0
 37 39  2  0
 39 40  1  0
 27 41  1  0
 41 42  1  0
 41 43  1  0
 41 44  1  0
 44 45  1  0
 44 46  1  0
 17 47  1  0
 47 48  1  0
 48 49  1  0
 48 50  1  0
 48 51  1  0
 47  4  1  0
 13  8  2  0
 44 20  1  0
 39 30  1  0
M  CHG  3   9  -1  12  -1  14  -1
M  END
>  <UniqueID>  (43) 
42

>  <SMILES>  (43) 
C=c1/c(=C/c2[n-]c(=O)[n-]c2[O-])cc(C(=O)N2CCN(C(=O)c3ccccc3Cl)CC2)n1C

>  <Energy>  (43) 
131.34383696210068

>  <Genealogy>  (43) 
C=c1c(=Cc2[n-]c(=O)[n-]c2[O-])cc(C(=O)N2CCN(C(=O)c3ccccc3Cl)CC2)n1C (protonated)
C=c1/c(=C/c2[n-]c(=O)[n-]c2[O-])cc(C(=O)N2CCN(C(=O)c3ccccc3Cl)CC2)n1C (cis-trans isomerization)
C=c1/c(=C/c2[n-]c(=O)[n-]c2[O-])cc(C(=O)N2CCN(C(=O)c3ccccc3Cl)CC2)n1C (3D coordinates assigned)
C=c1/c(=C/c2[n-]c(=O)[n-]c2[O-])cc(C(=O)N2CCN(C(=O)c3ccccc3Cl)CC2)n1C (nonaromatic ring conformer: 131.34383696210068 kcal/mol)

>  <smiles>  (43) 
C=c1c(=Cc2[nH]c(=O)[nH]c2O)cc(C(=O)N2CCN(C(=O)c3ccccc3Cl)CC2)n1C

>  <score_type>  (43) 
oracle

>  <origin>  (43) 
adg

>  <m_score__min__energy>  (43) 
-19.030000000000001

>  <m_primary>  (43) 
energy

$$$$
43:0
     RDKit          3D

 31 32  0  0  0  0  0  0  0  0999 V2000
   58.1498   23.1967   48.0426 H   0  0  0  0  0  0  0  0  0  0  0  0
   57.1170   23.3760   47.7090 C   0  0  0  0  0  0  0  0  0  0  0  0
   56.3359   22.6284   47.9117 H   0  0  0  0  0  0  0  0  0  0  0  0
   56.8110   24.5030   47.0570 C   0  0  0  0  0  0  0  0  0  0  0  0
   55.5260   24.6950   46.6580 N   0  0  0  0  0  0  0  0  0  0  0  0
   55.1560   25.8130   45.9880 C   0  0  0  0  0  0  0  0  0  0  0  0
   53.9610   25.9580   45.6220 O   0  0  0  0  0  0  0  0  0  0  0  0
   56.0690   26.7760   45.7150 N   0  0  0  0  0  0  0  0  0  0  0  0
   57.3710   26.6660   46.0950 C   0  0  0  0  0  0  0  0  0  0  0  0
   58.1920   27.6930   45.7870 C   0  0  0  0  0  0  0  0  0  0  0  0
   58.5005   27.7882   44.7354 H   0  0  0  0  0  0  0  0  0  0  0  0
   58.7140   28.7010   46.7340 C   0  0  0  0  0  0  0  0  0  0  0  0
   59.1230   28.2830   48.0080 C   0  0  0  0  0  0  0  0  0  0  0  0
   59.0288   27.2247   48.2928 H   0  0  0  0  0  0  0  0  0  0  0  0
   59.6490   29.2020   48.9170 C   0  0  0  0  0  0  0  0  0  0  0  0
   59.9550   28.8694   49.9198 H   0  0  0  0  0  0  0  0  0  0  0  0
   59.7870   30.5420   48.5550 C   0  0  0  0  0  0  0  0  0  0  0  0
   60.1951   31.2657   49.2760 H   0  0  0  0  0  0  0  0  0  0  0  0
   59.4080   30.9680   47.2780 C   0  0  0  0  0  0  0  0  0  0  0  0
   59.5248   32.0249   46.9963 H   0  0  0  0  0  0  0  0  0  0  0  0
   58.8780   30.0510   46.3520 C   0  0  0  0  0  0  0  0  0  0  0  0
   58.5080   30.4540   45.0250 N   0  0  0  0  0  0  0  0  0  0  0  0
   56.8940   30.7850   44.4880 S   0  0  0  0  0  0  0  0  0  0  0  0
   55.9400   29.7980   45.0990 O   0  0  0  0  0  0  0  0  0  0  0  0
   56.5040   32.1850   44.8710 O   0  0  0  0  0  0  0  0  0  0  0  0
   56.8370   30.6240   42.7180 C   0  0  0  0  0  0  0  0  0  0  0  0
   56.4807   29.6177   42.4526 H   0  0  0  0  0  0  0  0  0  0  0  0
   56.1509   31.3771   42.3032 H   0  0  0  0  0  0  0  0  0  0  0  0
   57.8442   30.7776   42.3032 H   0  0  0  0  0  0  0  0  0  0  0  0
   57.7810   25.4860   46.7700 C   0  0  0  0  0  0  0  0  0  0  0  0
   58.9890   25.2930   47.0840 O   0  0  0  0  0  0  0  0  0  0  0  0
  1  2  1  0
  2  3  1  0
  2  4  2  0
  4  5  1  0
  5  6  1  0
  6  7  2  0
  6  8  1  0
  8  9  1  0
  9 10  2  0
 10 11  1  0
 10 12  1  0
 12 13  2  0
 13 14  1  0
 13 15  1  0
 15 16  1  0
 15 17  2  0
 17 18  1  0
 17 19  1  0
 19 20  1  0
 19 21  2  0
 21 22  1  0
 22 23  1  0
 23 24  2  0
 23 25  2  0
 23 26  1  0
 26 27  1  0
 26 28  1  0
 26 29  1  0
  9 30  1  0
 30 31  2  0
 30  4  1  0
 21 12  1  0
M  CHG  3   5  -1   8  -1  22  -1
M  END
>  <UniqueID>  (44) 
43

>  <SMILES>  (44) 
C=c1[n-]c(=O)[n-]/c(=C/c2ccccc2[N-]S(C)(=O)=O)c1=O

>  <Energy>  (44) 
45.35806862660363

>  <Genealogy>  (44) 
C=c1[n-]c(=O)[n-]c(=Cc2ccccc2[N-]S(C)(=O)=O)c1=O (protonated)
C=c1[n-]c(=O)[n-]/c(=C/c2ccccc2[N-]S(C)(=O)=O)c1=O (cis-trans isomerization)
C=c1[n-]c(=O)[n-]/c(=C/c2ccccc2[N-]S(C)(=O)=O)c1=O (3D coordinates assigned)
C=c1[n-]c(=O)[n-]/c(=C/c2ccccc2[N-]S(C)(=O)=O)c1=O (optimized conformer: 45.35806862660363 kcal/mol)

>  <smiles>  (44) 
C=c1[nH]c(=O)[nH]c(=Cc2ccccc2NS(C)(=O)=O)c1=O

>  <score_type>  (44) 
oracle

>  <origin>  (44) 
adg

>  <m_score__min__energy>  (44) 
-12.390000000000001

>  <m_primary>  (44) 
energy

$$$$
44:0
     RDKit          3D

 56 60  0  0  0  0  0  0  0  0999 V2000
   57.1840   24.7500   43.1790 C   0  0  0  0  0  0  0  0  0  0  0  0
   56.4300   24.3740   44.4260 C   0  0  0  0  0  0  0  0  0  0  0  0
   55.2450   23.6260   44.3270 C   0  0  0  0  0  0  0  0  0  0  0  0
   54.5330   23.2700   45.4760 C   0  0  0  0  0  0  0  0  0  0  0  0
   53.3610   22.5290   45.3620 O   0  0  0  0  0  0  0  0  0  0  0  0
   54.9960   23.6560   46.7360 C   0  0  0  0  0  0  0  0  0  0  0  0
   54.3060   23.3120   47.8520 F   0  0  0  0  0  0  0  0  0  0  0  0
   56.1730   24.3980   46.8500 C   0  0  0  0  0  0  0  0  0  0  0  0
   56.8990   24.7580   45.7030 C   0  0  0  0  0  0  0  0  0  0  0  0
   58.1400   25.5520   45.8630 C   0  0  0  0  0  0  0  0  0  0  0  0
   59.3700   24.8660   46.0010 C   0  0  0  0  0  0  0  0  0  0  0  0
   59.4440   23.4710   45.9880 O   0  0  0  0  0  0  0  0  0  0  0  0
   60.5580   25.5820   46.1580 C   0  0  0  0  0  0  0  0  0  0  0  0
   60.5500   26.9720   46.1850 C   0  0  0  0  0  0  0  0  0  0  0  0
   59.3510   27.6720   46.0530 C   0  0  0  0  0  0  0  0  0  0  0  0
   59.3760   29.0300   46.0880 N   0  0  0  0  0  0  0  0  0  0  0  0
   58.2560   29.7910   45.9720 C   0  0  0  0  0  0  0  0  0  0  0  0
   58.3770   31.2710   46.0170 C   0  0  0  0  0  0  0  0  0  0  0  0
   57.7270   32.0540   45.0470 C   0  0  0  0  0  0  0  0  0  0  0  0
   57.8400   33.4450   45.0660 C   0  0  0  0  0  0  0  0  0  0  0  0
   58.6020   34.0740   46.0500 C   0  0  0  0  0  0  0  0  0  0  0  0
   59.2590   33.3160   47.0320 C   0  0  0  0  0  0  0  0  0  0  0  0
   60.0900   33.9760   48.0650 C   0  0  0  0  0  0  0  0  0  0  0  0
   59.6080   34.9500   48.7050 O   0  0  0  0  0  0  0  0  0  0  0  0
   61.4340   33.5390   48.3470 N   0  0  0  0  0  0  0  0  0  0  0  0
   62.3040   33.0070   47.2930 C   0  0  0  0  0  0  0  0  0  0  0  0
   63.7300   33.5260   47.5000 C   0  0  0  0  0  0  0  0  0  0  0  0
   64.1750   33.2620   48.8180 O   0  0  0  0  0  0  0  0  0  0  0  0
   63.3930   33.9940   49.7430 C   0  0  0  0  0  0  0  0  0  0  0  0
   61.9370   33.5210   49.7230 C   0  0  0  0  0  0  0  0  0  0  0  0
   59.1560   31.9140   46.9980 C   0  0  0  0  0  0  0  0  0  0  0  0
   57.0190   29.1560   45.7920 C   0  0  0  0  0  0  0  0  0  0  0  0
   56.9470   27.7610   45.7490 C   0  0  0  0  0  0  0  0  0  0  0  0
   55.8160   27.2310   45.5830 O   0  0  0  0  0  0  0  0  0  0  0  0
   58.1240   26.9800   45.8870 C   0  0  0  0  0  0  0  0  0  0  0  0
   58.1367   25.2251   43.4558 H   0  0  0  0  0  0  0  0  0  0  0  0
   57.3840   23.8461   42.5849 H   0  0  0  0  0  0  0  0  0  0  0  0
   56.5824   25.4536   42.5849 H   0  0  0  0  0  0  0  0  0  0  0  0
   54.8747   23.3182   43.3380 H   0  0  0  0  0  0  0  0  0  0  0  0
   56.5337   24.7023   47.8436 H   0  0  0  0  0  0  0  0  0  0  0  0
   60.2350   22.9540   46.3520 H   0  0  0  0  0  0  0  0  0  0  0  0
   61.5101   25.0409   46.2614 H   0  0  0  0  0  0  0  0  0  0  0  0
   61.4940   27.5224   46.3111 H   0  0  0  0  0  0  0  0  0  0  0  0
   57.1244   31.5663   44.2666 H   0  0  0  0  0  0  0  0  0  0  0  0
   57.3262   34.0472   44.3022 H   0  0  0  0  0  0  0  0  0  0  0  0
   58.6888   35.1706   46.0567 H   0  0  0  0  0  0  0  0  0  0  0  0
   62.3036   31.9079   47.3368 H   0  0  0  0  0  0  0  0  0  0  0  0
   61.9330   33.3342   46.3105 H   0  0  0  0  0  0  0  0  0  0  0  0
   64.4022   33.0279   46.7859 H   0  0  0  0  0  0  0  0  0  0  0  0
   63.7363   34.6139   47.3371 H   0  0  0  0  0  0  0  0  0  0  0  0
   63.8038   33.8521   50.7535 H   0  0  0  0  0  0  0  0  0  0  0  0
   63.4208   35.0573   49.4625 H   0  0  0  0  0  0  0  0  0  0  0  0
   61.8791   32.4971   50.1207 H   0  0  0  0  0  0  0  0  0  0  0  0
   61.3260   34.1921   50.3445 H   0  0  0  0  0  0  0  0  0  0  0  0
   59.6908   31.3119   47.7473 H   0  0  0  0  0  0  0  0  0  0  0  0
   56.1038   29.7567   45.6845 H   0  0  0  0  0  0  0  0  0  0  0  0
  1  2  1  0
  2  3  2  0
  3  4  1  0
  4  5  1  0
  4  6  2  0
  6  7  1  0
  6  8  1  0
  8  9  2  0
  9 10  1  0
 10 11  2  0
 11 12  1  0
 11 13  1  0
 13 14  2  0
 14 15  1  0
 15 16  1  0
 16 17  1  0
 17 18  1  0
 18 19  2  0
 19 20  1  0
 20 21  2  0
 21 22  1  0
 22 23  1  0
 23 24  2  0
 23 25  1  0
 25 26  1  0
 26 27  1  0
 27 28  1  0
 28 29  1  0
 29 30  1  0
 22 31  2  0
 17 32  2  0
 32 33  1  0
 33 34  2  0
 33 35  1  0
  9  2  1  0
 35 10  1  0
 35 15  2  0
 31 18  1  0
 30 25  1  0
  1 36  1  0
  1 37  1  0
  1 38  1  0
  3 39  1  0
  8 40  1  0
 12 41  1  0
 13 42  1  0
 14 43  1  0
 19 44  1  0
 20 45  1  0
 21 46  1  0
 26 47  1  0
 26 48  1  0
 27 49  1  0
 27 50  1  0
 29 51  1  0
 29 52  1  0
 30 53  1  0
 30 54  1  0
 31 55  1  0
 32 56  1  0
M  CHG  2   5  -1  16  -1
M  END
>  <UniqueID>  (45) 
44

>  <SMILES>  (45) 
Cc1cc([O-])c(F)cc1-c1c(O)ccc2[n-]c(-c3cccc(C(=O)N4CCOCC4)c3)cc(=O)c12

>  <Energy>  (45) 
89.09032623710657

>  <Genealogy>  (45) 
Cc1cc([O-])c(F)cc1-c1c(O)ccc2[n-]c(-c3cccc(C(=O)N4CCOCC4)c3)cc(=O)c12 (protonated)
Cc1cc([O-])c(F)cc1-c1c(O)ccc2[n-]c(-c3cccc(C(=O)N4CCOCC4)c3)cc(=O)c12 (3D coordinates assigned)
Cc1cc([O-])c(F)cc1-c1c(O)ccc2[n-]c(-c3cccc(C(=O)N4CCOCC4)c3)cc(=O)c12 (nonaromatic ring conformer: 89.09032623710657 kcal/mol)

>  <smiles>  (45) 
Cc1cc(O)c(F)cc1-c1c(O)ccc2[nH]c(-c3cccc(C(=O)N4CCOCC4)c3)cc(=O)c12

>  <score_type>  (45) 
oracle

>  <origin>  (45) 
adg

>  <m_score__min__energy>  (45) 
-12.67

>  <m_primary>  (45) 
energy

$$$$
45:0
     RDKit          3D

 79 84  0  0  0  0  0  0  0  0999 V2000
   63.4120   27.8050   53.8120 C   0  0  0  0  0  0  0  0  0  0  0  0
   64.7110   28.0880   53.1190 C   0  0  0  0  0  0  0  0  0  0  0  0
   65.7280   27.4120   53.4430 O   0  0  0  0  0  0  0  0  0  0  0  0
   64.8160   29.1050   52.0980 N   0  0  0  0  0  0  0  0  0  0  0  0
   66.1310   29.5890   51.6650 C   0  0  0  0  0  0  0  0  0  0  0  0
   66.0920   31.1070   51.4610 C   0  0  0  0  0  0  0  0  0  0  0  0
   64.9230   31.4970   50.6540 N   0  0  0  0  0  0  0  0  0  0  0  0
   65.0160   32.6400   49.7720 C   0  0  0  0  0  0  0  0  0  0  0  0
   66.0610   33.3480   49.7540 O   0  0  0  0  0  0  0  0  0  0  0  0
   63.9070   33.0020   48.8770 C   0  0  0  0  0  0  0  0  0  0  0  0
   64.0890   32.9740   47.4890 C   0  0  0  0  0  0  0  0  0  0  0  0
   63.0660   33.4100   46.6390 C   0  0  0  0  0  0  0  0  0  0  0  0
   61.8600   33.8700   47.1760 C   0  0  0  0  0  0  0  0  0  0  0  0
   61.6700   33.8910   48.5630 C   0  0  0  0  0  0  0  0  0  0  0  0
   60.1420   34.5450   49.2460 S   0  0  0  0  0  0  0  0  0  0  0  0
   59.1650   33.8680   47.9020 C   0  0  0  0  0  0  0  0  0  0  0  0
   58.8010   34.6670   46.8170 C   0  0  0  0  0  0  0  0  0  0  0  0
   57.9670   34.1520   45.8250 C   0  0  0  0  0  0  0  0  0  0  0  0
   57.4950   32.8250   45.9300 C   0  0  0  0  0  0  0  0  0  0  0  0
   56.6590   32.3030   45.0730 N   0  0  0  0  0  0  0  0  0  0  0  0
   56.8810   31.1620   44.2290 C   0  0  0  0  0  0  0  0  0  0  0  0
   57.0830   31.3440   42.9990 O   0  0  0  0  0  0  0  0  0  0  0  0
   57.0480   29.8070   44.8160 C   0  0  0  0  0  0  0  0  0  0  0  0
   55.9200   28.9770   44.8610 C   0  0  0  0  0  0  0  0  0  0  0  0
   56.0220   27.6900   45.2640 N   0  0  0  0  0  0  0  0  0  0  0  0
   57.1970   27.1450   45.6650 C   0  0  0  0  0  0  0  0  0  0  0  0
   57.2350   25.7470   45.9690 N   0  0  0  0  0  0  0  0  0  0  0  0
   58.2050   24.9000   45.2640 C   0  0  0  0  0  0  0  0  0  0  0  0
   57.7470   23.4340   45.2270 C   0  0  0  0  0  0  0  0  0  0  0  0
   56.2430   23.3120   44.8940 C   0  0  0  0  0  0  0  0  0  0  0  0
   55.9770   23.6360   43.4160 C   0  0  0  0  0  0  0  0  0  0  0  0
   55.3480   24.1780   45.8310 C   0  0  0  0  0  0  0  0  0  0  0  0
   56.1420   25.1380   46.7270 C   0  0  0  0  0  0  0  0  0  0  0  0
   58.3640   27.9350   45.6870 C   0  0  0  0  0  0  0  0  0  0  0  0
   59.5940   27.4020   46.1130 C   0  0  0  0  0  0  0  0  0  0  0  0
   60.7480   28.1830   46.0890 C   0  0  0  0  0  0  0  0  0  0  0  0
   60.6920   29.4960   45.6310 C   0  0  0  0  0  0  0  0  0  0  0  0
   59.4810   30.0490   45.2110 C   0  0  0  0  0  0  0  0  0  0  0  0
   58.2940   29.2870   45.2500 C   0  0  0  0  0  0  0  0  0  0  0  0
   57.9220   32.0560   46.9680 N   0  0  0  0  0  0  0  0  0  0  0  0
   58.7330   32.5410   47.9450 C   0  0  0  0  0  0  0  0  0  0  0  0
   62.6920   33.4510   49.4150 C   0  0  0  0  0  0  0  0  0  0  0  0
   63.6070   30.9730   51.0590 C   0  0  0  0  0  0  0  0  0  0  0  0
   63.6680   29.4590   51.2530 C   0  0  0  0  0  0  0  0  0  0  0  0
   63.5627   27.8378   54.9011 H   0  0  0  0  0  0  0  0  0  0  0  0
   62.6689   28.5623   53.5217 H   0  0  0  0  0  0  0  0  0  0  0  0
   63.0513   26.8072   53.5217 H   0  0  0  0  0  0  0  0  0  0  0  0
   66.8797   29.3441   52.4327 H   0  0  0  0  0  0  0  0  0  0  0  0
   66.3979   29.1046   50.7142 H   0  0  0  0  0  0  0  0  0  0  0  0
   66.0340   31.6012   52.4420 H   0  0  0  0  0  0  0  0  0  0  0  0
   67.0050   31.4148   50.9303 H   0  0  0  0  0  0  0  0  0  0  0  0
   65.0367   32.6091   47.0662 H   0  0  0  0  0  0  0  0  0  0  0  0
   63.2109   33.3907   45.5488 H   0  0  0  0  0  0  0  0  0  0  0  0
   61.0583   34.2163   46.5071 H   0  0  0  0  0  0  0  0  0  0  0  0
   59.1710   35.7004   46.7445 H   0  0  0  0  0  0  0  0  0  0  0  0
   57.6785   34.7755   44.9659 H   0  0  0  0  0  0  0  0  0  0  0  0
   54.9391   29.3772   44.5648 H   0  0  0  0  0  0  0  0  0  0  0  0
   58.3167   25.2661   44.2327 H   0  0  0  0  0  0  0  0  0  0  0  0
   59.1632   24.9497   45.8020 H   0  0  0  0  0  0  0  0  0  0  0  0
   58.3262   22.8991   44.4600 H   0  0  0  0  0  0  0  0  0  0  0  0
   57.9136   22.9980   46.2231 H   0  0  0  0  0  0  0  0  0  0  0  0
   55.9629   22.2636   45.0742 H   0  0  0  0  0  0  0  0  0  0  0  0
   55.2804   24.4845   43.3462 H   0  0  0  0  0  0  0  0  0  0  0  0
   56.9242   23.8977   42.9218 H   0  0  0  0  0  0  0  0  0  0  0  0
   55.5359   22.7579   42.9218 H   0  0  0  0  0  0  0  0  0  0  0  0
   54.6636   24.7713   45.2068 H   0  0  0  0  0  0  0  0  0  0  0  0
   54.8135   23.4844   46.4967 H   0  0  0  0  0  0  0  0  0  0  0  0
   55.4719   25.9279   47.0972 H   0  0  0  0  0  0  0  0  0  0  0  0
   56.5617   24.5752   47.5738 H   0  0  0  0  0  0  0  0  0  0  0  0
   59.6454   26.3619   46.4674 H   0  0  0  0  0  0  0  0  0  0  0  0
   61.7041   27.7612   46.4324 H   0  0  0  0  0  0  0  0  0  0  0  0
   61.6090   30.1027   45.5997 H   0  0  0  0  0  0  0  0  0  0  0  0
   59.4519   31.0866   44.8469 H   0  0  0  0  0  0  0  0  0  0  0  0
   59.0495   31.8870   48.7709 H   0  0  0  0  0  0  0  0  0  0  0  0
   62.5415   33.4578   50.5046 H   0  0  0  0  0  0  0  0  0  0  0  0
   63.3046   31.4468   52.0045 H   0  0  0  0  0  0  0  0  0  0  0  0
   62.8762   31.2003   50.2689 H   0  0  0  0  0  0  0  0  0  0  0  0
   62.7411   29.1163   51.7361 H   0  0  0  0  0  0  0  0  0  0  0  0
   63.7796   28.9742   50.2719 H   0  0  0  0  0  0  0  0  0  0  0  0
  1  2  1  0
  2  3  2  0
  2  4  1  0
  4  5  1  0
  5  6  1  0
  6  7  1  0
  7  8  1  0
  8  9  2  0
  8 10  1  0
 10 11  2  0
 11 12  1  0
 12 13  2  0
 13 14  1  0
 14 15  1  0
 15 16  1  0
 16 17  1  0
 17 18  2  0
 18 19  1  0
 19 20  2  3
 20 21  1  0
 21 22  2  0
 21 23  1  0
 23 24  2  0
 24 25  1  0
 25 26  2  0
 26 27  1  0
 27 28  1  0
 28 29  1  0
 29 30  1  0
 30 31  1  0
 30 32  1  0
 32 33  1  0
 26 34  1  0
 34 35  2  0
 35 36  1  0
 36 37  2  0
 37 38  1  0
 38 39  2  0
 19 40  1  0
 40 41  1  0
 14 42  2  0
  7 43  1  0
 43 44  1  0
 44  4  1  0
 42 10  1  0
 41 16  2  0
 39 23  1  0
 33 27  1  0
 39 34  1  0
  1 45  1  0
  1 46  1  0
  1 47  1  0
  5 48  1  0
  5 49  1  0
  6 50  1  0
  6 51  1  0
 11 52  1  0
 12 53  1  0
 13 54  1  0
 17 55  1  0
 18 56  1  0
 24 57  1  0
 28 58  1  0
 28 59  1  0
 29 60  1  0
 29 61  1  0
 30 62  1  0
 31 63  1  0
 31 64  1  0
 31 65  1  0
 32 66  1  0
 32 67  1  0
 33 68  1  0
 33 69  1  0
 35 70  1  0
 36 71  1  0
 37 72  1  0
 38 73  1  0
 41 74  1  0
 42 75  1  0
 43 76  1  0
 43 77  1  0
 44 78  1  0
 44 79  1  0
M  CHG  1  40  -1
M  END
>  <UniqueID>  (46) 
45

>  <SMILES>  (46) 
CC(=O)N1CCN(C(=O)c2cccc(Sc3ccc(=NC(=O)c4cnc(N5CCC(C)CC5)c5ccccc45)[n-]c3)c2)CC1

>  <Energy>  (46) 
111.35740510718126

>  <Genealogy>  (46) 
CC(=O)N1CCN(C(=O)c2cccc(Sc3ccc(=NC(=O)c4cnc(N5CCC(C)CC5)c5ccccc45)[n-]c3)c2)CC1 (protonated)
CC(=O)N1CCN(C(=O)c2cccc(Sc3ccc(=NC(=O)c4cnc(N5CCC(C)CC5)c5ccccc45)[n-]c3)c2)CC1 (3D coordinates assigned)
CC(=O)N1CCN(C(=O)c2cccc(Sc3ccc(=NC(=O)c4cnc(N5CCC(C)CC5)c5ccccc45)[n-]c3)c2)CC1 (nonaromatic ring conformer: 111.35740510718126 kcal/mol)

>  <smiles>  (46) 
CC(=O)N1CCN(C(=O)c2cccc(Sc3ccc(=NC(=O)c4cnc(N5CCC(C)CC5)c5ccccc45)[nH]c3)c2)CC1

>  <score_type>  (46) 
oracle

>  <origin>  (46) 
adg

>  <m_score__min__energy>  (46) 
-12.18

>  <m_primary>  (46) 
energy

$$$$
46:0
     RDKit          3D

 56 59  0  0  0  0  0  0  0  0999 V2000
   56.4833   29.4434   44.6433 H   0  0  0  0  0  0  0  0  0  0  0  0
   56.7890   28.5350   45.1830 C   0  0  0  0  0  0  0  0  0  0  0  0
   55.8960   27.6040   45.6150 N   0  0  0  0  0  0  0  0  0  0  0  0
   56.5070   26.5850   46.2580 C   0  0  0  0  0  0  0  0  0  0  0  0
   55.8450   25.5600   46.7080 N   0  0  0  0  0  0  0  0  0  0  0  0
   55.3190   24.4830   45.9200 C   0  0  0  0  0  0  0  0  0  0  0  0
   54.0720   24.2960   45.9170 O   0  0  0  0  0  0  0  0  0  0  0  0
   56.1970   23.5380   45.1850 C   0  0  0  0  0  0  0  0  0  0  0  0
   55.7850   22.9760   43.9620 C   0  0  0  0  0  0  0  0  0  0  0  0
   54.7894   23.2122   43.5582 H   0  0  0  0  0  0  0  0  0  0  0  0
   56.6370   22.1180   43.2580 C   0  0  0  0  0  0  0  0  0  0  0  0
   56.3089   21.6821   42.3028 H   0  0  0  0  0  0  0  0  0  0  0  0
   57.9030   21.8130   43.7640 C   0  0  0  0  0  0  0  0  0  0  0  0
   58.5696   21.1368   43.2086 H   0  0  0  0  0  0  0  0  0  0  0  0
   58.3220   22.3680   44.9770 C   0  0  0  0  0  0  0  0  0  0  0  0
   59.5420   22.0540   45.4840 F   0  0  0  0  0  0  0  0  0  0  0  0
   57.4760   23.2330   45.6820 C   0  0  0  0  0  0  0  0  0  0  0  0
   57.8143   23.6763   46.6302 H   0  0  0  0  0  0  0  0  0  0  0  0
   58.1870   26.7860   46.3050 S   0  0  0  0  0  0  0  0  0  0  0  0
   58.1210   28.2490   45.4770 C   0  0  0  0  0  0  0  0  0  0  0  0
   59.2990   29.1180   45.1600 C   0  0  0  0  0  0  0  0  0  0  0  0
   59.2895   29.3687   44.0890 H   0  0  0  0  0  0  0  0  0  0  0  0
   60.2246   28.5775   45.4073 H   0  0  0  0  0  0  0  0  0  0  0  0
   59.2340   30.3840   45.9690 C   0  0  0  0  0  0  0  0  0  0  0  0
   58.7660   31.5760   45.3930 C   0  0  0  0  0  0  0  0  0  0  0  0
   58.4971   31.5981   44.3266 H   0  0  0  0  0  0  0  0  0  0  0  0
   58.6390   32.7370   46.1660 C   0  0  0  0  0  0  0  0  0  0  0  0
   58.1050   33.9970   45.5270 C   0  0  0  0  0  0  0  0  0  0  0  0
   57.3772   34.4657   46.2056 H   0  0  0  0  0  0  0  0  0  0  0  0
   57.6229   33.7337   44.5740 H   0  0  0  0  0  0  0  0  0  0  0  0
   59.2380   34.9820   45.2490 C   0  0  0  0  0  0  0  0  0  0  0  0
   59.6526   35.3424   46.2020 H   0  0  0  0  0  0  0  0  0  0  0  0
   60.0281   34.4788   44.6724 H   0  0  0  0  0  0  0  0  0  0  0  0
   58.8496   35.8344   44.6724 H   0  0  0  0  0  0  0  0  0  0  0  0
   58.9320   32.6890   47.5440 C   0  0  0  0  0  0  0  0  0  0  0  0
   58.7760   33.8320   48.3230 O   0  0  0  0  0  0  0  0  0  0  0  0
   59.3690   31.4880   48.1400 C   0  0  0  0  0  0  0  0  0  0  0  0
   59.6590   31.4100   49.6290 C   0  0  0  0  0  0  0  0  0  0  0  0
   59.3257   30.4257   49.9896 H   0  0  0  0  0  0  0  0  0  0  0  0
   60.7411   31.5745   49.7385 H   0  0  0  0  0  0  0  0  0  0  0  0
   58.9970   32.4520   50.4580 N   0  0  0  0  0  0  0  0  0  0  0  0
   58.5930   33.1530   49.7870 H   0  0  0  0  0  0  0  0  0  0  0  0
   57.8960   31.9830   51.3110 C   0  0  0  0  0  0  0  0  0  0  0  0
   56.9784   31.8600   50.7170 H   0  0  0  0  0  0  0  0  0  0  0  0
   58.1256   31.0071   51.7637 H   0  0  0  0  0  0  0  0  0  0  0  0
   57.6980   33.0600   52.3760 C   0  0  0  0  0  0  0  0  0  0  0  0
   56.8585   33.7177   52.1064 H   0  0  0  0  0  0  0  0  0  0  0  0
   57.4610   32.6246   53.3580 H   0  0  0  0  0  0  0  0  0  0  0  0
   59.0050   33.8480   52.4060 C   0  0  0  0  0  0  0  0  0  0  0  0
   58.8250   34.9030   52.1519 H   0  0  0  0  0  0  0  0  0  0  0  0
   59.4689   33.8361   53.4033 H   0  0  0  0  0  0  0  0  0  0  0  0
   59.8940   33.1900   51.3570 C   0  0  0  0  0  0  0  0  0  0  0  0
   60.4503   33.9551   50.7956 H   0  0  0  0  0  0  0  0  0  0  0  0
   60.6319   32.5201   51.8226 H   0  0  0  0  0  0  0  0  0  0  0  0
   59.5510   30.3540   47.3340 C   0  0  0  0  0  0  0  0  0  0  0  0
   59.9476   29.4295   47.7791 H   0  0  0  0  0  0  0  0  0  0  0  0
  1  2  1  0
  2  3  1  0
  3  4  1  0
  4  5  2  0
  5  6  1  0
  6  7  2  0
  6  8  1  0
  8  9  2  0
  9 10  1  0
  9 11  1  0
 11 12  1  0
 11 13  2  0
 13 14  1  0
 13 15  1  0
 15 16  1  0
 15 17  2  0
 17 18  1  0
  4 19  1  0
 19 20  1  0
 20 21  1  0
 21 22  1  0
 21 23  1  0
 21 24  1  0
 24 25  2  0
 25 26  1  0
 25 27  1  0
 27 28  1  0
 28 29  1  0
 28 30  1  0
 28 31  1  0
 31 32  1  0
 31 33  1  0
 31 34  1  0
 27 35  2  0
 35 36  1  0
 35 37  1  0
 37 38  1  0
 38 39  1  0
 38 40  1  0
 38 41  1  0
 41 42  1  0
 41 43  1  0
 43 44  1  0
 43 45  1  0
 43 46  1  0
 46 47  1  0
 46 48  1  0
 46 49  1  0
 49 50  1  0
 49 51  1  0
 49 52  1  0
 52 53  1  0
 52 54  1  0
 37 55  2  0
 55 56  1  0
 20  2  2  0
 55 24  1  0
 17  8  1  0
 52 41  1  0
M  CHG  3   3  -1  36  -1  41   1
M  END
>  <UniqueID>  (47) 
46

>  <SMILES>  (47) 
CCc1cc(Cc2c[n-]/c(=N/C(=O)c3cccc(F)c3)s2)cc(C[NH+]2CCCC2)c1[O-]

>  <Energy>  (47) 
98.86177124611493

>  <Genealogy>  (47) 
CCc1cc(Cc2c[n-]c(=NC(=O)c3cccc(F)c3)s2)cc(C[NH+]2CCCC2)c1[O-] (protonated)
CCc1cc(Cc2c[n-]/c(=N/C(=O)c3cccc(F)c3)s2)cc(C[NH+]2CCCC2)c1[O-] (cis-trans isomerization)
CCc1cc(Cc2c[n-]/c(=N/C(=O)c3cccc(F)c3)s2)cc(C[NH+]2CCCC2)c1[O-] (3D coordinates assigned)
CCc1cc(Cc2c[n-]/c(=N/C(=O)c3cccc(F)c3)s2)cc(C[NH+]2CCCC2)c1[O-] (nonaromatic ring conformer: 98.86177124611493 kcal/mol)

>  <smiles>  (47) 
CCc1cc(Cc2c[nH]c(=NC(=O)c3cccc(F)c3)s2)cc(CN2CCCC2)c1O

>  <score_type>  (47) 
oracle

>  <origin>  (47) 
adg

>  <m_score__min__energy>  (47) 
-11.539999999999999

>  <m_primary>  (47) 
energy

$$$$
47:0
     RDKit          3D

 41 43  0  0  0  0  0  0  0  0999 V2000
   63.2950   33.5440   46.7660 C   0  0  0  0  0  0  0  0  0  0  0  0
   61.8940   33.7050   47.2790 C   0  0  0  0  0  0  0  0  0  0  0  0
   61.6670   34.0100   48.6280 C   0  0  0  0  0  0  0  0  0  0  0  0
   60.3630   34.1290   49.1120 C   0  0  0  0  0  0  0  0  0  0  0  0
   59.2760   33.9250   48.2580 C   0  0  0  0  0  0  0  0  0  0  0  0
   59.4840   33.5840   46.9110 C   0  0  0  0  0  0  0  0  0  0  0  0
   58.3380   33.3600   45.9990 C   0  0  0  0  0  0  0  0  0  0  0  0
   57.1710   33.6160   46.3980 O   0  0  0  0  0  0  0  0  0  0  0  0
   58.5070   32.8090   44.6850 N   0  0  0  0  0  0  0  0  0  0  0  0
   57.6920   31.7940   44.0810 C   0  0  0  0  0  0  0  0  0  0  0  0
   57.4470   31.7700   42.6980 C   0  0  0  0  0  0  0  0  0  0  0  0
   56.6470   30.7680   42.1450 C   0  0  0  0  0  0  0  0  0  0  0  0
   56.0650   29.7990   42.9660 C   0  0  0  0  0  0  0  0  0  0  0  0
   56.2640   29.8410   44.3580 C   0  0  0  0  0  0  0  0  0  0  0  0
   55.6970   28.8590   45.2390 N   0  0  0  0  0  0  0  0  0  0  0  0
   56.2730   27.5980   45.6020 C   0  0  0  0  0  0  0  0  0  0  0  0
   55.5490   26.6640   46.0410 O   0  0  0  0  0  0  0  0  0  0  0  0
   57.7520   27.3740   45.4120 C   0  0  0  0  0  0  0  0  0  0  0  0
   58.6360   28.2590   46.2930 C   0  0  0  0  0  0  0  0  0  0  0  0
   59.1960   27.0200   46.9790 C   0  0  0  0  0  0  0  0  0  0  0  0
   58.3020   26.1360   46.1220 C   0  0  0  0  0  0  0  0  0  0  0  0
   57.0880   30.8340   44.9020 C   0  0  0  0  0  0  0  0  0  0  0  0
   60.8010   33.4830   46.4270 C   0  0  0  0  0  0  0  0  0  0  0  0
   63.9895   33.4642   47.6153 H   0  0  0  0  0  0  0  0  0  0  0  0
   63.3587   32.6326   46.1533 H   0  0  0  0  0  0  0  0  0  0  0  0
   63.5638   34.4172   46.1533 H   0  0  0  0  0  0  0  0  0  0  0  0
   62.5194   34.1561   49.3078 H   0  0  0  0  0  0  0  0  0  0  0  0
   60.1908   34.3840   50.1681 H   0  0  0  0  0  0  0  0  0  0  0  0
   58.2510   34.0321   48.6427 H   0  0  0  0  0  0  0  0  0  0  0  0
   57.8863   32.5422   42.0493 H   0  0  0  0  0  0  0  0  0  0  0  0
   56.4744   30.7415   41.0589 H   0  0  0  0  0  0  0  0  0  0  0  0
   55.4500   29.0017   42.5232 H   0  0  0  0  0  0  0  0  0  0  0  0
   57.7929   27.4515   44.3155 H   0  0  0  0  0  0  0  0  0  0  0  0
   59.3852   28.8409   45.7361 H   0  0  0  0  0  0  0  0  0  0  0  0
   58.1926   29.0714   46.8876 H   0  0  0  0  0  0  0  0  0  0  0  0
   60.2722   26.8637   46.8137 H   0  0  0  0  0  0  0  0  0  0  0  0
   59.1742   26.9348   48.0755 H   0  0  0  0  0  0  0  0  0  0  0  0
   58.8512   25.4478   45.4627 H   0  0  0  0  0  0  0  0  0  0  0  0
   57.6171   25.4157   46.5933 H   0  0  0  0  0  0  0  0  0  0  0  0
   57.2629   30.8601   45.9877 H   0  0  0  0  0  0  0  0  0  0  0  0
   60.9757   33.2278   45.3714 H   0  0  0  0  0  0  0  0  0  0  0  0
  1  2  1  0
  2  3  2  0
  3  4  1  0
  4  5  2  0
  5  6  1  0
  6  7  1  0
  7  8  2  0
  7  9  1  0
  9 10  1  0
 10 11  2  0
 11 12  1  0
 12 13  2  0
 13 14  1  0
 14 15  1  0
 15 16  1  0
 16 17  2  0
 16 18  1  0
 18 19  1  0
 19 20  1  0
 20 21  1  0
 14 22  2  0
  6 23  2  0
 23  2  1  0
 22 10  1  0
 21 18  1  0
  1 24  1  0
  1 25  1  0
  1 26  1  0
  3 27  1  0
  4 28  1  0
  5 29  1  0
 11 30  1  0
 12 31  1  0
 13 32  1  0
 18 33  1  0
 19 34  1  0
 19 35  1  0
 20 36  1  0
 20 37  1  0
 21 38  1  0
 21 39  1  0
 22 40  1  0
 23 41  1  0
M  CHG  2   9  -1  15  -1
M  END
>  <UniqueID>  (48) 
47

>  <SMILES>  (48) 
Cc1cccc(C(=O)[N-]c2cccc([N-]C(=O)C3CCC3)c2)c1

>  <Energy>  (48) 
111.97188190387033

>  <Genealogy>  (48) 
Cc1cccc(C(=O)[N-]c2cccc([N-]C(=O)C3CCC3)c2)c1 (protonated)
Cc1cccc(C(=O)[N-]c2cccc([N-]C(=O)C3CCC3)c2)c1 (3D coordinates assigned)
Cc1cccc(C(=O)[N-]c2cccc([N-]C(=O)C3CCC3)c2)c1 (nonaromatic ring conformer: 111.97188190387033 kcal/mol)

>  <smiles>  (48) 
Cc1cccc(C(=O)Nc2cccc(NC(=O)C3CCC3)c2)c1

>  <score_type>  (48) 
oracle

>  <origin>  (48) 
adg

>  <m_score__min__energy>  (48) 
-11.890000000000001

>  <m_primary>  (48) 
energy

$$$$
48:0
     RDKit          3D

 59 61  0  0  0  0  0  0  0  0999 V2000
   63.0350   33.8170   46.3620 C   0  0  0  0  0  0  0  0  0  0  0  0
   63.9930   32.8980   46.8410 O   0  0  0  0  0  0  0  0  0  0  0  0
   63.9740   32.8650   48.2550 C   0  0  0  0  0  0  0  0  0  0  0  0
   62.5850   32.6120   48.7490 C   0  0  0  0  0  0  0  0  0  0  0  0
   61.7570   31.6920   48.2070 N   0  0  0  0  0  0  0  0  0  0  0  0
   60.5440   31.6800   48.8220 C   0  0  0  0  0  0  0  0  0  0  0  0
   59.4540   30.7400   48.4030 C   0  0  0  0  0  0  0  0  0  0  0  0
   59.9900   29.6800   47.5240 N   0  0  0  0  0  0  0  0  0  0  0  0
   59.7560   30.0210   46.1030 C   0  0  0  0  0  0  0  0  0  0  0  0
   59.8640   28.7820   45.2060 C   0  0  0  0  0  0  0  0  0  0  0  0
   58.8590   27.7440   45.5560 N   0  0  0  0  0  0  0  0  0  0  0  0
   57.7170   27.7390   44.6200 C   0  0  0  0  0  0  0  0  0  0  0  0
   57.1280   29.1120   44.5040 C   0  0  0  0  0  0  0  0  0  0  0  0
   56.1570   29.4400   45.2370 O   0  0  0  0  0  0  0  0  0  0  0  0
   57.6740   30.0510   43.5680 N   0  0  0  0  0  0  0  0  0  0  0  0
   57.0490   31.3530   43.3390 C   0  0  0  0  0  0  0  0  0  0  0  0
   58.0940   32.4730   43.3590 C   0  0  0  0  0  0  0  0  0  0  0  0
   58.0490   33.2280   44.6650 C   0  0  0  0  0  0  0  0  0  0  0  0
   57.4510   32.6970   45.7460 C   0  0  0  0  0  0  0  0  0  0  0  0
   57.4550   33.4570   47.0440 C   0  0  0  0  0  0  0  0  0  0  0  0
   58.8530   34.0360   47.3350 C   0  0  0  0  0  0  0  0  0  0  0  0
   59.5730   34.6130   46.0850 C   0  0  0  0  0  0  0  0  0  0  0  0
   58.7160   34.5770   44.8060 C   0  0  0  0  0  0  0  0  0  0  0  0
   58.3770   27.8400   46.9530 C   0  0  0  0  0  0  0  0  0  0  0  0
   59.4840   28.3320   47.8980 C   0  0  0  0  0  0  0  0  0  0  0  0
   60.3960   32.5950   49.8620 C   0  0  0  0  0  0  0  0  0  0  0  0
   61.8400   33.4480   50.0040 S   0  0  0  0  0  0  0  0  0  0  0  0
   62.5321   34.2994   47.2131 H   0  0  0  0  0  0  0  0  0  0  0  0
   63.5349   34.5821   45.7498 H   0  0  0  0  0  0  0  0  0  0  0  0
   62.2914   33.2858   45.7498 H   0  0  0  0  0  0  0  0  0  0  0  0
   64.6369   32.0614   48.6083 H   0  0  0  0  0  0  0  0  0  0  0  0
   64.3200   33.8354   48.6406 H   0  0  0  0  0  0  0  0  0  0  0  0
   59.0114   30.2780   49.2978 H   0  0  0  0  0  0  0  0  0  0  0  0
   58.6905   31.3067   47.8498 H   0  0  0  0  0  0  0  0  0  0  0  0
   58.7491   30.4515   45.9992 H   0  0  0  0  0  0  0  0  0  0  0  0
   60.5234   30.7439   45.7892 H   0  0  0  0  0  0  0  0  0  0  0  0
   59.7083   29.0872   44.1607 H   0  0  0  0  0  0  0  0  0  0  0  0
   60.8634   28.3463   45.3522 H   0  0  0  0  0  0  0  0  0  0  0  0
   58.0623   27.4083   43.6293 H   0  0  0  0  0  0  0  0  0  0  0  0
   56.9470   27.0524   45.0017 H   0  0  0  0  0  0  0  0  0  0  0  0
   58.5320   29.7810   43.0330 H   0  0  0  0  0  0  0  0  0  0  0  0
   56.5487   31.3449   42.3594 H   0  0  0  0  0  0  0  0  0  0  0  0
   56.3200   31.5386   44.1416 H   0  0  0  0  0  0  0  0  0  0  0  0
   59.0946   32.0344   43.2308 H   0  0  0  0  0  0  0  0  0  0  0  0
   57.8740   33.1737   42.5401 H   0  0  0  0  0  0  0  0  0  0  0  0
   56.9623   31.7136   45.6815 H   0  0  0  0  0  0  0  0  0  0  0  0
   56.7292   34.2812   46.9815 H   0  0  0  0  0  0  0  0  0  0  0  0
   57.1827   32.7677   47.8569 H   0  0  0  0  0  0  0  0  0  0  0  0
   58.7457   34.8428   48.0750 H   0  0  0  0  0  0  0  0  0  0  0  0
   59.4714   33.2033   47.7013 H   0  0  0  0  0  0  0  0  0  0  0  0
   59.8442   35.6587   46.2921 H   0  0  0  0  0  0  0  0  0  0  0  0
   60.4535   33.9801   45.9002 H   0  0  0  0  0  0  0  0  0  0  0  0
   57.9452   35.3598   44.8625 H   0  0  0  0  0  0  0  0  0  0  0  0
   59.3635   34.7512   43.9340 H   0  0  0  0  0  0  0  0  0  0  0  0
   57.5337   28.5452   46.9925 H   0  0  0  0  0  0  0  0  0  0  0  0
   58.0645   26.8373   47.2800 H   0  0  0  0  0  0  0  0  0  0  0  0
   59.0815   28.3768   48.9207 H   0  0  0  0  0  0  0  0  0  0  0  0
   60.3246   27.6261   47.8267 H   0  0  0  0  0  0  0  0  0  0  0  0
   59.4966   32.7349   50.4797 H   0  0  0  0  0  0  0  0  0  0  0  0
  1  2  1  0
  2  3  1  0
  3  4  1  0
  4  5  2  0
  5  6  1  0
  6  7  1  0
  7  8  1  0
  8  9  1  0
  9 10  1  0
 10 11  1  0
 11 12  1  0
 12 13  1  0
 13 14  2  0
 13 15  1  0
 15 16  1  0
 16 17  1  0
 17 18  1  0
 18 19  2  0
 19 20  1  0
 20 21  1  0
 21 22  1  0
 22 23  1  0
 11 24  1  0
 24 25  1  0
  6 26  2  0
 26 27  1  0
 27  4  1  0
 25  8  1  0
 23 18  1  0
  1 28  1  0
  1 29  1  0
  1 30  1  0
  3 31  1  0
  3 32  1  0
  7 33  1  0
  7 34  1  0
  9 35  1  0
  9 36  1  0
 10 37  1  0
 10 38  1  0
 12 39  1  0
 12 40  1  0
 15 41  1  0
 16 42  1  0
 16 43  1  0
 17 44  1  0
 17 45  1  0
 19 46  1  0
 20 47  1  0
 20 48  1  0
 21 49  1  0
 21 50  1  0
 22 51  1  0
 22 52  1  0
 23 53  1  0
 23 54  1  0
 24 55  1  0
 24 56  1  0
 25 57  1  0
 25 58  1  0
 26 59  1  0
M  END
>  <UniqueID>  (49) 
48

>  <SMILES>  (49) 
COCc1nc(CN2CCN(CC(=O)NCCC3=CCCCC3)CC2)cs1

>  <Energy>  (49) 
94.51958002711663

>  <Genealogy>  (49) 
COCc1nc(CN2CCN(CC(=O)NCCC3=CCCCC3)CC2)cs1 (3D coordinates assigned)
COCc1nc(CN2CCN(CC(=O)NCCC3=CCCCC3)CC2)cs1 (nonaromatic ring conformer: 94.51958002711663 kcal/mol)

>  <smiles>  (49) 
COCc1nc(CN2CCN(CC(=O)NCCC3=CCCCC3)CC2)cs1

>  <score_type>  (49) 
oracle

>  <origin>  (49) 
adg

>  <m_score__min__energy>  (49) 
-8.5399999999999991

>  <m_primary>  (49) 
energy

$$$$
49:0
     RDKit          3D

 41 45  0  0  0  0  0  0  0  0999 V2000
   59.2890   33.7710   49.9560 O   0  0  0  0  0  0  0  0  0  0  0  0
   59.5600   33.7660   48.7250 C   0  0  0  0  0  0  0  0  0  0  0  0
   58.5460   33.7630   47.8200 N   0  0  0  0  0  0  0  0  0  0  0  0
   58.7910   33.7540   46.4830 C   0  0  0  0  0  0  0  0  0  0  0  0
   57.6530   33.8260   45.5120 C   0  0  0  0  0  0  0  0  0  0  0  0
   57.9540   33.0380   44.2300 C   0  0  0  0  0  0  0  0  0  0  0  0
   57.5280   31.6440   44.3510 N   0  0  0  0  0  0  0  0  0  0  0  0
   56.2690   31.2350   44.1990 N   0  0  0  0  0  0  0  0  0  0  0  0
   56.2230   29.9850   44.7180 C   0  0  0  0  0  0  0  0  0  0  0  0
   55.1650   29.3230   44.8750 O   0  0  0  0  0  0  0  0  0  0  0  0
   57.4330   29.5940   45.1450 N   0  0  0  0  0  0  0  0  0  0  0  0
   57.7790   28.9920   46.2610 N   0  0  0  0  0  0  0  0  0  0  0  0
   58.8940   29.6660   46.6540 C   0  0  0  0  0  0  0  0  0  0  0  0
   59.6350   29.3580   47.8950 C   0  0  0  0  0  0  0  0  0  0  0  0
   60.2090   30.3900   48.6590 C   0  0  0  0  0  0  0  0  0  0  0  0
   60.9400   30.0910   49.8130 C   0  0  0  0  0  0  0  0  0  0  0  0
   61.1020   28.7640   50.2170 C   0  0  0  0  0  0  0  0  0  0  0  0
   60.5310   27.7320   49.4690 C   0  0  0  0  0  0  0  0  0  0  0  0
   59.8000   28.0260   48.3130 C   0  0  0  0  0  0  0  0  0  0  0  0
   59.1650   30.7550   45.8750 N   0  0  0  0  0  0  0  0  0  0  0  0
   58.2040   30.6360   44.9420 C   0  0  0  0  0  0  0  0  0  0  0  0
   60.0720   33.7670   46.0270 N   0  0  0  0  0  0  0  0  0  0  0  0
   61.1220   33.7760   46.8860 C   0  0  0  0  0  0  0  0  0  0  0  0
   62.4310   33.8170   46.3930 C   0  0  0  0  0  0  0  0  0  0  0  0
   63.5120   33.8490   47.2790 C   0  0  0  0  0  0  0  0  0  0  0  0
   63.2900   33.8370   48.6590 C   0  0  0  0  0  0  0  0  0  0  0  0
   61.9860   33.7980   49.1620 C   0  0  0  0  0  0  0  0  0  0  0  0
   60.8920   33.7730   48.2780 C   0  0  0  0  0  0  0  0  0  0  0  0
   56.7527   33.4073   45.9854 H   0  0  0  0  0  0  0  0  0  0  0  0
   57.4991   34.8806   45.2397 H   0  0  0  0  0  0  0  0  0  0  0  0
   57.4198   33.5043   43.3890 H   0  0  0  0  0  0  0  0  0  0  0  0
   59.0404   33.0555   44.0585 H   0  0  0  0  0  0  0  0  0  0  0  0
   60.0823   31.4373   48.3473 H   0  0  0  0  0  0  0  0  0  0  0  0
   61.3886   30.9031   50.4041 H   0  0  0  0  0  0  0  0  0  0  0  0
   61.6792   28.5317   51.1241 H   0  0  0  0  0  0  0  0  0  0  0  0
   60.6562   26.6871   49.7891 H   0  0  0  0  0  0  0  0  0  0  0  0
   59.3516   27.2098   47.7275 H   0  0  0  0  0  0  0  0  0  0  0  0
   62.6096   33.8241   45.3076 H   0  0  0  0  0  0  0  0  0  0  0  0
   64.5400   33.8837   46.8891 H   0  0  0  0  0  0  0  0  0  0  0  0
   64.1442   33.8583   49.3517 H   0  0  0  0  0  0  0  0  0  0  0  0
   61.8156   33.7869   50.2487 H   0  0  0  0  0  0  0  0  0  0  0  0
  1  2  2  0
  2  3  1  0
  3  4  2  0
  4  5  1  0
  5  6  1  0
  6  7  1  0
  7  8  1  0
  8  9  1  0
  9 10  2  0
  9 11  1  0
 11 12  1  0
 12 13  2  0
 13 14  1  0
 14 15  2  0
 15 16  1  0
 16 17  2  0
 17 18  1  0
 18 19  2  0
 13 20  1  0
 20 21  2  0
  4 22  1  0
 22 23  1  0
 23 24  2  0
 24 25  1  0
 25 26  2  0
 26 27  1  0
 27 28  2  0
 28  2  1  0
 21  7  1  0
 28 23  1  0
 21 11  1  0
 19 14  1  0
  5 29  1  0
  5 30  1  0
  6 31  1  0
  6 32  1  0
 15 33  1  0
 16 34  1  0
 17 35  1  0
 18 36  1  0
 19 37  1  0
 24 38  1  0
 25 39  1  0
 26 40  1  0
 27 41  1  0
M  CHG  2   8  -1  22  -1
M  END
>  <UniqueID>  (50) 
49

>  <SMILES>  (50) 
O=c1nc(CCn2[n-]c(=O)n3nc(-c4ccccc4)nc23)[n-]c2ccccc12

>  <Energy>  (50) 
145.33645543237446

>  <Genealogy>  (50) 
O=c1nc(CCn2[n-]c(=O)n3nc(-c4ccccc4)nc23)[n-]c2ccccc12 (protonated)
O=c1nc(CCn2[n-]c(=O)n3nc(-c4ccccc4)nc23)[n-]c2ccccc12 (3D coordinates assigned)
O=c1nc(CCn2[n-]c(=O)n3nc(-c4ccccc4)nc23)[n-]c2ccccc12 (optimized conformer: 145.33645543237446 kcal/mol)

>  <smiles>  (50) 
O=c1nc(CCn2[nH]c(=O)n3nc(-c4ccccc4)nc23)[nH]c2ccccc12

>  <score_type>  (50) 
oracle

>  <origin>  (50) 
adg

>  <m_score__min__energy>  (50) 
-10.93

>  <m_primary>  (50) 
energy

$$$$
50:0
     RDKit          3D

 52 54  0  0  0  0  0  0  0  0999 V2000
   58.6950   27.9140   43.9110 C   0  0  0  0  0  0  0  0  0  0  0  0
   57.5250   28.0960   44.7840 N   0  0  0  0  0  0  0  0  0  0  0  0
   56.5610   29.0820   44.3670 C   0  0  0  0  0  0  0  0  0  0  0  0
   57.0170   30.4860   44.5570 C   0  0  0  0  0  0  0  0  0  0  0  0
   56.6810   31.2950   43.6470 O   0  0  0  0  0  0  0  0  0  0  0  0
   57.7750   30.9340   45.6540 N   0  0  0  0  0  0  0  0  0  0  0  0
   58.2430   32.2350   45.8880 C   0  0  0  0  0  0  0  0  0  0  0  0
   58.2340   32.9040   47.0800 C   0  0  0  0  0  0  0  0  0  0  0  0
   58.7160   34.2080   47.2270 C   0  0  0  0  0  0  0  0  0  0  0  0
   59.2280   34.8910   46.1660 C   0  0  0  0  0  0  0  0  0  0  0  0
   59.6990   36.1520   46.2840 F   0  0  0  0  0  0  0  0  0  0  0  0
   59.2510   34.2350   44.9390 C   0  0  0  0  0  0  0  0  0  0  0  0
   58.7730   32.9450   44.8010 C   0  0  0  0  0  0  0  0  0  0  0  0
   57.3770   27.3150   45.9840 C   0  0  0  0  0  0  0  0  0  0  0  0
   56.2750   26.7700   46.2860 O   0  0  0  0  0  0  0  0  0  0  0  0
   58.5900   27.1770   46.8540 C   0  0  0  0  0  0  0  0  0  0  0  0
   58.5330   28.3880   48.2090 S   0  0  0  0  0  0  0  0  0  0  0  0
   59.7480   29.6360   47.9380 C   0  0  0  0  0  0  0  0  0  0  0  0
   59.8400   30.6340   48.8550 N   0  0  0  0  0  0  0  0  0  0  0  0
   60.7270   31.6360   48.7680 C   0  0  0  0  0  0  0  0  0  0  0  0
   60.7260   32.5100   49.6710 O   0  0  0  0  0  0  0  0  0  0  0  0
   61.6000   31.6630   47.6890 C   0  0  0  0  0  0  0  0  0  0  0  0
   62.7410   32.9740   47.6190 S   0  0  0  0  0  0  0  0  0  0  0  0
   63.7430   32.8480   46.5280 O   0  0  0  0  0  0  0  0  0  0  0  0
   61.9170   34.2170   47.2910 O   0  0  0  0  0  0  0  0  0  0  0  0
   63.5250   33.3080   49.1230 C   0  0  0  0  0  0  0  0  0  0  0  0
   63.0640   34.2470   50.0350 C   0  0  0  0  0  0  0  0  0  0  0  0
   63.7590   34.4460   51.2080 C   0  0  0  0  0  0  0  0  0  0  0  0
   64.9190   33.7070   51.4750 C   0  0  0  0  0  0  0  0  0  0  0  0
   65.3930   32.7640   50.5720 C   0  0  0  0  0  0  0  0  0  0  0  0
   64.6860   32.5880   49.4200 C   0  0  0  0  0  0  0  0  0  0  0  0
   61.5200   30.6580   46.7460 C   0  0  0  0  0  0  0  0  0  0  0  0
   60.5980   29.6860   46.9090 N   0  0  0  0  0  0  0  0  0  0  0  0
   59.5947   27.7740   44.5281 H   0  0  0  0  0  0  0  0  0  0  0  0
   58.5445   27.0285   43.2760 H   0  0  0  0  0  0  0  0  0  0  0  0
   58.8206   28.8034   43.2760 H   0  0  0  0  0  0  0  0  0  0  0  0
   56.3475   28.9282   43.2989 H   0  0  0  0  0  0  0  0  0  0  0  0
   55.6704   28.9463   44.9982 H   0  0  0  0  0  0  0  0  0  0  0  0
   58.0100   30.1990   46.3760 H   0  0  0  0  0  0  0  0  0  0  0  0
   57.8284   32.3922   47.9652 H   0  0  0  0  0  0  0  0  0  0  0  0
   58.6811   34.6899   48.2152 H   0  0  0  0  0  0  0  0  0  0  0  0
   59.6586   34.7544   44.0592 H   0  0  0  0  0  0  0  0  0  0  0  0
   58.8094   32.4631   43.8129 H   0  0  0  0  0  0  0  0  0  0  0  0
   58.6210   26.1615   47.2755 H   0  0  0  0  0  0  0  0  0  0  0  0
   59.4892   27.3598   46.2473 H   0  0  0  0  0  0  0  0  0  0  0  0
   62.1532   34.8264   49.8236 H   0  0  0  0  0  0  0  0  0  0  0  0
   63.4018   35.1878   51.9375 H   0  0  0  0  0  0  0  0  0  0  0  0
   65.4635   33.8765   52.4156 H   0  0  0  0  0  0  0  0  0  0  0  0
   66.3033   32.1820   50.7785 H   0  0  0  0  0  0  0  0  0  0  0  0
   65.0450   31.8462   48.6914 H   0  0  0  0  0  0  0  0  0  0  0  0
   62.1953   30.6496   45.8777 H   0  0  0  0  0  0  0  0  0  0  0  0
   60.5250   28.9170   46.1980 H   0  0  0  0  0  0  0  0  0  0  0  0
  1  2  1  0
  2  3  1  0
  3  4  1  0
  4  5  2  0
  4  6  1  0
  6  7  1  0
  7  8  2  0
  8  9  1  0
  9 10  2  0
 10 11  1  0
 10 12  1  0
 12 13  2  0
  2 14  1  0
 14 15  2  0
 14 16  1  0
 16 17  1  0
 17 18  1  0
 18 19  2  0
 19 20  1  0
 20 21  2  0
 20 22  1  0
 22 23  1  0
 23 24  2  0
 23 25  2  0
 23 26  1  0
 26 27  2  0
 27 28  1  0
 28 29  2  0
 29 30  1  0
 30 31  2  0
 22 32  2  0
 32 33  1  0
 13  7  1  0
 33 18  1  0
 31 26  1  0
  1 34  1  0
  1 35  1  0
  1 36  1  0
  3 37  1  0
  3 38  1  0
  6 39  1  0
  8 40  1  0
  9 41  1  0
 12 42  1  0
 13 43  1  0
 16 44  1  0
 16 45  1  0
 27 46  1  0
 28 47  1  0
 29 48  1  0
 30 49  1  0
 31 50  1  0
 32 51  1  0
 33 52  1  0
M  END
>  <smiles>  (51) 
CN(CC(=O)Nc1ccc(F)cc1)C(=O)CSc1nc(=O)c(S(=O)(=O)c2ccccc2)c[nH]1

>  <score_type>  (51) 
oracle

>  <origin>  (51) 
adg

>  <m_score__min__energy>  (51) 
-8.4600000000000009

>  <m_primary>  (51) 
energy

$$$$
51:0
     RDKit          3D

 28 29  0  0  0  0  0  0  0  0999 V2000
   55.1440   30.0730   44.1660 C   0  0  0  0  0  0  0  0  0  0  0  0
   56.2470   29.5540   44.7260 C   0  0  0  0  0  0  0  0  0  0  0  0
   56.1310   28.2850   45.2030 N   0  0  0  0  0  0  0  0  0  0  0  0
   57.0580   27.6980   45.9940 C   0  0  0  0  0  0  0  0  0  0  0  0
   56.8510   26.3180   46.4660 C   0  0  0  0  0  0  0  0  0  0  0  0
   57.8010   25.5190   47.0740 C   0  0  0  0  0  0  0  0  0  0  0  0
   57.1680   24.3250   47.3420 C   0  0  0  0  0  0  0  0  0  0  0  0
   55.8750   24.4670   46.8840 C   0  0  0  0  0  0  0  0  0  0  0  0
   55.7160   25.6640   46.3680 O   0  0  0  0  0  0  0  0  0  0  0  0
   58.1710   28.4290   46.3930 C   0  0  0  0  0  0  0  0  0  0  0  0
   58.3760   29.7170   45.8970 C   0  0  0  0  0  0  0  0  0  0  0  0
   59.4350   30.3050   46.2470 O   0  0  0  0  0  0  0  0  0  0  0  0
   57.4500   30.3040   44.9770 C   0  0  0  0  0  0  0  0  0  0  0  0
   57.7450   31.4850   44.3290 C   0  0  0  0  0  0  0  0  0  0  0  0
   57.8240   31.5970   42.8250 C   0  0  0  0  0  0  0  0  0  0  0  0
   57.8710   32.8050   45.0580 C   0  0  0  0  0  0  0  0  0  0  0  0
   55.1627   31.0945   43.7583 H   0  0  0  0  0  0  0  0  0  0  0  0
   54.2208   29.4771   44.1145 H   0  0  0  0  0  0  0  0  0  0  0  0
   58.8455   25.7819   47.2975 H   0  0  0  0  0  0  0  0  0  0  0  0
   57.6054   23.4381   47.8237 H   0  0  0  0  0  0  0  0  0  0  0  0
   55.0945   23.6941   46.9422 H   0  0  0  0  0  0  0  0  0  0  0  0
   58.8909   27.9916   47.1005 H   0  0  0  0  0  0  0  0  0  0  0  0
   58.4385   32.4682   42.5540 H   0  0  0  0  0  0  0  0  0  0  0  0
   58.2794   30.6845   42.4128 H   0  0  0  0  0  0  0  0  0  0  0  0
   56.8116   31.7199   42.4128 H   0  0  0  0  0  0  0  0  0  0  0  0
   57.8541   32.6275   46.1434 H   0  0  0  0  0  0  0  0  0  0  0  0
   58.8193   33.2882   44.7802 H   0  0  0  0  0  0  0  0  0  0  0  0
   57.0312   33.4589   44.7802 H   0  0  0  0  0  0  0  0  0  0  0  0
  1  2  2  0
  2  3  1  0
  3  4  1  0
  4  5  1  0
  5  6  2  0
  6  7  1  0
  7  8  2  0
  8  9  1  0
  4 10  2  0
 10 11  1  0
 11 12  2  0
 11 13  1  0
 13 14  2  3
 14 15  1  0
 14 16  1  0
 13  2  1  0
  9  5  1  0
  1 17  1  0
  1 18  1  0
  6 19  1  0
  7 20  1  0
  8 21  1  0
 10 22  1  0
 15 23  1  0
 15 24  1  0
 15 25  1  0
 16 26  1  0
 16 27  1  0
 16 28  1  0
M  CHG  1   3  -1
M  END
>  <UniqueID>  (52) 
50

>  <SMILES>  (52) 
C=c1[n-]c(-c2ccco2)cc(=O)c1=C(C)C

>  <Energy>  (52) 
80.66421718636946

>  <Genealogy>  (52) 
C=c1[n-]c(-c2ccco2)cc(=O)c1=C(C)C (protonated)
C=c1[n-]c(-c2ccco2)cc(=O)c1=C(C)C (3D coordinates assigned)
C=c1[n-]c(-c2ccco2)cc(=O)c1=C(C)C (optimized conformer: 80.66421718636946 kcal/mol)

>  <smiles>  (52) 
C=c1[nH]c(-c2ccco2)cc(=O)c1=C(C)C

>  <score_type>  (52) 
oracle

>  <origin>  (52) 
adg

>  <m_score__min__energy>  (52) 
-7.6500000000000004

>  <m_primary>  (52) 
energy

$$$$
52:0
     RDKit          3D

 57 60  0  0  0  0  0  0  0  0999 V2000
   58.8010   32.6930   48.2650 C   0  0  0  0  0  0  0  0  0  0  0  0
   58.4350   33.0400   46.8470 C   0  0  0  0  0  0  0  0  0  0  0  0
   57.7620   32.0910   46.0580 C   0  0  0  0  0  0  0  0  0  0  0  0
   57.4190   32.3770   44.7280 C   0  0  0  0  0  0  0  0  0  0  0  0
   56.6610   31.3680   43.9080 C   0  0  0  0  0  0  0  0  0  0  0  0
   57.1880   29.9940   44.1760 C   0  0  0  0  0  0  0  0  0  0  0  0
   58.4670   29.6190   43.9510 N   0  0  0  0  0  0  0  0  0  0  0  0
   58.5200   28.3580   44.4320 C   0  0  0  0  0  0  0  0  0  0  0  0
   59.5710   27.6640   44.4160 O   0  0  0  0  0  0  0  0  0  0  0  0
   57.3480   27.9230   44.9460 N   0  0  0  0  0  0  0  0  0  0  0  0
   57.0790   26.6600   45.6330 C   0  0  0  0  0  0  0  0  0  0  0  0
   57.8440   26.6040   46.9200 C   0  0  0  0  0  0  0  0  0  0  0  0
   57.5830   25.6900   47.7500 O   0  0  0  0  0  0  0  0  0  0  0  0
   58.9090   27.5380   47.1680 N   0  0  0  0  0  0  0  0  0  0  0  0
   59.5400   27.7150   48.4480 C   0  0  0  0  0  0  0  0  0  0  0  0
   60.3990   26.7190   48.9340 C   0  0  0  0  0  0  0  0  0  0  0  0
   61.0450   26.8760   50.1640 C   0  0  0  0  0  0  0  0  0  0  0  0
   60.8590   28.0450   50.9220 C   0  0  0  0  0  0  0  0  0  0  0  0
   61.5190   28.2090   52.1910 N   0  0  0  0  0  0  0  0  0  0  0  0
   61.1160   27.4150   53.3580 C   0  0  0  0  0  0  0  0  0  0  0  0
   62.3550   26.9640   54.1670 C   0  0  0  0  0  0  0  0  0  0  0  0
   63.5530   27.6380   53.8100 O   0  0  0  0  0  0  0  0  0  0  0  0
   63.3180   29.0220   53.6570 C   0  0  0  0  0  0  0  0  0  0  0  0
   62.5260   29.2640   52.3690 C   0  0  0  0  0  0  0  0  0  0  0  0
   60.0100   29.0480   50.4280 C   0  0  0  0  0  0  0  0  0  0  0  0
   59.3650   28.8910   49.1980 C   0  0  0  0  0  0  0  0  0  0  0  0
   56.5150   28.9660   44.8010 C   0  0  0  0  0  0  0  0  0  0  0  0
   55.1950   28.9910   45.2390 O   0  0  0  0  0  0  0  0  0  0  0  0
   57.7310   33.6310   44.1900 C   0  0  0  0  0  0  0  0  0  0  0  0
   58.3980   34.5830   44.9640 C   0  0  0  0  0  0  0  0  0  0  0  0
   58.7550   34.3030   46.2920 C   0  0  0  0  0  0  0  0  0  0  0  0
   59.4340   35.3080   47.0570 N   0  0  0  0  0  0  0  0  0  0  0  0
   58.1811   33.2807   48.9580 H   0  0  0  0  0  0  0  0  0  0  0  0
   58.6268   31.6205   48.4367 H   0  0  0  0  0  0  0  0  0  0  0  0
   59.8627   32.9241   48.4367 H   0  0  0  0  0  0  0  0  0  0  0  0
   57.5013   31.1128   46.4884 H   0  0  0  0  0  0  0  0  0  0  0  0
   55.5947   31.4081   44.1752 H   0  0  0  0  0  0  0  0  0  0  0  0
   56.7862   31.6018   42.8404 H   0  0  0  0  0  0  0  0  0  0  0  0
   56.0025   26.5829   45.8454 H   0  0  0  0  0  0  0  0  0  0  0  0
   57.3929   25.8248   44.9896 H   0  0  0  0  0  0  0  0  0  0  0  0
   59.3150   28.0420   46.3470 H   0  0  0  0  0  0  0  0  0  0  0  0
   60.5660   25.8066   48.3427 H   0  0  0  0  0  0  0  0  0  0  0  0
   61.7032   26.0794   50.5410 H   0  0  0  0  0  0  0  0  0  0  0  0
   60.4662   28.0250   54.0028 H   0  0  0  0  0  0  0  0  0  0  0  0
   60.5773   26.5217   53.0089 H   0  0  0  0  0  0  0  0  0  0  0  0
   62.1583   27.1490   55.2333 H   0  0  0  0  0  0  0  0  0  0  0  0
   62.5104   25.8980   53.9445 H   0  0  0  0  0  0  0  0  0  0  0  0
   62.7421   29.3938   54.5173 H   0  0  0  0  0  0  0  0  0  0  0  0
   64.2792   29.5541   53.6028 H   0  0  0  0  0  0  0  0  0  0  0  0
   62.0234   30.2406   52.4288 H   0  0  0  0  0  0  0  0  0  0  0  0
   63.2169   29.2510   51.5131 H   0  0  0  0  0  0  0  0  0  0  0  0
   59.8510   29.9653   51.0139 H   0  0  0  0  0  0  0  0  0  0  0  0
   58.7165   29.6925   48.8145 H   0  0  0  0  0  0  0  0  0  0  0  0
   57.4496   33.8676   43.1532 H   0  0  0  0  0  0  0  0  0  0  0  0
   58.6460   35.5621   44.5284 H   0  0  0  0  0  0  0  0  0  0  0  0
   60.4630   35.2760   47.2330 H   0  0  0  0  0  0  0  0  0  0  0  0
   58.8980   36.0980   47.4830 H   0  0  0  0  0  0  0  0  0  0  0  0
  1  2  1  0
  2  3  2  0
  3  4  1  0
  4  5  1  0
  5  6  1  0
  6  7  1  0
  7  8  1  0
  8  9  2  0
  8 10  1  0
 10 11  1  0
 11 12  1  0
 12 13  2  0
 12 14  1  0
 14 15  1  0
 15 16  2  0
 16 17  1  0
 17 18  2  0
 18 19  1  0
 19 20  1  0
 20 21  1  0
 21 22  1  0
 22 23  1  0
 23 24  1  0
 18 25  1  0
 25 26  2  0
 10 27  1  0
 27 28  1  0
  4 29  2  0
 29 30  1  0
 30 31  2  0
 31 32  1  0
 31  2  1  0
 27  6  2  0
 26 15  1  0
 24 19  1  0
  1 33  1  0
  1 34  1  0
  1 35  1  0
  3 36  1  0
  5 37  1  0
  5 38  1  0
 11 39  1  0
 11 40  1  0
 14 41  1  0
 16 42  1  0
 17 43  1  0
 20 44  1  0
 20 45  1  0
 21 46  1  0
 21 47  1  0
 23 48  1  0
 23 49  1  0
 24 50  1  0
 24 51  1  0
 25 52  1  0
 26 53  1  0
 29 54  1  0
 30 55  1  0
 32 56  1  0
 32 57  1  0
M  CHG  2   7  -1  28  -1
M  END
>  <UniqueID>  (53) 
51

>  <SMILES>  (53) 
Cc1cc(Cc2[n-]c(=O)n(CC(=O)Nc3ccc(N4CCOCC4)cc3)c2[O-])ccc1N

>  <Energy>  (53) 
102.8985376670715

>  <Genealogy>  (53) 
Cc1cc(Cc2[n-]c(=O)n(CC(=O)Nc3ccc(N4CCOCC4)cc3)c2[O-])ccc1N (protonated)
Cc1cc(Cc2[n-]c(=O)n(CC(=O)Nc3ccc(N4CCOCC4)cc3)c2[O-])ccc1N (3D coordinates assigned)
Cc1cc(Cc2[n-]c(=O)n(CC(=O)Nc3ccc(N4CCOCC4)cc3)c2[O-])ccc1N (nonaromatic ring conformer: 102.8985376670715 kcal/mol)

>  <smiles>  (53) 
Cc1cc(Cc2[nH]c(=O)n(CC(=O)Nc3ccc(N4CCOCC4)cc3)c2O)ccc1N

>  <score_type>  (53) 
oracle

>  <origin>  (53) 
adg

>  <m_score__min__energy>  (53) 
-12.140000000000001

>  <m_primary>  (53) 
energy

$$$$
53:0
     RDKit          3D

 31 33  0  0  0  0  0  0  0  0999 V2000
   54.7450   27.1030   45.9870 H   0  0  0  0  0  0  0  0  0  0  0  0
   54.4540   26.1410   45.8690 O   0  0  0  0  0  0  0  0  0  0  0  0
   55.3110   25.1570   45.3810 C   0  0  0  0  0  0  0  0  0  0  0  0
   54.8210   24.0740   44.7200 N   0  0  0  0  0  0  0  0  0  0  0  0
   55.8140   23.2740   44.2850 C   0  0  0  0  0  0  0  0  0  0  0  0
   55.6090   22.2120   43.6430 O   0  0  0  0  0  0  0  0  0  0  0  0
   57.3360   23.8560   44.6870 S   0  0  0  0  0  0  0  0  0  0  0  0
   56.7090   25.2010   45.4860 C   0  0  0  0  0  0  0  0  0  0  0  0
   57.5380   26.2240   46.1520 C   0  0  0  0  0  0  0  0  0  0  0  0
   58.7310   25.9440   46.4410 O   0  0  0  0  0  0  0  0  0  0  0  0
   57.0470   27.5370   46.4580 N   0  0  0  0  0  0  0  0  0  0  0  0
   56.9030   28.5200   45.6170 C   0  0  0  0  0  0  0  0  0  0  0  0
   55.7010   28.8430   45.0950 N   0  0  0  0  0  0  0  0  0  0  0  0
   55.7940   29.8740   44.2140 C   0  0  0  0  0  0  0  0  0  0  0  0
   54.9205   30.2872   43.6885 H   0  0  0  0  0  0  0  0  0  0  0  0
   57.0790   30.3630   44.0310 C   0  0  0  0  0  0  0  0  0  0  0  0
   57.5460   31.6970   42.9360 S   0  0  0  0  0  0  0  0  0  0  0  0
   57.9750   32.7800   44.2970 C   0  0  0  0  0  0  0  0  0  0  0  0
   58.9130   33.8020   44.1130 C   0  0  0  0  0  0  0  0  0  0  0  0
   59.3911   33.9376   43.1317 H   0  0  0  0  0  0  0  0  0  0  0  0
   59.2440   34.6510   45.1730 C   0  0  0  0  0  0  0  0  0  0  0  0
   59.9812   35.4536   45.0234 H   0  0  0  0  0  0  0  0  0  0  0  0
   58.6380   34.4820   46.4280 C   0  0  0  0  0  0  0  0  0  0  0  0
   58.9750   35.3500   47.5130 N   0  0  0  0  0  0  0  0  0  0  0  0
   58.9030   36.3870   47.4090 H   0  0  0  0  0  0  0  0  0  0  0  0
   59.2960   34.9630   48.4280 H   0  0  0  0  0  0  0  0  0  0  0  0
   57.7000   33.4540   46.6100 C   0  0  0  0  0  0  0  0  0  0  0  0
   57.2222   33.3153   47.5910 H   0  0  0  0  0  0  0  0  0  0  0  0
   57.3710   32.6060   45.5490 C   0  0  0  0  0  0  0  0  0  0  0  0
   56.6366   31.8006   45.6972 H   0  0  0  0  0  0  0  0  0  0  0  0
   58.1430   29.4870   44.9940 S   0  0  0  0  0  0  0  0  0  0  0  0
  1  2  1  0
  2  3  1  0
  3  4  1  0
  4  5  1  0
  5  6  2  0
  5  7  1  0
  7  8  1  0
  8  9  1  0
  9 10  2  0
  9 11  1  0
 11 12  2  0
 12 13  1  0
 13 14  1  0
 14 15  1  0
 14 16  2  0
 16 17  1  0
 17 18  1  0
 18 19  2  0
 19 20  1  0
 19 21  1  0
 21 22  1  0
 21 23  2  0
 23 24  1  0
 24 25  1  0
 24 26  1  0
 23 27  1  0
 27 28  1  0
 27 29  2  0
 29 30  1  0
 16 31  1  0
  8  3  2  0
 31 12  1  0
 29 18  1  0
M  CHG  2   4  -1  13  -1
M  END
>  <UniqueID>  (54) 
52

>  <SMILES>  (54) 
Nc1ccc(Sc2c[n-]/c(=N/C(=O)c3sc(=O)[n-]c3O)s2)cc1

>  <Energy>  (54) 
98.59027437971764

>  <Genealogy>  (54) 
Nc1ccc(Sc2c[n-]c(=NC(=O)c3sc(=O)[n-]c3O)s2)cc1 (protonated)
Nc1ccc(Sc2c[n-]/c(=N/C(=O)c3sc(=O)[n-]c3O)s2)cc1 (cis-trans isomerization)
Nc1ccc(Sc2c[n-]/c(=N/C(=O)c3sc(=O)[n-]c3O)s2)cc1 (3D coordinates assigned)
Nc1ccc(Sc2c[n-]/c(=N/C(=O)c3sc(=O)[n-]c3O)s2)cc1 (optimized conformer: 98.59027437971764 kcal/mol)

>  <smiles>  (54) 
Nc1ccc(Sc2c[nH]c(=NC(=O)c3sc(=O)[nH]c3O)s2)cc1

>  <score_type>  (54) 
oracle

>  <origin>  (54) 
adg

>  <m_score__min__energy>  (54) 
-12.720000000000001

>  <m_primary>  (54) 
energy

$$$$
54:0
     RDKit          3D

 37 39  0  0  0  0  0  0  0  0999 V2000
   58.6050   31.1140   47.9540 O   0  0  0  0  0  0  0  0  0  0  0  0
   59.1730   30.1710   48.5670 C   0  0  0  0  0  0  0  0  0  0  0  0
   59.3610   30.2650   50.0450 C   0  0  0  0  0  0  0  0  0  0  0  0
   58.8280   31.8980   50.6540 S   0  0  0  0  0  0  0  0  0  0  0  0
   57.5270   31.2460   51.6970 C   0  0  0  0  0  0  0  0  0  0  0  0
   57.4150   31.5100   53.0110 N   0  0  0  0  0  0  0  0  0  0  0  0
   56.3310   30.8720   53.4230 N   0  0  0  0  0  0  0  0  0  0  0  0
   55.8270   30.2450   52.3440 C   0  0  0  0  0  0  0  0  0  0  0  0
   54.5510   29.4650   52.3580 C   0  0  0  0  0  0  0  0  0  0  0  0
   53.3490   30.3650   52.2540 C   0  0  0  0  0  0  0  0  0  0  0  0
   52.5480   30.6160   53.3810 C   0  0  0  0  0  0  0  0  0  0  0  0
   51.4670   31.4970   53.2930 C   0  0  0  0  0  0  0  0  0  0  0  0
   51.1650   32.1180   52.0770 C   0  0  0  0  0  0  0  0  0  0  0  0
   50.1010   33.0080   51.9950 O   0  0  0  0  0  0  0  0  0  0  0  0
   51.9340   31.8430   50.9420 C   0  0  0  0  0  0  0  0  0  0  0  0
   53.0220   30.9700   51.0290 C   0  0  0  0  0  0  0  0  0  0  0  0
   56.5560   30.4720   51.2770 O   0  0  0  0  0  0  0  0  0  0  0  0
   59.6800   29.0300   47.8610 N   0  0  0  0  0  0  0  0  0  0  0  0
   58.9400   28.1750   46.9790 C   0  0  0  0  0  0  0  0  0  0  0  0
   58.5690   26.8660   47.3410 C   0  0  0  0  0  0  0  0  0  0  0  0
   57.8160   26.0790   46.4610 C   0  0  0  0  0  0  0  0  0  0  0  0
   57.4510   26.5820   45.2100 C   0  0  0  0  0  0  0  0  0  0  0  0
   57.8500   27.8660   44.8290 C   0  0  0  0  0  0  0  0  0  0  0  0
   58.5990   28.6550   45.7070 C   0  0  0  0  0  0  0  0  0  0  0  0
   58.7636   29.4828   50.5363 H   0  0  0  0  0  0  0  0  0  0  0  0
   60.4277   30.1297   50.2771 H   0  0  0  0  0  0  0  0  0  0  0  0
   54.5495   28.7680   51.5070 H   0  0  0  0  0  0  0  0  0  0  0  0
   54.4913   28.9209   53.3122 H   0  0  0  0  0  0  0  0  0  0  0  0
   52.7727   30.1174   54.3354 H   0  0  0  0  0  0  0  0  0  0  0  0
   50.8524   31.7024   54.1819 H   0  0  0  0  0  0  0  0  0  0  0  0
   51.6826   32.3139   49.9802 H   0  0  0  0  0  0  0  0  0  0  0  0
   53.6249   30.7557   50.1343 H   0  0  0  0  0  0  0  0  0  0  0  0
   58.8715   26.4604   48.3177 H   0  0  0  0  0  0  0  0  0  0  0  0
   57.5116   25.0637   46.7551 H   0  0  0  0  0  0  0  0  0  0  0  0
   56.8493   25.9672   44.5245 H   0  0  0  0  0  0  0  0  0  0  0  0
   57.5746   28.2560   43.8380 H   0  0  0  0  0  0  0  0  0  0  0  0
   58.9230   29.6596   45.3974 H   0  0  0  0  0  0  0  0  0  0  0  0
  1  2  2  0
  2  3  1  0
  3  4  1  0
  4  5  1  0
  5  6  2  0
  6  7  1  0
  7  8  2  0
  8  9  1  0
  9 10  1  0
 10 11  2  0
 11 12  1  0
 12 13  2  0
 13 14  1  0
 13 15  1  0
 15 16  2  0
  8 17  1  0
  2 18  1  0
 18 19  1  0
 19 20  2  0
 20 21  1  0
 21 22  2  0
 22 23  1  0
 23 24  2  0
 17  5  1  0
 24 19  1  0
 16 10  1  0
  3 25  1  0
  3 26  1  0
  9 27  1  0
  9 28  1  0
 11 29  1  0
 12 30  1  0
 15 31  1  0
 16 32  1  0
 20 33  1  0
 21 34  1  0
 22 35  1  0
 23 36  1  0
 24 37  1  0
M  CHG  2  14  -1  18  -1
M  END
>  <UniqueID>  (55) 
53

>  <SMILES>  (55) 
O=C(CSc1nnc(Cc2ccc([O-])cc2)o1)[N-]c1ccccc1

>  <Energy>  (55) 
67.20496726943959

>  <Genealogy>  (55) 
O=C(CSc1nnc(Cc2ccc([O-])cc2)o1)[N-]c1ccccc1 (protonated)
O=C(CSc1nnc(Cc2ccc([O-])cc2)o1)[N-]c1ccccc1 (3D coordinates assigned)
O=C(CSc1nnc(Cc2ccc([O-])cc2)o1)[N-]c1ccccc1 (optimized conformer: 67.20496726943959 kcal/mol)

>  <smiles>  (55) 
O=C(CSc1nnc(Cc2ccc(O)cc2)o1)Nc1ccccc1

>  <score_type>  (55) 
oracle

>  <origin>  (55) 
adg

>  <m_score__min__energy>  (55) 
-12.529999999999999

>  <m_primary>  (55) 
energy

$$$$
55:0
     RDKit          3D

 43 45  0  0  0  0  0  0  0  0999 V2000
   58.2320   25.0130   45.5800 C   0  0  0  0  0  0  0  0  0  0  0  0
   58.2420   26.1270   46.3100 C   0  0  0  0  0  0  0  0  0  0  0  0
   57.7230   27.4130   45.7980 C   0  0  0  0  0  0  0  0  0  0  0  0
   58.5750   28.5030   45.5060 C   0  0  0  0  0  0  0  0  0  0  0  0
   60.3530   28.4350   45.7710 S   0  0  0  0  0  0  0  0  0  0  0  0
   60.2230   28.2310   47.5800 C   0  0  0  0  0  0  0  0  0  0  0  0
   60.5790   29.5260   48.2480 C   0  0  0  0  0  0  0  0  0  0  0  0
   60.9020   29.5260   49.4640 O   0  0  0  0  0  0  0  0  0  0  0  0
   60.6210   30.7590   47.5180 N   0  0  0  0  0  0  0  0  0  0  0  0
   61.5450   31.8160   47.8010 C   0  0  0  0  0  0  0  0  0  0  0  0
   62.8820   31.6770   47.4080 C   0  0  0  0  0  0  0  0  0  0  0  0
   63.7950   32.7100   47.6410 C   0  0  0  0  0  0  0  0  0  0  0  0
   63.3790   33.8800   48.2830 C   0  0  0  0  0  0  0  0  0  0  0  0
   62.0490   34.0180   48.6910 C   0  0  0  0  0  0  0  0  0  0  0  0
   61.1290   32.9870   48.4640 C   0  0  0  0  0  0  0  0  0  0  0  0
   59.4360   33.1830   49.0350 S   0  0  0  0  0  0  0  0  0  0  0  0
   58.8320   33.6070   47.4010 C   0  0  0  0  0  0  0  0  0  0  0  0
   59.6200   34.3840   46.5420 C   0  0  0  0  0  0  0  0  0  0  0  0
   59.1470   34.7220   45.2720 C   0  0  0  0  0  0  0  0  0  0  0  0
   57.8860   34.2820   44.8540 C   0  0  0  0  0  0  0  0  0  0  0  0
   57.1010   33.5000   45.7070 C   0  0  0  0  0  0  0  0  0  0  0  0
   57.5730   33.1600   46.9790 C   0  0  0  0  0  0  0  0  0  0  0  0
   58.0470   29.6720   45.0620 N   0  0  0  0  0  0  0  0  0  0  0  0
   56.7110   29.8260   44.8990 C   0  0  0  0  0  0  0  0  0  0  0  0
   56.2520   30.9210   44.4870 O   0  0  0  0  0  0  0  0  0  0  0  0
   55.8710   28.8030   45.1870 N   0  0  0  0  0  0  0  0  0  0  0  0
   56.3350   27.6080   45.6320 C   0  0  0  0  0  0  0  0  0  0  0  0
   55.4100   26.5970   45.8970 O   0  0  0  0  0  0  0  0  0  0  0  0
   58.6283   24.0767   45.9999 H   0  0  0  0  0  0  0  0  0  0  0  0
   57.8274   25.0293   44.5572 H   0  0  0  0  0  0  0  0  0  0  0  0
   58.6511   26.0887   47.3304 H   0  0  0  0  0  0  0  0  0  0  0  0
   59.1931   27.9506   47.8458 H   0  0  0  0  0  0  0  0  0  0  0  0
   60.9117   27.4409   47.9138 H   0  0  0  0  0  0  0  0  0  0  0  0
   63.2150   30.7521   46.9144 H   0  0  0  0  0  0  0  0  0  0  0  0
   64.8412   32.6020   47.3189 H   0  0  0  0  0  0  0  0  0  0  0  0
   64.0980   34.6919   48.4671 H   0  0  0  0  0  0  0  0  0  0  0  0
   61.7236   34.9411   49.1929 H   0  0  0  0  0  0  0  0  0  0  0  0
   60.6125   34.7283   46.8681 H   0  0  0  0  0  0  0  0  0  0  0  0
   59.7661   35.3344   44.5999 H   0  0  0  0  0  0  0  0  0  0  0  0
   57.5125   34.5512   43.8550 H   0  0  0  0  0  0  0  0  0  0  0  0
   56.1110   33.1518   45.3772 H   0  0  0  0  0  0  0  0  0  0  0  0
   56.9560   32.5419   47.6478 H   0  0  0  0  0  0  0  0  0  0  0  0
   55.1390   26.3250   46.8340 H   0  0  0  0  0  0  0  0  0  0  0  0
  1  2  2  0
  2  3  1  0
  3  4  1  0
  4  5  1  0
  5  6  1  0
  6  7  1  0
  7  8  2  0
  7  9  1  0
  9 10  1  0
 10 11  2  0
 11 12  1  0
 12 13  2  0
 13 14  1  0
 14 15  2  0
 15 16  1  0
 16 17  1  0
 17 18  2  0
 18 19  1  0
 19 20  2  0
 20 21  1  0
 21 22  2  0
  4 23  2  0
 23 24  1  0
 24 25  2  0
 24 26  1  0
 26 27  1  0
 27 28  1  0
 27  3  2  0
 15 10  1  0
 22 17  1  0
  1 29  1  0
  1 30  1  0
  2 31  1  0
  6 32  1  0
  6 33  1  0
 11 34  1  0
 12 35  1  0
 13 36  1  0
 14 37  1  0
 18 38  1  0
 19 39  1  0
 20 40  1  0
 21 41  1  0
 22 42  1  0
 28 43  1  0
M  CHG  2   9  -1  26  -1
M  END
>  <UniqueID>  (56) 
54

>  <SMILES>  (56) 
C=Cc1c(SCC(=O)[N-]c2ccccc2Sc2ccccc2)nc(=O)[n-]c1O

>  <Energy>  (56) 
49.780150888969665

>  <Genealogy>  (56) 
C=Cc1c(SCC(=O)[N-]c2ccccc2Sc2ccccc2)nc(=O)[n-]c1O (protonated)
C=Cc1c(SCC(=O)[N-]c2ccccc2Sc2ccccc2)nc(=O)[n-]c1O (3D coordinates assigned)
C=Cc1c(SCC(=O)[N-]c2ccccc2Sc2ccccc2)nc(=O)[n-]c1O (optimized conformer: 49.780150888969665 kcal/mol)

>  <smiles>  (56) 
C=Cc1c(SCC(=O)Nc2ccccc2Sc2ccccc2)nc(=O)[nH]c1O

>  <score_type>  (56) 
oracle

>  <origin>  (56) 
adg

>  <m_score__min__energy>  (56) 
-12.529999999999999

>  <m_primary>  (56) 
energy

$$$$
56:0
     RDKit          3D

 57 60  0  0  0  0  0  0  0  0999 V2000
   60.4700   34.3050   48.2270 O   0  0  0  0  0  0  0  0  0  0  0  0
   60.6910   33.5470   47.2440 C   0  0  0  0  0  0  0  0  0  0  0  0
   61.8310   32.6710   47.2500 N   0  0  0  0  0  0  0  0  0  0  0  0
   62.7150   32.5550   48.3750 C   0  0  0  0  0  0  0  0  0  0  0  0
   64.0010   33.1070   48.2820 C   0  0  0  0  0  0  0  0  0  0  0  0
   64.8800   33.0390   49.3640 C   0  0  0  0  0  0  0  0  0  0  0  0
   64.4900   32.4060   50.5440 C   0  0  0  0  0  0  0  0  0  0  0  0
   63.2230   31.8260   50.6410 C   0  0  0  0  0  0  0  0  0  0  0  0
   62.3260   31.8860   49.5600 C   0  0  0  0  0  0  0  0  0  0  0  0
   61.0640   31.2000   49.6500 N   0  0  0  0  0  0  0  0  0  0  0  0
   60.8570   29.8980   49.0120 C   0  0  0  0  0  0  0  0  0  0  0  0
   59.6580   29.9970   48.0630 C   0  0  0  0  0  0  0  0  0  0  0  0
   58.5180   30.4950   48.7440 O   0  0  0  0  0  0  0  0  0  0  0  0
   58.7540   31.8200   49.1850 C   0  0  0  0  0  0  0  0  0  0  0  0
   59.8860   31.8590   50.2170 C   0  0  0  0  0  0  0  0  0  0  0  0
   59.7780   33.6150   46.0450 C   0  0  2  0  0  0  0  0  0  0  0  0
   58.5960   34.5860   46.2790 C   0  0  0  0  0  0  0  0  0  0  0  0
   57.3370   34.1830   45.4930 C   0  0  0  0  0  0  0  0  0  0  0  0
   57.6990   33.4750   44.1800 C   0  0  0  0  0  0  0  0  0  0  0  0
   58.5150   32.2520   44.3860 N   0  0  0  0  0  0  0  0  0  0  0  0
   57.5550   30.8000   44.2090 S   0  0  0  0  0  0  0  0  0  0  0  0
   56.2210   31.0030   44.8700 O   0  0  0  0  0  0  0  0  0  0  0  0
   57.3150   30.5330   42.7490 O   0  0  0  0  0  0  0  0  0  0  0  0
   58.3570   29.4030   44.9310 C   0  0  0  0  0  0  0  0  0  0  0  0
   59.7350   29.2100   44.7560 C   0  0  0  0  0  0  0  0  0  0  0  0
   60.3660   28.0930   45.3130 C   0  0  0  0  0  0  0  0  0  0  0  0
   59.6250   27.1650   46.0480 C   0  0  0  0  0  0  0  0  0  0  0  0
   58.2520   27.3550   46.2330 C   0  0  0  0  0  0  0  0  0  0  0  0
   57.6190   28.4710   45.6780 C   0  0  0  0  0  0  0  0  0  0  0  0
   59.2700   32.2160   45.6570 C   0  0  0  0  0  0  0  0  0  0  0  0
   62.1310   32.2340   46.3500 H   0  0  0  0  0  0  0  0  0  0  0  0
   64.3190   33.5969   47.3499 H   0  0  0  0  0  0  0  0  0  0  0  0
   65.8823   33.4855   49.2859 H   0  0  0  0  0  0  0  0  0  0  0  0
   65.1808   32.3635   51.3990 H   0  0  0  0  0  0  0  0  0  0  0  0
   62.9248   31.3184   51.5702 H   0  0  0  0  0  0  0  0  0  0  0  0
   61.7561   29.6180   48.4435 H   0  0  0  0  0  0  0  0  0  0  0  0
   60.6642   29.1331   49.7786 H   0  0  0  0  0  0  0  0  0  0  0  0
   59.9086   30.6759   47.2345 H   0  0  0  0  0  0  0  0  0  0  0  0
   59.4285   28.9925   47.6780 H   0  0  0  0  0  0  0  0  0  0  0  0
   59.0318   32.4428   48.3219 H   0  0  0  0  0  0  0  0  0  0  0  0
   57.8362   32.2028   49.6552 H   0  0  0  0  0  0  0  0  0  0  0  0
   60.1283   32.9039   50.4607 H   0  0  0  0  0  0  0  0  0  0  0  0
   59.5730   31.3401   51.1350 H   0  0  0  0  0  0  0  0  0  0  0  0
   60.3692   34.0107   45.2060 H   0  0  0  0  0  0  0  0  0  0  0  0
   58.3540   34.5947   47.3520 H   0  0  0  0  0  0  0  0  0  0  0  0
   58.9060   35.5805   45.9257 H   0  0  0  0  0  0  0  0  0  0  0  0
   56.7316   33.5035   46.1109 H   0  0  0  0  0  0  0  0  0  0  0  0
   56.7736   35.0960   45.2500 H   0  0  0  0  0  0  0  0  0  0  0  0
   56.7684   33.1929   43.6658 H   0  0  0  0  0  0  0  0  0  0  0  0
   58.3016   34.1759   43.5837 H   0  0  0  0  0  0  0  0  0  0  0  0
   60.3216   29.9397   44.1786 H   0  0  0  0  0  0  0  0  0  0  0  0
   61.4469   27.9453   45.1720 H   0  0  0  0  0  0  0  0  0  0  0  0
   60.1216   26.2844   46.4815 H   0  0  0  0  0  0  0  0  0  0  0  0
   57.6697   26.6259   46.8156 H   0  0  0  0  0  0  0  0  0  0  0  0
   56.5393   28.6194   45.8270 H   0  0  0  0  0  0  0  0  0  0  0  0
   58.6119   31.8399   46.4542 H   0  0  0  0  0  0  0  0  0  0  0  0
   60.1394   31.5549   45.5258 H   0  0  0  0  0  0  0  0  0  0  0  0
  1  2  2  0
  2  3  1  0
  3  4  1  0
  4  5  2  0
  5  6  1  0
  6  7  2  0
  7  8  1  0
  8  9  2  0
  9 10  1  0
 10 11  1  0
 11 12  1  0
 12 13  1  0
 13 14  1  0
 14 15  1  0
  2 16  1  0
 16 17  1  0
 17 18  1  0
 18 19  1  0
 19 20  1  0
 20 21  1  0
 21 22  2  0
 21 23  2  0
 21 24  1  0
 24 25  2  0
 25 26  1  0
 26 27  2  0
 27 28  1  0
 28 29  2  0
 20 30  1  0
  9  4  1  0
 15 10  1  0
 30 16  1  0
 29 24  1  0
  3 31  1  0
  5 32  1  0
  6 33  1  0
  7 34  1  0
  8 35  1  0
 11 36  1  0
 11 37  1  0
 12 38  1  0
 12 39  1  0
 14 40  1  0
 14 41  1  0
 15 42  1  0
 15 43  1  0
 16 44  1  6
 17 45  1  0
 17 46  1  0
 18 47  1  0
 18 48  1  0
 19 49  1  0
 19 50  1  0
 25 51  1  0
 26 52  1  0
 27 53  1  0
 28 54  1  0
 29 55  1  0
 30 56  1  0
 30 57  1  0
M  END
>  <UniqueID>  (57) 
55

>  <SMILES>  (57) 
O=C(Nc1ccccc1N1CCOCC1)[C@@H]1CCCN(S(=O)(=O)c2ccccc2)C1

>  <Energy>  (57) 
74.29851297799837

>  <Genealogy>  (57) 
O=C(Nc1ccccc1N1CCOCC1)[C@@H]1CCCN(S(=O)(=O)c2ccccc2)C1 (chirality)
O=C(Nc1ccccc1N1CCOCC1)[C@@H]1CCCN(S(=O)(=O)c2ccccc2)C1 (3D coordinates assigned)
O=C(Nc1ccccc1N1CCOCC1)[C@@H]1CCCN(S(=O)(=O)c2ccccc2)C1 (nonaromatic ring conformer: 74.29851297799837 kcal/mol)

>  <smiles>  (57) 
O=C(Nc1ccccc1N1CCOCC1)C1CCCN(S(=O)(=O)c2ccccc2)C1

>  <score_type>  (57) 
oracle

>  <origin>  (57) 
adg

>  <m_score__min__energy>  (57) 
-9.6300000000000008

>  <m_primary>  (57) 
energy

$$$$
57:0
     RDKit          3D

 57 60  0  0  0  0  0  0  0  0999 V2000
   59.6814   29.4420   51.9492 H   0  0  0  0  0  0  0  0  0  0  0  0
   59.9880   29.6320   50.9100 C   0  0  0  0  0  0  0  0  0  0  0  0
   61.2560   30.1580   50.6400 C   0  0  0  0  0  0  0  0  0  0  0  0
   61.9433   30.3875   51.4676 H   0  0  0  0  0  0  0  0  0  0  0  0
   61.6500   30.3920   49.3200 C   0  0  0  0  0  0  0  0  0  0  0  0
   62.6461   30.8097   49.1117 H   0  0  0  0  0  0  0  0  0  0  0  0
   60.7790   30.0960   48.2570 C   0  0  0  0  0  0  0  0  0  0  0  0
   61.1850   30.3840   46.8380 C   0  0  0  0  0  0  0  0  0  0  0  0
   62.2329   30.0835   46.6913 H   0  0  0  0  0  0  0  0  0  0  0  0
   61.0737   31.4609   46.6432 H   0  0  0  0  0  0  0  0  0  0  0  0
   60.3130   29.6210   45.8880 C   0  0  0  0  0  0  0  0  0  0  0  0
   60.7750   28.6000   45.3100 O   0  0  0  0  0  0  0  0  0  0  0  0
   58.9510   30.0270   45.6760 N   0  0  0  0  0  0  0  0  0  0  0  0
   58.5980   30.8690   46.1810 H   0  0  0  0  0  0  0  0  0  0  0  0
   58.0120   29.2700   44.8520 C   0  0  0  0  0  0  0  0  0  0  0  0
   57.9208   28.2484   45.2494 H   0  0  0  0  0  0  0  0  0  0  0  0
   58.3856   29.2371   43.8179 H   0  0  0  0  0  0  0  0  0  0  0  0
   56.6620   29.9320   44.8670 C   0  0  0  0  0  0  0  0  0  0  0  0
   55.6350   29.2030   44.8630 O   0  0  0  0  0  0  0  0  0  0  0  0
   56.4930   31.3580   44.8310 N   0  0  0  0  0  0  0  0  0  0  0  0
   57.4100   32.2680   44.9860 C   0  0  0  0  0  0  0  0  0  0  0  0
   57.8540   32.7240   46.1730 N   0  0  0  0  0  0  0  0  0  0  0  0
   58.7760   33.6370   45.9100 N   0  0  0  0  0  0  0  0  0  0  0  0
   59.4780   34.3680   46.9250 C   0  0  0  0  0  0  0  0  0  0  0  0
   58.9130   35.3460   47.4830 O   0  0  0  0  0  0  0  0  0  0  0  0
   60.8450   33.9850   47.3410 C   0  0  0  0  0  0  0  0  0  0  0  0
   61.8410   33.8170   46.3640 C   0  0  0  0  0  0  0  0  0  0  0  0
   61.5956   33.9627   45.3017 H   0  0  0  0  0  0  0  0  0  0  0  0
   63.1410   33.4660   46.7350 C   0  0  0  0  0  0  0  0  0  0  0  0
   63.9154   33.3329   45.9652 H   0  0  0  0  0  0  0  0  0  0  0  0
   63.4580   33.2840   48.0820 C   0  0  0  0  0  0  0  0  0  0  0  0
   64.4801   32.9978   48.3709 H   0  0  0  0  0  0  0  0  0  0  0  0
   62.4820   33.4640   49.0640 C   0  0  0  0  0  0  0  0  0  0  0  0
   62.7398   33.3197   50.1236 H   0  0  0  0  0  0  0  0  0  0  0  0
   61.1700   33.8290   48.7070 C   0  0  0  0  0  0  0  0  0  0  0  0
   60.1730   34.0670   49.6720 O   0  0  0  0  0  0  0  0  0  0  0  0
   59.7280   33.1340   50.6580 C   0  0  2  0  0  0  0  0  0  0  0  0
   60.5789   32.4630   50.8473 H   0  0  0  0  0  0  0  0  0  0  0  0
   58.4870   32.4110   50.1630 C   0  0  0  0  0  0  0  0  0  0  0  0
   58.7719   31.4771   49.6563 H   0  0  0  0  0  0  0  0  0  0  0  0
   57.9338   33.0329   49.4439 H   0  0  0  0  0  0  0  0  0  0  0  0
   57.6650   32.1150   51.3310 N   0  0  0  0  0  0  0  0  0  0  0  0
   58.0100   31.2150   51.7410 H   0  0  0  0  0  0  0  0  0  0  0  0
   57.9390   33.1820   52.2930 C   0  0  0  0  0  0  0  0  0  0  0  0
   57.9950   32.7614   53.3078 H   0  0  0  0  0  0  0  0  0  0  0  0
   57.1348   33.9319   52.2636 H   0  0  0  0  0  0  0  0  0  0  0  0
   59.2720   33.8300   51.9300 C   0  0  0  0  0  0  0  0  0  0  0  0
   60.0055   33.6781   52.7356 H   0  0  0  0  0  0  0  0  0  0  0  0
   59.1728   34.9163   51.7880 H   0  0  0  0  0  0  0  0  0  0  0  0
   58.9130   33.7860   44.5770 C   0  0  0  0  0  0  0  0  0  0  0  0
   59.6024   34.4810   44.0753 H   0  0  0  0  0  0  0  0  0  0  0  0
   58.0420   32.9190   43.9480 C   0  0  0  0  0  0  0  0  0  0  0  0
   57.8878   32.7797   42.8678 H   0  0  0  0  0  0  0  0  0  0  0  0
   59.5010   29.5860   48.5380 C   0  0  0  0  0  0  0  0  0  0  0  0
   58.8035   29.3727   47.7146 H   0  0  0  0  0  0  0  0  0  0  0  0
   59.1110   29.3480   49.8600 C   0  0  0  0  0  0  0  0  0  0  0  0
   58.1132   28.9370   50.0732 H   0  0  0  0  0  0  0  0  0  0  0  0
  1  2  1  0
  2  3  2  0
  3  4  1  0
  3  5  1  0
  5  6  1  0
  5  7  2  0
  7  8  1  0
  8  9  1  0
  8 10  1  0
  8 11  1  0
 11 12  2  0
 11 13  1  0
 13 14  1  0
 13 15  1  0
 15 16  1  0
 15 17  1  0
 15 18  1  0
 18 19  2  0
 18 20  1  0
 20 21  2  0
 21 22  1  0
 22 23  1  0
 23 24  1  0
 24 25  2  0
 24 26  1  0
 26 27  2  0
 27 28  1  0
 27 29  1  0
 29 30  1  0
 29 31  2  0
 31 32  1  0
 31 33  1  0
 33 34  1  0
 33 35  2  0
 35 36  1  0
 36 37  1  0
 37 38  1  1
 37 39  1  0
 39 40  1  0
 39 41  1  0
 39 42  1  0
 42 43  1  0
 42 44  1  0
 44 45  1  0
 44 46  1  0
 44 47  1  0
 47 48  1  0
 47 49  1  0
 23 50  1  0
 50 51  1  0
 50 52  2  0
 52 53  1  0
  7 54  1  0
 54 55  1  0
 54 56  2  0
 56 57  1  0
 56  2  1  0
 52 21  1  0
 35 26  1  0
 47 37  1  0
M  CHG  1  22  -1
M  END
>  <UniqueID>  (58) 
56

>  <SMILES>  (58) 
O=C(CNC(=O)Cc1ccccc1)/N=c1/ccn(C(=O)c2ccccc2O[C@H]2CCNC2)[n-]1

>  <Energy>  (58) 
95.88279652871307

>  <Genealogy>  (58) 
O=C(CNC(=O)Cc1ccccc1)N=c1ccn(C(=O)c2ccccc2OC2CCNC2)[n-]1 (protonated)
O=C(CNC(=O)Cc1ccccc1)N=c1ccn(C(=O)c2ccccc2O[C@H]2CCNC2)[n-]1 (chirality)
O=C(CNC(=O)Cc1ccccc1)/N=c1/ccn(C(=O)c2ccccc2O[C@H]2CCNC2)[n-]1 (cis-trans isomerization)
O=C(CNC(=O)Cc1ccccc1)/N=c1/ccn(C(=O)c2ccccc2O[C@H]2CCNC2)[n-]1 (3D coordinates assigned)
O=C(CNC(=O)Cc1ccccc1)/N=c1/ccn(C(=O)c2ccccc2O[C@H]2CCNC2)[n-]1 (nonaromatic ring conformer: 95.88279652871307 kcal/mol)

>  <smiles>  (58) 
O=C(CNC(=O)Cc1ccccc1)N=c1ccn(C(=O)c2ccccc2OC2CCNC2)[nH]1

>  <score_type>  (58) 
oracle

>  <origin>  (58) 
adg

>  <m_score__min__energy>  (58) 
-10.789999999999999

>  <m_primary>  (58) 
energy

$$$$
58:0
     RDKit          3D

 31 33  0  0  0  0  0  0  0  0999 V2000
   59.3943   27.8459   48.5829 H   0  0  0  0  0  0  0  0  0  0  0  0
   59.1690   27.9750   47.5140 C   0  0  0  0  0  0  0  0  0  0  0  0
   58.1450   28.7800   47.1290 N   0  0  0  0  0  0  0  0  0  0  0  0
   57.8260   28.9820   45.8210 C   0  0  0  0  0  0  0  0  0  0  0  0
   56.7970   29.7350   45.5490 N   0  0  0  0  0  0  0  0  0  0  0  0
   56.4790   30.4260   44.3300 C   0  0  0  0  0  0  0  0  0  0  0  0
   55.5010   30.0780   43.6160 O   0  0  0  0  0  0  0  0  0  0  0  0
   57.3550   31.5570   43.8870 C   0  0  0  0  0  0  0  0  0  0  0  0
   58.4077   31.2514   43.9788 H   0  0  0  0  0  0  0  0  0  0  0  0
   57.1077   31.7974   42.8425 H   0  0  0  0  0  0  0  0  0  0  0  0
   57.0790   33.0540   44.9030 S   0  0  0  0  0  0  0  0  0  0  0  0
   58.5340   32.8250   45.9250 C   0  0  0  0  0  0  0  0  0  0  0  0
   59.5850   33.6860   45.9240 N   0  0  0  0  0  0  0  0  0  0  0  0
   60.4630   33.0750   46.7410 C   0  0  0  0  0  0  0  0  0  0  0  0
   61.7500   33.4920   47.0730 C   0  0  0  0  0  0  0  0  0  0  0  0
   62.1552   34.4425   46.6957 H   0  0  0  0  0  0  0  0  0  0  0  0
   62.5150   32.6540   47.9090 C   0  0  0  0  0  0  0  0  0  0  0  0
   64.1440   33.1200   48.3550 Cl  0  0  0  0  0  0  0  0  0  0  0  0
   61.9760   31.4320   48.3810 C   0  0  0  0  0  0  0  0  0  0  0  0
   62.5816   30.7831   49.0308 H   0  0  0  0  0  0  0  0  0  0  0  0
   60.6720   31.0420   48.0250 C   0  0  0  0  0  0  0  0  0  0  0  0
   60.2416   30.0948   48.3823 H   0  0  0  0  0  0  0  0  0  0  0  0
   59.9470   31.9010   47.2030 C   0  0  0  0  0  0  0  0  0  0  0  0
   58.7210   31.7300   46.7000 N   0  0  0  0  0  0  0  0  0  0  0  0
   58.0730   30.9220   46.8390 H   0  0  0  0  0  0  0  0  0  0  0  0
   58.5770   28.3180   44.8270 C   0  0  0  0  0  0  0  0  0  0  0  0
   58.3330   28.4552   43.7632 H   0  0  0  0  0  0  0  0  0  0  0  0
   59.6330   27.4850   45.2060 C   0  0  0  0  0  0  0  0  0  0  0  0
   60.2262   26.9656   44.4389 H   0  0  0  0  0  0  0  0  0  0  0  0
   59.9350   27.3120   46.5560 C   0  0  0  0  0  0  0  0  0  0  0  0
   60.7671   26.6607   46.8615 H   0  0  0  0  0  0  0  0  0  0  0  0
  1  2  1  0
  2  3  1  0
  3  4  1  0
  4  5  2  0
  5  6  1  0
  6  7  2  0
  6  8  1  0
  8  9  1  0
  8 10  1  0
  8 11  1  0
 11 12  1  0
 12 13  2  0
 13 14  1  0
 14 15  2  0
 15 16  1  0
 15 17  1  0
 17 18  1  0
 17 19  2  0
 19 20  1  0
 19 21  1  0
 21 22  1  0
 21 23  2  0
 23 24  1  0
 24 25  1  0
  4 26  1  0
 26 27  1  0
 26 28  2  0
 28 29  1  0
 28 30  1  0
 30 31  1  0
 30  2  2  0
 24 12  1  0
 23 14  1  0
M  CHG  1   3  -1
M  END
>  <UniqueID>  (59) 
57

>  <SMILES>  (59) 
O=C(CSc1nc2cc(Cl)ccc2[nH]1)/N=c1\cccc[n-]1

>  <Energy>  (59) 
70.2905732762029

>  <Genealogy>  (59) 
O=C(CSc1nc2cc(Cl)ccc2[nH]1)N=c1cccc[n-]1 (protonated)
O=C(CSc1nc2cc(Cl)ccc2[nH]1)/N=c1\cccc[n-]1 (cis-trans isomerization)
O=C(CSc1nc2cc(Cl)ccc2[nH]1)/N=c1\cccc[n-]1 (3D coordinates assigned)
O=C(CSc1nc2cc(Cl)ccc2[nH]1)/N=c1\cccc[n-]1 (optimized conformer: 70.2905732762029 kcal/mol)

>  <smiles>  (59) 
O=C(CSc1nc2cc(Cl)ccc2[nH]1)N=c1cccc[nH]1

>  <score_type>  (59) 
oracle

>  <origin>  (59) 
adg

>  <m_score__min__energy>  (59) 
-10.27

>  <m_primary>  (59) 
energy

$$$$
59:0
     RDKit          3D

 56 59  0  0  0  0  0  0  0  0999 V2000
   60.5780   32.5510   48.5140 C   0  0  0  0  0  0  0  0  0  0  0  0
   59.7670   31.7840   49.5290 C   0  0  0  0  0  0  0  0  0  0  0  0
   58.8660   30.7580   49.1480 C   0  0  0  0  0  0  0  0  0  0  0  0
   58.6620   30.3410   47.7110 C   0  0  0  0  0  0  0  0  0  0  0  0
   58.7640   28.8460   47.5210 C   0  0  0  0  0  0  0  0  0  0  0  0
   59.8750   28.1350   48.0050 C   0  0  0  0  0  0  0  0  0  0  0  0
   59.9560   26.7520   47.8260 C   0  0  0  0  0  0  0  0  0  0  0  0
   58.9490   26.0700   47.1400 C   0  0  0  0  0  0  0  0  0  0  0  0
   57.8520   26.7700   46.6100 C   0  0  0  0  0  0  0  0  0  0  0  0
   56.8080   26.0470   45.8460 C   0  0  0  0  0  0  0  0  0  0  0  0
   55.6600   25.9090   46.3440 O   0  0  0  0  0  0  0  0  0  0  0  0
   57.0570   25.5220   44.5330 N   0  0  0  0  0  0  0  0  0  0  0  0
   57.2440   24.1360   44.2060 C   0  0  0  0  0  0  0  0  0  0  0  0
   56.4090   23.5450   43.2480 C   0  0  0  0  0  0  0  0  0  0  0  0
   56.5640   22.1950   42.9120 C   0  0  0  0  0  0  0  0  0  0  0  0
   57.5440   21.4240   43.5430 C   0  0  0  0  0  0  0  0  0  0  0  0
   58.3660   22.0000   44.5170 C   0  0  0  0  0  0  0  0  0  0  0  0
   58.2120   23.3470   44.8560 C   0  0  0  0  0  0  0  0  0  0  0  0
   57.7610   28.1580   46.8180 C   0  0  0  0  0  0  0  0  0  0  0  0
   58.1600   30.1010   50.1060 N   0  0  0  0  0  0  0  0  0  0  0  0
   58.2740   30.4200   51.4180 C   0  0  0  0  0  0  0  0  0  0  0  0
   57.3130   29.5370   52.6450 S   0  0  0  0  0  0  0  0  0  0  0  0
   55.8600   30.6380   52.5210 C   0  0  0  0  0  0  0  0  0  0  0  0
   54.6260   29.8550   52.1690 C   0  0  0  0  0  0  0  0  0  0  0  0
   54.5460   28.6490   52.5270 O   0  0  0  0  0  0  0  0  0  0  0  0
   53.4810   30.4830   51.4750 C   0  0  0  0  0  0  0  0  0  0  0  0
   53.0070   31.7340   51.9020 C   0  0  0  0  0  0  0  0  0  0  0  0
   51.9460   32.3510   51.2380 C   0  0  0  0  0  0  0  0  0  0  0  0
   51.3270   31.7140   50.1580 C   0  0  0  0  0  0  0  0  0  0  0  0
   50.2750   32.3390   49.5010 O   0  0  0  0  0  0  0  0  0  0  0  0
   51.7680   30.4530   49.7420 C   0  0  0  0  0  0  0  0  0  0  0  0
   51.1330   29.8100   48.6810 O   0  0  0  0  0  0  0  0  0  0  0  0
   52.8480   29.8430   50.3940 C   0  0  0  0  0  0  0  0  0  0  0  0
   59.1030   31.4210   51.8030 N   0  0  0  0  0  0  0  0  0  0  0  0
   59.8400   32.1110   50.8970 C   0  0  0  0  0  0  0  0  0  0  0  0
   60.5850   33.0450   51.3000 O   0  0  0  0  0  0  0  0  0  0  0  0
   61.2820   33.2168   49.0346 H   0  0  0  0  0  0  0  0  0  0  0  0
   61.1388   31.8452   47.8837 H   0  0  0  0  0  0  0  0  0  0  0  0
   59.9045   33.1502   47.8837 H   0  0  0  0  0  0  0  0  0  0  0  0
   57.6638   30.6702   47.3867 H   0  0  0  0  0  0  0  0  0  0  0  0
   59.4573   30.8085   47.1119 H   0  0  0  0  0  0  0  0  0  0  0  0
   60.6832   28.6689   48.5263 H   0  0  0  0  0  0  0  0  0  0  0  0
   60.8171   26.1976   48.2273 H   0  0  0  0  0  0  0  0  0  0  0  0
   59.0148   24.9792   47.0139 H   0  0  0  0  0  0  0  0  0  0  0  0
   55.6281   24.1449   42.7578 H   0  0  0  0  0  0  0  0  0  0  0  0
   55.9135   21.7404   42.1503 H   0  0  0  0  0  0  0  0  0  0  0  0
   57.6688   20.3648   43.2738 H   0  0  0  0  0  0  0  0  0  0  0  0
   59.1346   21.3921   45.0168 H   0  0  0  0  0  0  0  0  0  0  0  0
   58.8496   23.7925   45.6338 H   0  0  0  0  0  0  0  0  0  0  0  0
   56.8948   28.7111   46.4258 H   0  0  0  0  0  0  0  0  0  0  0  0
   55.7049   31.1407   53.4870 H   0  0  0  0  0  0  0  0  0  0  0  0
   56.0454   31.3790   51.7294 H   0  0  0  0  0  0  0  0  0  0  0  0
   53.4748   32.2305   52.7649 H   0  0  0  0  0  0  0  0  0  0  0  0
   51.5956   33.3411   51.5650 H   0  0  0  0  0  0  0  0  0  0  0  0
   50.1330   29.8960   48.5300 H   0  0  0  0  0  0  0  0  0  0  0  0
   53.2031   28.8575   50.0584 H   0  0  0  0  0  0  0  0  0  0  0  0
  1  2  1  0
  2  3  2  0
  3  4  1  0
  4  5  1  0
  5  6  2  0
  6  7  1  0
  7  8  2  0
  8  9  1  0
  9 10  1  0
 10 11  2  0
 10 12  1  0
 12 13  1  0
 13 14  2  0
 14 15  1  0
 15 16  2  0
 16 17  1  0
 17 18  2  0
  9 19  2  0
  3 20  1  0
 20 21  1  0
 21 22  1  0
 22 23  1  0
 23 24  1  0
 24 25  2  0
 24 26  1  0
 26 27  2  0
 27 28  1  0
 28 29  2  0
 29 30  1  0
 29 31  1  0
 31 32  1  0
 31 33  2  0
 21 34  2  0
 34 35  1  0
 35 36  2  0
 35  2  1  0
 19  5  1  0
 33 26  1  0
 18 13  1  0
  1 37  1  0
  1 38  1  0
  1 39  1  0
  4 40  1  0
  4 41  1  0
  6 42  1  0
  7 43  1  0
  8 44  1  0
 14 45  1  0
 15 46  1  0
 16 47  1  0
 17 48  1  0
 18 49  1  0
 19 50  1  0
 23 51  1  0
 23 52  1  0
 27 53  1  0
 28 54  1  0
 32 55  1  0
 33 56  1  0
M  CHG  3  12  -1  20  -1  30  -1
M  END
>  <UniqueID>  (60) 
58

>  <SMILES>  (60) 
Cc1c(Cc2cccc(C(=O)[N-]c3ccccc3)c2)[n-]c(SCC(=O)c2ccc([O-])c(O)c2)nc1=O

>  <Energy>  (60) 
64.71833642257276

>  <Genealogy>  (60) 
Cc1c(Cc2cccc(C(=O)[N-]c3ccccc3)c2)[n-]c(SCC(=O)c2ccc([O-])c(O)c2)nc1=O (protonated)
Cc1c(Cc2cccc(C(=O)[N-]c3ccccc3)c2)[n-]c(SCC(=O)c2ccc([O-])c(O)c2)nc1=O (3D coordinates assigned)
Cc1c(Cc2cccc(C(=O)[N-]c3ccccc3)c2)[n-]c(SCC(=O)c2ccc([O-])c(O)c2)nc1=O (optimized conformer: 64.71833642257276 kcal/mol)

>  <smiles>  (60) 
Cc1c(Cc2cccc(C(=O)Nc3ccccc3)c2)[nH]c(SCC(=O)c2ccc(O)c(O)c2)nc1=O

>  <score_type>  (60) 
oracle

>  <origin>  (60) 
adg

>  <m_score__min__energy>  (60) 
-17.899999999999999

>  <m_primary>  (60) 
energy

$$$$
60:0
     RDKit          3D

 40 43  0  0  0  0  0  0  0  0999 V2000
   57.7240   31.9220   50.5500 C   0  0  0  0  0  0  0  0  0  0  0  0
   58.7950   32.4110   49.6920 N   0  0  0  0  0  0  0  0  0  0  0  0
   58.5400   32.8740   48.3590 C   0  0  0  0  0  0  0  0  0  0  0  0
   57.3710   32.8270   47.8900 O   0  0  0  0  0  0  0  0  0  0  0  0
   59.6550   33.3360   47.5160 C   0  0  0  0  0  0  0  0  0  0  0  0
   59.5420   34.3920   46.6730 N   0  0  0  0  0  0  0  0  0  0  0  0
   60.7310   34.6690   46.1500 N   0  0  0  0  0  0  0  0  0  0  0  0
   61.5980   33.7840   46.6630 C   0  0  0  0  0  0  0  0  0  0  0  0
   62.9270   33.7360   46.4060 N   0  0  0  0  0  0  0  0  0  0  0  0
   63.6840   32.7720   47.0080 C   0  0  0  0  0  0  0  0  0  0  0  0
   63.0880   31.8250   47.8680 C   0  0  0  0  0  0  0  0  0  0  0  0
   61.7000   31.8740   48.1260 C   0  0  0  0  0  0  0  0  0  0  0  0
   61.0560   30.7950   48.8950 C   0  0  0  0  0  0  0  0  0  0  0  0
   61.0910   30.7380   50.2390 N   0  0  0  0  0  0  0  0  0  0  0  0
   60.2760   29.7030   50.5300 C   0  0  0  0  0  0  0  0  0  0  0  0
   60.0520   29.3270   51.7100 O   0  0  0  0  0  0  0  0  0  0  0  0
   59.7150   29.1100   49.4570 N   0  0  0  0  0  0  0  0  0  0  0  0
   60.2130   29.8040   48.4160 C   0  0  0  0  0  0  0  0  0  0  0  0
   59.8890   29.4860   47.0070 C   0  0  0  0  0  0  0  0  0  0  0  0
   60.8070   28.8100   46.1850 C   0  0  0  0  0  0  0  0  0  0  0  0
   60.4820   28.5160   44.8580 C   0  0  0  0  0  0  0  0  0  0  0  0
   59.2360   28.8810   44.3440 C   0  0  0  0  0  0  0  0  0  0  0  0
   58.3020   29.5320   45.1580 C   0  0  0  0  0  0  0  0  0  0  0  0
   56.7320   29.9980   44.5110 S   0  0  0  0  0  0  0  0  0  0  0  0
   55.5080   28.9760   45.1740 N   0  0  0  0  0  0  0  0  0  0  0  0
   56.7400   29.8680   43.0140 O   0  0  0  0  0  0  0  0  0  0  0  0
   56.4370   31.4280   44.8680 O   0  0  0  0  0  0  0  0  0  0  0  0
   58.6300   29.8320   46.4880 C   0  0  0  0  0  0  0  0  0  0  0  0
   60.9780   32.9110   47.5130 C   0  0  0  0  0  0  0  0  0  0  0  0
   58.0101   32.0526   51.6041 H   0  0  0  0  0  0  0  0  0  0  0  0
   56.8036   32.4891   50.3469 H   0  0  0  0  0  0  0  0  0  0  0  0
   57.5497   30.8551   50.3469 H   0  0  0  0  0  0  0  0  0  0  0  0
   59.7670   32.4410   50.0720 H   0  0  0  0  0  0  0  0  0  0  0  0
   64.7673   32.7333   46.8211 H   0  0  0  0  0  0  0  0  0  0  0  0
   63.7061   31.0464   48.3388 H   0  0  0  0  0  0  0  0  0  0  0  0
   61.7858   28.5110   46.5881 H   0  0  0  0  0  0  0  0  0  0  0  0
   61.2092   27.9960   44.2171 H   0  0  0  0  0  0  0  0  0  0  0  0
   58.9878   28.6562   43.2962 H   0  0  0  0  0  0  0  0  0  0  0  0
   54.5870   29.3750   44.8810 H   0  0  0  0  0  0  0  0  0  0  0  0
   57.8963   30.3419   47.1296 H   0  0  0  0  0  0  0  0  0  0  0  0
  1  2  1  0
  2  3  1  0
  3  4  2  0
  3  5  1  0
  5  6  2  0
  6  7  1  0
  7  8  1  0
  8  9  2  0
  9 10  1  0
 10 11  2  0
 11 12  1  0
 12 13  1  0
 13 14  1  0
 14 15  1  0
 15 16  2  0
 15 17  1  0
 17 18  1  0
 18 19  1  0
 19 20  2  0
 20 21  1  0
 21 22  2  0
 22 23  1  0
 23 24  1  0
 24 25  1  0
 24 26  2  0
 24 27  2  0
 23 28  2  0
 12 29  2  0
 29  5  1  0
 29  8  1  0
 18 13  2  0
 28 19  1  0
  1 30  1  0
  1 31  1  0
  1 32  1  0
  2 33  1  0
 10 34  1  0
 11 35  1  0
 20 36  1  0
 21 37  1  0
 22 38  1  0
 25 39  1  0
 28 40  1  0
M  CHG  4   7  -1  14  -1  17  -1  25  -1
M  END
>  <UniqueID>  (61) 
59

>  <SMILES>  (61) 
CNC(=O)c1n[n-]c2nccc(-c3[n-]c(=O)[n-]c3-c3cccc(S([NH-])(=O)=O)c3)c12

>  <Energy>  (61) 
122.02592726022056

>  <Genealogy>  (61) 
CNC(=O)c1n[n-]c2nccc(-c3[n-]c(=O)[n-]c3-c3cccc(S([NH-])(=O)=O)c3)c12 (protonated)
CNC(=O)c1n[n-]c2nccc(-c3[n-]c(=O)[n-]c3-c3cccc(S([NH-])(=O)=O)c3)c12 (3D coordinates assigned)
CNC(=O)c1n[n-]c2nccc(-c3[n-]c(=O)[n-]c3-c3cccc(S([NH-])(=O)=O)c3)c12 (optimized conformer: 122.02592726022056 kcal/mol)

>  <smiles>  (61) 
CNC(=O)c1n[nH]c2nccc(-c3[nH]c(=O)[nH]c3-c3cccc(S(N)(=O)=O)c3)c12

>  <score_type>  (61) 
oracle

>  <origin>  (61) 
adg

>  <m_score__min__energy>  (61) 
-13.880000000000001

>  <m_primary>  (61) 
energy

$$$$
61:0
     RDKit          3D

 41 43  0  0  0  0  0  0  0  0999 V2000
   61.5360   34.3010   49.5530 O   0  0  0  0  0  0  0  0  0  0  0  0
   60.4650   33.6950   49.2850 C   0  0  0  0  0  0  0  0  0  0  0  0
   60.3000   32.2610   49.7240 C   0  0  0  0  0  0  0  0  0  0  0  0
   59.9720   31.3490   48.5680 C   0  0  0  0  0  0  0  0  0  0  0  0
   58.9120   30.4310   48.6620 C   0  0  0  0  0  0  0  0  0  0  0  0
   58.6190   29.5770   47.5950 C   0  0  0  0  0  0  0  0  0  0  0  0
   59.3740   29.6270   46.4170 C   0  0  0  0  0  0  0  0  0  0  0  0
   59.0520   28.7150   45.3570 N   0  0  0  0  0  0  0  0  0  0  0  0
   57.7730   28.1220   45.1010 C   0  0  0  0  0  0  0  0  0  0  0  0
   56.7090   28.7260   45.4030 O   0  0  0  0  0  0  0  0  0  0  0  0
   57.7020   26.7670   44.4740 C   0  0  0  0  0  0  0  0  0  0  0  0
   57.2480   25.7610   45.4860 C   0  0  0  0  0  0  0  0  0  0  0  0
   58.1970   24.4920   46.0610 S   0  0  0  0  0  0  0  0  0  0  0  0
   57.0190   23.9860   47.1450 C   0  0  0  0  0  0  0  0  0  0  0  0
   57.1420   23.0020   47.9190 O   0  0  0  0  0  0  0  0  0  0  0  0
   55.9120   24.7570   47.1050 N   0  0  0  0  0  0  0  0  0  0  0  0
   56.0380   25.7520   46.1880 C   0  0  0  0  0  0  0  0  0  0  0  0
   55.0170   26.6800   45.9940 O   0  0  0  0  0  0  0  0  0  0  0  0
   60.4620   30.5110   46.3360 C   0  0  0  0  0  0  0  0  0  0  0  0
   60.7570   31.3670   47.4040 C   0  0  0  0  0  0  0  0  0  0  0  0
   59.3910   34.4290   48.6840 N   0  0  0  0  0  0  0  0  0  0  0  0
   58.8860   34.2330   47.3580 C   0  0  0  0  0  0  0  0  0  0  0  0
   57.7550   33.4370   47.1220 C   0  0  0  0  0  0  0  0  0  0  0  0
   57.2920   33.2400   45.8170 C   0  0  0  0  0  0  0  0  0  0  0  0
   57.9690   33.8200   44.7410 C   0  0  0  0  0  0  0  0  0  0  0  0
   59.1160   34.5860   44.9670 C   0  0  0  0  0  0  0  0  0  0  0  0
   59.5800   34.7840   46.2720 C   0  0  0  0  0  0  0  0  0  0  0  0
   61.2377   31.9219   50.1886 H   0  0  0  0  0  0  0  0  0  0  0  0
   59.4637   32.2187   50.4373 H   0  0  0  0  0  0  0  0  0  0  0  0
   58.3092   30.3843   49.5810 H   0  0  0  0  0  0  0  0  0  0  0  0
   57.7890   28.8603   47.6815 H   0  0  0  0  0  0  0  0  0  0  0  0
   56.9891   26.7894   43.6366 H   0  0  0  0  0  0  0  0  0  0  0  0
   58.6994   26.4855   44.1054 H   0  0  0  0  0  0  0  0  0  0  0  0
   55.1430   27.5070   45.4240 H   0  0  0  0  0  0  0  0  0  0  0  0
   61.0851   30.5311   45.4297 H   0  0  0  0  0  0  0  0  0  0  0  0
   61.6095   32.0583   47.3307 H   0  0  0  0  0  0  0  0  0  0  0  0
   57.2305   32.9661   47.9665 H   0  0  0  0  0  0  0  0  0  0  0  0
   56.3952   32.6287   45.6378 H   0  0  0  0  0  0  0  0  0  0  0  0
   57.5990   33.6736   43.7155 H   0  0  0  0  0  0  0  0  0  0  0  0
   59.6542   35.0334   44.1184 H   0  0  0  0  0  0  0  0  0  0  0  0
   60.4920   35.3738   46.4462 H   0  0  0  0  0  0  0  0  0  0  0  0
  1  2  2  0
  2  3  1  0
  3  4  1  0
  4  5  2  0
  5  6  1  0
  6  7  2  0
  7  8  1  0
  8  9  1  0
  9 10  2  0
  9 11  1  0
 11 12  1  0
 12 13  1  0
 13 14  1  0
 14 15  2  0
 14 16  1  0
 16 17  1  0
 17 18  1  0
  7 19  1  0
 19 20  2  0
  2 21  1  0
 21 22  1  0
 22 23  2  0
 23 24  1  0
 24 25  2  0
 25 26  1  0
 26 27  2  0
 20  4  1  0
 27 22  1  0
 17 12  2  0
  3 28  1  0
  3 29  1  0
  5 30  1  0
  6 31  1  0
 11 32  1  0
 11 33  1  0
 18 34  1  0
 19 35  1  0
 20 36  1  0
 23 37  1  0
 24 38  1  0
 25 39  1  0
 26 40  1  0
 27 41  1  0
M  CHG  3   8  -1  16  -1  21  -1
M  END
>  <UniqueID>  (62) 
60

>  <SMILES>  (62) 
O=C(Cc1ccc([N-]C(=O)Cc2sc(=O)[n-]c2O)cc1)[N-]c1ccccc1

>  <Energy>  (62) 
79.69977237676895

>  <Genealogy>  (62) 
O=C(Cc1ccc([N-]C(=O)Cc2sc(=O)[n-]c2O)cc1)[N-]c1ccccc1 (protonated)
O=C(Cc1ccc([N-]C(=O)Cc2sc(=O)[n-]c2O)cc1)[N-]c1ccccc1 (3D coordinates assigned)
O=C(Cc1ccc([N-]C(=O)Cc2sc(=O)[n-]c2O)cc1)[N-]c1ccccc1 (optimized conformer: 79.69977237676895 kcal/mol)

>  <smiles>  (62) 
O=C(Cc1ccc(NC(=O)Cc2sc(=O)[nH]c2O)cc1)Nc1ccccc1

>  <score_type>  (62) 
oracle

>  <origin>  (62) 
adg

>  <m_score__min__energy>  (62) 
-13.890000000000001

>  <m_primary>  (62) 
energy

$$$$
62:0
     RDKit          3D

 61 64  0  0  0  0  0  0  0  0999 V2000
   59.3250   30.0770   44.9850 C   0  0  0  0  0  0  0  0  0  0  0  0
   59.3650   29.4050   46.1470 C   0  0  0  0  0  0  0  0  0  0  0  0
   58.5240   28.3480   46.5270 C   0  0  0  0  0  0  0  0  0  0  0  0
   57.6850   27.5830   45.8010 C   0  0  0  0  0  0  0  0  0  0  0  0
   57.1810   26.2570   46.1940 C   0  0  0  0  0  0  0  0  0  0  0  0
   57.9470   25.2480   46.6490 N   0  0  0  0  0  0  0  0  0  0  0  0
   57.0450   24.3090   47.0050 C   0  0  0  0  0  0  0  0  0  0  0  0
   57.3820   23.1890   47.4720 O   0  0  0  0  0  0  0  0  0  0  0  0
   55.7550   24.6650   46.8310 N   0  0  0  0  0  0  0  0  0  0  0  0
   55.8600   25.9070   46.3300 C   0  0  0  0  0  0  0  0  0  0  0  0
   54.7700   26.7060   46.0080 O   0  0  0  0  0  0  0  0  0  0  0  0
   58.7010   28.1830   47.8870 C   0  0  0  0  0  0  0  0  0  0  0  0
   59.6880   29.0650   48.2740 C   0  0  0  0  0  0  0  0  0  0  0  0
   60.1450   29.2480   49.6670 C   0  0  0  0  0  0  0  0  0  0  0  0
   61.1510   28.5950   50.0540 O   0  0  0  0  0  0  0  0  0  0  0  0
   59.4490   30.1150   50.5930 N   0  0  0  0  0  0  0  0  0  0  0  0
   59.6510   29.9590   52.0430 C   0  0  0  0  0  0  0  0  0  0  0  0
   58.2960   29.8080   52.7490 C   0  0  0  0  0  0  0  0  0  0  0  0
   57.2810   30.7090   52.1740 N   0  0  0  0  0  0  0  0  0  0  0  0
   55.8840   30.3560   52.2550 C   0  0  0  0  0  0  0  0  0  0  0  0
   55.1230   30.5930   51.2770 O   0  0  0  0  0  0  0  0  0  0  0  0
   55.3260   29.6880   53.4490 C   0  0  0  0  0  0  0  0  0  0  0  0
   55.3050   30.3410   54.6920 C   0  0  0  0  0  0  0  0  0  0  0  0
   54.7620   29.7070   55.8140 C   0  0  0  0  0  0  0  0  0  0  0  0
   54.2290   28.4190   55.7010 C   0  0  0  0  0  0  0  0  0  0  0  0
   54.2330   27.7680   54.4660 C   0  0  0  0  0  0  0  0  0  0  0  0
   54.7730   28.4000   53.3420 C   0  0  0  0  0  0  0  0  0  0  0  0
   57.7200   31.7700   51.2600 C   0  0  0  0  0  0  0  0  0  0  0  0
   58.5120   31.1460   50.1080 C   0  0  0  0  0  0  0  0  0  0  0  0
   60.1140   29.7970   47.2140 N   0  0  0  0  0  0  0  0  0  0  0  0
   61.1270   30.8680   47.2530 C   0  0  0  0  0  0  0  0  0  0  0  0
   60.5250   32.2040   47.6190 C   0  0  0  0  0  0  0  0  0  0  0  0
   59.5250   32.6050   46.9620 O   0  0  0  0  0  0  0  0  0  0  0  0
   61.0210   33.0060   48.7150 N   0  0  0  0  0  0  0  0  0  0  0  0
   62.2070   32.6040   49.4760 C   0  0  0  0  0  0  0  0  0  0  0  0
   60.3240   34.2510   49.0540 C   0  0  0  0  0  0  0  0  0  0  0  0
   60.0389   30.8923   44.7963 H   0  0  0  0  0  0  0  0  0  0  0  0
   58.5783   29.8121   44.2219 H   0  0  0  0  0  0  0  0  0  0  0  0
   57.3485   27.9832   44.8332 H   0  0  0  0  0  0  0  0  0  0  0  0
   58.1580   27.4816   48.5375 H   0  0  0  0  0  0  0  0  0  0  0  0
   60.2616   29.0637   52.2314 H   0  0  0  0  0  0  0  0  0  0  0  0
   60.1644   30.8499   52.4338 H   0  0  0  0  0  0  0  0  0  0  0  0
   57.9520   28.7686   52.6426 H   0  0  0  0  0  0  0  0  0  0  0  0
   58.4290   30.0714   53.8087 H   0  0  0  0  0  0  0  0  0  0  0  0
   55.7178   31.3565   54.7836 H   0  0  0  0  0  0  0  0  0  0  0  0
   54.7541   30.2218   56.7861 H   0  0  0  0  0  0  0  0  0  0  0  0
   53.8067   27.9189   56.5851 H   0  0  0  0  0  0  0  0  0  0  0  0
   53.8106   26.7562   54.3772 H   0  0  0  0  0  0  0  0  0  0  0  0
   54.7651   27.8869   52.3690 H   0  0  0  0  0  0  0  0  0  0  0  0
   56.8416   32.2973   50.8595 H   0  0  0  0  0  0  0  0  0  0  0  0
   58.3569   32.4846   51.8020 H   0  0  0  0  0  0  0  0  0  0  0  0
   57.8086   30.6848   49.3991 H   0  0  0  0  0  0  0  0  0  0  0  0
   59.0953   31.9405   49.6196 H   0  0  0  0  0  0  0  0  0  0  0  0
   61.8915   30.6066   47.9995 H   0  0  0  0  0  0  0  0  0  0  0  0
   61.5657   30.9571   46.2482 H   0  0  0  0  0  0  0  0  0  0  0  0
   61.9937   32.6763   50.5527 H   0  0  0  0  0  0  0  0  0  0  0  0
   62.4705   31.5664   49.2233 H   0  0  0  0  0  0  0  0  0  0  0  0
   63.0471   33.2676   49.2233 H   0  0  0  0  0  0  0  0  0  0  0  0
   60.2668   34.3531   50.1478 H   0  0  0  0  0  0  0  0  0  0  0  0
   60.8749   35.1056   48.6343 H   0  0  0  0  0  0  0  0  0  0  0  0
   59.3075   34.2281   48.6343 H   0  0  0  0  0  0  0  0  0  0  0  0
  1  2  2  0
  2  3  1  0
  3  4  2  3
  4  5  1  0
  5  6  1  0
  6  7  1  0
  7  8  2  0
  7  9  1  0
  9 10  1  0
 10 11  1  0
  3 12  1  0
 12 13  2  0
 13 14  1  0
 14 15  2  0
 14 16  1  0
 16 17  1  0
 17 18  1  0
 18 19  1  0
 19 20  1  0
 20 21  2  0
 20 22  1  0
 22 23  2  0
 23 24  1  0
 24 25  2  0
 25 26  1  0
 26 27  2  0
 19 28  1  0
 28 29  1  0
 13 30  1  0
 30 31  1  0
 31 32  1  0
 32 33  2  0
 32 34  1  0
 34 35  1  0
 34 36  1  0
 30  2  1  0
 10  5  2  0
 29 16  1  0
 27 22  1  0
  1 37  1  0
  1 38  1  0
  4 39  1  0
 12 40  1  0
 17 41  1  0
 17 42  1  0
 18 43  1  0
 18 44  1  0
 23 45  1  0
 24 46  1  0
 25 47  1  0
 26 48  1  0
 27 49  1  0
 28 50  1  0
 28 51  1  0
 29 52  1  0
 29 53  1  0
 31 54  1  0
 31 55  1  0
 35 56  1  0
 35 57  1  0
 35 58  1  0
 36 59  1  0
 36 60  1  0
 36 61  1  0
M  CHG  3   6  -1   9  -1  11  -1
M  END
>  <UniqueID>  (63) 
61

>  <SMILES>  (63) 
C=c1c(=Cc2[n-]c(=O)[n-]c2[O-])cc(C(=O)N2CCN(C(=O)c3ccccc3)CC2)n1CC(=O)N(C)C

>  <Energy>  (63) 
141.7054485980292

>  <Genealogy>  (63) 
C=c1c(=Cc2[n-]c(=O)[n-]c2[O-])cc(C(=O)N2CCN(C(=O)c3ccccc3)CC2)n1CC(=O)N(C)C (protonated)
C=c1c(=Cc2[n-]c(=O)[n-]c2[O-])cc(C(=O)N2CCN(C(=O)c3ccccc3)CC2)n1CC(=O)N(C)C (3D coordinates assigned)
C=c1c(=Cc2[n-]c(=O)[n-]c2[O-])cc(C(=O)N2CCN(C(=O)c3ccccc3)CC2)n1CC(=O)N(C)C (nonaromatic ring conformer: 141.7054485980292 kcal/mol)

>  <smiles>  (63) 
C=c1c(=Cc2[nH]c(=O)[nH]c2O)cc(C(=O)N2CCN(C(=O)c3ccccc3)CC2)n1CC(=O)N(C)C

>  <score_type>  (63) 
oracle

>  <origin>  (63) 
adg

>  <m_score__min__energy>  (63) 
-17.25

>  <m_primary>  (63) 
energy

$$$$
63:0
     RDKit          3D

 71 74  0  0  0  0  0  0  0  0999 V2000
   54.5000   30.4970   52.8120 C   0  0  0  0  0  0  0  0  0  0  0  0
   55.9900   30.5700   52.6260 C   0  0  0  0  0  0  0  0  0  0  0  0
   56.4400   30.4660   51.4940 O   0  0  0  0  0  0  0  0  0  0  0  0
   56.8830   30.7650   53.7570 N   0  0  0  0  0  0  0  0  0  0  0  0
   58.0720   31.5900   53.3930 C   0  0  0  0  0  0  0  0  0  0  0  0
   59.3850   30.7920   53.2790 C   0  0  0  0  0  0  0  0  0  0  0  0
   59.1270   29.4360   52.7830 N   0  0  0  0  0  0  0  0  0  0  0  0
   60.0180   28.8090   51.8400 C   0  0  0  0  0  0  0  0  0  0  0  0
   60.3710   27.6130   52.0270 O   0  0  0  0  0  0  0  0  0  0  0  0
   60.5190   29.5290   50.6440 C   0  0  0  0  0  0  0  0  0  0  0  0
   59.7130   29.6340   49.4990 C   0  0  0  0  0  0  0  0  0  0  0  0
   60.1790   30.3010   48.3630 C   0  0  0  0  0  0  0  0  0  0  0  0
   61.4600   30.8730   48.3480 C   0  0  0  0  0  0  0  0  0  0  0  0
   61.9260   31.6150   47.1190 C   0  0  0  0  0  0  0  0  0  0  0  0
   61.8600   33.1160   47.2570 C   0  0  0  0  0  0  0  0  0  0  0  0
   62.4000   33.8180   46.3590 O   0  0  0  0  0  0  0  0  0  0  0  0
   61.2380   33.7670   48.3880 N   0  0  0  0  0  0  0  0  0  0  0  0
   62.1040   34.3380   49.4240 C   0  0  0  0  0  0  0  0  0  0  0  0
   59.7820   33.9820   48.4600 C   0  0  0  0  0  0  0  0  0  0  0  0
   59.1130   33.8270   47.1170 C   0  0  0  0  0  0  0  0  0  0  0  0
   59.2720   34.7920   46.1090 C   0  0  0  0  0  0  0  0  0  0  0  0
   58.6620   34.6180   44.8650 C   0  0  0  0  0  0  0  0  0  0  0  0
   57.9080   33.4700   44.6080 C   0  0  0  0  0  0  0  0  0  0  0  0
   57.7710   32.4770   45.5850 C   0  0  0  0  0  0  0  0  0  0  0  0
   57.0190   31.3350   45.2750 O   0  0  0  0  0  0  0  0  0  0  0  0
   57.4430   30.3120   44.3780 C   0  0  0  0  0  0  0  0  0  0  0  0
   58.3260   29.3440   45.1100 C   0  0  0  0  0  0  0  0  0  0  0  0
   59.7030   29.2880   44.8330 C   0  0  0  0  0  0  0  0  0  0  0  0
   60.5180   28.3680   45.5010 C   0  0  0  0  0  0  0  0  0  0  0  0
   59.9640   27.4910   46.4380 C   0  0  0  0  0  0  0  0  0  0  0  0
   58.5920   27.5290   46.7050 C   0  0  0  0  0  0  0  0  0  0  0  0
   57.7730   28.4490   46.0410 C   0  0  0  0  0  0  0  0  0  0  0  0
   58.3890   32.6570   46.8370 C   0  0  0  0  0  0  0  0  0  0  0  0
   62.2400   30.8260   49.5160 C   0  0  0  0  0  0  0  0  0  0  0  0
   61.7790   30.1520   50.6500 C   0  0  0  0  0  0  0  0  0  0  0  0
   58.1390   28.6100   53.4840 C   0  0  0  0  0  0  0  0  0  0  0  0
   57.2310   29.4680   54.3810 C   0  0  0  0  0  0  0  0  0  0  0  0
   54.2648   30.4855   53.8865 H   0  0  0  0  0  0  0  0  0  0  0  0
   54.0286   31.3731   52.3428 H   0  0  0  0  0  0  0  0  0  0  0  0
   54.1165   29.5790   52.3428 H   0  0  0  0  0  0  0  0  0  0  0  0
   56.3590   31.3030   54.4870 H   0  0  0  0  0  0  0  0  0  0  0  0
   57.8748   32.0697   52.4230 H   0  0  0  0  0  0  0  0  0  0  0  0
   58.2136   32.3159   54.2073 H   0  0  0  0  0  0  0  0  0  0  0  0
   60.0619   31.3084   52.5825 H   0  0  0  0  0  0  0  0  0  0  0  0
   59.8437   30.7221   54.2763 H   0  0  0  0  0  0  0  0  0  0  0  0
   58.7075   29.1880   49.4963 H   0  0  0  0  0  0  0  0  0  0  0  0
   59.5365   30.3782   47.4735 H   0  0  0  0  0  0  0  0  0  0  0  0
   62.9689   31.3302   46.9157 H   0  0  0  0  0  0  0  0  0  0  0  0
   61.2481   31.3369   46.2985 H   0  0  0  0  0  0  0  0  0  0  0  0
   61.7087   34.0774   50.4169 H   0  0  0  0  0  0  0  0  0  0  0  0
   63.1209   33.9327   49.3162 H   0  0  0  0  0  0  0  0  0  0  0  0
   62.1321   35.4323   49.3162 H   0  0  0  0  0  0  0  0  0  0  0  0
   59.3502   33.2486   49.1569 H   0  0  0  0  0  0  0  0  0  0  0  0
   59.6108   35.0127   48.8041 H   0  0  0  0  0  0  0  0  0  0  0  0
   59.8797   35.6887   46.3003 H   0  0  0  0  0  0  0  0  0  0  0  0
   58.7753   35.3862   44.0858 H   0  0  0  0  0  0  0  0  0  0  0  0
   57.4185   33.3457   43.6308 H   0  0  0  0  0  0  0  0  0  0  0  0
   56.5637   29.7814   43.9839 H   0  0  0  0  0  0  0  0  0  0  0  0
   58.0018   30.7619   43.5441 H   0  0  0  0  0  0  0  0  0  0  0  0
   60.1409   29.9695   44.0889 H   0  0  0  0  0  0  0  0  0  0  0  0
   61.5968   28.3346   45.2886 H   0  0  0  0  0  0  0  0  0  0  0  0
   60.6073   26.7711   46.9652 H   0  0  0  0  0  0  0  0  0  0  0  0
   58.1558   26.8346   47.4382 H   0  0  0  0  0  0  0  0  0  0  0  0
   56.6930   28.4715   46.2486 H   0  0  0  0  0  0  0  0  0  0  0  0
   58.3038   31.8730   47.6038 H   0  0  0  0  0  0  0  0  0  0  0  0
   63.2208   31.3235   49.5378 H   0  0  0  0  0  0  0  0  0  0  0  0
   62.4059   30.1087   51.5528 H   0  0  0  0  0  0  0  0  0  0  0  0
   57.5184   28.0861   52.7421 H   0  0  0  0  0  0  0  0  0  0  0  0
   58.6756   27.8901   54.1194 H   0  0  0  0  0  0  0  0  0  0  0  0
   56.3032   28.9115   54.5796 H   0  0  0  0  0  0  0  0  0  0  0  0
   57.7811   29.6798   55.3097 H   0  0  0  0  0  0  0  0  0  0  0  0
  1  2  1  0
  2  3  2  0
  2  4  1  0
  4  5  1  0
  5  6  1  0
  6  7  1  0
  7  8  1  0
  8  9  2  0
  8 10  1  0
 10 11  2  0
 11 12  1  0
 12 13  2  0
 13 14  1  0
 14 15  1  0
 15 16  2  0
 15 17  1  0
 17 18  1  0
 17 19  1  0
 19 20  1  0
 20 21  2  0
 21 22  1  0
 22 23  2  0
 23 24  1  0
 24 25  1  0
 25 26  1  0
 26 27  1  0
 27 28  2  0
 28 29  1  0
 29 30  2  0
 30 31  1  0
 31 32  2  0
 24 33  2  0
 13 34  1  0
 34 35  2  0
  7 36  1  0
 36 37  1  0
 37  4  1  0
 35 10  1  0
 33 20  1  0
 32 27  1  0
  1 38  1  0
  1 39  1  0
  1 40  1  0
  4 41  1  0
  5 42  1  0
  5 43  1  0
  6 44  1  0
  6 45  1  0
 11 46  1  0
 12 47  1  0
 14 48  1  0
 14 49  1  0
 18 50  1  0
 18 51  1  0
 18 52  1  0
 19 53  1  0
 19 54  1  0
 21 55  1  0
 22 56  1  0
 23 57  1  0
 26 58  1  0
 26 59  1  0
 28 60  1  0
 29 61  1  0
 30 62  1  0
 31 63  1  0
 32 64  1  0
 33 65  1  0
 34 66  1  0
 35 67  1  0
 36 68  1  0
 36 69  1  0
 37 70  1  0
 37 71  1  0
M  CHG  1   4   1
M  END
>  <UniqueID>  (64) 
62

>  <SMILES>  (64) 
CC(=O)[NH+]1CCN(C(=O)c2ccc(CC(=O)N(C)Cc3cccc(OCc4ccccc4)c3)cc2)CC1

>  <Energy>  (64) 
81.11286638955413

>  <Genealogy>  (64) 
CC(=O)[NH+]1CCN(C(=O)c2ccc(CC(=O)N(C)Cc3cccc(OCc4ccccc4)c3)cc2)CC1 (protonated)
CC(=O)[NH+]1CCN(C(=O)c2ccc(CC(=O)N(C)Cc3cccc(OCc4ccccc4)c3)cc2)CC1 (3D coordinates assigned)
CC(=O)[NH+]1CCN(C(=O)c2ccc(CC(=O)N(C)Cc3cccc(OCc4ccccc4)c3)cc2)CC1 (nonaromatic ring conformer: 81.11286638955413 kcal/mol)

>  <smiles>  (64) 
CC(=O)N1CCN(C(=O)c2ccc(CC(=O)N(C)Cc3cccc(OCc4ccccc4)c3)cc2)CC1

>  <score_type>  (64) 
oracle

>  <origin>  (64) 
adg

>  <m_score__min__energy>  (64) 
-8.8000000000000007

>  <m_primary>  (64) 
energy

$$$$
64:0
     RDKit          3D

 45 47  0  0  0  0  0  0  0  0999 V2000
   59.8310   34.1620   51.2930 N   0  0  0  0  0  0  0  0  0  0  0  0
   59.7710   33.7840   49.6070 S   0  0  0  0  0  0  0  0  0  0  0  0
   58.8200   32.6390   49.3950 O   0  0  0  0  0  0  0  0  0  0  0  0
   59.2760   34.9940   48.8680 O   0  0  0  0  0  0  0  0  0  0  0  0
   61.3760   33.3420   49.0000 C   0  0  0  0  0  0  0  0  0  0  0  0
   62.5180   33.7630   49.7010 C   0  0  0  0  0  0  0  0  0  0  0  0
   63.7950   33.4610   49.2220 C   0  0  0  0  0  0  0  0  0  0  0  0
   63.9470   32.7400   48.0380 C   0  0  0  0  0  0  0  0  0  0  0  0
   62.8230   32.3120   47.3310 C   0  0  0  0  0  0  0  0  0  0  0  0
   61.5330   32.5990   47.8050 C   0  0  0  0  0  0  0  0  0  0  0  0
   60.3730   32.1150   47.0340 C   0  0  0  0  0  0  0  0  0  0  0  0
   59.6170   33.0090   46.2630 C   0  0  0  0  0  0  0  0  0  0  0  0
   58.5030   32.5540   45.5530 C   0  0  0  0  0  0  0  0  0  0  0  0
   58.1260   31.2070   45.6130 C   0  0  0  0  0  0  0  0  0  0  0  0
   56.9750   30.7740   44.8770 N   0  0  0  0  0  0  0  0  0  0  0  0
   56.3970   29.4580   44.8810 C   0  0  0  0  0  0  0  0  0  0  0  0
   55.1430   29.3500   44.8400 O   0  0  0  0  0  0  0  0  0  0  0  0
   57.2290   28.2100   44.9740 C   0  0  0  0  0  0  0  0  0  0  0  0
   56.7470   27.3580   46.0530 N   0  0  0  0  0  0  0  0  0  0  0  0
   56.0880   26.1120   45.8230 C   0  0  0  0  0  0  0  0  0  0  0  0
   54.8390   26.0250   45.9690 O   0  0  0  0  0  0  0  0  0  0  0  0
   56.8810   24.9590   45.5020 N   0  0  0  0  0  0  0  0  0  0  0  0
   56.5550   23.9000   44.8130 C   0  0  0  0  0  0  0  0  0  0  0  0
   56.4890   23.8790   43.4030 C   0  0  0  0  0  0  0  0  0  0  0  0
   56.1570   22.6930   42.7440 C   0  0  0  0  0  0  0  0  0  0  0  0
   55.9080   21.5620   43.4550 N   0  0  0  0  0  0  0  0  0  0  0  0
   55.9750   21.5470   44.8120 C   0  0  0  0  0  0  0  0  0  0  0  0
   56.3050   22.7100   45.5110 C   0  0  0  0  0  0  0  0  0  0  0  0
   58.9180   30.3020   46.3390 C   0  0  0  0  0  0  0  0  0  0  0  0
   60.0300   30.7560   47.0520 C   0  0  0  0  0  0  0  0  0  0  0  0
   59.1960   34.9760   51.4490 H   0  0  0  0  0  0  0  0  0  0  0  0
   62.4060   34.3347   50.6340 H   0  0  0  0  0  0  0  0  0  0  0  0
   64.6829   33.7927   49.7801 H   0  0  0  0  0  0  0  0  0  0  0  0
   64.9542   32.5085   47.6611 H   0  0  0  0  0  0  0  0  0  0  0  0
   62.9483   31.7460   46.3961 H   0  0  0  0  0  0  0  0  0  0  0  0
   59.9013   34.0706   46.2169 H   0  0  0  0  0  0  0  0  0  0  0  0
   57.9185   33.2585   44.9431 H   0  0  0  0  0  0  0  0  0  0  0  0
   57.1664   27.6609   44.0229 H   0  0  0  0  0  0  0  0  0  0  0  0
   58.2724   28.4910   45.1800 H   0  0  0  0  0  0  0  0  0  0  0  0
   56.6980   24.7920   42.8262 H   0  0  0  0  0  0  0  0  0  0  0  0
   56.0969   22.6745   41.6458 H   0  0  0  0  0  0  0  0  0  0  0  0
   55.7688   20.6165   45.3613 H   0  0  0  0  0  0  0  0  0  0  0  0
   56.3688   22.6925   46.6090 H   0  0  0  0  0  0  0  0  0  0  0  0
   58.6616   29.2323   46.3460 H   0  0  0  0  0  0  0  0  0  0  0  0
   60.6386   30.0447   47.6296 H   0  0  0  0  0  0  0  0  0  0  0  0
  1  2  1  0
  2  3  2  0
  2  4  2  0
  2  5  1  0
  5  6  2  0
  6  7  1  0
  7  8  2  0
  8  9  1  0
  9 10  2  0
 10 11  1  0
 11 12  2  0
 12 13  1  0
 13 14  2  0
 14 15  1  0
 15 16  1  0
 16 17  2  0
 16 18  1  0
 18 19  1  0
 19 20  1  0
 20 21  2  0
 20 22  1  0
 22 23  2  3
 23 24  1  0
 24 25  2  0
 25 26  1  0
 26 27  1  0
 27 28  2  0
 14 29  1  0
 29 30  2  0
 10  5  1  0
 30 11  1  0
 28 23  1  0
  1 31  1  0
  6 32  1  0
  7 33  1  0
  8 34  1  0
  9 35  1  0
 12 36  1  0
 13 37  1  0
 18 38  1  0
 18 39  1  0
 24 40  1  0
 25 41  1  0
 27 42  1  0
 28 43  1  0
 29 44  1  0
 30 45  1  0
M  CHG  4   1  -1  15  -1  19  -1  26  -1
M  END
>  <UniqueID>  (65) 
63

>  <SMILES>  (65) 
[NH-]S(=O)(=O)c1ccccc1-c1ccc([N-]C(=O)C[N-]C(=O)N=c2cc[n-]cc2)cc1

>  <Energy>  (65) 
63.02536683414149

>  <Genealogy>  (65) 
[NH-]S(=O)(=O)c1ccccc1-c1ccc([N-]C(=O)C[N-]C(=O)N=c2cc[n-]cc2)cc1 (protonated)
[NH-]S(=O)(=O)c1ccccc1-c1ccc([N-]C(=O)C[N-]C(=O)N=c2cc[n-]cc2)cc1 (3D coordinates assigned)
[NH-]S(=O)(=O)c1ccccc1-c1ccc([N-]C(=O)C[N-]C(=O)N=c2cc[n-]cc2)cc1 (optimized conformer: 63.02536683414149 kcal/mol)

>  <smiles>  (65) 
NS(=O)(=O)c1ccccc1-c1ccc(NC(=O)CNC(=O)N=c2cc[nH]cc2)cc1

>  <score_type>  (65) 
oracle

>  <origin>  (65) 
adg

>  <m_score__min__energy>  (65) 
-15.83

>  <m_primary>  (65) 
energy

$$$$
65:0
     RDKit          3D

 67 69  0  0  0  0  0  0  0  0999 V2000
   64.1670   31.2340   51.0300 C   0  0  0  0  0  0  0  0  0  0  0  0
   64.3500   31.9340   49.6800 C   0  0  0  0  0  0  0  0  0  0  0  0
   65.3740   33.0690   49.8020 C   0  0  0  0  0  0  0  0  0  0  0  0
   63.0630   32.4550   49.2050 N   0  0  0  0  0  0  0  0  0  0  0  0
   62.8390   32.7970   47.8270 C   0  0  0  0  0  0  0  0  0  0  0  0
   63.8090   32.8060   47.0200 O   0  0  0  0  0  0  0  0  0  0  0  0
   61.4880   33.1650   47.3410 C   0  0  0  0  0  0  0  0  0  0  0  0
   60.3500   32.5430   47.8860 C   0  0  0  0  0  0  0  0  0  0  0  0
   59.0720   32.8790   47.4330 C   0  0  0  0  0  0  0  0  0  0  0  0
   58.9060   33.8470   46.4320 C   0  0  0  0  0  0  0  0  0  0  0  0
   57.5290   34.2210   45.9490 C   0  0  0  0  0  0  0  0  0  0  0  0
   56.9500   33.1630   45.2110 O   0  0  0  0  0  0  0  0  0  0  0  0
   57.9400   32.4780   44.4720 C   0  0  0  0  0  0  0  0  0  0  0  0
   57.7990   31.0030   44.7200 C   0  0  0  0  0  0  0  0  0  0  0  0
   56.6350   30.3350   44.3160 C   0  0  0  0  0  0  0  0  0  0  0  0
   56.5000   28.9590   44.5260 C   0  0  0  0  0  0  0  0  0  0  0  0
   57.5290   28.2280   45.1440 C   0  0  0  0  0  0  0  0  0  0  0  0
   57.3880   26.7740   45.3890 C   0  0  0  0  0  0  0  0  0  0  0  0
   58.3590   25.7990   45.2070 C   0  0  0  0  0  0  0  0  0  0  0  0
   57.8470   24.5980   45.5560 N   0  0  0  0  0  0  0  0  0  0  0  0
   58.6030   23.3420   45.5720 C   0  0  0  0  0  0  0  0  0  0  0  0
   58.5000   22.6330   44.2170 C   0  0  0  0  0  0  0  0  0  0  0  0
   57.0830   22.3890   43.8670 N   0  0  0  0  0  0  0  0  0  0  0  0
   56.9280   21.0920   43.1890 C   0  0  0  0  0  0  0  0  0  0  0  0
   56.5590   23.4630   43.0060 C   0  0  0  0  0  0  0  0  0  0  0  0
   56.5880   24.7610   45.9510 N   0  0  0  0  0  0  0  0  0  0  0  0
   55.6820   23.6930   46.3750 C   0  0  0  0  0  0  0  0  0  0  0  0
   56.2870   26.0710   45.8520 C   0  0  0  0  0  0  0  0  0  0  0  0
   55.1560   26.5600   46.1190 O   0  0  0  0  0  0  0  0  0  0  0  0
   58.6940   28.9010   45.5480 C   0  0  0  0  0  0  0  0  0  0  0  0
   58.8330   30.2750   45.3300 C   0  0  0  0  0  0  0  0  0  0  0  0
   60.0350   34.4860   45.9000 C   0  0  0  0  0  0  0  0  0  0  0  0
   61.3150   34.1490   46.3500 C   0  0  0  0  0  0  0  0  0  0  0  0
   64.3544   31.9508   51.8431 H   0  0  0  0  0  0  0  0  0  0  0  0
   63.1387   30.8514   51.1082 H   0  0  0  0  0  0  0  0  0  0  0  0
   64.8765   30.3971   51.1082 H   0  0  0  0  0  0  0  0  0  0  0  0
   64.7267   31.2027   48.9497 H   0  0  0  0  0  0  0  0  0  0  0  0
   65.5636   33.2791   50.8650 H   0  0  0  0  0  0  0  0  0  0  0  0
   66.3133   32.7694   49.3143 H   0  0  0  0  0  0  0  0  0  0  0  0
   64.9796   33.9726   49.3143 H   0  0  0  0  0  0  0  0  0  0  0  0
   62.3140   32.6630   49.9030 H   0  0  0  0  0  0  0  0  0  0  0  0
   60.4675   31.7859   48.6753 H   0  0  0  0  0  0  0  0  0  0  0  0
   58.1907   32.3814   47.8640 H   0  0  0  0  0  0  0  0  0  0  0  0
   56.8915   34.4463   46.8167 H   0  0  0  0  0  0  0  0  0  0  0  0
   57.6123   35.1018   45.2954 H   0  0  0  0  0  0  0  0  0  0  0  0
   57.8104   32.6862   43.3997 H   0  0  0  0  0  0  0  0  0  0  0  0
   58.9390   32.8148   44.7858 H   0  0  0  0  0  0  0  0  0  0  0  0
   55.8229   30.8963   43.8309 H   0  0  0  0  0  0  0  0  0  0  0  0
   55.5818   28.4451   44.2052 H   0  0  0  0  0  0  0  0  0  0  0  0
   59.3802   25.9754   44.8383 H   0  0  0  0  0  0  0  0  0  0  0  0
   59.6597   23.5588   45.7871 H   0  0  0  0  0  0  0  0  0  0  0  0
   58.1835   22.6855   46.3485 H   0  0  0  0  0  0  0  0  0  0  0  0
   58.9610   23.2635   43.4424 H   0  0  0  0  0  0  0  0  0  0  0  0
   59.0227   21.6672   44.2798 H   0  0  0  0  0  0  0  0  0  0  0  0
   56.8327   20.2945   43.9406 H   0  0  0  0  0  0  0  0  0  0  0  0
   56.0259   21.1126   42.5598 H   0  0  0  0  0  0  0  0  0  0  0  0
   57.8095   20.8995   42.5598 H   0  0  0  0  0  0  0  0  0  0  0  0
   56.1627   24.2752   43.6331 H   0  0  0  0  0  0  0  0  0  0  0  0
   57.3687   23.8518   42.3709 H   0  0  0  0  0  0  0  0  0  0  0  0
   55.7543   23.0641   42.3709 H   0  0  0  0  0  0  0  0  0  0  0  0
   55.6494   23.6545   47.4738 H   0  0  0  0  0  0  0  0  0  0  0  0
   54.6729   23.8918   45.9849 H   0  0  0  0  0  0  0  0  0  0  0  0
   56.0427   22.7298   45.9849 H   0  0  0  0  0  0  0  0  0  0  0  0
   59.5037   28.3422   46.0400 H   0  0  0  0  0  0  0  0  0  0  0  0
   59.7563   30.7878   45.6377 H   0  0  0  0  0  0  0  0  0  0  0  0
   59.9129   35.2565   45.1245 H   0  0  0  0  0  0  0  0  0  0  0  0
   62.1938   34.6570   45.9261 H   0  0  0  0  0  0  0  0  0  0  0  0
  1  2  1  0
  2  3  1  0
  2  4  1  0
  4  5  1  0
  5  6  2  0
  5  7  1  0
  7  8  2  0
  8  9  1  0
  9 10  2  0
 10 11  1  0
 11 12  1  0
 12 13  1  0
 13 14  1  0
 14 15  2  0
 15 16  1  0
 16 17  2  0
 17 18  1  0
 18 19  2  0
 19 20  1  0
 20 21  1  0
 21 22  1  0
 22 23  1  0
 23 24  1  0
 23 25  1  0
 20 26  1  0
 26 27  1  0
 26 28  1  0
 28 29  2  0
 17 30  1  0
 30 31  2  0
 10 32  1  0
 32 33  2  0
 33  7  1  0
 31 14  1  0
 28 18  1  0
  1 34  1  0
  1 35  1  0
  1 36  1  0
  2 37  1  0
  3 38  1  0
  3 39  1  0
  3 40  1  0
  4 41  1  0
  8 42  1  0
  9 43  1  0
 11 44  1  0
 11 45  1  0
 13 46  1  0
 13 47  1  0
 15 48  1  0
 16 49  1  0
 19 50  1  0
 21 51  1  0
 21 52  1  0
 22 53  1  0
 22 54  1  0
 24 55  1  0
 24 56  1  0
 24 57  1  0
 25 58  1  0
 25 59  1  0
 25 60  1  0
 27 61  1  0
 27 62  1  0
 27 63  1  0
 30 64  1  0
 31 65  1  0
 32 66  1  0
 33 67  1  0
M  END
>  <UniqueID>  (66) 
64

>  <SMILES>  (66) 
CC(C)NC(=O)c1ccc(COCc2ccc(-c3cn(CCN(C)C)n(C)c3=O)cc2)cc1

>  <Energy>  (66) 
100.47606589066741

>  <Genealogy>  (66) 
CC(C)NC(=O)c1ccc(COCc2ccc(-c3cn(CCN(C)C)n(C)c3=O)cc2)cc1 (3D coordinates assigned)
CC(C)NC(=O)c1ccc(COCc2ccc(-c3cn(CCN(C)C)n(C)c3=O)cc2)cc1 (optimized conformer: 100.47606589066741 kcal/mol)

>  <smiles>  (66) 
CC(C)NC(=O)c1ccc(COCc2ccc(-c3cn(CCN(C)C)n(C)c3=O)cc2)cc1

>  <score_type>  (66) 
oracle

>  <origin>  (66) 
adg

>  <m_score__min__energy>  (66) 
-9.1199999999999992

>  <m_primary>  (66) 
energy

$$$$
66:0
     RDKit          3D

 41 43  0  0  0  0  0  0  0  0999 V2000
   57.2802   28.9215   43.4190 H   0  0  0  0  0  0  0  0  0  0  0  0
   56.9830   29.9630   43.6110 C   0  0  0  0  0  0  0  0  0  0  0  0
   56.3132   30.4821   42.9096 H   0  0  0  0  0  0  0  0  0  0  0  0
   57.4380   30.6010   44.7020 C   0  0  0  0  0  0  0  0  0  0  0  0
   57.0230   31.8810   44.8620 N   0  0  0  0  0  0  0  0  0  0  0  0
   57.4280   32.6640   45.8830 C   0  0  0  0  0  0  0  0  0  0  0  0
   56.9910   33.8450   45.9520 O   0  0  0  0  0  0  0  0  0  0  0  0
   58.2910   32.1770   46.8240 N   0  0  0  0  0  0  0  0  0  0  0  0
   58.6990   33.0240   47.9680 C   0  0  0  0  0  0  0  0  0  0  0  0
   57.7974   33.3866   48.4835 H   0  0  0  0  0  0  0  0  0  0  0  0
   59.3190   32.4159   48.6432 H   0  0  0  0  0  0  0  0  0  0  0  0
   59.5300   34.2310   47.5080 C   0  0  0  0  0  0  0  0  0  0  0  0
   59.2862   34.4517   46.4583 H   0  0  0  0  0  0  0  0  0  0  0  0
   59.2842   35.0830   48.1589 H   0  0  0  0  0  0  0  0  0  0  0  0
   61.0090   33.9680   47.6200 C   0  0  0  0  0  0  0  0  0  0  0  0
   61.7960   33.8400   46.4620 C   0  0  0  0  0  0  0  0  0  0  0  0
   61.3375   33.9685   45.4704 H   0  0  0  0  0  0  0  0  0  0  0  0
   63.1590   33.5500   46.5670 C   0  0  0  0  0  0  0  0  0  0  0  0
   63.7717   33.4546   45.6585 H   0  0  0  0  0  0  0  0  0  0  0  0
   63.7450   33.3810   47.8250 C   0  0  0  0  0  0  0  0  0  0  0  0
   64.8187   33.1559   47.9057 H   0  0  0  0  0  0  0  0  0  0  0  0
   62.9670   33.4980   48.9800 C   0  0  0  0  0  0  0  0  0  0  0  0
   63.4287   33.3626   49.9692 H   0  0  0  0  0  0  0  0  0  0  0  0
   61.6020   33.7870   48.8800 C   0  0  0  0  0  0  0  0  0  0  0  0
   60.9914   33.8727   49.7909 H   0  0  0  0  0  0  0  0  0  0  0  0
   58.7360   30.8800   46.7400 C   0  0  0  0  0  0  0  0  0  0  0  0
   59.4630   30.4270   47.6670 O   0  0  0  0  0  0  0  0  0  0  0  0
   58.3450   30.0390   45.6540 C   0  0  0  0  0  0  0  0  0  0  0  0
   58.7740   28.7460   45.5510 C   0  0  0  0  0  0  0  0  0  0  0  0
   59.7880   28.5869   45.1553 H   0  0  0  0  0  0  0  0  0  0  0  0
   58.0020   27.5400   45.9220 C   0  0  0  0  0  0  0  0  0  0  0  0
   56.6120   27.5000   45.7180 C   0  0  0  0  0  0  0  0  0  0  0  0
   56.1030   28.3524   45.2444 H   0  0  0  0  0  0  0  0  0  0  0  0
   55.8730   26.3800   46.1150 C   0  0  0  0  0  0  0  0  0  0  0  0
   54.5010   26.3390   45.8960 O   0  0  0  0  0  0  0  0  0  0  0  0
   56.5140   25.3030   46.7350 C   0  0  0  0  0  0  0  0  0  0  0  0
   55.9338   24.4200   47.0411 H   0  0  0  0  0  0  0  0  0  0  0  0
   57.8920   25.3480   46.9660 C   0  0  0  0  0  0  0  0  0  0  0  0
   58.3927   24.5027   47.4607 H   0  0  0  0  0  0  0  0  0  0  0  0
   58.6370   26.4650   46.5700 C   0  0  0  0  0  0  0  0  0  0  0  0
   60.0060   26.4960   46.8160 O   0  0  0  0  0  0  0  0  0  0  0  0
  1  2  1  0
  2  3  1  0
  2  4  2  0
  4  5  1  0
  5  6  1  0
  6  7  2  0
  6  8  1  0
  8  9  1  0
  9 10  1  0
  9 11  1  0
  9 12  1  0
 12 13  1  0
 12 14  1  0
 12 15  1  0
 15 16  2  0
 16 17  1  0
 16 18  1  0
 18 19  1  0
 18 20  2  0
 20 21  1  0
 20 22  1  0
 22 23  1  0
 22 24  2  0
 24 25  1  0
  8 26  1  0
 26 27  2  0
 26 28  1  0
 28 29  2  0
 29 30  1  0
 29 31  1  0
 31 32  2  0
 32 33  1  0
 32 34  1  0
 34 35  1  0
 34 36  2  0
 36 37  1  0
 36 38  1  0
 38 39  1  0
 38 40  2  0
 40 41  1  0
 28  4  1  0
 40 31  1  0
 24 15  1  0
M  CHG  3   5  -1  35  -1  41  -1
M  END
>  <UniqueID>  (67) 
65

>  <SMILES>  (67) 
C=c1[n-]c(=O)n(CCc2ccccc2)c(=O)/c1=C\c1cc([O-])ccc1[O-]

>  <Energy>  (67) 
66.04434221812456

>  <Genealogy>  (67) 
C=c1[n-]c(=O)n(CCc2ccccc2)c(=O)c1=Cc1cc([O-])ccc1[O-] (protonated)
C=c1[n-]c(=O)n(CCc2ccccc2)c(=O)/c1=C\c1cc([O-])ccc1[O-] (cis-trans isomerization)
C=c1[n-]c(=O)n(CCc2ccccc2)c(=O)/c1=C\c1cc([O-])ccc1[O-] (3D coordinates assigned)
C=c1[n-]c(=O)n(CCc2ccccc2)c(=O)/c1=C\c1cc([O-])ccc1[O-] (optimized conformer: 66.04434221812456 kcal/mol)

>  <smiles>  (67) 
C=c1[nH]c(=O)n(CCc2ccccc2)c(=O)c1=Cc1cc(O)ccc1O

>  <score_type>  (67) 
oracle

>  <origin>  (67) 
adg

>  <m_score__min__energy>  (67) 
-14.9

>  <m_primary>  (67) 
energy

$$$$
67:0
     RDKit          3D

 29 31  0  0  0  0  0  0  0  0999 V2000
   56.1090   30.9880   44.4950 O   0  0  0  0  0  0  0  0  0  0  0  0
   57.3010   31.2510   44.8110 C   0  0  0  0  0  0  0  0  0  0  0  0
   57.6830   32.6200   44.9830 N   0  0  0  0  0  0  0  0  0  0  0  0
   58.6010   33.1200   45.9650 C   0  0  0  0  0  0  0  0  0  0  0  0
   59.0740   34.4450   45.9270 C   0  0  0  0  0  0  0  0  0  0  0  0
   59.9900   34.8930   46.8850 C   0  0  0  0  0  0  0  0  0  0  0  0
   60.4520   34.0200   47.8760 C   0  0  0  0  0  0  0  0  0  0  0  0
   61.6020   34.5820   49.0750 Cl  0  0  0  0  0  0  0  0  0  0  0  0
   60.0040   32.6950   47.9020 C   0  0  0  0  0  0  0  0  0  0  0  0
   59.0880   32.2460   46.9440 C   0  0  0  0  0  0  0  0  0  0  0  0
   58.2750   30.1990   44.8940 N   0  0  0  0  0  0  0  0  0  0  0  0
   57.9470   28.8120   45.0830 C   0  0  0  0  0  0  0  0  0  0  0  0
   58.8980   27.7860   44.8310 C   0  0  0  0  0  0  0  0  0  0  0  0
   58.5550   26.4320   44.9960 C   0  0  0  0  0  0  0  0  0  0  0  0
   57.2570   26.1370   45.4000 C   0  0  0  0  0  0  0  0  0  0  0  0
   56.7180   24.9260   45.6110 N   0  0  0  0  0  0  0  0  0  0  0  0
   55.4470   25.2420   45.9700 C   0  0  0  0  0  0  0  0  0  0  0  0
   54.5930   24.3650   46.2590 O   0  0  0  0  0  0  0  0  0  0  0  0
   55.1630   26.5690   45.9930 N   0  0  0  0  0  0  0  0  0  0  0  0
   56.3340   27.1110   45.6260 C   0  0  0  0  0  0  0  0  0  0  0  0
   56.6350   28.4630   45.4720 C   0  0  0  0  0  0  0  0  0  0  0  0
   58.7225   35.1304   45.1418 H   0  0  0  0  0  0  0  0  0  0  0  0
   60.3474   35.9330   46.8590 H   0  0  0  0  0  0  0  0  0  0  0  0
   60.3720   32.0055   48.6761 H   0  0  0  0  0  0  0  0  0  0  0  0
   58.7486   31.1998   46.9604 H   0  0  0  0  0  0  0  0  0  0  0  0
   59.2750   30.4490   44.7170 H   0  0  0  0  0  0  0  0  0  0  0  0
   59.9133   28.0539   44.5034 H   0  0  0  0  0  0  0  0  0  0  0  0
   59.2885   25.6332   44.8118 H   0  0  0  0  0  0  0  0  0  0  0  0
   55.8726   29.2361   45.6484 H   0  0  0  0  0  0  0  0  0  0  0  0
  1  2  2  0
  2  3  1  0
  3  4  1  0
  4  5  2  0
  5  6  1  0
  6  7  2  0
  7  8  1  0
  7  9  1  0
  9 10  2  0
  2 11  1  0
 11 12  1  0
 12 13  2  0
 13 14  1  0
 14 15  2  0
 15 16  1  0
 16 17  1  0
 17 18  2  0
 17 19  1  0
 19 20  1  0
 20 21  2  0
 10  4  1  0
 21 12  1  0
 20 15  1  0
  5 22  1  0
  6 23  1  0
  9 24  1  0
 10 25  1  0
 11 26  1  0
 13 27  1  0
 14 28  1  0
 21 29  1  0
M  CHG  3   3  -1  16  -1  19  -1
M  END
>  <UniqueID>  (68) 
66

>  <SMILES>  (68) 
O=C([N-]c1ccc(Cl)cc1)Nc1ccc2[n-]c(=O)[n-]c2c1

>  <Energy>  (68) 
73.84295520278948

>  <Genealogy>  (68) 
O=C([N-]c1ccc(Cl)cc1)Nc1ccc2[n-]c(=O)[n-]c2c1 (protonated)
O=C([N-]c1ccc(Cl)cc1)Nc1ccc2[n-]c(=O)[n-]c2c1 (3D coordinates assigned)
O=C([N-]c1ccc(Cl)cc1)Nc1ccc2[n-]c(=O)[n-]c2c1 (optimized conformer: 73.84295520278948 kcal/mol)

>  <smiles>  (68) 
O=C(Nc1ccc(Cl)cc1)Nc1ccc2[nH]c(=O)[nH]c2c1

>  <score_type>  (68) 
oracle

>  <origin>  (68) 
adg

>  <m_score__min__energy>  (68) 
-12.43

>  <m_primary>  (68) 
energy

$$$$
68:0
     RDKit          3D

 46 48  0  0  0  0  0  0  0  0999 V2000
   59.7780   28.2800   46.6920 C   0  0  0  0  0  0  0  0  0  0  0  0
   58.4620   28.9490   46.4510 C   0  0  0  0  0  0  0  0  0  0  0  0
   57.4080   28.2600   46.4780 O   0  0  0  0  0  0  0  0  0  0  0  0
   58.3800   30.3870   46.1280 C   0  0  0  0  0  0  0  0  0  0  0  0
   59.1760   31.2720   46.8720 C   0  0  0  0  0  0  0  0  0  0  0  0
   59.1130   32.6510   46.6560 C   0  0  0  0  0  0  0  0  0  0  0  0
   59.9340   33.4900   47.4240 O   0  0  0  0  0  0  0  0  0  0  0  0
   61.3210   33.3490   47.5840 C   0  0  0  0  0  0  0  0  0  0  0  0
   62.2220   33.8990   46.6540 C   0  0  0  0  0  0  0  0  0  0  0  0
   63.5990   33.7430   46.8260 C   0  0  0  0  0  0  0  0  0  0  0  0
   64.0910   33.0480   47.9330 C   0  0  0  0  0  0  0  0  0  0  0  0
   63.2070   32.5190   48.8750 C   0  0  0  0  0  0  0  0  0  0  0  0
   61.8210   32.6730   48.7150 C   0  0  0  0  0  0  0  0  0  0  0  0
   60.9270   32.1360   49.7060 N   0  0  0  0  0  0  0  0  0  0  0  0
   60.9620   30.7060   50.0350 C   0  0  0  0  0  0  0  0  0  0  0  0
   59.6360   30.2660   50.6690 C   0  0  0  0  0  0  0  0  0  0  0  0
   58.5040   30.9030   49.9820 N   0  0  0  0  0  0  0  0  0  0  0  0
   58.5010   32.3730   50.1380 C   0  0  0  0  0  0  0  0  0  0  0  0
   59.9050   32.9860   50.3240 C   0  0  0  0  0  0  0  0  0  0  0  0
   58.2710   33.1520   45.6540 C   0  0  0  0  0  0  0  0  0  0  0  0
   57.4890   32.2830   44.8910 C   0  0  0  0  0  0  0  0  0  0  0  0
   57.5370   30.8960   45.1090 C   0  0  0  0  0  0  0  0  0  0  0  0
   56.5900   29.8420   44.0460 S   0  0  0  0  0  0  0  0  0  0  0  0
   55.1440   29.3290   44.8430 N   0  0  0  0  0  0  0  0  0  0  0  0
   57.3890   28.6180   43.6920 O   0  0  0  0  0  0  0  0  0  0  0  0
   56.2410   30.5750   42.7820 O   0  0  0  0  0  0  0  0  0  0  0  0
   59.9516   28.1917   47.7746 H   0  0  0  0  0  0  0  0  0  0  0  0
   59.7681   27.2775   46.2393 H   0  0  0  0  0  0  0  0  0  0  0  0
   60.5821   28.8788   46.2393 H   0  0  0  0  0  0  0  0  0  0  0  0
   59.8595   30.8740   47.6364 H   0  0  0  0  0  0  0  0  0  0  0  0
   61.8393   34.4555   45.7857 H   0  0  0  0  0  0  0  0  0  0  0  0
   64.2966   34.1678   46.0892 H   0  0  0  0  0  0  0  0  0  0  0  0
   65.1755   32.9174   48.0626 H   0  0  0  0  0  0  0  0  0  0  0  0
   63.5992   31.9778   49.7486 H   0  0  0  0  0  0  0  0  0  0  0  0
   61.1327   30.1273   49.1152 H   0  0  0  0  0  0  0  0  0  0  0  0
   61.7756   30.5268   50.7533 H   0  0  0  0  0  0  0  0  0  0  0  0
   59.5406   29.1731   50.5883 H   0  0  0  0  0  0  0  0  0  0  0  0
   59.6281   30.5688   51.7265 H   0  0  0  0  0  0  0  0  0  0  0  0
   58.5620   30.6720   48.9620 H   0  0  0  0  0  0  0  0  0  0  0  0
   58.0464   32.8155   49.2394 H   0  0  0  0  0  0  0  0  0  0  0  0
   57.9323   32.5954   51.0529 H   0  0  0  0  0  0  0  0  0  0  0  0
   59.9300   33.9804   49.8544 H   0  0  0  0  0  0  0  0  0  0  0  0
   60.1159   33.0672   51.4005 H   0  0  0  0  0  0  0  0  0  0  0  0
   58.2261   34.2352   45.4678 H   0  0  0  0  0  0  0  0  0  0  0  0
   56.8282   32.6886   44.1108 H   0  0  0  0  0  0  0  0  0  0  0  0
   55.4340   28.7060   45.6290 H   0  0  0  0  0  0  0  0  0  0  0  0
  1  2  1  0
  2  3  2  0
  2  4  1  0
  4  5  2  0
  5  6  1  0
  6  7  1  0
  7  8  1  0
  8  9  2  0
  9 10  1  0
 10 11  2  0
 11 12  1  0
 12 13  2  0
 13 14  1  0
 14 15  1  0
 15 16  1  0
 16 17  1  0
 17 18  1  0
 18 19  1  0
  6 20  2  0
 20 21  1  0
 21 22  2  0
 22 23  1  0
 23 24  1  0
 23 25  2  0
 23 26  2  0
 22  4  1  0
 13  8  1  0
 19 14  1  0
  1 27  1  0
  1 28  1  0
  1 29  1  0
  5 30  1  0
  9 31  1  0
 10 32  1  0
 11 33  1  0
 12 34  1  0
 15 35  1  0
 15 36  1  0
 16 37  1  0
 16 38  1  0
 17 39  1  0
 18 40  1  0
 18 41  1  0
 19 42  1  0
 19 43  1  0
 20 44  1  0
 21 45  1  0
 24 46  1  0
M  CHG  1  24  -1
M  END
>  <UniqueID>  (69) 
67

>  <SMILES>  (69) 
CC(=O)c1cc(Oc2ccccc2N2CCNCC2)ccc1S([NH-])(=O)=O

>  <Energy>  (69) 
69.63581874710064

>  <Genealogy>  (69) 
CC(=O)c1cc(Oc2ccccc2N2CCNCC2)ccc1S([NH-])(=O)=O (protonated)
CC(=O)c1cc(Oc2ccccc2N2CCNCC2)ccc1S([NH-])(=O)=O (3D coordinates assigned)
CC(=O)c1cc(Oc2ccccc2N2CCNCC2)ccc1S([NH-])(=O)=O (nonaromatic ring conformer: 69.63581874710064 kcal/mol)

>  <smiles>  (69) 
CC(=O)c1cc(Oc2ccccc2N2CCNCC2)ccc1S(N)(=O)=O

>  <score_type>  (69) 
oracle

>  <origin>  (69) 
adg

>  <m_score__min__energy>  (69) 
-12.01

>  <m_primary>  (69) 
energy

$$$$
69:0
     RDKit          3D

 38 40  0  0  0  0  0  0  0  0999 V2000
   59.9440   29.7860   47.0400 C   0  0  0  0  0  0  0  0  0  0  0  0
   58.9970   30.0440   46.1120 C   0  0  0  0  0  0  0  0  0  0  0  0
   58.6570   31.3960   45.8200 C   0  0  0  0  0  0  0  0  0  0  0  0
   58.9790   32.5220   46.7330 C   0  0  0  0  0  0  0  0  0  0  0  0
   59.3230   33.7800   46.2090 C   0  0  0  0  0  0  0  0  0  0  0  0
   59.6460   34.8220   47.0780 C   0  0  0  0  0  0  0  0  0  0  0  0
   59.6340   34.6050   48.4560 C   0  0  0  0  0  0  0  0  0  0  0  0
   59.3000   33.3420   48.9460 C   0  0  0  0  0  0  0  0  0  0  0  0
   58.9860   32.3330   48.0860 N   0  0  0  0  0  0  0  0  0  0  0  0
   58.0010   31.7030   44.6200 C   0  0  0  0  0  0  0  0  0  0  0  0
   57.6650   30.7010   43.7090 C   0  0  0  0  0  0  0  0  0  0  0  0
   56.9700   31.0530   42.4210 C   0  0  0  0  0  0  0  0  0  0  0  0
   57.6670   32.2210   41.7300 C   0  0  0  0  0  0  0  0  0  0  0  0
   57.8790   29.3620   44.0500 C   0  0  0  0  0  0  0  0  0  0  0  0
   58.4580   29.0030   45.2850 C   0  0  0  0  0  0  0  0  0  0  0  0
   58.4370   27.6850   45.6080 C   0  0  0  0  0  0  0  0  0  0  0  0
   57.2250   26.8600   45.7900 C   0  0  0  0  0  0  0  0  0  0  0  0
   57.2100   25.6030   46.2710 N   0  0  0  0  0  0  0  0  0  0  0  0
   55.8930   25.3150   46.3540 C   0  0  0  0  0  0  0  0  0  0  0  0
   55.4660   24.2030   46.7580 O   0  0  0  0  0  0  0  0  0  0  0  0
   55.0690   26.3170   45.9780 N   0  0  0  0  0  0  0  0  0  0  0  0
   55.9290   27.2900   45.6350 C   0  0  0  0  0  0  0  0  0  0  0  0
   55.5360   28.5470   45.1920 O   0  0  0  0  0  0  0  0  0  0  0  0
   60.2155   28.7461   47.2744 H   0  0  0  0  0  0  0  0  0  0  0  0
   60.4437   30.6158   47.5613 H   0  0  0  0  0  0  0  0  0  0  0  0
   59.3374   33.9416   45.1210 H   0  0  0  0  0  0  0  0  0  0  0  0
   59.9095   35.8122   46.6779 H   0  0  0  0  0  0  0  0  0  0  0  0
   59.8853   35.4213   49.1492 H   0  0  0  0  0  0  0  0  0  0  0  0
   59.2902   33.1602   50.0308 H   0  0  0  0  0  0  0  0  0  0  0  0
   58.7330   31.4000   48.4840 H   0  0  0  0  0  0  0  0  0  0  0  0
   57.7474   32.7490   44.3932 H   0  0  0  0  0  0  0  0  0  0  0  0
   56.9838   30.1789   41.7534 H   0  0  0  0  0  0  0  0  0  0  0  0
   55.9342   31.3454   42.6482 H   0  0  0  0  0  0  0  0  0  0  0  0
   58.0752   32.9051   42.4885 H   0  0  0  0  0  0  0  0  0  0  0  0
   58.4854   31.8398   41.1016 H   0  0  0  0  0  0  0  0  0  0  0  0
   56.9429   32.7603   41.1016 H   0  0  0  0  0  0  0  0  0  0  0  0
   57.5899   28.5725   43.3407 H   0  0  0  0  0  0  0  0  0  0  0  0
   59.4080   27.1871   45.7465 H   0  0  0  0  0  0  0  0  0  0  0  0
  1  2  2  0
  2  3  1  0
  3  4  1  0
  4  5  2  0
  5  6  1  0
  6  7  2  0
  7  8  1  0
  8  9  2  0
  3 10  2  0
 10 11  1  0
 11 12  1  0
 12 13  1  0
 11 14  2  0
 14 15  1  0
 15 16  2  3
 16 17  1  0
 17 18  1  0
 18 19  1  0
 19 20  2  0
 19 21  1  0
 21 22  1  0
 22 23  1  0
 15  2  1  0
 22 17  2  0
  9  4  1  0
  1 24  1  0
  1 25  1  0
  5 26  1  0
  6 27  1  0
  7 28  1  0
  8 29  1  0
  9 30  1  0
 10 31  1  0
 12 32  1  0
 12 33  1  0
 13 34  1  0
 13 35  1  0
 13 36  1  0
 14 37  1  0
 16 38  1  0
M  CHG  4   9   1  18  -1  21  -1  23  -1
M  END
>  <UniqueID>  (70) 
68

>  <SMILES>  (70) 
C=c1c(-c2cccc[nH+]2)cc(CC)cc1=Cc1[n-]c(=O)[n-]c1[O-]

>  <Energy>  (70) 
95.84161859488805

>  <Genealogy>  (70) 
C=c1c(-c2cccc[nH+]2)cc(CC)cc1=Cc1[n-]c(=O)[n-]c1[O-] (protonated)
C=c1c(-c2cccc[nH+]2)cc(CC)cc1=Cc1[n-]c(=O)[n-]c1[O-] (3D coordinates assigned)
C=c1c(-c2cccc[nH+]2)cc(CC)cc1=Cc1[n-]c(=O)[n-]c1[O-] (optimized conformer: 95.84161859488805 kcal/mol)

>  <smiles>  (70) 
C=c1c(-c2ccccn2)cc(CC)cc1=Cc1[nH]c(=O)[nH]c1O

>  <score_type>  (70) 
oracle

>  <origin>  (70) 
adg

>  <m_score__min__energy>  (70) 
-14.49

>  <m_primary>  (70) 
energy

$$$$
70:0
     RDKit          3D

 68 71  0  0  0  0  0  0  0  0999 V2000
   59.2170   33.9900   55.0340 C   0  0  0  0  0  0  0  0  0  0  0  0
   58.9360   34.7780   53.7850 C   0  0  0  0  0  0  0  0  0  0  0  0
   58.6330   35.9590   53.8960 O   0  0  0  0  0  0  0  0  0  0  0  0
   59.0130   34.1650   52.4700 N   0  0  0  0  0  0  0  0  0  0  0  0
   60.4050   33.7170   52.1790 C   0  0  0  0  0  0  0  0  0  0  0  0
   60.5870   32.1950   52.2700 C   0  0  0  0  0  0  0  0  0  0  0  0
   59.6130   31.5190   51.4010 N   0  0  0  0  0  0  0  0  0  0  0  0
   59.9170   30.2340   50.8110 C   0  0  0  0  0  0  0  0  0  0  0  0
   60.6560   29.2750   51.5300 C   0  0  0  0  0  0  0  0  0  0  0  0
   60.9700   28.0440   50.9510 C   0  0  0  0  0  0  0  0  0  0  0  0
   60.5590   27.7540   49.6490 C   0  0  0  0  0  0  0  0  0  0  0  0
   59.8300   28.6980   48.9120 C   0  0  0  0  0  0  0  0  0  0  0  0
   59.4220   28.3900   47.4970 C   0  0  0  0  0  0  0  0  0  0  0  0
   59.8160   29.4480   46.6240 O   0  0  0  0  0  0  0  0  0  0  0  0
   58.9590   30.1750   45.7820 C   0  0  0  0  0  0  0  0  0  0  0  0
   58.1740   29.5520   44.7930 C   0  0  0  0  0  0  0  0  0  0  0  0
   57.3200   30.3050   43.9710 C   0  0  0  0  0  0  0  0  0  0  0  0
   56.4250   29.6190   42.9670 C   0  0  0  0  0  0  0  0  0  0  0  0
   56.2640   30.4410   41.8680 F   0  0  0  0  0  0  0  0  0  0  0  0
   56.9790   28.4190   42.5560 F   0  0  0  0  0  0  0  0  0  0  0  0
   55.1820   29.3550   43.5190 F   0  0  0  0  0  0  0  0  0  0  0  0
   57.2370   31.6930   44.1640 C   0  0  0  0  0  0  0  0  0  0  0  0
   58.0190   32.3200   45.1350 C   0  0  0  0  0  0  0  0  0  0  0  0
   58.8810   31.5700   45.9470 C   0  0  0  0  0  0  0  0  0  0  0  0
   59.6570   32.2250   46.9630 N   0  0  0  0  0  0  0  0  0  0  0  0
   61.0980   31.9550   47.0540 C   0  0  0  0  0  0  0  0  0  0  0  0
   61.6690   32.4350   48.3900 C   0  0  0  0  0  0  0  0  0  0  0  0
   61.3150   33.9060   48.6380 C   0  0  0  0  0  0  0  0  0  0  0  0
   59.8000   34.2400   48.4320 C   0  0  2  0  0  0  0  0  0  0  0  0
   59.6620   35.3370   47.3550 C   0  0  0  0  0  0  0  0  0  0  0  0
   59.2940   34.7430   49.6490 O   0  0  0  0  0  0  0  0  0  0  0  0
   58.9770   32.9860   48.0200 C   0  0  0  0  0  0  0  0  0  0  0  0
   59.5030   29.9300   49.5000 C   0  0  0  0  0  0  0  0  0  0  0  0
   58.2910   32.1300   51.2110 C   0  0  0  0  0  0  0  0  0  0  0  0
   57.9860   33.1000   52.3580 C   0  0  0  0  0  0  0  0  0  0  0  0
   58.9961   34.6094   55.9158 H   0  0  0  0  0  0  0  0  0  0  0  0
   58.5843   33.0903   55.0501 H   0  0  0  0  0  0  0  0  0  0  0  0
   60.2762   33.6937   55.0501 H   0  0  0  0  0  0  0  0  0  0  0  0
   58.7700   34.8900   51.7510 H   0  0  0  0  0  0  0  0  0  0  0  0
   60.6696   34.0396   51.1612 H   0  0  0  0  0  0  0  0  0  0  0  0
   61.0575   34.1684   52.9409 H   0  0  0  0  0  0  0  0  0  0  0  0
   61.6057   31.9302   51.9503 H   0  0  0  0  0  0  0  0  0  0  0  0
   60.4269   31.8739   53.3098 H   0  0  0  0  0  0  0  0  0  0  0  0
   60.9882   29.4972   52.5548 H   0  0  0  0  0  0  0  0  0  0  0  0
   61.5435   27.2998   51.5231 H   0  0  0  0  0  0  0  0  0  0  0  0
   60.8079   26.7814   49.1995 H   0  0  0  0  0  0  0  0  0  0  0  0
   59.9056   27.4558   47.1756 H   0  0  0  0  0  0  0  0  0  0  0  0
   58.3280   28.2827   47.4565 H   0  0  0  0  0  0  0  0  0  0  0  0
   58.2304   28.4612   44.6625 H   0  0  0  0  0  0  0  0  0  0  0  0
   56.5509   32.2904   43.5457 H   0  0  0  0  0  0  0  0  0  0  0  0
   57.9585   33.4107   45.2641 H   0  0  0  0  0  0  0  0  0  0  0  0
   61.2665   30.8720   46.9604 H   0  0  0  0  0  0  0  0  0  0  0  0
   61.6055   32.4986   46.2435 H   0  0  0  0  0  0  0  0  0  0  0  0
   61.2507   31.8219   49.2018 H   0  0  0  0  0  0  0  0  0  0  0  0
   62.7642   32.3367   48.3603 H   0  0  0  0  0  0  0  0  0  0  0  0
   61.5868   34.1572   49.6739 H   0  0  0  0  0  0  0  0  0  0  0  0
   61.8745   34.4969   47.8979 H   0  0  0  0  0  0  0  0  0  0  0  0
   59.5389   36.3156   47.8420 H   0  0  0  0  0  0  0  0  0  0  0  0
   60.5655   35.3507   46.7277 H   0  0  0  0  0  0  0  0  0  0  0  0
   58.7833   35.1265   46.7277 H   0  0  0  0  0  0  0  0  0  0  0  0
   59.1080   35.7110   49.5320 H   0  0  0  0  0  0  0  0  0  0  0  0
   58.8456   32.3387   48.8996 H   0  0  0  0  0  0  0  0  0  0  0  0
   58.0028   33.3212   47.6346 H   0  0  0  0  0  0  0  0  0  0  0  0
   58.9168   30.6661   48.9303 H   0  0  0  0  0  0  0  0  0  0  0  0
   58.2781   32.6789   50.2578 H   0  0  0  0  0  0  0  0  0  0  0  0
   57.5280   31.3377   51.1986 H   0  0  0  0  0  0  0  0  0  0  0  0
   57.0069   33.5677   52.1773 H   0  0  0  0  0  0  0  0  0  0  0  0
   57.9848   32.5275   53.2973 H   0  0  0  0  0  0  0  0  0  0  0  0
  1  2  1  0
  2  3  2  0
  2  4  1  0
  4  5  1  0
  5  6  1  0
  6  7  1  0
  7  8  1  0
  8  9  2  0
  9 10  1  0
 10 11  2  0
 11 12  1  0
 12 13  1  0
 13 14  1  0
 14 15  1  0
 15 16  2  0
 16 17  1  0
 17 18  1  0
 18 19  1  0
 18 20  1  0
 18 21  1  0
 17 22  2  0
 22 23  1  0
 23 24  2  0
 24 25  1  0
 25 26  1  0
 26 27  1  0
 27 28  1  0
 28 29  1  0
 29 30  1  0
 29 31  1  1
 29 32  1  0
 12 33  2  0
  7 34  1  0
 34 35  1  0
 35  4  1  0
 33  8  1  0
 24 15  1  0
 32 25  1  0
  1 36  1  0
  1 37  1  0
  1 38  1  0
  4 39  1  0
  5 40  1  0
  5 41  1  0
  6 42  1  0
  6 43  1  0
  9 44  1  0
 10 45  1  0
 11 46  1  0
 13 47  1  0
 13 48  1  0
 16 49  1  0
 22 50  1  0
 23 51  1  0
 26 52  1  0
 26 53  1  0
 27 54  1  0
 27 55  1  0
 28 56  1  0
 28 57  1  0
 30 58  1  0
 30 59  1  0
 30 60  1  0
 31 61  1  0
 32 62  1  0
 32 63  1  0
 33 64  1  0
 34 65  1  0
 34 66  1  0
 35 67  1  0
 35 68  1  0
M  CHG  1   4   1
M  END
>  <UniqueID>  (71) 
69

>  <SMILES>  (71) 
CC(=O)[NH+]1CCN(c2cccc(COc3cc(C(F)(F)F)ccc3N3CCC[C@](C)(O)C3)c2)CC1

>  <Energy>  (71) 
85.31185777416023

>  <Genealogy>  (71) 
CC(=O)[NH+]1CCN(c2cccc(COc3cc(C(F)(F)F)ccc3N3CCCC(C)(O)C3)c2)CC1 (protonated)
CC(=O)[NH+]1CCN(c2cccc(COc3cc(C(F)(F)F)ccc3N3CCC[C@](C)(O)C3)c2)CC1 (chirality)
CC(=O)[NH+]1CCN(c2cccc(COc3cc(C(F)(F)F)ccc3N3CCC[C@](C)(O)C3)c2)CC1 (3D coordinates assigned)
CC(=O)[NH+]1CCN(c2cccc(COc3cc(C(F)(F)F)ccc3N3CCC[C@](C)(O)C3)c2)CC1 (nonaromatic ring conformer: 85.31185777416023 kcal/mol)

>  <smiles>  (71) 
CC(=O)N1CCN(c2cccc(COc3cc(C(F)(F)F)ccc3N3CCCC(C)(O)C3)c2)CC1

>  <score_type>  (71) 
oracle

>  <origin>  (71) 
adg

>  <m_score__min__energy>  (71) 
-7.7699999999999996

>  <m_primary>  (71) 
energy

$$$$
71:0
     RDKit          3D

 48 49  0  0  0  0  0  0  0  0999 V2000
   58.8340   26.1530   47.1340 C   0  0  0  0  0  0  0  0  0  0  0  0
   57.1030   25.8310   46.6750 S   0  0  0  0  0  0  0  0  0  0  0  0
   56.9390   27.3350   45.6480 C   0  0  0  0  0  0  0  0  0  0  0  0
   58.2980   28.0190   45.4260 C   0  0  0  0  0  0  0  0  0  0  0  0
   58.3790   29.4430   46.0150 C   0  0  1  0  0  0  0  0  0  0  0  0
   59.8000   29.7950   46.1970 N   0  0  0  0  0  0  0  0  0  0  0  0
   60.2640   29.7750   47.8740 S   0  0  0  0  0  0  0  0  0  0  0  0
   60.7250   28.3900   48.2370 O   0  0  0  0  0  0  0  0  0  0  0  0
   59.0770   30.1140   48.7320 O   0  0  0  0  0  0  0  0  0  0  0  0
   61.5730   30.9120   48.1840 C   0  0  0  0  0  0  0  0  0  0  0  0
   62.1220   31.6520   47.1270 C   0  0  0  0  0  0  0  0  0  0  0  0
   63.1630   32.5530   47.3670 C   0  0  0  0  0  0  0  0  0  0  0  0
   63.6510   32.7290   48.6640 C   0  0  0  0  0  0  0  0  0  0  0  0
   63.1050   31.9970   49.7230 C   0  0  0  0  0  0  0  0  0  0  0  0
   62.0710   31.0860   49.4840 C   0  0  0  0  0  0  0  0  0  0  0  0
   57.6750   30.4410   45.1280 C   0  0  0  0  0  0  0  0  0  0  0  0
   56.4450   30.3010   44.8830 O   0  0  0  0  0  0  0  0  0  0  0  0
   58.4100   31.5140   44.5270 N   0  0  0  0  0  0  0  0  0  0  0  0
   57.7740   32.6980   43.9590 C   0  0  0  0  0  0  0  0  0  0  0  0
   57.5940   33.7650   45.0050 C   0  0  0  0  0  0  0  0  0  0  0  0
   56.6940   34.6310   44.8360 O   0  0  0  0  0  0  0  0  0  0  0  0
   58.4050   33.7920   46.2500 C   0  0  0  0  0  0  0  0  0  0  0  0
   59.5440   34.6160   46.3270 C   0  0  0  0  0  0  0  0  0  0  0  0
   60.3210   34.6500   47.4890 C   0  0  0  0  0  0  0  0  0  0  0  0
   59.9670   33.8710   48.5910 C   0  0  0  0  0  0  0  0  0  0  0  0
   60.7200   33.9060   49.7180 F   0  0  0  0  0  0  0  0  0  0  0  0
   58.8290   33.0610   48.5360 C   0  0  0  0  0  0  0  0  0  0  0  0
   58.0500   33.0230   47.3760 C   0  0  0  0  0  0  0  0  0  0  0  0
   58.9256   26.1700   48.2300 H   0  0  0  0  0  0  0  0  0  0  0  0
   59.4757   25.3588   46.7247 H   0  0  0  0  0  0  0  0  0  0  0  0
   59.1472   27.1248   46.7247 H   0  0  0  0  0  0  0  0  0  0  0  0
   56.5158   27.0563   44.6717 H   0  0  0  0  0  0  0  0  0  0  0  0
   56.2800   28.0412   46.1744 H   0  0  0  0  0  0  0  0  0  0  0  0
   59.0780   27.4032   45.8976 H   0  0  0  0  0  0  0  0  0  0  0  0
   58.4373   28.1123   44.3388 H   0  0  0  0  0  0  0  0  0  0  0  0
   57.8676   29.4695   46.9885 H   0  0  0  0  0  0  0  0  0  0  0  0
   60.0100   30.7440   45.8100 H   0  0  0  0  0  0  0  0  0  0  0  0
   61.7324   31.5230   46.1064 H   0  0  0  0  0  0  0  0  0  0  0  0
   63.5985   33.1241   46.5338 H   0  0  0  0  0  0  0  0  0  0  0  0
   64.4654   33.4440   48.8524 H   0  0  0  0  0  0  0  0  0  0  0  0
   63.4888   32.1377   50.7442 H   0  0  0  0  0  0  0  0  0  0  0  0
   61.6476   30.5050   50.3166 H   0  0  0  0  0  0  0  0  0  0  0  0
   58.4045   33.0914   43.1480 H   0  0  0  0  0  0  0  0  0  0  0  0
   56.7840   32.4140   43.5727 H   0  0  0  0  0  0  0  0  0  0  0  0
   59.8252   35.2388   45.4650 H   0  0  0  0  0  0  0  0  0  0  0  0
   61.2130   35.2921   47.5344 H   0  0  0  0  0  0  0  0  0  0  0  0
   58.5460   32.4523   49.4074 H   0  0  0  0  0  0  0  0  0  0  0  0
   57.1527   32.3877   47.3419 H   0  0  0  0  0  0  0  0  0  0  0  0
  1  2  1  0
  2  3  1  0
  3  4  1  0
  4  5  1  0
  5  6  1  0
  6  7  1  0
  7  8  2  0
  7  9  2  0
  7 10  1  0
 10 11  2  0
 11 12  1  0
 12 13  2  0
 13 14  1  0
 14 15  2  0
  5 16  1  0
 16 17  2  0
 16 18  1  0
 18 19  1  0
 19 20  1  0
 20 21  2  0
 20 22  1  0
 22 23  2  0
 23 24  1  0
 24 25  2  0
 25 26  1  0
 25 27  1  0
 27 28  2  0
 15 10  1  0
 28 22  1  0
  1 29  1  0
  1 30  1  0
  1 31  1  0
  3 32  1  0
  3 33  1  0
  4 34  1  0
  4 35  1  0
  5 36  1  1
  6 37  1  0
 11 38  1  0
 12 39  1  0
 13 40  1  0
 14 41  1  0
 15 42  1  0
 19 43  1  0
 19 44  1  0
 23 45  1  0
 24 46  1  0
 27 47  1  0
 28 48  1  0
M  CHG  1  18  -1
M  END
>  <UniqueID>  (72) 
70

>  <SMILES>  (72) 
CSCC[C@@H](NS(=O)(=O)c1ccccc1)C(=O)[N-]CC(=O)c1ccc(F)cc1

>  <Energy>  (72) 
39.036983587690635

>  <Genealogy>  (72) 
CSCCC(NS(=O)(=O)c1ccccc1)C(=O)[N-]CC(=O)c1ccc(F)cc1 (protonated)
CSCC[C@@H](NS(=O)(=O)c1ccccc1)C(=O)[N-]CC(=O)c1ccc(F)cc1 (chirality)
CSCC[C@@H](NS(=O)(=O)c1ccccc1)C(=O)[N-]CC(=O)c1ccc(F)cc1 (3D coordinates assigned)
CSCC[C@@H](NS(=O)(=O)c1ccccc1)C(=O)[N-]CC(=O)c1ccc(F)cc1 (optimized conformer: 39.036983587690635 kcal/mol)

>  <smiles>  (72) 
CSCCC(NS(=O)(=O)c1ccccc1)C(=O)NCC(=O)c1ccc(F)cc1

>  <score_type>  (72) 
oracle

>  <origin>  (72) 
adg

>  <m_score__min__energy>  (72) 
-10.609999999999999

>  <m_primary>  (72) 
energy

$$$$
72:0
     RDKit          3D

 41 44  0  0  0  0  0  0  0  0999 V2000
   56.7388   33.8205   46.2211 H   0  0  0  0  0  0  0  0  0  0  0  0
   57.7090   33.4700   46.6030 C   0  0  0  0  0  0  0  0  0  0  0  0
   58.5110   34.3480   47.1370 N   0  0  0  0  0  0  0  0  0  0  0  0
   59.8950   34.1590   47.3320 N   0  0  0  0  0  0  0  0  0  0  0  0
   60.7150   34.0560   46.2270 C   0  0  0  0  0  0  0  0  0  0  0  0
   60.2320   34.1570   45.0680 O   0  0  0  0  0  0  0  0  0  0  0  0
   62.0590   33.8560   46.3740 N   0  0  0  0  0  0  0  0  0  0  0  0
   62.5640   33.7460   47.6230 C   0  0  0  0  0  0  0  0  0  0  0  0
   63.8620   33.5360   48.0240 C   0  0  0  0  0  0  0  0  0  0  0  0
   64.7554   33.4337   47.3904 H   0  0  0  0  0  0  0  0  0  0  0  0
   63.7900   33.4820   49.4160 C   0  0  0  0  0  0  0  0  0  0  0  0
   64.6532   33.3256   50.0797 H   0  0  0  0  0  0  0  0  0  0  0  0
   62.5140   33.6480   49.8410 N   0  0  0  0  0  0  0  0  0  0  0  0
   62.1770   33.6490   50.8300 H   0  0  0  0  0  0  0  0  0  0  0  0
   61.7820   33.8100   48.7270 C   0  0  0  0  0  0  0  0  0  0  0  0
   60.4130   34.0030   48.5980 C   0  0  0  0  0  0  0  0  0  0  0  0
   59.6700   34.0190   49.6160 O   0  0  0  0  0  0  0  0  0  0  0  0
   58.0260   32.0300   46.4800 C   0  0  0  0  0  0  0  0  0  0  0  0
   57.6780   31.2940   45.3350 C   0  0  0  0  0  0  0  0  0  0  0  0
   57.1523   31.7893   44.5054 H   0  0  0  0  0  0  0  0  0  0  0  0
   57.9960   29.9360   45.2440 C   0  0  0  0  0  0  0  0  0  0  0  0
   57.7140   29.3676   44.3455 H   0  0  0  0  0  0  0  0  0  0  0  0
   58.6710   29.2950   46.2890 C   0  0  0  0  0  0  0  0  0  0  0  0
   58.9780   27.9330   46.1580 O   0  0  0  0  0  0  0  0  0  0  0  0
   58.0480   26.9080   45.9330 C   0  0  0  0  0  0  0  0  0  0  0  0
   58.5120   25.6590   45.5150 C   0  0  0  0  0  0  0  0  0  0  0  0
   59.5914   25.4952   45.3807 H   0  0  0  0  0  0  0  0  0  0  0  0
   57.6170   24.6160   45.2660 C   0  0  0  0  0  0  0  0  0  0  0  0
   57.9995   23.6355   44.9460 H   0  0  0  0  0  0  0  0  0  0  0  0
   56.2320   24.8060   45.4200 C   0  0  0  0  0  0  0  0  0  0  0  0
   55.3080   23.6750   45.1510 C   0  0  0  0  0  0  0  0  0  0  0  0
   54.4620   23.3090   46.0090 O   0  0  0  0  0  0  0  0  0  0  0  0
   55.3640   22.9980   43.9380 O   0  0  0  0  0  0  0  0  0  0  0  0
   55.7610   26.0770   45.8220 C   0  0  0  0  0  0  0  0  0  0  0  0
   54.4010   26.3270   45.9750 O   0  0  0  0  0  0  0  0  0  0  0  0
   56.6660   27.1160   46.0700 C   0  0  0  0  0  0  0  0  0  0  0  0
   56.2911   28.1042   46.3749 H   0  0  0  0  0  0  0  0  0  0  0  0
   59.0650   30.0410   47.4130 C   0  0  0  0  0  0  0  0  0  0  0  0
   59.6259   29.5542   48.2244 H   0  0  0  0  0  0  0  0  0  0  0  0
   58.7470   31.3990   47.5040 C   0  0  0  0  0  0  0  0  0  0  0  0
   59.0644   31.9766   48.3847 H   0  0  0  0  0  0  0  0  0  0  0  0
  1  2  1  0
  2  3  2  0
  3  4  1  0
  4  5  1  0
  5  6  2  0
  5  7  1  0
  7  8  1  0
  8  9  1  0
  9 10  1  0
  9 11  2  0
 11 12  1  0
 11 13  1  0
 13 14  1  0
 13 15  1  0
 15 16  1  0
 16 17  2  0
  2 18  1  0
 18 19  2  0
 19 20  1  0
 19 21  1  0
 21 22  1  0
 21 23  2  0
 23 24  1  0
 24 25  1  0
 25 26  2  0
 26 27  1  0
 26 28  1  0
 28 29  1  0
 28 30  2  0
 30 31  1  0
 31 32  2  0
 31 33  1  0
 30 34  1  0
 34 35  1  0
 34 36  2  0
 36 37  1  0
 23 38  1  0
 38 39  1  0
 38 40  2  0
 40 41  1  0
 16  4  1  0
 40 18  1  0
 15  8  2  0
 36 25  1  0
M  CHG  3   7  -1  33  -1  35  -1
M  END
>  <UniqueID>  (73) 
71

>  <SMILES>  (73) 
O=C([O-])c1ccc(Oc2ccc(/C=N\n3c(=O)[n-]c4cc[nH]c4c3=O)cc2)cc1[O-]

>  <Energy>  (73) 
104.15012307804489

>  <Genealogy>  (73) 
O=C([O-])c1ccc(Oc2ccc(C=Nn3c(=O)[n-]c4cc[nH]c4c3=O)cc2)cc1[O-] (protonated)
O=C([O-])c1ccc(Oc2ccc(/C=N\n3c(=O)[n-]c4cc[nH]c4c3=O)cc2)cc1[O-] (cis-trans isomerization)
O=C([O-])c1ccc(Oc2ccc(/C=N\n3c(=O)[n-]c4cc[nH]c4c3=O)cc2)cc1[O-] (3D coordinates assigned)
O=C([O-])c1ccc(Oc2ccc(/C=N\n3c(=O)[n-]c4cc[nH]c4c3=O)cc2)cc1[O-] (optimized conformer: 104.15012307804489 kcal/mol)

>  <smiles>  (73) 
O=C([O-])c1ccc(Oc2ccc(C=Nn3c(=O)[nH]c4cc[nH]c4c3=O)cc2)cc1O

>  <score_type>  (73) 
oracle

>  <origin>  (73) 
adg

>  <m_score__min__energy>  (73) 
-15.48

>  <m_primary>  (73) 
energy

$$$$
73:0
     RDKit          3D

 47 49  0  0  0  0  0  0  0  0999 V2000
   58.7530   27.6160   45.3590 O   0  0  0  0  0  0  0  0  0  0  0  0
   57.5520   27.3890   45.6590 C   0  0  0  0  0  0  0  0  0  0  0  0
   57.2500   26.2590   46.4850 N   0  0  0  0  0  0  0  0  0  0  0  0
   55.9340   25.1700   46.1990 S   0  0  0  0  0  0  0  0  0  0  0  0
   54.7370   25.9570   45.7430 O   0  0  0  0  0  0  0  0  0  0  0  0
   55.5860   24.4740   47.4860 O   0  0  0  0  0  0  0  0  0  0  0  0
   56.3870   23.9550   45.0050 C   0  0  0  0  0  0  0  0  0  0  0  0
   55.6230   23.7850   43.8380 C   0  0  0  0  0  0  0  0  0  0  0  0
   55.9800   22.8120   42.9010 C   0  0  0  0  0  0  0  0  0  0  0  0
   57.0990   22.0050   43.1200 C   0  0  0  0  0  0  0  0  0  0  0  0
   57.8650   22.1690   44.2770 C   0  0  0  0  0  0  0  0  0  0  0  0
   57.5110   23.1400   45.2210 C   0  0  0  0  0  0  0  0  0  0  0  0
   58.2600   23.2820   46.3430 F   0  0  0  0  0  0  0  0  0  0  0  0
   56.5060   28.2200   45.1300 N   0  0  0  0  0  0  0  0  0  0  0  0
   56.7300   29.5150   44.5590 C   0  0  0  0  0  0  0  0  0  0  0  0
   56.7140   29.8340   43.2140 C   0  0  0  0  0  0  0  0  0  0  0  0
   57.0020   31.1830   43.1530 C   0  0  0  0  0  0  0  0  0  0  0  0
   57.1710   31.5940   44.4650 C   0  0  0  0  0  0  0  0  0  0  0  0
   57.4670   32.9640   44.9070 C   0  0  0  0  0  0  0  0  0  0  0  0
   56.6460   33.5670   45.6510 O   0  0  0  0  0  0  0  0  0  0  0  0
   58.6990   33.5960   44.5270 N   0  0  0  0  0  0  0  0  0  0  0  0
   59.2110   34.7880   45.2090 C   0  0  0  0  0  0  0  0  0  0  0  0
   59.1030   34.6360   46.7300 C   0  0  0  0  0  0  0  0  0  0  0  0
   60.4020   34.1630   47.3340 C   0  0  0  0  0  0  0  0  0  0  0  0
   61.4730   33.7900   46.5060 C   0  0  0  0  0  0  0  0  0  0  0  0
   62.7080   33.4390   47.0650 C   0  0  0  0  0  0  0  0  0  0  0  0
   62.8810   33.4620   48.4530 C   0  0  0  0  0  0  0  0  0  0  0  0
   64.4410   33.0630   49.1510 Cl  0  0  0  0  0  0  0  0  0  0  0  0
   61.8170   33.8260   49.2840 C   0  0  0  0  0  0  0  0  0  0  0  0
   60.5850   34.1790   48.7300 C   0  0  0  0  0  0  0  0  0  0  0  0
   57.0100   30.5770   45.2790 O   0  0  0  0  0  0  0  0  0  0  0  0
   54.7418   24.4194   43.6617 H   0  0  0  0  0  0  0  0  0  0  0  0
   55.3788   22.6812   41.9892 H   0  0  0  0  0  0  0  0  0  0  0  0
   57.3774   21.2395   42.3807 H   0  0  0  0  0  0  0  0  0  0  0  0
   58.7473   21.5343   44.4462 H   0  0  0  0  0  0  0  0  0  0  0  0
   55.5460   27.8270   45.0450 H   0  0  0  0  0  0  0  0  0  0  0  0
   56.5141   29.1565   42.3708 H   0  0  0  0  0  0  0  0  0  0  0  0
   57.0810   31.8038   42.2484 H   0  0  0  0  0  0  0  0  0  0  0  0
   59.3470   33.0940   43.8780 H   0  0  0  0  0  0  0  0  0  0  0  0
   60.2664   34.9340   44.9356 H   0  0  0  0  0  0  0  0  0  0  0  0
   58.6104   35.6558   44.8988 H   0  0  0  0  0  0  0  0  0  0  0  0
   58.8391   35.6098   47.1683 H   0  0  0  0  0  0  0  0  0  0  0  0
   58.3289   33.8851   46.9468 H   0  0  0  0  0  0  0  0  0  0  0  0
   61.3413   33.7735   45.4140 H   0  0  0  0  0  0  0  0  0  0  0  0
   63.5430   33.1449   46.4120 H   0  0  0  0  0  0  0  0  0  0  0  0
   61.9508   33.8343   50.3758 H   0  0  0  0  0  0  0  0  0  0  0  0
   59.7530   34.4711   49.3876 H   0  0  0  0  0  0  0  0  0  0  0  0
  1  2  2  0
  2  3  1  0
  3  4  1  0
  4  5  2  0
  4  6  2  0
  4  7  1  0
  7  8  2  0
  8  9  1  0
  9 10  2  0
 10 11  1  0
 11 12  2  0
 12 13  1  0
  2 14  1  0
 14 15  1  0
 15 16  2  0
 16 17  1  0
 17 18  2  0
 18 19  1  0
 19 20  2  0
 19 21  1  0
 21 22  1  0
 22 23  1  0
 23 24  1  0
 24 25  2  0
 25 26  1  0
 26 27  2  0
 27 28  1  0
 27 29  1  0
 29 30  2  0
 18 31  1  0
 12  7  1  0
 31 15  1  0
 30 24  1  0
  8 32  1  0
  9 33  1  0
 10 34  1  0
 11 35  1  0
 14 36  1  0
 16 37  1  0
 17 38  1  0
 21 39  1  0
 22 40  1  0
 22 41  1  0
 23 42  1  0
 23 43  1  0
 25 44  1  0
 26 45  1  0
 29 46  1  0
 30 47  1  0
M  CHG  1   3  -1
M  END
>  <UniqueID>  (74) 
72

>  <SMILES>  (74) 
O=C([N-]S(=O)(=O)c1ccccc1F)Nc1ccc(C(=O)NCCc2ccc(Cl)cc2)o1

>  <Energy>  (74) 
74.57589499629078

>  <Genealogy>  (74) 
O=C([N-]S(=O)(=O)c1ccccc1F)Nc1ccc(C(=O)NCCc2ccc(Cl)cc2)o1 (protonated)
O=C([N-]S(=O)(=O)c1ccccc1F)Nc1ccc(C(=O)NCCc2ccc(Cl)cc2)o1 (3D coordinates assigned)
O=C([N-]S(=O)(=O)c1ccccc1F)Nc1ccc(C(=O)NCCc2ccc(Cl)cc2)o1 (optimized conformer: 74.57589499629078 kcal/mol)

>  <smiles>  (74) 
O=C(Nc1ccc(C(=O)NCCc2ccc(Cl)cc2)o1)NS(=O)(=O)c1ccccc1F

>  <score_type>  (74) 
oracle

>  <origin>  (74) 
adg

>  <m_score__min__energy>  (74) 
-12.710000000000001

>  <m_primary>  (74) 
energy

$$$$
74:0
     RDKit          3D

 66 69  0  0  0  0  0  0  0  0999 V2000
   59.6390   35.6890   45.9110 C   0  0  0  0  0  0  0  0  0  0  0  0
   59.8960   34.2910   45.9900 O   0  0  0  0  0  0  0  0  0  0  0  0
   59.0740   33.3020   45.4300 C   0  0  0  0  0  0  0  0  0  0  0  0
   58.7670   32.1760   46.2020 C   0  0  0  0  0  0  0  0  0  0  0  0
   57.9540   31.1620   45.6880 C   0  0  0  0  0  0  0  0  0  0  0  0
   57.4350   31.2660   44.3910 C   0  0  0  0  0  0  0  0  0  0  0  0
   56.4300   29.9670   43.7520 S   0  0  0  0  0  0  0  0  0  0  0  0
   56.1170   30.1950   42.2990 O   0  0  0  0  0  0  0  0  0  0  0  0
   55.1440   29.9290   44.5260 O   0  0  0  0  0  0  0  0  0  0  0  0
   57.2540   28.4500   43.9280 N   0  0  0  0  0  0  0  0  0  0  0  0
   58.1040   28.1320   45.0430 C   0  0  0  0  0  0  0  0  0  0  0  0
   59.4750   28.4170   44.9650 C   0  0  0  0  0  0  0  0  0  0  0  0
   60.3290   28.1050   46.0270 C   0  0  0  0  0  0  0  0  0  0  0  0
   59.8220   27.5190   47.1980 C   0  0  0  0  0  0  0  0  0  0  0  0
   60.7450   27.1660   48.3500 C   0  0  0  0  0  0  0  0  0  0  0  0
   60.9450   28.2680   49.3170 N   0  0  0  0  0  0  0  0  0  0  0  0
   60.2720   29.5390   48.9590 C   0  0  0  0  0  0  0  0  0  0  0  0
   59.1090   29.8650   49.9100 C   0  0  0  0  0  0  0  0  0  0  0  0
   59.5470   29.9490   51.3280 N   0  0  0  0  0  0  0  0  0  0  0  0
   59.7770   31.3490   51.7430 C   0  0  0  0  0  0  0  0  0  0  0  0
   60.2310   32.1880   50.5750 C   0  0  0  0  0  0  0  0  0  0  0  0
   59.3590   33.1280   50.0090 C   0  0  0  0  0  0  0  0  0  0  0  0
   59.7810   33.9270   48.9460 C   0  0  0  0  0  0  0  0  0  0  0  0
   61.0790   33.8020   48.4440 C   0  0  0  0  0  0  0  0  0  0  0  0
   61.9770   32.8740   49.0040 C   0  0  0  0  0  0  0  0  0  0  0  0
   63.3590   32.7600   48.4640 C   0  0  0  0  0  0  0  0  0  0  0  0
   64.5540   32.6470   49.3630 C   0  0  0  0  0  0  0  0  0  0  0  0
   63.5450   32.7530   47.2170 O   0  0  0  0  0  0  0  0  0  0  0  0
   61.5390   32.0690   50.0750 C   0  0  0  0  0  0  0  0  0  0  0  0
   60.7210   29.0920   51.6380 C   0  0  0  0  0  0  0  0  0  0  0  0
   60.7750   27.8600   50.7290 C   0  0  0  0  0  0  0  0  0  0  0  0
   58.4520   27.2240   47.2740 C   0  0  0  0  0  0  0  0  0  0  0  0
   57.5980   27.5380   46.2140 C   0  0  0  0  0  0  0  0  0  0  0  0
   57.7340   32.3910   43.6130 C   0  0  0  0  0  0  0  0  0  0  0  0
   58.5490   33.4050   44.1260 C   0  0  0  0  0  0  0  0  0  0  0  0
   59.5624   36.1057   46.9261 H   0  0  0  0  0  0  0  0  0  0  0  0
   60.4614   36.1832   45.3729 H   0  0  0  0  0  0  0  0  0  0  0  0
   58.6947   35.8584   45.3729 H   0  0  0  0  0  0  0  0  0  0  0  0
   59.1690   32.0882   47.2221 H   0  0  0  0  0  0  0  0  0  0  0  0
   57.7212   30.2804   46.3032 H   0  0  0  0  0  0  0  0  0  0  0  0
   57.0150   27.6990   43.2420 H   0  0  0  0  0  0  0  0  0  0  0  0
   59.8823   28.8906   44.0595 H   0  0  0  0  0  0  0  0  0  0  0  0
   61.4047   28.3199   45.9448 H   0  0  0  0  0  0  0  0  0  0  0  0
   60.3158   26.3074   48.8872 H   0  0  0  0  0  0  0  0  0  0  0  0
   61.7294   26.9416   47.9134 H   0  0  0  0  0  0  0  0  0  0  0  0
   61.0078   30.3554   49.0055 H   0  0  0  0  0  0  0  0  0  0  0  0
   59.8602   29.4304   47.9448 H   0  0  0  0  0  0  0  0  0  0  0  0
   58.6723   30.8311   49.6167 H   0  0  0  0  0  0  0  0  0  0  0  0
   58.3726   29.0515   49.8327 H   0  0  0  0  0  0  0  0  0  0  0  0
   58.8404   31.7648   52.1428 H   0  0  0  0  0  0  0  0  0  0  0  0
   60.5626   31.3632   52.5128 H   0  0  0  0  0  0  0  0  0  0  0  0
   58.3382   33.2362   50.4043 H   0  0  0  0  0  0  0  0  0  0  0  0
   59.0895   34.6579   48.5015 H   0  0  0  0  0  0  0  0  0  0  0  0
   61.4019   34.4343   47.6038 H   0  0  0  0  0  0  0  0  0  0  0  0
   64.2272   32.6779   50.4129 H   0  0  0  0  0  0  0  0  0  0  0  0
   65.0711   31.6960   49.1678 H   0  0  0  0  0  0  0  0  0  0  0  0
   65.2402   33.4843   49.1678 H   0  0  0  0  0  0  0  0  0  0  0  0
   62.2287   31.3395   50.5245 H   0  0  0  0  0  0  0  0  0  0  0  0
   61.6397   29.6803   51.4970 H   0  0  0  0  0  0  0  0  0  0  0  0
   60.6309   28.7481   52.6790 H   0  0  0  0  0  0  0  0  0  0  0  0
   61.6229   27.2261   51.0277 H   0  0  0  0  0  0  0  0  0  0  0  0
   59.8324   27.3018   50.8281 H   0  0  0  0  0  0  0  0  0  0  0  0
   58.0473   26.7415   48.1759 H   0  0  0  0  0  0  0  0  0  0  0  0
   56.5230   27.3195   46.2953 H   0  0  0  0  0  0  0  0  0  0  0  0
   57.3265   32.4775   42.5949 H   0  0  0  0  0  0  0  0  0  0  0  0
   58.7812   34.2861   43.5097 H   0  0  0  0  0  0  0  0  0  0  0  0
  1  2  1  0
  2  3  1  0
  3  4  2  0
  4  5  1  0
  5  6  2  0
  6  7  1  0
  7  8  2  0
  7  9  2  0
  7 10  1  0
 10 11  1  0
 11 12  2  0
 12 13  1  0
 13 14  2  0
 14 15  1  0
 15 16  1  0
 16 17  1  0
 17 18  1  0
 18 19  1  0
 19 20  1  0
 20 21  1  0
 21 22  2  0
 22 23  1  0
 23 24  2  0
 24 25  1  0
 25 26  1  0
 26 27  1  0
 26 28  2  0
 25 29  2  0
 19 30  1  0
 30 31  1  0
 14 32  1  0
 32 33  2  0
  6 34  1  0
 34 35  2  0
 35  3  1  0
 33 11  1  0
 31 16  1  0
 29 21  1  0
  1 36  1  0
  1 37  1  0
  1 38  1  0
  4 39  1  0
  5 40  1  0
 10 41  1  0
 12 42  1  0
 13 43  1  0
 15 44  1  0
 15 45  1  0
 17 46  1  0
 17 47  1  0
 18 48  1  0
 18 49  1  0
 20 50  1  0
 20 51  1  0
 22 52  1  0
 23 53  1  0
 24 54  1  0
 27 55  1  0
 27 56  1  0
 27 57  1  0
 29 58  1  0
 30 59  1  0
 30 60  1  0
 31 61  1  0
 31 62  1  0
 32 63  1  0
 33 64  1  0
 34 65  1  0
 35 66  1  0
M  END
>  <UniqueID>  (75) 
73

>  <SMILES>  (75) 
COc1ccc(S(=O)(=O)Nc2ccc(CN3CCN(Cc4cccc(C(C)=O)c4)CC3)cc2)cc1

>  <Energy>  (75) 
86.78967831399687

>  <Genealogy>  (75) 
COc1ccc(S(=O)(=O)Nc2ccc(CN3CCN(Cc4cccc(C(C)=O)c4)CC3)cc2)cc1 (3D coordinates assigned)
COc1ccc(S(=O)(=O)Nc2ccc(CN3CCN(Cc4cccc(C(C)=O)c4)CC3)cc2)cc1 (nonaromatic ring conformer: 86.78967831399687 kcal/mol)

>  <smiles>  (75) 
COc1ccc(S(=O)(=O)Nc2ccc(CN3CCN(Cc4cccc(C(C)=O)c4)CC3)cc2)cc1

>  <score_type>  (75) 
oracle

>  <origin>  (75) 
adg

>  <m_score__min__energy>  (75) 
-10.779999999999999

>  <m_primary>  (75) 
energy

$$$$
75:0
     RDKit          3D

 57 59  0  0  0  0  0  0  0  0999 V2000
   55.0457   29.5501   55.8721 H   0  0  0  0  0  0  0  0  0  0  0  0
   54.4020   30.0450   55.1300 C   0  0  0  0  0  0  0  0  0  0  0  0
   53.4061   30.4096   55.4218 H   0  0  0  0  0  0  0  0  0  0  0  0
   54.8320   30.2040   53.8680 C   0  0  0  0  0  0  0  0  0  0  0  0
   54.1320   30.8110   52.8140 C   0  0  0  0  0  0  0  0  0  0  0  0
   52.8320   31.1450   52.6920 C   0  0  0  0  0  0  0  0  0  0  0  0
   52.2965   31.4253   53.6111 H   0  0  0  0  0  0  0  0  0  0  0  0
   52.0650   31.1670   51.4310 C   0  0  0  0  0  0  0  0  0  0  0  0
   52.1550   30.2380   50.4600 N   0  0  0  0  0  0  0  0  0  0  0  0
   51.3960   30.7510   49.4660 C   0  0  0  0  0  0  0  0  0  0  0  0
   51.2230   30.1570   48.3690 O   0  0  0  0  0  0  0  0  0  0  0  0
   50.8590   31.9610   49.7300 N   0  0  0  0  0  0  0  0  0  0  0  0
   51.3040   32.2150   50.9730 C   0  0  0  0  0  0  0  0  0  0  0  0
   51.0280   33.3850   51.6690 O   0  0  0  0  0  0  0  0  0  0  0  0
   55.0580   31.0260   51.8090 C   0  0  0  0  0  0  0  0  0  0  0  0
   54.8764   31.5358   50.8513 H   0  0  0  0  0  0  0  0  0  0  0  0
   56.2560   30.4790   52.2350 C   0  0  0  0  0  0  0  0  0  0  0  0
   57.5450   30.5480   51.4960 C   0  0  0  0  0  0  0  0  0  0  0  0
   57.7520   29.7000   50.5860 O   0  0  0  0  0  0  0  0  0  0  0  0
   58.5900   31.5060   51.8030 N   0  0  0  0  0  0  0  0  0  0  0  0
   58.9210   31.2710   52.7690 H   0  0  0  0  0  0  0  0  0  0  0  0
   58.0490   32.8830   51.8220 C   0  0  0  0  0  0  0  0  0  0  0  0
   57.3411   32.9945   50.9875 H   0  0  0  0  0  0  0  0  0  0  0  0
   57.5581   33.0338   52.7948 H   0  0  0  0  0  0  0  0  0  0  0  0
   59.1520   33.9600   51.6830 C   0  0  0  0  0  0  0  0  0  0  0  0
   59.2331   34.2452   50.6237 H   0  0  0  0  0  0  0  0  0  0  0  0
   58.8631   34.8130   52.3145 H   0  0  0  0  0  0  0  0  0  0  0  0
   60.4740   33.4900   52.1480 N   0  0  0  0  0  0  0  0  0  0  0  0
   60.5580   33.3860   53.6250 C   0  0  0  0  0  0  0  0  0  0  0  0
   60.3797   32.3435   53.9274 H   0  0  0  0  0  0  0  0  0  0  0  0
   61.5588   33.7039   53.9527 H   0  0  0  0  0  0  0  0  0  0  0  0
   59.5030   34.2920   54.2770 C   0  0  0  0  0  0  0  0  0  0  0  0
   59.9583   35.2691   54.4962 H   0  0  0  0  0  0  0  0  0  0  0  0
   58.6614   34.3980   53.5767 H   0  0  0  0  0  0  0  0  0  0  0  0
   58.9670   33.6890   55.5820 C   0  0  0  0  0  0  0  0  0  0  0  0
   59.7393   33.7668   56.3614 H   0  0  0  0  0  0  0  0  0  0  0  0
   58.0658   34.2412   55.8868 H   0  0  0  0  0  0  0  0  0  0  0  0
   58.6140   32.2640   55.3850 N   0  0  0  0  0  0  0  0  0  0  0  0
   59.6910   31.3840   55.8710 C   0  0  0  0  0  0  0  0  0  0  0  0
   59.6941   31.3815   56.9710 H   0  0  0  0  0  0  0  0  0  0  0  0
   59.5232   30.3613   55.5024 H   0  0  0  0  0  0  0  0  0  0  0  0
   60.6598   31.7523   55.5024 H   0  0  0  0  0  0  0  0  0  0  0  0
   57.3510   31.9330   56.0680 C   0  0  0  0  0  0  0  0  0  0  0  0
   57.5017   31.9725   57.1569 H   0  0  0  0  0  0  0  0  0  0  0  0
   56.5765   32.6585   55.7785 H   0  0  0  0  0  0  0  0  0  0  0  0
   57.0319   30.9209   55.7785 H   0  0  0  0  0  0  0  0  0  0  0  0
   60.9250   32.2710   51.4240 C   0  0  0  0  0  0  0  0  0  0  0  0
   61.5286   32.5835   50.5591 H   0  0  0  0  0  0  0  0  0  0  0  0
   61.5011   31.6656   52.1392 H   0  0  0  0  0  0  0  0  0  0  0  0
   59.7640   31.3890   50.9160 C   0  0  0  0  0  0  0  0  0  0  0  0
   59.4835   31.7108   49.9022 H   0  0  0  0  0  0  0  0  0  0  0  0
   60.0958   30.3403   50.9068 H   0  0  0  0  0  0  0  0  0  0  0  0
   56.1100   29.9560   53.4770 N   0  0  0  0  0  0  0  0  0  0  0  0
   57.1750   29.3450   54.2850 C   0  0  0  0  0  0  0  0  0  0  0  0
   56.9462   29.4763   55.3529 H   0  0  0  0  0  0  0  0  0  0  0  0
   57.2410   28.2717   54.0534 H   0  0  0  0  0  0  0  0  0  0  0  0
   58.1349   29.8298   54.0534 H   0  0  0  0  0  0  0  0  0  0  0  0
  1  2  1  0
  2  3  1  0
  2  4  2  0
  4  5  1  0
  5  6  2  0
  6  7  1  0
  6  8  1  0
  8  9  1  0
  9 10  1  0
 10 11  2  0
 10 12  1  0
 12 13  1  0
 13 14  1  0
  5 15  1  0
 15 16  1  0
 15 17  2  0
 17 18  1  0
 18 19  2  0
 18 20  1  0
 20 21  1  0
 20 22  1  0
 22 23  1  0
 22 24  1  0
 22 25  1  0
 25 26  1  0
 25 27  1  0
 25 28  1  0
 28 29  1  0
 29 30  1  0
 29 31  1  0
 29 32  1  0
 32 33  1  0
 32 34  1  0
 32 35  1  0
 35 36  1  0
 35 37  1  0
 35 38  1  0
 38 39  1  0
 39 40  1  0
 39 41  1  0
 39 42  1  0
 38 43  1  0
 43 44  1  0
 43 45  1  0
 43 46  1  0
 28 47  1  0
 47 48  1  0
 47 49  1  0
 47 50  1  0
 50 51  1  0
 50 52  1  0
 17 53  1  0
 53 54  1  0
 54 55  1  0
 54 56  1  0
 54 57  1  0
 53  4  1  0
 13  8  2  0
 50 20  1  0
M  CHG  4   9  -1  12  -1  14  -1  20   1
M  END
>  <UniqueID>  (76) 
74

>  <SMILES>  (76) 
C=c1/c(=C\c2[n-]c(=O)[n-]c2[O-])cc(C(=O)[NH+]2CCN(CCCN(C)C)CC2)n1C

>  <Energy>  (76) 
145.74704406891405

>  <Genealogy>  (76) 
C=c1c(=Cc2[n-]c(=O)[n-]c2[O-])cc(C(=O)[NH+]2CCN(CCCN(C)C)CC2)n1C (protonated)
C=c1/c(=C\c2[n-]c(=O)[n-]c2[O-])cc(C(=O)[NH+]2CCN(CCCN(C)C)CC2)n1C (cis-trans isomerization)
C=c1/c(=C\c2[n-]c(=O)[n-]c2[O-])cc(C(=O)[NH+]2CCN(CCCN(C)C)CC2)n1C (3D coordinates assigned)
C=c1/c(=C\c2[n-]c(=O)[n-]c2[O-])cc(C(=O)[NH+]2CCN(CCCN(C)C)CC2)n1C (nonaromatic ring conformer: 145.74704406891405 kcal/mol)

>  <smiles>  (76) 
C=c1c(=Cc2[nH]c(=O)[nH]c2O)cc(C(=O)N2CCN(CCCN(C)C)CC2)n1C

>  <score_type>  (76) 
oracle

>  <origin>  (76) 
adg

>  <m_score__min__energy>  (76) 
-15.69

>  <m_primary>  (76) 
energy

$$$$
76:0
     RDKit          3D

 36 38  0  0  0  0  0  0  0  0999 V2000
   64.7840   32.6770   46.9980 H   0  0  0  0  0  0  0  0  0  0  0  0
   63.9080   33.2040   47.2220 N   0  0  0  0  0  0  0  0  0  0  0  0
   62.8040   32.6090   47.5470 C   0  0  0  0  0  0  0  0  0  0  0  0
   62.7580   31.8610   48.6810 N   0  0  0  0  0  0  0  0  0  0  0  0
   61.6270   31.2170   49.0710 C   0  0  0  0  0  0  0  0  0  0  0  0
   61.6250   30.6240   49.9975 H   0  0  0  0  0  0  0  0  0  0  0  0
   60.4680   31.3060   48.2990 C   0  0  0  0  0  0  0  0  0  0  0  0
   59.5502   30.7888   48.6156 H   0  0  0  0  0  0  0  0  0  0  0  0
   60.4820   32.0600   47.1160 C   0  0  0  0  0  0  0  0  0  0  0  0
   59.2610   32.1590   46.2810 C   0  0  0  0  0  0  0  0  0  0  0  0
   58.7680   33.4370   45.9760 C   0  0  0  0  0  0  0  0  0  0  0  0
   59.2582   34.3256   46.4005 H   0  0  0  0  0  0  0  0  0  0  0  0
   57.6640   33.5910   45.1410 C   0  0  0  0  0  0  0  0  0  0  0  0
   57.2969   34.5989   44.8974 H   0  0  0  0  0  0  0  0  0  0  0  0
   57.0240   32.4730   44.6140 C   0  0  0  0  0  0  0  0  0  0  0  0
   56.1626   32.6057   43.9429 H   0  0  0  0  0  0  0  0  0  0  0  0
   57.4650   31.1780   44.9290 C   0  0  0  0  0  0  0  0  0  0  0  0
   56.7000   30.0320   44.3860 C   0  0  0  0  0  0  0  0  0  0  0  0
   55.5850   29.7340   44.8900 O   0  0  0  0  0  0  0  0  0  0  0  0
   57.2250   29.2280   43.3280 N   0  0  0  0  0  0  0  0  0  0  0  0
   58.2060   29.3520   42.9950 H   0  0  0  0  0  0  0  0  0  0  0  0
   56.6540   28.4520   42.9250 H   0  0  0  0  0  0  0  0  0  0  0  0
   58.6050   31.0110   45.7610 C   0  0  0  0  0  0  0  0  0  0  0  0
   59.1250   29.6540   46.0670 C   0  0  0  0  0  0  0  0  0  0  0  0
   60.1940   29.1200   45.3280 C   0  0  0  0  0  0  0  0  0  0  0  0
   60.6589   29.7155   44.5284 H   0  0  0  0  0  0  0  0  0  0  0  0
   60.6690   27.8350   45.6050 C   0  0  0  0  0  0  0  0  0  0  0  0
   61.5060   27.4212   45.0234 H   0  0  0  0  0  0  0  0  0  0  0  0
   60.0810   27.0750   46.6210 C   0  0  0  0  0  0  0  0  0  0  0  0
   60.4556   26.0637   46.8379 H   0  0  0  0  0  0  0  0  0  0  0  0
   59.0190   27.5990   47.3600 C   0  0  0  0  0  0  0  0  0  0  0  0
   58.5589   27.0006   48.1602 H   0  0  0  0  0  0  0  0  0  0  0  0
   58.5390   28.8830   47.0850 C   0  0  0  0  0  0  0  0  0  0  0  0
   57.6998   29.2910   47.6675 H   0  0  0  0  0  0  0  0  0  0  0  0
   61.6590   32.7280   46.7450 C   0  0  0  0  0  0  0  0  0  0  0  0
   61.6837   33.3407   45.8317 H   0  0  0  0  0  0  0  0  0  0  0  0
  1  2  1  0
  2  3  2  0
  3  4  1  0
  4  5  1  0
  5  6  1  0
  5  7  2  0
  7  8  1  0
  7  9  1  0
  9 10  1  0
 10 11  2  0
 11 12  1  0
 11 13  1  0
 13 14  1  0
 13 15  2  0
 15 16  1  0
 15 17  1  0
 17 18  1  0
 18 19  2  0
 18 20  1  0
 20 21  1  0
 20 22  1  0
 17 23  2  0
 23 24  1  0
 24 25  2  0
 25 26  1  0
 25 27  1  0
 27 28  1  0
 27 29  2  0
 29 30  1  0
 29 31  1  0
 31 32  1  0
 31 33  2  0
 33 34  1  0
  9 35  2  0
 35 36  1  0
 35  3  1  0
 23 10  1  0
 33 24  1  0
M  CHG  1   4  -1
M  END
>  <UniqueID>  (77) 
75

>  <SMILES>  (77) 
[H]/N=c1\cc(-c2cccc(C(N)=O)c2-c2ccccc2)cc[n-]1

>  <Energy>  (77) 
57.64924440513086

>  <Genealogy>  (77) 
N=c1cc(-c2cccc(C(N)=O)c2-c2ccccc2)cc[n-]1 (protonated)
[H]/N=c1\cc(-c2cccc(C(N)=O)c2-c2ccccc2)cc[n-]1 (cis-trans isomerization)
[H]/N=c1\cc(-c2cccc(C(N)=O)c2-c2ccccc2)cc[n-]1 (3D coordinates assigned)
[H]/N=c1\cc(-c2cccc(C(N)=O)c2-c2ccccc2)cc[n-]1 (optimized conformer: 57.64924440513086 kcal/mol)

>  <smiles>  (77) 
N=c1cc(-c2cccc(C(N)=O)c2-c2ccccc2)cc[nH]1

>  <score_type>  (77) 
oracle

>  <origin>  (77) 
adg

>  <m_score__min__energy>  (77) 
-9.3000000000000007

>  <m_primary>  (77) 
energy

$$$$
77:0
     RDKit          3D

 43 45  0  0  0  0  0  0  0  0999 V2000
   59.7290   34.5830   48.4380 C   0  0  0  0  0  0  0  0  0  0  0  0
   59.2920   35.2030   47.1170 C   0  0  0  0  0  0  0  0  0  0  0  0
   58.6510   34.1770   46.2390 C   0  0  0  0  0  0  0  0  0  0  0  0
   57.5620   33.4600   46.5980 N   0  0  0  0  0  0  0  0  0  0  0  0
   57.1310   32.6420   45.6400 N   0  0  0  0  0  0  0  0  0  0  0  0
   57.8600   32.7190   44.5040 C   0  0  0  0  0  0  0  0  0  0  0  0
   57.6150   31.8630   43.3040 C   0  0  0  0  0  0  0  0  0  0  0  0
   56.6820   30.7020   43.6550 C   0  0  0  0  0  0  0  0  0  0  0  0
   57.4410   29.6070   44.3540 C   0  0  0  0  0  0  0  0  0  0  0  0
   58.8290   29.6950   44.5020 C   0  0  0  0  0  0  0  0  0  0  0  0
   59.5370   28.6680   45.1260 C   0  0  0  0  0  0  0  0  0  0  0  0
   58.8750   27.5270   45.6100 C   0  0  0  0  0  0  0  0  0  0  0  0
   59.6940   26.4530   46.2760 C   0  0  0  0  0  0  0  0  0  0  0  0
   57.4710   27.4140   45.4300 C   0  0  0  0  0  0  0  0  0  0  0  0
   56.5160   26.0210   45.9800 S   0  0  0  0  0  0  0  0  0  0  0  0
   55.0420   26.3160   46.0000 O   0  0  0  0  0  0  0  0  0  0  0  0
   56.9350   25.6800   47.3820 O   0  0  0  0  0  0  0  0  0  0  0  0
   56.8220   24.6480   44.9630 N   0  0  0  0  0  0  0  0  0  0  0  0
   57.5170   23.6270   45.7370 C   0  0  0  0  0  0  0  0  0  0  0  0
   58.9220   23.3260   45.2460 C   0  0  0  0  0  0  0  0  0  0  0  0
   57.7820   22.3730   44.9250 C   0  0  0  0  0  0  0  0  0  0  0  0
   56.7730   28.4620   44.8090 C   0  0  0  0  0  0  0  0  0  0  0  0
   59.1210   33.8260   44.6600 S   0  0  0  0  0  0  0  0  0  0  0  0
   59.3160   35.1689   49.2724 H   0  0  0  0  0  0  0  0  0  0  0  0
   59.3591   33.5488   48.4978 H   0  0  0  0  0  0  0  0  0  0  0  0
   60.8274   34.5836   48.4978 H   0  0  0  0  0  0  0  0  0  0  0  0
   58.5704   36.0087   47.3173 H   0  0  0  0  0  0  0  0  0  0  0  0
   60.1785   35.6040   46.6038 H   0  0  0  0  0  0  0  0  0  0  0  0
   57.1531   32.4722   42.5131 H   0  0  0  0  0  0  0  0  0  0  0  0
   58.5754   31.4548   42.9563 H   0  0  0  0  0  0  0  0  0  0  0  0
   55.8829   31.0675   44.3167 H   0  0  0  0  0  0  0  0  0  0  0  0
   56.2517   30.2989   42.7263 H   0  0  0  0  0  0  0  0  0  0  0  0
   59.3648   30.5784   44.1245 H   0  0  0  0  0  0  0  0  0  0  0  0
   60.6277   28.7524   45.2407 H   0  0  0  0  0  0  0  0  0  0  0  0
   59.6153   26.5562   47.3683 H   0  0  0  0  0  0  0  0  0  0  0  0
   59.3183   25.4645   45.9731 H   0  0  0  0  0  0  0  0  0  0  0  0
   60.7467   26.5538   45.9731 H   0  0  0  0  0  0  0  0  0  0  0  0
   57.0768   23.8561   46.7187 H   0  0  0  0  0  0  0  0  0  0  0  0
   59.3690   23.9376   44.4484 H   0  0  0  0  0  0  0  0  0  0  0  0
   59.9085   23.2270   45.7225 H   0  0  0  0  0  0  0  0  0  0  0  0
   57.4041   22.2946   43.8949 H   0  0  0  0  0  0  0  0  0  0  0  0
   57.6018   21.2980   45.0729 H   0  0  0  0  0  0  0  0  0  0  0  0
   55.6838   28.3831   44.6774 H   0  0  0  0  0  0  0  0  0  0  0  0
  1  2  1  0
  2  3  1  0
  3  4  2  0
  4  5  1  0
  5  6  2  0
  6  7  1  0
  7  8  1  0
  8  9  1  0
  9 10  2  0
 10 11  1  0
 11 12  2  0
 12 13  1  0
 12 14  1  0
 14 15  1  0
 15 16  2  0
 15 17  2  0
 15 18  1  0
 18 19  1  0
 19 20  1  0
 20 21  1  0
 14 22  2  0
  6 23  1  0
 23  3  1  0
 22  9  1  0
 21 19  1  0
  1 24  1  0
  1 25  1  0
  1 26  1  0
  2 27  1  0
  2 28  1  0
  7 29  1  0
  7 30  1  0
  8 31  1  0
  8 32  1  0
 10 33  1  0
 11 34  1  0
 13 35  1  0
 13 36  1  0
 13 37  1  0
 19 38  1  0
 20 39  1  0
 20 40  1  0
 21 41  1  0
 21 42  1  0
 22 43  1  0
M  CHG  1  18  -1
M  END
>  <UniqueID>  (78) 
76

>  <SMILES>  (78) 
CCc1nnc(CCc2ccc(C)c(S(=O)(=O)[N-]C3CC3)c2)s1

>  <Energy>  (78) 
333.78539183413

>  <Genealogy>  (78) 
CCc1nnc(CCc2ccc(C)c(S(=O)(=O)[N-]C3CC3)c2)s1 (protonated)
CCc1nnc(CCc2ccc(C)c(S(=O)(=O)[N-]C3CC3)c2)s1 (3D coordinates assigned)
CCc1nnc(CCc2ccc(C)c(S(=O)(=O)[N-]C3CC3)c2)s1 (nonaromatic ring conformer: 333.78539183413 kcal/mol)

>  <smiles>  (78) 
CCc1nnc(CCc2ccc(C)c(S(=O)(=O)NC3CC3)c2)s1

>  <score_type>  (78) 
oracle

>  <origin>  (78) 
adg

>  <m_score__min__energy>  (78) 
-9.7699999999999996

>  <m_primary>  (78) 
energy

$$$$
78:0
     RDKit          3D

 51 54  0  0  0  0  0  0  0  0999 V2000
   58.9108   29.0566   46.3640 H   0  0  0  0  0  0  0  0  0  0  0  0
   58.2940   29.6500   45.6730 C   0  0  0  0  0  0  0  0  0  0  0  0
   57.8930   30.9190   45.9520 N   0  0  0  0  0  0  0  0  0  0  0  0
   57.1330   31.4290   44.9560 C   0  0  0  0  0  0  0  0  0  0  0  0
   56.6370   32.6310   44.9590 N   0  0  0  0  0  0  0  0  0  0  0  0
   57.3670   33.8350   45.2390 C   0  0  0  0  0  0  0  0  0  0  0  0
   56.8770   34.9340   44.8720 O   0  0  0  0  0  0  0  0  0  0  0  0
   58.6440   33.8260   45.9930 C   0  0  0  0  0  0  0  0  0  0  0  0
   58.6480   33.8380   47.3990 C   0  0  0  0  0  0  0  0  0  0  0  0
   57.6952   33.8459   47.9487 H   0  0  0  0  0  0  0  0  0  0  0  0
   59.8560   33.8400   48.1020 C   0  0  0  0  0  0  0  0  0  0  0  0
   59.8496   33.8384   49.2020 H   0  0  0  0  0  0  0  0  0  0  0  0
   61.0740   33.8440   47.4120 C   0  0  0  0  0  0  0  0  0  0  0  0
   62.6030   33.8230   48.2880 S   0  0  0  0  0  0  0  0  0  0  0  0
   62.5000   34.6800   49.5200 O   0  0  0  0  0  0  0  0  0  0  0  0
   63.6750   34.3900   47.3990 O   0  0  0  0  0  0  0  0  0  0  0  0
   63.0110   32.1830   48.7350 N   0  0  0  0  0  0  0  0  0  0  0  0
   64.0470   32.0870   48.6110 H   0  0  0  0  0  0  0  0  0  0  0  0
   62.3470   31.2030   47.8400 C   0  0  0  0  0  0  0  0  0  0  0  0
   62.0226   31.7201   46.9250 H   0  0  0  0  0  0  0  0  0  0  0  0
   63.0703   30.4066   47.6105 H   0  0  0  0  0  0  0  0  0  0  0  0
   61.1200   30.5550   48.5070 C   0  0  0  0  0  0  0  0  0  0  0  0
   60.3887   31.3444   48.7352 H   0  0  0  0  0  0  0  0  0  0  0  0
   60.7197   29.8115   47.8020 H   0  0  0  0  0  0  0  0  0  0  0  0
   61.4340   29.8680   49.7120 O   0  0  0  0  0  0  0  0  0  0  0  0
   62.4940   30.4620   50.4520 C   0  0  0  0  0  0  0  0  0  0  0  0
   62.2768   30.3425   51.5237 H   0  0  0  0  0  0  0  0  0  0  0  0
   63.4194   29.9514   50.1473 H   0  0  0  0  0  0  0  0  0  0  0  0
   62.6970   31.9590   50.1640 C   0  0  0  0  0  0  0  0  0  0  0  0
   61.7761   32.5034   50.4202 H   0  0  0  0  0  0  0  0  0  0  0  0
   63.5393   32.3230   50.7707 H   0  0  0  0  0  0  0  0  0  0  0  0
   61.0750   33.8430   46.0110 C   0  0  0  0  0  0  0  0  0  0  0  0
   62.0292   33.8414   45.4637 H   0  0  0  0  0  0  0  0  0  0  0  0
   59.8680   33.8440   45.3060 C   0  0  0  0  0  0  0  0  0  0  0  0
   59.8774   33.8590   44.2061 H   0  0  0  0  0  0  0  0  0  0  0  0
   56.9320   30.3470   43.6880 S   0  0  0  0  0  0  0  0  0  0  0  0
   57.8620   29.1620   44.4440 C   0  0  0  0  0  0  0  0  0  0  0  0
   58.0960   27.7820   43.9170 C   0  0  0  0  0  0  0  0  0  0  0  0
   57.3746   27.5722   43.1135 H   0  0  0  0  0  0  0  0  0  0  0  0
   59.1219   27.7152   43.5257 H   0  0  0  0  0  0  0  0  0  0  0  0
   57.9220   26.7710   45.0190 C   0  0  0  0  0  0  0  0  0  0  0  0
   58.9300   25.8240   45.2650 C   0  0  0  0  0  0  0  0  0  0  0  0
   59.8546   25.8418   44.6694 H   0  0  0  0  0  0  0  0  0  0  0  0
   58.7640   24.8590   46.2630 C   0  0  0  0  0  0  0  0  0  0  0  0
   59.5598   24.1242   46.4545 H   0  0  0  0  0  0  0  0  0  0  0  0
   57.5890   24.8270   47.0170 C   0  0  0  0  0  0  0  0  0  0  0  0
   57.4619   24.0692   47.8041 H   0  0  0  0  0  0  0  0  0  0  0  0
   56.5750   25.7560   46.7730 C   0  0  0  0  0  0  0  0  0  0  0  0
   55.6496   25.7271   47.3669 H   0  0  0  0  0  0  0  0  0  0  0  0
   56.7340   26.7240   45.7740 C   0  0  0  0  0  0  0  0  0  0  0  0
   55.7300   27.6080   45.5440 F   0  0  0  0  0  0  0  0  0  0  0  0
  1  2  1  0
  2  3  1  0
  3  4  1  0
  4  5  2  0
  5  6  1  0
  6  7  2  0
  6  8  1  0
  8  9  2  0
  9 10  1  0
  9 11  1  0
 11 12  1  0
 11 13  2  0
 13 14  1  0
 14 15  2  0
 14 16  2  0
 14 17  1  0
 17 18  1  0
 17 19  1  0
 19 20  1  0
 19 21  1  0
 19 22  1  0
 22 23  1  0
 22 24  1  0
 22 25  1  0
 25 26  1  0
 26 27  1  0
 26 28  1  0
 26 29  1  0
 29 30  1  0
 29 31  1  0
 13 32  1  0
 32 33  1  0
 32 34  2  0
 34 35  1  0
  4 36  1  0
 36 37  1  0
 37 38  1  0
 38 39  1  0
 38 40  1  0
 38 41  1  0
 41 42  2  0
 42 43  1  0
 42 44  1  0
 44 45  1  0
 44 46  2  0
 46 47  1  0
 46 48  1  0
 48 49  1  0
 48 50  2  0
 50 51  1  0
 37  2  2  0
 50 41  1  0
 34  8  1  0
 29 17  1  0
M  CHG  2   3  -1  17   1
M  END
>  <UniqueID>  (79) 
77

>  <SMILES>  (79) 
O=C(/N=c1\[n-]cc(Cc2ccccc2F)s1)c1ccc(S(=O)(=O)[NH+]2CCOCC2)cc1

>  <Energy>  (79) 
102.32838489112049

>  <Genealogy>  (79) 
O=C(N=c1[n-]cc(Cc2ccccc2F)s1)c1ccc(S(=O)(=O)[NH+]2CCOCC2)cc1 (protonated)
O=C(/N=c1\[n-]cc(Cc2ccccc2F)s1)c1ccc(S(=O)(=O)[NH+]2CCOCC2)cc1 (cis-trans isomerization)
O=C(/N=c1\[n-]cc(Cc2ccccc2F)s1)c1ccc(S(=O)(=O)[NH+]2CCOCC2)cc1 (3D coordinates assigned)
O=C(/N=c1\[n-]cc(Cc2ccccc2F)s1)c1ccc(S(=O)(=O)[NH+]2CCOCC2)cc1 (nonaromatic ring conformer: 102.32838489112049 kcal/mol)

>  <smiles>  (79) 
O=C(N=c1[nH]cc(Cc2ccccc2F)s1)c1ccc(S(=O)(=O)N2CCOCC2)cc1

>  <score_type>  (79) 
oracle

>  <origin>  (79) 
adg

>  <m_score__min__energy>  (79) 
-9.7799999999999994

>  <m_primary>  (79) 
energy

$$$$
79:0
     RDKit          3D

 54 57  0  0  0  0  0  0  0  0999 V2000
   60.6421   29.8875   46.8644 H   0  0  0  0  0  0  0  0  0  0  0  0
   60.4910   30.9770   46.8530 C   0  0  0  0  0  0  0  0  0  0  0  0
   61.4160   31.7930   47.4170 N   0  0  0  0  0  0  0  0  0  0  0  0
   61.2980   33.1490   47.4370 C   0  0  0  0  0  0  0  0  0  0  0  0
   62.3750   33.9250   48.1080 C   0  0  0  0  0  0  0  0  0  0  0  0
   62.1410   34.6170   49.1350 O   0  0  0  0  0  0  0  0  0  0  0  0
   63.7860   33.8440   47.6100 C   0  0  0  0  0  0  0  0  0  0  0  0
   64.4753   33.8044   48.4663 H   0  0  0  0  0  0  0  0  0  0  0  0
   63.9077   32.9374   46.9991 H   0  0  0  0  0  0  0  0  0  0  0  0
   64.0107   34.7307   46.9991 H   0  0  0  0  0  0  0  0  0  0  0  0
   60.1630   33.7460   46.8250 C   0  0  0  0  0  0  0  0  0  0  0  0
   59.9570   35.2380   46.7650 C   0  0  0  0  0  0  0  0  0  0  0  0
   59.9012   35.6418   47.7867 H   0  0  0  0  0  0  0  0  0  0  0  0
   60.7994   35.7033   46.2323 H   0  0  0  0  0  0  0  0  0  0  0  0
   59.0200   35.4576   46.2323 H   0  0  0  0  0  0  0  0  0  0  0  0
   59.1930   32.9100   46.2490 C   0  0  0  0  0  0  0  0  0  0  0  0
   58.3007   33.3556   45.7850 H   0  0  0  0  0  0  0  0  0  0  0  0
   59.3440   31.5160   46.2560 C   0  0  0  0  0  0  0  0  0  0  0  0
   58.3160   30.6330   45.6470 C   0  0  0  0  0  0  0  0  0  0  0  0
   57.5090   31.0970   44.5940 C   0  0  0  0  0  0  0  0  0  0  0  0
   57.6429   32.1200   44.2125 H   0  0  0  0  0  0  0  0  0  0  0  0
   56.5380   30.2670   44.0290 C   0  0  0  0  0  0  0  0  0  0  0  0
   55.9100   30.6401   43.2066 H   0  0  0  0  0  0  0  0  0  0  0  0
   56.3610   28.9670   44.5030 C   0  0  0  0  0  0  0  0  0  0  0  0
   55.5930   28.3208   44.0529 H   0  0  0  0  0  0  0  0  0  0  0  0
   57.1580   28.4780   45.5520 C   0  0  0  0  0  0  0  0  0  0  0  0
   56.9710   27.0950   46.0580 C   0  0  0  0  0  0  0  0  0  0  0  0
   55.7150   26.4690   45.9980 C   0  0  0  0  0  0  0  0  0  0  0  0
   54.8547   27.0069   45.5730 H   0  0  0  0  0  0  0  0  0  0  0  0
   55.5580   25.2010   46.4630 N   0  0  0  0  0  0  0  0  0  0  0  0
   56.5920   24.4910   46.9950 C   0  0  0  0  0  0  0  0  0  0  0  0
   56.4290   23.2720   47.4210 N   0  0  0  0  0  0  0  0  0  0  0  0
   55.1860   22.6390   47.7740 C   0  0  0  0  0  0  0  0  0  0  0  0
   54.7580   22.6520   48.9600 O   0  0  0  0  0  0  0  0  0  0  0  0
   54.3640   21.9970   46.7010 C   0  0  0  0  0  0  0  0  0  0  0  0
   54.5770   20.9180   46.6830 H   0  0  0  0  0  0  0  0  0  0  0  0
   53.3015   22.1789   46.9202 H   0  0  0  0  0  0  0  0  0  0  0  0
   54.6850   22.5930   45.3260 C   0  0  0  0  0  0  0  0  0  0  0  0
   53.8136   22.4664   44.6667 H   0  0  0  0  0  0  0  0  0  0  0  0
   54.9204   23.6600   45.4527 H   0  0  0  0  0  0  0  0  0  0  0  0
   55.8390   21.9300   44.7250 N   0  0  0  0  0  0  0  0  0  0  0  0
   56.2630   22.1380   43.4880 N   0  0  0  0  0  0  0  0  0  0  0  0
   57.3820   21.3950   43.3530 C   0  0  0  0  0  0  0  0  0  0  0  0
   57.9818   21.3407   42.4325 H   0  0  0  0  0  0  0  0  0  0  0  0
   57.6720   20.7280   44.4880 N   0  0  0  0  0  0  0  0  0  0  0  0
   58.4790   20.0900   44.6700 H   0  0  0  0  0  0  0  0  0  0  0  0
   56.6910   21.0870   45.3330 C   0  0  0  0  0  0  0  0  0  0  0  0
   56.5985   20.7407   46.3730 H   0  0  0  0  0  0  0  0  0  0  0  0
   57.8590   25.0760   47.0730 C   0  0  0  0  0  0  0  0  0  0  0  0
   58.7030   24.5141   47.4995 H   0  0  0  0  0  0  0  0  0  0  0  0
   58.0460   26.3780   46.6060 C   0  0  0  0  0  0  0  0  0  0  0  0
   59.0404   26.8443   46.6677 H   0  0  0  0  0  0  0  0  0  0  0  0
   58.1330   29.3190   46.1180 C   0  0  0  0  0  0  0  0  0  0  0  0
   58.7611   28.9449   46.9399 H   0  0  0  0  0  0  0  0  0  0  0  0
  1  2  1  0
  2  3  2  0
  3  4  1  0
  4  5  1  0
  5  6  2  0
  5  7  1  0
  7  8  1  0
  7  9  1  0
  7 10  1  0
  4 11  2  0
 11 12  1  0
 12 13  1  0
 12 14  1  0
 12 15  1  0
 11 16  1  0
 16 17  1  0
 16 18  2  0
 18 19  1  0
 19 20  2  0
 20 21  1  0
 20 22  1  0
 22 23  1  0
 22 24  2  0
 24 25  1  0
 24 26  1  0
 26 27  1  0
 27 28  2  0
 28 29  1  0
 28 30  1  0
 30 31  1  0
 31 32  2  0
 32 33  1  0
 33 34  2  0
 33 35  1  0
 35 36  1  0
 35 37  1  0
 35 38  1  0
 38 39  1  0
 38 40  1  0
 38 41  1  0
 41 42  1  0
 42 43  2  0
 43 44  1  0
 43 45  1  0
 45 46  1  0
 45 47  2  0
 47 48  1  0
 31 49  1  0
 49 50  1  0
 49 51  2  0
 51 52  1  0
 26 53  2  0
 53 54  1  0
 18  2  1  0
 53 19  1  0
 51 27  1  0
 47 41  1  0
M  CHG  2  30  -1  45   1
M  END
>  <UniqueID>  (80) 
78

>  <SMILES>  (80) 
CC(=O)c1ncc(-c2cccc(-c3cc/c(=N/C(=O)CCn4c[nH+]cn4)[n-]c3)c2)cc1C

>  <Energy>  (80) 
104.00079739141069

>  <Genealogy>  (80) 
CC(=O)c1ncc(-c2cccc(-c3ccc(=NC(=O)CCn4c[nH+]cn4)[n-]c3)c2)cc1C (protonated)
CC(=O)c1ncc(-c2cccc(-c3cc/c(=N/C(=O)CCn4c[nH+]cn4)[n-]c3)c2)cc1C (cis-trans isomerization)
CC(=O)c1ncc(-c2cccc(-c3cc/c(=N/C(=O)CCn4c[nH+]cn4)[n-]c3)c2)cc1C (3D coordinates assigned)
CC(=O)c1ncc(-c2cccc(-c3cc/c(=N/C(=O)CCn4c[nH+]cn4)[n-]c3)c2)cc1C (optimized conformer: 104.00079739141069 kcal/mol)

>  <smiles>  (80) 
CC(=O)c1ncc(-c2cccc(-c3ccc(=NC(=O)CCn4cncn4)[nH]c3)c2)cc1C

>  <score_type>  (80) 
oracle

>  <origin>  (80) 
adg

>  <m_score__min__energy>  (80) 
-10.75

>  <m_primary>  (80) 
energy

$$$$
80:0
     RDKit          3D

 53 57  0  0  0  0  0  0  0  0999 V2000
   55.3280   29.4050   44.8660 N   0  0  0  0  0  0  0  0  0  0  0  0
   56.6700   29.8210   45.1040 C   0  0  0  0  0  0  0  0  0  0  0  0
   57.0050   31.0150   44.8940 O   0  0  0  0  0  0  0  0  0  0  0  0
   57.6550   28.8590   45.6170 C   0  0  0  0  0  0  0  0  0  0  0  0
   59.0290   29.1710   45.9110 C   0  0  0  0  0  0  0  0  0  0  0  0
   59.5580   30.3590   45.7820 N   0  0  0  0  0  0  0  0  0  0  0  0
   60.3190   31.1070   46.7360 C   0  0  0  0  0  0  0  0  0  0  0  0
   59.7380   32.1910   47.4040 C   0  0  0  0  0  0  0  0  0  0  0  0
   60.4840   32.9200   48.3370 C   0  0  0  0  0  0  0  0  0  0  0  0
   61.8200   32.5790   48.5920 C   0  0  0  0  0  0  0  0  0  0  0  0
   62.7510   33.5000   49.7700 S   0  0  0  0  0  0  0  0  0  0  0  0
   62.1760   33.1490   51.3600 N   0  0  0  0  0  0  0  0  0  0  0  0
   64.2030   33.1250   49.6650 O   0  0  0  0  0  0  0  0  0  0  0  0
   62.6110   34.9740   49.5010 O   0  0  0  0  0  0  0  0  0  0  0  0
   62.4120   31.5190   47.8890 C   0  0  0  0  0  0  0  0  0  0  0  0
   61.6660   30.7920   46.9580 C   0  0  0  0  0  0  0  0  0  0  0  0
   59.8540   28.1750   46.3680 N   0  0  0  0  0  0  0  0  0  0  0  0
   59.4420   26.8930   46.5710 C   0  0  0  0  0  0  0  0  0  0  0  0
   58.1210   26.5830   46.2980 C   0  0  0  0  0  0  0  0  0  0  0  0
   57.2500   27.5350   45.8250 C   0  0  0  0  0  0  0  0  0  0  0  0
   56.0170   27.0070   45.6240 N   0  0  0  0  0  0  0  0  0  0  0  0
   56.1290   25.7100   45.9830 C   0  0  0  0  0  0  0  0  0  0  0  0
   55.1270   24.7430   45.9680 C   0  0  0  0  0  0  0  0  0  0  0  0
   55.4430   23.4360   46.4130 C   0  0  0  0  0  0  0  0  0  0  0  0
   54.4210   22.3580   46.4290 C   0  0  0  0  0  0  0  0  0  0  0  0
   53.6230   22.2530   45.4560 O   0  0  0  0  0  0  0  0  0  0  0  0
   54.3380   21.4200   47.5140 N   0  0  0  0  0  0  0  0  0  0  0  0
   53.3090   20.3760   47.5420 C   0  0  0  0  0  0  0  0  0  0  0  0
   53.1260   19.7960   48.9400 C   0  0  0  0  0  0  0  0  0  0  0  0
   51.7160   20.3670   48.9890 C   0  0  0  0  0  0  0  0  0  0  0  0
   51.8940   20.9440   47.5910 C   0  0  0  0  0  0  0  0  0  0  0  0
   56.7710   23.1480   46.8390 C   0  0  0  0  0  0  0  0  0  0  0  0
   57.7660   24.1420   46.8370 C   0  0  0  0  0  0  0  0  0  0  0  0
   57.4060   25.4140   46.4040 C   0  0  0  0  0  0  0  0  0  0  0  0
   54.6320   29.3770   45.6420 H   0  0  0  0  0  0  0  0  0  0  0  0
   58.6946   32.4701   47.1956 H   0  0  0  0  0  0  0  0  0  0  0  0
   60.0212   33.7626   48.8716 H   0  0  0  0  0  0  0  0  0  0  0  0
   61.8110   34.0430   51.7550 H   0  0  0  0  0  0  0  0  0  0  0  0
   63.4654   31.2598   48.0712 H   0  0  0  0  0  0  0  0  0  0  0  0
   62.1371   29.9706   46.3982 H   0  0  0  0  0  0  0  0  0  0  0  0
   60.1386   26.1263   46.9411 H   0  0  0  0  0  0  0  0  0  0  0  0
   55.1610   27.4930   45.2770 H   0  0  0  0  0  0  0  0  0  0  0  0
   54.1133   24.9886   45.6185 H   0  0  0  0  0  0  0  0  0  0  0  0
   55.1340   21.3450   48.1860 H   0  0  0  0  0  0  0  0  0  0  0  0
   53.6216   19.7395   46.7011 H   0  0  0  0  0  0  0  0  0  0  0  0
   53.1678   18.6975   48.9800 H   0  0  0  0  0  0  0  0  0  0  0  0
   53.8483   20.0244   49.7376 H   0  0  0  0  0  0  0  0  0  0  0  0
   50.9262   19.6049   49.0620 H   0  0  0  0  0  0  0  0  0  0  0  0
   51.4094   21.0166   49.8221 H   0  0  0  0  0  0  0  0  0  0  0  0
   51.2126   20.5194   46.8391 H   0  0  0  0  0  0  0  0  0  0  0  0
   51.7144   22.0125   47.4009 H   0  0  0  0  0  0  0  0  0  0  0  0
   57.0227   22.1313   47.1752 H   0  0  0  0  0  0  0  0  0  0  0  0
   58.7922   23.9215   47.1661 H   0  0  0  0  0  0  0  0  0  0  0  0
  1  2  1  0
  2  3  2  0
  2  4  1  0
  4  5  1  0
  5  6  2  3
  6  7  1  0
  7  8  2  0
  8  9  1  0
  9 10  2  0
 10 11  1  0
 11 12  1  0
 11 13  2  0
 11 14  2  0
 10 15  1  0
 15 16  2  0
  5 17  1  0
 17 18  1  0
 18 19  2  0
 19 20  1  0
 20 21  1  0
 21 22  1  0
 22 23  2  0
 23 24  1  0
 24 25  1  0
 25 26  2  0
 25 27  1  0
 27 28  1  0
 28 29  1  0
 29 30  1  0
 30 31  1  0
 24 32  2  0
 32 33  1  0
 33 34  2  0
 20  4  2  0
 34 22  1  0
 16  7  1  0
 34 19  1  0
 31 28  1  0
  1 35  1  0
  8 36  1  0
  9 37  1  0
 12 38  1  0
 15 39  1  0
 16 40  1  0
 18 41  1  0
 21 42  1  0
 23 43  1  0
 27 44  1  0
 28 45  1  0
 29 46  1  0
 29 47  1  0
 30 48  1  0
 30 49  1  0
 31 50  1  0
 31 51  1  0
 32 52  1  0
 33 53  1  0
M  CHG  3   1  -1  12  -1  17  -1
M  END
>  <UniqueID>  (81) 
79

>  <SMILES>  (81) 
[NH-]C(=O)c1c(=Nc2ccc(S([NH-])(=O)=O)cc2)[n-]cc2c1[nH]c1cc(C(=O)NC3CCC3)ccc12

>  <Energy>  (81) 
183.77828739973918

>  <Genealogy>  (81) 
[NH-]C(=O)c1c(=Nc2ccc(S([NH-])(=O)=O)cc2)[n-]cc2c1[nH]c1cc(C(=O)NC3CCC3)ccc12 (protonated)
[NH-]C(=O)c1c(=Nc2ccc(S([NH-])(=O)=O)cc2)[n-]cc2c1[nH]c1cc(C(=O)NC3CCC3)ccc12 (3D coordinates assigned)
[NH-]C(=O)c1c(=Nc2ccc(S([NH-])(=O)=O)cc2)[n-]cc2c1[nH]c1cc(C(=O)NC3CCC3)ccc12 (nonaromatic ring conformer: 183.77828739973918 kcal/mol)

>  <smiles>  (81) 
NC(=O)c1c(=Nc2ccc(S(N)(=O)=O)cc2)[nH]cc2c1[nH]c1cc(C(=O)NC3CCC3)ccc12

>  <score_type>  (81) 
oracle

>  <origin>  (81) 
adg

>  <m_score__min__energy>  (81) 
-13.27

>  <m_primary>  (81) 
energy

$$$$
81:0
     RDKit          3D

 60 63  0  0  0  0  0  0  0  0999 V2000
   55.1930   29.0520   44.6940 O   0  0  0  0  0  0  0  0  0  0  0  0
   56.3260   29.0420   45.2440 C   0  0  0  0  0  0  0  0  0  0  0  0
   57.0020   30.2920   45.4300 N   0  0  0  0  0  0  0  0  0  0  0  0
   57.3780   31.2210   44.4010 C   0  0  0  0  0  0  0  0  0  0  0  0
   57.3930   30.8250   43.0510 C   0  0  0  0  0  0  0  0  0  0  0  0
   57.8360   31.7040   42.0610 C   0  0  0  0  0  0  0  0  0  0  0  0
   58.2890   32.9770   42.4070 C   0  0  0  0  0  0  0  0  0  0  0  0
   58.2960   33.3790   43.7430 C   0  0  0  0  0  0  0  0  0  0  0  0
   57.8320   32.5150   44.7520 C   0  0  0  0  0  0  0  0  0  0  0  0
   57.8270   32.9800   46.1570 C   0  0  0  0  0  0  0  0  0  0  0  0
   57.4500   34.1530   46.4290 O   0  0  0  0  0  0  0  0  0  0  0  0
   58.2180   32.0930   47.2110 N   0  0  0  0  0  0  0  0  0  0  0  0
   59.4270   32.2750   48.0140 C   0  0  1  0  0  0  0  0  0  0  0  0
   60.6530   31.7250   47.2640 C   0  0  0  0  0  0  0  0  0  0  0  0
   61.9580   31.9970   47.9760 C   0  0  0  0  0  0  0  0  0  0  0  0
   62.8940   32.8880   47.4270 C   0  0  0  0  0  0  0  0  0  0  0  0
   64.1130   33.1200   48.0730 C   0  0  0  0  0  0  0  0  0  0  0  0
   64.3990   32.4760   49.2800 C   0  0  0  0  0  0  0  0  0  0  0  0
   66.0680   32.7800   50.1560 Br  0  0  0  0  0  0  0  0  0  0  0  0
   63.4640   31.6020   49.8420 C   0  0  0  0  0  0  0  0  0  0  0  0
   62.2540   31.3520   49.1880 C   0  0  0  0  0  0  0  0  0  0  0  0
   59.6080   33.7250   48.3710 C   0  0  0  0  0  0  0  0  0  0  0  0
   59.9920   34.5510   47.4980 O   0  0  0  0  0  0  0  0  0  0  0  0
   59.3940   34.1500   49.7210 N   0  0  0  0  0  0  0  0  0  0  0  0
   59.8550   33.3980   50.8830 C   0  0  0  0  0  0  0  0  0  0  0  0
   58.8300   32.3690   51.2740 C   0  0  0  0  0  0  0  0  0  0  0  0
   59.0610   31.0090   51.0070 C   0  0  0  0  0  0  0  0  0  0  0  0
   58.1390   30.0430   51.4200 C   0  0  0  0  0  0  0  0  0  0  0  0
   56.9830   30.4260   52.1080 C   0  0  0  0  0  0  0  0  0  0  0  0
   56.7470   31.7760   52.3810 C   0  0  0  0  0  0  0  0  0  0  0  0
   57.6660   32.7460   51.9670 C   0  0  0  0  0  0  0  0  0  0  0  0
   56.9570   27.7460   45.5960 C   0  0  0  0  0  0  0  0  0  0  0  0
   58.3570   27.6050   45.5410 C   0  0  0  0  0  0  0  0  0  0  0  0
   58.9590   26.3790   45.8300 C   0  0  0  0  0  0  0  0  0  0  0  0
   58.1760   25.2770   46.1720 C   0  0  0  0  0  0  0  0  0  0  0  0
   56.7850   25.3990   46.2250 C   0  0  0  0  0  0  0  0  0  0  0  0
   56.1730   26.6240   45.9400 C   0  0  0  0  0  0  0  0  0  0  0  0
   54.7860   26.7150   46.0150 O   0  0  0  0  0  0  0  0  0  0  0  0
   57.0534   29.8161   42.7737 H   0  0  0  0  0  0  0  0  0  0  0  0
   57.8278   31.3921   41.0062 H   0  0  0  0  0  0  0  0  0  0  0  0
   58.6415   33.6655   41.6249 H   0  0  0  0  0  0  0  0  0  0  0  0
   58.6673   34.3795   44.0097 H   0  0  0  0  0  0  0  0  0  0  0  0
   59.3208   31.7094   48.9514 H   0  0  0  0  0  0  0  0  0  0  0  0
   60.5356   30.6370   47.1528 H   0  0  0  0  0  0  0  0  0  0  0  0
   60.6982   32.2373   46.2916 H   0  0  0  0  0  0  0  0  0  0  0  0
   62.6675   33.4065   46.4837 H   0  0  0  0  0  0  0  0  0  0  0  0
   64.8469   33.8097   47.6307 H   0  0  0  0  0  0  0  0  0  0  0  0
   63.6809   31.1096   50.8014 H   0  0  0  0  0  0  0  0  0  0  0  0
   61.5308   30.6473   49.6244 H   0  0  0  0  0  0  0  0  0  0  0  0
   60.8013   32.8937   50.6377 H   0  0  0  0  0  0  0  0  0  0  0  0
   60.0067   34.0917   51.7231 H   0  0  0  0  0  0  0  0  0  0  0  0
   59.9714   30.7032   50.4706 H   0  0  0  0  0  0  0  0  0  0  0  0
   58.3228   28.9803   51.2037 H   0  0  0  0  0  0  0  0  0  0  0  0
   56.2595   29.6644   52.4342 H   0  0  0  0  0  0  0  0  0  0  0  0
   55.8376   32.0763   52.9221 H   0  0  0  0  0  0  0  0  0  0  0  0
   57.4774   33.8077   52.1844 H   0  0  0  0  0  0  0  0  0  0  0  0
   58.9817   28.4683   45.2680 H   0  0  0  0  0  0  0  0  0  0  0  0
   60.0539   26.2821   45.7878 H   0  0  0  0  0  0  0  0  0  0  0  0
   58.6530   24.3124   46.3999 H   0  0  0  0  0  0  0  0  0  0  0  0
   56.1686   24.5279   46.4920 H   0  0  0  0  0  0  0  0  0  0  0  0
  1  2  2  0
  2  3  1  0
  3  4  1  0
  4  5  2  0
  5  6  1  0
  6  7  2  0
  7  8  1  0
  8  9  2  0
  9 10  1  0
 10 11  2  0
 10 12  1  0
 12 13  1  0
 13 14  1  0
 14 15  1  0
 15 16  2  0
 16 17  1  0
 17 18  2  0
 18 19  1  0
 18 20  1  0
 20 21  2  0
 13 22  1  0
 22 23  2  0
 22 24  1  0
 24 25  1  0
 25 26  1  0
 26 27  2  0
 27 28  1  0
 28 29  2  0
 29 30  1  0
 30 31  2  0
  2 32  1  0
 32 33  2  0
 33 34  1  0
 34 35  2  0
 35 36  1  0
 36 37  2  0
 37 38  1  0
  9  4  1  0
 21 15  1  0
 31 26  1  0
 37 32  1  0
  5 39  1  0
  6 40  1  0
  7 41  1  0
  8 42  1  0
 13 43  1  1
 14 44  1  0
 14 45  1  0
 16 46  1  0
 17 47  1  0
 20 48  1  0
 21 49  1  0
 25 50  1  0
 25 51  1  0
 27 52  1  0
 28 53  1  0
 29 54  1  0
 30 55  1  0
 31 56  1  0
 33 57  1  0
 34 58  1  0
 35 59  1  0
 36 60  1  0
M  CHG  4   3  -1  12  -1  24  -1  38  -1
M  END
>  <UniqueID>  (82) 
80

>  <SMILES>  (82) 
O=C([N-]c1ccccc1C(=O)[N-][C@@H](Cc1ccc(Br)cc1)C(=O)[N-]Cc1ccccc1)c1ccccc1[O-]

>  <Energy>  (82) 
62.95674995157587

>  <Genealogy>  (82) 
O=C([N-]c1ccccc1C(=O)[N-]C(Cc1ccc(Br)cc1)C(=O)[N-]Cc1ccccc1)c1ccccc1[O-] (protonated)
O=C([N-]c1ccccc1C(=O)[N-][C@@H](Cc1ccc(Br)cc1)C(=O)[N-]Cc1ccccc1)c1ccccc1[O-] (chirality)
O=C([N-]c1ccccc1C(=O)[N-][C@@H](Cc1ccc(Br)cc1)C(=O)[N-]Cc1ccccc1)c1ccccc1[O-] (3D coordinates assigned)
O=C([N-]c1ccccc1C(=O)[N-][C@@H](Cc1ccc(Br)cc1)C(=O)[N-]Cc1ccccc1)c1ccccc1[O-] (optimized conformer: 62.95674995157587 kcal/mol)

>  <smiles>  (82) 
O=C(Nc1ccccc1C(=O)NC(Cc1ccc(Br)cc1)C(=O)NCc1ccccc1)c1ccccc1O

>  <score_type>  (82) 
oracle

>  <origin>  (82) 
adg

>  <m_score__min__energy>  (82) 
-17.68

>  <m_primary>  (82) 
energy

$$$$
82:0
     RDKit          3D

 37 39  0  0  0  0  0  0  0  0999 V2000
   57.3900   33.9600   44.8700 C   0  0  0  0  0  0  0  0  0  0  0  0
   58.3560   33.0300   45.4670 N   0  0  0  0  0  0  0  0  0  0  0  0
   59.6050   33.5640   46.0240 C   0  0  0  0  0  0  0  0  0  0  0  0
   58.0810   31.6040   45.5070 C   0  0  0  0  0  0  0  0  0  0  0  0
   58.6800   30.7780   46.4800 C   0  0  0  0  0  0  0  0  0  0  0  0
   58.4150   29.4070   46.5200 C   0  0  0  0  0  0  0  0  0  0  0  0
   57.5360   28.8210   45.5930 C   0  0  0  0  0  0  0  0  0  0  0  0
   57.2510   27.3650   45.6180 C   0  0  0  0  0  0  0  0  0  0  0  0
   55.9690   26.9420   45.7960 N   0  0  0  0  0  0  0  0  0  0  0  0
   55.6460   25.6250   45.8260 C   0  0  0  0  0  0  0  0  0  0  0  0
   54.4430   25.2890   45.9910 O   0  0  0  0  0  0  0  0  0  0  0  0
   56.6530   24.6600   45.6740 C   0  0  0  0  0  0  0  0  0  0  0  0
   56.3780   23.2810   45.6950 C   0  0  0  0  0  0  0  0  0  0  0  0
   57.4170   22.3570   45.5460 C   0  0  0  0  0  0  0  0  0  0  0  0
   58.7370   22.7950   45.3750 C   0  0  0  0  0  0  0  0  0  0  0  0
   59.7950   21.8460   45.2240 N   0  0  0  0  0  0  0  0  0  0  0  0
   59.0150   24.1700   45.3530 C   0  0  0  0  0  0  0  0  0  0  0  0
   57.9790   25.1080   45.4990 C   0  0  0  0  0  0  0  0  0  0  0  0
   58.2500   26.4440   45.4790 N   0  0  0  0  0  0  0  0  0  0  0  0
   56.9470   29.6360   44.6140 C   0  0  0  0  0  0  0  0  0  0  0  0
   57.2100   31.0070   44.5720 C   0  0  0  0  0  0  0  0  0  0  0  0
   56.8448   34.4849   45.6683 H   0  0  0  0  0  0  0  0  0  0  0  0
   57.9235   34.6931   44.2471 H   0  0  0  0  0  0  0  0  0  0  0  0
   56.6777   33.3990   44.2471 H   0  0  0  0  0  0  0  0  0  0  0  0
   59.5551   33.5427   47.1227 H   0  0  0  0  0  0  0  0  0  0  0  0
   60.4509   32.9489   45.6833 H   0  0  0  0  0  0  0  0  0  0  0  0
   59.7448   34.6005   45.6833 H   0  0  0  0  0  0  0  0  0  0  0  0
   59.3658   31.2194   47.2182 H   0  0  0  0  0  0  0  0  0  0  0  0
   58.8986   28.7804   47.2839 H   0  0  0  0  0  0  0  0  0  0  0  0
   55.3445   22.9288   45.8288 H   0  0  0  0  0  0  0  0  0  0  0  0
   57.1967   21.2794   45.5631 H   0  0  0  0  0  0  0  0  0  0  0  0
   60.7720   22.1610   45.0310 H   0  0  0  0  0  0  0  0  0  0  0  0
   59.6100   20.8210   45.3020 H   0  0  0  0  0  0  0  0  0  0  0  0
   60.0507   24.5160   45.2206 H   0  0  0  0  0  0  0  0  0  0  0  0
   59.2410   26.7600   45.3840 H   0  0  0  0  0  0  0  0  0  0  0  0
   56.2700   29.1896   43.8708 H   0  0  0  0  0  0  0  0  0  0  0  0
   56.7321   31.6286   43.8005 H   0  0  0  0  0  0  0  0  0  0  0  0
  1  2  1  0
  2  3  1  0
  2  4  1  0
  4  5  2  0
  5  6  1  0
  6  7  2  0
  7  8  1  0
  8  9  2  0
  9 10  1  0
 10 11  2  0
 10 12  1  0
 12 13  2  0
 13 14  1  0
 14 15  2  0
 15 16  1  0
 15 17  1  0
 17 18  2  0
 18 19  1  0
  7 20  1  0
 20 21  2  0
 21  4  1  0
 19  8  1  0
 18 12  1  0
  1 22  1  0
  1 23  1  0
  1 24  1  0
  3 25  1  0
  3 26  1  0
  3 27  1  0
  5 28  1  0
  6 29  1  0
 13 30  1  0
 14 31  1  0
 16 32  1  0
 16 33  1  0
 17 34  1  0
 19 35  1  0
 20 36  1  0
 21 37  1  0
M  END
>  <UniqueID>  (83) 
81

>  <SMILES>  (83) 
CN(C)c1ccc(-c2nc(=O)c3ccc(N)cc3[nH]2)cc1

>  <Energy>  (83) 
48.35776387074543

>  <Genealogy>  (83) 
CN(C)c1ccc(-c2nc(=O)c3ccc(N)cc3[nH]2)cc1 (3D coordinates assigned)
CN(C)c1ccc(-c2nc(=O)c3ccc(N)cc3[nH]2)cc1 (optimized conformer: 48.35776387074543 kcal/mol)

>  <smiles>  (83) 
CN(C)c1ccc(-c2nc(=O)c3ccc(N)cc3[nH]2)cc1

>  <score_type>  (83) 
oracle

>  <origin>  (83) 
adg

>  <m_score__min__energy>  (83) 
-7.0899999999999999

>  <m_primary>  (83) 
energy

$$$$
83:0
     RDKit          3D

 40 42  0  0  0  0  0  0  0  0999 V2000
   58.1380   32.0570   46.9060 C   0  0  0  0  0  0  0  0  0  0  0  0
   58.0030   32.0580   45.4320 N   0  0  0  0  0  0  0  0  0  0  0  0
   58.4940   33.1050   44.6850 C   0  0  0  0  0  0  0  0  0  0  0  0
   59.1820   34.3040   45.3120 C   0  0  0  0  0  0  0  0  0  0  0  0
   60.4060   33.8980   45.9990 N   0  0  0  0  0  0  0  0  0  0  0  0
   60.6480   34.2050   47.3830 C   0  0  0  0  0  0  0  0  0  0  0  0
   59.7550   34.7870   48.0570 O   0  0  0  0  0  0  0  0  0  0  0  0
   61.9330   33.8410   48.0320 C   0  0  0  0  0  0  0  0  0  0  0  0
   61.9970   33.6360   49.4180 C   0  0  0  0  0  0  0  0  0  0  0  0
   63.2080   33.2730   50.0140 C   0  0  0  0  0  0  0  0  0  0  0  0
   63.3120   33.0590   51.3960 C   0  0  0  0  0  0  0  0  0  0  0  0
   64.5420   32.6950   51.9550 C   0  0  0  0  0  0  0  0  0  0  0  0
   65.6680   32.5430   51.1390 C   0  0  0  0  0  0  0  0  0  0  0  0
   65.5690   32.7550   49.7600 C   0  0  0  0  0  0  0  0  0  0  0  0
   64.3440   33.1200   49.1920 C   0  0  0  0  0  0  0  0  0  0  0  0
   64.2520   33.3180   47.8820 O   0  0  0  0  0  0  0  0  0  0  0  0
   63.1160   33.6640   47.2820 C   0  0  0  0  0  0  0  0  0  0  0  0
   63.1200   33.8440   46.0350 O   0  0  0  0  0  0  0  0  0  0  0  0
   58.3480   33.0890   43.2970 C   0  0  0  0  0  0  0  0  0  0  0  0
   57.6850   32.0310   42.6910 C   0  0  0  0  0  0  0  0  0  0  0  0
   57.5750   32.0210   41.4350 O   0  0  0  0  0  0  0  0  0  0  0  0
   57.1570   31.0240   43.4480 N   0  0  0  0  0  0  0  0  0  0  0  0
   56.4700   29.8950   42.7950 C   0  0  0  0  0  0  0  0  0  0  0  0
   57.3300   31.0280   44.8090 C   0  0  0  0  0  0  0  0  0  0  0  0
   56.8640   30.0760   45.4940 O   0  0  0  0  0  0  0  0  0  0  0  0
   57.1387   32.0644   47.3657 H   0  0  0  0  0  0  0  0  0  0  0  0
   58.6812   31.1548   47.2238 H   0  0  0  0  0  0  0  0  0  0  0  0
   58.6945   32.9510   47.2238 H   0  0  0  0  0  0  0  0  0  0  0  0
   59.4341   35.0284   44.5236 H   0  0  0  0  0  0  0  0  0  0  0  0
   58.4999   34.7589   46.0453 H   0  0  0  0  0  0  0  0  0  0  0  0
   61.1160   33.3600   45.4550 H   0  0  0  0  0  0  0  0  0  0  0  0
   61.0951   33.7608   50.0353 H   0  0  0  0  0  0  0  0  0  0  0  0
   62.4279   33.1771   52.0397 H   0  0  0  0  0  0  0  0  0  0  0  0
   64.6238   32.5279   53.0392 H   0  0  0  0  0  0  0  0  0  0  0  0
   66.6329   32.2563   51.5826 H   0  0  0  0  0  0  0  0  0  0  0  0
   66.4562   32.6345   49.1210 H   0  0  0  0  0  0  0  0  0  0  0  0
   58.7555   33.9092   42.6877 H   0  0  0  0  0  0  0  0  0  0  0  0
   56.0603   29.2217   43.5624 H   0  0  0  0  0  0  0  0  0  0  0  0
   55.6513   30.2773   42.1677 H   0  0  0  0  0  0  0  0  0  0  0  0
   57.1858   29.3435   42.1677 H   0  0  0  0  0  0  0  0  0  0  0  0
  1  2  1  0
  2  3  1  0
  3  4  1  0
  4  5  1  0
  5  6  1  0
  6  7  2  0
  6  8  1  0
  8  9  2  0
  9 10  1  0
 10 11  2  0
 11 12  1  0
 12 13  2  0
 13 14  1  0
 14 15  2  0
 15 16  1  0
 16 17  1  0
 17 18  2  0
  3 19  2  0
 19 20  1  0
 20 21  2  0
 20 22  1  0
 22 23  1  0
 22 24  1  0
 24 25  2  0
 24  2  1  0
 17  8  1  0
 15 10  1  0
  1 26  1  0
  1 27  1  0
  1 28  1  0
  4 29  1  0
  4 30  1  0
  5 31  1  0
  9 32  1  0
 11 33  1  0
 12 34  1  0
 13 35  1  0
 14 36  1  0
 19 37  1  0
 23 38  1  0
 23 39  1  0
 23 40  1  0
M  END
>  <UniqueID>  (84) 
82

>  <SMILES>  (84) 
Cn1c(CNC(=O)c2cc3ccccc3oc2=O)cc(=O)n(C)c1=O

>  <Energy>  (84) 
57.5497497409986

>  <Genealogy>  (84) 
Cn1c(CNC(=O)c2cc3ccccc3oc2=O)cc(=O)n(C)c1=O (3D coordinates assigned)
Cn1c(CNC(=O)c2cc3ccccc3oc2=O)cc(=O)n(C)c1=O (optimized conformer: 57.5497497409986 kcal/mol)

>  <smiles>  (84) 
Cn1c(CNC(=O)c2cc3ccccc3oc2=O)cc(=O)n(C)c1=O

>  <score_type>  (84) 
oracle

>  <origin>  (84) 
adg

>  <m_score__min__energy>  (84) 
-8.1300000000000008

>  <m_primary>  (84) 
energy

$$$$
84:0
     RDKit          3D

 56 60  0  0  0  0  0  0  0  0999 V2000
   58.3340   33.6430   52.4780 C   0  0  0  0  0  0  0  0  0  0  0  0
   58.4170   33.1000   51.2590 C   0  0  0  0  0  0  0  0  0  0  0  0
   57.6130   31.8870   50.8790 C   0  0  0  0  0  0  0  0  0  0  0  0
   58.3650   30.6540   51.1500 N   0  0  0  0  0  0  0  0  0  0  0  0
   57.8300   29.7110   52.1140 C   0  0  0  0  0  0  0  0  0  0  0  0
   56.6120   29.7510   52.4370 O   0  0  0  0  0  0  0  0  0  0  0  0
   58.7230   28.6280   52.7290 C   0  0  0  0  0  0  0  0  0  0  0  0
   60.1190   28.7770   52.4550 O   0  0  0  0  0  0  0  0  0  0  0  0
   60.2750   29.1910   51.1170 C   0  0  2  0  0  0  0  0  0  0  0  0
   61.6900   29.2700   50.5670 C   0  0  2  0  0  0  0  0  0  0  0  0
   62.7440   29.6350   51.6270 C   0  0  0  0  0  0  0  0  0  0  0  0
   63.0660   31.0130   51.5420 O   0  0  0  0  0  0  0  0  0  0  0  0
   64.0980   31.2470   50.6020 C   0  0  0  0  0  0  0  0  0  0  0  0
   63.6190   32.1590   49.5050 C   0  0  0  0  0  0  0  0  0  0  0  0
   63.0010   33.3800   49.8250 C   0  0  0  0  0  0  0  0  0  0  0  0
   62.5390   34.2220   48.8090 C   0  0  0  0  0  0  0  0  0  0  0  0
   62.6860   33.8510   47.4690 C   0  0  0  0  0  0  0  0  0  0  0  0
   63.2950   32.6370   47.1440 C   0  0  0  0  0  0  0  0  0  0  0  0
   63.7600   31.7910   48.1560 C   0  0  0  0  0  0  0  0  0  0  0  0
   61.6710   30.2410   49.5300 O   0  0  0  0  0  0  0  0  0  0  0  0
   60.5090   31.0450   49.6940 C   0  0  1  0  0  0  0  0  0  0  0  0
   59.6620   30.9610   48.4870 N   0  0  0  0  0  0  0  0  0  0  0  0
   59.2650   29.8580   47.7930 C   0  0  0  0  0  0  0  0  0  0  0  0
   59.5490   28.6810   48.1340 O   0  0  0  0  0  0  0  0  0  0  0  0
   58.5810   30.1260   46.6540 N   0  0  0  0  0  0  0  0  0  0  0  0
   58.5770   31.4690   46.6220 C   0  0  0  0  0  0  0  0  0  0  0  0
   58.0320   32.2900   45.6340 C   0  0  0  0  0  0  0  0  0  0  0  0
   57.1890   31.6170   44.2490 Cl  0  0  0  0  0  0  0  0  0  0  0  0
   58.1870   33.6810   45.7760 C   0  0  0  0  0  0  0  0  0  0  0  0
   58.8810   34.2120   46.8850 C   0  0  0  0  0  0  0  0  0  0  0  0
   59.4240   33.3590   47.8630 C   0  0  0  0  0  0  0  0  0  0  0  0
   59.2420   31.9790   47.7030 C   0  0  0  0  0  0  0  0  0  0  0  0
   59.8240   30.6050   50.9990 C   0  0  1  0  0  0  0  0  0  0  0  0
   58.9345   34.5304   52.7269 H   0  0  0  0  0  0  0  0  0  0  0  0
   57.6652   33.2023   53.2320 H   0  0  0  0  0  0  0  0  0  0  0  0
   59.0901   33.5517   50.5154 H   0  0  0  0  0  0  0  0  0  0  0  0
   56.6804   31.8757   51.4623 H   0  0  0  0  0  0  0  0  0  0  0  0
   57.3920   31.9347   49.8025 H   0  0  0  0  0  0  0  0  0  0  0  0
   58.5840   28.6482   53.8200 H   0  0  0  0  0  0  0  0  0  0  0  0
   58.4166   27.6760   52.2710 H   0  0  0  0  0  0  0  0  0  0  0  0
   59.7136   28.4226   50.5652 H   0  0  0  0  0  0  0  0  0  0  0  0
   61.9865   28.2763   50.2001 H   0  0  0  0  0  0  0  0  0  0  0  0
   62.3437   29.4163   52.6280 H   0  0  0  0  0  0  0  0  0  0  0  0
   63.6531   29.0420   51.4487 H   0  0  0  0  0  0  0  0  0  0  0  0
   64.9530   31.7140   51.1127 H   0  0  0  0  0  0  0  0  0  0  0  0
   64.3980   30.2861   50.1584 H   0  0  0  0  0  0  0  0  0  0  0  0
   62.8804   33.6741   50.8781 H   0  0  0  0  0  0  0  0  0  0  0  0
   62.0589   35.1782   49.0644 H   0  0  0  0  0  0  0  0  0  0  0  0
   62.3221   34.5150   46.6711 H   0  0  0  0  0  0  0  0  0  0  0  0
   63.4092   32.3454   46.0895 H   0  0  0  0  0  0  0  0  0  0  0  0
   64.2374   30.8349   47.8953 H   0  0  0  0  0  0  0  0  0  0  0  0
   60.7468   32.1144   49.7930 H   0  0  0  0  0  0  0  0  0  0  0  0
   57.7653   34.3586   45.0190 H   0  0  0  0  0  0  0  0  0  0  0  0
   58.9980   35.3012   46.9850 H   0  0  0  0  0  0  0  0  0  0  0  0
   59.9740   33.7626   48.7259 H   0  0  0  0  0  0  0  0  0  0  0  0
   60.1088   31.3351   51.7709 H   0  0  0  0  0  0  0  0  0  0  0  0
  1  2  2  0
  2  3  1  0
  3  4  1  0
  4  5  1  0
  5  6  2  0
  5  7  1  0
  7  8  1  0
  8  9  1  0
  9 10  1  0
 10 11  1  0
 11 12  1  0
 12 13  1  0
 13 14  1  0
 14 15  2  0
 15 16  1  0
 16 17  2  0
 17 18  1  0
 18 19  2  0
 10 20  1  0
 20 21  1  0
 21 22  1  0
 22 23  1  0
 23 24  2  0
 23 25  1  0
 25 26  1  0
 26 27  2  0
 27 28  1  0
 27 29  1  0
 29 30  2  0
 30 31  1  0
 31 32  2  0
 21 33  1  0
 33  4  1  0
 33  9  1  0
 19 14  1  0
 32 22  1  0
 32 26  1  0
  1 34  1  0
  1 35  1  0
  2 36  1  0
  3 37  1  0
  3 38  1  0
  7 39  1  0
  7 40  1  0
  9 41  1  6
 10 42  1  6
 11 43  1  0
 11 44  1  0
 13 45  1  0
 13 46  1  0
 15 47  1  0
 16 48  1  0
 17 49  1  0
 18 50  1  0
 19 51  1  0
 21 52  1  1
 29 53  1  0
 30 54  1  0
 31 55  1  0
 33 56  1  1
M  CHG  1  25  -1
M  END
>  <UniqueID>  (85) 
83

>  <SMILES>  (85) 
C=CCN1C(=O)CO[C@H]2C1C(n1c(=O)[n-]c3c(Cl)cccc31)O[C@H]2COCc1ccccc1

>  <Energy>  (85) 
121.76253120921581

>  <Genealogy>  (85) 
C=CCN1C(=O)COC2C(COCc3ccccc3)OC(n3c(=O)[n-]c4c(Cl)cccc43)C21 (protonated)
C=CCN1C(=O)CO[C@H]2C1C(n1c(=O)[n-]c3c(Cl)cccc31)O[C@H]2COCc1ccccc1 (chirality)
C=CCN1C(=O)CO[C@H]2C1C(n1c(=O)[n-]c3c(Cl)cccc31)O[C@H]2COCc1ccccc1 (3D coordinates assigned)
C=CCN1C(=O)CO[C@H]2C1C(n1c(=O)[n-]c3c(Cl)cccc31)O[C@H]2COCc1ccccc1 (nonaromatic ring conformer: 121.76253120921581 kcal/mol)

>  <smiles>  (85) 
C=CCN1C(=O)COC2C(COCc3ccccc3)OC(n3c(=O)[nH]c4c(Cl)cccc43)C21

>  <score_type>  (85) 
oracle

>  <origin>  (85) 
adg

>  <m_score__min__energy>  (85) 
-9.1999999999999993

>  <m_primary>  (85) 
energy

$$$$
85:0
     RDKit          3D

 57 59  0  0  0  0  0  0  0  0999 V2000
   57.2180   24.5910   43.6780 C   0  0  0  0  0  0  0  0  0  0  0  0
   56.2500   23.6350   42.9900 C   0  0  0  0  0  0  0  0  0  0  0  0
   55.6530   22.7240   44.0010 N   0  0  0  0  0  0  0  0  0  0  0  0
   56.6930   22.0550   44.8180 C   0  0  0  0  0  0  0  0  0  0  0  0
   57.7920   21.4560   43.9390 C   0  0  0  0  0  0  0  0  0  0  0  0
   54.6890   23.4310   44.8750 C   0  0  0  0  0  0  0  0  0  0  0  0
   55.3590   23.9370   46.1600 C   0  0  0  0  0  0  0  0  0  0  0  0
   55.1520   25.3750   46.3240 N   0  0  0  0  0  0  0  0  0  0  0  0
   56.0920   26.2720   46.2880 C   0  0  0  0  0  0  0  0  0  0  0  0
   55.8760   27.4330   45.6160 N   0  0  0  0  0  0  0  0  0  0  0  0
   56.8290   28.4020   45.5420 C   0  0  0  0  0  0  0  0  0  0  0  0
   56.5470   29.6560   44.8100 C   0  0  0  0  0  0  0  0  0  0  0  0
   55.3540   29.9930   44.5890 O   0  0  0  0  0  0  0  0  0  0  0  0
   57.6010   30.5370   44.3940 N   0  0  0  0  0  0  0  0  0  0  0  0
   57.8790   31.8280   44.9560 C   0  0  0  0  0  0  0  0  0  0  0  0
   57.4790   33.0080   44.3090 C   0  0  0  0  0  0  0  0  0  0  0  0
   57.7690   34.2520   44.8730 C   0  0  0  0  0  0  0  0  0  0  0  0
   58.4460   34.3280   46.0920 C   0  0  0  0  0  0  0  0  0  0  0  0
   58.8180   33.1570   46.7680 C   0  0  0  0  0  0  0  0  0  0  0  0
   59.5520   33.2330   48.0810 C   0  0  0  0  0  0  0  0  0  0  0  0
   61.0400   33.2480   47.8570 C   0  0  0  0  0  0  0  0  0  0  0  0
   61.9100   32.6690   48.7990 C   0  0  0  0  0  0  0  0  0  0  0  0
   63.2910   32.6790   48.5820 C   0  0  0  0  0  0  0  0  0  0  0  0
   63.8130   33.2580   47.4230 C   0  0  0  0  0  0  0  0  0  0  0  0
   62.9540   33.8290   46.4770 C   0  0  0  0  0  0  0  0  0  0  0  0
   61.5740   33.8280   46.6920 C   0  0  0  0  0  0  0  0  0  0  0  0
   58.5220   31.9080   46.1960 C   0  0  0  0  0  0  0  0  0  0  0  0
   58.0700   28.1880   46.1550 C   0  0  0  0  0  0  0  0  0  0  0  0
   58.2770   26.9910   46.8450 C   0  0  0  0  0  0  0  0  0  0  0  0
   59.3750   26.7730   47.4200 O   0  0  0  0  0  0  0  0  0  0  0  0
   57.2900   26.0610   46.9000 N   0  0  0  0  0  0  0  0  0  0  0  0
   57.1178   24.4921   44.7690 H   0  0  0  0  0  0  0  0  0  0  0  0
   58.2484   24.3463   43.3807 H   0  0  0  0  0  0  0  0  0  0  0  0
   56.9862   25.6244   43.3807 H   0  0  0  0  0  0  0  0  0  0  0  0
   55.4521   24.2113   42.4988 H   0  0  0  0  0  0  0  0  0  0  0  0
   56.7911   23.0435   42.2368 H   0  0  0  0  0  0  0  0  0  0  0  0
   57.1419   22.7922   45.4999 H   0  0  0  0  0  0  0  0  0  0  0  0
   56.2183   21.2395   45.3834 H   0  0  0  0  0  0  0  0  0  0  0  0
   58.5788   21.0272   44.5770 H   0  0  0  0  0  0  0  0  0  0  0  0
   57.3640   20.6664   43.3039 H   0  0  0  0  0  0  0  0  0  0  0  0
   58.2236   22.2436   43.3039 H   0  0  0  0  0  0  0  0  0  0  0  0
   54.2731   24.2894   44.3271 H   0  0  0  0  0  0  0  0  0  0  0  0
   53.8953   22.7232   45.1560 H   0  0  0  0  0  0  0  0  0  0  0  0
   54.9267   23.4100   47.0233 H   0  0  0  0  0  0  0  0  0  0  0  0
   56.4396   23.7425   46.0934 H   0  0  0  0  0  0  0  0  0  0  0  0
   56.9352   32.9524   43.3544 H   0  0  0  0  0  0  0  0  0  0  0  0
   57.4636   35.1738   44.3562 H   0  0  0  0  0  0  0  0  0  0  0  0
   58.6884   35.3103   46.5237 H   0  0  0  0  0  0  0  0  0  0  0  0
   59.2566   34.1526   48.6074 H   0  0  0  0  0  0  0  0  0  0  0  0
   59.2933   32.3495   48.6831 H   0  0  0  0  0  0  0  0  0  0  0  0
   61.5019   32.2066   49.7099 H   0  0  0  0  0  0  0  0  0  0  0  0
   63.9672   32.2305   49.3247 H   0  0  0  0  0  0  0  0  0  0  0  0
   64.8999   33.2652   47.2537 H   0  0  0  0  0  0  0  0  0  0  0  0
   63.3666   34.2795   45.5622 H   0  0  0  0  0  0  0  0  0  0  0  0
   60.9028   34.2821   45.9482 H   0  0  0  0  0  0  0  0  0  0  0  0
   58.7982   30.9855   46.7277 H   0  0  0  0  0  0  0  0  0  0  0  0
   58.8647   28.9462   46.0944 H   0  0  0  0  0  0  0  0  0  0  0  0
  1  2  1  0
  2  3  1  0
  3  4  1  0
  4  5  1  0
  3  6  1  0
  6  7  1  0
  7  8  1  0
  8  9  2  3
  9 10  1  0
 10 11  1  0
 11 12  1  0
 12 13  2  0
 12 14  1  0
 14 15  1  0
 15 16  2  0
 16 17  1  0
 17 18  2  0
 18 19  1  0
 19 20  1  0
 20 21  1  0
 21 22  2  0
 22 23  1  0
 23 24  2  0
 24 25  1  0
 25 26  2  0
 19 27  2  0
 11 28  2  0
 28 29  1  0
 29 30  2  0
 29 31  1  0
 31  9  1  0
 27 15  1  0
 26 21  1  0
  1 32  1  0
  1 33  1  0
  1 34  1  0
  2 35  1  0
  2 36  1  0
  4 37  1  0
  4 38  1  0
  5 39  1  0
  5 40  1  0
  5 41  1  0
  6 42  1  0
  6 43  1  0
  7 44  1  0
  7 45  1  0
 16 46  1  0
 17 47  1  0
 18 48  1  0
 20 49  1  0
 20 50  1  0
 22 51  1  0
 23 52  1  0
 24 53  1  0
 25 54  1  0
 26 55  1  0
 27 56  1  0
 28 57  1  0
M  CHG  3  10  -1  14  -1  31  -1
M  END
>  <UniqueID>  (86) 
84

>  <SMILES>  (86) 
CCN(CC)CCN=c1[n-]c(C(=O)[N-]c2cccc(Cc3ccccc3)c2)cc(=O)[n-]1

>  <Energy>  (86) 
59.12313732917157

>  <Genealogy>  (86) 
CCN(CC)CCN=c1[n-]c(C(=O)[N-]c2cccc(Cc3ccccc3)c2)cc(=O)[n-]1 (protonated)
CCN(CC)CCN=c1[n-]c(C(=O)[N-]c2cccc(Cc3ccccc3)c2)cc(=O)[n-]1 (3D coordinates assigned)
CCN(CC)CCN=c1[n-]c(C(=O)[N-]c2cccc(Cc3ccccc3)c2)cc(=O)[n-]1 (optimized conformer: 59.12313732917157 kcal/mol)

>  <smiles>  (86) 
CCN(CC)CCN=c1[nH]c(C(=O)Nc2cccc(Cc3ccccc3)c2)cc(=O)[nH]1

>  <score_type>  (86) 
oracle

>  <origin>  (86) 
adg

>  <m_score__min__energy>  (86) 
-14.73

>  <m_primary>  (86) 
energy

$$$$
86:0
     RDKit          3D

 46 48  0  0  0  0  0  0  0  0999 V2000
   50.0130   33.3610   52.0050 H   0  0  0  0  0  0  0  0  0  0  0  0
   51.0230   33.1410   51.8550 N   0  0  0  0  0  0  0  0  0  0  0  0
   51.4200   32.0180   51.0700 C   0  0  0  0  0  0  0  0  0  0  0  0
   51.0070   31.9210   49.8810 O   0  0  0  0  0  0  0  0  0  0  0  0
   52.3050   30.9750   51.6410 C   0  0  0  0  0  0  0  0  0  0  0  0
   51.7720   29.7660   52.1120 C   0  0  0  0  0  0  0  0  0  0  0  0
   50.6901   29.5777   52.0480 H   0  0  0  0  0  0  0  0  0  0  0  0
   52.6190   28.8030   52.6620 C   0  0  0  0  0  0  0  0  0  0  0  0
   52.2005   27.8590   53.0411 H   0  0  0  0  0  0  0  0  0  0  0  0
   53.9590   29.0250   52.7320 N   0  0  0  0  0  0  0  0  0  0  0  0
   54.5630   28.2800   53.1480 H   0  0  0  0  0  0  0  0  0  0  0  0
   54.5220   30.1790   52.2670 C   0  0  0  0  0  0  0  0  0  0  0  0
   55.9900   30.3560   52.3870 C   0  0  0  0  0  0  0  0  0  0  0  0
   56.5906   29.5035   52.7372 H   0  0  0  0  0  0  0  0  0  0  0  0
   56.6240   31.5010   52.0910 C   0  0  0  0  0  0  0  0  0  0  0  0
   56.1908   32.4444   52.4549 H   0  0  0  0  0  0  0  0  0  0  0  0
   57.8770   31.5640   51.3000 C   0  0  0  0  0  0  0  0  0  0  0  0
   58.1360   30.5510   50.3630 C   0  0  0  0  0  0  0  0  0  0  0  0
   57.4208   29.7239   50.2427 H   0  0  0  0  0  0  0  0  0  0  0  0
   59.2940   30.5840   49.5820 C   0  0  0  0  0  0  0  0  0  0  0  0
   59.4863   29.7775   48.8591 H   0  0  0  0  0  0  0  0  0  0  0  0
   60.2110   31.6320   49.7100 C   0  0  0  0  0  0  0  0  0  0  0  0
   61.3550   31.6160   48.8960 O   0  0  0  0  0  0  0  0  0  0  0  0
   61.6900   32.6060   47.9240 C   0  0  0  0  0  0  0  0  0  0  0  0
   62.2077   33.4399   48.4206 H   0  0  0  0  0  0  0  0  0  0  0  0
   62.3434   32.1515   47.1647 H   0  0  0  0  0  0  0  0  0  0  0  0
   60.4520   33.1240   47.2510 C   0  0  0  0  0  0  0  0  0  0  0  0
   59.6480   32.2620   46.5700 N   0  0  0  0  0  0  0  0  0  0  0  0
   58.5000   32.6710   45.9610 C   0  0  0  0  0  0  0  0  0  0  0  0
   57.6740   31.6770   45.2020 C   0  0  0  0  0  0  0  0  0  0  0  0
   56.6474   32.0588   45.1008 H   0  0  0  0  0  0  0  0  0  0  0  0
   58.1171   31.5261   44.2066 H   0  0  0  0  0  0  0  0  0  0  0  0
   57.6480   30.4520   45.8830 O   0  0  0  0  0  0  0  0  0  0  0  0
   58.4150   30.4640   46.5140 H   0  0  0  0  0  0  0  0  0  0  0  0
   58.1270   34.0190   46.0180 C   0  0  0  0  0  0  0  0  0  0  0  0
   57.2105   34.3639   45.5169 H   0  0  0  0  0  0  0  0  0  0  0  0
   58.9300   34.9200   46.7170 C   0  0  0  0  0  0  0  0  0  0  0  0
   58.6452   35.9810   46.7735 H   0  0  0  0  0  0  0  0  0  0  0  0
   60.0950   34.4760   47.3450 C   0  0  0  0  0  0  0  0  0  0  0  0
   60.7260   35.1798   47.9076 H   0  0  0  0  0  0  0  0  0  0  0  0
   59.9510   32.6580   50.6350 C   0  0  0  0  0  0  0  0  0  0  0  0
   60.6616   33.4908   50.7420 H   0  0  0  0  0  0  0  0  0  0  0  0
   58.7940   32.6260   51.4200 C   0  0  0  0  0  0  0  0  0  0  0  0
   58.5987   33.4370   52.1370 H   0  0  0  0  0  0  0  0  0  0  0  0
   53.6920   31.1830   51.7290 C   0  0  0  0  0  0  0  0  0  0  0  0
   54.1298   32.1292   51.3781 H   0  0  0  0  0  0  0  0  0  0  0  0
  1  2  1  0
  2  3  1  0
  3  4  2  0
  3  5  1  0
  5  6  2  0
  6  7  1  0
  6  8  1  0
  8  9  1  0
  8 10  2  0
 10 11  1  0
 10 12  1  0
 12 13  1  0
 13 14  1  0
 13 15  2  0
 15 16  1  0
 15 17  1  0
 17 18  2  0
 18 19  1  0
 18 20  1  0
 20 21  1  0
 20 22  2  0
 22 23  1  0
 23 24  1  0
 24 25  1  0
 24 26  1  0
 24 27  1  0
 27 28  2  0
 28 29  1  0
 29 30  1  0
 30 31  1  0
 30 32  1  0
 30 33  1  0
 33 34  1  0
 29 35  2  0
 35 36  1  0
 35 37  1  0
 37 38  1  0
 37 39  2  0
 39 40  1  0
 22 41  1  0
 41 42  1  0
 41 43  2  0
 43 44  1  0
 12 45  2  0
 45 46  1  0
 45  5  1  0
 43 17  1  0
 39 27  1  0
M  CHG  2   2  -1  10   1
M  END
>  <UniqueID>  (87) 
85

>  <SMILES>  (87) 
[NH-]C(=O)c1cc[nH+]c(/C=C/c2ccc(OCc3cccc(CO)n3)cc2)c1

>  <Energy>  (87) 
52.74634465730199

>  <Genealogy>  (87) 
[NH-]C(=O)c1cc[nH+]c(C=Cc2ccc(OCc3cccc(CO)n3)cc2)c1 (protonated)
[NH-]C(=O)c1cc[nH+]c(/C=C/c2ccc(OCc3cccc(CO)n3)cc2)c1 (cis-trans isomerization)
[NH-]C(=O)c1cc[nH+]c(/C=C/c2ccc(OCc3cccc(CO)n3)cc2)c1 (3D coordinates assigned)
[NH-]C(=O)c1cc[nH+]c(/C=C/c2ccc(OCc3cccc(CO)n3)cc2)c1 (optimized conformer: 52.74634465730199 kcal/mol)

>  <smiles>  (87) 
NC(=O)c1ccnc(C=Cc2ccc(OCc3cccc(CO)n3)cc2)c1

>  <score_type>  (87) 
oracle

>  <origin>  (87) 
adg

>  <m_score__min__energy>  (87) 
-10.859999999999999

>  <m_primary>  (87) 
energy

$$$$
87:0
     RDKit          3D

 38 40  0  0  0  0  0  0  0  0999 V2000
   58.3400   34.1700   46.4980 C   0  0  0  0  0  0  0  0  0  0  0  0
   58.1870   33.0700   45.4890 C   0  0  0  0  0  0  0  0  0  0  0  0
   58.0620   33.3750   44.1260 C   0  0  0  0  0  0  0  0  0  0  0  0
   57.8910   32.3510   43.1910 C   0  0  0  0  0  0  0  0  0  0  0  0
   57.8150   31.0200   43.6110 C   0  0  0  0  0  0  0  0  0  0  0  0
   57.8900   30.7030   44.9790 C   0  0  0  0  0  0  0  0  0  0  0  0
   57.8160   29.3450   45.4450 N   0  0  0  0  0  0  0  0  0  0  0  0
   56.6240   28.5400   45.4150 C   0  0  0  0  0  0  0  0  0  0  0  0
   55.5620   28.9830   44.9010 O   0  0  0  0  0  0  0  0  0  0  0  0
   56.6230   27.1780   45.9700 C   0  0  0  0  0  0  0  0  0  0  0  0
   55.5220   26.4070   45.9950 N   0  0  0  0  0  0  0  0  0  0  0  0
   55.9530   25.2310   46.4930 C   0  0  0  0  0  0  0  0  0  0  0  0
   57.2680   25.2180   46.7930 N   0  0  0  0  0  0  0  0  0  0  0  0
   57.6910   26.4550   46.4750 C   0  0  0  0  0  0  0  0  0  0  0  0
   59.0710   26.9110   46.7370 C   0  0  0  0  0  0  0  0  0  0  0  0
   59.9690   26.6420   45.8960 O   0  0  0  0  0  0  0  0  0  0  0  0
   59.4280   27.6560   47.9100 N   0  0  0  0  0  0  0  0  0  0  0  0
   59.8120   29.0380   47.9610 C   0  0  0  0  0  0  0  0  0  0  0  0
   60.7640   29.5050   47.0450 C   0  0  0  0  0  0  0  0  0  0  0  0
   61.1500   30.8470   47.0460 C   0  0  0  0  0  0  0  0  0  0  0  0
   60.6060   31.7300   47.9810 C   0  0  0  0  0  0  0  0  0  0  0  0
   59.6880   31.2670   48.9270 C   0  0  0  0  0  0  0  0  0  0  0  0
   59.2960   29.9230   48.9290 C   0  0  0  0  0  0  0  0  0  0  0  0
   58.4600   29.4880   49.9030 F   0  0  0  0  0  0  0  0  0  0  0  0
   58.0970   31.7340   45.9090 C   0  0  0  0  0  0  0  0  0  0  0  0
   58.2813   33.7481   47.5122 H   0  0  0  0  0  0  0  0  0  0  0  0
   59.3150   34.6604   46.3608 H   0  0  0  0  0  0  0  0  0  0  0  0
   57.5358   34.9079   46.3608 H   0  0  0  0  0  0  0  0  0  0  0  0
   58.0987   34.4225   43.7923 H   0  0  0  0  0  0  0  0  0  0  0  0
   57.8159   32.5931   42.1206 H   0  0  0  0  0  0  0  0  0  0  0  0
   57.6960   30.2172   42.8684 H   0  0  0  0  0  0  0  0  0  0  0  0
   58.6630   28.9530   45.9120 H   0  0  0  0  0  0  0  0  0  0  0  0
   55.2939   24.3629   46.6410 H   0  0  0  0  0  0  0  0  0  0  0  0
   61.2107   28.8091   46.3196 H   0  0  0  0  0  0  0  0  0  0  0  0
   61.8830   31.2087   46.3099 H   0  0  0  0  0  0  0  0  0  0  0  0
   60.9002   32.7899   47.9727 H   0  0  0  0  0  0  0  0  0  0  0  0
   59.2720   31.9606   49.6725 H   0  0  0  0  0  0  0  0  0  0  0  0
   58.1896   31.4921   46.9781 H   0  0  0  0  0  0  0  0  0  0  0  0
  1  2  1  0
  2  3  2  0
  3  4  1  0
  4  5  2  0
  5  6  1  0
  6  7  1  0
  7  8  1  0
  8  9  2  0
  8 10  1  0
 10 11  1  0
 11 12  1  0
 12 13  2  0
 13 14  1  0
 14 15  1  0
 15 16  2  0
 15 17  1  0
 17 18  1  0
 18 19  2  0
 19 20  1  0
 20 21  2  0
 21 22  1  0
 22 23  2  0
 23 24  1  0
  6 25  2  0
 25  2  1  0
 14 10  2  0
 23 18  1  0
  1 26  1  0
  1 27  1  0
  1 28  1  0
  3 29  1  0
  4 30  1  0
  5 31  1  0
  7 32  1  0
 12 33  1  0
 19 34  1  0
 20 35  1  0
 21 36  1  0
 22 37  1  0
 25 38  1  0
M  CHG  2  11  -1  17  -1
M  END
>  <UniqueID>  (88) 
86

>  <SMILES>  (88) 
Cc1cccc(NC(=O)c2[n-]cnc2C(=O)[N-]c2ccccc2F)c1

>  <Energy>  (88) 
80.40544969693856

>  <Genealogy>  (88) 
Cc1cccc(NC(=O)c2[n-]cnc2C(=O)[N-]c2ccccc2F)c1 (protonated)
Cc1cccc(NC(=O)c2[n-]cnc2C(=O)[N-]c2ccccc2F)c1 (3D coordinates assigned)
Cc1cccc(NC(=O)c2[n-]cnc2C(=O)[N-]c2ccccc2F)c1 (optimized conformer: 80.40544969693856 kcal/mol)

>  <smiles>  (88) 
Cc1cccc(NC(=O)c2[nH]cnc2C(=O)Nc2ccccc2F)c1

>  <score_type>  (88) 
oracle

>  <origin>  (88) 
adg

>  <m_score__min__energy>  (88) 
-10.210000000000001

>  <m_primary>  (88) 
energy

$$$$
