0:0
     RDKit          3D

 60 63  0  0  0  0  0  0  0  0999 V2000
   54.7880   30.4560   45.6280 H   0  0  0  0  0  0  0  0  0  0  0  0
   55.3840   29.7890   45.1550 O   0  0  0  0  0  0  0  0  0  0  0  0
   56.5290   30.1630   44.4780 N   0  0  0  0  0  0  0  0  0  0  0  0
   57.6750   30.4070   45.0470 C   0  0  0  0  0  0  0  0  0  0  0  0
   58.0270   31.7570   45.5280 C   0  0  0  0  0  0  0  0  0  0  0  0
   59.0140   31.9350   46.5130 C   0  0  0  0  0  0  0  0  0  0  0  0
   59.6530   30.8170   47.0650 O   0  0  0  0  0  0  0  0  0  0  0  0
   61.0640   30.6240   47.0400 C   0  0  0  0  0  0  0  0  0  0  0  0
   61.3112   29.6855   47.5577 H   0  0  0  0  0  0  0  0  0  0  0  0
   61.4005   30.5768   45.9938 H   0  0  0  0  0  0  0  0  0  0  0  0
   61.7590   31.7680   47.7270 C   0  0  0  0  0  0  0  0  0  0  0  0
   61.3820   32.1380   49.0280 C   0  0  0  0  0  0  0  0  0  0  0  0
   60.5671   31.6011   49.5356 H   0  0  0  0  0  0  0  0  0  0  0  0
   62.0380   33.1860   49.6810 C   0  0  0  0  0  0  0  0  0  0  0  0
   61.7378   33.4721   50.6999 H   0  0  0  0  0  0  0  0  0  0  0  0
   63.0740   33.8700   49.0410 C   0  0  0  0  0  0  0  0  0  0  0  0
   63.5880   34.6954   49.5553 H   0  0  0  0  0  0  0  0  0  0  0  0
   63.4580   33.5060   47.7470 C   0  0  0  0  0  0  0  0  0  0  0  0
   64.2753   34.0442   47.2447 H   0  0  0  0  0  0  0  0  0  0  0  0
   62.8040   32.4580   47.0900 C   0  0  0  0  0  0  0  0  0  0  0  0
   63.1088   32.1736   46.0721 H   0  0  0  0  0  0  0  0  0  0  0  0
   59.3500   33.1940   46.9130 N   0  0  0  0  0  0  0  0  0  0  0  0
   58.7630   34.2980   46.3800 C   0  0  0  0  0  0  0  0  0  0  0  0
   59.0525   35.2988   46.7330 H   0  0  0  0  0  0  0  0  0  0  0  0
   57.7930   34.1630   45.3850 C   0  0  0  0  0  0  0  0  0  0  0  0
   57.3205   35.0537   44.9453 H   0  0  0  0  0  0  0  0  0  0  0  0
   57.4290   32.8870   44.9540 C   0  0  0  0  0  0  0  0  0  0  0  0
   56.6729   32.7679   44.1639 H   0  0  0  0  0  0  0  0  0  0  0  0
   58.6330   29.3490   45.2040 N   0  0  0  0  0  0  0  0  0  0  0  0
   59.6420   29.6040   45.3000 H   0  0  0  0  0  0  0  0  0  0  0  0
   58.2910   27.9550   45.1470 C   0  0  0  0  0  0  0  0  0  0  0  0
   58.1100   27.3530   43.8950 C   0  0  0  0  0  0  0  0  0  0  0  0
   58.2194   27.9540   42.9802 H   0  0  0  0  0  0  0  0  0  0  0  0
   57.7920   25.9970   43.7980 C   0  0  0  0  0  0  0  0  0  0  0  0
   57.6362   25.5389   42.8101 H   0  0  0  0  0  0  0  0  0  0  0  0
   57.6710   25.2190   44.9560 C   0  0  0  0  0  0  0  0  0  0  0  0
   57.3320   23.7860   44.8480 C   0  0  0  0  0  0  0  0  0  0  0  0
   58.1910   22.9500   44.1150 C   0  0  0  0  0  0  0  0  0  0  0  0
   59.1008   23.3680   43.6594 H   0  0  0  0  0  0  0  0  0  0  0  0
   57.9000   21.5940   43.9600 C   0  0  0  0  0  0  0  0  0  0  0  0
   58.5783   20.9485   43.3828 H   0  0  0  0  0  0  0  0  0  0  0  0
   56.7490   21.0570   44.5370 C   0  0  0  0  0  0  0  0  0  0  0  0
   56.5166   19.9898   44.4065 H   0  0  0  0  0  0  0  0  0  0  0  0
   55.8920   21.8700   45.2790 C   0  0  0  0  0  0  0  0  0  0  0  0
   54.9874   21.4378   45.7316 H   0  0  0  0  0  0  0  0  0  0  0  0
   56.1730   23.2360   45.4540 C   0  0  0  0  0  0  0  0  0  0  0  0
   55.0850   24.2130   46.4590 S   0  0  0  0  0  0  0  0  0  0  0  0
   55.7360   24.4900   47.7840 O   0  0  0  0  0  0  0  0  0  0  0  0
   53.7940   23.4740   46.6770 O   0  0  0  0  0  0  0  0  0  0  0  0
   54.7250   25.7130   45.6760 N   0  0  0  0  0  0  0  0  0  0  0  0
   55.4520   25.8550   44.9400 H   0  0  0  0  0  0  0  0  0  0  0  0
   53.8180   25.5890   45.1730 H   0  0  0  0  0  0  0  0  0  0  0  0
   57.8580   25.8110   46.2110 C   0  0  0  0  0  0  0  0  0  0  0  0
   57.7423   25.2046   47.1215 H   0  0  0  0  0  0  0  0  0  0  0  0
   58.1930   27.1760   46.3200 C   0  0  0  0  0  0  0  0  0  0  0  0
   58.4560   27.7750   47.5620 O   0  0  0  0  0  0  0  0  0  0  0  0
   59.7210   27.7640   48.2160 C   0  0  0  0  0  0  0  0  0  0  0  0
   59.5704   27.7653   49.3056 H   0  0  0  0  0  0  0  0  0  0  0  0
   60.2770   26.8610   47.9238 H   0  0  0  0  0  0  0  0  0  0  0  0
   60.2926   28.6572   47.9238 H   0  0  0  0  0  0  0  0  0  0  0  0
  1  2  1  0
  2  3  1  0
  3  4  2  0
  4  5  1  0
  5  6  1  0
  6  7  1  0
  7  8  1  0
  8  9  1  0
  8 10  1  0
  8 11  1  0
 11 12  2  0
 12 13  1  0
 12 14  1  0
 14 15  1  0
 14 16  2  0
 16 17  1  0
 16 18  1  0
 18 19  1  0
 18 20  2  0
 20 21  1  0
  6 22  2  0
 22 23  1  0
 23 24  1  0
 23 25  2  0
 25 26  1  0
 25 27  1  0
 27 28  1  0
  4 29  1  0
 29 30  1  0
 29 31  1  0
 31 32  2  0
 32 33  1  0
 32 34  1  0
 34 35  1  0
 34 36  2  0
 36 37  1  0
 37 38  2  0
 38 39  1  0
 38 40  1  0
 40 41  1  0
 40 42  2  0
 42 43  1  0
 42 44  1  0
 44 45  1  0
 44 46  2  0
 46 47  1  0
 47 48  2  0
 47 49  2  0
 47 50  1  0
 50 51  1  0
 50 52  1  0
 36 53  1  0
 53 54  1  0
 53 55  2  0
 55 56  1  0
 56 57  1  0
 57 58  1  0
 57 59  1  0
 57 60  1  0
 27  5  2  0
 55 31  1  0
 20 11  1  0
 46 37  1  0
M  END
>  <UniqueID>  (1) 
1

>  <SMILES>  (1) 
COc1cc(-c2ccccc2S(N)(=O)=O)ccc1N/C(=N/O)c1cccnc1OCc1ccccc1

>  <Energy>  (1) 
81.50208083401711

>  <Genealogy>  (1) 
COc1cc(-c2ccccc2S(N)(=O)=O)ccc1N/C(=N/O)c1cccnc1OCc1ccccc1 (cis-trans isomerization)
COc1cc(-c2ccccc2S(N)(=O)=O)ccc1N/C(=N/O)c1cccnc1OCc1ccccc1 (3D coordinates assigned)
COc1cc(-c2ccccc2S(N)(=O)=O)ccc1N/C(=N/O)c1cccnc1OCc1ccccc1 (optimized conformer: 81.50208083401711 kcal/mol)

>  <smiles>  (1) 
COc1cc(-c2ccccc2S(N)(=O)=O)ccc1NC(=NO)c1cccnc1OCc1ccccc1

>  <score_type>  (1) 
oracle

>  <origin>  (1) 
adg

>  <m_score__min__energy>  (1) 
-10.73

>  <m_primary>  (1) 
energy

$$$$
1:0
     RDKit          3D

 30 32  0  0  0  0  0  0  0  0999 V2000
   55.5870   29.7180   43.3680 C   0  0  0  0  0  0  0  0  0  0  0  0
   56.7640   30.2090   44.1610 C   0  0  0  0  0  0  0  0  0  0  0  0
   57.6850   29.2950   44.6950 C   0  0  0  0  0  0  0  0  0  0  0  0
   58.7620   29.7450   45.4630 C   0  0  0  0  0  0  0  0  0  0  0  0
   58.9230   31.1100   45.7170 C   0  0  0  0  0  0  0  0  0  0  0  0
   59.9530   31.5250   46.4490 O   0  0  0  0  0  0  0  0  0  0  0  0
   60.1750   32.8090   46.7340 C   0  0  0  0  0  0  0  0  0  0  0  0
   61.3570   33.1610   47.5610 C   0  0  0  0  0  0  0  0  0  0  0  0
   61.2290   33.8750   48.7700 C   0  0  0  0  0  0  0  0  0  0  0  0
   62.3620   34.2010   49.5210 C   0  0  0  0  0  0  0  0  0  0  0  0
   63.6320   33.8270   49.0770 C   0  0  0  0  0  0  0  0  0  0  0  0
   63.7730   33.1300   47.8750 C   0  0  0  0  0  0  0  0  0  0  0  0
   62.6430   32.8030   47.1180 C   0  0  0  0  0  0  0  0  0  0  0  0
   59.2820   33.7870   46.2610 C   0  0  0  0  0  0  0  0  0  0  0  0
   58.1860   33.3990   45.4890 C   0  0  0  0  0  0  0  0  0  0  0  0
   57.3830   34.2730   45.0640 O   0  0  0  0  0  0  0  0  0  0  0  0
   57.9940   32.0380   45.2000 C   0  0  0  0  0  0  0  0  0  0  0  0
   56.9110   31.5790   44.4280 C   0  0  0  0  0  0  0  0  0  0  0  0
   54.7942   29.3873   44.0551 H   0  0  0  0  0  0  0  0  0  0  0  0
   55.2065   30.5324   42.7340 H   0  0  0  0  0  0  0  0  0  0  0  0
   55.8981   28.8746   42.7340 H   0  0  0  0  0  0  0  0  0  0  0  0
   57.5585   28.2184   44.5080 H   0  0  0  0  0  0  0  0  0  0  0  0
   59.4855   29.0227   45.8690 H   0  0  0  0  0  0  0  0  0  0  0  0
   60.2323   34.1771   49.1241 H   0  0  0  0  0  0  0  0  0  0  0  0
   62.2527   34.7543   50.4654 H   0  0  0  0  0  0  0  0  0  0  0  0
   64.5206   34.0811   49.6735 H   0  0  0  0  0  0  0  0  0  0  0  0
   64.7735   32.8379   47.5232 H   0  0  0  0  0  0  0  0  0  0  0  0
   62.7612   32.2612   46.1680 H   0  0  0  0  0  0  0  0  0  0  0  0
   59.4459   34.8487   46.4975 H   0  0  0  0  0  0  0  0  0  0  0  0
   56.1770   32.2964   44.0323 H   0  0  0  0  0  0  0  0  0  0  0  0
  1  2  1  0
  2  3  2  0
  3  4  1  0
  4  5  2  0
  5  6  1  0
  6  7  1  0
  7  8  1  0
  8  9  2  0
  9 10  1  0
 10 11  2  0
 11 12  1  0
 12 13  2  0
  7 14  2  0
 14 15  1  0
 15 16  2  0
 15 17  1  0
 17 18  2  0
 18  2  1  0
 17  5  1  0
 13  8  1  0
  1 19  1  0
  1 20  1  0
  1 21  1  0
  3 22  1  0
  4 23  1  0
  9 24  1  0
 10 25  1  0
 11 26  1  0
 12 27  1  0
 13 28  1  0
 14 29  1  0
 18 30  1  0
M  END
>  <UniqueID>  (2) 
2

>  <SMILES>  (2) 
Cc1ccc2oc(-c3ccccc3)cc(=O)c2c1

>  <Energy>  (2) 
40.69617395098431

>  <Genealogy>  (2) 
Cc1ccc2oc(-c3ccccc3)cc(=O)c2c1 (3D coordinates assigned)
Cc1ccc2oc(-c3ccccc3)cc(=O)c2c1 (optimized conformer: 40.69617395098431 kcal/mol)

>  <smiles>  (2) 
Cc1ccc2oc(-c3ccccc3)cc(=O)c2c1

>  <score_type>  (2) 
oracle

>  <origin>  (2) 
adg

>  <m_score__min__energy>  (2) 
-6.7400000000000002

>  <m_primary>  (2) 
energy

$$$$
2:0
     RDKit          2D

 46 49  0  0  0  0  0  0  0  0999 V2000
   11.1255    3.0991    0.0000 C   0  0  0  0  0  0  0  0  0  0  0  0
    9.9035    3.9690    0.0000 O   0  0  0  0  0  0  0  0  0  0  0  0
    8.5391    3.3456    0.0000 C   0  0  0  0  0  0  0  0  0  0  0  0
    8.3968    1.8524    0.0000 C   0  0  0  0  0  0  0  0  0  0  0  0
    7.0325    1.2290    0.0000 C   0  0  0  0  0  0  0  0  0  0  0  0
    5.8105    2.0989    0.0000 C   0  0  0  0  0  0  0  0  0  0  0  0
    4.4461    1.4755    0.0000 N   0  0  0  0  0  0  0  0  0  0  0  0
    3.2241    2.3454    0.0000 C   0  0  0  0  0  0  0  0  0  0  0  0
    3.3664    3.8386    0.0000 O   0  0  0  0  0  0  0  0  0  0  0  0
    1.8598    1.7220    0.0000 C   0  0  0  0  0  0  0  0  0  0  0  0
    1.8294    0.2223    0.0000 C   0  0  0  0  0  0  0  0  0  0  0  0
    0.6380   -0.6890    0.0000 C   0  0  0  0  0  0  0  0  0  0  0  0
   -1.0323   -0.7500    0.0000 C   0  0  0  0  0  0  0  0  0  0  0  0
   -1.0323    0.7500    0.0000 C   0  0  0  0  0  0  0  0  0  0  0  0
   -2.1470    1.7537    0.0000 C   0  0  0  0  0  0  0  0  0  0  0  0
   -1.8351    3.2209    0.0000 C   0  0  0  0  0  0  0  0  0  0  0  0
   -0.4086    3.6844    0.0000 C   0  0  0  0  0  0  0  0  0  0  0  0
    0.7062    2.6807    0.0000 C   0  0  0  0  0  0  0  0  0  0  0  0
    0.3943    1.2135    0.0000 C   0  0  0  0  0  0  0  0  0  0  0  0
   -0.3694    0.1624    0.0000 N   0  0  0  0  0  0  0  0  0  0  0  0
    2.7760    0.0000    0.0000 C   0  0  0  0  0  0  0  0  0  0  0  0
   -0.2686    0.3011    0.0000 S   0  0  0  0  0  0  0  0  0  0  0  0
    1.5922   -2.1163    0.0000 O   0  0  0  0  0  0  0  0  0  0  0  0
   -0.2158   -2.5838    0.0000 O   0  0  0  0  0  0  0  0  0  0  0  0
    5.9528    3.5921    0.0000 C   0  0  0  0  0  0  0  0  0  0  0  0
    4.7307    4.4620    0.0000 O   0  0  0  0  0  0  0  0  0  0  0  0
    4.8731    5.9552    0.0000 C   0  0  0  0  0  0  0  0  0  0  0  0
    7.3171    4.2155    0.0000 C   0  0  0  0  0  0  0  0  0  0  0  0
   12.3475    2.2293    0.0000 H   0  0  0  0  0  0  0  0  0  0  0  0
   11.9953    4.3212    0.0000 H   0  0  0  0  0  0  0  0  0  0  0  0
   10.2556    1.8771    0.0000 H   0  0  0  0  0  0  0  0  0  0  0  0
    9.6188    0.9825    0.0000 H   0  0  0  0  0  0  0  0  0  0  0  0
    6.8902   -0.2642    0.0000 H   0  0  0  0  0  0  0  0  0  0  0  0
    4.4869   -0.0239    0.0000 H   0  0  0  0  0  0  0  0  0  0  0  0
    3.2918   -0.1118    0.0000 H   0  0  0  0  0  0  0  0  0  0  0  0
    1.1190   -2.1098    0.0000 H   0  0  0  0  0  0  0  0  0  0  0  0
   -3.5736    1.2902    0.0000 H   0  0  0  0  0  0  0  0  0  0  0  0
   -2.9499    4.2246    0.0000 H   0  0  0  0  0  0  0  0  0  0  0  0
   -0.0967    5.1517    0.0000 H   0  0  0  0  0  0  0  0  0  0  0  0
    4.2648   -0.1828    0.0000 H   0  0  0  0  0  0  0  0  0  0  0  0
    2.7760   -1.5000    0.0000 H   0  0  0  0  0  0  0  0  0  0  0  0
    2.7760    1.5000    0.0000 H   0  0  0  0  0  0  0  0  0  0  0  0
    5.0154    7.4484    0.0000 H   0  0  0  0  0  0  0  0  0  0  0  0
    3.3798    6.0975    0.0000 H   0  0  0  0  0  0  0  0  0  0  0  0
    6.3663    5.8129    0.0000 H   0  0  0  0  0  0  0  0  0  0  0  0
    7.4594    5.7087    0.0000 H   0  0  0  0  0  0  0  0  0  0  0  0
  1  2  1  0
  2  3  1  0
  3  4  2  0
  4  5  1  0
  5  6  2  0
  6  7  1  0
  7  8  1  0
  8  9  2  0
  8 10  1  0
 10 11  2  0
 11 12  1  0
 12 13  2  0
 13 14  1  0
 14 15  1  0
 15 16  2  0
 16 17  1  0
 17 18  2  0
 18 19  1  0
 19 20  1  0
 20 21  1  0
 20 22  1  0
 22 23  2  0
 22 24  2  0
  6 25  1  0
 25 26  1  0
 26 27  1  0
 25 28  2  0
 28  3  1  0
 18 10  1  0
 22 13  1  0
 19 14  2  0
  1 29  1  0
  1 30  1  0
  1 31  1  0
  4 32  1  0
  5 33  1  0
  7 34  1  0
 11 35  1  0
 12 36  1  0
 15 37  1  0
 16 38  1  0
 17 39  1  0
 21 40  1  0
 21 41  1  0
 21 42  1  0
 27 43  1  0
 27 44  1  0
 27 45  1  0
 28 46  1  0
M  END
>  <smiles>  (3) 
COc1ccc(NC(=O)C2=CC=C3c4cccc2c4N(C)S3(=O)=O)c(OC)c1

>  <m_score__min__energy>  (3) 
nan

>  <m_primary>  (3) 
energy

$$$$
3:0
     RDKit          3D

 44 47  0  0  0  0  0  0  0  0999 V2000
   57.1425   25.4761   47.7491 H   0  0  0  0  0  0  0  0  0  0  0  0
   57.7530   26.1160   47.0950 C   0  0  0  0  0  0  0  0  0  0  0  0
   59.0710   26.3010   47.3670 N   0  0  0  0  0  0  0  0  0  0  0  0
   59.8580   27.0840   46.5840 C   0  0  0  0  0  0  0  0  0  0  0  0
   60.9218   27.2126   46.8327 H   0  0  0  0  0  0  0  0  0  0  0  0
   59.3210   27.7300   45.4590 C   0  0  0  0  0  0  0  0  0  0  0  0
   60.2000   28.5850   44.5890 C   0  0  0  0  0  0  0  0  0  0  0  0
   60.8445   29.2119   45.2227 H   0  0  0  0  0  0  0  0  0  0  0  0
   60.8255   27.9405   43.9539 H   0  0  0  0  0  0  0  0  0  0  0  0
   59.5730   29.2281   43.9539 H   0  0  0  0  0  0  0  0  0  0  0  0
   57.9540   27.5560   45.1580 C   0  0  0  0  0  0  0  0  0  0  0  0
   57.3920   28.2220   44.0180 N   0  0  0  0  0  0  0  0  0  0  0  0
   56.4460   29.6750   44.0800 S   0  0  0  0  0  0  0  0  0  0  0  0
   56.1140   30.1120   42.6820 O   0  0  0  0  0  0  0  0  0  0  0  0
   55.1660   29.4090   44.8210 O   0  0  0  0  0  0  0  0  0  0  0  0
   57.3850   30.9400   44.8660 C   0  0  0  0  0  0  0  0  0  0  0  0
   57.4350   32.2180   44.2930 C   0  0  0  0  0  0  0  0  0  0  0  0
   56.8474   32.4367   43.3892 H   0  0  0  0  0  0  0  0  0  0  0  0
   58.2290   33.2160   44.8660 C   0  0  0  0  0  0  0  0  0  0  0  0
   58.2409   34.2260   44.4304 H   0  0  0  0  0  0  0  0  0  0  0  0
   59.0080   32.9320   45.9920 C   0  0  0  0  0  0  0  0  0  0  0  0
   59.8240   33.9570   46.5670 N   0  0  0  0  0  0  0  0  0  0  0  0
   60.4180   33.9970   47.7340 C   0  0  0  0  0  0  0  0  0  0  0  0
   59.6050   34.3230   48.8280 C   0  0  0  0  0  0  0  0  0  0  0  0
   58.5754   34.6709   48.6582 H   0  0  0  0  0  0  0  0  0  0  0  0
   60.0900   34.2100   50.1270 C   0  0  0  0  0  0  0  0  0  0  0  0
   59.4321   34.4367   50.9790 H   0  0  0  0  0  0  0  0  0  0  0  0
   61.3690   33.8220   50.3470 N   0  0  0  0  0  0  0  0  0  0  0  0
   62.2300   33.5740   49.3260 C   0  0  0  0  0  0  0  0  0  0  0  0
   63.5570   33.2420   49.6270 C   0  0  0  0  0  0  0  0  0  0  0  0
   63.8626   33.1031   50.6745 H   0  0  0  0  0  0  0  0  0  0  0  0
   64.4910   33.0870   48.6060 C   0  0  0  0  0  0  0  0  0  0  0  0
   65.5267   32.8039   48.8453 H   0  0  0  0  0  0  0  0  0  0  0  0
   64.1120   33.2910   47.2810 C   0  0  0  0  0  0  0  0  0  0  0  0
   64.8591   33.1996   46.4789 H   0  0  0  0  0  0  0  0  0  0  0  0
   62.7890   33.6110   46.9640 C   0  0  0  0  0  0  0  0  0  0  0  0
   62.5123   33.7993   45.9162 H   0  0  0  0  0  0  0  0  0  0  0  0
   61.8000   33.6960   47.9740 C   0  0  0  0  0  0  0  0  0  0  0  0
   58.9330   31.6640   46.5860 C   0  0  0  0  0  0  0  0  0  0  0  0
   59.5130   31.4496   47.4958 H   0  0  0  0  0  0  0  0  0  0  0  0
   58.1240   30.6720   46.0260 C   0  0  0  0  0  0  0  0  0  0  0  0
   58.0671   29.6793   46.4964 H   0  0  0  0  0  0  0  0  0  0  0  0
   57.1720   26.7350   45.9890 C   0  0  0  0  0  0  0  0  0  0  0  0
   56.1055   26.5815   45.7675 H   0  0  0  0  0  0  0  0  0  0  0  0
  1  2  1  0
  2  3  2  0
  3  4  1  0
  4  5  1  0
  4  6  2  0
  6  7  1  0
  7  8  1  0
  7  9  1  0
  7 10  1  0
  6 11  1  0
 11 12  1  0
 12 13  1  0
 13 14  2  0
 13 15  2  0
 13 16  1  0
 16 17  2  0
 17 18  1  0
 17 19  1  0
 19 20  1  0
 19 21  2  0
 21 22  1  0
 22 23  2  0
 23 24  1  0
 24 25  1  0
 24 26  2  0
 26 27  1  0
 26 28  1  0
 28 29  1  0
 29 30  2  0
 30 31  1  0
 30 32  1  0
 32 33  1  0
 32 34  2  0
 34 35  1  0
 34 36  1  0
 36 37  1  0
 36 38  2  0
 21 39  1  0
 39 40  1  0
 39 41  2  0
 41 42  1  0
 11 43  2  0
 43 44  1  0
 43  2  1  0
 41 16  1  0
 38 23  1  0
 38 29  1  0
M  CHG  2  12  -1  28  -1
M  END
>  <UniqueID>  (4) 
3

>  <SMILES>  (4) 
Cc1cnccc1[N-]S(=O)(=O)c1ccc(/N=c2/cc[n-]c3ccccc23)cc1

>  <Energy>  (4) 
75.67220437655729

>  <Genealogy>  (4) 
Cc1cnccc1[N-]S(=O)(=O)c1ccc(N=c2cc[n-]c3ccccc23)cc1 (protonated)
Cc1cnccc1[N-]S(=O)(=O)c1ccc(/N=c2/cc[n-]c3ccccc23)cc1 (cis-trans isomerization)
Cc1cnccc1[N-]S(=O)(=O)c1ccc(/N=c2/cc[n-]c3ccccc23)cc1 (3D coordinates assigned)
Cc1cnccc1[N-]S(=O)(=O)c1ccc(/N=c2/cc[n-]c3ccccc23)cc1 (optimized conformer: 75.67220437655729 kcal/mol)

>  <smiles>  (4) 
Cc1cnccc1NS(=O)(=O)c1ccc(N=c2cc[nH]c3ccccc23)cc1

>  <score_type>  (4) 
oracle

>  <origin>  (4) 
adg

>  <m_score__min__energy>  (4) 
-11.25

>  <m_primary>  (4) 
energy

$$$$
4:0
     RDKit          3D

 43 45  0  0  0  0  0  0  0  0999 V2000
   56.5120   29.6970   44.8810 O   0  0  0  0  0  0  0  0  0  0  0  0
   57.4600   29.3690   45.6470 C   0  0  0  0  0  0  0  0  0  0  0  0
   58.3710   30.3810   46.1160 N   0  0  0  0  0  0  0  0  0  0  0  0
   58.1960   31.7730   45.8080 C   0  0  0  0  0  0  0  0  0  0  0  0
   58.1750   32.1670   44.4610 C   0  0  0  0  0  0  0  0  0  0  0  0
   57.9120   33.4930   44.1120 C   0  0  0  0  0  0  0  0  0  0  0  0
   57.6650   34.4410   45.1060 C   0  0  0  0  0  0  0  0  0  0  0  0
   57.7110   34.0710   46.4520 C   0  0  0  0  0  0  0  0  0  0  0  0
   58.0120   32.7520   46.8170 C   0  0  0  0  0  0  0  0  0  0  0  0
   58.1430   32.4490   48.2140 N   0  0  0  0  0  0  0  0  0  0  0  0
   59.3350   32.0010   48.8770 C   0  0  0  0  0  0  0  0  0  0  0  0
   59.2160   31.4590   50.0080 O   0  0  0  0  0  0  0  0  0  0  0  0
   60.6910   32.2140   48.3050 C   0  0  0  0  0  0  0  0  0  0  0  0
   61.2990   33.4810   48.3990 C   0  0  0  0  0  0  0  0  0  0  0  0
   62.5780   33.6970   47.8900 C   0  0  0  0  0  0  0  0  0  0  0  0
   63.2820   32.6490   47.3000 C   0  0  0  0  0  0  0  0  0  0  0  0
   62.7110   31.3790   47.2230 C   0  0  0  0  0  0  0  0  0  0  0  0
   61.4130   31.1440   47.7230 C   0  0  0  0  0  0  0  0  0  0  0  0
   60.8140   29.8730   47.6540 O   0  0  0  0  0  0  0  0  0  0  0  0
   60.5740   29.0070   48.7630 C   0  0  0  0  0  0  0  0  0  0  0  0
   61.2210   29.5140   49.8730 F   0  0  0  0  0  0  0  0  0  0  0  0
   59.2200   28.9330   49.0320 F   0  0  0  0  0  0  0  0  0  0  0  0
   61.0690   27.7440   48.4950 F   0  0  0  0  0  0  0  0  0  0  0  0
   57.6360   27.9380   46.0080 C   0  0  0  0  0  0  0  0  0  0  0  0
   56.5530   27.0370   46.0050 C   0  0  0  0  0  0  0  0  0  0  0  0
   56.7420   25.6980   46.3600 C   0  0  0  0  0  0  0  0  0  0  0  0
   58.0130   25.2370   46.7100 C   0  0  0  0  0  0  0  0  0  0  0  0
   59.0980   26.1140   46.7050 C   0  0  0  0  0  0  0  0  0  0  0  0
   58.9140   27.4550   46.3570 C   0  0  0  0  0  0  0  0  0  0  0  0
   59.3170   30.0880   46.4450 H   0  0  0  0  0  0  0  0  0  0  0  0
   58.3676   31.4241   43.6729 H   0  0  0  0  0  0  0  0  0  0  0  0
   57.8995   33.7907   43.0531 H   0  0  0  0  0  0  0  0  0  0  0  0
   57.4340   35.4802   44.8292 H   0  0  0  0  0  0  0  0  0  0  0  0
   57.5094   34.8206   47.2314 H   0  0  0  0  0  0  0  0  0  0  0  0
   60.7580   34.3094   48.8797 H   0  0  0  0  0  0  0  0  0  0  0  0
   63.0328   34.6965   47.9540 H   0  0  0  0  0  0  0  0  0  0  0  0
   64.2895   32.8237   46.8945 H   0  0  0  0  0  0  0  0  0  0  0  0
   63.2778   30.5532   46.7683 H   0  0  0  0  0  0  0  0  0  0  0  0
   55.5506   27.3899   45.7211 H   0  0  0  0  0  0  0  0  0  0  0  0
   55.8872   25.0057   46.3636 H   0  0  0  0  0  0  0  0  0  0  0  0
   58.1585   24.1831   46.9894 H   0  0  0  0  0  0  0  0  0  0  0  0
   60.1000   25.7494   46.9754 H   0  0  0  0  0  0  0  0  0  0  0  0
   59.7744   28.1403   46.3553 H   0  0  0  0  0  0  0  0  0  0  0  0
  1  2  2  0
  2  3  1  0
  3  4  1  0
  4  5  2  0
  5  6  1  0
  6  7  2  0
  7  8  1  0
  8  9  2  0
  9 10  1  0
 10 11  1  0
 11 12  2  0
 11 13  1  0
 13 14  2  0
 14 15  1  0
 15 16  2  0
 16 17  1  0
 17 18  2  0
 18 19  1  0
 19 20  1  0
 20 21  1  0
 20 22  1  0
 20 23  1  0
  2 24  1  0
 24 25  2  0
 25 26  1  0
 26 27  2  0
 27 28  1  0
 28 29  2  0
  9  4  1  0
 18 13  1  0
 29 24  1  0
  3 30  1  0
  5 31  1  0
  6 32  1  0
  7 33  1  0
  8 34  1  0
 14 35  1  0
 15 36  1  0
 16 37  1  0
 17 38  1  0
 25 39  1  0
 26 40  1  0
 27 41  1  0
 28 42  1  0
 29 43  1  0
M  CHG  1  10  -1
M  END
>  <UniqueID>  (5) 
4

>  <SMILES>  (5) 
O=C(Nc1ccccc1[N-]C(=O)c1ccccc1OC(F)(F)F)c1ccccc1

>  <Energy>  (5) 
60.71358041619144

>  <Genealogy>  (5) 
O=C(Nc1ccccc1[N-]C(=O)c1ccccc1OC(F)(F)F)c1ccccc1 (protonated)
O=C(Nc1ccccc1[N-]C(=O)c1ccccc1OC(F)(F)F)c1ccccc1 (3D coordinates assigned)
O=C(Nc1ccccc1[N-]C(=O)c1ccccc1OC(F)(F)F)c1ccccc1 (optimized conformer: 60.71358041619144 kcal/mol)

>  <smiles>  (5) 
O=C(Nc1ccccc1NC(=O)c1ccccc1OC(F)(F)F)c1ccccc1

>  <score_type>  (5) 
oracle

>  <origin>  (5) 
adg

>  <m_score__min__energy>  (5) 
-9.0999999999999996

>  <m_primary>  (5) 
energy

$$$$
5:0
     RDKit          3D

 60 63  0  0  0  0  0  0  0  0999 V2000
   62.5220   32.5450   49.1990 C   0  0  0  0  0  0  0  0  0  0  0  0
   61.1190   32.3830   48.7900 N   0  0  0  0  0  0  0  0  0  0  0  0
   61.0140   31.7780   47.4370 C   0  0  0  0  0  0  0  0  0  0  0  0
   60.5230   32.7760   46.3790 C   0  0  0  0  0  0  0  0  0  0  0  0
   59.1940   33.3130   46.7410 N   0  0  0  0  0  0  0  0  0  0  0  0
   58.8390   34.4580   45.8760 C   0  0  0  0  0  0  0  0  0  0  0  0
   57.6310   34.1390   44.9710 C   0  0  0  0  0  0  0  0  0  0  0  0
   57.0210   32.8210   45.2300 N   0  0  0  0  0  0  0  0  0  0  0  0
   57.4650   31.7700   44.3030 C   0  0  0  0  0  0  0  0  0  0  0  0
   57.3630   30.4090   44.9460 C   0  0  0  0  0  0  0  0  0  0  0  0
   58.2460   30.0590   45.9740 C   0  0  0  0  0  0  0  0  0  0  0  0
   58.1490   28.8480   46.5970 N   0  0  0  0  0  0  0  0  0  0  0  0
   59.0540   28.5480   47.6770 C   0  0  0  0  0  0  0  0  0  0  0  0
   59.1190   29.3880   48.8020 C   0  0  0  0  0  0  0  0  0  0  0  0
   59.9590   29.0700   49.8730 C   0  0  0  0  0  0  0  0  0  0  0  0
   60.7510   27.9170   49.8340 C   0  0  0  0  0  0  0  0  0  0  0  0
   61.5510   27.6100   50.9440 O   0  0  0  0  0  0  0  0  0  0  0  0
   61.6950   26.3300   51.5010 C   0  0  0  0  0  0  0  0  0  0  0  0
   60.5470   25.6080   51.8390 C   0  0  0  0  0  0  0  0  0  0  0  0
   60.6540   24.3360   52.4120 C   0  0  0  0  0  0  0  0  0  0  0  0
   61.9160   23.7890   52.6670 C   0  0  0  0  0  0  0  0  0  0  0  0
   63.0670   24.5110   52.3470 C   0  0  0  0  0  0  0  0  0  0  0  0
   62.9600   25.7800   51.7680 C   0  0  0  0  0  0  0  0  0  0  0  0
   60.6850   27.0720   48.7100 C   0  0  0  0  0  0  0  0  0  0  0  0
   59.8440   27.3880   47.6400 C   0  0  0  0  0  0  0  0  0  0  0  0
   57.1920   27.9530   46.2020 C   0  0  0  0  0  0  0  0  0  0  0  0
   57.1000   26.8200   46.7500 O   0  0  0  0  0  0  0  0  0  0  0  0
   56.3330   28.2720   45.2010 N   0  0  0  0  0  0  0  0  0  0  0  0
   56.3920   29.4710   44.5700 C   0  0  0  0  0  0  0  0  0  0  0  0
   55.5670   29.7280   43.6540 O   0  0  0  0  0  0  0  0  0  0  0  0
   59.0500   33.6230   48.1890 C   0  0  0  0  0  0  0  0  0  0  0  0
   60.3950   33.6660   48.9280 C   0  0  0  0  0  0  0  0  0  0  0  0
   62.5853   32.5523   50.2972 H   0  0  0  0  0  0  0  0  0  0  0  0
   63.1182   31.7097   48.8029 H   0  0  0  0  0  0  0  0  0  0  0  0
   62.9121   33.4942   48.8029 H   0  0  0  0  0  0  0  0  0  0  0  0
   62.0062   31.4084   47.1387 H   0  0  0  0  0  0  0  0  0  0  0  0
   60.2769   30.9635   47.4932 H   0  0  0  0  0  0  0  0  0  0  0  0
   61.2402   33.6069   46.3066 H   0  0  0  0  0  0  0  0  0  0  0  0
   60.4419   32.2551   45.4135 H   0  0  0  0  0  0  0  0  0  0  0  0
   58.5899   35.3206   46.5115 H   0  0  0  0  0  0  0  0  0  0  0  0
   59.7015   34.6790   45.2300 H   0  0  0  0  0  0  0  0  0  0  0  0
   56.8651   34.9123   45.1304 H   0  0  0  0  0  0  0  0  0  0  0  0
   58.0037   34.1203   43.9362 H   0  0  0  0  0  0  0  0  0  0  0  0
   57.2220   32.5230   46.2120 H   0  0  0  0  0  0  0  0  0  0  0  0
   56.8323   31.7920   43.4034 H   0  0  0  0  0  0  0  0  0  0  0  0
   58.5161   31.9560   44.0371 H   0  0  0  0  0  0  0  0  0  0  0  0
   59.0277   30.7683   46.2838 H   0  0  0  0  0  0  0  0  0  0  0  0
   58.5057   30.3004   48.8398 H   0  0  0  0  0  0  0  0  0  0  0  0
   59.9977   29.7302   50.7520 H   0  0  0  0  0  0  0  0  0  0  0  0
   59.5535   26.0423   51.6535 H   0  0  0  0  0  0  0  0  0  0  0  0
   59.7466   23.7666   52.6617 H   0  0  0  0  0  0  0  0  0  0  0  0
   62.0013   22.7901   53.1196 H   0  0  0  0  0  0  0  0  0  0  0  0
   64.0592   24.0817   52.5503 H   0  0  0  0  0  0  0  0  0  0  0  0
   63.8686   26.3487   51.5211 H   0  0  0  0  0  0  0  0  0  0  0  0
   61.2980   26.1593   48.6740 H   0  0  0  0  0  0  0  0  0  0  0  0
   59.8006   26.7243   46.7638 H   0  0  0  0  0  0  0  0  0  0  0  0
   58.5621   34.6036   48.2911 H   0  0  0  0  0  0  0  0  0  0  0  0
   58.4511   32.8184   48.6406 H   0  0  0  0  0  0  0  0  0  0  0  0
   61.0112   34.4736   48.5061 H   0  0  0  0  0  0  0  0  0  0  0  0
   60.2017   33.8454   49.9959 H   0  0  0  0  0  0  0  0  0  0  0  0
  1  2  1  0
  2  3  1  0
  3  4  1  0
  4  5  1  0
  5  6  1  0
  6  7  1  0
  7  8  1  0
  8  9  1  0
  9 10  1  0
 10 11  2  0
 11 12  1  0
 12 13  1  0
 13 14  2  0
 14 15  1  0
 15 16  2  0
 16 17  1  0
 17 18  1  0
 18 19  2  0
 19 20  1  0
 20 21  2  0
 21 22  1  0
 22 23  2  0
 16 24  1  0
 24 25  2  0
 12 26  1  0
 26 27  2  0
 26 28  1  0
 28 29  1  0
 29 30  2  0
  5 31  1  0
 31 32  1  0
 32  2  1  0
 29 10  1  0
 25 13  1  0
 23 18  1  0
  1 33  1  0
  1 34  1  0
  1 35  1  0
  3 36  1  0
  3 37  1  0
  4 38  1  0
  4 39  1  0
  6 40  1  0
  6 41  1  0
  7 42  1  0
  7 43  1  0
  8 44  1  0
  9 45  1  0
  9 46  1  0
 11 47  1  0
 14 48  1  0
 15 49  1  0
 19 50  1  0
 20 51  1  0
 21 52  1  0
 22 53  1  0
 23 54  1  0
 24 55  1  0
 25 56  1  0
 31 57  1  0
 31 58  1  0
 32 59  1  0
 32 60  1  0
M  CHG  1  28  -1
M  END
>  <UniqueID>  (6) 
5

>  <SMILES>  (6) 
CN1CCN(CCNCc2cn(-c3ccc(Oc4ccccc4)cc3)c(=O)[n-]c2=O)CC1

>  <Energy>  (6) 
92.29374855825452

>  <Genealogy>  (6) 
CN1CCN(CCNCc2cn(-c3ccc(Oc4ccccc4)cc3)c(=O)[n-]c2=O)CC1 (protonated)
CN1CCN(CCNCc2cn(-c3ccc(Oc4ccccc4)cc3)c(=O)[n-]c2=O)CC1 (3D coordinates assigned)
CN1CCN(CCNCc2cn(-c3ccc(Oc4ccccc4)cc3)c(=O)[n-]c2=O)CC1 (nonaromatic ring conformer: 92.29374855825452 kcal/mol)

>  <smiles>  (6) 
CN1CCN(CCNCc2cn(-c3ccc(Oc4ccccc4)cc3)c(=O)[nH]c2=O)CC1

>  <score_type>  (6) 
oracle

>  <origin>  (6) 
adg

>  <m_score__min__energy>  (6) 
-10.32

>  <m_primary>  (6) 
energy

$$$$
6:0
     RDKit          3D

 42 44  0  0  0  0  0  0  0  0999 V2000
   57.9450   26.5030   47.4610 O   0  0  0  0  0  0  0  0  0  0  0  0
   57.1260   27.0530   46.6730 C   0  0  0  0  0  0  0  0  0  0  0  0
   55.9420   26.3510   46.2700 N   0  0  0  0  0  0  0  0  0  0  0  0
   55.9030   25.2270   45.3790 C   0  0  0  0  0  0  0  0  0  0  0  0
   57.0440   24.9280   44.6230 C   0  0  0  0  0  0  0  0  0  0  0  0
   57.0430   23.8450   43.7380 C   0  0  0  0  0  0  0  0  0  0  0  0
   55.8940   23.0640   43.5900 C   0  0  0  0  0  0  0  0  0  0  0  0
   55.8930   22.0160   42.7290 F   0  0  0  0  0  0  0  0  0  0  0  0
   54.7420   23.3710   44.3180 C   0  0  0  0  0  0  0  0  0  0  0  0
   54.7370   24.4540   45.2060 C   0  0  0  0  0  0  0  0  0  0  0  0
   53.5850   24.7690   45.8490 F   0  0  0  0  0  0  0  0  0  0  0  0
   57.4150   28.4000   46.1250 C   0  0  0  0  0  0  0  0  0  0  0  0
   58.4330   29.1920   46.6820 C   0  0  0  0  0  0  0  0  0  0  0  0
   58.7070   30.4630   46.1690 C   0  0  0  0  0  0  0  0  0  0  0  0
   57.9680   30.9690   45.0840 C   0  0  0  0  0  0  0  0  0  0  0  0
   58.2220   32.2730   44.5310 N   0  0  0  0  0  0  0  0  0  0  0  0
   58.1280   33.7460   45.4460 S   0  0  0  0  0  0  0  0  0  0  0  0
   56.7660   33.8480   46.0780 O   0  0  0  0  0  0  0  0  0  0  0  0
   58.3250   34.9170   44.5260 O   0  0  0  0  0  0  0  0  0  0  0  0
   59.3960   33.7650   46.6690 C   0  0  0  0  0  0  0  0  0  0  0  0
   59.0630   34.0210   48.0050 C   0  0  0  0  0  0  0  0  0  0  0  0
   60.0610   34.0620   48.9800 C   0  0  0  0  0  0  0  0  0  0  0  0
   61.3970   33.8500   48.6270 C   0  0  0  0  0  0  0  0  0  0  0  0
   61.7500   33.5920   47.2890 C   0  0  0  0  0  0  0  0  0  0  0  0
   63.1260   33.3860   46.9190 N   0  0  0  0  0  0  0  0  0  0  0  0
   63.8050   32.4910   47.4640 O   0  0  0  0  0  0  0  0  0  0  0  0
   63.7240   34.1890   45.9730 O   0  0  0  0  0  0  0  0  0  0  0  0
   60.7360   33.5480   46.3140 C   0  0  0  0  0  0  0  0  0  0  0  0
   56.9450   30.1820   44.5360 C   0  0  0  0  0  0  0  0  0  0  0  0
   56.6710   28.9110   45.0470 C   0  0  0  0  0  0  0  0  0  0  0  0
   57.9462   25.5488   44.7261 H   0  0  0  0  0  0  0  0  0  0  0  0
   57.9473   23.6080   43.1582 H   0  0  0  0  0  0  0  0  0  0  0  0
   53.8358   22.7601   44.1934 H   0  0  0  0  0  0  0  0  0  0  0  0
   59.0198   28.8083   47.5296 H   0  0  0  0  0  0  0  0  0  0  0  0
   59.5061   31.0720   46.6168 H   0  0  0  0  0  0  0  0  0  0  0  0
   58.5620   32.3500   43.5460 H   0  0  0  0  0  0  0  0  0  0  0  0
   58.0131   34.1901   48.2865 H   0  0  0  0  0  0  0  0  0  0  0  0
   59.7956   34.2616   50.0287 H   0  0  0  0  0  0  0  0  0  0  0  0
   62.1782   33.8851   49.4006 H   0  0  0  0  0  0  0  0  0  0  0  0
   60.9961   33.3418   45.2653 H   0  0  0  0  0  0  0  0  0  0  0  0
   56.3518   30.5696   43.6946 H   0  0  0  0  0  0  0  0  0  0  0  0
   55.8672   28.3056   44.6027 H   0  0  0  0  0  0  0  0  0  0  0  0
  1  2  2  0
  2  3  1  0
  3  4  1  0
  4  5  2  0
  5  6  1  0
  6  7  2  0
  7  8  1  0
  7  9  1  0
  9 10  2  0
 10 11  1  0
  2 12  1  0
 12 13  2  0
 13 14  1  0
 14 15  2  0
 15 16  1  0
 16 17  1  0
 17 18  2  0
 17 19  2  0
 17 20  1  0
 20 21  2  0
 21 22  1  0
 22 23  2  0
 23 24  1  0
 24 25  1  0
 25 26  2  0
 25 27  1  0
 24 28  2  0
 15 29  1  0
 29 30  2  0
 10  4  1  0
 30 12  1  0
 28 20  1  0
  5 31  1  0
  6 32  1  0
  9 33  1  0
 13 34  1  0
 14 35  1  0
 16 36  1  0
 21 37  1  0
 22 38  1  0
 23 39  1  0
 28 40  1  0
 29 41  1  0
 30 42  1  0
M  CHG  3   3  -1  25   1  27  -1
M  END
>  <UniqueID>  (7) 
6

>  <SMILES>  (7) 
O=C([N-]c1ccc(F)cc1F)c1ccc(NS(=O)(=O)c2cccc([N+](=O)[O-])c2)cc1

>  <Energy>  (7) 
54.92109660655504

>  <Genealogy>  (7) 
O=C([N-]c1ccc(F)cc1F)c1ccc(NS(=O)(=O)c2cccc([N+](=O)[O-])c2)cc1 (protonated)
O=C([N-]c1ccc(F)cc1F)c1ccc(NS(=O)(=O)c2cccc([N+](=O)[O-])c2)cc1 (3D coordinates assigned)
O=C([N-]c1ccc(F)cc1F)c1ccc(NS(=O)(=O)c2cccc([N+](=O)[O-])c2)cc1 (optimized conformer: 54.92109660655504 kcal/mol)

>  <smiles>  (7) 
O=C(Nc1ccc(F)cc1F)c1ccc(NS(=O)(=O)c2cccc([N+](=O)[O-])c2)cc1

>  <score_type>  (7) 
oracle

>  <origin>  (7) 
adg

>  <m_score__min__energy>  (7) 
-10.890000000000001

>  <m_primary>  (7) 
energy

$$$$
7:0
     RDKit          3D

 45 47  0  0  0  0  0  0  0  0999 V2000
   63.6790   33.2520   47.7490 C   0  0  0  0  0  0  0  0  0  0  0  0
   62.2700   33.1160   47.2400 C   0  0  0  0  0  0  0  0  0  0  0  0
   61.6120   34.2150   46.6670 C   0  0  0  0  0  0  0  0  0  0  0  0
   60.3060   34.0820   46.1830 C   0  0  0  0  0  0  0  0  0  0  0  0
   59.6440   32.8500   46.2700 C   0  0  0  0  0  0  0  0  0  0  0  0
   58.0050   32.6820   45.6360 S   0  0  0  0  0  0  0  0  0  0  0  0
   57.3980   31.4030   46.1400 O   0  0  0  0  0  0  0  0  0  0  0  0
   57.1750   33.8250   46.1490 O   0  0  0  0  0  0  0  0  0  0  0  0
   57.9610   32.6990   43.8920 N   0  0  0  0  0  0  0  0  0  0  0  0
   57.8040   31.3570   43.3240 C   0  0  0  0  0  0  0  0  0  0  0  0
   56.3770   30.8320   43.5090 C   0  0  0  0  0  0  0  0  0  0  0  0
   56.4140   29.4310   44.0370 C   0  0  0  0  0  0  0  0  0  0  0  0
   55.5180   29.0450   44.8360 O   0  0  0  0  0  0  0  0  0  0  0  0
   57.4980   28.5600   43.6900 N   0  0  0  0  0  0  0  0  0  0  0  0
   57.7850   27.3420   44.4400 C   0  0  0  0  0  0  0  0  0  0  0  0
   58.5920   27.6770   45.6640 C   0  0  0  0  0  0  0  0  0  0  0  0
   59.8230   27.0210   45.9210 C   0  0  0  0  0  0  0  0  0  0  0  0
   60.5640   27.3210   47.0800 C   0  0  0  0  0  0  0  0  0  0  0  0
   60.0430   28.2690   47.9560 C   0  0  0  0  0  0  0  0  0  0  0  0
   58.8590   28.8890   47.7240 C   0  0  0  0  0  0  0  0  0  0  0  0
   58.0940   28.6190   46.5920 C   0  0  0  0  0  0  0  0  0  0  0  0
   58.5890   29.7690   48.7560 O   0  0  0  0  0  0  0  0  0  0  0  0
   59.6780   29.7060   49.6880 C   0  0  0  0  0  0  0  0  0  0  0  0
   60.5810   28.7330   49.1430 O   0  0  0  0  0  0  0  0  0  0  0  0
   60.3030   31.7500   46.8360 C   0  0  0  0  0  0  0  0  0  0  0  0
   61.6100   31.8780   47.3140 C   0  0  0  0  0  0  0  0  0  0  0  0
   62.2310   30.7970   47.8500 F   0  0  0  0  0  0  0  0  0  0  0  0
   63.6731   33.2514   48.8490 H   0  0  0  0  0  0  0  0  0  0  0  0
   64.2834   32.4080   47.3851 H   0  0  0  0  0  0  0  0  0  0  0  0
   64.1108   34.1960   47.3851 H   0  0  0  0  0  0  0  0  0  0  0  0
   62.1253   35.1855   46.5980 H   0  0  0  0  0  0  0  0  0  0  0  0
   59.7973   34.9472   45.7328 H   0  0  0  0  0  0  0  0  0  0  0  0
   58.0343   31.3948   42.2490 H   0  0  0  0  0  0  0  0  0  0  0  0
   58.4921   30.6778   43.8486 H   0  0  0  0  0  0  0  0  0  0  0  0
   55.8408   31.4762   44.2213 H   0  0  0  0  0  0  0  0  0  0  0  0
   55.8595   30.8398   42.5384 H   0  0  0  0  0  0  0  0  0  0  0  0
   58.1930   28.8780   42.9770 H   0  0  0  0  0  0  0  0  0  0  0  0
   56.8397   26.8687   44.7439 H   0  0  0  0  0  0  0  0  0  0  0  0
   58.3578   26.6503   43.8048 H   0  0  0  0  0  0  0  0  0  0  0  0
   60.2016   26.2723   45.2096 H   0  0  0  0  0  0  0  0  0  0  0  0
   61.5227   26.8228   47.2864 H   0  0  0  0  0  0  0  0  0  0  0  0
   57.1310   29.1239   46.4253 H   0  0  0  0  0  0  0  0  0  0  0  0
   60.1710   30.6857   49.7725 H   0  0  0  0  0  0  0  0  0  0  0  0
   59.3400   29.4338   50.6988 H   0  0  0  0  0  0  0  0  0  0  0  0
   59.7884   30.7802   46.9044 H   0  0  0  0  0  0  0  0  0  0  0  0
  1  2  1  0
  2  3  2  0
  3  4  1  0
  4  5  2  0
  5  6  1  0
  6  7  2  0
  6  8  2  0
  6  9  1  0
  9 10  1  0
 10 11  1  0
 11 12  1  0
 12 13  2  0
 12 14  1  0
 14 15  1  0
 15 16  1  0
 16 17  2  0
 17 18  1  0
 18 19  2  0
 19 20  1  0
 20 21  2  0
 20 22  1  0
 22 23  1  0
 23 24  1  0
  5 25  1  0
 25 26  2  0
 26 27  1  0
 26  2  1  0
 21 16  1  0
 24 19  1  0
  1 28  1  0
  1 29  1  0
  1 30  1  0
  3 31  1  0
  4 32  1  0
 10 33  1  0
 10 34  1  0
 11 35  1  0
 11 36  1  0
 14 37  1  0
 15 38  1  0
 15 39  1  0
 17 40  1  0
 18 41  1  0
 21 42  1  0
 23 43  1  0
 23 44  1  0
 25 45  1  0
M  CHG  1   9  -1
M  END
>  <UniqueID>  (8) 
7

>  <SMILES>  (8) 
Cc1ccc(S(=O)(=O)[N-]CCC(=O)NCc2ccc3c(c2)OCO3)cc1F

>  <Energy>  (8) 
67.6937030907707

>  <Genealogy>  (8) 
Cc1ccc(S(=O)(=O)[N-]CCC(=O)NCc2ccc3c(c2)OCO3)cc1F (protonated)
Cc1ccc(S(=O)(=O)[N-]CCC(=O)NCc2ccc3c(c2)OCO3)cc1F (3D coordinates assigned)
Cc1ccc(S(=O)(=O)[N-]CCC(=O)NCc2ccc3c(c2)OCO3)cc1F (nonaromatic ring conformer: 67.6937030907707 kcal/mol)

>  <smiles>  (8) 
Cc1ccc(S(=O)(=O)NCCC(=O)NCc2ccc3c(c2)OCO3)cc1F

>  <score_type>  (8) 
oracle

>  <origin>  (8) 
adg

>  <m_score__min__energy>  (8) 
-9.8699999999999992

>  <m_primary>  (8) 
energy

$$$$
8:0
     RDKit          3D

 35 36  0  0  0  0  0  0  0  0999 V2000
   57.5020   28.2550   43.2740 N   0  0  0  0  0  0  0  0  0  0  0  0
   56.9940   28.9390   44.7770 S   0  0  0  0  0  0  0  0  0  0  0  0
   56.0400   30.0720   44.5190 O   0  0  0  0  0  0  0  0  0  0  0  0
   56.2860   27.8860   45.5830 O   0  0  0  0  0  0  0  0  0  0  0  0
   58.3920   29.5430   45.6610 C   0  0  0  0  0  0  0  0  0  0  0  0
   59.6930   29.2410   45.2340 C   0  0  0  0  0  0  0  0  0  0  0  0
   60.7960   29.7170   45.9490 C   0  0  0  0  0  0  0  0  0  0  0  0
   60.6150   30.5140   47.0880 C   0  0  0  0  0  0  0  0  0  0  0  0
   61.7630   30.9780   47.8160 N   0  0  0  0  0  0  0  0  0  0  0  0
   61.6950   31.9950   48.8230 C   0  0  0  0  0  0  0  0  0  0  0  0
   62.3320   31.6970   50.3000 S   0  0  0  0  0  0  0  0  0  0  0  0
   61.1840   33.3030   48.5250 N   0  0  0  0  0  0  0  0  0  0  0  0
   61.1950   33.8690   47.1760 C   0  0  0  0  0  0  0  0  0  0  0  0
   59.8130   33.8790   46.5800 C   0  0  0  0  0  0  0  0  0  0  0  0
   59.6340   33.8580   45.1870 C   0  0  0  0  0  0  0  0  0  0  0  0
   58.3460   33.8430   44.6500 C   0  0  0  0  0  0  0  0  0  0  0  0
   57.2460   33.8290   45.5090 C   0  0  0  0  0  0  0  0  0  0  0  0
   57.4330   33.8320   46.8550 N   0  0  0  0  0  0  0  0  0  0  0  0
   58.6770   33.8520   47.4040 C   0  0  0  0  0  0  0  0  0  0  0  0
   59.3080   30.8090   47.5180 C   0  0  0  0  0  0  0  0  0  0  0  0
   58.2060   30.3300   46.8040 C   0  0  0  0  0  0  0  0  0  0  0  0
   57.7720   29.0510   42.6520 H   0  0  0  0  0  0  0  0  0  0  0  0
   56.6630   27.8050   42.8450 H   0  0  0  0  0  0  0  0  0  0  0  0
   59.8462   28.6277   44.3338 H   0  0  0  0  0  0  0  0  0  0  0  0
   61.8133   29.4643   45.6154 H   0  0  0  0  0  0  0  0  0  0  0  0
   62.6770   30.4890   47.6750 H   0  0  0  0  0  0  0  0  0  0  0  0
   60.9720   33.9470   49.3200 H   0  0  0  0  0  0  0  0  0  0  0  0
   61.5734   34.9008   47.2226 H   0  0  0  0  0  0  0  0  0  0  0  0
   61.8438   33.2469   46.5420 H   0  0  0  0  0  0  0  0  0  0  0  0
   60.5085   33.8534   44.5198 H   0  0  0  0  0  0  0  0  0  0  0  0
   58.1991   33.8422   43.5599 H   0  0  0  0  0  0  0  0  0  0  0  0
   56.2266   33.8155   45.0960 H   0  0  0  0  0  0  0  0  0  0  0  0
   58.7934   33.8470   48.4978 H   0  0  0  0  0  0  0  0  0  0  0  0
   59.1529   31.4192   48.4200 H   0  0  0  0  0  0  0  0  0  0  0  0
   57.1876   30.5725   47.1417 H   0  0  0  0  0  0  0  0  0  0  0  0
  1  2  1  0
  2  3  2  0
  2  4  2  0
  2  5  1  0
  5  6  2  0
  6  7  1  0
  7  8  2  0
  8  9  1  0
  9 10  1  0
 10 11  2  0
 10 12  1  0
 12 13  1  0
 13 14  1  0
 14 15  2  0
 15 16  1  0
 16 17  2  0
 17 18  1  0
 18 19  2  0
  8 20  1  0
 20 21  2  0
 21  5  1  0
 19 14  1  0
  1 22  1  0
  1 23  1  0
  6 24  1  0
  7 25  1  0
  9 26  1  0
 12 27  1  0
 13 28  1  0
 13 29  1  0
 15 30  1  0
 16 31  1  0
 17 32  1  0
 19 33  1  0
 20 34  1  0
 21 35  1  0
M  END
>  <UniqueID>  (9) 
8

>  <SMILES>  (9) 
NS(=O)(=O)c1ccc(NC(=S)NCc2cccnc2)cc1

>  <Energy>  (9) 
35.6303636588349

>  <Genealogy>  (9) 
NS(=O)(=O)c1ccc(NC(=S)NCc2cccnc2)cc1 (3D coordinates assigned)
NS(=O)(=O)c1ccc(NC(=S)NCc2cccnc2)cc1 (optimized conformer: 35.6303636588349 kcal/mol)

>  <smiles>  (9) 
NS(=O)(=O)c1ccc(NC(=S)NCc2cccnc2)cc1

>  <score_type>  (9) 
oracle

>  <origin>  (9) 
adg

>  <m_score__min__energy>  (9) 
-7.4800000000000004

>  <m_primary>  (9) 
energy

$$$$
9:0
     RDKit          3D

 73 77  0  0  0  0  0  0  0  0999 V2000
   57.7790   32.9770   43.7550 C   0  0  0  0  0  0  0  0  0  0  0  0
   57.8400   31.4450   43.7930 C   0  0  1  0  0  0  0  0  0  0  0  0
   58.8760   30.9650   44.8240 C   0  0  0  0  0  0  0  0  0  0  0  0
   59.0380   29.4290   44.8120 C   0  0  0  0  0  0  0  0  0  0  0  0
   57.7790   28.6760   44.3070 C   0  0  1  0  0  0  0  0  0  0  0  0
   57.7480   27.3060   44.8340 N   0  0  0  0  0  0  0  0  0  0  0  0
   57.7920   26.1510   43.9770 C   0  0  0  0  0  0  0  0  0  0  0  0
   57.9490   26.2970   42.7330 O   0  0  0  0  0  0  0  0  0  0  0  0
   57.6680   24.7890   44.5470 C   0  0  0  0  0  0  0  0  0  0  0  0
   57.3530   23.7130   43.6960 C   0  0  0  0  0  0  0  0  0  0  0  0
   57.2240   22.4190   44.2050 C   0  0  0  0  0  0  0  0  0  0  0  0
   57.3910   22.1850   45.5690 C   0  0  0  0  0  0  0  0  0  0  0  0
   57.7060   23.2400   46.4260 C   0  0  0  0  0  0  0  0  0  0  0  0
   57.8740   24.5450   45.9250 C   0  0  0  0  0  0  0  0  0  0  0  0
   58.1700   25.6400   46.8090 N   0  0  0  0  0  0  0  0  0  0  0  0
   59.4690   26.1560   47.1340 C   0  0  0  0  0  0  0  0  0  0  0  0
   60.4720   25.6770   46.5440 O   0  0  0  0  0  0  0  0  0  0  0  0
   59.6660   27.2150   48.1550 C   0  0  0  0  0  0  0  0  0  0  0  0
   60.5710   26.9960   49.1990 C   0  0  0  0  0  0  0  0  0  0  0  0
   60.8360   27.9630   50.1290 N   0  0  0  0  0  0  0  0  0  0  0  0
   61.8130   27.6550   51.1850 C   0  0  0  0  0  0  0  0  0  0  0  0
   60.2130   29.1940   50.0570 C   0  0  0  0  0  0  0  0  0  0  0  0
   60.5110   30.2320   50.9700 C   0  0  0  0  0  0  0  0  0  0  0  0
   59.8910   31.4880   50.8680 C   0  0  0  0  0  0  0  0  0  0  0  0
   60.3020   32.5980   51.7540 C   0  0  0  0  0  0  0  0  0  0  0  0
   60.2200   32.4780   53.0060 O   0  0  0  0  0  0  0  0  0  0  0  0
   60.8400   33.8040   51.2040 N   0  0  0  0  0  0  0  0  0  0  0  0
   61.8520   33.7840   50.1510 C   0  0  0  0  0  0  0  0  0  0  0  0
   61.2140   33.9540   48.7970 C   0  0  0  0  0  0  0  0  0  0  0  0
   61.8400   33.4400   47.6490 C   0  0  0  0  0  0  0  0  0  0  0  0
   61.1940   33.4980   46.4090 C   0  0  0  0  0  0  0  0  0  0  0  0
   59.9250   34.0740   46.3070 C   0  0  0  0  0  0  0  0  0  0  0  0
   59.2990   34.5940   47.4420 C   0  0  0  0  0  0  0  0  0  0  0  0
   59.9380   34.5320   48.6850 C   0  0  0  0  0  0  0  0  0  0  0  0
   58.9270   31.6970   49.8750 C   0  0  0  0  0  0  0  0  0  0  0  0
   58.6140   30.6900   48.9670 C   0  0  0  0  0  0  0  0  0  0  0  0
   59.2580   29.4410   49.0360 C   0  0  0  0  0  0  0  0  0  0  0  0
   58.9800   28.4350   48.0940 C   0  0  0  0  0  0  0  0  0  0  0  0
   58.1100   28.6260   47.1980 O   0  0  0  0  0  0  0  0  0  0  0  0
   56.4990   29.4270   44.7070 C   0  0  0  0  0  0  0  0  0  0  0  0
   56.4430   30.8420   44.0900 C   0  0  0  0  0  0  0  0  0  0  0  0
   57.7634   33.3689   44.7827 H   0  0  0  0  0  0  0  0  0  0  0  0
   58.6624   33.3662   43.2275 H   0  0  0  0  0  0  0  0  0  0  0  0
   56.8675   33.2947   43.2275 H   0  0  0  0  0  0  0  0  0  0  0  0
   58.1571   31.0918   42.8007 H   0  0  0  0  0  0  0  0  0  0  0  0
   58.5509   31.2797   45.8266 H   0  0  0  0  0  0  0  0  0  0  0  0
   59.8470   31.4104   44.5616 H   0  0  0  0  0  0  0  0  0  0  0  0
   59.2558   29.0942   45.8369 H   0  0  0  0  0  0  0  0  0  0  0  0
   59.8552   29.1961   44.1135 H   0  0  0  0  0  0  0  0  0  0  0  0
   57.8283   28.6285   43.2091 H   0  0  0  0  0  0  0  0  0  0  0  0
   57.7800   27.1530   45.8680 H   0  0  0  0  0  0  0  0  0  0  0  0
   57.2072   23.8929   42.6207 H   0  0  0  0  0  0  0  0  0  0  0  0
   56.9903   21.5834   43.5288 H   0  0  0  0  0  0  0  0  0  0  0  0
   57.2743   21.1674   45.9702 H   0  0  0  0  0  0  0  0  0  0  0  0
   57.8242   23.0504   47.5031 H   0  0  0  0  0  0  0  0  0  0  0  0
   61.0809   26.0242   49.2736 H   0  0  0  0  0  0  0  0  0  0  0  0
   61.3465   27.8021   52.1703 H   0  0  0  0  0  0  0  0  0  0  0  0
   62.1414   26.6097   51.0871 H   0  0  0  0  0  0  0  0  0  0  0  0
   62.6815   28.3229   51.0871 H   0  0  0  0  0  0  0  0  0  0  0  0
   61.2406   30.0527   51.7735 H   0  0  0  0  0  0  0  0  0  0  0  0
   62.5652   34.6043   50.3198 H   0  0  0  0  0  0  0  0  0  0  0  0
   62.3719   32.8150   50.1781 H   0  0  0  0  0  0  0  0  0  0  0  0
   62.8411   32.9905   47.7252 H   0  0  0  0  0  0  0  0  0  0  0  0
   61.6857   33.0897   45.5137 H   0  0  0  0  0  0  0  0  0  0  0  0
   59.4185   34.1179   45.3316 H   0  0  0  0  0  0  0  0  0  0  0  0
   58.3027   35.0527   47.3585 H   0  0  0  0  0  0  0  0  0  0  0  0
   59.4397   34.9372   49.5780 H   0  0  0  0  0  0  0  0  0  0  0  0
   58.4117   32.6668   49.8117 H   0  0  0  0  0  0  0  0  0  0  0  0
   57.8574   30.8719   48.1895 H   0  0  0  0  0  0  0  0  0  0  0  0
   56.4668   29.5157   45.8029 H   0  0  0  0  0  0  0  0  0  0  0  0
   55.6377   28.8567   44.3291 H   0  0  0  0  0  0  0  0  0  0  0  0
   55.9192   31.5072   44.7923 H   0  0  0  0  0  0  0  0  0  0  0  0
   55.9183   30.7537   43.1272 H   0  0  0  0  0  0  0  0  0  0  0  0
  1  2  1  0
  2  3  1  0
  3  4  1  0
  4  5  1  0
  5  6  1  0
  6  7  1  0
  7  8  2  0
  7  9  1  0
  9 10  2  0
 10 11  1  0
 11 12  2  0
 12 13  1  0
 13 14  2  0
 14 15  1  0
 15 16  1  0
 16 17  2  0
 16 18  1  0
 18 19  2  0
 19 20  1  0
 20 21  1  0
 20 22  1  0
 22 23  2  0
 23 24  1  0
 24 25  1  0
 25 26  2  0
 25 27  1  0
 27 28  1  0
 28 29  1  0
 29 30  2  0
 30 31  1  0
 31 32  2  0
 32 33  1  0
 33 34  2  0
 24 35  2  0
 35 36  1  0
 36 37  2  0
 37 38  1  0
 38 39  2  0
  5 40  1  0
 40 41  1  0
 41  2  1  0
 14  9  1  0
 38 18  1  0
 37 22  1  0
 34 29  1  0
  1 42  1  0
  1 43  1  0
  1 44  1  0
  2 45  1  6
  3 46  1  0
  3 47  1  0
  4 48  1  0
  4 49  1  0
  5 50  1  6
  6 51  1  0
 10 52  1  0
 11 53  1  0
 12 54  1  0
 13 55  1  0
 19 56  1  0
 21 57  1  0
 21 58  1  0
 21 59  1  0
 23 60  1  0
 28 61  1  0
 28 62  1  0
 30 63  1  0
 31 64  1  0
 32 65  1  0
 33 66  1  0
 34 67  1  0
 35 68  1  0
 36 69  1  0
 40 70  1  0
 40 71  1  0
 41 72  1  0
 41 73  1  0
M  CHG  2  15  -1  27  -1
M  END
>  <UniqueID>  (10) 
9

>  <SMILES>  (10) 
CC1CCC(NC(=O)c2ccccc2[N-]C(=O)c2cn(C)c3cc(C(=O)[N-]Cc4ccccc4)ccc3c2=O)CC1

>  <Energy>  (10) 
102.39980928494172

>  <Genealogy>  (10) 
CC1CCC(NC(=O)c2ccccc2[N-]C(=O)c2cn(C)c3cc(C(=O)[N-]Cc4ccccc4)ccc3c2=O)CC1 (protonated)
CC1CCC(NC(=O)c2ccccc2[N-]C(=O)c2cn(C)c3cc(C(=O)[N-]Cc4ccccc4)ccc3c2=O)CC1 (3D coordinates assigned)
CC1CCC(NC(=O)c2ccccc2[N-]C(=O)c2cn(C)c3cc(C(=O)[N-]Cc4ccccc4)ccc3c2=O)CC1 (nonaromatic ring conformer: 102.39980928494172 kcal/mol)

>  <smiles>  (10) 
CC1CCC(NC(=O)c2ccccc2NC(=O)c2cn(C)c3cc(C(=O)NCc4ccccc4)ccc3c2=O)CC1

>  <score_type>  (10) 
oracle

>  <origin>  (10) 
adg

>  <m_score__min__energy>  (10) 
-12.039999999999999

>  <m_primary>  (10) 
energy

$$$$
10:0
     RDKit          3D

 35 37  0  0  0  0  0  0  0  0999 V2000
   55.5660   29.0450   44.7050 O   0  0  0  0  0  0  0  0  0  0  0  0
   56.5060   29.8620   44.8690 C   0  0  0  0  0  0  0  0  0  0  0  0
   56.3100   31.2100   44.8000 N   0  0  0  0  0  0  0  0  0  0  0  0
   57.3780   32.0010   44.9900 C   0  0  0  0  0  0  0  0  0  0  0  0
   57.2840   33.7920   44.9320 S   0  0  0  0  0  0  0  0  0  0  0  0
   59.0320   34.3730   44.8770 C   0  0  0  0  0  0  0  0  0  0  0  0
   59.4080   34.6560   46.3040 C   0  0  0  0  0  0  0  0  0  0  0  0
   59.7570   33.5240   46.9940 O   0  0  0  0  0  0  0  0  0  0  0  0
   61.0200   33.0690   47.2310 C   0  0  0  0  0  0  0  0  0  0  0  0
   62.0690   33.8210   46.7280 C   0  0  0  0  0  0  0  0  0  0  0  0
   63.3960   33.5070   46.8800 C   0  0  0  0  0  0  0  0  0  0  0  0
   63.7290   32.3580   47.5830 C   0  0  0  0  0  0  0  0  0  0  0  0
   62.7040   31.5980   48.0910 C   0  0  0  0  0  0  0  0  0  0  0  0
   61.3610   31.9340   47.9270 C   0  0  0  0  0  0  0  0  0  0  0  0
   58.6170   31.4890   45.2430 N   0  0  0  0  0  0  0  0  0  0  0  0
   58.8200   30.1620   45.3130 C   0  0  0  0  0  0  0  0  0  0  0  0
   60.0860   29.7000   45.5700 C   0  0  0  0  0  0  0  0  0  0  0  0
   60.3500   28.3340   45.6540 C   0  0  0  0  0  0  0  0  0  0  0  0
   59.2760   27.4960   45.4640 C   0  0  0  0  0  0  0  0  0  0  0  0
   57.9890   27.9670   45.2020 C   0  0  0  0  0  0  0  0  0  0  0  0
   57.7540   29.3200   45.1250 C   0  0  0  0  0  0  0  0  0  0  0  0
   59.6830   33.5928   44.4557 H   0  0  0  0  0  0  0  0  0  0  0  0
   59.1454   35.2637   44.2416 H   0  0  0  0  0  0  0  0  0  0  0  0
   60.2614   35.3500   46.3120 H   0  0  0  0  0  0  0  0  0  0  0  0
   58.5267   35.0888   46.8000 H   0  0  0  0  0  0  0  0  0  0  0  0
   61.8207   34.7342   46.1672 H   0  0  0  0  0  0  0  0  0  0  0  0
   64.1786   34.1519   46.4539 H   0  0  0  0  0  0  0  0  0  0  0  0
   64.7793   32.0655   47.7286 H   0  0  0  0  0  0  0  0  0  0  0  0
   62.9535   30.6849   48.6514 H   0  0  0  0  0  0  0  0  0  0  0  0
   60.5761   31.2922   48.3536 H   0  0  0  0  0  0  0  0  0  0  0  0
   59.4410   32.1160   45.3890 H   0  0  0  0  0  0  0  0  0  0  0  0
   60.9060   30.4193   45.7121 H   0  0  0  0  0  0  0  0  0  0  0  0
   61.3593   27.9483   45.8604 H   0  0  0  0  0  0  0  0  0  0  0  0
   59.4384   26.4095   45.5210 H   0  0  0  0  0  0  0  0  0  0  0  0
   57.1622   27.2561   45.0570 H   0  0  0  0  0  0  0  0  0  0  0  0
  1  2  2  0
  2  3  1  0
  3  4  2  0
  4  5  1  0
  5  6  1  0
  6  7  1  0
  7  8  1  0
  8  9  1  0
  9 10  2  0
 10 11  1  0
 11 12  2  0
 12 13  1  0
 13 14  2  0
  4 15  1  0
 15 16  1  0
 16 17  2  0
 17 18  1  0
 18 19  2  0
 19 20  1  0
 20 21  2  0
 21  2  1  0
 14  9  1  0
 21 16  1  0
  6 22  1  0
  6 23  1  0
  7 24  1  0
  7 25  1  0
 10 26  1  0
 11 27  1  0
 12 28  1  0
 13 29  1  0
 14 30  1  0
 15 31  1  0
 17 32  1  0
 18 33  1  0
 19 34  1  0
 20 35  1  0
M  END
>  <smiles>  (11) 
O=c1nc(SCCOc2ccccc2)[nH]c2ccccc12

>  <score_type>  (11) 
oracle

>  <origin>  (11) 
adg

>  <m_score__min__energy>  (11) 
-7.5199999999999996

>  <m_primary>  (11) 
energy

$$$$
11:0
     RDKit          3D

 79 82  0  0  0  0  0  0  0  0999 V2000
   54.3740   26.6860   46.7450 H   0  0  0  0  0  0  0  0  0  0  0  0
   55.0940   26.7100   46.0390 O   0  0  0  0  0  0  0  0  0  0  0  0
   56.4000   26.3490   46.3490 C   0  0  0  0  0  0  0  0  0  0  0  0
   56.7350   25.1370   46.8310 N   0  0  0  0  0  0  0  0  0  0  0  0
   58.0780   25.1630   46.9570 C   0  0  0  0  0  0  0  0  0  0  0  0
   58.6871   24.3231   47.3225 H   0  0  0  0  0  0  0  0  0  0  0  0
   58.5850   26.3870   46.5650 C   0  0  0  0  0  0  0  0  0  0  0  0
   59.9970   26.7920   46.6270 C   0  0  0  0  0  0  0  0  0  0  0  0
   60.9000   25.9140   46.6440 O   0  0  0  0  0  0  0  0  0  0  0  0
   60.3590   28.1720   46.6630 N   0  0  0  0  0  0  0  0  0  0  0  0
   60.7970   28.8190   47.8960 C   0  0  1  0  0  0  0  0  0  0  0  0
   61.8720   28.6082   47.9954 H   0  0  0  0  0  0  0  0  0  0  0  0
   60.4680   30.2540   47.8320 C   0  0  0  0  0  0  0  0  0  0  0  0
   60.9940   31.0300   46.9940 O   0  0  0  0  0  0  0  0  0  0  0  0
   59.4980   30.6650   48.7850 N   0  0  0  0  0  0  0  0  0  0  0  0
   59.1150   29.5140   49.5970 C   0  0  2  0  0  0  0  0  0  0  0  0
   58.0576   29.2463   49.4549 H   0  0  0  0  0  0  0  0  0  0  0  0
   59.2040   29.8840   51.4100 S   0  0  0  0  0  0  0  0  0  0  0  0
   60.2780   31.3610   51.3000 C   0  0  0  0  0  0  0  0  0  0  0  0
   61.2255   31.0933   50.8095 H   0  0  0  0  0  0  0  0  0  0  0  0
   60.4916   31.7434   52.3090 H   0  0  0  0  0  0  0  0  0  0  0  0
   59.5690   32.4200   50.4900 C   0  0  0  0  0  0  0  0  0  0  0  0
   59.2810   33.6290   51.0050 C   0  0  0  0  0  0  0  0  0  0  0  0
   59.8697   34.4990   50.6787 H   0  0  0  0  0  0  0  0  0  0  0  0
   58.2590   33.8180   51.9410 O   0  0  0  0  0  0  0  0  0  0  0  0
   57.6180   32.7490   52.5780 C   0  0  0  0  0  0  0  0  0  0  0  0
   56.6350   32.1720   52.0360 O   0  0  0  0  0  0  0  0  0  0  0  0
   58.1400   32.2490   53.8820 C   0  0  0  0  0  0  0  0  0  0  0  0
   57.6133   32.7535   54.7055 H   0  0  0  0  0  0  0  0  0  0  0  0
   57.9746   31.1637   53.9513 H   0  0  0  0  0  0  0  0  0  0  0  0
   59.2172   32.4609   53.9513 H   0  0  0  0  0  0  0  0  0  0  0  0
   59.0650   32.0380   49.1130 C   0  0  1  0  0  0  0  0  0  0  0  0
   57.9652   32.0553   49.1229 H   0  0  0  0  0  0  0  0  0  0  0  0
   59.4840   33.0400   48.0640 C   0  0  0  0  0  0  0  0  0  0  0  0
   58.7330   33.2490   47.0750 O   0  0  0  0  0  0  0  0  0  0  0  0
   60.7300   33.6760   48.1580 O   0  0  0  0  0  0  0  0  0  0  0  0
   61.6130   33.8540   47.0540 C   0  0  0  0  0  0  0  0  0  0  0  0
   61.6565   34.9223   46.7954 H   0  0  0  0  0  0  0  0  0  0  0  0
   61.2354   33.2694   46.2022 H   0  0  0  0  0  0  0  0  0  0  0  0
   63.0140   33.3660   47.3990 C   0  0  0  0  0  0  0  0  0  0  0  0
   63.1294   33.3258   48.4922 H   0  0  0  0  0  0  0  0  0  0  0  0
   63.1667   32.3617   46.9770 H   0  0  0  0  0  0  0  0  0  0  0  0
   63.7576   34.0581   46.9770 H   0  0  0  0  0  0  0  0  0  0  0  0
   60.0000   28.3140   49.1200 C   0  0  2  0  0  0  0  0  0  0  0  0
   59.3404   27.4647   48.8883 H   0  0  0  0  0  0  0  0  0  0  0  0
   60.9590   27.8050   50.1650 C   0  0  0  0  0  0  0  0  0  0  0  0
   61.8040   28.5790   50.6910 O   0  0  0  0  0  0  0  0  0  0  0  0
   60.8820   26.4660   50.5480 O   0  0  0  0  0  0  0  0  0  0  0  0
   61.0800   26.0070   51.8780 C   0  0  0  0  0  0  0  0  0  0  0  0
   60.2582   26.3613   52.5176 H   0  0  0  0  0  0  0  0  0  0  0  0
   61.0990   24.9073   51.8950 H   0  0  0  0  0  0  0  0  0  0  0  0
   62.3180   26.5200   52.3610 O   0  0  0  0  0  0  0  0  0  0  0  0
   63.5550   25.9660   51.9980 C   0  0  0  0  0  0  0  0  0  0  0  0
   63.5960   24.9210   51.2870 O   0  0  0  0  0  0  0  0  0  0  0  0
   64.8350   26.6890   52.3650 C   0  0  0  0  0  0  0  0  0  0  0  0
   65.2510   26.2510   53.7790 C   0  0  0  0  0  0  0  0  0  0  0  0
   64.6934   26.8381   54.5236 H   0  0  0  0  0  0  0  0  0  0  0  0
   65.0274   25.1823   53.9125 H   0  0  0  0  0  0  0  0  0  0  0  0
   66.3298   26.4193   53.9125 H   0  0  0  0  0  0  0  0  0  0  0  0
   64.6280   28.2180   52.3410 C   0  0  0  0  0  0  0  0  0  0  0  0
   64.5766   28.5973   53.3723 H   0  0  0  0  0  0  0  0  0  0  0  0
   65.4699   28.6938   51.8168 H   0  0  0  0  0  0  0  0  0  0  0  0
   63.6899   28.4528   51.8168 H   0  0  0  0  0  0  0  0  0  0  0  0
   65.9480   26.3210   51.3650 C   0  0  0  0  0  0  0  0  0  0  0  0
   66.8519   26.0221   51.9160 H   0  0  0  0  0  0  0  0  0  0  0  0
   65.6114   25.4863   50.7325 H   0  0  0  0  0  0  0  0  0  0  0  0
   66.1753   27.1918   50.7325 H   0  0  0  0  0  0  0  0  0  0  0  0
   57.5060   27.1560   46.1730 C   0  0  0  0  0  0  0  0  0  0  0  0
   57.5390   28.4470   45.4640 C   0  0  0  0  0  0  0  0  0  0  0  0
   57.8250   29.6270   46.1740 C   0  0  0  0  0  0  0  0  0  0  0  0
   57.9934   29.5855   47.2602 H   0  0  0  0  0  0  0  0  0  0  0  0
   57.8960   30.8500   45.5060 C   0  0  0  0  0  0  0  0  0  0  0  0
   58.1332   31.7685   46.0629 H   0  0  0  0  0  0  0  0  0  0  0  0
   57.6650   30.9070   44.1260 C   0  0  0  0  0  0  0  0  0  0  0  0
   57.7400   32.4460   43.2870 Cl  0  0  0  0  0  0  0  0  0  0  0  0
   57.3840   29.7360   43.4120 C   0  0  0  0  0  0  0  0  0  0  0  0
   57.2045   29.7841   42.3278 H   0  0  0  0  0  0  0  0  0  0  0  0
   57.3310   28.5050   44.0740 C   0  0  0  0  0  0  0  0  0  0  0  0
   57.1270   27.5838   43.5086 H   0  0  0  0  0  0  0  0  0  0  0  0
  1  2  1  0
  2  3  1  0
  3  4  1  0
  4  5  1  0
  5  6  1  0
  5  7  2  0
  7  8  1  0
  8  9  2  0
  8 10  1  0
 10 11  1  0
 11 12  1  1
 11 13  1  0
 13 14  2  0
 13 15  1  0
 15 16  1  0
 16 17  1  6
 16 18  1  0
 18 19  1  0
 19 20  1  0
 19 21  1  0
 19 22  1  0
 22 23  2  0
 23 24  1  0
 23 25  1  0
 25 26  1  0
 26 27  2  0
 26 28  1  0
 28 29  1  0
 28 30  1  0
 28 31  1  0
 22 32  1  0
 32 33  1  1
 32 34  1  0
 34 35  2  0
 34 36  1  0
 36 37  1  0
 37 38  1  0
 37 39  1  0
 37 40  1  0
 40 41  1  0
 40 42  1  0
 40 43  1  0
 16 44  1  0
 44 45  1  6
 44 46  1  0
 46 47  2  0
 46 48  1  0
 48 49  1  0
 49 50  1  0
 49 51  1  0
 49 52  1  0
 52 53  1  0
 53 54  2  0
 53 55  1  0
 55 56  1  0
 56 57  1  0
 56 58  1  0
 56 59  1  0
 55 60  1  0
 60 61  1  0
 60 62  1  0
 60 63  1  0
 55 64  1  0
 64 65  1  0
 64 66  1  0
 64 67  1  0
  7 68  1  0
 68 69  1  0
 69 70  2  0
 70 71  1  0
 70 72  1  0
 72 73  1  0
 72 74  2  0
 74 75  1  0
 74 76  1  0
 76 77  1  0
 76 78  2  0
 78 79  1  0
 68  3  2  0
 78 69  1  0
 44 11  1  0
 32 15  1  0
M  CHG  2   4  -1  10  -1
M  END
>  <UniqueID>  (12) 
10

>  <SMILES>  (12) 
CCOC(=O)[C@@H]1/C(=C/OC(C)=O)CS[C@@H]2C(C(=O)OCOC(=O)C(C)(C)C)C([N-]C(=O)c3c[n-]c(O)c3-c3ccc(Cl)cc3)C(=O)N12

>  <Energy>  (12) 
124.41880778220526

>  <Genealogy>  (12) 
CCOC(=O)C1C(=COC(C)=O)CSC2C(C(=O)OCOC(=O)C(C)(C)C)C([N-]C(=O)c3c[n-]c(O)c3-c3ccc(Cl)cc3)C(=O)N12 (protonated)
CCOC(=O)[C@@H]1C(=COC(C)=O)CS[C@@H]2C(C(=O)OCOC(=O)C(C)(C)C)C([N-]C(=O)c3c[n-]c(O)c3-c3ccc(Cl)cc3)C(=O)N12 (chirality)
CCOC(=O)[C@@H]1/C(=C/OC(C)=O)CS[C@@H]2C(C(=O)OCOC(=O)C(C)(C)C)C([N-]C(=O)c3c[n-]c(O)c3-c3ccc(Cl)cc3)C(=O)N12 (cis-trans isomerization)
CCOC(=O)[C@@H]1/C(=C/OC(C)=O)CS[C@@H]2C(C(=O)OCOC(=O)C(C)(C)C)C([N-]C(=O)c3c[n-]c(O)c3-c3ccc(Cl)cc3)C(=O)N12 (3D coordinates assigned)
CCOC(=O)[C@@H]1/C(=C/OC(C)=O)CS[C@@H]2C(C(=O)OCOC(=O)C(C)(C)C)C([N-]C(=O)c3c[n-]c(O)c3-c3ccc(Cl)cc3)C(=O)N12 (nonaromatic ring conformer: 124.41880778220526 kcal/mol)

>  <smiles>  (12) 
CCOC(=O)C1C(=COC(C)=O)CSC2C(C(=O)OCOC(=O)C(C)(C)C)C(NC(=O)c3c[nH]c(O)c3-c3ccc(Cl)cc3)C(=O)N12

>  <score_type>  (12) 
oracle

>  <origin>  (12) 
adg

>  <m_score__min__energy>  (12) 
-12.640000000000001

>  <m_primary>  (12) 
energy

$$$$
12:0
     RDKit          3D

 25 26  0  0  0  0  0  0  0  0999 V2000
   57.9541   29.0882   43.1978 H   0  0  0  0  0  0  0  0  0  0  0  0
   57.2520   29.6560   43.8260 C   0  0  0  0  0  0  0  0  0  0  0  0
   56.5290   28.9480   44.9020 C   0  0  0  0  0  0  0  0  0  0  0  0
   55.3730   29.3420   45.2120 O   0  0  0  0  0  0  0  0  0  0  0  0
   57.1030   27.8270   45.5990 N   0  0  0  0  0  0  0  0  0  0  0  0
   56.3900   26.7780   46.1020 C   0  0  0  0  0  0  0  0  0  0  0  0
   55.0060   26.6920   45.9980 O   0  0  0  0  0  0  0  0  0  0  0  0
   57.1480   25.7810   46.7080 C   0  0  0  0  0  0  0  0  0  0  0  0
   56.7571   24.8690   47.1827 H   0  0  0  0  0  0  0  0  0  0  0  0
   58.7710   26.2180   46.5860 S   0  0  0  0  0  0  0  0  0  0  0  0
   58.4340   27.6500   45.7770 C   0  0  0  0  0  0  0  0  0  0  0  0
   59.3100   28.4690   45.3920 O   0  0  0  0  0  0  0  0  0  0  0  0
   57.0850   30.9640   43.5860 C   0  0  0  0  0  0  0  0  0  0  0  0
   56.4456   31.2575   42.7404 H   0  0  0  0  0  0  0  0  0  0  0  0
   57.7120   32.0400   44.3940 C   0  0  0  0  0  0  0  0  0  0  0  0
   58.2470   33.2110   43.8160 C   0  0  0  0  0  0  0  0  0  0  0  0
   58.2004   33.3548   42.7264 H   0  0  0  0  0  0  0  0  0  0  0  0
   58.8360   34.1890   44.6230 C   0  0  0  0  0  0  0  0  0  0  0  0
   59.2444   35.1026   44.1664 H   0  0  0  0  0  0  0  0  0  0  0  0
   58.9080   34.0110   46.0060 C   0  0  0  0  0  0  0  0  0  0  0  0
   59.3685   34.7854   46.6371 H   0  0  0  0  0  0  0  0  0  0  0  0
   58.3950   32.8490   46.5880 C   0  0  0  0  0  0  0  0  0  0  0  0
   58.4920   32.6200   48.3250 Cl  0  0  0  0  0  0  0  0  0  0  0  0
   57.8050   31.8650   45.7860 C   0  0  0  0  0  0  0  0  0  0  0  0
   57.4111   30.9479   46.2483 H   0  0  0  0  0  0  0  0  0  0  0  0
  1  2  1  0
  2  3  1  0
  3  4  2  0
  3  5  1  0
  5  6  1  0
  6  7  1  0
  6  8  2  0
  8  9  1  0
  8 10  1  0
 10 11  1  0
 11 12  2  0
  2 13  2  0
 13 14  1  0
 13 15  1  0
 15 16  2  0
 16 17  1  0
 16 18  1  0
 18 19  1  0
 18 20  2  0
 20 21  1  0
 20 22  1  0
 22 23  1  0
 22 24  2  0
 24 25  1  0
 11  5  1  0
 24 15  1  0
M  CHG  1   7  -1
M  END
>  <UniqueID>  (13) 
11

>  <SMILES>  (13) 
O=C(/C=C/c1cccc(Cl)c1)n1c([O-])csc1=O

>  <Energy>  (13) 
64.7527672826965

>  <Genealogy>  (13) 
O=C(C=Cc1cccc(Cl)c1)n1c([O-])csc1=O (protonated)
O=C(/C=C/c1cccc(Cl)c1)n1c([O-])csc1=O (cis-trans isomerization)
O=C(/C=C/c1cccc(Cl)c1)n1c([O-])csc1=O (3D coordinates assigned)
O=C(/C=C/c1cccc(Cl)c1)n1c([O-])csc1=O (optimized conformer: 64.7527672826965 kcal/mol)

>  <smiles>  (13) 
O=C(C=Cc1cccc(Cl)c1)n1c(O)csc1=O

>  <score_type>  (13) 
oracle

>  <origin>  (13) 
adg

>  <m_score__min__energy>  (13) 
-11.44

>  <m_primary>  (13) 
energy

$$$$
13:0
     RDKit          3D

 45 47  0  0  1  0  0  0  0  0999 V2000
   60.1920   27.3640   48.5200 C   0  0  0  0  0  0  0  0  0  0  0  0
   59.9360   28.6220   49.2320 N   0  0  0  0  0  0  0  0  0  0  0  0
   59.8270   29.7830   48.4010 C   0  0  0  0  0  0  0  0  0  0  0  0
   59.9550   29.6160   47.1800 O   0  0  0  0  0  0  0  0  0  0  0  0
   59.5820   31.0430   48.9810 N   0  0  0  0  0  0  0  0  0  0  0  0
   59.4490   32.2690   48.3010 C   0  0  0  0  0  0  0  0  0  0  0  0
   60.1580   33.4120   48.5710 C   0  0  0  0  0  0  0  0  0  0  0  0
   59.9790   34.5990   47.8560 C   0  0  0  0  0  0  0  0  0  0  0  0
   59.0620   34.6660   46.8300 C   0  0  0  0  0  0  0  0  0  0  0  0
   58.3260   33.5040   46.5390 C   0  0  0  0  0  0  0  0  0  0  0  0
   57.3420   33.5570   45.4870 C   0  0  0  0  0  0  0  0  0  0  0  0
   57.6680   28.2440   46.0890 N   0  0  0  0  0  0  0  0  0  0  0  0
   57.0130   27.1660   46.2390 C   0  0  0  0  0  0  0  0  0  0  0  0
   57.5110   26.0540   46.8960 C   0  0  0  0  0  0  0  0  0  0  0  0
   56.6540   29.5640   42.8610 C   0  0  0  0  0  0  0  0  0  0  0  0
   56.9630   28.6800   43.8250 N   0  0  0  0  0  0  0  0  0  0  0  0
   57.3340   29.1610   45.0490 C   0  0  0  0  0  0  0  0  0  0  0  0
   57.1190   32.6300   44.5060 N   0  0  0  0  0  0  0  0  0  0  0  0
   57.0840   31.3970   44.3360 C   0  0  0  0  0  0  0  0  0  0  0  0
   56.7130   30.9000   43.1110 C   0  0  0  0  0  0  0  0  0  0  0  0
   56.5110   25.1000   46.8500 C   0  0  0  0  0  0  0  0  0  0  0  0
   56.6320   23.7430   47.4430 C   0  0  0  0  0  0  0  0  0  0  0  0
   55.5190   25.6280   46.2150 O   0  0  0  0  0  0  0  0  0  0  0  0
   55.7770   26.8620   45.8340 N   0  0  0  0  0  0  0  0  0  0  0  0
   57.3930   30.4860   45.2980 N   0  0  0  0  0  0  0  0  0  0  0  0
   58.5320   32.3380   47.2720 C   0  0  0  0  0  0  0  0  0  0  0  0
   60.3562   26.5569   49.2491 H   0  0  0  0  0  0  0  0  0  0  0  0
   59.3257   27.1171   47.8887 H   0  0  0  0  0  0  0  0  0  0  0  0
   61.0859   27.4753   47.8887 H   0  0  0  0  0  0  0  0  0  0  0  0
   59.8430   28.6600   50.2740 H   0  0  0  0  0  0  0  0  0  0  0  0
   59.4920   31.0490   50.0390 H   0  0  0  0  0  0  0  0  0  0  0  0
   60.8983   33.3932   49.3844 H   0  0  0  0  0  0  0  0  0  0  0  0
   60.5748   35.4868   48.1143 H   0  0  0  0  0  0  0  0  0  0  0  0
   58.9113   35.5944   46.2596 H   0  0  0  0  0  0  0  0  0  0  0  0
   56.3782   33.6506   46.0088 H   0  0  0  0  0  0  0  0  0  0  0  0
   57.7918   34.3508   44.8725 H   0  0  0  0  0  0  0  0  0  0  0  0
   58.5025   25.9502   47.3610 H   0  0  0  0  0  0  0  0  0  0  0  0
   56.3521   29.2058   41.8657 H   0  0  0  0  0  0  0  0  0  0  0  0
   56.9120   27.6660   43.6140 H   0  0  0  0  0  0  0  0  0  0  0  0
   56.4553   31.6043   42.3063 H   0  0  0  0  0  0  0  0  0  0  0  0
   56.6251   23.8204   48.5403 H   0  0  0  0  0  0  0  0  0  0  0  0
   55.7856   23.1222   47.1139 H   0  0  0  0  0  0  0  0  0  0  0  0
   57.5748   23.2818   47.1139 H   0  0  0  0  0  0  0  0  0  0  0  0
   55.1420   27.5090   45.3030 H   0  0  0  0  0  0  0  0  0  0  0  0
   57.9443   31.4423   47.0225 H   0  0  0  0  0  0  0  0  0  0  0  0
  1  2  1  0
  2  3  1  0
  3  4  2  0
  3  5  1  0
  5  6  1  0
  6  7  2  0
  7  8  1  0
  8  9  2  0
  9 10  1  0
 10 11  1  0
 11 12  1  0
 12 13  2  0
 13 14  1  0
 14 15  2  0
 15 16  1  0
 16 17  1  0
 17 18  1  0
 18 19  2  0
 19 20  1  0
 20 21  2  0
 21 22  1  0
 21 23  1  0
 23 24  1  0
 17 25  2  0
 10 26  2  0
 26  6  1  0
 25 13  1  0
 24 19  1  0
  1 27  1  0
  1 28  1  0
  1 29  1  0
  2 30  1  0
  5 31  1  0
  7 32  1  0
  8 33  1  0
  9 34  1  0
 11 35  1  0
 11 36  1  0
 14 37  1  0
 15 38  1  0
 16 39  1  0
 20 40  1  0
 22 41  1  0
 22 42  1  0
 22 43  1  0
 24 44  1  0
 26 45  1  0
M  END
>  <smiles>  (14) 
CNC(=O)Nc1cccc(CN=c2cc[nH]c(N=c3cc(C)o[nH]3)n2)c1

>  <score_type>  (14) 
oracle

>  <origin>  (14) 
adg

>  <m_score__min__energy>  (14) 
-8.9199999999999999

>  <m_primary>  (14) 
energy

$$$$
14:0
     RDKit          3D

 28 29  0  0  0  0  0  0  0  0999 V2000
   57.5550   25.5830   46.3370 C   0  0  0  0  0  0  0  0  0  0  0  0
   56.6890   26.7700   46.0420 C   0  0  0  0  0  0  0  0  0  0  0  0
   55.4370   26.6080   46.0430 O   0  0  0  0  0  0  0  0  0  0  0  0
   57.2500   28.1160   45.7500 C   0  0  0  0  0  0  0  0  0  0  0  0
   58.5900   28.3820   46.0930 C   0  0  0  0  0  0  0  0  0  0  0  0
   59.1730   29.6330   45.8280 C   0  0  0  0  0  0  0  0  0  0  0  0
   60.5380   29.8950   46.2070 N   0  0  0  0  0  0  0  0  0  0  0  0
   60.5800   31.0270   47.0920 C   0  0  0  0  0  0  0  0  0  0  0  0
   61.6830   31.8920   47.0990 C   0  0  0  0  0  0  0  0  0  0  0  0
   61.6590   32.9980   47.9520 C   0  0  0  0  0  0  0  0  0  0  0  0
   62.6350   33.7920   47.9860 O   0  0  0  0  0  0  0  0  0  0  0  0
   60.5790   33.2180   48.7460 N   0  0  0  0  0  0  0  0  0  0  0  0
   59.5130   32.3760   48.7230 C   0  0  0  0  0  0  0  0  0  0  0  0
   58.5210   32.6000   49.4620 O   0  0  0  0  0  0  0  0  0  0  0  0
   59.5170   31.2960   47.8990 N   0  0  0  0  0  0  0  0  0  0  0  0
   58.3970   30.6370   45.2330 C   0  0  0  0  0  0  0  0  0  0  0  0
   57.0650   30.3930   44.8980 C   0  0  0  0  0  0  0  0  0  0  0  0
   56.4850   29.1460   45.1570 C   0  0  0  0  0  0  0  0  0  0  0  0
   55.1440   28.9620   44.8420 O   0  0  0  0  0  0  0  0  0  0  0  0
   57.6466   25.4575   47.4260 H   0  0  0  0  0  0  0  0  0  0  0  0
   57.1015   24.6808   45.9008 H   0  0  0  0  0  0  0  0  0  0  0  0
   58.5526   25.7395   45.9008 H   0  0  0  0  0  0  0  0  0  0  0  0
   59.1903   27.5973   46.5765 H   0  0  0  0  0  0  0  0  0  0  0  0
   61.1270   30.0750   45.3600 H   0  0  0  0  0  0  0  0  0  0  0  0
   60.9430   29.0580   46.6910 H   0  0  0  0  0  0  0  0  0  0  0  0
   62.5487   31.7040   46.4469 H   0  0  0  0  0  0  0  0  0  0  0  0
   58.8406   31.6227   45.0291 H   0  0  0  0  0  0  0  0  0  0  0  0
   56.4663   31.1864   44.4269 H   0  0  0  0  0  0  0  0  0  0  0  0
  1  2  1  0
  2  3  2  0
  2  4  1  0
  4  5  2  0
  5  6  1  0
  6  7  1  0
  7  8  1  0
  8  9  2  0
  9 10  1  0
 10 11  2  0
 10 12  1  0
 12 13  1  0
 13 14  2  0
 13 15  1  0
  6 16  2  0
 16 17  1  0
 17 18  2  0
 18 19  1  0
 18  4  1  0
 15  8  1  0
  1 20  1  0
  1 21  1  0
  1 22  1  0
  5 23  1  0
  7 24  1  0
  7 25  1  0
  9 26  1  0
 16 27  1  0
 17 28  1  0
M  CHG  4   7   1  12  -1  15  -1  19  -1
M  END
>  <UniqueID>  (15) 
12

>  <SMILES>  (15) 
CC(=O)c1cc([NH2+]c2cc(=O)[n-]c(=O)[n-]2)ccc1[O-]

>  <Energy>  (15) 
34.63786000745039

>  <Genealogy>  (15) 
CC(=O)c1cc([NH2+]c2cc(=O)[n-]c(=O)[n-]2)ccc1[O-] (protonated)
CC(=O)c1cc([NH2+]c2cc(=O)[n-]c(=O)[n-]2)ccc1[O-] (3D coordinates assigned)
CC(=O)c1cc([NH2+]c2cc(=O)[n-]c(=O)[n-]2)ccc1[O-] (optimized conformer: 34.63786000745039 kcal/mol)

>  <smiles>  (15) 
CC(=O)c1cc(Nc2cc(=O)[nH]c(=O)[nH]2)ccc1O

>  <score_type>  (15) 
oracle

>  <origin>  (15) 
adg

>  <m_score__min__energy>  (15) 
-11.32

>  <m_primary>  (15) 
energy

$$$$
15:0
     RDKit          3D

 50 53  0  0  0  0  0  0  0  0999 V2000
   56.9580   30.8150   54.2390 C   0  0  0  0  0  0  0  0  0  0  0  0
   56.6380   30.7360   52.4910 S   0  0  0  0  0  0  0  0  0  0  0  0
   55.2070   31.1190   52.2280 O   0  0  0  0  0  0  0  0  0  0  0  0
   56.8610   29.3330   51.9980 O   0  0  0  0  0  0  0  0  0  0  0  0
   57.7210   31.8390   51.6480 C   0  0  0  0  0  0  0  0  0  0  0  0
   58.1750   33.0050   52.2760 C   0  0  0  0  0  0  0  0  0  0  0  0
   59.0390   33.8750   51.6040 C   0  0  0  0  0  0  0  0  0  0  0  0
   59.4510   33.5890   50.2890 C   0  0  0  0  0  0  0  0  0  0  0  0
   60.3150   34.4390   49.5830 O   0  0  0  0  0  0  0  0  0  0  0  0
   61.4610   34.0220   48.8900 C   0  0  0  0  0  0  0  0  0  0  0  0
   62.5120   33.4550   49.6200 C   0  0  0  0  0  0  0  0  0  0  0  0
   63.6860   33.0290   48.9790 C   0  0  0  0  0  0  0  0  0  0  0  0
   64.8020   32.4460   49.7640 C   0  0  0  0  0  0  0  0  0  0  0  0
   66.0160   33.0290   49.7480 C   0  0  0  0  0  0  0  0  0  0  0  0
   67.1370   32.4550   50.5170 C   0  0  0  0  0  0  0  0  0  0  0  0
   68.2670   33.0090   50.4930 O   0  0  0  0  0  0  0  0  0  0  0  0
   66.9310   31.2310   51.3080 C   0  0  0  0  0  0  0  0  0  0  0  0
   65.7320   30.6450   51.3380 C   0  0  0  0  0  0  0  0  0  0  0  0
   64.6010   31.2190   50.5840 C   0  0  0  0  0  0  0  0  0  0  0  0
   63.4670   30.6780   50.6650 O   0  0  0  0  0  0  0  0  0  0  0  0
   63.7920   33.1670   47.5860 C   0  0  0  0  0  0  0  0  0  0  0  0
   62.7390   33.7080   46.8470 C   0  0  0  0  0  0  0  0  0  0  0  0
   61.5550   34.1120   47.4860 C   0  0  0  0  0  0  0  0  0  0  0  0
   60.4740   34.6310   46.7560 O   0  0  0  0  0  0  0  0  0  0  0  0
   59.4260   33.8840   46.2000 C   0  0  0  0  0  0  0  0  0  0  0  0
   59.4280   32.4940   46.3740 C   0  0  0  0  0  0  0  0  0  0  0  0
   58.4110   31.7100   45.8210 C   0  0  0  0  0  0  0  0  0  0  0  0
   57.3920   32.3110   45.0750 C   0  0  0  0  0  0  0  0  0  0  0  0
   57.3940   33.6940   44.8770 C   0  0  0  0  0  0  0  0  0  0  0  0
   58.4090   34.4810   45.4330 C   0  0  0  0  0  0  0  0  0  0  0  0
   59.0170   32.4080   49.6770 C   0  0  0  0  0  0  0  0  0  0  0  0
   58.1530   31.5390   50.3490 C   0  0  0  0  0  0  0  0  0  0  0  0
   56.0345   30.5870   54.7915 H   0  0  0  0  0  0  0  0  0  0  0  0
   57.7339   30.0815   54.5032 H   0  0  0  0  0  0  0  0  0  0  0  0
   57.3034   31.8254   54.5032 H   0  0  0  0  0  0  0  0  0  0  0  0
   57.8510   33.2374   53.3012 H   0  0  0  0  0  0  0  0  0  0  0  0
   59.3980   34.7862   52.1049 H   0  0  0  0  0  0  0  0  0  0  0  0
   62.4168   33.3417   50.7100 H   0  0  0  0  0  0  0  0  0  0  0  0
   66.1735   33.9424   49.1556 H   0  0  0  0  0  0  0  0  0  0  0  0
   67.7675   30.7979   51.8761 H   0  0  0  0  0  0  0  0  0  0  0  0
   65.5862   29.7285   51.9285 H   0  0  0  0  0  0  0  0  0  0  0  0
   64.7111   32.8466   47.0736 H   0  0  0  0  0  0  0  0  0  0  0  0
   62.8368   33.8188   45.7570 H   0  0  0  0  0  0  0  0  0  0  0  0
   60.2348   32.0164   46.9493 H   0  0  0  0  0  0  0  0  0  0  0  0
   58.4123   30.6205   45.9726 H   0  0  0  0  0  0  0  0  0  0  0  0
   56.5890   31.6948   44.6442 H   0  0  0  0  0  0  0  0  0  0  0  0
   56.5967   34.1650   44.2833 H   0  0  0  0  0  0  0  0  0  0  0  0
   58.4115   35.5688   45.2699 H   0  0  0  0  0  0  0  0  0  0  0  0
   59.3580   32.1619   48.6605 H   0  0  0  0  0  0  0  0  0  0  0  0
   57.8110   30.6167   49.8568 H   0  0  0  0  0  0  0  0  0  0  0  0
  1  2  1  0
  2  3  2  0
  2  4  2  0
  2  5  1  0
  5  6  2  0
  6  7  1  0
  7  8  2  0
  8  9  1  0
  9 10  1  0
 10 11  2  0
 11 12  1  0
 12 13  1  0
 13 14  2  0
 14 15  1  0
 15 16  2  0
 15 17  1  0
 17 18  2  0
 18 19  1  0
 19 20  2  0
 12 21  2  0
 21 22  1  0
 22 23  2  0
 23 24  1  0
 24 25  1  0
 25 26  2  0
 26 27  1  0
 27 28  2  0
 28 29  1  0
 29 30  2  0
  8 31  1  0
 31 32  2  0
 32  5  1  0
 23 10  1  0
 30 25  1  0
 19 13  1  0
  1 33  1  0
  1 34  1  0
  1 35  1  0
  6 36  1  0
  7 37  1  0
 11 38  1  0
 14 39  1  0
 17 40  1  0
 18 41  1  0
 21 42  1  0
 22 43  1  0
 26 44  1  0
 27 45  1  0
 28 46  1  0
 29 47  1  0
 30 48  1  0
 31 49  1  0
 32 50  1  0
M  END
>  <UniqueID>  (16) 
13

>  <SMILES>  (16) 
CS(=O)(=O)c1ccc(Oc2cc(C3=CC(=O)C=CC3=O)ccc2Oc2ccccc2)cc1

>  <Energy>  (16) 
69.31468474175729

>  <Genealogy>  (16) 
CS(=O)(=O)c1ccc(Oc2cc(C3=CC(=O)C=CC3=O)ccc2Oc2ccccc2)cc1 (3D coordinates assigned)
CS(=O)(=O)c1ccc(Oc2cc(C3=CC(=O)C=CC3=O)ccc2Oc2ccccc2)cc1 (nonaromatic ring conformer: 69.31468474175729 kcal/mol)

>  <smiles>  (16) 
CS(=O)(=O)c1ccc(Oc2cc(C3=CC(=O)C=CC3=O)ccc2Oc2ccccc2)cc1

>  <score_type>  (16) 
oracle

>  <origin>  (16) 
adg

>  <m_score__min__energy>  (16) 
-9.9900000000000002

>  <m_primary>  (16) 
energy

$$$$
16:0
     RDKit          3D

 47 49  0  0  0  0  0  0  0  0999 V2000
   55.1590   26.7260   45.9960 O   0  0  0  0  0  0  0  0  0  0  0  0
   56.1730   25.9970   46.1530 C   0  0  0  0  0  0  0  0  0  0  0  0
   56.2590   25.1680   47.2640 O   0  0  0  0  0  0  0  0  0  0  0  0
   57.2620   25.9880   45.1250 C   0  0  0  0  0  0  0  0  0  0  0  0
   58.6310   26.2880   45.7480 C   0  0  0  0  0  0  0  0  0  0  0  0
   58.6620   27.6460   46.4020 C   0  0  0  0  0  0  0  0  0  0  0  0
   58.9520   27.7620   47.7710 C   0  0  0  0  0  0  0  0  0  0  0  0
   58.9520   29.0160   48.3860 C   0  0  0  0  0  0  0  0  0  0  0  0
   58.6680   30.1690   47.6450 C   0  0  0  0  0  0  0  0  0  0  0  0
   58.6860   31.4070   48.2970 O   0  0  0  0  0  0  0  0  0  0  0  0
   59.8490   32.0910   48.6880 C   0  0  0  0  0  0  0  0  0  0  0  0
   60.8860   32.3520   47.7710 C   0  0  0  0  0  0  0  0  0  0  0  0
   62.0160   33.0930   48.1530 C   0  0  0  0  0  0  0  0  0  0  0  0
   63.1330   33.3340   47.1680 C   0  0  0  0  0  0  0  0  0  0  0  0
   64.0510   34.2030   47.7260 F   0  0  0  0  0  0  0  0  0  0  0  0
   62.6470   33.8820   45.9940 F   0  0  0  0  0  0  0  0  0  0  0  0
   63.7690   32.1430   46.8580 F   0  0  0  0  0  0  0  0  0  0  0  0
   62.1260   33.5310   49.4810 C   0  0  0  0  0  0  0  0  0  0  0  0
   61.1140   33.2590   50.4020 C   0  0  0  0  0  0  0  0  0  0  0  0
   59.9800   32.5250   50.0230 C   0  0  0  0  0  0  0  0  0  0  0  0
   58.9310   32.2520   51.0300 C   0  0  0  0  0  0  0  0  0  0  0  0
   58.7260   33.0990   51.9420 O   0  0  0  0  0  0  0  0  0  0  0  0
   58.1570   31.0400   50.9740 N   0  0  0  0  0  0  0  0  0  0  0  0
   57.0870   30.7270   51.8790 C   0  0  0  0  0  0  0  0  0  0  0  0
   57.3730   30.0520   53.0730 C   0  0  0  0  0  0  0  0  0  0  0  0
   56.3420   29.7620   53.9690 C   0  0  0  0  0  0  0  0  0  0  0  0
   55.0700   30.1510   53.6930 N   0  0  0  0  0  0  0  0  0  0  0  0
   54.7630   30.8280   52.5540 C   0  0  0  0  0  0  0  0  0  0  0  0
   53.5740   31.1830   52.3390 O   0  0  0  0  0  0  0  0  0  0  0  0
   55.7660   31.1350   51.6290 C   0  0  0  0  0  0  0  0  0  0  0  0
   58.3420   30.0550   46.2800 C   0  0  0  0  0  0  0  0  0  0  0  0
   57.8070   31.5770   45.2460 Br  0  0  0  0  0  0  0  0  0  0  0  0
   58.3460   28.7970   45.6660 C   0  0  0  0  0  0  0  0  0  0  0  0
   57.2959   24.9965   44.6499 H   0  0  0  0  0  0  0  0  0  0  0  0
   57.0423   26.7717   44.3850 H   0  0  0  0  0  0  0  0  0  0  0  0
   58.8529   25.5224   46.5060 H   0  0  0  0  0  0  0  0  0  0  0  0
   59.3823   26.2777   44.9446 H   0  0  0  0  0  0  0  0  0  0  0  0
   59.1800   26.8621   48.3611 H   0  0  0  0  0  0  0  0  0  0  0  0
   59.1767   29.0980   49.4597 H   0  0  0  0  0  0  0  0  0  0  0  0
   60.8096   31.9703   46.7422 H   0  0  0  0  0  0  0  0  0  0  0  0
   63.0167   34.0930   49.7986 H   0  0  0  0  0  0  0  0  0  0  0  0
   61.2061   33.6237   51.4357 H   0  0  0  0  0  0  0  0  0  0  0  0
   58.3290   30.3730   50.1890 H   0  0  0  0  0  0  0  0  0  0  0  0
   58.4057   29.7517   53.3037 H   0  0  0  0  0  0  0  0  0  0  0  0
   56.5601   29.2178   54.8997 H   0  0  0  0  0  0  0  0  0  0  0  0
   55.5224   31.6919   50.7122 H   0  0  0  0  0  0  0  0  0  0  0  0
   58.0993   28.7107   44.5975 H   0  0  0  0  0  0  0  0  0  0  0  0
  1  2  2  0
  2  3  1  0
  2  4  1  0
  4  5  1  0
  5  6  1  0
  6  7  2  0
  7  8  1  0
  8  9  2  0
  9 10  1  0
 10 11  1  0
 11 12  2  0
 12 13  1  0
 13 14  1  0
 14 15  1  0
 14 16  1  0
 14 17  1  0
 13 18  2  0
 18 19  1  0
 19 20  2  0
 20 21  1  0
 21 22  2  0
 21 23  1  0
 23 24  1  0
 24 25  1  0
 25 26  2  0
 26 27  1  0
 27 28  1  0
 28 29  2  0
 28 30  1  0
  9 31  1  0
 31 32  1  0
 31 33  2  0
 33  6  1  0
 20 11  1  0
 30 24  2  0
  4 34  1  0
  4 35  1  0
  5 36  1  0
  5 37  1  0
  7 38  1  0
  8 39  1  0
 12 40  1  0
 18 41  1  0
 19 42  1  0
 23 43  1  0
 25 44  1  0
 26 45  1  0
 30 46  1  0
 33 47  1  0
M  CHG  2   3  -1  27  -1
M  END
>  <UniqueID>  (17) 
14

>  <SMILES>  (17) 
O=C([O-])CCc1ccc(Oc2cc(C(F)(F)F)ccc2C(=O)Nc2cc[n-]c(=O)c2)c(Br)c1

>  <Energy>  (17) 
64.51652545271209

>  <Genealogy>  (17) 
O=C([O-])CCc1ccc(Oc2cc(C(F)(F)F)ccc2C(=O)Nc2cc[n-]c(=O)c2)c(Br)c1 (protonated)
O=C([O-])CCc1ccc(Oc2cc(C(F)(F)F)ccc2C(=O)Nc2cc[n-]c(=O)c2)c(Br)c1 (3D coordinates assigned)
O=C([O-])CCc1ccc(Oc2cc(C(F)(F)F)ccc2C(=O)Nc2cc[n-]c(=O)c2)c(Br)c1 (optimized conformer: 64.51652545271209 kcal/mol)

>  <smiles>  (17) 
O=C(O)CCc1ccc(Oc2cc(C(F)(F)F)ccc2C(=O)Nc2cc[nH]c(=O)c2)c(Br)c1

>  <score_type>  (17) 
oracle

>  <origin>  (17) 
adg

>  <m_score__min__energy>  (17) 
-11.82

>  <m_primary>  (17) 
energy

$$$$
17:0
     RDKit          3D

 56 59  0  0  0  0  0  0  0  0999 V2000
   63.7490   32.4430   48.7000 C   0  0  0  0  0  0  0  0  0  0  0  0
   62.2360   32.4800   48.9030 C   0  0  2  0  0  0  0  0  0  0  0  0
   61.4980   32.3770   47.5580 C   0  0  0  0  0  0  0  0  0  0  0  0
   60.0840   32.7330   47.7200 N   0  0  0  0  0  0  0  0  0  0  0  0
   59.2770   33.0040   46.5610 C   0  0  0  0  0  0  0  0  0  0  0  0
   59.6460   34.0210   45.6630 C   0  0  0  0  0  0  0  0  0  0  0  0
   58.8950   34.2460   44.5050 C   0  0  0  0  0  0  0  0  0  0  0  0
   57.7780   33.4520   44.2290 C   0  0  0  0  0  0  0  0  0  0  0  0
   57.4000   32.4330   45.1190 C   0  0  0  0  0  0  0  0  0  0  0  0
   56.2670   31.5970   44.8590 N   0  0  0  0  0  0  0  0  0  0  0  0
   56.3960   30.0300   44.1270 S   0  0  0  0  0  0  0  0  0  0  0  0
   56.7680   30.1460   42.6750 O   0  0  0  0  0  0  0  0  0  0  0  0
   55.0650   29.3370   44.2260 O   0  0  0  0  0  0  0  0  0  0  0  0
   57.6100   29.1060   45.0060 C   0  0  0  0  0  0  0  0  0  0  0  0
   58.9650   29.4390   44.8840 C   0  0  0  0  0  0  0  0  0  0  0  0
   59.9240   28.7830   45.6590 C   0  0  0  0  0  0  0  0  0  0  0  0
   59.5410   27.7740   46.5560 C   0  0  0  0  0  0  0  0  0  0  0  0
   60.5610   27.1150   47.4420 C   0  0  0  0  0  0  0  0  0  0  0  0
   60.6050   27.8070   48.7690 C   0  0  0  0  0  0  0  0  0  0  0  0
   60.5330   29.1790   48.9730 C   0  0  0  0  0  0  0  0  0  0  0  0
   60.6800   29.5460   50.3160 C   0  0  0  0  0  0  0  0  0  0  0  0
   60.8870   28.4680   51.1670 C   0  0  0  0  0  0  0  0  0  0  0  0
   60.8860   27.0600   50.2470 S   0  0  0  0  0  0  0  0  0  0  0  0
   58.1840   27.4370   46.6730 C   0  0  0  0  0  0  0  0  0  0  0  0
   57.2250   28.1000   45.9030 C   0  0  0  0  0  0  0  0  0  0  0  0
   58.1410   32.2240   46.2880 C   0  0  0  0  0  0  0  0  0  0  0  0
   59.5270   32.8450   49.0720 C   0  0  0  0  0  0  0  0  0  0  0  0
   60.4060   33.7790   49.9370 C   0  0  1  0  0  0  0  0  0  0  0  0
   60.2180   33.4860   51.4260 C   0  0  0  0  0  0  0  0  0  0  0  0
   61.8480   33.7180   49.6020 N   0  0  0  0  0  0  0  0  0  0  0  0
   64.2501   32.4307   49.6791 H   0  0  0  0  0  0  0  0  0  0  0  0
   64.0214   31.5379   48.1373 H   0  0  0  0  0  0  0  0  0  0  0  0
   64.0653   33.3337   48.1373 H   0  0  0  0  0  0  0  0  0  0  0  0
   61.9500   31.6148   49.5192 H   0  0  0  0  0  0  0  0  0  0  0  0
   61.9639   33.0636   46.8358 H   0  0  0  0  0  0  0  0  0  0  0  0
   61.5649   31.3413   47.1935 H   0  0  0  0  0  0  0  0  0  0  0  0
   60.5293   34.6424   45.8722 H   0  0  0  0  0  0  0  0  0  0  0  0
   59.1835   35.0487   43.8105 H   0  0  0  0  0  0  0  0  0  0  0  0
   57.1939   33.6255   43.3131 H   0  0  0  0  0  0  0  0  0  0  0  0
   59.2752   30.2205   44.1748 H   0  0  0  0  0  0  0  0  0  0  0  0
   60.9848   29.0586   45.5658 H   0  0  0  0  0  0  0  0  0  0  0  0
   60.2886   26.0595   47.5897 H   0  0  0  0  0  0  0  0  0  0  0  0
   61.5506   27.1800   46.9662 H   0  0  0  0  0  0  0  0  0  0  0  0
   60.3762   29.9043   48.1610 H   0  0  0  0  0  0  0  0  0  0  0  0
   60.6358   30.5886   50.6640 H   0  0  0  0  0  0  0  0  0  0  0  0
   61.0276   28.5253   52.2565 H   0  0  0  0  0  0  0  0  0  0  0  0
   57.8739   26.6477   47.3737 H   0  0  0  0  0  0  0  0  0  0  0  0
   56.1629   27.8313   46.0012 H   0  0  0  0  0  0  0  0  0  0  0  0
   57.8315   31.4431   46.9982 H   0  0  0  0  0  0  0  0  0  0  0  0
   58.5088   33.2569   49.0124 H   0  0  0  0  0  0  0  0  0  0  0  0
   59.5023   31.8468   49.5335 H   0  0  0  0  0  0  0  0  0  0  0  0
   60.0622   34.7984   49.7073 H   0  0  0  0  0  0  0  0  0  0  0  0
   60.7183   34.2657   52.0191 H   0  0  0  0  0  0  0  0  0  0  0  0
   59.1443   33.4758   51.6650 H   0  0  0  0  0  0  0  0  0  0  0  0
   60.6562   32.5057   51.6650 H   0  0  0  0  0  0  0  0  0  0  0  0
   62.0820   34.5340   48.9910 H   0  0  0  0  0  0  0  0  0  0  0  0
  1  2  1  0
  2  3  1  0
  3  4  1  0
  4  5  1  0
  5  6  2  0
  6  7  1  0
  7  8  2  0
  8  9  1  0
  9 10  1  0
 10 11  1  0
 11 12  2  0
 11 13  2  0
 11 14  1  0
 14 15  2  0
 15 16  1  0
 16 17  2  0
 17 18  1  0
 18 19  1  0
 19 20  2  0
 20 21  1  0
 21 22  2  0
 22 23  1  0
 17 24  1  0
 24 25  2  0
  9 26  2  0
  4 27  1  0
 27 28  1  0
 28 29  1  0
 28 30  1  0
 30  2  1  0
 26  5  1  0
 25 14  1  0
 23 19  1  0
  1 31  1  0
  1 32  1  0
  1 33  1  0
  2 34  1  1
  3 35  1  0
  3 36  1  0
  6 37  1  0
  7 38  1  0
  8 39  1  0
 15 40  1  0
 16 41  1  0
 18 42  1  0
 18 43  1  0
 20 44  1  0
 21 45  1  0
 22 46  1  0
 24 47  1  0
 25 48  1  0
 26 49  1  0
 27 50  1  0
 27 51  1  0
 28 52  1  1
 29 53  1  0
 29 54  1  0
 29 55  1  0
 30 56  1  0
M  CHG  1  10  -1
M  END
>  <UniqueID>  (18) 
15

>  <SMILES>  (18) 
C[C@@H]1CN(c2cccc([N-]S(=O)(=O)c3ccc(Cc4cccs4)cc3)c2)C[C@@H](C)N1

>  <Energy>  (18) 
92.67310210593122

>  <Genealogy>  (18) 
CC1CN(c2cccc([N-]S(=O)(=O)c3ccc(Cc4cccs4)cc3)c2)CC(C)N1 (protonated)
C[C@@H]1CN(c2cccc([N-]S(=O)(=O)c3ccc(Cc4cccs4)cc3)c2)C[C@@H](C)N1 (chirality)
C[C@@H]1CN(c2cccc([N-]S(=O)(=O)c3ccc(Cc4cccs4)cc3)c2)C[C@@H](C)N1 (3D coordinates assigned)
C[C@@H]1CN(c2cccc([N-]S(=O)(=O)c3ccc(Cc4cccs4)cc3)c2)C[C@@H](C)N1 (nonaromatic ring conformer: 92.67310210593122 kcal/mol)

>  <smiles>  (18) 
CC1CN(c2cccc(NS(=O)(=O)c3ccc(Cc4cccs4)cc3)c2)CC(C)N1

>  <score_type>  (18) 
oracle

>  <origin>  (18) 
adg

>  <m_score__min__energy>  (18) 
-11.140000000000001

>  <m_primary>  (18) 
energy

$$$$
18:0
     RDKit          3D

 45 47  0  0  0  0  0  0  0  0999 V2000
   59.6710   28.4380   45.3070 C   0  0  0  0  0  0  0  0  0  0  0  0
   58.5990   29.4440   45.0110 C   0  0  0  0  0  0  0  0  0  0  0  0
   58.8910   30.7820   44.8640 C   0  0  0  0  0  0  0  0  0  0  0  0
   57.8150   31.6220   44.5850 C   0  0  0  0  0  0  0  0  0  0  0  0
   58.0430   33.3580   44.3650 S   0  0  0  0  0  0  0  0  0  0  0  0
   57.8780   34.2400   45.9320 C   0  0  0  0  0  0  0  0  0  0  0  0
   59.1240   34.2220   46.7480 C   0  0  0  0  0  0  0  0  0  0  0  0
   59.2440   34.9440   47.7830 O   0  0  0  0  0  0  0  0  0  0  0  0
   60.1620   33.3730   46.3280 N   0  0  0  0  0  0  0  0  0  0  0  0
   61.4170   33.2380   46.9780 C   0  0  0  0  0  0  0  0  0  0  0  0
   62.5850   33.8140   46.4670 C   0  0  0  0  0  0  0  0  0  0  0  0
   63.7660   33.6620   47.1700 C   0  0  0  0  0  0  0  0  0  0  0  0
   63.8360   32.9670   48.3540 C   0  0  0  0  0  0  0  0  0  0  0  0
   62.6660   32.3930   48.8640 C   0  0  0  0  0  0  0  0  0  0  0  0
   61.4880   32.5440   48.1610 C   0  0  0  0  0  0  0  0  0  0  0  0
   60.3140   31.9470   48.6790 N   0  0  0  0  0  0  0  0  0  0  0  0
   59.6700   30.7790   48.1210 C   0  0  0  0  0  0  0  0  0  0  0  0
   59.2330   29.8640   49.2530 C   0  0  0  0  0  0  0  0  0  0  0  0
   58.5580   30.5110   50.2590 O   0  0  0  0  0  0  0  0  0  0  0  0
   58.4100   31.8620   50.1030 C   0  0  0  0  0  0  0  0  0  0  0  0
   59.7050   32.5880   49.8490 C   0  0  0  0  0  0  0  0  0  0  0  0
   56.5730   31.1190   44.4720 N   0  0  0  0  0  0  0  0  0  0  0  0
   56.3170   29.8000   44.6220 C   0  0  0  0  0  0  0  0  0  0  0  0
   55.1540   29.3510   44.5140 O   0  0  0  0  0  0  0  0  0  0  0  0
   57.3500   28.9540   44.8960 N   0  0  0  0  0  0  0  0  0  0  0  0
   59.7838   28.3321   46.3961 H   0  0  0  0  0  0  0  0  0  0  0  0
   59.3931   27.4671   44.8710 H   0  0  0  0  0  0  0  0  0  0  0  0
   60.6224   28.7769   44.8710 H   0  0  0  0  0  0  0  0  0  0  0  0
   59.9171   31.1662   44.9615 H   0  0  0  0  0  0  0  0  0  0  0  0
   57.6147   35.2865   45.7184 H   0  0  0  0  0  0  0  0  0  0  0  0
   57.0975   33.7290   46.5148 H   0  0  0  0  0  0  0  0  0  0  0  0
   60.0380   32.7680   45.4600 H   0  0  0  0  0  0  0  0  0  0  0  0
   62.5643   34.3778   45.5227 H   0  0  0  0  0  0  0  0  0  0  0  0
   64.6840   34.1142   46.7666 H   0  0  0  0  0  0  0  0  0  0  0  0
   64.7915   32.8642   48.8892 H   0  0  0  0  0  0  0  0  0  0  0  0
   62.6850   31.8309   49.8093 H   0  0  0  0  0  0  0  0  0  0  0  0
   58.7908   31.0871   47.5361 H   0  0  0  0  0  0  0  0  0  0  0  0
   60.3733   30.2462   47.4641 H   0  0  0  0  0  0  0  0  0  0  0  0
   58.5743   29.0875   48.8368 H   0  0  0  0  0  0  0  0  0  0  0  0
   60.1477   29.4455   49.6982 H   0  0  0  0  0  0  0  0  0  0  0  0
   57.7383   32.0416   49.2506 H   0  0  0  0  0  0  0  0  0  0  0  0
   58.0030   32.2518   51.0477 H   0  0  0  0  0  0  0  0  0  0  0  0
   59.5115   33.6511   49.6432 H   0  0  0  0  0  0  0  0  0  0  0  0
   60.3699   32.5372   50.7238 H   0  0  0  0  0  0  0  0  0  0  0  0
   55.7770   31.7520   44.2600 H   0  0  0  0  0  0  0  0  0  0  0  0
  1  2  1  0
  2  3  1  0
  3  4  2  0
  4  5  1  0
  5  6  1  0
  6  7  1  0
  7  8  2  0
  7  9  1  0
  9 10  1  0
 10 11  2  0
 11 12  1  0
 12 13  2  0
 13 14  1  0
 14 15  2  0
 15 16  1  0
 16 17  1  0
 17 18  1  0
 18 19  1  0
 19 20  1  0
 20 21  1  0
  4 22  1  0
 22 23  1  0
 23 24  2  0
 23 25  1  0
 25  2  2  0
 15 10  1  0
 21 16  1  0
  1 26  1  0
  1 27  1  0
  1 28  1  0
  3 29  1  0
  6 30  1  0
  6 31  1  0
  9 32  1  0
 11 33  1  0
 12 34  1  0
 13 35  1  0
 14 36  1  0
 17 37  1  0
 17 38  1  0
 18 39  1  0
 18 40  1  0
 20 41  1  0
 20 42  1  0
 21 43  1  0
 21 44  1  0
 22 45  1  0
M  END
>  <smiles>  (19) 
Cc1cc(SCC(=O)Nc2ccccc2N2CCOCC2)[nH]c(=O)n1

>  <score_type>  (19) 
oracle

>  <origin>  (19) 
adg

>  <m_score__min__energy>  (19) 
-7.4000000000000004

>  <m_primary>  (19) 
energy

$$$$
19:0
     RDKit          3D

 59 61  0  0  0  0  0  0  0  0999 V2000
   60.6773   34.3922   48.8382 H   0  0  0  0  0  0  0  0  0  0  0  0
   59.7540   33.8100   48.7020 C   0  0  0  0  0  0  0  0  0  0  0  0
   59.3070   33.0760   49.7320 C   0  0  0  0  0  0  0  0  0  0  0  0
   58.9183   32.0646   49.5422 H   0  0  0  0  0  0  0  0  0  0  0  0
   59.3250   33.6050   51.1440 C   0  0  0  0  0  0  0  0  0  0  0  0
   58.5475   34.3765   51.2453 H   0  0  0  0  0  0  0  0  0  0  0  0
   60.3235   34.0226   51.3405 H   0  0  0  0  0  0  0  0  0  0  0  0
   59.0710   32.5380   52.1310 N   0  0  0  0  0  0  0  0  0  0  0  0
   59.8040   32.6260   52.8710 H   0  0  0  0  0  0  0  0  0  0  0  0
   59.1840   31.5900   51.6990 H   0  0  0  0  0  0  0  0  0  0  0  0
   57.7640   32.6510   52.8140 C   0  0  0  0  0  0  0  0  0  0  0  0
   57.0044   32.9367   52.0715 H   0  0  0  0  0  0  0  0  0  0  0  0
   57.8713   33.4078   53.6050 H   0  0  0  0  0  0  0  0  0  0  0  0
   57.3190   31.3350   53.4920 C   0  0  0  0  0  0  0  0  0  0  0  0
   56.5662   31.5660   54.2601 H   0  0  0  0  0  0  0  0  0  0  0  0
   58.2054   30.8622   53.9401 H   0  0  0  0  0  0  0  0  0  0  0  0
   56.7110   30.3520   52.4770 C   0  0  0  0  0  0  0  0  0  0  0  0
   55.6429   30.5803   52.3467 H   0  0  0  0  0  0  0  0  0  0  0  0
   56.8354   29.3266   52.8554 H   0  0  0  0  0  0  0  0  0  0  0  0
   57.3870   30.4660   51.1900 N   0  0  0  0  0  0  0  0  0  0  0  0
   58.4910   29.8670   50.8360 C   0  0  0  0  0  0  0  0  0  0  0  0
   59.4920   29.7470   51.7490 N   0  0  0  0  0  0  0  0  0  0  0  0
   60.6920   29.1820   51.4440 C   0  0  0  0  0  0  0  0  0  0  0  0
   61.4741   29.1037   52.2136 H   0  0  0  0  0  0  0  0  0  0  0  0
   60.9310   28.7020   50.1560 C   0  0  0  0  0  0  0  0  0  0  0  0
   61.9066   28.2633   49.8995 H   0  0  0  0  0  0  0  0  0  0  0  0
   59.9140   28.7840   49.1890 C   0  0  0  0  0  0  0  0  0  0  0  0
   60.0950   28.2930   47.8880 O   0  0  0  0  0  0  0  0  0  0  0  0
   59.3310   28.7120   46.7880 C   0  0  0  0  0  0  0  0  0  0  0  0
   59.5760   29.9740   46.1960 C   0  0  0  0  0  0  0  0  0  0  0  0
   60.6120   30.9170   46.7500 C   0  0  0  0  0  0  0  0  0  0  0  0
   60.5821   30.8898   47.8493 H   0  0  0  0  0  0  0  0  0  0  0  0
   61.6098   30.6107   46.4026 H   0  0  0  0  0  0  0  0  0  0  0  0
   60.4006   31.9391   46.4026 H   0  0  0  0  0  0  0  0  0  0  0  0
   58.7880   30.3960   45.1160 C   0  0  0  0  0  0  0  0  0  0  0  0
   58.9542   31.3906   44.6765 H   0  0  0  0  0  0  0  0  0  0  0  0
   57.7890   29.5620   44.5900 C   0  0  0  0  0  0  0  0  0  0  0  0
   56.9580   30.0040   43.4990 C   0  0  0  0  0  0  0  0  0  0  0  0
   56.2730   30.3630   42.6350 N   0  0  0  0  0  0  0  0  0  0  0  0
   57.5660   28.3000   45.1600 C   0  0  0  0  0  0  0  0  0  0  0  0
   56.7849   27.6453   44.7461 H   0  0  0  0  0  0  0  0  0  0  0  0
   58.3320   27.8640   46.2560 C   0  0  0  0  0  0  0  0  0  0  0  0
   58.0510   26.5160   46.8680 C   0  0  0  0  0  0  0  0  0  0  0  0
   58.0686   26.6003   47.9646 H   0  0  0  0  0  0  0  0  0  0  0  0
   57.0604   26.1651   46.5431 H   0  0  0  0  0  0  0  0  0  0  0  0
   58.8189   25.7985   46.5431 H   0  0  0  0  0  0  0  0  0  0  0  0
   58.6900   29.3640   49.5340 C   0  0  0  0  0  0  0  0  0  0  0  0
   57.8823   29.4280   48.7900 H   0  0  0  0  0  0  0  0  0  0  0  0
   59.0670   33.8770   47.3880 C   0  0  0  0  0  0  0  0  0  0  0  0
   57.8330   33.2180   47.2410 C   0  0  0  0  0  0  0  0  0  0  0  0
   57.3877   32.6959   48.1007 H   0  0  0  0  0  0  0  0  0  0  0  0
   57.1680   33.2210   46.0120 C   0  0  0  0  0  0  0  0  0  0  0  0
   56.2086   32.6936   45.9053 H   0  0  0  0  0  0  0  0  0  0  0  0
   57.7210   33.8940   44.9170 C   0  0  0  0  0  0  0  0  0  0  0  0
   57.2025   33.8861   43.9469 H   0  0  0  0  0  0  0  0  0  0  0  0
   58.9340   34.5770   45.0570 C   0  0  0  0  0  0  0  0  0  0  0  0
   59.3619   35.1168   44.1994 H   0  0  0  0  0  0  0  0  0  0  0  0
   59.6050   34.5750   46.2870 C   0  0  0  0  0  0  0  0  0  0  0  0
   60.5546   35.1197   46.3942 H   0  0  0  0  0  0  0  0  0  0  0  0
  1  2  1  0
  2  3  2  0
  3  4  1  0
  3  5  1  0
  5  6  1  0
  5  7  1  0
  5  8  1  0
  8  9  1  0
  8 10  1  0
  8 11  1  0
 11 12  1  0
 11 13  1  0
 11 14  1  0
 14 15  1  0
 14 16  1  0
 14 17  1  0
 17 18  1  0
 17 19  1  0
 17 20  1  0
 20 21  2  0
 21 22  1  0
 22 23  1  0
 23 24  1  0
 23 25  2  0
 25 26  1  0
 25 27  1  0
 27 28  1  0
 28 29  1  0
 29 30  2  0
 30 31  1  0
 31 32  1  0
 31 33  1  0
 31 34  1  0
 30 35  1  0
 35 36  1  0
 35 37  2  0
 37 38  1  0
 38 39  3  0
 37 40  1  0
 40 41  1  0
 40 42  2  0
 42 43  1  0
 43 44  1  0
 43 45  1  0
 43 46  1  0
 27 47  2  0
 47 48  1  0
  2 49  1  0
 49 50  2  0
 50 51  1  0
 50 52  1  0
 52 53  1  0
 52 54  2  0
 54 55  1  0
 54 56  1  0
 56 57  1  0
 56 58  2  0
 58 59  1  0
 47 21  1  0
 58 49  1  0
 42 29  1  0
M  CHG  2   8   1  22  -1
M  END
>  <UniqueID>  (20) 
16

>  <SMILES>  (20) 
Cc1cc(C#N)cc(C)c1Oc1cc[n-]/c(=N/CCC[NH2+]C/C=C/c2ccccc2)c1

>  <Energy>  (20) 
71.19405997377567

>  <Genealogy>  (20) 
Cc1cc(C#N)cc(C)c1Oc1cc[n-]c(=NCCC[NH2+]CC=Cc2ccccc2)c1 (protonated)
Cc1cc(C#N)cc(C)c1Oc1cc[n-]/c(=N/CCC[NH2+]C/C=C/c2ccccc2)c1 (cis-trans isomerization)
Cc1cc(C#N)cc(C)c1Oc1cc[n-]/c(=N/CCC[NH2+]C/C=C/c2ccccc2)c1 (3D coordinates assigned)
Cc1cc(C#N)cc(C)c1Oc1cc[n-]/c(=N/CCC[NH2+]C/C=C/c2ccccc2)c1 (optimized conformer: 71.19405997377567 kcal/mol)

>  <smiles>  (20) 
Cc1cc(C#N)cc(C)c1Oc1cc[nH]c(=NCCCNCC=Cc2ccccc2)c1

>  <score_type>  (20) 
oracle

>  <origin>  (20) 
adg

>  <m_score__min__energy>  (20) 
-8.0199999999999996

>  <m_primary>  (20) 
energy

$$$$
20:0
     RDKit          3D

 72 75  0  0  0  0  0  0  0  0999 V2000
   59.8340   34.2130   50.6010 N   0  0  0  0  0  0  0  0  0  0  0  0
   59.6450   33.8020   48.9340 S   0  0  0  0  0  0  0  0  0  0  0  0
   58.7990   32.5650   48.8110 O   0  0  0  0  0  0  0  0  0  0  0  0
   58.9560   34.9300   48.2140 O   0  0  0  0  0  0  0  0  0  0  0  0
   61.2250   33.5140   48.2090 C   0  0  0  0  0  0  0  0  0  0  0  0
   61.5120   33.9970   46.9260 C   0  0  0  0  0  0  0  0  0  0  0  0
   62.7820   33.8070   46.3750 C   0  0  0  0  0  0  0  0  0  0  0  0
   63.7690   33.1220   47.0950 C   0  0  0  0  0  0  0  0  0  0  0  0
   63.4750   32.5910   48.3640 C   0  0  0  0  0  0  0  0  0  0  0  0
   64.4560   31.9120   49.1620 N   0  0  0  0  0  0  0  0  0  0  0  0
   65.0080   32.3070   50.4240 C   0  0  0  0  0  0  0  0  0  0  0  0
   65.7470   33.3260   50.4660 O   0  0  0  0  0  0  0  0  0  0  0  0
   64.7340   31.5490   51.6930 C   0  0  0  0  0  0  0  0  0  0  0  0
   63.3890   30.9760   51.6590 N   0  0  0  0  0  0  0  0  0  0  0  0
   62.2050   31.7460   51.9230 C   0  0  0  0  0  0  0  0  0  0  0  0
   62.2790   32.9960   52.0810 O   0  0  0  0  0  0  0  0  0  0  0  0
   60.8710   31.0650   52.0230 C   0  0  0  0  0  0  0  0  0  0  0  0
   60.7650   29.9550   51.0110 C   0  0  0  0  0  0  0  0  0  0  0  0
   60.8180   28.6130   51.4230 C   0  0  0  0  0  0  0  0  0  0  0  0
   60.7700   27.5830   50.4780 C   0  0  0  0  0  0  0  0  0  0  0  0
   60.6450   27.8810   49.1150 C   0  0  0  0  0  0  0  0  0  0  0  0
   60.5890   26.8130   48.1630 N   0  0  0  0  0  0  0  0  0  0  0  0
   59.4020   26.4090   47.4670 C   0  0  0  0  0  0  0  0  0  0  0  0
   58.5600   25.6840   48.0650 O   0  0  0  0  0  0  0  0  0  0  0  0
   59.0810   26.9470   46.0890 C   0  0  1  0  0  0  0  0  0  0  0  0
   58.2830   25.9290   45.2500 C   0  0  0  0  0  0  0  0  0  0  0  0
   57.7710   26.5140   43.9100 C   0  0  0  0  0  0  0  0  0  0  0  0
   58.1950   27.9710   43.6680 C   0  0  0  0  0  0  0  0  0  0  0  0
   57.9420   28.7890   44.8660 N   0  0  0  0  0  0  0  0  0  0  0  0
   57.4570   30.1430   44.7210 C   0  0  0  0  0  0  0  0  0  0  0  0
   56.2210   30.3710   44.8310 O   0  0  0  0  0  0  0  0  0  0  0  0
   58.4210   31.3020   44.5190 C   0  0  0  0  0  0  0  0  0  0  0  0
   57.8010   32.4840   43.7670 C   0  0  0  0  0  0  0  0  0  0  0  0
   57.2010   33.3950   44.8330 C   0  0  0  0  0  0  0  0  0  0  0  0
   57.8220   32.9860   46.1690 C   0  0  0  0  0  0  0  0  0  0  0  0
   58.8370   31.8920   45.8630 C   0  0  0  0  0  0  0  0  0  0  0  0
   58.3160   28.2740   46.1950 C   0  0  0  0  0  0  0  0  0  0  0  0
   60.6040   29.2220   48.6980 C   0  0  0  0  0  0  0  0  0  0  0  0
   60.6690   30.2510   49.6410 C   0  0  0  0  0  0  0  0  0  0  0  0
   62.2050   32.8090   48.9170 C   0  0  0  0  0  0  0  0  0  0  0  0
   60.4770   33.5040   51.0190 H   0  0  0  0  0  0  0  0  0  0  0  0
   60.7372   34.5262   46.3518 H   0  0  0  0  0  0  0  0  0  0  0  0
   63.0076   34.1971   45.3715 H   0  0  0  0  0  0  0  0  0  0  0  0
   64.7751   32.9991   46.6677 H   0  0  0  0  0  0  0  0  0  0  0  0
   65.4712   30.7395   51.7990 H   0  0  0  0  0  0  0  0  0  0  0  0
   64.8085   32.2391   52.5463 H   0  0  0  0  0  0  0  0  0  0  0  0
   63.3060   29.9390   51.5570 H   0  0  0  0  0  0  0  0  0  0  0  0
   60.7541   30.6455   53.0331 H   0  0  0  0  0  0  0  0  0  0  0  0
   60.0803   31.8032   51.8235 H   0  0  0  0  0  0  0  0  0  0  0  0
   60.8976   28.3713   52.4932 H   0  0  0  0  0  0  0  0  0  0  0  0
   60.8306   26.5349   50.8064 H   0  0  0  0  0  0  0  0  0  0  0  0
   60.0353   27.1268   45.5723 H   0  0  0  0  0  0  0  0  0  0  0  0
   58.9336   25.0695   45.0309 H   0  0  0  0  0  0  0  0  0  0  0  0
   57.4008   25.6383   45.8393 H   0  0  0  0  0  0  0  0  0  0  0  0
   58.1651   25.8970   43.0890 H   0  0  0  0  0  0  0  0  0  0  0  0
   56.6719   26.5029   43.9543 H   0  0  0  0  0  0  0  0  0  0  0  0
   59.2685   28.0005   43.4299 H   0  0  0  0  0  0  0  0  0  0  0  0
   57.6088   28.3770   42.8305 H   0  0  0  0  0  0  0  0  0  0  0  0
   59.2564   30.8698   43.9486 H   0  0  0  0  0  0  0  0  0  0  0  0
   58.5731   33.0209   43.1964 H   0  0  0  0  0  0  0  0  0  0  0  0
   57.0381   32.1483   43.0492 H   0  0  0  0  0  0  0  0  0  0  0  0
   57.4400   34.4455   44.6108 H   0  0  0  0  0  0  0  0  0  0  0  0
   56.1057   33.2979   44.8623 H   0  0  0  0  0  0  0  0  0  0  0  0
   58.3224   33.8481   46.6342 H   0  0  0  0  0  0  0  0  0  0  0  0
   57.0533   32.6279   46.8696 H   0  0  0  0  0  0  0  0  0  0  0  0
   59.8497   32.3166   45.7978 H   0  0  0  0  0  0  0  0  0  0  0  0
   58.8566   31.1261   46.6523 H   0  0  0  0  0  0  0  0  0  0  0  0
   58.9538   29.0150   46.6991 H   0  0  0  0  0  0  0  0  0  0  0  0
   57.3942   28.0963   46.7684 H   0  0  0  0  0  0  0  0  0  0  0  0
   60.5206   29.4622   47.6278 H   0  0  0  0  0  0  0  0  0  0  0  0
   60.6449   31.2993   49.3087 H   0  0  0  0  0  0  0  0  0  0  0  0
   61.9760   32.4208   49.9204 H   0  0  0  0  0  0  0  0  0  0  0  0
  1  2  1  0
  2  3  2  0
  2  4  2  0
  2  5  1  0
  5  6  2  0
  6  7  1  0
  7  8  2  0
  8  9  1  0
  9 10  1  0
 10 11  1  0
 11 12  2  0
 11 13  1  0
 13 14  1  0
 14 15  1  0
 15 16  2  0
 15 17  1  0
 17 18  1  0
 18 19  2  0
 19 20  1  0
 20 21  2  0
 21 22  1  0
 22 23  1  0
 23 24  2  0
 23 25  1  0
 25 26  1  0
 26 27  1  0
 27 28  1  0
 28 29  1  0
 29 30  1  0
 30 31  2  0
 30 32  1  0
 32 33  1  0
 33 34  1  0
 34 35  1  0
 35 36  1  0
 29 37  1  0
 21 38  1  0
 38 39  2  0
  9 40  2  0
 40  5  1  0
 39 18  1  0
 37 25  1  0
 36 32  1  0
  1 41  1  0
  6 42  1  0
  7 43  1  0
  8 44  1  0
 13 45  1  0
 13 46  1  0
 14 47  1  0
 17 48  1  0
 17 49  1  0
 19 50  1  0
 20 51  1  0
 25 52  1  6
 26 53  1  0
 26 54  1  0
 27 55  1  0
 27 56  1  0
 28 57  1  0
 28 58  1  0
 32 59  1  0
 33 60  1  0
 33 61  1  0
 34 62  1  0
 34 63  1  0
 35 64  1  0
 35 65  1  0
 36 66  1  0
 36 67  1  0
 37 68  1  0
 37 69  1  0
 38 70  1  0
 39 71  1  0
 40 72  1  0
M  CHG  3   1  -1  10  -1  22  -1
M  END
>  <UniqueID>  (21) 
17

>  <SMILES>  (21) 
[NH-]S(=O)(=O)c1cccc([N-]C(=O)CNC(=O)Cc2ccc([N-]C(=O)[C@H]3CCCN(C(=O)C4CCCC4)C3)cc2)c1

>  <Energy>  (21) 
84.54923374939052

>  <Genealogy>  (21) 
[NH-]S(=O)(=O)c1cccc([N-]C(=O)CNC(=O)Cc2ccc([N-]C(=O)C3CCCN(C(=O)C4CCCC4)C3)cc2)c1 (protonated)
[NH-]S(=O)(=O)c1cccc([N-]C(=O)CNC(=O)Cc2ccc([N-]C(=O)[C@H]3CCCN(C(=O)C4CCCC4)C3)cc2)c1 (chirality)
[NH-]S(=O)(=O)c1cccc([N-]C(=O)CNC(=O)Cc2ccc([N-]C(=O)[C@H]3CCCN(C(=O)C4CCCC4)C3)cc2)c1 (3D coordinates assigned)
[NH-]S(=O)(=O)c1cccc([N-]C(=O)CNC(=O)Cc2ccc([N-]C(=O)[C@H]3CCCN(C(=O)C4CCCC4)C3)cc2)c1 (nonaromatic ring conformer: 84.54923374939052 kcal/mol)

>  <smiles>  (21) 
NS(=O)(=O)c1cccc(NC(=O)CNC(=O)Cc2ccc(NC(=O)C3CCCN(C(=O)C4CCCC4)C3)cc2)c1

>  <score_type>  (21) 
oracle

>  <origin>  (21) 
adg

>  <m_score__min__energy>  (21) 
-15.25

>  <m_primary>  (21) 
energy

$$$$
21:0
     RDKit          3D

 51 53  0  0  0  0  0  0  0  0999 V2000
   57.3850   31.9330   43.7800 C   0  0  0  0  0  0  0  0  0  0  0  0
   57.0480   32.7760   44.8760 O   0  0  0  0  0  0  0  0  0  0  0  0
   57.9850   33.4100   45.7050 C   0  0  0  0  0  0  0  0  0  0  0  0
   58.6970   34.5020   45.1910 C   0  0  0  0  0  0  0  0  0  0  0  0
   59.6410   35.1680   45.9770 C   0  0  0  0  0  0  0  0  0  0  0  0
   59.8830   34.7490   47.2880 C   0  0  0  0  0  0  0  0  0  0  0  0
   59.1820   33.6550   47.8210 C   0  0  0  0  0  0  0  0  0  0  0  0
   59.4200   33.2160   49.2470 C   0  0  0  0  0  0  0  0  0  0  0  0
   58.5630   32.0680   49.6210 N   0  0  2  0  0  0  0  0  0  0  0  0
   58.1660   32.1220   51.0400 C   0  0  0  0  0  0  0  0  0  0  0  0
   59.2710   30.8310   49.3630 C   0  0  0  0  0  0  0  0  0  0  0  0
   59.7130   30.1450   50.3290 O   0  0  0  0  0  0  0  0  0  0  0  0
   59.4870   30.3490   47.9760 C   0  0  0  0  0  0  0  0  0  0  0  0
   58.4020   29.8050   47.2660 C   0  0  0  0  0  0  0  0  0  0  0  0
   58.5680   29.3200   45.9640 C   0  0  0  0  0  0  0  0  0  0  0  0
   57.2040   28.6560   45.0710 S   0  0  0  0  0  0  0  0  0  0  0  0
   56.0280   29.5820   45.2160 O   0  0  0  0  0  0  0  0  0  0  0  0
   57.5370   28.5190   43.6110 O   0  0  0  0  0  0  0  0  0  0  0  0
   56.8010   27.0720   45.7130 C   0  0  0  0  0  0  0  0  0  0  0  0
   57.8090   26.1690   46.0610 C   0  0  0  0  0  0  0  0  0  0  0  0
   57.4550   24.9210   46.5720 C   0  0  0  0  0  0  0  0  0  0  0  0
   56.1020   24.6070   46.7200 C   0  0  0  0  0  0  0  0  0  0  0  0
   55.7550   23.4870   47.1770 O   0  0  0  0  0  0  0  0  0  0  0  0
   55.1600   25.5220   46.3690 N   0  0  0  0  0  0  0  0  0  0  0  0
   55.4990   26.7160   45.8800 N   0  0  0  0  0  0  0  0  0  0  0  0
   59.8290   29.3660   45.3640 C   0  0  0  0  0  0  0  0  0  0  0  0
   60.9170   29.9040   46.0530 C   0  0  0  0  0  0  0  0  0  0  0  0
   60.7590   30.4170   47.3520 C   0  0  0  0  0  0  0  0  0  0  0  0
   61.9520   31.0200   48.0470 C   0  0  0  0  0  0  0  0  0  0  0  0
   58.2310   32.9900   47.0280 C   0  0  0  0  0  0  0  0  0  0  0  0
   57.7683   30.9742   44.1592 H   0  0  0  0  0  0  0  0  0  0  0  0
   56.4896   31.7532   43.1668 H   0  0  0  0  0  0  0  0  0  0  0  0
   58.1576   32.4200   43.1668 H   0  0  0  0  0  0  0  0  0  0  0  0
   58.5112   34.8377   44.1601 H   0  0  0  0  0  0  0  0  0  0  0  0
   60.1946   36.0236   45.5631 H   0  0  0  0  0  0  0  0  0  0  0  0
   60.6249   35.2777   47.9044 H   0  0  0  0  0  0  0  0  0  0  0  0
   60.4746   32.9236   49.3579 H   0  0  0  0  0  0  0  0  0  0  0  0
   59.1705   34.0580   49.9093 H   0  0  0  0  0  0  0  0  0  0  0  0
   57.6950   32.0990   49.0350 H   0  0  0  0  0  0  0  0  0  0  0  0
   59.0562   32.0009   51.6747 H   0  0  0  0  0  0  0  0  0  0  0  0
   57.6938   33.0926   51.2520 H   0  0  0  0  0  0  0  0  0  0  0  0
   57.4517   31.3127   51.2520 H   0  0  0  0  0  0  0  0  0  0  0  0
   57.4104   29.7602   47.7400 H   0  0  0  0  0  0  0  0  0  0  0  0
   58.8677   26.4392   45.9335 H   0  0  0  0  0  0  0  0  0  0  0  0
   58.2304   24.1938   46.8547 H   0  0  0  0  0  0  0  0  0  0  0  0
   59.9648   28.9765   44.3443 H   0  0  0  0  0  0  0  0  0  0  0  0
   61.9074   29.9268   45.5749 H   0  0  0  0  0  0  0  0  0  0  0  0
   61.8154   30.9509   49.1363 H   0  0  0  0  0  0  0  0  0  0  0  0
   62.8610   30.4731   47.7561 H   0  0  0  0  0  0  0  0  0  0  0  0
   62.0507   32.0762   47.7561 H   0  0  0  0  0  0  0  0  0  0  0  0
   57.6750   32.1362   47.4425 H   0  0  0  0  0  0  0  0  0  0  0  0
  1  2  1  0
  2  3  1  0
  3  4  2  0
  4  5  1  0
  5  6  2  0
  6  7  1  0
  7  8  1  0
  8  9  1  0
  9 10  1  0
  9 11  1  0
 11 12  2  0
 11 13  1  0
 13 14  2  0
 14 15  1  0
 15 16  1  0
 16 17  2  0
 16 18  2  0
 16 19  1  0
 19 20  1  0
 20 21  2  0
 21 22  1  0
 22 23  2  0
 22 24  1  0
 24 25  1  0
 15 26  2  0
 26 27  1  0
 27 28  2  0
 28 29  1  0
  7 30  2  0
 30  3  1  0
 28 13  1  0
 25 19  2  0
  1 31  1  0
  1 32  1  0
  1 33  1  0
  4 34  1  0
  5 35  1  0
  6 36  1  0
  8 37  1  0
  8 38  1  0
  9 39  1  6
 10 40  1  0
 10 41  1  0
 10 42  1  0
 14 43  1  0
 20 44  1  0
 21 45  1  0
 26 46  1  0
 27 47  1  0
 29 48  1  0
 29 49  1  0
 29 50  1  0
 30 51  1  0
M  CHG  2   9   1  24  -1
M  END
>  <UniqueID>  (22) 
18

>  <SMILES>  (22) 
COc1cccc(C[N@H+](C)C(=O)c2cc(S(=O)(=O)c3ccc(=O)[n-]n3)ccc2C)c1

>  <Energy>  (22) 
62.56061855125166

>  <Genealogy>  (22) 
COc1cccc(C[NH+](C)C(=O)c2cc(S(=O)(=O)c3ccc(=O)[n-]n3)ccc2C)c1 (protonated)
COc1cccc(C[N@H+](C)C(=O)c2cc(S(=O)(=O)c3ccc(=O)[n-]n3)ccc2C)c1 (chirality)
COc1cccc(C[N@H+](C)C(=O)c2cc(S(=O)(=O)c3ccc(=O)[n-]n3)ccc2C)c1 (3D coordinates assigned)
COc1cccc(C[N@H+](C)C(=O)c2cc(S(=O)(=O)c3ccc(=O)[n-]n3)ccc2C)c1 (optimized conformer: 62.56061855125166 kcal/mol)

>  <smiles>  (22) 
COc1cccc(CN(C)C(=O)c2cc(S(=O)(=O)c3ccc(=O)[nH]n3)ccc2C)c1

>  <score_type>  (22) 
oracle

>  <origin>  (22) 
adg

>  <m_score__min__energy>  (22) 
-10.25

>  <m_primary>  (22) 
energy

$$$$
22:0
     RDKit          3D

 26 28  0  0  0  0  0  0  0  0999 V2000
   58.1510   27.8300   46.4530 C   0  0  0  0  0  0  0  0  0  0  0  0
   57.8640   29.2430   46.0270 C   0  0  0  0  0  0  0  0  0  0  0  0
   58.7340   30.2840   46.3900 C   0  0  0  0  0  0  0  0  0  0  0  0
   58.4690   31.5950   45.9770 C   0  0  0  0  0  0  0  0  0  0  0  0
   59.3010   32.6760   46.3150 C   0  0  0  0  0  0  0  0  0  0  0  0
   59.0000   33.9470   45.8870 C   0  0  0  0  0  0  0  0  0  0  0  0
   57.8730   34.2200   45.1090 C   0  0  0  0  0  0  0  0  0  0  0  0
   57.0270   33.1580   44.7590 C   0  0  0  0  0  0  0  0  0  0  0  0
   57.3190   31.8480   45.1890 C   0  0  0  0  0  0  0  0  0  0  0  0
   56.4970   30.8210   44.8450 N   0  0  0  0  0  0  0  0  0  0  0  0
   56.7390   29.5420   45.2360 C   0  0  0  0  0  0  0  0  0  0  0  0
   55.9450   28.6300   44.8830 O   0  0  0  0  0  0  0  0  0  0  0  0
   60.0070   34.8580   46.3690 C   0  0  0  0  0  0  0  0  0  0  0  0
   60.0190   36.0980   46.1490 O   0  0  0  0  0  0  0  0  0  0  0  0
   61.0330   34.1270   47.1650 C   0  0  0  0  0  0  0  0  0  0  0  0
   60.5610   32.6550   47.1310 C   0  0  0  0  0  0  0  0  0  0  0  0
   58.1625   27.7734   47.5515 H   0  0  0  0  0  0  0  0  0  0  0  0
   57.3701   27.1626   46.0596 H   0  0  0  0  0  0  0  0  0  0  0  0
   59.1304   27.5202   46.0596 H   0  0  0  0  0  0  0  0  0  0  0  0
   59.6243   30.0690   46.9993 H   0  0  0  0  0  0  0  0  0  0  0  0
   57.6537   35.2458   44.7779 H   0  0  0  0  0  0  0  0  0  0  0  0
   56.1329   33.3479   44.1471 H   0  0  0  0  0  0  0  0  0  0  0  0
   62.0277   34.2285   46.7065 H   0  0  0  0  0  0  0  0  0  0  0  0
   61.1272   34.5158   48.1897 H   0  0  0  0  0  0  0  0  0  0  0  0
   61.3197   32.0155   46.6562 H   0  0  0  0  0  0  0  0  0  0  0  0
   60.3962   32.2480   48.1396 H   0  0  0  0  0  0  0  0  0  0  0  0
  1  2  1  0
  2  3  2  0
  3  4  1  0
  4  5  2  0
  5  6  1  0
  6  7  2  0
  7  8  1  0
  8  9  2  0
  9 10  1  0
 10 11  1  0
 11 12  2  0
  6 13  1  0
 13 14  2  0
 13 15  1  0
 15 16  1  0
 11  2  1  0
  9  4  1  0
 16  5  1  0
  1 17  1  0
  1 18  1  0
  1 19  1  0
  3 20  1  0
  7 21  1  0
  8 22  1  0
 15 23  1  0
 15 24  1  0
 16 25  1  0
 16 26  1  0
M  CHG  1  10  -1
M  END
>  <UniqueID>  (23) 
19

>  <SMILES>  (23) 
Cc1cc2c3c(ccc2[n-]c1=O)C(=O)CC3

>  <Energy>  (23) 
44.8995948260303

>  <Genealogy>  (23) 
Cc1cc2c3c(ccc2[n-]c1=O)C(=O)CC3 (protonated)
Cc1cc2c3c(ccc2[n-]c1=O)C(=O)CC3 (3D coordinates assigned)
Cc1cc2c3c(ccc2[n-]c1=O)C(=O)CC3 (nonaromatic ring conformer: 44.8995948260303 kcal/mol)

>  <smiles>  (23) 
Cc1cc2c3c(ccc2[nH]c1=O)C(=O)CC3

>  <score_type>  (23) 
oracle

>  <origin>  (23) 
adg

>  <m_score__min__energy>  (23) 
-8.4000000000000004

>  <m_primary>  (23) 
energy

$$$$
23:0
     RDKit          3D

 58 60  0  0  0  0  0  0  0  0999 V2000
   55.4710   30.6180   52.1740 C   0  0  0  0  0  0  0  0  0  0  0  0
   56.6950   30.1690   51.6000 O   0  0  0  0  0  0  0  0  0  0  0  0
   57.8140   30.9850   51.3750 C   0  0  0  0  0  0  0  0  0  0  0  0
   57.8020   32.2800   51.8970 C   0  0  0  0  0  0  0  0  0  0  0  0
   58.8840   33.1370   51.6940 C   0  0  0  0  0  0  0  0  0  0  0  0
   60.0080   32.7030   50.9680 C   0  0  0  0  0  0  0  0  0  0  0  0
   61.1110   33.5410   50.7360 O   0  0  0  0  0  0  0  0  0  0  0  0
   62.4250   33.3040   51.2310 C   0  0  0  0  0  0  0  0  0  0  0  0
   60.0420   31.3950   50.4610 C   0  0  0  0  0  0  0  0  0  0  0  0
   61.1980   30.9810   49.7130 N   0  0  0  0  0  0  0  0  0  0  0  0
   61.3360   30.9170   48.2850 C   0  0  0  0  0  0  0  0  0  0  0  0
   62.2140   31.6120   47.7060 O   0  0  0  0  0  0  0  0  0  0  0  0
   60.4010   30.0740   47.4890 C   0  0  0  0  0  0  0  0  0  0  0  0
   59.8960   30.5490   46.2730 C   0  0  0  0  0  0  0  0  0  0  0  0
   59.0870   29.7700   45.5180 N   0  0  0  0  0  0  0  0  0  0  0  0
   58.7200   28.5290   45.9180 C   0  0  0  0  0  0  0  0  0  0  0  0
   57.7080   27.5490   44.7950 S   0  0  0  0  0  0  0  0  0  0  0  0
   57.2800   28.9740   43.7410 C   0  0  0  0  0  0  0  0  0  0  0  0
   56.2690   29.8300   44.4440 C   0  0  0  0  0  0  0  0  0  0  0  0
   55.2100   29.2920   44.8610 O   0  0  0  0  0  0  0  0  0  0  0  0
   56.4510   31.2360   44.6630 N   0  0  0  0  0  0  0  0  0  0  0  0
   57.4870   32.0880   44.0810 C   0  0  0  0  0  0  0  0  0  0  0  0
   57.3850   33.5310   44.5920 C   0  0  0  0  0  0  0  0  0  0  0  0
   58.3340   33.7800   45.7360 C   0  0  0  0  0  0  0  0  0  0  0  0
   58.0060   33.3540   47.0330 C   0  0  0  0  0  0  0  0  0  0  0  0
   58.9020   33.5560   48.0880 C   0  0  0  0  0  0  0  0  0  0  0  0
   60.1320   34.1790   47.8560 C   0  0  0  0  0  0  0  0  0  0  0  0
   60.4680   34.6000   46.5660 C   0  0  0  0  0  0  0  0  0  0  0  0
   59.5750   34.4000   45.5090 C   0  0  0  0  0  0  0  0  0  0  0  0
   59.1470   28.0360   47.1260 N   0  0  0  0  0  0  0  0  0  0  0  0
   58.7380   26.6860   47.5520 C   0  0  0  0  0  0  0  0  0  0  0  0
   60.0030   28.7820   47.9010 C   0  0  0  0  0  0  0  0  0  0  0  0
   60.4460   28.3090   48.9850 O   0  0  0  0  0  0  0  0  0  0  0  0
   58.9340   30.5470   50.6450 C   0  0  0  0  0  0  0  0  0  0  0  0
   55.5483   30.5897   53.2709 H   0  0  0  0  0  0  0  0  0  0  0  0
   55.2691   31.6487   51.8472 H   0  0  0  0  0  0  0  0  0  0  0  0
   54.6505   29.9623   51.8472 H   0  0  0  0  0  0  0  0  0  0  0  0
   56.9319   32.6275   52.4733 H   0  0  0  0  0  0  0  0  0  0  0  0
   58.8580   34.1575   52.1038 H   0  0  0  0  0  0  0  0  0  0  0  0
   62.4086   33.3070   52.3309 H   0  0  0  0  0  0  0  0  0  0  0  0
   62.7813   32.3271   50.8722 H   0  0  0  0  0  0  0  0  0  0  0  0
   63.1002   34.0949   50.8722 H   0  0  0  0  0  0  0  0  0  0  0  0
   60.1580   31.5606   45.9294 H   0  0  0  0  0  0  0  0  0  0  0  0
   58.1850   29.5659   43.5395 H   0  0  0  0  0  0  0  0  0  0  0  0
   56.8584   28.6139   42.7910 H   0  0  0  0  0  0  0  0  0  0  0  0
   58.4741   31.6834   44.3491 H   0  0  0  0  0  0  0  0  0  0  0  0
   57.3500   32.0992   42.9896 H   0  0  0  0  0  0  0  0  0  0  0  0
   57.6283   34.2196   43.7694 H   0  0  0  0  0  0  0  0  0  0  0  0
   56.3591   33.6980   44.9519 H   0  0  0  0  0  0  0  0  0  0  0  0
   57.0413   32.8598   47.2201 H   0  0  0  0  0  0  0  0  0  0  0  0
   58.6382   33.2238   49.1029 H   0  0  0  0  0  0  0  0  0  0  0  0
   60.8344   34.3377   48.6875 H   0  0  0  0  0  0  0  0  0  0  0  0
   61.4360   35.0891   46.3824 H   0  0  0  0  0  0  0  0  0  0  0  0
   59.8448   34.7294   44.4948 H   0  0  0  0  0  0  0  0  0  0  0  0
   58.7232   26.6370   48.6508 H   0  0  0  0  0  0  0  0  0  0  0  0
   57.7332   26.4670   47.1616 H   0  0  0  0  0  0  0  0  0  0  0  0
   59.4523   25.9462   47.1616 H   0  0  0  0  0  0  0  0  0  0  0  0
   58.9438   29.5346   50.2150 H   0  0  0  0  0  0  0  0  0  0  0  0
  1  2  1  0
  2  3  1  0
  3  4  2  0
  4  5  1  0
  5  6  2  0
  6  7  1  0
  7  8  1  0
  6  9  1  0
  9 10  1  0
 10 11  1  0
 11 12  2  0
 11 13  1  0
 13 14  2  0
 14 15  1  0
 15 16  2  0
 16 17  1  0
 17 18  1  0
 18 19  1  0
 19 20  2  0
 19 21  1  0
 21 22  1  0
 22 23  1  0
 23 24  1  0
 24 25  2  0
 25 26  1  0
 26 27  2  0
 27 28  1  0
 28 29  2  0
 16 30  1  0
 30 31  1  0
 30 32  1  0
 32 33  2  0
  9 34  2  0
 34  3  1  0
 32 13  1  0
 29 24  1  0
  1 35  1  0
  1 36  1  0
  1 37  1  0
  4 38  1  0
  5 39  1  0
  8 40  1  0
  8 41  1  0
  8 42  1  0
 14 43  1  0
 18 44  1  0
 18 45  1  0
 22 46  1  0
 22 47  1  0
 23 48  1  0
 23 49  1  0
 25 50  1  0
 26 51  1  0
 27 52  1  0
 28 53  1  0
 29 54  1  0
 31 55  1  0
 31 56  1  0
 31 57  1  0
 34 58  1  0
M  CHG  2  10  -1  21  -1
M  END
>  <UniqueID>  (24) 
20

>  <SMILES>  (24) 
COc1ccc(OC)c([N-]C(=O)c2cnc(SCC(=O)[N-]CCc3ccccc3)n(C)c2=O)c1

>  <Energy>  (24) 
62.146296828807955

>  <Genealogy>  (24) 
COc1ccc(OC)c([N-]C(=O)c2cnc(SCC(=O)[N-]CCc3ccccc3)n(C)c2=O)c1 (protonated)
COc1ccc(OC)c([N-]C(=O)c2cnc(SCC(=O)[N-]CCc3ccccc3)n(C)c2=O)c1 (3D coordinates assigned)
COc1ccc(OC)c([N-]C(=O)c2cnc(SCC(=O)[N-]CCc3ccccc3)n(C)c2=O)c1 (optimized conformer: 62.146296828807955 kcal/mol)

>  <smiles>  (24) 
COc1ccc(OC)c(NC(=O)c2cnc(SCC(=O)NCCc3ccccc3)n(C)c2=O)c1

>  <score_type>  (24) 
oracle

>  <origin>  (24) 
adg

>  <m_score__min__energy>  (24) 
-11.9

>  <m_primary>  (24) 
energy

$$$$
24:0
     RDKit          3D

 48 51  0  0  0  0  0  0  0  0999 V2000
   61.7120   33.7300   45.6680 O   0  0  0  0  0  0  0  0  0  0  0  0
   61.3850   33.7800   46.8890 C   0  0  0  0  0  0  0  0  0  0  0  0
   60.1240   34.5120   47.2940 C   0  0  0  0  0  0  0  0  0  0  0  0
   59.2080   34.8740   46.1140 C   0  0  0  0  0  0  0  0  0  0  0  0
   57.9780   34.0480   46.1330 N   0  0  0  0  0  0  0  0  0  0  0  0
   57.5800   33.5610   44.7880 C   0  0  0  0  0  0  0  0  0  0  0  0
   58.4300   32.3710   44.3110 C   0  0  0  0  0  0  0  0  0  0  0  0
   58.4750   31.3460   45.3560 N   0  0  0  0  0  0  0  0  0  0  0  0
   57.6250   30.1970   45.2340 C   0  0  0  0  0  0  0  0  0  0  0  0
   56.4210   30.3490   44.8880 O   0  0  0  0  0  0  0  0  0  0  0  0
   58.1720   28.8340   45.4000 C   0  0  0  0  0  0  0  0  0  0  0  0
   57.6820   27.8200   44.5540 C   0  0  0  0  0  0  0  0  0  0  0  0
   58.2150   26.5320   44.5970 C   0  0  0  0  0  0  0  0  0  0  0  0
   59.2430   26.2330   45.4860 C   0  0  0  0  0  0  0  0  0  0  0  0
   59.7300   27.2180   46.3460 C   0  0  0  0  0  0  0  0  0  0  0  0
   59.2000   28.5210   46.3300 C   0  0  0  0  0  0  0  0  0  0  0  0
   59.6770   29.4530   47.3220 N   0  0  0  0  0  0  0  0  0  0  0  0
   59.0240   30.6770   47.6640 C   0  0  0  0  0  0  0  0  0  0  0  0
   58.6520   30.8550   48.8560 O   0  0  0  0  0  0  0  0  0  0  0  0
   58.9470   31.8020   46.6650 C   0  0  2  0  0  0  0  0  0  0  0  0
   58.0320   32.9540   47.1300 C   0  0  0  0  0  0  0  0  0  0  0  0
   62.2570   33.1220   47.9060 C   0  0  0  0  0  0  0  0  0  0  0  0
   61.7830   32.0620   48.7060 C   0  0  0  0  0  0  0  0  0  0  0  0
   62.6190   31.4600   49.6550 C   0  0  0  0  0  0  0  0  0  0  0  0
   63.9330   31.9060   49.8200 C   0  0  0  0  0  0  0  0  0  0  0  0
   64.4130   32.9560   49.0360 C   0  0  0  0  0  0  0  0  0  0  0  0
   63.5850   33.5610   48.0850 C   0  0  0  0  0  0  0  0  0  0  0  0
   59.5591   33.8714   47.9872 H   0  0  0  0  0  0  0  0  0  0  0  0
   60.4390   35.4592   47.7561 H   0  0  0  0  0  0  0  0  0  0  0  0
   58.9308   35.9361   46.1847 H   0  0  0  0  0  0  0  0  0  0  0  0
   59.7483   34.6822   45.1752 H   0  0  0  0  0  0  0  0  0  0  0  0
   56.5261   33.2481   44.8249 H   0  0  0  0  0  0  0  0  0  0  0  0
   57.7353   34.3859   44.0770 H   0  0  0  0  0  0  0  0  0  0  0  0
   57.9842   31.9451   43.4001 H   0  0  0  0  0  0  0  0  0  0  0  0
   59.4519   32.7165   44.0955 H   0  0  0  0  0  0  0  0  0  0  0  0
   56.8679   28.0471   43.8499 H   0  0  0  0  0  0  0  0  0  0  0  0
   57.8226   25.7521   43.9279 H   0  0  0  0  0  0  0  0  0  0  0  0
   59.6716   25.2203   45.5108 H   0  0  0  0  0  0  0  0  0  0  0  0
   60.5409   26.9718   47.0473 H   0  0  0  0  0  0  0  0  0  0  0  0
   60.3890   29.1110   48.0090 H   0  0  0  0  0  0  0  0  0  0  0  0
   59.9788   32.1739   46.5808 H   0  0  0  0  0  0  0  0  0  0  0  0
   57.0159   32.5620   47.2843 H   0  0  0  0  0  0  0  0  0  0  0  0
   58.4434   33.3624   48.0649 H   0  0  0  0  0  0  0  0  0  0  0  0
   60.7496   31.7054   48.5840 H   0  0  0  0  0  0  0  0  0  0  0  0
   62.2397   30.6328   50.2729 H   0  0  0  0  0  0  0  0  0  0  0  0
   64.5872   31.4308   50.5658 H   0  0  0  0  0  0  0  0  0  0  0  0
   65.4466   33.3092   49.1665 H   0  0  0  0  0  0  0  0  0  0  0  0
   63.9733   34.3869   47.4710 H   0  0  0  0  0  0  0  0  0  0  0  0
  1  2  2  0
  2  3  1  0
  3  4  1  0
  4  5  1  0
  5  6  1  0
  6  7  1  0
  7  8  1  0
  8  9  1  0
  9 10  2  0
  9 11  1  0
 11 12  2  0
 12 13  1  0
 13 14  2  0
 14 15  1  0
 15 16  2  0
 16 17  1  0
 17 18  1  0
 18 19  2  0
 18 20  1  0
 20 21  1  0
  2 22  1  0
 22 23  2  0
 23 24  1  0
 24 25  2  0
 25 26  1  0
 26 27  2  0
 21  5  1  0
 27 22  1  0
 20  8  1  0
 16 11  1  0
  3 28  1  0
  3 29  1  0
  4 30  1  0
  4 31  1  0
  6 32  1  0
  6 33  1  0
  7 34  1  0
  7 35  1  0
 12 36  1  0
 13 37  1  0
 14 38  1  0
 15 39  1  0
 17 40  1  0
 20 41  1  6
 21 42  1  0
 21 43  1  0
 23 44  1  0
 24 45  1  0
 25 46  1  0
 26 47  1  0
 27 48  1  0
M  END
>  <UniqueID>  (25) 
21

>  <SMILES>  (25) 
O=C(CCN1CCN2C(=O)c3ccccc3NC(=O)[C@@H]2C1)c1ccccc1

>  <Energy>  (25) 
79.44650105791601

>  <Genealogy>  (25) 
O=C(CCN1CCN2C(=O)c3ccccc3NC(=O)[C@@H]2C1)c1ccccc1 (chirality)
O=C(CCN1CCN2C(=O)c3ccccc3NC(=O)[C@@H]2C1)c1ccccc1 (3D coordinates assigned)
O=C(CCN1CCN2C(=O)c3ccccc3NC(=O)[C@@H]2C1)c1ccccc1 (nonaromatic ring conformer: 79.44650105791601 kcal/mol)

>  <smiles>  (25) 
O=C(CCN1CCN2C(=O)c3ccccc3NC(=O)C2C1)c1ccccc1

>  <score_type>  (25) 
oracle

>  <origin>  (25) 
adg

>  <m_score__min__energy>  (25) 
-7.9299999999999997

>  <m_primary>  (25) 
energy

$$$$
25:0
     RDKit          3D

 43 45  0  0  0  0  0  0  0  0999 V2000
   60.7450   30.4020   48.8600 C   0  0  0  0  0  0  0  0  0  0  0  0
   59.4960   30.8440   48.1650 C   0  0  0  0  0  0  0  0  0  0  0  0
   58.4530   30.1440   48.2680 O   0  0  0  0  0  0  0  0  0  0  0  0
   59.5050   32.0010   47.3090 N   0  0  0  0  0  0  0  0  0  0  0  0
   60.3480   33.1310   47.7330 C   0  0  0  0  0  0  0  0  0  0  0  0
   60.9690   33.8440   46.5390 C   0  0  0  0  0  0  0  0  0  0  0  0
   59.6440   34.6690   45.6280 S   0  0  0  0  0  0  0  0  0  0  0  0
   58.8240   33.1330   45.1820 C   0  0  0  0  0  0  0  0  0  0  0  0
   58.2170   33.0710   43.9230 C   0  0  0  0  0  0  0  0  0  0  0  0
   57.4600   31.9610   43.5550 C   0  0  0  0  0  0  0  0  0  0  0  0
   57.2840   30.9060   44.4510 C   0  0  0  0  0  0  0  0  0  0  0  0
   56.3460   29.4950   43.9660 S   0  0  0  0  0  0  0  0  0  0  0  0
   55.1980   29.2680   44.9090 O   0  0  0  0  0  0  0  0  0  0  0  0
   55.7940   29.7280   42.5870 O   0  0  0  0  0  0  0  0  0  0  0  0
   57.3750   28.1000   43.9430 N   0  0  0  0  0  0  0  0  0  0  0  0
   58.3530   27.8640   44.9680 C   0  0  0  0  0  0  0  0  0  0  0  0
   59.5050   28.6680   45.0340 C   0  0  0  0  0  0  0  0  0  0  0  0
   60.4640   28.4560   46.0250 C   0  0  0  0  0  0  0  0  0  0  0  0
   60.2820   27.4480   46.9680 C   0  0  0  0  0  0  0  0  0  0  0  0
   59.1410   26.6460   46.9250 C   0  0  0  0  0  0  0  0  0  0  0  0
   58.1690   26.8410   45.9290 C   0  0  0  0  0  0  0  0  0  0  0  0
   56.7630   25.7700   45.8760 S   0  0  0  0  0  0  0  0  0  0  0  0
   55.3130   26.7030   45.9960 N   0  0  0  0  0  0  0  0  0  0  0  0
   56.8320   24.7930   47.0150 O   0  0  0  0  0  0  0  0  0  0  0  0
   56.7360   25.0080   44.5800 O   0  0  0  0  0  0  0  0  0  0  0  0
   57.9090   30.9470   45.7050 C   0  0  0  0  0  0  0  0  0  0  0  0
   58.7280   32.0370   46.0760 C   0  0  0  0  0  0  0  0  0  0  0  0
   60.5969   30.4544   49.9487 H   0  0  0  0  0  0  0  0  0  0  0  0
   60.9786   29.3666   48.5711 H   0  0  0  0  0  0  0  0  0  0  0  0
   61.5778   31.0600   48.5711 H   0  0  0  0  0  0  0  0  0  0  0  0
   59.7299   33.8468   48.2947 H   0  0  0  0  0  0  0  0  0  0  0  0
   61.1611   32.7379   48.3610 H   0  0  0  0  0  0  0  0  0  0  0  0
   61.7009   34.5874   46.8878 H   0  0  0  0  0  0  0  0  0  0  0  0
   61.4860   33.1219   45.8900 H   0  0  0  0  0  0  0  0  0  0  0  0
   58.3386   33.9061   43.2175 H   0  0  0  0  0  0  0  0  0  0  0  0
   57.0004   31.9162   42.5566 H   0  0  0  0  0  0  0  0  0  0  0  0
   57.3820   27.5260   43.0720 H   0  0  0  0  0  0  0  0  0  0  0  0
   59.6514   29.4717   44.2973 H   0  0  0  0  0  0  0  0  0  0  0  0
   61.3650   29.0860   46.0613 H   0  0  0  0  0  0  0  0  0  0  0  0
   61.0393   27.2835   47.7486 H   0  0  0  0  0  0  0  0  0  0  0  0
   59.0013   25.8550   47.6765 H   0  0  0  0  0  0  0  0  0  0  0  0
   55.1400   27.1190   45.0530 H   0  0  0  0  0  0  0  0  0  0  0  0
   57.7595   30.1173   46.4116 H   0  0  0  0  0  0  0  0  0  0  0  0
  1  2  1  0
  2  3  2  0
  2  4  1  0
  4  5  1  0
  5  6  1  0
  6  7  1  0
  7  8  1  0
  8  9  2  0
  9 10  1  0
 10 11  2  0
 11 12  1  0
 12 13  2  0
 12 14  2  0
 12 15  1  0
 15 16  1  0
 16 17  2  0
 17 18  1  0
 18 19  2  0
 19 20  1  0
 20 21  2  0
 21 22  1  0
 22 23  1  0
 22 24  2  0
 22 25  2  0
 11 26  1  0
 26 27  2  0
 27  4  1  0
 27  8  1  0
 21 16  1  0
  1 28  1  0
  1 29  1  0
  1 30  1  0
  5 31  1  0
  5 32  1  0
  6 33  1  0
  6 34  1  0
  9 35  1  0
 10 36  1  0
 15 37  1  0
 17 38  1  0
 18 39  1  0
 19 40  1  0
 20 41  1  0
 23 42  1  0
 26 43  1  0
M  CHG  1  23  -1
M  END
>  <UniqueID>  (26) 
22

>  <SMILES>  (26) 
CC(=O)N1CCSc2ccc(S(=O)(=O)Nc3ccccc3S([NH-])(=O)=O)cc21

>  <Energy>  (26) 
60.12451208342479

>  <Genealogy>  (26) 
CC(=O)N1CCSc2ccc(S(=O)(=O)Nc3ccccc3S([NH-])(=O)=O)cc21 (protonated)
CC(=O)N1CCSc2ccc(S(=O)(=O)Nc3ccccc3S([NH-])(=O)=O)cc21 (3D coordinates assigned)
CC(=O)N1CCSc2ccc(S(=O)(=O)Nc3ccccc3S([NH-])(=O)=O)cc21 (nonaromatic ring conformer: 60.12451208342479 kcal/mol)

>  <smiles>  (26) 
CC(=O)N1CCSc2ccc(S(=O)(=O)Nc3ccccc3S(N)(=O)=O)cc21

>  <score_type>  (26) 
oracle

>  <origin>  (26) 
adg

>  <m_score__min__energy>  (26) 
-12.93

>  <m_primary>  (26) 
energy

$$$$
26:0
     RDKit          3D

 74 77  0  0  0  0  0  0  0  0999 V2000
   54.7980   26.2640   45.8440 N   0  0  0  0  0  0  0  0  0  0  0  0
   56.4530   25.8040   45.6460 S   0  0  0  0  0  0  0  0  0  0  0  0
   56.9380   25.1780   46.9240 O   0  0  0  0  0  0  0  0  0  0  0  0
   56.5670   24.8040   44.5290 O   0  0  0  0  0  0  0  0  0  0  0  0
   57.4150   27.2270   45.2590 C   0  0  0  0  0  0  0  0  0  0  0  0
   58.5820   27.0890   44.4990 C   0  0  0  0  0  0  0  0  0  0  0  0
   59.3670   28.2080   44.2090 C   0  0  0  0  0  0  0  0  0  0  0  0
   58.9870   29.4700   44.6740 C   0  0  0  0  0  0  0  0  0  0  0  0
   57.8130   29.6270   45.4210 C   0  0  0  0  0  0  0  0  0  0  0  0
   57.4730   30.9370   45.8990 N   0  0  0  0  0  0  0  0  0  0  0  0
   57.3550   32.1260   45.1060 C   0  0  0  0  0  0  0  0  0  0  0  0
   56.3130   32.8330   45.1590 O   0  0  0  0  0  0  0  0  0  0  0  0
   58.4410   32.4870   44.1400 C   0  0  0  0  0  0  0  0  0  0  0  0
   59.0610   33.7590   44.5090 N   0  0  0  0  0  0  0  0  0  0  0  0
   59.3410   34.1790   45.8520 C   0  0  0  0  0  0  0  0  0  0  0  0
   59.5000   35.4090   46.0800 O   0  0  0  0  0  0  0  0  0  0  0  0
   59.5100   33.1750   46.9650 C   0  0  0  0  0  0  0  0  0  0  0  0
   60.7330   33.4430   47.8040 C   0  0  0  0  0  0  0  0  0  0  0  0
   62.0140   33.1940   47.2900 C   0  0  0  0  0  0  0  0  0  0  0  0
   63.1470   33.4140   48.0750 C   0  0  0  0  0  0  0  0  0  0  0  0
   63.0130   33.8870   49.3930 C   0  0  0  0  0  0  0  0  0  0  0  0
   64.1450   34.0240   50.2650 N   0  0  0  0  0  0  0  0  0  0  0  0
   65.0830   32.9760   50.5320 C   0  0  0  0  0  0  0  0  0  0  0  0
   66.1620   32.9250   49.8840 O   0  0  0  0  0  0  0  0  0  0  0  0
   64.7170   31.8680   51.4830 C   0  0  1  0  0  0  0  0  0  0  0  0
   63.1890   31.7160   51.5910 C   0  0  0  0  0  0  0  0  0  0  0  0
   62.8210   30.5340   52.4950 C   0  0  0  0  0  0  0  0  0  0  0  0
   63.4480   29.2380   51.9740 C   0  0  0  0  0  0  0  0  0  0  0  0
   64.8930   29.4150   51.7940 N   0  0  0  0  0  0  0  0  0  0  0  0
   65.7830   28.3010   51.9660 C   0  0  0  0  0  0  0  0  0  0  0  0
   65.2880   27.1570   52.1620 O   0  0  0  0  0  0  0  0  0  0  0  0
   67.2930   28.4980   51.9540 C   0  0  0  0  0  0  0  0  0  0  0  0
   68.0250   27.3920   52.7580 C   0  0  0  0  0  0  0  0  0  0  0  0
   68.4750   26.1760   51.9170 C   0  0  0  0  0  0  0  0  0  0  0  0
   67.6780   26.0290   50.6210 C   0  0  0  0  0  0  0  0  0  0  0  0
   67.8070   27.2790   49.7320 C   0  0  0  0  0  0  0  0  0  0  0  0
   67.8780   28.6030   50.5280 C   0  0  0  0  0  0  0  0  0  0  0  0
   65.3650   30.5570   51.0060 C   0  0  0  0  0  0  0  0  0  0  0  0
   61.7370   34.1620   49.8970 C   0  0  0  0  0  0  0  0  0  0  0  0
   60.6010   33.9420   49.1100 C   0  0  0  0  0  0  0  0  0  0  0  0
   57.0350   28.4940   45.7280 C   0  0  0  0  0  0  0  0  0  0  0  0
   54.7890   27.0910   46.4850 H   0  0  0  0  0  0  0  0  0  0  0  0
   58.8820   26.0974   44.1291 H   0  0  0  0  0  0  0  0  0  0  0  0
   60.2853   28.0955   43.6139 H   0  0  0  0  0  0  0  0  0  0  0  0
   59.6143   30.3458   44.4517 H   0  0  0  0  0  0  0  0  0  0  0  0
   59.2066   31.6972   44.1461 H   0  0  0  0  0  0  0  0  0  0  0  0
   58.0021   32.5862   43.1362 H   0  0  0  0  0  0  0  0  0  0  0  0
   58.6221   33.2143   47.6132 H   0  0  0  0  0  0  0  0  0  0  0  0
   59.6315   32.1834   46.5047 H   0  0  0  0  0  0  0  0  0  0  0  0
   62.1266   32.8226   46.2607 H   0  0  0  0  0  0  0  0  0  0  0  0
   64.1473   33.2170   47.6619 H   0  0  0  0  0  0  0  0  0  0  0  0
   65.0947   32.1154   52.4861 H   0  0  0  0  0  0  0  0  0  0  0  0
   62.7640   32.6386   52.0131 H   0  0  0  0  0  0  0  0  0  0  0  0
   62.7817   31.5309   50.5861 H   0  0  0  0  0  0  0  0  0  0  0  0
   63.1894   30.7296   53.5129 H   0  0  0  0  0  0  0  0  0  0  0  0
   61.7269   30.4202   52.5002 H   0  0  0  0  0  0  0  0  0  0  0  0
   63.2677   28.4297   52.6980 H   0  0  0  0  0  0  0  0  0  0  0  0
   62.9930   28.9812   51.0060 H   0  0  0  0  0  0  0  0  0  0  0  0
   67.4689   29.4644   52.4491 H   0  0  0  0  0  0  0  0  0  0  0  0
   68.9176   27.8382   53.2209 H   0  0  0  0  0  0  0  0  0  0  0  0
   67.3017   27.0113   53.4941 H   0  0  0  0  0  0  0  0  0  0  0  0
   69.5388   26.2969   51.6644 H   0  0  0  0  0  0  0  0  0  0  0  0
   68.3006   25.2721   52.5192 H   0  0  0  0  0  0  0  0  0  0  0  0
   68.0548   25.1565   50.0671 H   0  0  0  0  0  0  0  0  0  0  0  0
   66.6172   25.9002   50.8820 H   0  0  0  0  0  0  0  0  0  0  0  0
   68.7239   27.1851   49.1316 H   0  0  0  0  0  0  0  0  0  0  0  0
   66.9011   27.3260   49.1098 H   0  0  0  0  0  0  0  0  0  0  0  0
   68.9325   28.9061   50.6059 H   0  0  0  0  0  0  0  0  0  0  0  0
   67.2706   29.3406   49.9831 H   0  0  0  0  0  0  0  0  0  0  0  0
   66.4571   30.6379   51.1101 H   0  0  0  0  0  0  0  0  0  0  0  0
   65.0866   30.3934   49.9545 H   0  0  0  0  0  0  0  0  0  0  0  0
   61.6261   34.5538   50.9189 H   0  0  0  0  0  0  0  0  0  0  0  0
   59.6021   34.1605   49.5154 H   0  0  0  0  0  0  0  0  0  0  0  0
   56.1259   28.6025   46.3378 H   0  0  0  0  0  0  0  0  0  0  0  0
  1  2  1  0
  2  3  2  0
  2  4  2  0
  2  5  1  0
  5  6  2  0
  6  7  1  0
  7  8  2  0
  8  9  1  0
  9 10  1  0
 10 11  1  0
 11 12  2  0
 11 13  1  0
 13 14  1  0
 14 15  1  0
 15 16  2  0
 15 17  1  0
 17 18  1  0
 18 19  2  0
 19 20  1  0
 20 21  2  0
 21 22  1  0
 22 23  1  0
 23 24  2  0
 23 25  1  0
 25 26  1  0
 26 27  1  0
 27 28  1  0
 28 29  1  0
 29 30  1  0
 30 31  2  0
 30 32  1  0
 32 33  1  0
 33 34  1  0
 34 35  1  0
 35 36  1  0
 36 37  1  0
 29 38  1  0
 21 39  1  0
 39 40  2  0
  9 41  2  0
 41  5  1  0
 40 18  1  0
 38 25  1  0
 37 32  1  0
  1 42  1  0
  6 43  1  0
  7 44  1  0
  8 45  1  0
 13 46  1  0
 13 47  1  0
 17 48  1  0
 17 49  1  0
 19 50  1  0
 20 51  1  0
 25 52  1  1
 26 53  1  0
 26 54  1  0
 27 55  1  0
 27 56  1  0
 28 57  1  0
 28 58  1  0
 32 59  1  0
 33 60  1  0
 33 61  1  0
 34 62  1  0
 34 63  1  0
 35 64  1  0
 35 65  1  0
 36 66  1  0
 36 67  1  0
 37 68  1  0
 37 69  1  0
 38 70  1  0
 38 71  1  0
 39 72  1  0
 40 73  1  0
 41 74  1  0
M  CHG  4   1  -1  10  -1  14  -1  22  -1
M  END
>  <UniqueID>  (27) 
23

>  <SMILES>  (27) 
[NH-]S(=O)(=O)c1cccc([N-]C(=O)C[N-]C(=O)Cc2ccc([N-]C(=O)[C@H]3CCCN(C(=O)C4CCCCC4)C3)cc2)c1

>  <Energy>  (27) 
84.91981813013189

>  <Genealogy>  (27) 
[NH-]S(=O)(=O)c1cccc([N-]C(=O)C[N-]C(=O)Cc2ccc([N-]C(=O)C3CCCN(C(=O)C4CCCCC4)C3)cc2)c1 (protonated)
[NH-]S(=O)(=O)c1cccc([N-]C(=O)C[N-]C(=O)Cc2ccc([N-]C(=O)[C@H]3CCCN(C(=O)C4CCCCC4)C3)cc2)c1 (chirality)
[NH-]S(=O)(=O)c1cccc([N-]C(=O)C[N-]C(=O)Cc2ccc([N-]C(=O)[C@H]3CCCN(C(=O)C4CCCCC4)C3)cc2)c1 (3D coordinates assigned)
[NH-]S(=O)(=O)c1cccc([N-]C(=O)C[N-]C(=O)Cc2ccc([N-]C(=O)[C@H]3CCCN(C(=O)C4CCCCC4)C3)cc2)c1 (nonaromatic ring conformer: 84.91981813013189 kcal/mol)

>  <smiles>  (27) 
NS(=O)(=O)c1cccc(NC(=O)CNC(=O)Cc2ccc(NC(=O)C3CCCN(C(=O)C4CCCCC4)C3)cc2)c1

>  <score_type>  (27) 
oracle

>  <origin>  (27) 
adg

>  <m_score__min__energy>  (27) 
-14.93

>  <m_primary>  (27) 
energy

$$$$
27:0
     RDKit          3D

 40 43  0  0  0  0  0  0  0  0999 V2000
   57.7680   25.7690   43.0220 O   0  0  0  0  0  0  0  0  0  0  0  0
   57.6660   26.2420   44.1880 C   0  0  0  0  0  0  0  0  0  0  0  0
   57.1490   25.4240   45.2470 N   0  0  0  0  0  0  0  0  0  0  0  0
   55.9010   24.7150   45.2260 C   0  0  0  0  0  0  0  0  0  0  0  0
   54.7320   25.3690   45.6290 C   0  0  0  0  0  0  0  0  0  0  0  0
   54.7720   26.7010   46.0200 O   0  0  0  0  0  0  0  0  0  0  0  0
   53.5470   24.7050   45.6310 N   0  0  0  0  0  0  0  0  0  0  0  0
   53.4750   23.4010   45.2640 C   0  0  0  0  0  0  0  0  0  0  0  0
   52.3660   22.8080   45.2680 O   0  0  0  0  0  0  0  0  0  0  0  0
   54.6000   22.7330   44.9020 N   0  0  0  0  0  0  0  0  0  0  0  0
   55.8090   23.3530   44.8840 C   0  0  0  0  0  0  0  0  0  0  0  0
   56.8360   22.6850   44.5900 O   0  0  0  0  0  0  0  0  0  0  0  0
   58.0290   27.6530   44.4490 C   0  0  0  0  0  0  0  0  0  0  0  0
   59.3930   28.0320   44.6010 C   0  0  0  0  0  0  0  0  0  0  0  0
   59.7450   29.3710   44.8510 C   0  0  0  0  0  0  0  0  0  0  0  0
   58.7190   30.3050   44.9440 C   0  0  0  0  0  0  0  0  0  0  0  0
   58.8250   31.6190   45.1810 N   0  0  0  0  0  0  0  0  0  0  0  0
   57.5280   32.0230   45.1730 C   0  0  0  0  0  0  0  0  0  0  0  0
   57.1210   33.4430   45.4140 C   0  0  0  0  0  0  0  0  0  0  0  0
   57.5630   33.8820   46.7380 N   0  0  0  0  0  0  0  0  0  0  0  0
   58.9330   33.8540   47.1890 C   0  0  0  0  0  0  0  0  0  0  0  0
   59.9550   34.2240   46.2980 C   0  0  0  0  0  0  0  0  0  0  0  0
   61.2920   34.2140   46.7070 C   0  0  0  0  0  0  0  0  0  0  0  0
   61.6240   33.8290   48.0080 C   0  0  0  0  0  0  0  0  0  0  0  0
   62.9200   33.8190   48.4030 F   0  0  0  0  0  0  0  0  0  0  0  0
   60.6180   33.4530   48.9010 C   0  0  0  0  0  0  0  0  0  0  0  0
   59.2800   33.4620   48.4980 C   0  0  0  0  0  0  0  0  0  0  0  0
   56.6270   31.0320   44.9420 N   0  0  0  0  0  0  0  0  0  0  0  0
   57.4130   29.9550   44.8010 C   0  0  0  0  0  0  0  0  0  0  0  0
   57.0200   28.6420   44.5520 C   0  0  0  0  0  0  0  0  0  0  0  0
   60.1811   27.2687   44.5220 H   0  0  0  0  0  0  0  0  0  0  0  0
   60.7972   29.6693   44.9690 H   0  0  0  0  0  0  0  0  0  0  0  0
   57.5779   34.0862   44.6475 H   0  0  0  0  0  0  0  0  0  0  0  0
   56.0245   33.5139   45.3619 H   0  0  0  0  0  0  0  0  0  0  0  0
   56.8240   34.2060   47.4030 H   0  0  0  0  0  0  0  0  0  0  0  0
   59.7010   34.5239   45.2706 H   0  0  0  0  0  0  0  0  0  0  0  0
   62.0838   34.5098   46.0030 H   0  0  0  0  0  0  0  0  0  0  0  0
   60.8799   33.1487   49.9251 H   0  0  0  0  0  0  0  0  0  0  0  0
   58.4934   33.1617   49.2058 H   0  0  0  0  0  0  0  0  0  0  0  0
   55.9575   28.3808   44.4387 H   0  0  0  0  0  0  0  0  0  0  0  0
  1  2  2  0
  2  3  1  0
  3  4  1  0
  4  5  2  0
  5  6  1  0
  5  7  1  0
  7  8  1  0
  8  9  2  0
  8 10  1  0
 10 11  1  0
 11 12  2  0
  2 13  1  0
 13 14  2  0
 14 15  1  0
 15 16  2  0
 16 17  1  0
 17 18  1  0
 18 19  1  0
 19 20  1  0
 20 21  1  0
 21 22  2  0
 22 23  1  0
 23 24  2  0
 24 25  1  0
 24 26  1  0
 26 27  2  0
 18 28  2  0
 28 29  1  0
 29 30  2  0
 11  4  1  0
 30 13  1  0
 29 16  1  0
 27 21  1  0
 14 31  1  0
 15 32  1  0
 19 33  1  0
 19 34  1  0
 20 35  1  0
 22 36  1  0
 23 37  1  0
 26 38  1  0
 27 39  1  0
 30 40  1  0
M  CHG  5   3  -1   6  -1   7  -1  10  -1  17  -1
M  END
>  <UniqueID>  (28) 
24

>  <SMILES>  (28) 
O=C([N-]c1c([O-])[n-]c(=O)[n-]c1=O)c1ccc2[n-]c(CNc3ccc(F)cc3)nc2c1

>  <Energy>  (28) 
86.21696371356755

>  <Genealogy>  (28) 
O=C([N-]c1c([O-])[n-]c(=O)[n-]c1=O)c1ccc2[n-]c(CNc3ccc(F)cc3)nc2c1 (protonated)
O=C([N-]c1c([O-])[n-]c(=O)[n-]c1=O)c1ccc2[n-]c(CNc3ccc(F)cc3)nc2c1 (3D coordinates assigned)
O=C([N-]c1c([O-])[n-]c(=O)[n-]c1=O)c1ccc2[n-]c(CNc3ccc(F)cc3)nc2c1 (optimized conformer: 86.21696371356755 kcal/mol)

>  <smiles>  (28) 
O=C(Nc1c(O)[nH]c(=O)[nH]c1=O)c1ccc2[nH]c(CNc3ccc(F)cc3)nc2c1

>  <score_type>  (28) 
oracle

>  <origin>  (28) 
adg

>  <m_score__min__energy>  (28) 
-18.850000000000001

>  <m_primary>  (28) 
energy

$$$$
28:0
     RDKit          3D

 33 34  0  0  0  0  0  0  0  0999 V2000
   57.3060   34.1280   45.0570 C   0  0  0  0  0  0  0  0  0  0  0  0
   58.3420   34.0540   46.1260 C   0  0  0  0  0  0  0  0  0  0  0  0
   58.1410   33.4540   47.3190 N   0  0  0  0  0  0  0  0  0  0  0  0
   59.2640   33.4670   48.0870 C   0  0  0  0  0  0  0  0  0  0  0  0
   59.3010   32.8240   49.4370 C   0  0  0  0  0  0  0  0  0  0  0  0
   58.6210   31.5300   49.3840 N   0  0  0  0  0  0  0  0  0  0  0  0
   59.7500   30.2900   48.9280 S   0  0  0  0  0  0  0  0  0  0  0  0
   59.5140   29.0610   49.7610 O   0  0  0  0  0  0  0  0  0  0  0  0
   61.1480   30.7760   49.1840 O   0  0  0  0  0  0  0  0  0  0  0  0
   59.5800   29.9060   47.2150 C   0  0  0  0  0  0  0  0  0  0  0  0
   60.6450   29.3390   46.5020 C   0  0  0  0  0  0  0  0  0  0  0  0
   60.4890   29.0130   45.1520 C   0  0  0  0  0  0  0  0  0  0  0  0
   59.2710   29.2500   44.5100 C   0  0  0  0  0  0  0  0  0  0  0  0
   58.2010   29.8170   45.2140 C   0  0  0  0  0  0  0  0  0  0  0  0
   56.6580   30.0930   44.4130 S   0  0  0  0  0  0  0  0  0  0  0  0
   55.5270   28.8840   44.9080 N   0  0  0  0  0  0  0  0  0  0  0  0
   56.1310   31.4510   44.7780 O   0  0  0  0  0  0  0  0  0  0  0  0
   56.8380   30.0310   42.9220 O   0  0  0  0  0  0  0  0  0  0  0  0
   58.3570   30.1380   46.5700 C   0  0  0  0  0  0  0  0  0  0  0  0
   60.3800   34.0500   47.4930 C   0  0  0  0  0  0  0  0  0  0  0  0
   59.9300   34.5780   45.9620 S   0  0  0  0  0  0  0  0  0  0  0  0
   56.3092   34.1992   45.5167 H   0  0  0  0  0  0  0  0  0  0  0  0
   57.4861   35.0156   44.4327 H   0  0  0  0  0  0  0  0  0  0  0  0
   57.3581   33.2238   44.4327 H   0  0  0  0  0  0  0  0  0  0  0  0
   60.3471   32.6754   49.7430 H   0  0  0  0  0  0  0  0  0  0  0  0
   58.7928   33.4737   50.1647 H   0  0  0  0  0  0  0  0  0  0  0  0
   58.2890   31.2960   50.3490 H   0  0  0  0  0  0  0  0  0  0  0  0
   61.6047   29.1504   47.0055 H   0  0  0  0  0  0  0  0  0  0  0  0
   61.3266   28.5691   44.5940 H   0  0  0  0  0  0  0  0  0  0  0  0
   59.1519   28.9904   43.4477 H   0  0  0  0  0  0  0  0  0  0  0  0
   54.6510   29.3800   45.1840 H   0  0  0  0  0  0  0  0  0  0  0  0
   57.5164   30.5736   47.1300 H   0  0  0  0  0  0  0  0  0  0  0  0
   61.3781   34.1477   47.9449 H   0  0  0  0  0  0  0  0  0  0  0  0
  1  2  1  0
  2  3  2  0
  3  4  1  0
  4  5  1  0
  5  6  1  0
  6  7  1  0
  7  8  2  0
  7  9  2  0
  7 10  1  0
 10 11  2  0
 11 12  1  0
 12 13  2  0
 13 14  1  0
 14 15  1  0
 15 16  1  0
 15 17  2  0
 15 18  2  0
 14 19  2  0
  4 20  2  0
 20 21  1  0
 21  2  1  0
 19 10  1  0
  1 22  1  0
  1 23  1  0
  1 24  1  0
  5 25  1  0
  5 26  1  0
  6 27  1  0
 11 28  1  0
 12 29  1  0
 13 30  1  0
 16 31  1  0
 19 32  1  0
 20 33  1  0
M  CHG  1  16  -1
M  END
>  <UniqueID>  (29) 
25

>  <SMILES>  (29) 
Cc1nc(CNS(=O)(=O)c2cccc(S([NH-])(=O)=O)c2)cs1

>  <Energy>  (29) 
56.79763538354508

>  <Genealogy>  (29) 
Cc1nc(CNS(=O)(=O)c2cccc(S([NH-])(=O)=O)c2)cs1 (protonated)
Cc1nc(CNS(=O)(=O)c2cccc(S([NH-])(=O)=O)c2)cs1 (3D coordinates assigned)
Cc1nc(CNS(=O)(=O)c2cccc(S([NH-])(=O)=O)c2)cs1 (optimized conformer: 56.79763538354508 kcal/mol)

>  <smiles>  (29) 
Cc1nc(CNS(=O)(=O)c2cccc(S(N)(=O)=O)c2)cs1

>  <score_type>  (29) 
oracle

>  <origin>  (29) 
adg

>  <m_score__min__energy>  (29) 
-11.34

>  <m_primary>  (29) 
energy

$$$$
29:0
     RDKit          3D

 45 49  0  0  0  0  0  0  0  0999 V2000
   56.1680   22.6150   48.3860 C   0  0  0  0  0  0  0  0  0  0  0  0
   57.2950   22.7150   47.5200 O   0  0  0  0  0  0  0  0  0  0  0  0
   57.4120   23.6450   46.4770 C   0  0  0  0  0  0  0  0  0  0  0  0
   57.1520   23.3090   45.1350 C   0  0  0  0  0  0  0  0  0  0  0  0
   57.2800   24.2690   44.1270 C   0  0  0  0  0  0  0  0  0  0  0  0
   57.6720   25.5770   44.4440 C   0  0  0  0  0  0  0  0  0  0  0  0
   57.8000   26.5480   43.4410 C   0  0  0  0  0  0  0  0  0  0  0  0
   58.1900   27.8490   43.7670 C   0  0  0  0  0  0  0  0  0  0  0  0
   58.4640   28.2020   45.0990 C   0  0  0  0  0  0  0  0  0  0  0  0
   58.8690   29.5890   45.4350 C   0  0  0  0  0  0  0  0  0  0  0  0
   58.1050   30.6730   44.9840 C   0  0  0  0  0  0  0  0  0  0  0  0
   58.4840   31.9780   45.3100 C   0  0  0  0  0  0  0  0  0  0  0  0
   57.7420   33.0780   44.8680 C   0  0  0  0  0  0  0  0  0  0  0  0
   58.1420   34.3700   45.2060 C   0  0  0  0  0  0  0  0  0  0  0  0
   59.2840   34.5800   45.9920 C   0  0  0  0  0  0  0  0  0  0  0  0
   59.6440   35.8800   46.3470 O   0  0  0  0  0  0  0  0  0  0  0  0
   60.0480   33.4800   46.4410 C   0  0  0  0  0  0  0  0  0  0  0  0
   61.2590   33.6950   47.2690 C   0  0  0  0  0  0  0  0  0  0  0  0
   62.5780   33.5170   46.8600 C   0  0  0  0  0  0  0  0  0  0  0  0
   63.5150   33.8010   47.8610 C   0  0  0  0  0  0  0  0  0  0  0  0
   62.9450   34.2040   49.0620 C   0  0  0  0  0  0  0  0  0  0  0  0
   61.2750   34.2030   48.8750 S   0  0  0  0  0  0  0  0  0  0  0  0
   59.6410   32.1720   46.0960 C   0  0  0  0  0  0  0  0  0  0  0  0
   60.3500   31.1190   46.4940 O   0  0  0  0  0  0  0  0  0  0  0  0
   60.0210   29.8650   46.2010 C   0  0  0  0  0  0  0  0  0  0  0  0
   60.7650   28.9300   46.6010 O   0  0  0  0  0  0  0  0  0  0  0  0
   58.3280   27.2320   46.1080 C   0  0  0  0  0  0  0  0  0  0  0  0
   57.9370   25.9220   45.7900 C   0  0  0  0  0  0  0  0  0  0  0  0
   57.8030   24.9510   46.7940 C   0  0  0  0  0  0  0  0  0  0  0  0
   56.5059   22.6450   49.4324 H   0  0  0  0  0  0  0  0  0  0  0  0
   55.4847   23.4560   48.1971 H   0  0  0  0  0  0  0  0  0  0  0  0
   55.6434   21.6668   48.1971 H   0  0  0  0  0  0  0  0  0  0  0  0
   56.8461   22.2842   44.8778 H   0  0  0  0  0  0  0  0  0  0  0  0
   57.0724   23.9971   43.0815 H   0  0  0  0  0  0  0  0  0  0  0  0
   57.5925   26.2844   42.3934 H   0  0  0  0  0  0  0  0  0  0  0  0
   58.2835   28.6046   42.9731 H   0  0  0  0  0  0  0  0  0  0  0  0
   57.2071   30.4971   44.3735 H   0  0  0  0  0  0  0  0  0  0  0  0
   56.8427   32.9237   44.2536 H   0  0  0  0  0  0  0  0  0  0  0  0
   57.5568   35.2320   44.8531 H   0  0  0  0  0  0  0  0  0  0  0  0
   59.2080   36.3600   47.1260 H   0  0  0  0  0  0  0  0  0  0  0  0
   62.8568   33.1855   45.8489 H   0  0  0  0  0  0  0  0  0  0  0  0
   64.6011   33.7132   47.7104 H   0  0  0  0  0  0  0  0  0  0  0  0
   63.4919   34.4765   49.9767 H   0  0  0  0  0  0  0  0  0  0  0  0
   58.5297   27.5021   47.1551 H   0  0  0  0  0  0  0  0  0  0  0  0
   58.0074   25.2190   47.8411 H   0  0  0  0  0  0  0  0  0  0  0  0
  1  2  1  0
  2  3  1  0
  3  4  2  0
  4  5  1  0
  5  6  2  0
  6  7  1  0
  7  8  2  0
  8  9  1  0
  9 10  1  0
 10 11  2  0
 11 12  1  0
 12 13  2  0
 13 14  1  0
 14 15  2  0
 15 16  1  0
 15 17  1  0
 17 18  1  0
 18 19  2  0
 19 20  1  0
 20 21  2  0
 21 22  1  0
 17 23  2  0
 23 24  1  0
 24 25  1  0
 25 26  2  0
  9 27  2  0
 27 28  1  0
 28 29  2  0
 29  3  1  0
 28  6  1  0
 25 10  1  0
 23 12  1  0
 22 18  1  0
  1 30  1  0
  1 31  1  0
  1 32  1  0
  4 33  1  0
  5 34  1  0
  7 35  1  0
  8 36  1  0
 11 37  1  0
 13 38  1  0
 14 39  1  0
 16 40  1  0
 19 41  1  0
 20 42  1  0
 21 43  1  0
 27 44  1  0
 29 45  1  0
M  END
>  <UniqueID>  (30) 
26

>  <SMILES>  (30) 
COc1ccc2ccc(-c3cc4ccc(O)c(-c5cccs5)c4oc3=O)cc2c1

>  <Energy>  (30) 
96.44101632637158

>  <Genealogy>  (30) 
COc1ccc2ccc(-c3cc4ccc(O)c(-c5cccs5)c4oc3=O)cc2c1 (3D coordinates assigned)
COc1ccc2ccc(-c3cc4ccc(O)c(-c5cccs5)c4oc3=O)cc2c1 (optimized conformer: 96.44101632637158 kcal/mol)

>  <smiles>  (30) 
COc1ccc2ccc(-c3cc4ccc(O)c(-c5cccs5)c4oc3=O)cc2c1

>  <score_type>  (30) 
oracle

>  <origin>  (30) 
adg

>  <m_score__min__energy>  (30) 
-8.9700000000000006

>  <m_primary>  (30) 
energy

$$$$
30:0
     RDKit          3D

 42 44  0  0  0  0  0  0  0  0999 V2000
   51.5790   22.8010   46.1410 C   0  0  0  0  0  0  0  0  0  0  0  0
   52.4390   23.6670   45.3280 N   0  0  0  0  0  0  0  0  0  0  0  0
   52.0240   24.0840   43.9860 C   0  0  0  0  0  0  0  0  0  0  0  0
   53.6950   24.1110   45.8700 C   0  0  0  0  0  0  0  0  0  0  0  0
   54.6480   23.3180   46.4780 C   0  0  0  0  0  0  0  0  0  0  0  0
   55.6650   24.2040   46.7690 C   0  0  0  0  0  0  0  0  0  0  0  0
   56.9630   23.8710   47.3610 C   0  0  0  0  0  0  0  0  0  0  0  0
   57.0380   23.0290   48.2970 O   0  0  0  0  0  0  0  0  0  0  0  0
   58.1420   24.5110   46.8700 N   0  0  0  0  0  0  0  0  0  0  0  0
   58.1350   25.5160   45.8530 C   0  0  0  0  0  0  0  0  0  0  0  0
   58.5010   26.8200   46.2080 C   0  0  0  0  0  0  0  0  0  0  0  0
   58.5630   27.8260   45.2430 C   0  0  0  0  0  0  0  0  0  0  0  0
   58.2440   27.5400   43.9150 C   0  0  0  0  0  0  0  0  0  0  0  0
   57.8420   26.2530   43.5530 C   0  0  0  0  0  0  0  0  0  0  0  0
   57.7680   25.2290   44.5140 C   0  0  0  0  0  0  0  0  0  0  0  0
   57.2650   23.9360   44.1230 N   0  0  0  0  0  0  0  0  0  0  0  0
   57.9810   22.7250   44.5440 C   0  0  0  0  0  0  0  0  0  0  0  0
   57.7070   21.5610   43.5830 C   0  0  0  0  0  0  0  0  0  0  0  0
   56.3270   21.4410   43.3070 O   0  0  0  0  0  0  0  0  0  0  0  0
   55.8900   22.5870   42.6020 C   0  0  0  0  0  0  0  0  0  0  0  0
   55.9340   23.8150   43.5120 C   0  0  0  0  0  0  0  0  0  0  0  0
   55.3300   25.4400   46.3540 N   0  0  0  0  0  0  0  0  0  0  0  0
   54.1260   25.3850   45.8070 N   0  0  0  0  0  0  0  0  0  0  0  0
   51.7691   22.9924   47.2074 H   0  0  0  0  0  0  0  0  0  0  0  0
   50.5241   23.0134   45.9127 H   0  0  0  0  0  0  0  0  0  0  0  0
   51.7987   21.7476   45.9127 H   0  0  0  0  0  0  0  0  0  0  0  0
   51.2501   24.8616   44.0666 H   0  0  0  0  0  0  0  0  0  0  0  0
   52.8918   24.4853   43.4420 H   0  0  0  0  0  0  0  0  0  0  0  0
   51.6185   23.2182   43.4420 H   0  0  0  0  0  0  0  0  0  0  0  0
   54.6064   22.2378   46.6817 H   0  0  0  0  0  0  0  0  0  0  0  0
   58.7415   27.0532   47.2557 H   0  0  0  0  0  0  0  0  0  0  0  0
   58.8634   28.8447   45.5292 H   0  0  0  0  0  0  0  0  0  0  0  0
   58.3094   28.3298   43.1522 H   0  0  0  0  0  0  0  0  0  0  0  0
   57.5807   26.0379   42.5064 H   0  0  0  0  0  0  0  0  0  0  0  0
   59.0611   22.9327   44.5584 H   0  0  0  0  0  0  0  0  0  0  0  0
   57.6292   22.4412   45.5468 H   0  0  0  0  0  0  0  0  0  0  0  0
   58.2472   21.7383   42.6413 H   0  0  0  0  0  0  0  0  0  0  0  0
   58.0498   20.6295   44.0572 H   0  0  0  0  0  0  0  0  0  0  0  0
   56.5470   22.7531   41.7355 H   0  0  0  0  0  0  0  0  0  0  0  0
   54.8555   22.4277   42.2637 H   0  0  0  0  0  0  0  0  0  0  0  0
   55.7214   24.7166   42.9188 H   0  0  0  0  0  0  0  0  0  0  0  0
   55.1795   23.7059   44.3050 H   0  0  0  0  0  0  0  0  0  0  0  0
  1  2  1  0
  2  3  1  0
  2  4  1  0
  4  5  2  0
  5  6  1  0
  6  7  1  0
  7  8  2  0
  7  9  1  0
  9 10  1  0
 10 11  2  0
 11 12  1  0
 12 13  2  0
 13 14  1  0
 14 15  2  0
 15 16  1  0
 16 17  1  0
 17 18  1  0
 18 19  1  0
 19 20  1  0
 20 21  1  0
  6 22  2  0
 22 23  1  0
 23  4  1  0
 15 10  1  0
 21 16  1  0
  1 24  1  0
  1 25  1  0
  1 26  1  0
  3 27  1  0
  3 28  1  0
  3 29  1  0
  5 30  1  0
 11 31  1  0
 12 32  1  0
 13 33  1  0
 14 34  1  0
 17 35  1  0
 17 36  1  0
 18 37  1  0
 18 38  1  0
 20 39  1  0
 20 40  1  0
 21 41  1  0
 21 42  1  0
M  CHG  2   9  -1  23  -1
M  END
>  <UniqueID>  (31) 
27

>  <SMILES>  (31) 
CN(C)c1cc(C(=O)[N-]c2ccccc2N2CCOCC2)n[n-]1

>  <Energy>  (31) 
82.11786405479683

>  <Genealogy>  (31) 
CN(C)c1cc(C(=O)[N-]c2ccccc2N2CCOCC2)n[n-]1 (protonated)
CN(C)c1cc(C(=O)[N-]c2ccccc2N2CCOCC2)n[n-]1 (3D coordinates assigned)
CN(C)c1cc(C(=O)[N-]c2ccccc2N2CCOCC2)n[n-]1 (nonaromatic ring conformer: 82.11786405479683 kcal/mol)

>  <smiles>  (31) 
CN(C)c1cc(C(=O)Nc2ccccc2N2CCOCC2)n[nH]1

>  <score_type>  (31) 
oracle

>  <origin>  (31) 
adg

>  <m_score__min__energy>  (31) 
-10.279999999999999

>  <m_primary>  (31) 
energy

$$$$
31:0
     RDKit          3D

 48 50  0  0  0  0  0  0  0  0999 V2000
   54.3750   25.3130   45.6210 C   0  0  0  0  0  0  0  0  0  0  0  0
   55.3290   26.3080   45.9730 O   0  0  0  0  0  0  0  0  0  0  0  0
   56.6930   26.0650   46.2020 C   0  0  0  0  0  0  0  0  0  0  0  0
   57.1620   24.7930   46.5900 C   0  0  0  0  0  0  0  0  0  0  0  0
   58.5180   24.5910   46.8560 C   0  0  0  0  0  0  0  0  0  0  0  0
   59.4190   25.6500   46.7440 C   0  0  0  0  0  0  0  0  0  0  0  0
   58.9700   26.9120   46.3520 C   0  0  0  0  0  0  0  0  0  0  0  0
   57.6140   27.1250   46.0600 C   0  0  0  0  0  0  0  0  0  0  0  0
   57.1780   28.4690   45.6180 C   0  0  0  0  0  0  0  0  0  0  0  0
   56.0530   28.6910   44.9080 N   0  0  0  0  0  0  0  0  0  0  0  0
   55.9510   29.9790   44.6180 N   0  0  0  0  0  0  0  0  0  0  0  0
   57.0200   30.5920   45.1560 C   0  0  0  0  0  0  0  0  0  0  0  0
   57.2150   31.8340   45.0870 O   0  0  0  0  0  0  0  0  0  0  0  0
   57.8320   29.6820   45.8070 C   0  0  0  0  0  0  0  0  0  0  0  0
   59.0540   29.9670   46.5930 C   0  0  0  0  0  0  0  0  0  0  0  0
   60.3240   29.8330   46.0110 C   0  0  0  0  0  0  0  0  0  0  0  0
   61.4740   30.1250   46.7500 C   0  0  0  0  0  0  0  0  0  0  0  0
   61.3790   30.5540   48.0780 C   0  0  0  0  0  0  0  0  0  0  0  0
   62.5720   30.8250   48.7690 O   0  0  0  0  0  0  0  0  0  0  0  0
   63.2620   32.0750   48.8070 C   0  0  0  0  0  0  0  0  0  0  0  0
   62.3280   33.2270   48.4200 C   0  0  0  0  0  0  0  0  0  0  0  0
   62.1690   33.3150   46.9520 N   0  0  0  0  0  0  0  0  0  0  0  0
   63.3770   33.8930   46.3390 C   0  0  0  0  0  0  0  0  0  0  0  0
   60.9980   34.1370   46.5980 C   0  0  0  0  0  0  0  0  0  0  0  0
   60.1060   30.6750   48.6670 C   0  0  0  0  0  0  0  0  0  0  0  0
   58.9550   30.3830   47.9290 C   0  0  0  0  0  0  0  0  0  0  0  0
   53.9515   24.8713   46.5351 H   0  0  0  0  0  0  0  0  0  0  0  0
   53.5696   25.7708   45.0279 H   0  0  0  0  0  0  0  0  0  0  0  0
   54.8662   24.5276   45.0279 H   0  0  0  0  0  0  0  0  0  0  0  0
   56.4556   23.9550   46.6837 H   0  0  0  0  0  0  0  0  0  0  0  0
   58.8763   23.5947   47.1545 H   0  0  0  0  0  0  0  0  0  0  0  0
   60.4847   25.4903   46.9649 H   0  0  0  0  0  0  0  0  0  0  0  0
   59.6837   27.7452   46.2714 H   0  0  0  0  0  0  0  0  0  0  0  0
   55.3620   27.9700   44.6040 H   0  0  0  0  0  0  0  0  0  0  0  0
   60.4149   29.4964   44.9677 H   0  0  0  0  0  0  0  0  0  0  0  0
   62.4638   30.0163   46.2825 H   0  0  0  0  0  0  0  0  0  0  0  0
   63.6420   32.2459   49.8250 H   0  0  0  0  0  0  0  0  0  0  0  0
   64.0934   32.0396   48.0876 H   0  0  0  0  0  0  0  0  0  0  0  0
   61.3422   33.0595   48.8785 H   0  0  0  0  0  0  0  0  0  0  0  0
   62.7677   34.1687   48.7803 H   0  0  0  0  0  0  0  0  0  0  0  0
   64.0671   34.2232   47.1294 H   0  0  0  0  0  0  0  0  0  0  0  0
   63.8707   33.1336   45.7149 H   0  0  0  0  0  0  0  0  0  0  0  0
   63.0954   34.7539   45.7149 H   0  0  0  0  0  0  0  0  0  0  0  0
   60.5028   34.4846   47.5167 H   0  0  0  0  0  0  0  0  0  0  0  0
   61.3246   35.0051   46.0066 H   0  0  0  0  0  0  0  0  0  0  0  0
   60.2926   33.5348   46.0066 H   0  0  0  0  0  0  0  0  0  0  0  0
   60.0165   31.0011   49.7137 H   0  0  0  0  0  0  0  0  0  0  0  0
   57.9653   30.4801   48.3991 H   0  0  0  0  0  0  0  0  0  0  0  0
  1  2  1  0
  2  3  1  0
  3  4  2  0
  4  5  1  0
  5  6  2  0
  6  7  1  0
  7  8  2  0
  8  9  1  0
  9 10  1  0
 10 11  1  0
 11 12  1  0
 12 13  2  0
 12 14  1  0
 14 15  1  0
 15 16  2  0
 16 17  1  0
 17 18  2  0
 18 19  1  0
 19 20  1  0
 20 21  1  0
 21 22  1  0
 22 23  1  0
 22 24  1  0
 18 25  1  0
 25 26  2  0
  8  3  1  0
 14  9  2  0
 26 15  1  0
  1 27  1  0
  1 28  1  0
  1 29  1  0
  4 30  1  0
  5 31  1  0
  6 32  1  0
  7 33  1  0
 10 34  1  0
 16 35  1  0
 17 36  1  0
 20 37  1  0
 20 38  1  0
 21 39  1  0
 21 40  1  0
 23 41  1  0
 23 42  1  0
 23 43  1  0
 24 44  1  0
 24 45  1  0
 24 46  1  0
 25 47  1  0
 26 48  1  0
M  CHG  1  11  -1
M  END
>  <UniqueID>  (32) 
28

>  <SMILES>  (32) 
COc1ccccc1-c1[nH][n-]c(=O)c1-c1ccc(OCCN(C)C)cc1

>  <Energy>  (32) 
88.67705848530737

>  <Genealogy>  (32) 
COc1ccccc1-c1[nH][n-]c(=O)c1-c1ccc(OCCN(C)C)cc1 (protonated)
COc1ccccc1-c1[nH][n-]c(=O)c1-c1ccc(OCCN(C)C)cc1 (3D coordinates assigned)
COc1ccccc1-c1[nH][n-]c(=O)c1-c1ccc(OCCN(C)C)cc1 (optimized conformer: 88.67705848530737 kcal/mol)

>  <smiles>  (32) 
COc1ccccc1-c1[nH][nH]c(=O)c1-c1ccc(OCCN(C)C)cc1

>  <score_type>  (32) 
oracle

>  <origin>  (32) 
adg

>  <m_score__min__energy>  (32) 
-9.1600000000000001

>  <m_primary>  (32) 
energy

$$$$
32:0
     RDKit          3D

 37 39  0  0  0  0  0  0  0  0999 V2000
   56.9810   34.2110   44.8180 C   0  0  0  0  0  0  0  0  0  0  0  0
   58.2410   34.7360   45.1970 O   0  0  0  0  0  0  0  0  0  0  0  0
   58.9910   34.1440   46.2050 C   0  0  0  0  0  0  0  0  0  0  0  0
   59.2410   34.8880   47.3580 C   0  0  0  0  0  0  0  0  0  0  0  0
   59.9800   34.3630   48.4000 C   0  0  0  0  0  0  0  0  0  0  0  0
   60.4730   33.0800   48.2810 C   0  0  0  0  0  0  0  0  0  0  0  0
   61.1940   32.6000   49.3240 F   0  0  0  0  0  0  0  0  0  0  0  0
   60.2340   32.3210   47.1360 C   0  0  0  0  0  0  0  0  0  0  0  0
   60.7820   31.0080   47.1050 N   0  0  0  0  0  0  0  0  0  0  0  0
   62.2220   30.8220   47.1350 C   0  0  0  0  0  0  0  0  0  0  0  0
   59.9260   29.8740   47.0440 C   0  0  0  0  0  0  0  0  0  0  0  0
   60.2430   28.7170   47.7180 C   0  0  0  0  0  0  0  0  0  0  0  0
   59.4000   27.6450   47.6390 N   0  0  0  0  0  0  0  0  0  0  0  0
   58.2610   27.6920   46.9140 C   0  0  0  0  0  0  0  0  0  0  0  0
   57.4710   26.6050   46.8750 N   0  0  0  0  0  0  0  0  0  0  0  0
   56.3350   26.7100   46.1280 C   0  0  0  0  0  0  0  0  0  0  0  0
   55.5170   25.7060   46.0360 N   0  0  0  0  0  0  0  0  0  0  0  0
   56.0270   27.8420   45.4690 N   0  0  0  0  0  0  0  0  0  0  0  0
   56.8060   28.9290   45.5030 C   0  0  0  0  0  0  0  0  0  0  0  0
   56.5040   30.0130   44.8680 N   0  0  0  0  0  0  0  0  0  0  0  0
   57.9650   28.8490   46.2530 C   0  0  0  0  0  0  0  0  0  0  0  0
   58.7920   29.9230   46.3220 N   0  0  0  0  0  0  0  0  0  0  0  0
   59.4960   32.8640   46.1140 C   0  0  0  0  0  0  0  0  0  0  0  0
   56.3988   33.9684   45.7192 H   0  0  0  0  0  0  0  0  0  0  0  0
   56.4375   34.9575   44.2203 H   0  0  0  0  0  0  0  0  0  0  0  0
   57.1284   33.2994   44.2203 H   0  0  0  0  0  0  0  0  0  0  0  0
   58.8428   35.9102   47.4388 H   0  0  0  0  0  0  0  0  0  0  0  0
   60.1716   34.9559   49.3065 H   0  0  0  0  0  0  0  0  0  0  0  0
   62.5643   30.7778   48.1794 H   0  0  0  0  0  0  0  0  0  0  0  0
   62.4811   29.8829   46.6241 H   0  0  0  0  0  0  0  0  0  0  0  0
   62.7112   31.6644   46.6241 H   0  0  0  0  0  0  0  0  0  0  0  0
   61.1655   28.6560   48.3141 H   0  0  0  0  0  0  0  0  0  0  0  0
   57.6710   25.7190   47.3640 H   0  0  0  0  0  0  0  0  0  0  0  0
   54.5430   25.8530   46.3680 H   0  0  0  0  0  0  0  0  0  0  0  0
   55.1460   27.9080   44.8970 H   0  0  0  0  0  0  0  0  0  0  0  0
   57.1630   30.8370   44.8970 H   0  0  0  0  0  0  0  0  0  0  0  0
   59.3045   32.2692   45.2087 H   0  0  0  0  0  0  0  0  0  0  0  0
  1  2  1  0
  2  3  1  0
  3  4  2  0
  4  5  1  0
  5  6  2  0
  6  7  1  0
  6  8  1  0
  8  9  1  0
  9 10  1  0
  9 11  1  0
 11 12  2  0
 12 13  1  0
 13 14  2  0
 14 15  1  0
 15 16  1  0
 16 17  2  3
 16 18  1  0
 18 19  1  0
 19 20  2  3
 19 21  1  0
 21 22  2  0
  8 23  2  0
 23  3  1  0
 22 11  1  0
 21 14  1  0
  1 24  1  0
  1 25  1  0
  1 26  1  0
  4 27  1  0
  5 28  1  0
 10 29  1  0
 10 30  1  0
 10 31  1  0
 12 32  1  0
 15 33  1  0
 17 34  1  0
 18 35  1  0
 20 36  1  0
 23 37  1  0
M  END
>  <smiles>  (33) 
COc1ccc(F)c(N(C)c2cnc3[nH]c(=N)[nH]c(=N)c3n2)c1

>  <score_type>  (33) 
oracle

>  <origin>  (33) 
adg

>  <m_score__min__energy>  (33) 
-6.5899999999999999

>  <m_primary>  (33) 
energy

$$$$
33:0
     RDKit          3D

 44 47  0  0  0  0  0  0  0  0999 V2000
   54.4710   27.0880   46.7330 H   0  0  0  0  0  0  0  0  0  0  0  0
   54.8980   26.3930   46.0820 N   0  0  0  0  0  0  0  0  0  0  0  0
   56.3130   26.2210   46.0190 C   0  0  0  0  0  0  0  0  0  0  0  0
   56.8060   25.0900   46.2810 O   0  0  0  0  0  0  0  0  0  0  0  0
   57.1950   27.3520   45.6480 C   0  0  0  0  0  0  0  0  0  0  0  0
   58.5750   27.1520   45.4630 C   0  0  0  0  0  0  0  0  0  0  0  0
   59.0063   26.1502   45.6058 H   0  0  0  0  0  0  0  0  0  0  0  0
   59.4010   28.2180   45.0990 C   0  0  0  0  0  0  0  0  0  0  0  0
   60.4778   28.0505   44.9489 H   0  0  0  0  0  0  0  0  0  0  0  0
   58.8650   29.4950   44.9250 C   0  0  0  0  0  0  0  0  0  0  0  0
   59.5179   30.3268   44.6218 H   0  0  0  0  0  0  0  0  0  0  0  0
   57.4930   29.7220   45.1360 C   0  0  0  0  0  0  0  0  0  0  0  0
   56.8960   31.0150   44.9330 N   0  0  0  0  0  0  0  0  0  0  0  0
   57.4120   32.1710   45.2310 C   0  0  0  0  0  0  0  0  0  0  0  0
   58.3620   32.2410   46.2000 N   0  0  0  0  0  0  0  0  0  0  0  0
   58.9480   33.4220   46.5310 C   0  0  0  0  0  0  0  0  0  0  0  0
   59.9390   33.4600   47.5560 N   0  0  0  0  0  0  0  0  0  0  0  0
   61.0320   32.6050   48.0550 C   0  0  0  0  0  0  0  0  0  0  0  0
   60.6743   31.6373   48.4365 H   0  0  0  0  0  0  0  0  0  0  0  0
   61.7954   32.2907   47.3280 H   0  0  0  0  0  0  0  0  0  0  0  0
   61.4680   33.5300   49.1450 C   0  0  0  0  0  0  0  0  0  0  0  0
   62.4986   33.8868   49.2886 H   0  0  0  0  0  0  0  0  0  0  0  0
   61.1960   32.9920   50.4380 O   0  0  0  0  0  0  0  0  0  0  0  0
   59.9090   32.7240   50.9290 C   0  0  0  0  0  0  0  0  0  0  0  0
   59.1730   31.5880   50.5390 C   0  0  0  0  0  0  0  0  0  0  0  0
   59.6049   30.8737   49.8227 H   0  0  0  0  0  0  0  0  0  0  0  0
   57.8930   31.3660   51.0610 C   0  0  0  0  0  0  0  0  0  0  0  0
   57.3221   30.4770   50.7548 H   0  0  0  0  0  0  0  0  0  0  0  0
   57.3390   32.2710   51.9700 C   0  0  0  0  0  0  0  0  0  0  0  0
   56.0990   32.0540   52.4730 F   0  0  0  0  0  0  0  0  0  0  0  0
   58.0650   33.4000   52.3590 C   0  0  0  0  0  0  0  0  0  0  0  0
   57.6291   34.1127   53.0746 H   0  0  0  0  0  0  0  0  0  0  0  0
   59.3440   33.6260   51.8410 C   0  0  0  0  0  0  0  0  0  0  0  0
   59.9100   34.5168   52.1510 H   0  0  0  0  0  0  0  0  0  0  0  0
   60.3570   34.3850   48.6250 C   0  0  0  0  0  0  0  0  0  0  0  0
   59.5675   34.5565   49.3715 H   0  0  0  0  0  0  0  0  0  0  0  0
   60.6115   35.4132   48.3282 H   0  0  0  0  0  0  0  0  0  0  0  0
   58.5780   34.5900   45.8600 C   0  0  0  0  0  0  0  0  0  0  0  0
   59.0397   35.5556   46.1140 H   0  0  0  0  0  0  0  0  0  0  0  0
   57.6100   34.5030   44.8610 C   0  0  0  0  0  0  0  0  0  0  0  0
   57.2996   35.4060   44.3148 H   0  0  0  0  0  0  0  0  0  0  0  0
   57.0510   33.3030   44.5630 N   0  0  0  0  0  0  0  0  0  0  0  0
   56.6640   28.6440   45.4700 C   0  0  0  0  0  0  0  0  0  0  0  0
   55.5836   28.8086   45.5950 H   0  0  0  0  0  0  0  0  0  0  0  0
  1  2  1  0
  2  3  1  0
  3  4  2  0
  3  5  1  0
  5  6  2  0
  6  7  1  0
  6  8  1  0
  8  9  1  0
  8 10  2  0
 10 11  1  0
 10 12  1  0
 12 13  1  0
 13 14  2  0
 14 15  1  0
 15 16  2  0
 16 17  1  0
 17 18  1  0
 18 19  1  0
 18 20  1  0
 18 21  1  0
 21 22  1  0
 21 23  1  0
 23 24  1  0
 24 25  2  0
 25 26  1  0
 25 27  1  0
 27 28  1  0
 27 29  2  0
 29 30  1  0
 29 31  1  0
 31 32  1  0
 31 33  2  0
 33 34  1  0
 21 35  1  0
 35 36  1  0
 35 37  1  0
 16 38  1  0
 38 39  1  0
 38 40  2  0
 40 41  1  0
 40 42  1  0
 12 43  2  0
 43 44  1  0
 43  5  1  0
 42 14  1  0
 35 17  1  0
 33 24  1  0
M  CHG  2   2  -1  42  -1
M  END
>  <UniqueID>  (34) 
29

>  <SMILES>  (34) 
[NH-]C(=O)c1cccc(/N=c2/nc(N3CC(Oc4ccc(F)cc4)C3)cc[n-]2)c1

>  <Energy>  (34) 
99.29969306719123

>  <Genealogy>  (34) 
[NH-]C(=O)c1cccc(N=c2nc(N3CC(Oc4ccc(F)cc4)C3)cc[n-]2)c1 (protonated)
[NH-]C(=O)c1cccc(/N=c2/nc(N3CC(Oc4ccc(F)cc4)C3)cc[n-]2)c1 (cis-trans isomerization)
[NH-]C(=O)c1cccc(/N=c2/nc(N3CC(Oc4ccc(F)cc4)C3)cc[n-]2)c1 (3D coordinates assigned)
[NH-]C(=O)c1cccc(/N=c2/nc(N3CC(Oc4ccc(F)cc4)C3)cc[n-]2)c1 (nonaromatic ring conformer: 99.29969306719123 kcal/mol)

>  <smiles>  (34) 
NC(=O)c1cccc(N=c2nc(N3CC(Oc4ccc(F)cc4)C3)cc[nH]2)c1

>  <score_type>  (34) 
oracle

>  <origin>  (34) 
adg

>  <m_score__min__energy>  (34) 
-13.24

>  <m_primary>  (34) 
energy

$$$$
34:0
     RDKit          3D

 43 45  0  0  0  0  0  0  0  0999 V2000
   57.3410   33.8030   45.5470 C   0  0  0  0  0  0  0  0  0  0  0  0
   57.2820   32.6130   44.6440 C   0  0  0  0  0  0  0  0  0  0  0  0
   57.7000   32.7140   43.3110 C   0  0  0  0  0  0  0  0  0  0  0  0
   57.6320   31.5900   42.4890 C   0  0  0  0  0  0  0  0  0  0  0  0
   57.1500   30.3810   42.9940 C   0  0  0  0  0  0  0  0  0  0  0  0
   56.7330   30.3100   44.3400 C   0  0  0  0  0  0  0  0  0  0  0  0
   56.2590   29.2190   44.8720 N   0  0  0  0  0  0  0  0  0  0  0  0
   57.1820   27.9190   45.5660 S   0  0  0  0  0  0  0  0  0  0  0  0
   57.8590   27.1510   44.4660 O   0  0  0  0  0  0  0  0  0  0  0  0
   56.2570   26.9950   46.3080 O   0  0  0  0  0  0  0  0  0  0  0  0
   58.4130   28.5770   46.6400 C   0  0  0  0  0  0  0  0  0  0  0  0
   59.3940   27.7320   47.1690 C   0  0  0  0  0  0  0  0  0  0  0  0
   60.4210   28.2540   47.9590 C   0  0  0  0  0  0  0  0  0  0  0  0
   60.4890   29.6300   48.2170 C   0  0  0  0  0  0  0  0  0  0  0  0
   61.5990   30.1540   48.9630 N   0  0  0  0  0  0  0  0  0  0  0  0
   62.4850   31.5610   48.4630 S   0  0  0  0  0  0  0  0  0  0  0  0
   63.3270   31.2210   47.2660 O   0  0  0  0  0  0  0  0  0  0  0  0
   63.3820   31.9990   49.5890 O   0  0  0  0  0  0  0  0  0  0  0  0
   61.3660   32.8510   48.0230 C   0  0  0  0  0  0  0  0  0  0  0  0
   61.3030   33.3180   46.7010 C   0  0  0  0  0  0  0  0  0  0  0  0
   60.4400   34.3670   46.3660 C   0  0  0  0  0  0  0  0  0  0  0  0
   59.6370   34.9530   47.3480 C   0  0  0  0  0  0  0  0  0  0  0  0
   59.6860   34.4830   48.6640 C   0  0  0  0  0  0  0  0  0  0  0  0
   60.5440   33.4310   49.0000 C   0  0  0  0  0  0  0  0  0  0  0  0
   59.4790   30.4710   47.7130 C   0  0  0  0  0  0  0  0  0  0  0  0
   58.4500   29.9480   46.9280 C   0  0  0  0  0  0  0  0  0  0  0  0
   56.8170   31.4240   45.1170 N   0  0  0  0  0  0  0  0  0  0  0  0
   57.3245   33.4692   46.5950 H   0  0  0  0  0  0  0  0  0  0  0  0
   58.2680   34.3632   45.3552 H   0  0  0  0  0  0  0  0  0  0  0  0
   56.4739   34.4522   45.3552 H   0  0  0  0  0  0  0  0  0  0  0  0
   58.0776   33.6692   42.9172 H   0  0  0  0  0  0  0  0  0  0  0  0
   57.9587   31.6559   41.4407 H   0  0  0  0  0  0  0  0  0  0  0  0
   57.0958   29.4920   42.3485 H   0  0  0  0  0  0  0  0  0  0  0  0
   59.3567   26.6523   46.9622 H   0  0  0  0  0  0  0  0  0  0  0  0
   61.1814   27.5807   48.3814 H   0  0  0  0  0  0  0  0  0  0  0  0
   62.0180   29.5740   49.7230 H   0  0  0  0  0  0  0  0  0  0  0  0
   61.9339   32.8580   45.9261 H   0  0  0  0  0  0  0  0  0  0  0  0
   60.3936   34.7307   45.3289 H   0  0  0  0  0  0  0  0  0  0  0  0
   58.9661   35.7843   47.0857 H   0  0  0  0  0  0  0  0  0  0  0  0
   59.0494   34.9409   49.4354 H   0  0  0  0  0  0  0  0  0  0  0  0
   60.5742   33.0572   50.0341 H   0  0  0  0  0  0  0  0  0  0  0  0
   59.5007   31.5473   47.9392 H   0  0  0  0  0  0  0  0  0  0  0  0
   57.6670   30.6130   46.5349 H   0  0  0  0  0  0  0  0  0  0  0  0
  1  2  1  0
  2  3  2  0
  3  4  1  0
  4  5  2  0
  5  6  1  0
  6  7  2  3
  7  8  1  0
  8  9  2  0
  8 10  2  0
  8 11  1  0
 11 12  2  0
 12 13  1  0
 13 14  2  0
 14 15  1  0
 15 16  1  0
 16 17  2  0
 16 18  2  0
 16 19  1  0
 19 20  2  0
 20 21  1  0
 21 22  2  0
 22 23  1  0
 23 24  2  0
 14 25  1  0
 25 26  2  0
  6 27  1  0
 27  2  1  0
 26 11  1  0
 24 19  1  0
  1 28  1  0
  1 29  1  0
  1 30  1  0
  3 31  1  0
  4 32  1  0
  5 33  1  0
 12 34  1  0
 13 35  1  0
 15 36  1  0
 20 37  1  0
 21 38  1  0
 22 39  1  0
 23 40  1  0
 24 41  1  0
 25 42  1  0
 26 43  1  0
M  CHG  1  27  -1
M  END
>  <UniqueID>  (35) 
30

>  <SMILES>  (35) 
Cc1cccc(=NS(=O)(=O)c2ccc(NS(=O)(=O)c3ccccc3)cc2)[n-]1

>  <Energy>  (35) 
52.195855948548825

>  <Genealogy>  (35) 
Cc1cccc(=NS(=O)(=O)c2ccc(NS(=O)(=O)c3ccccc3)cc2)[n-]1 (protonated)
Cc1cccc(=NS(=O)(=O)c2ccc(NS(=O)(=O)c3ccccc3)cc2)[n-]1 (3D coordinates assigned)
Cc1cccc(=NS(=O)(=O)c2ccc(NS(=O)(=O)c3ccccc3)cc2)[n-]1 (optimized conformer: 52.195855948548825 kcal/mol)

>  <smiles>  (35) 
Cc1cccc(=NS(=O)(=O)c2ccc(NS(=O)(=O)c3ccccc3)cc2)[nH]1

>  <score_type>  (35) 
oracle

>  <origin>  (35) 
adg

>  <m_score__min__energy>  (35) 
-10.82

>  <m_primary>  (35) 
energy

$$$$
35:0
     RDKit          3D

 54 57  0  0  1  0  0  0  0  0999 V2000
   67.0740   32.9420   50.1860 C   0  0  0  0  0  0  0  0  0  0  0  0
   65.8260   32.5620   50.1160 C   0  0  0  0  0  0  0  0  0  0  0  0
   64.6210   33.2750   49.9230 C   0  0  0  0  0  0  0  0  0  0  0  0
   64.2330   33.9950   50.9650 O   0  0  0  0  0  0  0  0  0  0  0  0
   63.7240   33.3960   48.8610 N   0  0  0  0  0  0  0  0  0  0  0  0
   62.5390   34.2470   49.1140 C   0  0  0  0  0  0  0  0  0  0  0  0
   61.2760   33.4950   48.7880 C   0  0  0  0  0  0  0  0  0  0  0  0
   61.3250   32.7750   47.4550 C   0  0  0  0  0  0  0  0  0  0  0  0
   60.2340   31.9580   47.3160 O   0  0  0  0  0  0  0  0  0  0  0  0
   59.2810   31.7990   46.3770 C   0  0  0  0  0  0  0  0  0  0  0  0
   59.1080   30.5060   45.8520 C   0  0  0  0  0  0  0  0  0  0  0  0
   58.1600   30.2430   44.8860 C   0  0  0  0  0  0  0  0  0  0  0  0
   58.0030   28.9620   44.3810 C   0  0  0  0  0  0  0  0  0  0  0  0
   58.7540   27.9840   44.8120 N   0  0  0  0  0  0  0  0  0  0  0  0
   58.1900   26.7190   45.1590 C   0  0  0  0  0  0  0  0  0  0  0  0
   58.0940   26.4460   46.5180 C   0  0  0  0  0  0  0  0  0  0  0  0
   57.5640   25.2520   46.9610 C   0  0  0  0  0  0  0  0  0  0  0  0
   57.1220   24.3150   46.0500 C   0  0  0  0  0  0  0  0  0  0  0  0
   57.2280   24.6110   44.6920 C   0  0  0  0  0  0  0  0  0  0  0  0
   56.6660   23.4160   43.5170 Cl  0  0  0  0  0  0  0  0  0  0  0  0
   57.7590   25.8050   44.2470 C   0  0  0  0  0  0  0  0  0  0  0  0
   57.0610   28.7170   43.4270 N   0  0  0  0  0  0  0  0  0  0  0  0
   56.2650   29.7050   42.9560 C   0  0  0  0  0  0  0  0  0  0  0  0
   56.4170   30.9530   43.4490 N   0  0  0  0  0  0  0  0  0  0  0  0
   57.3340   31.2270   44.3870 C   0  0  0  0  0  0  0  0  0  0  0  0
   57.4900   32.5000   44.8910 C   0  0  0  0  0  0  0  0  0  0  0  0
   58.4430   32.7560   45.8580 C   0  0  0  0  0  0  0  0  0  0  0  0
   58.5390   34.0570   46.3140 O   0  0  0  0  0  0  0  0  0  0  0  0
   59.3570   34.9780   45.6310 C   0  0  0  0  0  0  0  0  0  0  0  0
   62.5650   31.8580   47.4970 C   0  0  0  0  0  0  0  0  0  0  0  0
   63.7560   32.8340   47.5440 C   0  0  0  0  0  0  0  0  0  0  0  0
   67.8676   32.1971   50.3451 H   0  0  0  0  0  0  0  0  0  0  0  0
   67.3311   34.0068   50.0859 H   0  0  0  0  0  0  0  0  0  0  0  0
   65.6859   31.4769   50.2292 H   0  0  0  0  0  0  0  0  0  0  0  0
   62.5230   34.5409   50.1739 H   0  0  0  0  0  0  0  0  0  0  0  0
   62.5978   35.1410   48.4758 H   0  0  0  0  0  0  0  0  0  0  0  0
   61.1004   32.7509   49.5789 H   0  0  0  0  0  0  0  0  0  0  0  0
   60.4664   34.2369   48.7242 H   0  0  0  0  0  0  0  0  0  0  0  0
   61.3504   33.5056   46.6331 H   0  0  0  0  0  0  0  0  0  0  0  0
   59.7428   29.6865   46.2200 H   0  0  0  0  0  0  0  0  0  0  0  0
   58.4444   27.1900   47.2485 H   0  0  0  0  0  0  0  0  0  0  0  0
   57.4939   25.0472   48.0395 H   0  0  0  0  0  0  0  0  0  0  0  0
   56.6965   23.3582   46.3869 H   0  0  0  0  0  0  0  0  0  0  0  0
   57.8328   26.0150   43.1698 H   0  0  0  0  0  0  0  0  0  0  0  0
   56.9720   27.7250   43.0650 H   0  0  0  0  0  0  0  0  0  0  0  0
   55.5082   29.4953   42.1858 H   0  0  0  0  0  0  0  0  0  0  0  0
   56.8524   33.3167   44.5215 H   0  0  0  0  0  0  0  0  0  0  0  0
   59.9039   35.5938   46.3602 H   0  0  0  0  0  0  0  0  0  0  0  0
   60.0745   34.4333   44.9997 H   0  0  0  0  0  0  0  0  0  0  0  0
   58.7314   35.6262   44.9997 H   0  0  0  0  0  0  0  0  0  0  0  0
   62.5481   31.2199   48.3928 H   0  0  0  0  0  0  0  0  0  0  0  0
   62.6135   31.1756   46.6356 H   0  0  0  0  0  0  0  0  0  0  0  0
   64.7017   32.2981   47.3754 H   0  0  0  0  0  0  0  0  0  0  0  0
   63.6878   33.6064   46.7638 H   0  0  0  0  0  0  0  0  0  0  0  0
  1  2  2  0
  2  3  1  0
  3  4  2  0
  3  5  1  0
  5  6  1  0
  6  7  1  0
  7  8  1  0
  8  9  1  0
  9 10  1  0
 10 11  2  0
 11 12  1  0
 12 13  1  0
 13 14  2  0
 14 15  1  0
 15 16  2  0
 16 17  1  0
 17 18  2  0
 18 19  1  0
 19 20  1  0
 19 21  2  0
 13 22  1  0
 22 23  1  0
 23 24  2  0
 24 25  1  0
 25 26  1  0
 26 27  2  0
 27 28  1  0
 28 29  1  0
  8 30  1  0
 30 31  1  0
 31  5  1  0
 27 10  1  0
 25 12  2  0
 21 15  1  0
  1 32  1  0
  1 33  1  0
  2 34  1  0
  6 35  1  0
  6 36  1  0
  7 37  1  0
  7 38  1  0
  8 39  1  0
 11 40  1  0
 16 41  1  0
 17 42  1  0
 18 43  1  0
 21 44  1  0
 22 45  1  0
 23 46  1  0
 26 47  1  0
 29 48  1  0
 29 49  1  0
 29 50  1  0
 30 51  1  0
 30 52  1  0
 31 53  1  0
 31 54  1  0
M  END
>  <smiles>  (36) 
C=CC(=O)N1CCC(Oc2cc3c(=Nc4cccc(Cl)c4)[nH]cnc3cc2OC)CC1

>  <score_type>  (36) 
oracle

>  <origin>  (36) 
adg

>  <m_score__min__energy>  (36) 
-8.8699999999999992

>  <m_primary>  (36) 
energy

$$$$
36:0
     RDKit          3D

 60 63  0  0  1  0  0  0  0  0999 V2000
   57.0140   28.8680   43.1910 N   0  0  0  0  0  0  0  0  0  0  0  0
   56.5850   29.8200   44.1570 C   0  0  0  0  0  0  0  0  0  0  0  0
   55.4540   29.5620   44.7050 O   0  0  0  0  0  0  0  0  0  0  0  0
   57.3360   31.0020   44.5220 C   0  0  0  0  0  0  0  0  0  0  0  0
   57.4440   32.1380   43.7550 C   0  0  0  0  0  0  0  0  0  0  0  0
   58.1710   33.2490   44.1520 C   0  0  0  0  0  0  0  0  0  0  0  0
   58.8170   33.2350   45.3560 C   0  0  0  0  0  0  0  0  0  0  0  0
   59.5890   34.2700   45.9060 N   0  0  0  0  0  0  0  0  0  0  0  0
   60.5350   34.1030   46.7610 C   0  0  0  0  0  0  0  0  0  0  0  0
   61.7780   33.8820   46.3230 N   0  0  0  0  0  0  0  0  0  0  0  0
   62.7250   33.6690   47.2630 C   0  0  0  0  0  0  0  0  0  0  0  0
   62.4540   33.6740   48.6170 C   0  0  0  0  0  0  0  0  0  0  0  0
   63.5410   33.3810   49.5680 C   0  0  0  0  0  0  0  0  0  0  0  0
   63.3810   33.8050   50.7420 O   0  0  0  0  0  0  0  0  0  0  0  0
   64.7040   32.6600   49.1960 N   0  0  0  0  0  0  0  0  0  0  0  0
   65.7620   32.3490   50.1020 C   0  0  0  0  0  0  0  0  0  0  0  0
   66.9050   33.0890   50.2420 C   0  0  0  0  0  0  0  0  0  0  0  0
   67.8700   32.6530   51.1590 C   0  0  0  0  0  0  0  0  0  0  0  0
   68.9950   33.4060   51.2800 F   0  0  0  0  0  0  0  0  0  0  0  0
   67.6960   31.5110   51.9110 C   0  0  0  0  0  0  0  0  0  0  0  0
   66.5300   30.7600   51.7630 C   0  0  0  0  0  0  0  0  0  0  0  0
   66.3710   29.6480   52.4990 F   0  0  0  0  0  0  0  0  0  0  0  0
   65.5910   31.2060   50.8580 C   0  0  0  0  0  0  0  0  0  0  0  0
   61.1560   33.9080   49.0450 C   0  0  0  0  0  0  0  0  0  0  0  0
   60.8500   33.9320   50.2920 N   0  0  0  0  0  0  0  0  0  0  0  0
   59.5430   33.8520   50.7500 C   0  0  0  0  0  0  0  0  0  0  0  0
   59.2890   32.6970   51.7160 C   0  0  0  0  0  0  0  0  0  0  0  0
   57.8680   32.5590   52.1420 C   0  0  0  0  0  0  0  0  0  0  0  0
   57.4750   31.0760   52.2560 C   0  0  0  0  0  0  0  0  0  0  0  0
   57.5560   30.3990   50.9900 N   0  0  0  0  0  0  0  0  0  0  0  0
   58.5440   30.9210   50.1050 C   0  0  0  0  0  0  0  0  0  0  0  0
   59.6890   31.4340   50.9590 C   0  0  0  0  0  0  0  0  0  0  0  0
   60.2520   34.1140   48.0570 N   0  0  0  0  0  0  0  0  0  0  0  0
   58.7050   32.0770   46.1330 C   0  0  0  0  0  0  0  0  0  0  0  0
   57.9870   30.9840   45.7390 C   0  0  0  0  0  0  0  0  0  0  0  0
   57.9180   29.8870   46.5420 F   0  0  0  0  0  0  0  0  0  0  0  0
   56.9140   27.8360   43.4020 H   0  0  0  0  0  0  0  0  0  0  0  0
   57.4190   29.1730   42.2820 H   0  0  0  0  0  0  0  0  0  0  0  0
   56.9303   32.1662   42.7827 H   0  0  0  0  0  0  0  0  0  0  0  0
   58.2276   34.1353   43.5029 H   0  0  0  0  0  0  0  0  0  0  0  0
   61.9700   33.8880   45.3030 H   0  0  0  0  0  0  0  0  0  0  0  0
   63.7584   33.4832   46.9349 H   0  0  0  0  0  0  0  0  0  0  0  0
   64.8410   32.3130   48.2120 H   0  0  0  0  0  0  0  0  0  0  0  0
   67.0617   34.0025   49.6497 H   0  0  0  0  0  0  0  0  0  0  0  0
   68.4719   31.1939   52.6234 H   0  0  0  0  0  0  0  0  0  0  0  0
   64.6648   30.6261   50.7324 H   0  0  0  0  0  0  0  0  0  0  0  0
   59.2996   34.7929   51.2653 H   0  0  0  0  0  0  0  0  0  0  0  0
   58.9092   33.6730   49.8689 H   0  0  0  0  0  0  0  0  0  0  0  0
   59.8631   32.8762   52.6371 H   0  0  0  0  0  0  0  0  0  0  0  0
   57.7359   33.0436   53.1206 H   0  0  0  0  0  0  0  0  0  0  0  0
   57.2253   33.0378   51.3886 H   0  0  0  0  0  0  0  0  0  0  0  0
   58.1538   30.5823   52.9670 H   0  0  0  0  0  0  0  0  0  0  0  0
   56.4320   31.0263   52.6021 H   0  0  0  0  0  0  0  0  0  0  0  0
   57.7810   29.3940   51.1790 H   0  0  0  0  0  0  0  0  0  0  0  0
   58.9024   30.1286   49.4314 H   0  0  0  0  0  0  0  0  0  0  0  0
   58.1257   31.7298   49.4878 H   0  0  0  0  0  0  0  0  0  0  0  0
   59.9731   30.6563   51.6832 H   0  0  0  0  0  0  0  0  0  0  0  0
   60.5349   31.6764   50.2989 H   0  0  0  0  0  0  0  0  0  0  0  0
   59.2640   34.2860   48.3280 H   0  0  0  0  0  0  0  0  0  0  0  0
   59.2185   32.0454   47.1053 H   0  0  0  0  0  0  0  0  0  0  0  0
  1  2  1  0
  2  3  2  0
  2  4  1  0
  4  5  2  0
  5  6  1  0
  6  7  2  0
  7  8  1  0
  8  9  2  0
  9 10  1  0
 10 11  1  0
 11 12  2  0
 12 13  1  0
 13 14  2  0
 13 15  1  0
 15 16  1  0
 16 17  2  0
 17 18  1  0
 18 19  1  0
 18 20  2  0
 20 21  1  0
 21 22  1  0
 21 23  2  0
 12 24  1  0
 24 25  2  0
 25 26  1  0
 26 27  1  0
 27 28  1  0
 28 29  1  0
 29 30  1  0
 30 31  1  0
 31 32  1  0
 24 33  1  0
  7 34  1  0
 34 35  2  0
 35 36  1  0
 35  4  1  0
 33  9  1  0
 23 16  1  0
 32 27  1  0
  1 37  1  0
  1 38  1  0
  5 39  1  0
  6 40  1  0
 10 41  1  0
 11 42  1  0
 15 43  1  0
 17 44  1  0
 20 45  1  0
 23 46  1  0
 26 47  1  0
 26 48  1  0
 27 49  1  0
 28 50  1  0
 28 51  1  0
 29 52  1  0
 29 53  1  0
 30 54  1  0
 31 55  1  0
 31 56  1  0
 32 57  1  0
 32 58  1  0
 33 59  1  0
 34 60  1  0
M  END
>  <smiles>  (37) 
NC(=O)c1ccc(N=c2[nH]cc(C(=O)Nc3cc(F)cc(F)c3)c(=NCC3CCNCC3)[nH]2)cc1F

>  <score_type>  (37) 
oracle

>  <origin>  (37) 
adg

>  <m_score__min__energy>  (37) 
-9.7599999999999998

>  <m_primary>  (37) 
energy

$$$$
37:0
     RDKit          3D

 51 53  0  0  0  0  0  0  0  0999 V2000
   55.7850   30.3950   52.6080 C   0  0  0  0  0  0  0  0  0  0  0  0
   56.9200   29.8360   51.9580 O   0  0  0  0  0  0  0  0  0  0  0  0
   58.0340   30.5770   51.5340 C   0  0  0  0  0  0  0  0  0  0  0  0
   58.9510   29.9640   50.6730 C   0  0  0  0  0  0  0  0  0  0  0  0
   60.0760   30.6590   50.2180 C   0  0  0  0  0  0  0  0  0  0  0  0
   60.2960   31.9890   50.6130 C   0  0  0  0  0  0  0  0  0  0  0  0
   61.4880   32.7400   50.1550 C   0  0  0  0  0  0  0  0  0  0  0  0
   62.6050   32.4580   50.6670 O   0  0  0  0  0  0  0  0  0  0  0  0
   61.3990   33.8040   49.1220 C   0  0  0  0  0  0  0  0  0  0  0  0
   62.2450   34.7400   49.1200 O   0  0  0  0  0  0  0  0  0  0  0  0
   60.3420   33.8100   48.0820 C   0  0  0  0  0  0  0  0  0  0  0  0
   60.6810   34.0980   46.7500 C   0  0  0  0  0  0  0  0  0  0  0  0
   59.7030   34.0920   45.7520 C   0  0  0  0  0  0  0  0  0  0  0  0
   58.3730   33.7850   46.0590 C   0  0  0  0  0  0  0  0  0  0  0  0
   57.4310   33.7980   45.0170 O   0  0  0  0  0  0  0  0  0  0  0  0
   57.5160   33.0270   43.8190 C   0  0  0  0  0  0  0  0  0  0  0  0
   57.8390   31.5990   44.1280 C   0  0  0  0  0  0  0  0  0  0  0  0
   58.5600   30.9370   43.3330 O   0  0  0  0  0  0  0  0  0  0  0  0
   57.3000   30.9960   45.3100 N   0  0  0  0  0  0  0  0  0  0  0  0
   57.7640   29.8020   45.9590 C   0  0  0  0  0  0  0  0  0  0  0  0
   58.8310   29.8150   46.8770 C   0  0  0  0  0  0  0  0  0  0  0  0
   59.2270   28.6330   47.5070 C   0  0  0  0  0  0  0  0  0  0  0  0
   58.5580   27.4350   47.2430 C   0  0  0  0  0  0  0  0  0  0  0  0
   57.4790   27.4140   46.3480 C   0  0  0  0  0  0  0  0  0  0  0  0
   56.6130   25.9080   46.0590 S   0  0  0  0  0  0  0  0  0  0  0  0
   54.9160   26.2290   45.9970 N   0  0  0  0  0  0  0  0  0  0  0  0
   57.0520   25.2950   44.7560 O   0  0  0  0  0  0  0  0  0  0  0  0
   56.9080   24.9390   47.1720 O   0  0  0  0  0  0  0  0  0  0  0  0
   57.0810   28.6010   45.7180 C   0  0  0  0  0  0  0  0  0  0  0  0
   58.0320   33.4720   47.3890 C   0  0  0  0  0  0  0  0  0  0  0  0
   59.0100   33.4780   48.3880 C   0  0  0  0  0  0  0  0  0  0  0  0
   59.3860   32.6000   51.4920 C   0  0  0  0  0  0  0  0  0  0  0  0
   58.2600   31.9050   51.9440 C   0  0  0  0  0  0  0  0  0  0  0  0
   55.9176   30.3297   53.6980 H   0  0  0  0  0  0  0  0  0  0  0  0
   55.6767   31.4495   52.3143 H   0  0  0  0  0  0  0  0  0  0  0  0
   54.8830   29.8381   52.3143 H   0  0  0  0  0  0  0  0  0  0  0  0
   58.7854   28.9253   50.3509 H   0  0  0  0  0  0  0  0  0  0  0  0
   60.7922   30.1617   49.5474 H   0  0  0  0  0  0  0  0  0  0  0  0
   61.7244   34.3301   46.4903 H   0  0  0  0  0  0  0  0  0  0  0  0
   59.9815   34.3309   44.7150 H   0  0  0  0  0  0  0  0  0  0  0  0
   56.5518   33.0727   43.2916 H   0  0  0  0  0  0  0  0  0  0  0  0
   58.3170   33.4413   43.1891 H   0  0  0  0  0  0  0  0  0  0  0  0
   59.3536   30.7572   47.0985 H   0  0  0  0  0  0  0  0  0  0  0  0
   60.0694   28.6453   48.2142 H   0  0  0  0  0  0  0  0  0  0  0  0
   58.8785   26.5066   47.7383 H   0  0  0  0  0  0  0  0  0  0  0  0
   54.7410   27.0690   46.5940 H   0  0  0  0  0  0  0  0  0  0  0  0
   56.2246   28.5906   45.0278 H   0  0  0  0  0  0  0  0  0  0  0  0
   56.9914   33.2217   47.6430 H   0  0  0  0  0  0  0  0  0  0  0  0
   58.7355   33.2210   49.4217 H   0  0  0  0  0  0  0  0  0  0  0  0
   59.5607   33.6330   51.8272 H   0  0  0  0  0  0  0  0  0  0  0  0
   57.5480   32.3976   52.6225 H   0  0  0  0  0  0  0  0  0  0  0  0
  1  2  1  0
  2  3  1  0
  3  4  2  0
  4  5  1  0
  5  6  2  0
  6  7  1  0
  7  8  2  0
  7  9  1  0
  9 10  2  0
  9 11  1  0
 11 12  2  0
 12 13  1  0
 13 14  2  0
 14 15  1  0
 15 16  1  0
 16 17  1  0
 17 18  2  0
 17 19  1  0
 19 20  1  0
 20 21  2  0
 21 22  1  0
 22 23  2  0
 23 24  1  0
 24 25  1  0
 25 26  1  0
 25 27  2  0
 25 28  2  0
 24 29  2  0
 14 30  1  0
 30 31  2  0
  6 32  1  0
 32 33  2  0
 33  3  1  0
 31 11  1  0
 29 20  1  0
  1 34  1  0
  1 35  1  0
  1 36  1  0
  4 37  1  0
  5 38  1  0
 12 39  1  0
 13 40  1  0
 16 41  1  0
 16 42  1  0
 21 43  1  0
 22 44  1  0
 23 45  1  0
 26 46  1  0
 29 47  1  0
 30 48  1  0
 31 49  1  0
 32 50  1  0
 33 51  1  0
M  CHG  2  19  -1  26  -1
M  END
>  <UniqueID>  (38) 
31

>  <SMILES>  (38) 
COc1ccc(C(=O)C(=O)c2ccc(OCC(=O)[N-]c3cccc(S([NH-])(=O)=O)c3)cc2)cc1

>  <Energy>  (38) 
64.99128475161454

>  <Genealogy>  (38) 
COc1ccc(C(=O)C(=O)c2ccc(OCC(=O)[N-]c3cccc(S([NH-])(=O)=O)c3)cc2)cc1 (protonated)
COc1ccc(C(=O)C(=O)c2ccc(OCC(=O)[N-]c3cccc(S([NH-])(=O)=O)c3)cc2)cc1 (3D coordinates assigned)
COc1ccc(C(=O)C(=O)c2ccc(OCC(=O)[N-]c3cccc(S([NH-])(=O)=O)c3)cc2)cc1 (optimized conformer: 64.99128475161454 kcal/mol)

>  <smiles>  (38) 
COc1ccc(C(=O)C(=O)c2ccc(OCC(=O)Nc3cccc(S(N)(=O)=O)c3)cc2)cc1

>  <score_type>  (38) 
oracle

>  <origin>  (38) 
adg

>  <m_score__min__energy>  (38) 
-13.33

>  <m_primary>  (38) 
energy

$$$$
38:0
     RDKit          3D

 52 53  0  0  0  0  0  0  0  0999 V2000
   59.2280   33.9550   47.9960 C   0  0  0  0  0  0  0  0  0  0  0  0
   59.2520   33.1110   46.7860 N   0  0  0  0  0  0  0  0  0  0  0  0
   59.3660   33.8820   45.5310 C   0  0  0  0  0  0  0  0  0  0  0  0
   57.9800   34.1390   44.9220 C   0  0  0  0  0  0  0  0  0  0  0  0
   57.4250   32.8680   44.2550 C   0  0  0  0  0  0  0  0  0  0  0  0
   57.0310   31.8430   45.2300 N   0  0  0  0  0  0  0  0  0  0  0  0
   56.8070   30.2790   44.4930 S   0  0  0  0  0  0  0  0  0  0  0  0
   56.9020   30.3970   42.9970 O   0  0  0  0  0  0  0  0  0  0  0  0
   55.4600   29.7210   44.8630 O   0  0  0  0  0  0  0  0  0  0  0  0
   58.0700   29.1920   45.0590 C   0  0  0  0  0  0  0  0  0  0  0  0
   59.4220   29.4780   44.8130 C   0  0  0  0  0  0  0  0  0  0  0  0
   60.4180   28.6130   45.2720 C   0  0  0  0  0  0  0  0  0  0  0  0
   60.0720   27.4600   45.9830 C   0  0  0  0  0  0  0  0  0  0  0  0
   58.7270   27.1720   46.2370 C   0  0  0  0  0  0  0  0  0  0  0  0
   58.2930   25.7270   47.1330 Cl  0  0  0  0  0  0  0  0  0  0  0  0
   57.7280   28.0380   45.7790 C   0  0  0  0  0  0  0  0  0  0  0  0
   60.1610   31.9410   46.8650 C   0  0  0  0  0  0  0  0  0  0  0  0
   61.6360   32.2410   47.2670 C   0  0  1  0  0  0  0  0  0  0  0  0
   62.1590   33.5670   46.6890 C   0  0  0  0  0  0  0  0  0  0  0  0
   63.6160   33.8450   47.1050 C   0  0  0  0  0  0  0  0  0  0  0  0
   64.0580   33.0340   48.3350 C   0  0  0  0  0  0  0  0  0  0  0  0
   62.9850   32.9070   49.3400 N   0  0  0  0  0  0  0  0  0  0  0  0
   62.7070   34.1890   50.0120 C   0  0  0  0  0  0  0  0  0  0  0  0
   61.7500   32.2650   48.8170 C   0  0  0  0  0  0  0  0  0  0  0  0
   59.2462   33.3146   48.8902 H   0  0  0  0  0  0  0  0  0  0  0  0
   60.1077   34.6153   48.0000 H   0  0  0  0  0  0  0  0  0  0  0  0
   58.3122   34.5643   48.0000 H   0  0  0  0  0  0  0  0  0  0  0  0
   59.8514   34.8461   45.7427 H   0  0  0  0  0  0  0  0  0  0  0  0
   59.9647   33.3017   44.8135 H   0  0  0  0  0  0  0  0  0  0  0  0
   57.2909   34.4574   45.7181 H   0  0  0  0  0  0  0  0  0  0  0  0
   58.0741   34.9233   44.1565 H   0  0  0  0  0  0  0  0  0  0  0  0
   56.5439   33.1410   43.6557 H   0  0  0  0  0  0  0  0  0  0  0  0
   58.2252   32.4433   43.6311 H   0  0  0  0  0  0  0  0  0  0  0  0
   57.7710   31.7570   45.9640 H   0  0  0  0  0  0  0  0  0  0  0  0
   59.6980   30.3861   44.2570 H   0  0  0  0  0  0  0  0  0  0  0  0
   61.4761   28.8393   45.0738 H   0  0  0  0  0  0  0  0  0  0  0  0
   60.8576   26.7792   46.3427 H   0  0  0  0  0  0  0  0  0  0  0  0
   56.6710   27.8130   45.9843 H   0  0  0  0  0  0  0  0  0  0  0  0
   59.7462   31.2434   47.6075 H   0  0  0  0  0  0  0  0  0  0  0  0
   60.2110   31.5379   45.8428 H   0  0  0  0  0  0  0  0  0  0  0  0
   62.2594   31.4404   46.8423 H   0  0  0  0  0  0  0  0  0  0  0  0
   62.1060   33.5210   45.5912 H   0  0  0  0  0  0  0  0  0  0  0  0
   61.5324   34.3799   47.0847 H   0  0  0  0  0  0  0  0  0  0  0  0
   64.2753   33.5900   46.2622 H   0  0  0  0  0  0  0  0  0  0  0  0
   63.6829   34.9097   47.3731 H   0  0  0  0  0  0  0  0  0  0  0  0
   64.3551   32.0272   48.0062 H   0  0  0  0  0  0  0  0  0  0  0  0
   64.8967   33.5682   48.8054 H   0  0  0  0  0  0  0  0  0  0  0  0
   62.7380   34.0458   51.1022 H   0  0  0  0  0  0  0  0  0  0  0  0
   63.4655   34.9293   49.7177 H   0  0  0  0  0  0  0  0  0  0  0  0
   61.7100   34.5486   49.7177 H   0  0  0  0  0  0  0  0  0  0  0  0
   61.7245   31.2264   49.1784 H   0  0  0  0  0  0  0  0  0  0  0  0
   60.9072   32.8711   49.1808 H   0  0  0  0  0  0  0  0  0  0  0  0
  1  2  1  0
  2  3  1  0
  3  4  1  0
  4  5  1  0
  5  6  1  0
  6  7  1  0
  7  8  2  0
  7  9  2  0
  7 10  1  0
 10 11  2  0
 11 12  1  0
 12 13  2  0
 13 14  1  0
 14 15  1  0
 14 16  2  0
  2 17  1  0
 17 18  1  0
 18 19  1  0
 19 20  1  0
 20 21  1  0
 21 22  1  0
 22 23  1  0
 22 24  1  0
 16 10  1  0
 24 18  1  0
  1 25  1  0
  1 26  1  0
  1 27  1  0
  3 28  1  0
  3 29  1  0
  4 30  1  0
  4 31  1  0
  5 32  1  0
  5 33  1  0
  6 34  1  0
 11 35  1  0
 12 36  1  0
 13 37  1  0
 16 38  1  0
 17 39  1  0
 17 40  1  0
 18 41  1  6
 19 42  1  0
 19 43  1  0
 20 44  1  0
 20 45  1  0
 21 46  1  0
 21 47  1  0
 23 48  1  0
 23 49  1  0
 23 50  1  0
 24 51  1  0
 24 52  1  0
M  END
>  <UniqueID>  (39) 
32

>  <SMILES>  (39) 
CN(CCCNS(=O)(=O)c1cccc(Cl)c1)C[C@H]1CCCN(C)C1

>  <Energy>  (39) 
63.69075228673431

>  <Genealogy>  (39) 
CN(CCCNS(=O)(=O)c1cccc(Cl)c1)C[C@H]1CCCN(C)C1 (chirality)
CN(CCCNS(=O)(=O)c1cccc(Cl)c1)C[C@H]1CCCN(C)C1 (3D coordinates assigned)
CN(CCCNS(=O)(=O)c1cccc(Cl)c1)C[C@H]1CCCN(C)C1 (nonaromatic ring conformer: 63.69075228673431 kcal/mol)

>  <smiles>  (39) 
CN(CCCNS(=O)(=O)c1cccc(Cl)c1)CC1CCCN(C)C1

>  <score_type>  (39) 
oracle

>  <origin>  (39) 
adg

>  <m_score__min__energy>  (39) 
-8.9100000000000001

>  <m_primary>  (39) 
energy

$$$$
39:0
     RDKit          3D

 66 69  0  0  0  0  0  0  0  0999 V2000
   57.3420   21.2420   43.2840 C   0  0  0  0  0  0  0  0  0  0  0  0
   56.0920   21.8320   43.0040 O   0  0  0  0  0  0  0  0  0  0  0  0
   56.2180   23.2390   43.0600 C   0  0  0  0  0  0  0  0  0  0  0  0
   55.5740   23.7570   44.3400 C   0  0  0  0  0  0  0  0  0  0  0  0
   56.5340   23.7230   45.4360 N   0  0  0  0  0  0  0  0  0  0  0  0
   57.7560   24.4680   45.4170 C   0  0  0  0  0  0  0  0  0  0  0  0
   58.8510   23.8780   45.6260 O   0  0  0  0  0  0  0  0  0  0  0  0
   57.7380   25.9260   45.1610 C   0  0  0  0  0  0  0  0  0  0  0  0
   57.3600   26.8290   46.1720 C   0  0  0  0  0  0  0  0  0  0  0  0
   57.3560   28.2060   45.9300 C   0  0  0  0  0  0  0  0  0  0  0  0
   57.7350   28.7110   44.6740 C   0  0  0  0  0  0  0  0  0  0  0  0
   57.7810   30.1750   44.4330 C   0  0  0  0  0  0  0  0  0  0  0  0
   58.2910   31.0320   45.4260 C   0  0  0  0  0  0  0  0  0  0  0  0
   58.3850   32.4200   45.2080 C   0  0  0  0  0  0  0  0  0  0  0  0
   58.9270   33.3220   46.2560 C   0  0  0  0  0  0  0  0  0  0  0  0
   58.2320   34.2880   46.6710 O   0  0  0  0  0  0  0  0  0  0  0  0
   60.2560   33.1340   46.7700 N   0  0  0  0  0  0  0  0  0  0  0  0
   60.6400   33.3340   48.1450 C   0  0  0  0  0  0  0  0  0  0  0  0
   61.9620   33.6520   48.5140 C   0  0  0  0  0  0  0  0  0  0  0  0
   62.2850   33.8810   49.8540 C   0  0  0  0  0  0  0  0  0  0  0  0
   61.2950   33.8210   50.8370 C   0  0  0  0  0  0  0  0  0  0  0  0
   59.9700   33.5260   50.4870 C   0  0  0  0  0  0  0  0  0  0  0  0
   58.8920   33.5320   51.5400 C   0  0  0  0  0  0  0  0  0  0  0  0
   58.9560   32.2980   52.3510 N   0  0  0  0  0  0  0  0  0  0  0  0
   59.2980   31.1180   51.5320 C   0  0  0  0  0  0  0  0  0  0  0  0
   58.1230   30.6720   50.6300 C   0  0  0  0  0  0  0  0  0  0  0  0
   56.7960   30.8670   51.2460 N   0  0  0  0  0  0  0  0  0  0  0  0
   56.8630   30.9100   52.7090 C   0  0  0  0  0  0  0  0  0  0  0  0
   57.7410   32.0830   53.1850 C   0  0  0  0  0  0  0  0  0  0  0  0
   59.6530   33.2730   49.1430 C   0  0  0  0  0  0  0  0  0  0  0  0
   57.9340   32.9470   43.9850 C   0  0  0  0  0  0  0  0  0  0  0  0
   57.4120   32.1050   43.0000 C   0  0  0  0  0  0  0  0  0  0  0  0
   57.3340   30.7280   43.2180 C   0  0  0  0  0  0  0  0  0  0  0  0
   56.7890   29.9410   42.2540 F   0  0  0  0  0  0  0  0  0  0  0  0
   58.1130   27.8090   43.6640 C   0  0  0  0  0  0  0  0  0  0  0  0
   58.1110   26.4320   43.9030 C   0  0  0  0  0  0  0  0  0  0  0  0
   57.4808   21.1765   44.3732 H   0  0  0  0  0  0  0  0  0  0  0  0
   57.3767   20.2324   42.8486 H   0  0  0  0  0  0  0  0  0  0  0  0
   58.1435   21.8569   42.8486 H   0  0  0  0  0  0  0  0  0  0  0  0
   57.2835   23.5123   43.0492 H   0  0  0  0  0  0  0  0  0  0  0  0
   55.7154   23.6867   42.1900 H   0  0  0  0  0  0  0  0  0  0  0  0
   55.2372   24.7925   44.1840 H   0  0  0  0  0  0  0  0  0  0  0  0
   54.7161   23.1173   44.5944 H   0  0  0  0  0  0  0  0  0  0  0  0
   57.0652   26.4482   47.1610 H   0  0  0  0  0  0  0  0  0  0  0  0
   57.0540   28.8996   46.7286 H   0  0  0  0  0  0  0  0  0  0  0  0
   58.6213   30.6111   46.3872 H   0  0  0  0  0  0  0  0  0  0  0  0
   60.9960   32.8350   46.0960 H   0  0  0  0  0  0  0  0  0  0  0  0
   62.7439   33.7203   47.7433 H   0  0  0  0  0  0  0  0  0  0  0  0
   63.3235   34.1095   50.1358 H   0  0  0  0  0  0  0  0  0  0  0  0
   61.5557   34.0058   51.8895 H   0  0  0  0  0  0  0  0  0  0  0  0
   59.0310   34.4041   52.1958 H   0  0  0  0  0  0  0  0  0  0  0  0
   57.9108   33.5830   51.0454 H   0  0  0  0  0  0  0  0  0  0  0  0
   60.1592   31.3668   50.8945 H   0  0  0  0  0  0  0  0  0  0  0  0
   59.5322   30.2888   52.2158 H   0  0  0  0  0  0  0  0  0  0  0  0
   58.1615   31.2529   49.6967 H   0  0  0  0  0  0  0  0  0  0  0  0
   58.2420   29.5922   50.4570 H   0  0  0  0  0  0  0  0  0  0  0  0
   56.3860   31.7690   50.9060 H   0  0  0  0  0  0  0  0  0  0  0  0
   55.8472   31.0336   53.1125 H   0  0  0  0  0  0  0  0  0  0  0  0
   57.3074   29.9701   53.0682 H   0  0  0  0  0  0  0  0  0  0  0  0
   57.1363   33.0015   53.1610 H   0  0  0  0  0  0  0  0  0  0  0  0
   58.0870   31.8348   54.1992 H   0  0  0  0  0  0  0  0  0  0  0  0
   58.6177   33.0236   48.8675 H   0  0  0  0  0  0  0  0  0  0  0  0
   57.9926   34.0302   43.8024 H   0  0  0  0  0  0  0  0  0  0  0  0
   57.0606   32.5290   42.0478 H   0  0  0  0  0  0  0  0  0  0  0  0
   58.4130   28.1905   42.6768 H   0  0  0  0  0  0  0  0  0  0  0  0
   58.4035   25.7385   43.1008 H   0  0  0  0  0  0  0  0  0  0  0  0
  1  2  1  0
  2  3  1  0
  3  4  1  0
  4  5  1  0
  5  6  1  0
  6  7  2  0
  6  8  1  0
  8  9  2  0
  9 10  1  0
 10 11  2  0
 11 12  1  0
 12 13  2  0
 13 14  1  0
 14 15  1  0
 15 16  2  0
 15 17  1  0
 17 18  1  0
 18 19  2  0
 19 20  1  0
 20 21  2  0
 21 22  1  0
 22 23  1  0
 23 24  1  0
 24 25  1  0
 25 26  1  0
 26 27  1  0
 27 28  1  0
 28 29  1  0
 22 30  2  0
 14 31  2  0
 31 32  1  0
 32 33  2  0
 33 34  1  0
 11 35  1  0
 35 36  2  0
 36  8  1  0
 33 12  1  0
 30 18  1  0
 29 24  1  0
  1 37  1  0
  1 38  1  0
  1 39  1  0
  3 40  1  0
  3 41  1  0
  4 42  1  0
  4 43  1  0
  9 44  1  0
 10 45  1  0
 13 46  1  0
 17 47  1  0
 19 48  1  0
 20 49  1  0
 21 50  1  0
 23 51  1  0
 23 52  1  0
 25 53  1  0
 25 54  1  0
 26 55  1  0
 26 56  1  0
 27 57  1  0
 28 58  1  0
 28 59  1  0
 29 60  1  0
 29 61  1  0
 30 62  1  0
 31 63  1  0
 32 64  1  0
 35 65  1  0
 36 66  1  0
M  CHG  1   5  -1
M  END
>  <UniqueID>  (40) 
33

>  <SMILES>  (40) 
COCC[N-]C(=O)c1ccc(-c2cc(C(=O)Nc3cccc(CN4CCNCC4)c3)ccc2F)cc1

>  <Energy>  (40) 
88.95445971207683

>  <Genealogy>  (40) 
COCC[N-]C(=O)c1ccc(-c2cc(C(=O)Nc3cccc(CN4CCNCC4)c3)ccc2F)cc1 (protonated)
COCC[N-]C(=O)c1ccc(-c2cc(C(=O)Nc3cccc(CN4CCNCC4)c3)ccc2F)cc1 (3D coordinates assigned)
COCC[N-]C(=O)c1ccc(-c2cc(C(=O)Nc3cccc(CN4CCNCC4)c3)ccc2F)cc1 (nonaromatic ring conformer: 88.95445971207683 kcal/mol)

>  <smiles>  (40) 
COCCNC(=O)c1ccc(-c2cc(C(=O)Nc3cccc(CN4CCNCC4)c3)ccc2F)cc1

>  <score_type>  (40) 
oracle

>  <origin>  (40) 
adg

>  <m_score__min__energy>  (40) 
-11.529999999999999

>  <m_primary>  (40) 
energy

$$$$
40:0
     RDKit          3D

 46 47  0  0  0  0  0  0  0  0999 V2000
   56.6010   24.7790   44.5950 C   0  0  0  0  0  0  0  0  0  0  0  0
   56.2050   25.5010   46.1730 S   0  0  0  0  0  0  0  0  0  0  0  0
   55.2140   26.6180   46.0030 O   0  0  0  0  0  0  0  0  0  0  0  0
   55.5900   24.4440   47.0440 O   0  0  0  0  0  0  0  0  0  0  0  0
   57.6470   26.0840   46.9410 N   0  0  0  0  0  0  0  0  0  0  0  0
   58.2020   27.4000   46.8210 C   0  0  0  0  0  0  0  0  0  0  0  0
   57.4070   28.3780   46.7770 O   0  0  0  0  0  0  0  0  0  0  0  0
   59.6910   27.6500   46.6850 C   0  0  2  0  0  0  0  0  0  0  0  0
   60.2080   28.5120   47.8560 C   0  0  0  0  0  0  0  0  0  0  0  0
   60.9140   30.0880   47.2580 S   0  0  0  0  0  0  0  0  0  0  0  0
   59.6720   31.0900   48.0780 C   0  0  0  0  0  0  0  0  0  0  0  0
   58.6820   30.5540   48.5500 O   0  0  0  0  0  0  0  0  0  0  0  0
   59.8450   32.5760   48.1800 C   0  0  0  0  0  0  0  0  0  0  0  0
   59.1460   33.2620   47.0390 C   0  0  0  0  0  0  0  0  0  0  0  0
   57.7540   33.1520   46.8880 C   0  0  0  0  0  0  0  0  0  0  0  0
   57.1110   33.7640   45.8070 C   0  0  0  0  0  0  0  0  0  0  0  0
   57.8550   34.4800   44.8650 C   0  0  0  0  0  0  0  0  0  0  0  0
   59.2410   34.5840   45.0010 C   0  0  0  0  0  0  0  0  0  0  0  0
   59.8880   33.9730   46.0810 C   0  0  0  0  0  0  0  0  0  0  0  0
   60.0330   28.2340   45.2910 C   0  0  0  0  0  0  0  0  0  0  0  0
   58.8910   28.9730   44.6330 C   0  0  0  0  0  0  0  0  0  0  0  0
   58.7230   30.3520   44.8420 C   0  0  0  0  0  0  0  0  0  0  0  0
   57.6720   31.0370   44.2230 C   0  0  0  0  0  0  0  0  0  0  0  0
   56.7800   30.3510   43.3950 C   0  0  0  0  0  0  0  0  0  0  0  0
   56.9350   28.9780   43.1870 C   0  0  0  0  0  0  0  0  0  0  0  0
   57.9840   28.2890   43.8030 C   0  0  0  0  0  0  0  0  0  0  0  0
   57.1247   23.8241   44.7497 H   0  0  0  0  0  0  0  0  0  0  0  0
   55.6740   24.6014   44.0300 H   0  0  0  0  0  0  0  0  0  0  0  0
   57.2490   25.4652   44.0300 H   0  0  0  0  0  0  0  0  0  0  0  0
   60.2228   26.6892   46.7487 H   0  0  0  0  0  0  0  0  0  0  0  0
   59.3723   28.7293   48.5374 H   0  0  0  0  0  0  0  0  0  0  0  0
   60.9989   27.9523   48.3768 H   0  0  0  0  0  0  0  0  0  0  0  0
   59.4176   32.9267   49.1310 H   0  0  0  0  0  0  0  0  0  0  0  0
   60.9179   32.8152   48.1383 H   0  0  0  0  0  0  0  0  0  0  0  0
   57.1668   32.5820   47.6231 H   0  0  0  0  0  0  0  0  0  0  0  0
   56.0195   33.6818   45.6982 H   0  0  0  0  0  0  0  0  0  0  0  0
   57.3484   34.9620   44.0158 H   0  0  0  0  0  0  0  0  0  0  0  0
   59.8250   35.1470   44.2581 H   0  0  0  0  0  0  0  0  0  0  0  0
   60.9808   34.0496   46.1802 H   0  0  0  0  0  0  0  0  0  0  0  0
   60.8751   28.9323   45.4064 H   0  0  0  0  0  0  0  0  0  0  0  0
   60.2741   27.3803   44.6406 H   0  0  0  0  0  0  0  0  0  0  0  0
   59.4211   30.8957   45.4954 H   0  0  0  0  0  0  0  0  0  0  0  0
   57.5477   32.1174   44.3884 H   0  0  0  0  0  0  0  0  0  0  0  0
   55.9557   30.8917   42.9069 H   0  0  0  0  0  0  0  0  0  0  0  0
   56.2303   28.4382   42.5373 H   0  0  0  0  0  0  0  0  0  0  0  0
   58.1007   27.2077   43.6381 H   0  0  0  0  0  0  0  0  0  0  0  0
  1  2  1  0
  2  3  2  0
  2  4  2  0
  2  5  1  0
  5  6  1  0
  6  7  2  0
  6  8  1  0
  8  9  1  0
  9 10  1  0
 10 11  1  0
 11 12  2  0
 11 13  1  0
 13 14  1  0
 14 15  2  0
 15 16  1  0
 16 17  2  0
 17 18  1  0
 18 19  2  0
  8 20  1  0
 20 21  1  0
 21 22  2  0
 22 23  1  0
 23 24  2  0
 24 25  1  0
 25 26  2  0
 19 14  1  0
 26 21  1  0
  1 27  1  0
  1 28  1  0
  1 29  1  0
  8 30  1  6
  9 31  1  0
  9 32  1  0
 13 33  1  0
 13 34  1  0
 15 35  1  0
 16 36  1  0
 17 37  1  0
 18 38  1  0
 19 39  1  0
 20 40  1  0
 20 41  1  0
 22 42  1  0
 23 43  1  0
 24 44  1  0
 25 45  1  0
 26 46  1  0
M  CHG  1   5  -1
M  END
>  <UniqueID>  (41) 
34

>  <SMILES>  (41) 
CS(=O)(=O)[N-]C(=O)[C@H](CSC(=O)Cc1ccccc1)Cc1ccccc1

>  <Energy>  (41) 
36.259825154856614

>  <Genealogy>  (41) 
CS(=O)(=O)[N-]C(=O)C(CSC(=O)Cc1ccccc1)Cc1ccccc1 (protonated)
CS(=O)(=O)[N-]C(=O)[C@H](CSC(=O)Cc1ccccc1)Cc1ccccc1 (chirality)
CS(=O)(=O)[N-]C(=O)[C@H](CSC(=O)Cc1ccccc1)Cc1ccccc1 (3D coordinates assigned)
CS(=O)(=O)[N-]C(=O)[C@H](CSC(=O)Cc1ccccc1)Cc1ccccc1 (optimized conformer: 36.259825154856614 kcal/mol)

>  <smiles>  (41) 
CS(=O)(=O)NC(=O)C(CSC(=O)Cc1ccccc1)Cc1ccccc1

>  <score_type>  (41) 
oracle

>  <origin>  (41) 
adg

>  <m_score__min__energy>  (41) 
-11.09

>  <m_primary>  (41) 
energy

$$$$
41:0
     RDKit          3D

 44 46  0  0  0  0  0  0  0  0999 V2000
   55.1410   29.7180   43.6320 C   0  0  0  0  0  0  0  0  0  0  0  0
   55.5860   29.1700   44.8670 O   0  0  0  0  0  0  0  0  0  0  0  0
   56.9180   29.1750   45.3110 C   0  0  0  0  0  0  0  0  0  0  0  0
   57.6310   27.9790   45.5240 C   0  0  0  0  0  0  0  0  0  0  0  0
   58.9510   28.0100   45.9970 C   0  0  0  0  0  0  0  0  0  0  0  0
   59.7410   26.7320   46.1070 C   0  0  0  0  0  0  0  0  0  0  0  0
   58.9010   25.6520   46.6300 N   0  0  0  0  0  0  0  0  0  0  0  0
   58.6300   24.5430   46.0010 C   0  0  0  0  0  0  0  0  0  0  0  0
   59.6220   23.6550   45.7030 N   0  0  0  0  0  0  0  0  0  0  0  0
   59.3800   22.4960   45.0340 C   0  0  0  0  0  0  0  0  0  0  0  0
   58.0820   22.1800   44.6340 C   0  0  0  0  0  0  0  0  0  0  0  0
   57.0430   23.0630   44.9270 C   0  0  0  0  0  0  0  0  0  0  0  0
   57.3070   24.2550   45.6130 C   0  0  0  0  0  0  0  0  0  0  0  0
   56.2280   25.1730   45.8840 C   0  0  0  0  0  0  0  0  0  0  0  0
   55.3610   25.9100   46.0990 N   0  0  0  0  0  0  0  0  0  0  0  0
   59.5440   29.2410   46.3100 C   0  0  0  0  0  0  0  0  0  0  0  0
   58.8450   30.4300   46.0970 C   0  0  0  0  0  0  0  0  0  0  0  0
   57.5540   30.4080   45.5610 C   0  0  0  0  0  0  0  0  0  0  0  0
   56.9290   31.6560   45.2420 N   0  0  0  0  0  0  0  0  0  0  0  0
   57.8210   33.0830   44.8250 S   0  0  0  0  0  0  0  0  0  0  0  0
   58.5440   32.8610   43.5270 O   0  0  0  0  0  0  0  0  0  0  0  0
   56.8700   34.2350   44.6670 O   0  0  0  0  0  0  0  0  0  0  0  0
   58.9560   33.4650   46.1200 C   0  0  0  0  0  0  0  0  0  0  0  0
   60.2940   33.7780   45.8370 C   0  0  0  0  0  0  0  0  0  0  0  0
   61.1960   34.0110   46.8800 C   0  0  0  0  0  0  0  0  0  0  0  0
   60.7670   33.9370   48.2090 C   0  0  0  0  0  0  0  0  0  0  0  0
   61.9010   34.2240   49.5140 Cl  0  0  0  0  0  0  0  0  0  0  0  0
   59.4330   33.6320   48.4930 C   0  0  0  0  0  0  0  0  0  0  0  0
   58.5300   33.3970   47.4530 C   0  0  0  0  0  0  0  0  0  0  0  0
   54.4587   30.5582   43.8283 H   0  0  0  0  0  0  0  0  0  0  0  0
   56.0073   30.0759   43.0563 H   0  0  0  0  0  0  0  0  0  0  0  0
   54.6129   28.9436   43.0563 H   0  0  0  0  0  0  0  0  0  0  0  0
   57.1483   27.0123   45.3176 H   0  0  0  0  0  0  0  0  0  0  0  0
   60.1140   26.4504   45.1112 H   0  0  0  0  0  0  0  0  0  0  0  0
   60.5830   26.8929   46.7963 H   0  0  0  0  0  0  0  0  0  0  0  0
   60.2080   21.8079   44.8084 H   0  0  0  0  0  0  0  0  0  0  0  0
   57.8797   21.2439   44.0929 H   0  0  0  0  0  0  0  0  0  0  0  0
   56.0147   22.8228   44.6188 H   0  0  0  0  0  0  0  0  0  0  0  0
   60.5625   29.2699   46.7244 H   0  0  0  0  0  0  0  0  0  0  0  0
   59.3134   31.3918   46.3528 H   0  0  0  0  0  0  0  0  0  0  0  0
   60.6342   33.8403   44.7928 H   0  0  0  0  0  0  0  0  0  0  0  0
   62.2451   34.2530   46.6546 H   0  0  0  0  0  0  0  0  0  0  0  0
   59.0932   33.5768   49.5377 H   0  0  0  0  0  0  0  0  0  0  0  0
   57.4809   33.1578   47.6816 H   0  0  0  0  0  0  0  0  0  0  0  0
  1  2  1  0
  2  3  1  0
  3  4  2  0
  4  5  1  0
  5  6  1  0
  6  7  1  0
  7  8  2  3
  8  9  1  0
  9 10  1  0
 10 11  2  0
 11 12  1  0
 12 13  2  0
 13 14  1  0
 14 15  3  0
  5 16  2  0
 16 17  1  0
 17 18  2  0
 18 19  1  0
 19 20  1  0
 20 21  2  0
 20 22  2  0
 20 23  1  0
 23 24  2  0
 24 25  1  0
 25 26  2  0
 26 27  1  0
 26 28  1  0
 28 29  2  0
 18  3  1  0
 29 23  1  0
 13  8  1  0
  1 30  1  0
  1 31  1  0
  1 32  1  0
  4 33  1  0
  6 34  1  0
  6 35  1  0
 10 36  1  0
 11 37  1  0
 12 38  1  0
 16 39  1  0
 17 40  1  0
 24 41  1  0
 25 42  1  0
 28 43  1  0
 29 44  1  0
M  CHG  2   9  -1  19  -1
M  END
>  <UniqueID>  (42) 
35

>  <SMILES>  (42) 
COc1cc(CN=c2[n-]cccc2C#N)ccc1[N-]S(=O)(=O)c1ccc(Cl)cc1

>  <Energy>  (42) 
49.586503608816436

>  <Genealogy>  (42) 
COc1cc(CN=c2[n-]cccc2C#N)ccc1[N-]S(=O)(=O)c1ccc(Cl)cc1 (protonated)
COc1cc(CN=c2[n-]cccc2C#N)ccc1[N-]S(=O)(=O)c1ccc(Cl)cc1 (3D coordinates assigned)
COc1cc(CN=c2[n-]cccc2C#N)ccc1[N-]S(=O)(=O)c1ccc(Cl)cc1 (optimized conformer: 49.586503608816436 kcal/mol)

>  <smiles>  (42) 
COc1cc(CN=c2[nH]cccc2C#N)ccc1NS(=O)(=O)c1ccc(Cl)cc1

>  <score_type>  (42) 
oracle

>  <origin>  (42) 
adg

>  <m_score__min__energy>  (42) 
-12.32

>  <m_primary>  (42) 
energy

$$$$
42:0
     RDKit          3D

 46 48  0  0  0  0  0  0  0  0999 V2000
   60.7610   26.8970   46.6350 C   0  0  0  0  0  0  0  0  0  0  0  0
   59.6880   27.7690   46.0400 C   0  0  0  0  0  0  0  0  0  0  0  0
   59.2080   27.4690   44.7550 C   0  0  0  0  0  0  0  0  0  0  0  0
   58.2380   28.2710   44.1540 C   0  0  0  0  0  0  0  0  0  0  0  0
   57.7330   29.3870   44.8240 C   0  0  0  0  0  0  0  0  0  0  0  0
   56.4780   30.3610   44.0620 S   0  0  0  0  0  0  0  0  0  0  0  0
   56.7730   30.5820   42.6060 O   0  0  0  0  0  0  0  0  0  0  0  0
   55.1630   29.6430   44.1920 O   0  0  0  0  0  0  0  0  0  0  0  0
   56.3780   31.8920   44.8670 N   0  0  0  0  0  0  0  0  0  0  0  0
   57.5140   32.6380   45.3240 C   0  0  0  0  0  0  0  0  0  0  0  0
   58.3010   33.3990   44.4450 C   0  0  0  0  0  0  0  0  0  0  0  0
   59.4020   34.1140   44.9270 C   0  0  0  0  0  0  0  0  0  0  0  0
   59.7340   34.0640   46.2830 C   0  0  0  0  0  0  0  0  0  0  0  0
   58.9560   33.3030   47.1670 C   0  0  0  0  0  0  0  0  0  0  0  0
   59.3580   33.2190   48.8780 S   0  0  0  0  0  0  0  0  0  0  0  0
   58.2120   32.5940   49.6220 O   0  0  0  0  0  0  0  0  0  0  0  0
   59.6180   34.6020   49.4100 O   0  0  0  0  0  0  0  0  0  0  0  0
   60.7880   32.2570   49.0640 N   0  0  0  0  0  0  0  0  0  0  0  0
   61.8850   32.4390   48.3980 C   0  0  0  0  0  0  0  0  0  0  0  0
   62.5580   33.7500   48.3020 C   0  0  0  0  0  0  0  0  0  0  0  0
   63.7220   33.4870   47.3370 C   0  0  0  0  0  0  0  0  0  0  0  0
   63.7480   31.9720   47.0580 C   0  0  0  0  0  0  0  0  0  0  0  0
   62.5550   31.4260   47.6700 N   0  0  0  0  0  0  0  0  0  0  0  0
   57.8390   32.6050   46.6840 C   0  0  0  0  0  0  0  0  0  0  0  0
   58.1960   29.6950   46.1090 C   0  0  0  0  0  0  0  0  0  0  0  0
   59.1550   28.8830   46.7400 C   0  0  0  0  0  0  0  0  0  0  0  0
   59.5730   29.2100   48.0760 N   0  0  0  0  0  0  0  0  0  0  0  0
   60.7830   29.3290   48.3540 O   0  0  0  0  0  0  0  0  0  0  0  0
   58.6560   29.2150   49.1010 O   0  0  0  0  0  0  0  0  0  0  0  0
   60.7042   26.9431   47.7326 H   0  0  0  0  0  0  0  0  0  0  0  0
   60.6150   25.8583   46.3036 H   0  0  0  0  0  0  0  0  0  0  0  0
   61.7479   27.2523   46.3036 H   0  0  0  0  0  0  0  0  0  0  0  0
   59.6006   26.5933   44.2173 H   0  0  0  0  0  0  0  0  0  0  0  0
   57.8692   28.0232   43.1477 H   0  0  0  0  0  0  0  0  0  0  0  0
   58.0509   33.4329   43.3743 H   0  0  0  0  0  0  0  0  0  0  0  0
   60.0086   34.7178   44.2360 H   0  0  0  0  0  0  0  0  0  0  0  0
   60.6054   34.6214   46.6571 H   0  0  0  0  0  0  0  0  0  0  0  0
   61.8766   34.5128   47.8971 H   0  0  0  0  0  0  0  0  0  0  0  0
   62.8898   34.1331   49.2783 H   0  0  0  0  0  0  0  0  0  0  0  0
   63.5666   34.0405   46.3992 H   0  0  0  0  0  0  0  0  0  0  0  0
   64.6749   33.8203   47.7740 H   0  0  0  0  0  0  0  0  0  0  0  0
   63.7403   31.7841   45.9742 H   0  0  0  0  0  0  0  0  0  0  0  0
   64.6565   31.5056   47.4667 H   0  0  0  0  0  0  0  0  0  0  0  0
   62.2860   30.4190   47.6250 H   0  0  0  0  0  0  0  0  0  0  0  0
   57.2137   32.0271   47.3805 H   0  0  0  0  0  0  0  0  0  0  0  0
   57.8055   30.5814   46.6303 H   0  0  0  0  0  0  0  0  0  0  0  0
  1  2  1  0
  2  3  2  0
  3  4  1  0
  4  5  2  0
  5  6  1  0
  6  7  2  0
  6  8  2  0
  6  9  1  0
  9 10  1  0
 10 11  2  0
 11 12  1  0
 12 13  2  0
 13 14  1  0
 14 15  1  0
 15 16  2  0
 15 17  2  0
 15 18  1  0
 18 19  2  3
 19 20  1  0
 20 21  1  0
 21 22  1  0
 22 23  1  0
 14 24  2  0
  5 25  1  0
 25 26  2  0
 26 27  1  0
 27 28  2  0
 27 29  1  0
 26  2  1  0
 24 10  1  0
 23 19  1  0
  1 30  1  0
  1 31  1  0
  1 32  1  0
  3 33  1  0
  4 34  1  0
 11 35  1  0
 12 36  1  0
 13 37  1  0
 20 38  1  0
 20 39  1  0
 21 40  1  0
 21 41  1  0
 22 42  1  0
 22 43  1  0
 23 44  1  0
 24 45  1  0
 25 46  1  0
M  CHG  3   9  -1  27   1  29  -1
M  END
>  <UniqueID>  (43) 
36

>  <SMILES>  (43) 
Cc1ccc(S(=O)(=O)[N-]c2cccc(S(=O)(=O)N=C3CCCN3)c2)cc1[N+](=O)[O-]

>  <Energy>  (43) 
64.66085779793437

>  <Genealogy>  (43) 
Cc1ccc(S(=O)(=O)[N-]c2cccc(S(=O)(=O)N=C3CCCN3)c2)cc1[N+](=O)[O-] (protonated)
Cc1ccc(S(=O)(=O)[N-]c2cccc(S(=O)(=O)N=C3CCCN3)c2)cc1[N+](=O)[O-] (3D coordinates assigned)
Cc1ccc(S(=O)(=O)[N-]c2cccc(S(=O)(=O)N=C3CCCN3)c2)cc1[N+](=O)[O-] (nonaromatic ring conformer: 64.66085779793437 kcal/mol)

>  <smiles>  (43) 
Cc1ccc(S(=O)(=O)Nc2cccc(S(=O)(=O)N=C3CCCN3)c2)cc1[N+](=O)[O-]

>  <score_type>  (43) 
oracle

>  <origin>  (43) 
adg

>  <m_score__min__energy>  (43) 
-11.380000000000001

>  <m_primary>  (43) 
energy

$$$$
43:0
     RDKit          3D

 46 47  0  0  0  0  0  0  0  0999 V2000
   56.5320   24.4500   44.7970 C   0  0  0  0  0  0  0  0  0  0  0  0
   56.5060   25.9550   45.7470 S   0  0  0  0  0  0  0  0  0  0  0  0
   57.2030   25.7570   47.0640 O   0  0  0  0  0  0  0  0  0  0  0  0
   55.0750   26.3300   46.0130 O   0  0  0  0  0  0  0  0  0  0  0  0
   57.2650   27.2380   44.8570 N   0  0  0  0  0  0  0  0  0  0  0  0
   58.3070   28.0890   45.3690 C   0  0  0  0  0  0  0  0  0  0  0  0
   59.5380   28.1370   44.6970 C   0  0  0  0  0  0  0  0  0  0  0  0
   60.5720   28.9560   45.1590 C   0  0  0  0  0  0  0  0  0  0  0  0
   60.3940   29.7410   46.3070 C   0  0  0  0  0  0  0  0  0  0  0  0
   61.5090   30.6110   46.8200 C   0  0  0  0  0  0  0  0  0  0  0  0
   60.9710   31.7260   47.5900 N   0  0  0  0  0  0  0  0  0  0  0  0
   61.6720   32.9560   47.8000 C   0  0  0  0  0  0  0  0  0  0  0  0
   62.6220   33.2910   47.0430 O   0  0  0  0  0  0  0  0  0  0  0  0
   61.2920   33.8410   48.9480 C   0  0  0  0  0  0  0  0  0  0  0  0
   60.0070   34.6230   48.6560 C   0  0  0  0  0  0  0  0  0  0  0  0
   59.3450   34.1590   47.3820 C   0  0  0  0  0  0  0  0  0  0  0  0
   59.6960   34.7260   46.1480 C   0  0  0  0  0  0  0  0  0  0  0  0
   59.0730   34.2980   44.9720 C   0  0  0  0  0  0  0  0  0  0  0  0
   58.0740   33.3060   45.0160 C   0  0  0  0  0  0  0  0  0  0  0  0
   57.4130   32.8420   43.8670 O   0  0  0  0  0  0  0  0  0  0  0  0
   57.4500   31.5030   43.3780 C   0  0  0  0  0  0  0  0  0  0  0  0
   56.3370   30.8060   43.8110 F   0  0  0  0  0  0  0  0  0  0  0  0
   57.4480   31.5320   41.9970 F   0  0  0  0  0  0  0  0  0  0  0  0
   58.6020   30.8710   43.8080 F   0  0  0  0  0  0  0  0  0  0  0  0
   57.7190   32.7520   46.2500 C   0  0  0  0  0  0  0  0  0  0  0  0
   58.3470   33.1730   47.4260 C   0  0  0  0  0  0  0  0  0  0  0  0
   59.1720   29.6850   46.9930 C   0  0  0  0  0  0  0  0  0  0  0  0
   58.1340   28.8730   46.5250 C   0  0  0  0  0  0  0  0  0  0  0  0
   56.5469   23.5865   45.4783 H   0  0  0  0  0  0  0  0  0  0  0  0
   55.6346   24.4012   44.1628 H   0  0  0  0  0  0  0  0  0  0  0  0
   57.4306   24.4322   44.1628 H   0  0  0  0  0  0  0  0  0  0  0  0
   56.9120   27.4050   43.8870 H   0  0  0  0  0  0  0  0  0  0  0  0
   59.6908   27.5234   43.7969 H   0  0  0  0  0  0  0  0  0  0  0  0
   61.5301   28.9849   44.6193 H   0  0  0  0  0  0  0  0  0  0  0  0
   62.1696   30.0115   47.4636 H   0  0  0  0  0  0  0  0  0  0  0  0
   62.0739   31.0085   45.9639 H   0  0  0  0  0  0  0  0  0  0  0  0
   61.1361   33.2191   49.8418 H   0  0  0  0  0  0  0  0  0  0  0  0
   62.1055   34.5637   49.1093 H   0  0  0  0  0  0  0  0  0  0  0  0
   59.3068   34.4822   49.4926 H   0  0  0  0  0  0  0  0  0  0  0  0
   60.2724   35.6838   48.5363 H   0  0  0  0  0  0  0  0  0  0  0  0
   60.4652   35.5112   46.1054 H   0  0  0  0  0  0  0  0  0  0  0  0
   59.3645   34.7383   44.0070 H   0  0  0  0  0  0  0  0  0  0  0  0
   56.9387   31.9781   46.2958 H   0  0  0  0  0  0  0  0  0  0  0  0
   58.0577   32.7295   48.3902 H   0  0  0  0  0  0  0  0  0  0  0  0
   59.0291   30.2835   47.9048 H   0  0  0  0  0  0  0  0  0  0  0  0
   57.1756   28.8469   47.0642 H   0  0  0  0  0  0  0  0  0  0  0  0
  1  2  1  0
  2  3  2  0
  2  4  2  0
  2  5  1  0
  5  6  1  0
  6  7  2  0
  7  8  1  0
  8  9  2  0
  9 10  1  0
 10 11  1  0
 11 12  1  0
 12 13  2  0
 12 14  1  0
 14 15  1  0
 15 16  1  0
 16 17  2  0
 17 18  1  0
 18 19  2  0
 19 20  1  0
 20 21  1  0
 21 22  1  0
 21 23  1  0
 21 24  1  0
 19 25  1  0
 25 26  2  0
  9 27  1  0
 27 28  2  0
 28  6  1  0
 26 16  1  0
  1 29  1  0
  1 30  1  0
  1 31  1  0
  5 32  1  0
  7 33  1  0
  8 34  1  0
 10 35  1  0
 10 36  1  0
 14 37  1  0
 14 38  1  0
 15 39  1  0
 15 40  1  0
 17 41  1  0
 18 42  1  0
 25 43  1  0
 26 44  1  0
 27 45  1  0
 28 46  1  0
M  CHG  1  11  -1
M  END
>  <UniqueID>  (44) 
37

>  <SMILES>  (44) 
CS(=O)(=O)Nc1ccc(C[N-]C(=O)CCc2ccc(OC(F)(F)F)cc2)cc1

>  <Energy>  (44) 
34.223018347404114

>  <Genealogy>  (44) 
CS(=O)(=O)Nc1ccc(C[N-]C(=O)CCc2ccc(OC(F)(F)F)cc2)cc1 (protonated)
CS(=O)(=O)Nc1ccc(C[N-]C(=O)CCc2ccc(OC(F)(F)F)cc2)cc1 (3D coordinates assigned)
CS(=O)(=O)Nc1ccc(C[N-]C(=O)CCc2ccc(OC(F)(F)F)cc2)cc1 (optimized conformer: 34.223018347404114 kcal/mol)

>  <smiles>  (44) 
CS(=O)(=O)Nc1ccc(CNC(=O)CCc2ccc(OC(F)(F)F)cc2)cc1

>  <score_type>  (44) 
oracle

>  <origin>  (44) 
adg

>  <m_score__min__energy>  (44) 
-10.039999999999999

>  <m_primary>  (44) 
energy

$$$$
44:0
     RDKit          3D

 60 64  0  0  0  0  0  0  0  0999 V2000
   56.8290   25.3050   46.8760 O   0  0  0  0  0  0  0  0  0  0  0  0
   56.2000   26.2220   46.2840 C   0  0  0  0  0  0  0  0  0  0  0  0
   54.8170   26.0110   45.9700 N   0  0  0  0  0  0  0  0  0  0  0  0
   54.2630   24.8030   45.3580 C   0  0  0  0  0  0  0  0  0  0  0  0
   55.3770   23.8590   44.9840 C   0  0  0  0  0  0  0  0  0  0  0  0
   55.7760   22.8390   45.8660 C   0  0  0  0  0  0  0  0  0  0  0  0
   56.7790   21.9370   45.4880 C   0  0  0  0  0  0  0  0  0  0  0  0
   57.3880   22.0480   44.2310 C   0  0  0  0  0  0  0  0  0  0  0  0
   56.9930   23.0560   43.3480 C   0  0  0  0  0  0  0  0  0  0  0  0
   55.9870   23.9550   43.7180 C   0  0  0  0  0  0  0  0  0  0  0  0
   56.9090   27.4660   45.9160 C   0  0  0  0  0  0  0  0  0  0  0  0
   58.2510   27.6450   46.2830 C   0  0  0  0  0  0  0  0  0  0  0  0
   58.9350   28.8070   45.9190 C   0  0  0  0  0  0  0  0  0  0  0  0
   58.2860   29.8160   45.1990 C   0  0  0  0  0  0  0  0  0  0  0  0
   59.0370   30.9760   44.8120 N   0  0  0  0  0  0  0  0  0  0  0  0
   58.5920   32.6160   45.1600 S   0  0  0  0  0  0  0  0  0  0  0  0
   58.9220   33.4780   43.9750 O   0  0  0  0  0  0  0  0  0  0  0  0
   57.1100   32.6870   45.4080 O   0  0  0  0  0  0  0  0  0  0  0  0
   59.4960   33.2000   46.5560 C   0  0  0  0  0  0  0  0  0  0  0  0
   58.8870   34.0280   47.5090 C   0  0  0  0  0  0  0  0  0  0  0  0
   59.6170   34.4880   48.6090 C   0  0  0  0  0  0  0  0  0  0  0  0
   60.9600   34.1300   48.7620 C   0  0  0  0  0  0  0  0  0  0  0  0
   61.6680   34.5860   49.8220 N   0  0  0  0  0  0  0  0  0  0  0  0
   62.9750   34.2620   49.9980 C   0  0  0  0  0  0  0  0  0  0  0  0
   63.5850   34.7210   51.0020 O   0  0  0  0  0  0  0  0  0  0  0  0
   63.6200   33.4480   49.0960 N   0  0  0  0  0  0  0  0  0  0  0  0
   65.0530   33.1370   49.2770 C   0  0  0  0  0  0  0  0  0  0  0  0
   65.2240   31.9560   50.1990 C   0  0  0  0  0  0  0  0  0  0  0  0
   66.5110   31.5180   50.5580 C   0  0  0  0  0  0  0  0  0  0  0  0
   66.6690   30.4350   51.4290 C   0  0  0  0  0  0  0  0  0  0  0  0
   65.5480   29.7870   51.9510 C   0  0  0  0  0  0  0  0  0  0  0  0
   64.2660   30.2190   51.6040 C   0  0  0  0  0  0  0  0  0  0  0  0
   64.1010   31.2990   50.7340 C   0  0  0  0  0  0  0  0  0  0  0  0
   62.9350   32.9620   48.0060 C   0  0  0  0  0  0  0  0  0  0  0  0
   63.5160   32.2110   47.1720 O   0  0  0  0  0  0  0  0  0  0  0  0
   61.5810   33.2960   47.8130 C   0  0  0  0  0  0  0  0  0  0  0  0
   60.8390   32.8300   46.7110 C   0  0  0  0  0  0  0  0  0  0  0  0
   56.9340   29.6500   44.8530 C   0  0  0  0  0  0  0  0  0  0  0  0
   56.2490   28.4900   45.2230 C   0  0  0  0  0  0  0  0  0  0  0  0
   53.5901   24.3076   46.0734 H   0  0  0  0  0  0  0  0  0  0  0  0
   53.7043   25.0802   44.4519 H   0  0  0  0  0  0  0  0  0  0  0  0
   55.3001   22.7493   46.8537 H   0  0  0  0  0  0  0  0  0  0  0  0
   57.0892   21.1398   46.1796 H   0  0  0  0  0  0  0  0  0  0  0  0
   58.1781   21.3406   43.9390 H   0  0  0  0  0  0  0  0  0  0  0  0
   57.4729   23.1428   42.3620 H   0  0  0  0  0  0  0  0  0  0  0  0
   55.6707   24.7410   43.0165 H   0  0  0  0  0  0  0  0  0  0  0  0
   58.7680   26.8651   46.8613 H   0  0  0  0  0  0  0  0  0  0  0  0
   59.9913   28.9298   46.2003 H   0  0  0  0  0  0  0  0  0  0  0  0
   57.8321   34.3166   47.3911 H   0  0  0  0  0  0  0  0  0  0  0  0
   59.1332   35.1337   49.3567 H   0  0  0  0  0  0  0  0  0  0  0  0
   65.4986   32.9007   48.2994 H   0  0  0  0  0  0  0  0  0  0  0  0
   65.5537   34.0103   49.7204 H   0  0  0  0  0  0  0  0  0  0  0  0
   67.3967   32.0289   50.1524 H   0  0  0  0  0  0  0  0  0  0  0  0
   67.6780   30.0934   51.7031 H   0  0  0  0  0  0  0  0  0  0  0  0
   65.6745   28.9357   52.6360 H   0  0  0  0  0  0  0  0  0  0  0  0
   63.3841   29.7074   52.0169 H   0  0  0  0  0  0  0  0  0  0  0  0
   63.0891   31.6372   50.4661 H   0  0  0  0  0  0  0  0  0  0  0  0
   61.3152   32.1728   45.9685 H   0  0  0  0  0  0  0  0  0  0  0  0
   56.4128   30.4370   44.2883 H   0  0  0  0  0  0  0  0  0  0  0  0
   55.1845   28.3796   44.9687 H   0  0  0  0  0  0  0  0  0  0  0  0
  1  2  2  0
  2  3  1  0
  3  4  1  0
  4  5  1  0
  5  6  2  0
  6  7  1  0
  7  8  2  0
  8  9  1  0
  9 10  2  0
  2 11  1  0
 11 12  2  0
 12 13  1  0
 13 14  2  0
 14 15  1  0
 15 16  1  0
 16 17  2  0
 16 18  2  0
 16 19  1  0
 19 20  2  0
 20 21  1  0
 21 22  2  0
 22 23  1  0
 23 24  1  0
 24 25  2  0
 24 26  1  0
 26 27  1  0
 27 28  1  0
 28 29  2  0
 29 30  1  0
 30 31  2  0
 31 32  1  0
 32 33  2  0
 26 34  1  0
 34 35  2  0
 34 36  1  0
 36 37  2  0
 14 38  1  0
 38 39  2  0
 10  5  1  0
 39 11  1  0
 37 19  1  0
 36 22  1  0
 33 28  1  0
  4 40  1  0
  4 41  1  0
  6 42  1  0
  7 43  1  0
  8 44  1  0
  9 45  1  0
 10 46  1  0
 12 47  1  0
 13 48  1  0
 20 49  1  0
 21 50  1  0
 27 51  1  0
 27 52  1  0
 29 53  1  0
 30 54  1  0
 31 55  1  0
 32 56  1  0
 33 57  1  0
 37 58  1  0
 38 59  1  0
 39 60  1  0
M  CHG  3   3  -1  15  -1  23  -1
M  END
>  <UniqueID>  (45) 
38

>  <SMILES>  (45) 
O=C([N-]Cc1ccccc1)c1ccc([N-]S(=O)(=O)c2ccc3[n-]c(=O)n(Cc4ccccc4)c(=O)c3c2)cc1

>  <Energy>  (45) 
81.08784716957217

>  <Genealogy>  (45) 
O=C([N-]Cc1ccccc1)c1ccc([N-]S(=O)(=O)c2ccc3[n-]c(=O)n(Cc4ccccc4)c(=O)c3c2)cc1 (protonated)
O=C([N-]Cc1ccccc1)c1ccc([N-]S(=O)(=O)c2ccc3[n-]c(=O)n(Cc4ccccc4)c(=O)c3c2)cc1 (3D coordinates assigned)
O=C([N-]Cc1ccccc1)c1ccc([N-]S(=O)(=O)c2ccc3[n-]c(=O)n(Cc4ccccc4)c(=O)c3c2)cc1 (optimized conformer: 81.08784716957217 kcal/mol)

>  <smiles>  (45) 
O=C(NCc1ccccc1)c1ccc(NS(=O)(=O)c2ccc3[nH]c(=O)n(Cc4ccccc4)c(=O)c3c2)cc1

>  <score_type>  (45) 
oracle

>  <origin>  (45) 
adg

>  <m_score__min__energy>  (45) 
-14.300000000000001

>  <m_primary>  (45) 
energy

$$$$
45:0
     RDKit          3D

 43 45  0  0  0  0  0  0  0  0999 V2000
   56.8416   31.0172   42.1235 H   0  0  0  0  0  0  0  0  0  0  0  0
   57.3710   31.3870   43.0140 C   0  0  0  0  0  0  0  0  0  0  0  0
   57.6120   30.4530   44.1310 C   0  0  0  0  0  0  0  0  0  0  0  0
   56.6410   30.1390   44.8720 O   0  0  0  0  0  0  0  0  0  0  0  0
   58.9020   29.8560   44.3490 N   0  0  0  0  0  0  0  0  0  0  0  0
   59.5270   29.7180   43.5230 H   0  0  0  0  0  0  0  0  0  0  0  0
   59.3150   29.2910   45.6060 C   0  0  0  0  0  0  0  0  0  0  0  0
   59.7960   27.9770   45.6430 C   0  0  0  0  0  0  0  0  0  0  0  0
   59.8429   27.3858   44.7166 H   0  0  0  0  0  0  0  0  0  0  0  0
   60.2160   27.4130   46.8470 C   0  0  0  0  0  0  0  0  0  0  0  0
   60.5838   26.3764   46.8642 H   0  0  0  0  0  0  0  0  0  0  0  0
   60.1740   28.1530   48.0330 C   0  0  0  0  0  0  0  0  0  0  0  0
   60.7070   27.3480   49.5060 Cl  0  0  0  0  0  0  0  0  0  0  0  0
   59.7090   29.4880   48.0110 C   0  0  0  0  0  0  0  0  0  0  0  0
   59.6200   30.5040   49.4640 S   0  0  0  0  0  0  0  0  0  0  0  0
   59.3240   29.6170   50.6430 O   0  0  0  0  0  0  0  0  0  0  0  0
   58.4890   31.4870   49.3570 O   0  0  0  0  0  0  0  0  0  0  0  0
   61.1130   31.3700   49.7690 N   0  0  0  0  0  0  0  0  0  0  0  0
   60.8900   32.7940   50.0820 C   0  0  0  0  0  0  0  0  0  0  0  0
   59.9673   32.8815   50.6744 H   0  0  0  0  0  0  0  0  0  0  0  0
   61.7715   33.1492   50.6359 H   0  0  0  0  0  0  0  0  0  0  0  0
   60.7510   33.6800   48.8210 C   0  0  0  0  0  0  0  0  0  0  0  0
   59.7173   34.0523   48.7677 H   0  0  0  0  0  0  0  0  0  0  0  0
   61.4808   34.4977   48.9144 H   0  0  0  0  0  0  0  0  0  0  0  0
   61.0430   32.9920   47.6210 O   0  0  0  0  0  0  0  0  0  0  0  0
   62.2730   32.3200   47.7520 C   0  0  0  0  0  0  0  0  0  0  0  0
   62.5861   31.9416   46.7677 H   0  0  0  0  0  0  0  0  0  0  0  0
   63.0239   33.0224   48.1428 H   0  0  0  0  0  0  0  0  0  0  0  0
   62.1370   31.1410   48.7280 C   0  0  0  0  0  0  0  0  0  0  0  0
   61.8614   30.2425   48.1565 H   0  0  0  0  0  0  0  0  0  0  0  0
   63.1044   31.0218   49.2378 H   0  0  0  0  0  0  0  0  0  0  0  0
   59.2950   30.0460   46.7900 C   0  0  0  0  0  0  0  0  0  0  0  0
   58.9499   31.0901   46.7609 H   0  0  0  0  0  0  0  0  0  0  0  0
   57.7690   32.6650   43.0380 C   0  0  0  0  0  0  0  0  0  0  0  0
   57.8141   33.2174   42.0878 H   0  0  0  0  0  0  0  0  0  0  0  0
   58.1500   33.3680   44.2780 C   0  0  0  0  0  0  0  0  0  0  0  0
   57.2810   33.2670   45.7130 S   0  0  0  0  0  0  0  0  0  0  0  0
   58.2780   34.2730   46.6160 C   0  0  0  0  0  0  0  0  0  0  0  0
   58.1348   34.5441   47.6724 H   0  0  0  0  0  0  0  0  0  0  0  0
   59.3140   34.7030   45.7980 C   0  0  0  0  0  0  0  0  0  0  0  0
   60.1132   35.3754   46.1433 H   0  0  0  0  0  0  0  0  0  0  0  0
   59.2470   34.2010   44.4920 C   0  0  0  0  0  0  0  0  0  0  0  0
   59.9861   34.4402   43.7132 H   0  0  0  0  0  0  0  0  0  0  0  0
  1  2  1  0
  2  3  1  0
  3  4  2  0
  3  5  1  0
  5  6  1  0
  5  7  1  0
  7  8  2  0
  8  9  1  0
  8 10  1  0
 10 11  1  0
 10 12  2  0
 12 13  1  0
 12 14  1  0
 14 15  1  0
 15 16  2  0
 15 17  2  0
 15 18  1  0
 18 19  1  0
 19 20  1  0
 19 21  1  0
 19 22  1  0
 22 23  1  0
 22 24  1  0
 22 25  1  0
 25 26  1  0
 26 27  1  0
 26 28  1  0
 26 29  1  0
 29 30  1  0
 29 31  1  0
 14 32  2  0
 32 33  1  0
  2 34  2  0
 34 35  1  0
 34 36  1  0
 36 37  1  0
 37 38  1  0
 38 39  1  0
 38 40  2  0
 40 41  1  0
 40 42  1  0
 42 43  1  0
 32  7  1  0
 42 36  2  0
 29 18  1  0
M  END
>  <UniqueID>  (46) 
39

>  <SMILES>  (46) 
O=C(/C=C/c1cccs1)Nc1ccc(Cl)c(S(=O)(=O)N2CCOCC2)c1

>  <Energy>  (46) 
86.6907673497824

>  <Genealogy>  (46) 
O=C(/C=C/c1cccs1)Nc1ccc(Cl)c(S(=O)(=O)N2CCOCC2)c1 (cis-trans isomerization)
O=C(/C=C/c1cccs1)Nc1ccc(Cl)c(S(=O)(=O)N2CCOCC2)c1 (3D coordinates assigned)
O=C(/C=C/c1cccs1)Nc1ccc(Cl)c(S(=O)(=O)N2CCOCC2)c1 (nonaromatic ring conformer: 86.6907673497824 kcal/mol)

>  <smiles>  (46) 
O=C(C=Cc1cccs1)Nc1ccc(Cl)c(S(=O)(=O)N2CCOCC2)c1

>  <score_type>  (46) 
oracle

>  <origin>  (46) 
adg

>  <m_score__min__energy>  (46) 
-8.8399999999999999

>  <m_primary>  (46) 
energy

$$$$
46:0
     RDKit          3D

 41 41  0  0  0  0  0  0  0  0999 V2000
   63.2610   33.8880   46.3990 C   0  0  0  0  0  0  0  0  0  0  0  0
   62.4070   33.0700   47.3770 C   0  0  0  0  0  0  0  0  0  0  0  0
   60.9460   33.1900   47.1490 N   0  0  0  0  0  0  0  0  0  0  0  0
   60.1360   32.1580   47.8360 C   0  0  0  0  0  0  0  0  0  0  0  0
   58.8540   32.7450   48.4230 C   0  0  0  0  0  0  0  0  0  0  0  0
   60.4380   34.5600   47.4040 C   0  0  0  0  0  0  0  0  0  0  0  0
   59.5010   34.9900   46.2720 C   0  0  0  0  0  0  0  0  0  0  0  0
   59.1220   33.8520   45.4390 N   0  0  0  0  0  0  0  0  0  0  0  0
   57.7810   33.6560   44.9640 C   0  0  0  0  0  0  0  0  0  0  0  0
   56.8560   34.4190   45.3500 O   0  0  0  0  0  0  0  0  0  0  0  0
   57.4560   32.5570   44.1050 N   0  0  0  0  0  0  0  0  0  0  0  0
   57.2980   31.1900   44.5110 C   0  0  0  0  0  0  0  0  0  0  0  0
   56.1620   30.4430   44.1540 C   0  0  0  0  0  0  0  0  0  0  0  0
   56.0240   29.1200   44.5900 C   0  0  0  0  0  0  0  0  0  0  0  0
   57.0060   28.5400   45.4030 C   0  0  0  0  0  0  0  0  0  0  0  0
   56.8370   26.8710   45.9380 S   0  0  0  0  0  0  0  0  0  0  0  0
   55.1630   26.4510   46.0010 N   0  0  0  0  0  0  0  0  0  0  0  0
   57.5450   25.9540   44.9790 O   0  0  0  0  0  0  0  0  0  0  0  0
   57.4480   26.7070   47.3000 O   0  0  0  0  0  0  0  0  0  0  0  0
   58.1280   29.2920   45.7760 C   0  0  0  0  0  0  0  0  0  0  0  0
   58.2670   30.6130   45.3410 C   0  0  0  0  0  0  0  0  0  0  0  0
   63.9424   34.5406   46.9645 H   0  0  0  0  0  0  0  0  0  0  0  0
   63.8477   33.2062   45.7657 H   0  0  0  0  0  0  0  0  0  0  0  0
   62.6051   34.5035   45.7657 H   0  0  0  0  0  0  0  0  0  0  0  0
   62.6866   32.0108   47.2779 H   0  0  0  0  0  0  0  0  0  0  0  0
   62.6057   33.4684   48.3829 H   0  0  0  0  0  0  0  0  0  0  0  0
   59.8702   31.3733   47.1124 H   0  0  0  0  0  0  0  0  0  0  0  0
   60.7343   31.7460   48.6620 H   0  0  0  0  0  0  0  0  0  0  0  0
   58.9086   32.7200   49.5214 H   0  0  0  0  0  0  0  0  0  0  0  0
   58.7389   33.7855   48.0852 H   0  0  0  0  0  0  0  0  0  0  0  0
   57.9911   32.1523   48.0852 H   0  0  0  0  0  0  0  0  0  0  0  0
   59.8884   34.5733   48.3567 H   0  0  0  0  0  0  0  0  0  0  0  0
   61.2877   35.2568   47.4538 H   0  0  0  0  0  0  0  0  0  0  0  0
   58.5935   35.4344   46.7067 H   0  0  0  0  0  0  0  0  0  0  0  0
   60.0282   35.7220   45.6426 H   0  0  0  0  0  0  0  0  0  0  0  0
   59.8560   33.1440   45.2150 H   0  0  0  0  0  0  0  0  0  0  0  0
   55.3793   30.8994   43.5303 H   0  0  0  0  0  0  0  0  0  0  0  0
   55.1416   28.5341   44.2932 H   0  0  0  0  0  0  0  0  0  0  0  0
   54.7140   27.0880   46.6970 H   0  0  0  0  0  0  0  0  0  0  0  0
   58.9025   28.8409   46.4137 H   0  0  0  0  0  0  0  0  0  0  0  0
   59.1421   31.2024   45.6523 H   0  0  0  0  0  0  0  0  0  0  0  0
  1  2  1  0
  2  3  1  0
  3  4  1  0
  4  5  1  0
  3  6  1  0
  6  7  1  0
  7  8  1  0
  8  9  1  0
  9 10  2  0
  9 11  1  0
 11 12  1  0
 12 13  2  0
 13 14  1  0
 14 15  2  0
 15 16  1  0
 16 17  1  0
 16 18  2  0
 16 19  2  0
 15 20  1  0
 20 21  2  0
 21 12  1  0
  1 22  1  0
  1 23  1  0
  1 24  1  0
  2 25  1  0
  2 26  1  0
  4 27  1  0
  4 28  1  0
  5 29  1  0
  5 30  1  0
  5 31  1  0
  6 32  1  0
  6 33  1  0
  7 34  1  0
  7 35  1  0
  8 36  1  0
 13 37  1  0
 14 38  1  0
 17 39  1  0
 20 40  1  0
 21 41  1  0
M  CHG  2  11  -1  17  -1
M  END
>  <UniqueID>  (47) 
40

>  <SMILES>  (47) 
CCN(CC)CCNC(=O)[N-]c1ccc(S([NH-])(=O)=O)cc1

>  <Energy>  (47) 
40.779156850893614

>  <Genealogy>  (47) 
CCN(CC)CCNC(=O)[N-]c1ccc(S([NH-])(=O)=O)cc1 (protonated)
CCN(CC)CCNC(=O)[N-]c1ccc(S([NH-])(=O)=O)cc1 (3D coordinates assigned)
CCN(CC)CCNC(=O)[N-]c1ccc(S([NH-])(=O)=O)cc1 (optimized conformer: 40.779156850893614 kcal/mol)

>  <smiles>  (47) 
CCN(CC)CCNC(=O)Nc1ccc(S(N)(=O)=O)cc1

>  <score_type>  (47) 
oracle

>  <origin>  (47) 
adg

>  <m_score__min__energy>  (47) 
-10.44

>  <m_primary>  (47) 
energy

$$$$
47:0
     RDKit          3D

 44 45  0  0  0  0  0  0  0  0999 V2000
   52.8890   23.9660   44.8850 C   0  0  0  0  0  0  0  0  0  0  0  0
   53.6410   24.8280   45.7910 N   0  0  0  0  0  0  0  0  0  0  0  0
   54.9230   25.0270   45.7080 C   0  0  0  0  0  0  0  0  0  0  0  0
   55.7610   23.9770   45.3170 C   0  0  0  0  0  0  0  0  0  0  0  0
   57.1360   24.1970   45.2160 C   0  0  0  0  0  0  0  0  0  0  0  0
   57.6630   25.4570   45.5070 C   0  0  0  0  0  0  0  0  0  0  0  0
   56.8000   26.4860   45.9100 C   0  0  0  0  0  0  0  0  0  0  0  0
   57.3230   27.8700   46.1550 C   0  0  0  0  0  0  0  0  0  0  0  0
   57.3810   28.6050   44.8850 N   0  0  0  0  0  0  0  0  0  0  0  0
   58.3750   28.2400   43.8700 C   0  0  0  0  0  0  0  0  0  0  0  0
   56.3990   29.6270   44.6110 C   0  0  0  0  0  0  0  0  0  0  0  0
   55.1700   29.3620   44.7100 O   0  0  0  0  0  0  0  0  0  0  0  0
   56.8070   30.9890   44.1200 C   0  0  0  0  0  0  0  0  0  0  0  0
   57.9780   31.4620   44.8570 N   0  0  0  0  0  0  0  0  0  0  0  0
   57.9060   32.5930   45.7390 C   0  0  0  0  0  0  0  0  0  0  0  0
   56.8120   33.2080   45.8770 O   0  0  0  0  0  0  0  0  0  0  0  0
   59.1010   33.0360   46.4900 C   0  0  0  0  0  0  0  0  0  0  0  0
   59.0810   34.2120   47.2570 C   0  0  0  0  0  0  0  0  0  0  0  0
   60.2260   34.5970   47.9570 C   0  0  0  0  0  0  0  0  0  0  0  0
   61.3900   33.8220   47.8800 C   0  0  0  0  0  0  0  0  0  0  0  0
   62.6120   34.2100   48.6570 C   0  0  0  0  0  0  0  0  0  0  0  0
   61.3680   32.6480   47.1170 C   0  0  0  0  0  0  0  0  0  0  0  0
   60.2400   32.2910   46.4460 N   0  0  0  0  0  0  0  0  0  0  0  0
   55.4610   26.2490   45.9870 N   0  0  0  0  0  0  0  0  0  0  0  0
   52.2768   23.2642   45.4703 H   0  0  0  0  0  0  0  0  0  0  0  0
   52.2349   24.5824   44.2508 H   0  0  0  0  0  0  0  0  0  0  0  0
   53.5885   23.4016   44.2508 H   0  0  0  0  0  0  0  0  0  0  0  0
   55.3399   22.9862   45.0910 H   0  0  0  0  0  0  0  0  0  0  0  0
   57.8034   23.3788   44.9076 H   0  0  0  0  0  0  0  0  0  0  0  0
   58.7442   25.6404   45.4209 H   0  0  0  0  0  0  0  0  0  0  0  0
   56.6547   28.3961   46.8526 H   0  0  0  0  0  0  0  0  0  0  0  0
   58.3320   27.8085   46.5887 H   0  0  0  0  0  0  0  0  0  0  0  0
   59.2971   27.9014   44.3650 H   0  0  0  0  0  0  0  0  0  0  0  0
   57.9771   27.4293   43.2419 H   0  0  0  0  0  0  0  0  0  0  0  0
   58.5962   29.1155   43.2419 H   0  0  0  0  0  0  0  0  0  0  0  0
   57.0509   30.9310   43.0489 H   0  0  0  0  0  0  0  0  0  0  0  0
   55.9755   31.6915   44.2785 H   0  0  0  0  0  0  0  0  0  0  0  0
   58.8860   30.9520   44.7580 H   0  0  0  0  0  0  0  0  0  0  0  0
   58.1694   34.8257   47.3060 H   0  0  0  0  0  0  0  0  0  0  0  0
   60.2139   35.5104   48.5699 H   0  0  0  0  0  0  0  0  0  0  0  0
   62.3986   34.1422   49.7340 H   0  0  0  0  0  0  0  0  0  0  0  0
   63.4388   33.5302   48.4036 H   0  0  0  0  0  0  0  0  0  0  0  0
   62.8952   35.2423   48.4036 H   0  0  0  0  0  0  0  0  0  0  0  0
   62.2646   32.0133   47.0602 H   0  0  0  0  0  0  0  0  0  0  0  0
  1  2  1  0
  2  3  2  3
  3  4  1  0
  4  5  2  0
  5  6  1  0
  6  7  2  0
  7  8  1  0
  8  9  1  0
  9 10  1  0
  9 11  1  0
 11 12  2  0
 11 13  1  0
 13 14  1  0
 14 15  1  0
 15 16  2  0
 15 17  1  0
 17 18  2  0
 18 19  1  0
 19 20  2  0
 20 21  1  0
 20 22  1  0
 22 23  2  0
  7 24  1  0
 24  3  1  0
 23 17  1  0
  1 25  1  0
  1 26  1  0
  1 27  1  0
  4 28  1  0
  5 29  1  0
  6 30  1  0
  8 31  1  0
  8 32  1  0
 10 33  1  0
 10 34  1  0
 10 35  1  0
 13 36  1  0
 13 37  1  0
 14 38  1  0
 18 39  1  0
 19 40  1  0
 21 41  1  0
 21 42  1  0
 21 43  1  0
 22 44  1  0
M  CHG  1  24  -1
M  END
>  <UniqueID>  (48) 
41

>  <SMILES>  (48) 
CN=c1cccc(CN(C)C(=O)CNC(=O)c2ccc(C)cn2)[n-]1

>  <Energy>  (48) 
37.197609523771334

>  <Genealogy>  (48) 
CN=c1cccc(CN(C)C(=O)CNC(=O)c2ccc(C)cn2)[n-]1 (protonated)
CN=c1cccc(CN(C)C(=O)CNC(=O)c2ccc(C)cn2)[n-]1 (3D coordinates assigned)
CN=c1cccc(CN(C)C(=O)CNC(=O)c2ccc(C)cn2)[n-]1 (optimized conformer: 37.197609523771334 kcal/mol)

>  <smiles>  (48) 
CN=c1cccc(CN(C)C(=O)CNC(=O)c2ccc(C)cn2)[nH]1

>  <score_type>  (48) 
oracle

>  <origin>  (48) 
adg

>  <m_score__min__energy>  (48) 
-9.5199999999999996

>  <m_primary>  (48) 
energy

$$$$
48:0
     RDKit          3D

 21 22  0  0  0  0  0  0  0  0999 V2000
   57.9274   34.3740   44.6851 H   0  0  0  0  0  0  0  0  0  0  0  0
   57.8180   33.3020   44.4640 C   0  0  0  0  0  0  0  0  0  0  0  0
   57.4540   32.3960   45.4110 N   0  0  0  0  0  0  0  0  0  0  0  0
   57.3970   31.1450   44.9100 C   0  0  0  0  0  0  0  0  0  0  0  0
   57.0340   30.1270   45.6330 N   0  0  0  0  0  0  0  0  0  0  0  0
   56.4250   28.9210   45.1480 C   0  0  0  0  0  0  0  0  0  0  0  0
   55.3460   29.0100   44.5060 O   0  0  0  0  0  0  0  0  0  0  0  0
   56.9810   27.5800   45.4590 C   0  0  0  0  0  0  0  0  0  0  0  0
   58.3660   27.3550   45.3570 C   0  0  0  0  0  0  0  0  0  0  0  0
   59.0293   28.1718   45.0362 H   0  0  0  0  0  0  0  0  0  0  0  0
   58.9060   26.1020   45.6600 C   0  0  0  0  0  0  0  0  0  0  0  0
   59.9895   25.9345   45.5708 H   0  0  0  0  0  0  0  0  0  0  0  0
   58.0710   25.0620   46.0760 C   0  0  0  0  0  0  0  0  0  0  0  0
   58.4968   24.0760   46.3137 H   0  0  0  0  0  0  0  0  0  0  0  0
   56.6950   25.2750   46.1900 C   0  0  0  0  0  0  0  0  0  0  0  0
   56.0399   24.4557   46.5210 H   0  0  0  0  0  0  0  0  0  0  0  0
   56.1460   26.5260   45.8850 C   0  0  0  0  0  0  0  0  0  0  0  0
   54.7710   26.7030   45.9940 O   0  0  0  0  0  0  0  0  0  0  0  0
   57.7730   31.1170   43.2640 S   0  0  0  0  0  0  0  0  0  0  0  0
   58.0420   32.7760   43.1960 C   0  0  0  0  0  0  0  0  0  0  0  0
   58.3426   33.3456   42.3043 H   0  0  0  0  0  0  0  0  0  0  0  0
  1  2  1  0
  2  3  1  0
  3  4  1  0
  4  5  2  0
  5  6  1  0
  6  7  2  0
  6  8  1  0
  8  9  2  0
  9 10  1  0
  9 11  1  0
 11 12  1  0
 11 13  2  0
 13 14  1  0
 13 15  1  0
 15 16  1  0
 15 17  2  0
 17 18  1  0
  4 19  1  0
 19 20  1  0
 20 21  1  0
 20  2  2  0
 17  8  1  0
M  CHG  2   3  -1  18  -1
M  END
>  <UniqueID>  (49) 
42

>  <SMILES>  (49) 
O=C(/N=c1/[n-]ccs1)c1ccccc1[O-]

>  <Energy>  (49) 
61.706739168107205

>  <Genealogy>  (49) 
O=C(N=c1[n-]ccs1)c1ccccc1[O-] (protonated)
O=C(/N=c1/[n-]ccs1)c1ccccc1[O-] (cis-trans isomerization)
O=C(/N=c1/[n-]ccs1)c1ccccc1[O-] (3D coordinates assigned)
O=C(/N=c1/[n-]ccs1)c1ccccc1[O-] (optimized conformer: 61.706739168107205 kcal/mol)

>  <smiles>  (49) 
O=C(N=c1[nH]ccs1)c1ccccc1O

>  <score_type>  (49) 
oracle

>  <origin>  (49) 
adg

>  <m_score__min__energy>  (49) 
-11.609999999999999

>  <m_primary>  (49) 
energy

$$$$
49:0
     RDKit          3D

 58 60  0  0  1  0  0  0  0  0999 V2000
   58.1380   27.0570   42.5060 C   0  0  0  0  0  0  0  0  0  0  0  0
   57.7710   27.6370   43.7560 O   0  0  0  0  0  0  0  0  0  0  0  0
   58.4240   27.1070   44.8790 C   0  0  0  0  0  0  0  0  0  0  0  0
   61.2530   32.9790   47.3100 C   0  0  0  0  0  0  0  0  0  0  0  0
   60.1120   28.8310   44.7580 N   0  0  0  0  0  0  0  0  0  0  0  0
   59.5270   29.9800   44.8670 C   0  0  0  0  0  0  0  0  0  0  0  0
   58.5090   30.3380   44.0810 N   0  0  0  0  0  0  0  0  0  0  0  0
   57.9660   31.5480   44.2670 C   0  0  0  0  0  0  0  0  0  0  0  0
   58.4160   32.4110   45.2210 C   0  0  0  0  0  0  0  0  0  0  0  0
   57.6590   33.9610   45.4110 Cl  0  0  0  0  0  0  0  0  0  0  0  0
   59.4590   32.0300   46.0160 C   0  0  0  0  0  0  0  0  0  0  0  0
   59.9050   32.8110   46.9090 N   0  0  0  0  0  0  0  0  0  0  0  0
   59.5630   27.6740   45.3810 C   0  0  0  0  0  0  0  0  0  0  0  0
   60.1720   27.1180   46.4880 C   0  0  0  0  0  0  0  0  0  0  0  0
   63.3930   34.0520   46.8980 C   0  0  0  0  0  0  0  0  0  0  0  0
   63.9310   33.3710   47.9710 C   0  0  0  0  0  0  0  0  0  0  0  0
   63.1390   32.5080   48.7010 C   0  0  0  0  0  0  0  0  0  0  0  0
   61.7990   32.2880   48.4000 C   0  0  0  0  0  0  0  0  0  0  0  0
   60.8120   31.1870   49.3310 S   0  0  0  0  0  0  0  0  0  0  0  0
   60.0790   30.2100   48.4580 O   0  0  0  0  0  0  0  0  0  0  0  0
   61.7060   30.3720   50.2210 O   0  0  0  0  0  0  0  0  0  0  0  0
   59.6010   32.0460   50.2970 C   0  0  0  0  0  0  0  0  0  0  0  0
   60.0380   33.4710   50.4280 C   0  0  0  0  0  0  0  0  0  0  0  0
   58.2340   31.9750   49.7110 C   0  0  0  0  0  0  0  0  0  0  0  0
   59.9920   30.8130   45.8190 N   0  0  0  0  0  0  0  0  0  0  0  0
   62.0670   33.8530   46.5750 C   0  0  0  0  0  0  0  0  0  0  0  0
   59.6240   25.9970   47.0750 C   0  0  0  0  0  0  0  0  0  0  0  0
   58.4610   25.4390   46.5420 C   0  0  0  0  0  0  0  0  0  0  0  0
   57.8320   25.9730   45.4370 C   0  0  0  0  0  0  0  0  0  0  0  0
   56.6460   25.4060   44.8920 N   0  0  0  0  0  0  0  0  0  0  0  0
   55.6500   24.4580   45.9300 S   0  0  0  0  0  0  0  0  0  0  0  0
   56.0560   22.7450   45.7540 C   0  0  0  0  0  0  0  0  0  0  0  0
   55.9390   24.8440   47.3670 O   0  0  0  0  0  0  0  0  0  0  0  0
   54.1900   24.6790   45.6410 O   0  0  0  0  0  0  0  0  0  0  0  0
   58.7184   26.1397   42.6838 H   0  0  0  0  0  0  0  0  0  0  0  0
   57.2304   26.8117   41.9350 H   0  0  0  0  0  0  0  0  0  0  0  0
   58.7483   27.7722   41.9350 H   0  0  0  0  0  0  0  0  0  0  0  0
   58.1580   29.6650   43.3390 H   0  0  0  0  0  0  0  0  0  0  0  0
   57.1265   31.8564   43.6266 H   0  0  0  0  0  0  0  0  0  0  0  0
   61.0885   27.5663   46.8992 H   0  0  0  0  0  0  0  0  0  0  0  0
   64.0129   34.7437   46.3087 H   0  0  0  0  0  0  0  0  0  0  0  0
   64.9869   33.5154   48.2434 H   0  0  0  0  0  0  0  0  0  0  0  0
   63.5845   31.9739   49.5532 H   0  0  0  0  0  0  0  0  0  0  0  0
   59.5343   31.5605   51.2818 H   0  0  0  0  0  0  0  0  0  0  0  0
   60.1185   33.7334   51.4932 H   0  0  0  0  0  0  0  0  0  0  0  0
   61.0171   33.6003   49.9435 H   0  0  0  0  0  0  0  0  0  0  0  0
   59.2997   34.1269   49.9435 H   0  0  0  0  0  0  0  0  0  0  0  0
   57.4898   31.9363   50.5201 H   0  0  0  0  0  0  0  0  0  0  0  0
   58.0546   32.8650   49.0900 H   0  0  0  0  0  0  0  0  0  0  0  0
   58.1478   31.0712   49.0900 H   0  0  0  0  0  0  0  0  0  0  0  0
   60.8020   30.5410   46.4510 H   0  0  0  0  0  0  0  0  0  0  0  0
   61.6369   34.3936   45.7190 H   0  0  0  0  0  0  0  0  0  0  0  0
   60.1004   25.5454   47.9577 H   0  0  0  0  0  0  0  0  0  0  0  0
   58.0325   24.5449   47.0184 H   0  0  0  0  0  0  0  0  0  0  0  0
   56.4340   25.5910   43.8890 H   0  0  0  0  0  0  0  0  0  0  0  0
   56.1639   22.2896   46.7495 H   0  0  0  0  0  0  0  0  0  0  0  0
   55.2543   22.2330   45.2016 H   0  0  0  0  0  0  0  0  0  0  0  0
   57.0022   22.6473   45.2016 H   0  0  0  0  0  0  0  0  0  0  0  0
  1  2  1  0
  2  3  1  0
  3  4  2  0
  4  5  1  0
  5  6  2  0
  6  7  1  0
  7  8  1  0
  8  9  2  0
  9 10  1  0
  9 11  1  0
 11 12  2  0
 12 13  1  0
 13 14  2  0
 14 15  1  0
 15 16  2  0
 16 17  1  0
 17 18  2  0
 18 19  1  0
 19 20  2  0
 19 21  2  0
 19 22  1  0
 22 23  1  0
 22 24  1  0
 11 25  1  0
  4 26  1  0
 26 27  2  0
 27 28  1  0
 28 29  2  0
 29 30  1  0
 30 31  1  0
 31 32  1  0
 31 33  2  0
 31 34  2  0
 29  3  1  0
 25  6  1  0
 18 13  1  0
  1 35  1  0
  1 36  1  0
  1 37  1  0
  7 38  1  0
  8 39  1  0
 14 40  1  0
 15 41  1  0
 16 42  1  0
 17 43  1  0
 22 44  1  0
 23 45  1  0
 23 46  1  0
 23 47  1  0
 24 48  1  0
 24 49  1  0
 24 50  1  0
 25 51  1  0
 26 52  1  0
 27 53  1  0
 28 54  1  0
 30 55  1  0
 32 56  1  0
 32 57  1  0
 32 58  1  0
M  END
>  <smiles>  (50) 
COc1c(N=c2[nH]cc(Cl)c(=Nc3ccccc3S(=O)(=O)C(C)C)[nH]2)cccc1NS(C)(=O)=O

>  <score_type>  (50) 
oracle

>  <origin>  (50) 
adg

>  <m_score__min__energy>  (50) 
-9.7300000000000004

>  <m_primary>  (50) 
energy

$$$$
50:0
     RDKit          3D

 42 44  0  0  0  0  0  0  0  0999 V2000
   57.5410   24.3060   44.9410 C   0  0  0  0  0  0  0  0  0  0  0  0
   57.1730   24.6600   46.6440 S   0  0  0  0  0  0  0  0  0  0  0  0
   55.7740   25.2010   46.7480 O   0  0  0  0  0  0  0  0  0  0  0  0
   57.2790   23.3950   47.4480 O   0  0  0  0  0  0  0  0  0  0  0  0
   58.3330   25.8680   47.2600 C   0  0  0  0  0  0  0  0  0  0  0  0
   58.4670   27.0080   46.2890 C   0  0  0  0  0  0  0  0  0  0  0  0
   59.6690   27.2070   45.5950 C   0  0  0  0  0  0  0  0  0  0  0  0
   59.7830   28.2470   44.6710 C   0  0  0  0  0  0  0  0  0  0  0  0
   58.6970   29.0910   44.4240 C   0  0  0  0  0  0  0  0  0  0  0  0
   57.4780   28.9010   45.0990 C   0  0  0  0  0  0  0  0  0  0  0  0
   56.3230   29.7900   44.8320 C   0  0  0  0  0  0  0  0  0  0  0  0
   55.1510   29.3270   44.8710 O   0  0  0  0  0  0  0  0  0  0  0  0
   56.5360   31.1860   44.5790 N   0  0  0  0  0  0  0  0  0  0  0  0
   57.5700   32.0100   45.1360 C   0  0  0  0  0  0  0  0  0  0  0  0
   58.1740   31.7150   46.3710 C   0  0  0  0  0  0  0  0  0  0  0  0
   59.1600   32.5590   46.8910 C   0  0  0  0  0  0  0  0  0  0  0  0
   59.5650   33.7000   46.1880 C   0  0  0  0  0  0  0  0  0  0  0  0
   60.5610   34.5540   46.7760 N   0  0  0  0  0  0  0  0  0  0  0  0
   61.7030   34.1840   47.2770 C   0  0  0  0  0  0  0  0  0  0  0  0
   62.7690   33.8030   46.5400 N   0  0  0  0  0  0  0  0  0  0  0  0
   63.6940   33.4720   47.4630 C   0  0  0  0  0  0  0  0  0  0  0  0
   63.1720   33.6490   48.7260 C   0  0  0  0  0  0  0  0  0  0  0  0
   61.9130   34.0940   48.6030 N   0  0  0  0  0  0  0  0  0  0  0  0
   58.9220   34.0220   44.9790 C   0  0  0  0  0  0  0  0  0  0  0  0
   57.9340   33.1800   44.4600 C   0  0  0  0  0  0  0  0  0  0  0  0
   57.3720   27.8510   46.0300 C   0  0  0  0  0  0  0  0  0  0  0  0
   58.3328   23.5443   44.8876 H   0  0  0  0  0  0  0  0  0  0  0  0
   56.6363   23.9301   44.4409 H   0  0  0  0  0  0  0  0  0  0  0  0
   57.8816   25.2246   44.4409 H   0  0  0  0  0  0  0  0  0  0  0  0
   57.9753   26.2545   48.2258 H   0  0  0  0  0  0  0  0  0  0  0  0
   59.3150   25.3885   47.3853 H   0  0  0  0  0  0  0  0  0  0  0  0
   60.5251   26.5413   45.7793 H   0  0  0  0  0  0  0  0  0  0  0  0
   60.7311   28.4028   44.1354 H   0  0  0  0  0  0  0  0  0  0  0  0
   58.7963   29.9099   43.6963 H   0  0  0  0  0  0  0  0  0  0  0  0
   57.8699   30.8176   46.9297 H   0  0  0  0  0  0  0  0  0  0  0  0
   59.6218   32.3244   47.8614 H   0  0  0  0  0  0  0  0  0  0  0  0
   64.7106   33.1150   47.2417 H   0  0  0  0  0  0  0  0  0  0  0  0
   63.6980   33.4580   49.6730 H   0  0  0  0  0  0  0  0  0  0  0  0
   61.2420   34.3170   49.3730 H   0  0  0  0  0  0  0  0  0  0  0  0
   59.1978   34.9402   44.4397 H   0  0  0  0  0  0  0  0  0  0  0  0
   57.4387   33.4393   43.5126 H   0  0  0  0  0  0  0  0  0  0  0  0
   56.4224   27.6881   46.5607 H   0  0  0  0  0  0  0  0  0  0  0  0
  1  2  1  0
  2  3  2  0
  2  4  2  0
  2  5  1  0
  5  6  1  0
  6  7  2  0
  7  8  1  0
  8  9  2  0
  9 10  1  0
 10 11  1  0
 11 12  2  0
 11 13  1  0
 13 14  1  0
 14 15  2  0
 15 16  1  0
 16 17  2  0
 17 18  1  0
 18 19  2  3
 19 20  1  0
 20 21  1  0
 21 22  2  0
 22 23  1  0
 17 24  1  0
 24 25  2  0
 10 26  2  0
 26  6  1  0
 25 14  1  0
 23 19  1  0
  1 27  1  0
  1 28  1  0
  1 29  1  0
  5 30  1  0
  5 31  1  0
  7 32  1  0
  8 33  1  0
  9 34  1  0
 15 35  1  0
 16 36  1  0
 21 37  1  0
 22 38  1  0
 23 39  1  0
 24 40  1  0
 25 41  1  0
 26 42  1  0
M  CHG  2  13  -1  20  -1
M  END
>  <UniqueID>  (51) 
43

>  <SMILES>  (51) 
CS(=O)(=O)Cc1cccc(C(=O)[N-]c2ccc(N=c3[n-]cc[nH]3)cc2)c1

>  <Energy>  (51) 
75.15474621561245

>  <Genealogy>  (51) 
CS(=O)(=O)Cc1cccc(C(=O)[N-]c2ccc(N=c3[n-]cc[nH]3)cc2)c1 (protonated)
CS(=O)(=O)Cc1cccc(C(=O)[N-]c2ccc(N=c3[n-]cc[nH]3)cc2)c1 (3D coordinates assigned)
CS(=O)(=O)Cc1cccc(C(=O)[N-]c2ccc(N=c3[n-]cc[nH]3)cc2)c1 (optimized conformer: 75.15474621561245 kcal/mol)

>  <smiles>  (51) 
CS(=O)(=O)Cc1cccc(C(=O)Nc2ccc(N=c3[nH]cc[nH]3)cc2)c1

>  <score_type>  (51) 
oracle

>  <origin>  (51) 
adg

>  <m_score__min__energy>  (51) 
-11.44

>  <m_primary>  (51) 
energy

$$$$
51:0
     RDKit          3D

 47 49  0  0  0  0  0  0  0  0999 V2000
   56.2680   29.3610   42.4020 C   0  0  0  0  0  0  0  0  0  0  0  0
   56.5980   30.4490   43.3680 C   0  0  0  0  0  0  0  0  0  0  0  0
   57.3990   31.5420   43.1210 C   0  0  0  0  0  0  0  0  0  0  0  0
   57.4010   32.2130   44.3270 C   0  0  0  0  0  0  0  0  0  0  0  0
   58.1370   33.4920   44.6290 C   0  0  0  0  0  0  0  0  0  0  0  0
   59.0730   33.3830   45.7670 N   0  0  0  0  0  0  0  0  0  0  0  0
   59.9930   34.5250   45.8830 C   0  0  0  0  0  0  0  0  0  0  0  0
   61.1410   34.1780   46.8540 C   0  0  0  0  0  0  0  0  0  0  0  0
   60.7720   33.1410   47.8500 N   0  0  0  0  0  0  0  0  0  0  0  0
   61.1270   31.7740   47.4080 C   0  0  0  0  0  0  0  0  0  0  0  0
   61.1590   30.8280   48.6110 C   0  0  0  0  0  0  0  0  0  0  0  0
   59.7180   29.7730   48.6370 S   0  0  0  0  0  0  0  0  0  0  0  0
   59.9450   28.6330   49.5900 O   0  0  0  0  0  0  0  0  0  0  0  0
   58.5310   30.5620   49.1090 O   0  0  0  0  0  0  0  0  0  0  0  0
   59.3970   29.1490   47.0210 C   0  0  0  0  0  0  0  0  0  0  0  0
   58.1340   28.6300   46.6970 C   0  0  0  0  0  0  0  0  0  0  0  0
   57.8940   28.1140   45.4190 C   0  0  0  0  0  0  0  0  0  0  0  0
   58.9130   28.1100   44.4630 C   0  0  0  0  0  0  0  0  0  0  0  0
   60.1750   28.6200   44.7830 C   0  0  0  0  0  0  0  0  0  0  0  0
   60.4190   29.1360   46.0600 C   0  0  0  0  0  0  0  0  0  0  0  0
   59.3540   33.2520   48.2490 C   0  0  0  0  0  0  0  0  0  0  0  0
   58.3940   33.0960   47.0480 C   0  0  0  0  0  0  0  0  0  0  0  0
   56.6450   31.5470   45.2210 N   0  0  0  0  0  0  0  0  0  0  0  0
   56.1820   30.4940   44.6130 O   0  0  0  0  0  0  0  0  0  0  0  0
   55.9920   28.4510   42.9549 H   0  0  0  0  0  0  0  0  0  0  0  0
   55.4249   29.6756   41.7694 H   0  0  0  0  0  0  0  0  0  0  0  0
   57.1438   29.1542   41.7694 H   0  0  0  0  0  0  0  0  0  0  0  0
   57.9132   31.8144   42.1875 H   0  0  0  0  0  0  0  0  0  0  0  0
   58.7087   33.7832   43.7355 H   0  0  0  0  0  0  0  0  0  0  0  0
   57.3804   34.2413   44.9051 H   0  0  0  0  0  0  0  0  0  0  0  0
   60.4110   34.7587   44.8927 H   0  0  0  0  0  0  0  0  0  0  0  0
   59.4427   35.3956   46.2692 H   0  0  0  0  0  0  0  0  0  0  0  0
   61.9959   33.8106   46.2674 H   0  0  0  0  0  0  0  0  0  0  0  0
   61.3853   35.0942   47.4116 H   0  0  0  0  0  0  0  0  0  0  0  0
   60.3782   31.4188   46.6848 H   0  0  0  0  0  0  0  0  0  0  0  0
   62.1206   31.7930   46.9364 H   0  0  0  0  0  0  0  0  0  0  0  0
   62.0616   30.2021   48.5521 H   0  0  0  0  0  0  0  0  0  0  0  0
   61.1669   31.4318   49.5305 H   0  0  0  0  0  0  0  0  0  0  0  0
   57.3314   28.6289   47.4492 H   0  0  0  0  0  0  0  0  0  0  0  0
   56.9021   27.7110   45.1665 H   0  0  0  0  0  0  0  0  0  0  0  0
   58.7223   27.7054   43.4580 H   0  0  0  0  0  0  0  0  0  0  0  0
   60.9767   28.6154   44.0298 H   0  0  0  0  0  0  0  0  0  0  0  0
   61.4139   29.5323   46.3112 H   0  0  0  0  0  0  0  0  0  0  0  0
   59.1308   32.4656   48.9850 H   0  0  0  0  0  0  0  0  0  0  0  0
   59.2012   34.2548   48.6746 H   0  0  0  0  0  0  0  0  0  0  0  0
   58.0136   32.0641   47.0269 H   0  0  0  0  0  0  0  0  0  0  0  0
   57.5713   33.8159   47.1698 H   0  0  0  0  0  0  0  0  0  0  0  0
  1  2  1  0
  2  3  2  0
  3  4  1  0
  4  5  1  0
  5  6  1  0
  6  7  1  0
  7  8  1  0
  8  9  1  0
  9 10  1  0
 10 11  1  0
 11 12  1  0
 12 13  2  0
 12 14  2  0
 12 15  1  0
 15 16  2  0
 16 17  1  0
 17 18  2  0
 18 19  1  0
 19 20  2  0
  9 21  1  0
 21 22  1  0
  4 23  2  0
 23 24  1  0
 24  2  1  0
 22  6  1  0
 20 15  1  0
  1 25  1  0
  1 26  1  0
  1 27  1  0
  3 28  1  0
  5 29  1  0
  5 30  1  0
  7 31  1  0
  7 32  1  0
  8 33  1  0
  8 34  1  0
 10 35  1  0
 10 36  1  0
 11 37  1  0
 11 38  1  0
 16 39  1  0
 17 40  1  0
 18 41  1  0
 19 42  1  0
 20 43  1  0
 21 44  1  0
 21 45  1  0
 22 46  1  0
 22 47  1  0
M  END
>  <UniqueID>  (52) 
44

>  <SMILES>  (52) 
Cc1cc(CN2CCN(CCS(=O)(=O)c3ccccc3)CC2)no1

>  <Energy>  (52) 
85.01411099645154

>  <Genealogy>  (52) 
Cc1cc(CN2CCN(CCS(=O)(=O)c3ccccc3)CC2)no1 (3D coordinates assigned)
Cc1cc(CN2CCN(CCS(=O)(=O)c3ccccc3)CC2)no1 (nonaromatic ring conformer: 85.01411099645154 kcal/mol)

>  <smiles>  (52) 
Cc1cc(CN2CCN(CCS(=O)(=O)c3ccccc3)CC2)no1

>  <score_type>  (52) 
oracle

>  <origin>  (52) 
adg

>  <m_score__min__energy>  (52) 
-9.3100000000000005

>  <m_primary>  (52) 
energy

$$$$
52:0
     RDKit          3D

 42 44  0  0  0  0  0  0  0  0999 V2000
   54.8390   26.2020   45.9830 N   0  0  0  0  0  0  0  0  0  0  0  0
   56.5170   25.8140   45.8350 S   0  0  0  0  0  0  0  0  0  0  0  0
   57.0100   25.2230   47.1260 O   0  0  0  0  0  0  0  0  0  0  0  0
   56.7030   24.8020   44.7390 O   0  0  0  0  0  0  0  0  0  0  0  0
   57.4250   27.2760   45.4630 C   0  0  0  0  0  0  0  0  0  0  0  0
   58.8090   27.2120   45.2530 C   0  0  0  0  0  0  0  0  0  0  0  0
   59.5290   28.3750   44.9700 C   0  0  0  0  0  0  0  0  0  0  0  0
   58.8690   29.6040   44.8820 C   0  0  0  0  0  0  0  0  0  0  0  0
   57.4820   29.6790   45.0590 C   0  0  0  0  0  0  0  0  0  0  0  0
   56.8490   30.9650   44.9810 N   0  0  0  0  0  0  0  0  0  0  0  0
   57.4840   32.2160   44.6880 C   0  0  0  0  0  0  0  0  0  0  0  0
   58.3910   32.2940   43.8160 O   0  0  0  0  0  0  0  0  0  0  0  0
   57.0780   33.4370   45.4440 C   0  0  0  0  0  0  0  0  0  0  0  0
   57.7540   34.5960   44.8770 N   0  0  0  0  0  0  0  0  0  0  0  0
   59.0570   35.0690   45.2440 C   0  0  0  0  0  0  0  0  0  0  0  0
   59.5930   35.9590   44.5330 O   0  0  0  0  0  0  0  0  0  0  0  0
   59.7770   34.5920   46.4410 C   0  0  0  0  0  0  0  0  0  0  0  0
   59.3080   34.5610   47.7520 C   0  0  0  0  0  0  0  0  0  0  0  0
   60.2140   33.9880   48.6530 C   0  0  0  0  0  0  0  0  0  0  0  0
   61.3880   33.5350   48.0560 C   0  0  0  0  0  0  0  0  0  0  0  0
   62.5460   32.9460   48.7680 C   0  0  0  0  0  0  0  0  0  0  0  0
   63.7780   33.6240   48.7310 C   0  0  0  0  0  0  0  0  0  0  0  0
   64.9000   33.0950   49.3730 C   0  0  0  0  0  0  0  0  0  0  0  0
   64.8070   31.8890   50.0650 C   0  0  0  0  0  0  0  0  0  0  0  0
   63.5900   31.2110   50.1240 C   0  0  0  0  0  0  0  0  0  0  0  0
   62.4550   31.7300   49.4850 C   0  0  0  0  0  0  0  0  0  0  0  0
   60.9380   30.8600   49.6880 Cl  0  0  0  0  0  0  0  0  0  0  0  0
   61.2990   33.8770   46.4080 S   0  0  0  0  0  0  0  0  0  0  0  0
   56.7630   28.5090   45.3670 C   0  0  0  0  0  0  0  0  0  0  0  0
   54.7800   27.0880   46.5320 H   0  0  0  0  0  0  0  0  0  0  0  0
   59.3292   26.2445   45.3111 H   0  0  0  0  0  0  0  0  0  0  0  0
   60.6170   28.3236   44.8162 H   0  0  0  0  0  0  0  0  0  0  0  0
   59.4431   30.5185   44.6723 H   0  0  0  0  0  0  0  0  0  0  0  0
   55.9890   33.5721   45.3679 H   0  0  0  0  0  0  0  0  0  0  0  0
   57.3565   33.3269   46.5025 H   0  0  0  0  0  0  0  0  0  0  0  0
   58.3227   34.9485   48.0504 H   0  0  0  0  0  0  0  0  0  0  0  0
   60.0168   33.9035   49.7319 H   0  0  0  0  0  0  0  0  0  0  0  0
   63.8585   34.5793   48.1916 H   0  0  0  0  0  0  0  0  0  0  0  0
   65.8594   33.6316   49.3323 H   0  0  0  0  0  0  0  0  0  0  0  0
   65.6937   31.4719   50.5647 H   0  0  0  0  0  0  0  0  0  0  0  0
   63.5199   30.2621   50.6759 H   0  0  0  0  0  0  0  0  0  0  0  0
   55.6769   28.5617   45.5332 H   0  0  0  0  0  0  0  0  0  0  0  0
  1  2  1  0
  2  3  2  0
  2  4  2  0
  2  5  1  0
  5  6  2  0
  6  7  1  0
  7  8  2  0
  8  9  1  0
  9 10  1  0
 10 11  1  0
 11 12  2  0
 11 13  1  0
 13 14  1  0
 14 15  1  0
 15 16  2  0
 15 17  1  0
 17 18  2  0
 18 19  1  0
 19 20  2  0
 20 21  1  0
 21 22  2  0
 22 23  1  0
 23 24  2  0
 24 25  1  0
 25 26  2  0
 26 27  1  0
 20 28  1  0
  9 29  2  0
 29  5  1  0
 28 17  1  0
 26 21  1  0
  1 30  1  0
  6 31  1  0
  7 32  1  0
  8 33  1  0
 13 34  1  0
 13 35  1  0
 18 36  1  0
 19 37  1  0
 22 38  1  0
 23 39  1  0
 24 40  1  0
 25 41  1  0
 29 42  1  0
M  CHG  3   1  -1  10  -1  14  -1
M  END
>  <UniqueID>  (53) 
45

>  <SMILES>  (53) 
[NH-]S(=O)(=O)c1cccc([N-]C(=O)C[N-]C(=O)c2ccc(-c3ccccc3Cl)s2)c1

>  <Energy>  (53) 
81.47307251856469

>  <Genealogy>  (53) 
[NH-]S(=O)(=O)c1cccc([N-]C(=O)C[N-]C(=O)c2ccc(-c3ccccc3Cl)s2)c1 (protonated)
[NH-]S(=O)(=O)c1cccc([N-]C(=O)C[N-]C(=O)c2ccc(-c3ccccc3Cl)s2)c1 (3D coordinates assigned)
[NH-]S(=O)(=O)c1cccc([N-]C(=O)C[N-]C(=O)c2ccc(-c3ccccc3Cl)s2)c1 (optimized conformer: 81.47307251856469 kcal/mol)

>  <smiles>  (53) 
NS(=O)(=O)c1cccc(NC(=O)CNC(=O)c2ccc(-c3ccccc3Cl)s2)c1

>  <score_type>  (53) 
oracle

>  <origin>  (53) 
adg

>  <m_score__min__energy>  (53) 
-14.539999999999999

>  <m_primary>  (53) 
energy

$$$$
53:0
     RDKit          3D

 39 41  0  0  0  0  0  0  0  0999 V2000
   55.7940   26.1570   46.3690 O   0  0  0  0  0  0  0  0  0  0  0  0
   56.5140   27.1180   45.9910 C   0  0  0  0  0  0  0  0  0  0  0  0
   55.9030   28.1780   45.2420 N   0  0  0  0  0  0  0  0  0  0  0  0
   56.5050   29.4390   44.9170 C   0  0  0  0  0  0  0  0  0  0  0  0
   56.4320   29.9790   43.6240 C   0  0  0  0  0  0  0  0  0  0  0  0
   57.0430   31.2040   43.3570 C   0  0  0  0  0  0  0  0  0  0  0  0
   57.7330   31.8860   44.3670 C   0  0  0  0  0  0  0  0  0  0  0  0
   58.3460   33.1560   44.0740 N   0  0  0  0  0  0  0  0  0  0  0  0
   58.2750   34.3290   44.9480 C   0  0  0  0  0  0  0  0  0  0  0  0
   59.2730   34.2140   46.0710 C   0  0  0  0  0  0  0  0  0  0  0  0
   58.8870   34.5140   47.3880 C   0  0  0  0  0  0  0  0  0  0  0  0
   59.8090   34.4070   48.4340 C   0  0  0  0  0  0  0  0  0  0  0  0
   61.1240   34.0070   48.1730 C   0  0  0  0  0  0  0  0  0  0  0  0
   62.3810   33.8600   49.6030 Br  0  0  0  0  0  0  0  0  0  0  0  0
   61.5170   33.7180   46.8620 C   0  0  0  0  0  0  0  0  0  0  0  0
   60.5980   33.8240   45.8140 C   0  0  0  0  0  0  0  0  0  0  0  0
   57.8090   31.2940   45.6400 C   0  0  0  0  0  0  0  0  0  0  0  0
   57.2050   30.1000   45.8770 N   0  0  0  0  0  0  0  0  0  0  0  0
   57.9670   27.0970   46.2830 C   0  0  0  0  0  0  0  0  0  0  0  0
   58.4470   26.6530   47.5290 C   0  0  0  0  0  0  0  0  0  0  0  0
   59.8190   26.6400   47.7950 C   0  0  0  0  0  0  0  0  0  0  0  0
   60.7240   27.0790   46.8260 C   0  0  0  0  0  0  0  0  0  0  0  0
   60.2590   27.5380   45.5920 C   0  0  0  0  0  0  0  0  0  0  0  0
   58.8870   27.5520   45.3210 C   0  0  0  0  0  0  0  0  0  0  0  0
   55.8973   29.4407   42.8276 H   0  0  0  0  0  0  0  0  0  0  0  0
   56.9826   31.6369   42.3475 H   0  0  0  0  0  0  0  0  0  0  0  0
   58.8250   33.2770   43.1520 H   0  0  0  0  0  0  0  0  0  0  0  0
   58.4950   35.2321   44.3598 H   0  0  0  0  0  0  0  0  0  0  0  0
   57.2639   34.3914   45.3767 H   0  0  0  0  0  0  0  0  0  0  0  0
   57.8557   34.8343   47.5973 H   0  0  0  0  0  0  0  0  0  0  0  0
   59.4997   34.6378   49.4641 H   0  0  0  0  0  0  0  0  0  0  0  0
   62.5516   33.4066   46.6553 H   0  0  0  0  0  0  0  0  0  0  0  0
   60.9135   33.6012   44.7840 H   0  0  0  0  0  0  0  0  0  0  0  0
   58.3595   31.7993   46.4472 H   0  0  0  0  0  0  0  0  0  0  0  0
   57.7379   26.3140   48.2986 H   0  0  0  0  0  0  0  0  0  0  0  0
   60.1865   26.2836   48.7686 H   0  0  0  0  0  0  0  0  0  0  0  0
   61.8038   27.0631   47.0351 H   0  0  0  0  0  0  0  0  0  0  0  0
   60.9726   27.8890   44.8321 H   0  0  0  0  0  0  0  0  0  0  0  0
   58.5252   27.9210   44.3499 H   0  0  0  0  0  0  0  0  0  0  0  0
  1  2  2  0
  2  3  1  0
  3  4  1  0
  4  5  2  0
  5  6  1  0
  6  7  2  0
  7  8  1  0
  8  9  1  0
  9 10  1  0
 10 11  2  0
 11 12  1  0
 12 13  2  0
 13 14  1  0
 13 15  1  0
 15 16  2  0
  7 17  1  0
 17 18  2  0
  2 19  1  0
 19 20  2  0
 20 21  1  0
 21 22  2  0
 22 23  1  0
 23 24  2  0
 18  4  1  0
 24 19  1  0
 16 10  1  0
  5 25  1  0
  6 26  1  0
  8 27  1  0
  9 28  1  0
  9 29  1  0
 11 30  1  0
 12 31  1  0
 15 32  1  0
 16 33  1  0
 17 34  1  0
 20 35  1  0
 21 36  1  0
 22 37  1  0
 23 38  1  0
 24 39  1  0
M  CHG  1   3  -1
M  END
>  <UniqueID>  (54) 
46

>  <SMILES>  (54) 
O=C([N-]c1ccc(NCc2ccc(Br)cc2)cn1)c1ccccc1

>  <Energy>  (54) 
48.45572828311143

>  <Genealogy>  (54) 
O=C([N-]c1ccc(NCc2ccc(Br)cc2)cn1)c1ccccc1 (protonated)
O=C([N-]c1ccc(NCc2ccc(Br)cc2)cn1)c1ccccc1 (3D coordinates assigned)
O=C([N-]c1ccc(NCc2ccc(Br)cc2)cn1)c1ccccc1 (optimized conformer: 48.45572828311143 kcal/mol)

>  <smiles>  (54) 
O=C(Nc1ccc(NCc2ccc(Br)cc2)cn1)c1ccccc1

>  <score_type>  (54) 
oracle

>  <origin>  (54) 
adg

>  <m_score__min__energy>  (54) 
-11.029999999999999

>  <m_primary>  (54) 
energy

$$$$
54:0
     RDKit          3D

 52 55  0  0  0  0  0  0  0  0999 V2000
   54.0180   24.7370   45.5580 C   0  0  0  0  0  0  0  0  0  0  0  0
   54.5330   26.0280   45.8580 O   0  0  0  0  0  0  0  0  0  0  0  0
   55.8880   26.3050   46.0760 C   0  0  0  0  0  0  0  0  0  0  0  0
   56.4970   27.4900   45.6180 C   0  0  0  0  0  0  0  0  0  0  0  0
   57.8500   27.7370   45.8850 C   0  0  0  0  0  0  0  0  0  0  0  0
   58.6080   26.8080   46.6080 C   0  0  0  0  0  0  0  0  0  0  0  0
   60.2980   27.1520   46.9610 S   0  0  0  0  0  0  0  0  0  0  0  0
   61.1510   26.1170   46.2800 O   0  0  0  0  0  0  0  0  0  0  0  0
   60.5660   27.0960   48.4390 O   0  0  0  0  0  0  0  0  0  0  0  0
   60.7140   28.7230   46.3550 N   0  0  0  0  0  0  0  0  0  0  0  0
   60.3640   29.9560   47.0110 C   0  0  0  0  0  0  0  0  0  0  0  0
   59.7700   29.9760   48.2860 C   0  0  0  0  0  0  0  0  0  0  0  0
   59.4450   31.1890   48.8960 C   0  0  0  0  0  0  0  0  0  0  0  0
   59.6950   32.4040   48.2420 C   0  0  0  0  0  0  0  0  0  0  0  0
   60.2870   32.3900   46.9710 C   0  0  0  0  0  0  0  0  0  0  0  0
   60.6370   31.1710   46.3700 C   0  0  0  0  0  0  0  0  0  0  0  0
   60.5210   33.6880   46.2540 C   0  0  0  0  0  0  0  0  0  0  0  0
   59.4730   34.6730   46.5740 N   0  0  0  0  0  0  0  0  0  0  0  0
   58.2070   34.5380   45.8160 C   0  0  0  0  0  0  0  0  0  0  0  0
   58.0210   33.1870   45.1660 C   0  0  0  0  0  0  0  0  0  0  0  0
   58.3370   32.9990   43.8140 C   0  0  0  0  0  0  0  0  0  0  0  0
   58.1340   31.7580   43.2130 C   0  0  0  0  0  0  0  0  0  0  0  0
   57.6180   30.7030   43.9710 C   0  0  0  0  0  0  0  0  0  0  0  0
   57.3020   30.8970   45.2770 N   0  0  0  0  0  0  0  0  0  0  0  0
   57.4850   32.1010   45.8840 C   0  0  0  0  0  0  0  0  0  0  0  0
   59.3270   34.9540   48.0200 C   0  0  0  0  0  0  0  0  0  0  0  0
   59.3540   33.6990   48.9350 C   0  0  0  0  0  0  0  0  0  0  0  0
   58.0080   25.6200   47.0470 C   0  0  0  0  0  0  0  0  0  0  0  0
   56.6560   25.3730   46.7810 C   0  0  0  0  0  0  0  0  0  0  0  0
   53.8041   24.2009   46.4944 H   0  0  0  0  0  0  0  0  0  0  0  0
   53.0915   24.8385   44.9738 H   0  0  0  0  0  0  0  0  0  0  0  0
   54.7600   24.1729   44.9738 H   0  0  0  0  0  0  0  0  0  0  0  0
   55.9080   28.2241   45.0486 H   0  0  0  0  0  0  0  0  0  0  0  0
   58.3188   28.6647   45.5251 H   0  0  0  0  0  0  0  0  0  0  0  0
   61.1480   28.7590   45.4010 H   0  0  0  0  0  0  0  0  0  0  0  0
   59.5602   29.0296   48.8059 H   0  0  0  0  0  0  0  0  0  0  0  0
   58.9894   31.1917   49.8972 H   0  0  0  0  0  0  0  0  0  0  0  0
   61.1301   31.1698   45.3867 H   0  0  0  0  0  0  0  0  0  0  0  0
   61.4979   34.0933   46.5563 H   0  0  0  0  0  0  0  0  0  0  0  0
   60.4976   33.4956   45.1712 H   0  0  0  0  0  0  0  0  0  0  0  0
   57.3694   34.7068   46.5088 H   0  0  0  0  0  0  0  0  0  0  0  0
   58.2414   35.2796   45.0043 H   0  0  0  0  0  0  0  0  0  0  0  0
   58.7464   33.8331   43.2253 H   0  0  0  0  0  0  0  0  0  0  0  0
   58.3779   31.6100   42.1506 H   0  0  0  0  0  0  0  0  0  0  0  0
   57.4680   29.7158   43.5095 H   0  0  0  0  0  0  0  0  0  0  0  0
   57.2125   32.2266   46.9423 H   0  0  0  0  0  0  0  0  0  0  0  0
   60.1504   35.6168   48.3244 H   0  0  0  0  0  0  0  0  0  0  0  0
   58.3333   35.4082   48.1477 H   0  0  0  0  0  0  0  0  0  0  0  0
   60.1015   33.8695   49.7238 H   0  0  0  0  0  0  0  0  0  0  0  0
   58.3296   33.5790   49.3173 H   0  0  0  0  0  0  0  0  0  0  0  0
   58.6015   24.8790   47.6026 H   0  0  0  0  0  0  0  0  0  0  0  0
   56.1937   24.4377   47.1296 H   0  0  0  0  0  0  0  0  0  0  0  0
  1  2  1  0
  2  3  1  0
  3  4  2  0
  4  5  1  0
  5  6  2  0
  6  7  1  0
  7  8  2  0
  7  9  2  0
  7 10  1  0
 10 11  1  0
 11 12  2  0
 12 13  1  0
 13 14  2  0
 14 15  1  0
 15 16  2  0
 15 17  1  0
 17 18  1  0
 18 19  1  0
 19 20  1  0
 20 21  2  0
 21 22  1  0
 22 23  2  0
 23 24  1  0
 24 25  2  0
 18 26  1  0
 26 27  1  0
  6 28  1  0
 28 29  2  0
 29  3  1  0
 16 11  1  0
 25 20  1  0
 27 14  1  0
  1 30  1  0
  1 31  1  0
  1 32  1  0
  4 33  1  0
  5 34  1  0
 10 35  1  0
 12 36  1  0
 13 37  1  0
 16 38  1  0
 17 39  1  0
 17 40  1  0
 19 41  1  0
 19 42  1  0
 21 43  1  0
 22 44  1  0
 23 45  1  0
 25 46  1  0
 26 47  1  0
 26 48  1  0
 27 49  1  0
 27 50  1  0
 28 51  1  0
 29 52  1  0
M  END
>  <UniqueID>  (55) 
47

>  <SMILES>  (55) 
COc1ccc(S(=O)(=O)Nc2ccc3c(c2)CN(Cc2cccnc2)CC3)cc1

>  <Energy>  (55) 
66.93192810239519

>  <Genealogy>  (55) 
COc1ccc(S(=O)(=O)Nc2ccc3c(c2)CN(Cc2cccnc2)CC3)cc1 (3D coordinates assigned)
COc1ccc(S(=O)(=O)Nc2ccc3c(c2)CN(Cc2cccnc2)CC3)cc1 (nonaromatic ring conformer: 66.93192810239519 kcal/mol)

>  <smiles>  (55) 
COc1ccc(S(=O)(=O)Nc2ccc3c(c2)CN(Cc2cccnc2)CC3)cc1

>  <score_type>  (55) 
oracle

>  <origin>  (55) 
adg

>  <m_score__min__energy>  (55) 
-9.5700000000000003

>  <m_primary>  (55) 
energy

$$$$
55:0
     RDKit          3D

 57 59  0  0  0  0  0  0  0  0999 V2000
   56.5980   29.5580   42.6130 C   0  0  0  0  0  0  0  0  0  0  0  0
   56.3170   30.8950   43.2950 C   0  0  0  0  0  0  0  0  0  0  0  0
   57.5210   31.7390   43.2750 N   0  0  0  0  0  0  0  0  0  0  0  0
   58.1200   32.1660   42.0050 C   0  0  0  0  0  0  0  0  0  0  0  0
   57.0430   32.4130   40.9540 C   0  0  0  0  0  0  0  0  0  0  0  0
   58.0760   32.2050   44.5170 C   0  0  0  0  0  0  0  0  0  0  0  0
   58.6950   33.4600   44.5700 C   0  0  0  0  0  0  0  0  0  0  0  0
   59.2680   33.9170   45.7570 C   0  0  0  0  0  0  0  0  0  0  0  0
   59.2160   33.1310   46.9130 C   0  0  0  0  0  0  0  0  0  0  0  0
   59.9540   33.7010   48.4110 S   0  0  0  0  0  0  0  0  0  0  0  0
   59.7510   32.6710   49.4890 O   0  0  0  0  0  0  0  0  0  0  0  0
   59.2750   34.9700   48.8470 O   0  0  0  0  0  0  0  0  0  0  0  0
   61.6640   34.0050   48.2080 N   0  0  0  0  0  0  0  0  0  0  0  0
   62.3960   33.6760   49.4460 C   0  0  0  0  0  0  0  0  0  0  0  0
   63.8890   33.4560   49.1500 C   0  0  0  0  0  0  0  0  0  0  0  0
   64.1520   32.4000   48.2310 O   0  0  0  0  0  0  0  0  0  0  0  0
   63.0510   32.0860   47.3880 C   0  0  0  0  0  0  0  0  0  0  0  0
   62.2010   33.3160   47.0140 C   0  0  0  0  0  0  0  0  0  0  0  0
   58.5780   31.8850   46.8710 C   0  0  0  0  0  0  0  0  0  0  0  0
   58.0290   31.4020   45.6710 C   0  0  0  0  0  0  0  0  0  0  0  0
   57.3530   30.1370   45.6240 N   0  0  0  0  0  0  0  0  0  0  0  0
   57.9730   28.8560   45.7820 C   0  0  0  0  0  0  0  0  0  0  0  0
   59.0090   28.7300   46.4880 O   0  0  0  0  0  0  0  0  0  0  0  0
   57.4460   27.6850   45.0150 C   0  0  0  0  0  0  0  0  0  0  0  0
   57.2440   26.5380   45.9020 N   0  0  0  0  0  0  0  0  0  0  0  0
   56.0690   26.0320   46.3200 C   0  0  0  0  0  0  0  0  0  0  0  0
   54.8270   26.5760   46.0050 O   0  0  0  0  0  0  0  0  0  0  0  0
   56.2630   24.9090   47.1000 C   0  0  0  0  0  0  0  0  0  0  0  0
   57.6300   24.7100   47.1500 C   0  0  0  0  0  0  0  0  0  0  0  0
   58.1940   25.7250   46.3990 C   0  0  0  0  0  0  0  0  0  0  0  0
   59.5580   25.8900   46.1690 O   0  0  0  0  0  0  0  0  0  0  0  0
   56.7607   28.7837   43.3771 H   0  0  0  0  0  0  0  0  0  0  0  0
   55.7389   29.2789   41.9853 H   0  0  0  0  0  0  0  0  0  0  0  0
   57.4968   29.6483   41.9853 H   0  0  0  0  0  0  0  0  0  0  0  0
   55.5035   31.4101   42.7632 H   0  0  0  0  0  0  0  0  0  0  0  0
   56.0257   30.7105   44.3396 H   0  0  0  0  0  0  0  0  0  0  0  0
   58.6852   33.0956   42.1674 H   0  0  0  0  0  0  0  0  0  0  0  0
   58.7879   31.3696   41.6449 H   0  0  0  0  0  0  0  0  0  0  0  0
   56.0874   32.6322   41.4527 H   0  0  0  0  0  0  0  0  0  0  0  0
   57.3331   33.2679   40.3256 H   0  0  0  0  0  0  0  0  0  0  0  0
   56.9316   31.5171   40.3256 H   0  0  0  0  0  0  0  0  0  0  0  0
   58.7297   34.0901   43.6690 H   0  0  0  0  0  0  0  0  0  0  0  0
   59.7626   34.8992   45.7840 H   0  0  0  0  0  0  0  0  0  0  0  0
   62.2876   34.5047   50.1611 H   0  0  0  0  0  0  0  0  0  0  0  0
   61.9784   32.7507   49.8696 H   0  0  0  0  0  0  0  0  0  0  0  0
   64.2988   34.3873   48.7320 H   0  0  0  0  0  0  0  0  0  0  0  0
   64.3618   33.1722   50.1018 H   0  0  0  0  0  0  0  0  0  0  0  0
   63.4373   31.6338   46.4626 H   0  0  0  0  0  0  0  0  0  0  0  0
   62.3997   31.3964   47.9450 H   0  0  0  0  0  0  0  0  0  0  0  0
   62.8277   34.0218   46.4490 H   0  0  0  0  0  0  0  0  0  0  0  0
   61.3488   32.9685   46.4115 H   0  0  0  0  0  0  0  0  0  0  0  0
   58.5060   31.2787   47.7860 H   0  0  0  0  0  0  0  0  0  0  0  0
   56.4860   27.9580   44.5524 H   0  0  0  0  0  0  0  0  0  0  0  0
   58.1767   27.4102   44.2401 H   0  0  0  0  0  0  0  0  0  0  0  0
   55.4872   24.2971   47.5834 H   0  0  0  0  0  0  0  0  0  0  0  0
   58.1619   23.9063   47.6803 H   0  0  0  0  0  0  0  0  0  0  0  0
   59.9750   26.8120   46.1460 H   0  0  0  0  0  0  0  0  0  0  0  0
  1  2  1  0
  2  3  1  0
  3  4  1  0
  4  5  1  0
  3  6  1  0
  6  7  2  0
  7  8  1  0
  8  9  2  0
  9 10  1  0
 10 11  2  0
 10 12  2  0
 10 13  1  0
 13 14  1  0
 14 15  1  0
 15 16  1  0
 16 17  1  0
 17 18  1  0
  9 19  1  0
 19 20  2  0
 20 21  1  0
 21 22  1  0
 22 23  2  0
 22 24  1  0
 24 25  1  0
 25 26  1  0
 26 27  1  0
 26 28  2  0
 28 29  1  0
 29 30  2  0
 30 31  1  0
 20  6  1  0
 30 25  1  0
 18 13  1  0
  1 32  1  0
  1 33  1  0
  1 34  1  0
  2 35  1  0
  2 36  1  0
  4 37  1  0
  4 38  1  0
  5 39  1  0
  5 40  1  0
  5 41  1  0
  7 42  1  0
  8 43  1  0
 14 44  1  0
 14 45  1  0
 15 46  1  0
 15 47  1  0
 17 48  1  0
 17 49  1  0
 18 50  1  0
 18 51  1  0
 19 52  1  0
 24 53  1  0
 24 54  1  0
 28 55  1  0
 29 56  1  0
 31 57  1  0
M  CHG  2  21  -1  27  -1
M  END
>  <UniqueID>  (56) 
48

>  <SMILES>  (56) 
CCN(CC)c1ccc(S(=O)(=O)N2CCOCC2)cc1[N-]C(=O)Cn1c([O-])ccc1O

>  <Energy>  (56) 
95.4949355147133

>  <Genealogy>  (56) 
CCN(CC)c1ccc(S(=O)(=O)N2CCOCC2)cc1[N-]C(=O)Cn1c([O-])ccc1O (protonated)
CCN(CC)c1ccc(S(=O)(=O)N2CCOCC2)cc1[N-]C(=O)Cn1c([O-])ccc1O (3D coordinates assigned)
CCN(CC)c1ccc(S(=O)(=O)N2CCOCC2)cc1[N-]C(=O)Cn1c([O-])ccc1O (nonaromatic ring conformer: 95.4949355147133 kcal/mol)

>  <smiles>  (56) 
CCN(CC)c1ccc(S(=O)(=O)N2CCOCC2)cc1NC(=O)Cn1c(O)ccc1O

>  <score_type>  (56) 
oracle

>  <origin>  (56) 
adg

>  <m_score__min__energy>  (56) 
-13.07

>  <m_primary>  (56) 
energy

$$$$
56:0
     RDKit          3D

 68 71  0  0  1  0  0  0  0  0999 V2000
   58.2430   21.9690   44.1490 C   0  0  0  0  0  0  0  0  0  0  0  0
   57.2260   22.6860   43.4830 O   0  0  0  0  0  0  0  0  0  0  0  0
   56.3340   23.4260   44.2080 C   0  0  0  0  0  0  0  0  0  0  0  0
   56.7410   24.5640   44.8630 C   0  0  0  0  0  0  0  0  0  0  0  0
   55.8350   25.3020   45.5890 C   0  0  0  0  0  0  0  0  0  0  0  0
   56.2010   26.3520   46.1940 N   0  0  0  0  0  0  0  0  0  0  0  0
   56.8770   27.7480   45.4980 S   0  0  0  0  0  0  0  0  0  0  0  0
   57.3980   27.2980   44.1220 O   0  0  0  0  0  0  0  0  0  0  0  0
   55.8900   28.8240   45.1620 O   0  0  0  0  0  0  0  0  0  0  0  0
   58.1950   28.4290   46.4210 C   0  0  0  0  0  0  0  0  0  0  0  0
   58.8440   29.5370   45.9190 C   0  0  0  0  0  0  0  0  0  0  0  0
   59.9030   30.1240   46.6220 C   0  0  0  0  0  0  0  0  0  0  0  0
   60.3480   29.6420   47.8250 C   0  0  0  0  0  0  0  0  0  0  0  0
   61.4040   30.1770   48.5880 N   0  0  0  0  0  0  0  0  0  0  0  0
   61.4010   30.4540   49.9650 C   0  0  0  0  0  0  0  0  0  0  0  0
   60.3870   30.2290   50.6700 O   0  0  0  0  0  0  0  0  0  0  0  0
   62.5550   31.0160   50.6860 C   0  0  0  0  0  0  0  0  0  0  0  0
   63.1730   30.3680   51.7290 C   0  0  0  0  0  0  0  0  0  0  0  0
   64.2510   30.9210   52.3840 C   0  0  0  0  0  0  0  0  0  0  0  0
   64.7570   32.1520   52.0210 C   0  0  0  0  0  0  0  0  0  0  0  0
   64.1400   32.8010   50.9790 C   0  0  0  0  0  0  0  0  0  0  0  0
   63.0450   32.2460   50.3070 C   0  0  0  0  0  0  0  0  0  0  0  0
   62.5090   33.0260   49.2520 N   0  0  0  0  0  0  0  0  0  0  0  0
   62.8510   32.6310   47.9230 C   0  0  0  0  0  0  0  0  0  0  0  0
   63.5970   31.6280   47.7150 O   0  0  0  0  0  0  0  0  0  0  0  0
   62.3520   33.3740   46.7220 C   0  0  2  0  0  0  0  0  0  0  0  0
   63.4930   34.2310   46.2180 C   0  0  0  0  0  0  0  0  0  0  0  0
   61.2540   34.1390   47.1140 O   0  0  0  0  0  0  0  0  0  0  0  0
   59.9570   34.0040   46.7010 C   0  0  0  0  0  0  0  0  0  0  0  0
   59.4350   34.4480   45.5200 C   0  0  0  0  0  0  0  0  0  0  0  0
   58.0990   34.2710   45.1690 C   0  0  0  0  0  0  0  0  0  0  0  0
   57.2640   33.6200   46.0490 C   0  0  0  0  0  0  0  0  0  0  0  0
   57.7530   33.1540   47.2600 C   0  0  0  0  0  0  0  0  0  0  0  0
   59.0820   33.3470   47.5720 C   0  0  0  0  0  0  0  0  0  0  0  0
   59.6740   28.5190   48.3120 C   0  0  0  0  0  0  0  0  0  0  0  0
   58.6300   27.9360   47.6250 C   0  0  0  0  0  0  0  0  0  0  0  0
   54.5570   24.8610   45.6280 N   0  0  0  0  0  0  0  0  0  0  0  0
   54.1730   23.7370   44.9760 C   0  0  0  0  0  0  0  0  0  0  0  0
   52.8480   23.2860   45.0200 O   0  0  0  0  0  0  0  0  0  0  0  0
   51.8190   24.1820   44.6040 C   0  0  0  0  0  0  0  0  0  0  0  0
   55.0510   23.0060   44.2620 N   0  0  0  0  0  0  0  0  0  0  0  0
   58.1072   22.0647   45.2364 H   0  0  0  0  0  0  0  0  0  0  0  0
   58.1897   20.9077   43.8648 H   0  0  0  0  0  0  0  0  0  0  0  0
   59.2247   22.3758   43.8648 H   0  0  0  0  0  0  0  0  0  0  0  0
   57.7917   24.8847   44.8066 H   0  0  0  0  0  0  0  0  0  0  0  0
   58.5265   29.9642   44.9563 H   0  0  0  0  0  0  0  0  0  0  0  0
   60.3974   31.0073   46.1915 H   0  0  0  0  0  0  0  0  0  0  0  0
   62.3010   30.3970   48.0720 H   0  0  0  0  0  0  0  0  0  0  0  0
   62.7977   29.3845   52.0480 H   0  0  0  0  0  0  0  0  0  0  0  0
   64.7180   30.3699   53.2135 H   0  0  0  0  0  0  0  0  0  0  0  0
   65.6177   32.5950   52.5435 H   0  0  0  0  0  0  0  0  0  0  0  0
   64.5175   33.7850   50.6639 H   0  0  0  0  0  0  0  0  0  0  0  0
   61.8890   33.8580   49.4110 H   0  0  0  0  0  0  0  0  0  0  0  0
   62.0280   32.7049   45.9112 H   0  0  0  0  0  0  0  0  0  0  0  0
   64.0456   34.6461   47.0738 H   0  0  0  0  0  0  0  0  0  0  0  0
   64.1708   33.6168   45.6069 H   0  0  0  0  0  0  0  0  0  0  0  0
   63.0920   35.0531   45.6069 H   0  0  0  0  0  0  0  0  0  0  0  0
   60.0992   34.9686   44.8145 H   0  0  0  0  0  0  0  0  0  0  0  0
   57.7181   34.6442   44.2069 H   0  0  0  0  0  0  0  0  0  0  0  0
   56.2055   33.4690   45.7906 H   0  0  0  0  0  0  0  0  0  0  0  0
   57.0869   32.6352   47.9651 H   0  0  0  0  0  0  0  0  0  0  0  0
   59.4650   32.9737   48.5332 H   0  0  0  0  0  0  0  0  0  0  0  0
   59.9861   28.0862   49.2739 H   0  0  0  0  0  0  0  0  0  0  0  0
   58.1333   27.0530   48.0535 H   0  0  0  0  0  0  0  0  0  0  0  0
   51.3264   24.6109   45.4891 H   0  0  0  0  0  0  0  0  0  0  0  0
   52.2583   24.9904   44.0011 H   0  0  0  0  0  0  0  0  0  0  0  0
   51.0787   23.6357   44.0011 H   0  0  0  0  0  0  0  0  0  0  0  0
   54.7670   22.1290   43.7500 H   0  0  0  0  0  0  0  0  0  0  0  0
  1  2  1  0
  2  3  1  0
  3  4  2  0
  4  5  1  0
  5  6  2  0
  6  7  1  0
  7  8  2  0
  7  9  2  0
  7 10  1  0
 10 11  2  0
 11 12  1  0
 12 13  2  0
 13 14  1  0
 14 15  1  0
 15 16  2  0
 15 17  1  0
 17 18  2  0
 18 19  1  0
 19 20  2  0
 20 21  1  0
 21 22  2  0
 22 23  1  0
 23 24  1  0
 24 25  2  0
 24 26  1  0
 26 27  1  0
 26 28  1  0
 28 29  1  0
 29 30  2  0
 30 31  1  0
 31 32  2  0
 32 33  1  0
 33 34  2  0
 13 35  1  0
 35 36  2  0
  5 37  1  0
 37 38  2  0
 38 39  1  0
 39 40  1  0
 38 41  1  0
 41  3  1  0
 36 10  1  0
 22 17  1  0
 34 29  1  0
  1 42  1  0
  1 43  1  0
  1 44  1  0
  4 45  1  0
 11 46  1  0
 12 47  1  0
 14 48  1  0
 18 49  1  0
 19 50  1  0
 20 51  1  0
 21 52  1  0
 23 53  1  0
 26 54  1  6
 27 55  1  0
 27 56  1  0
 27 57  1  0
 30 58  1  0
 31 59  1  0
 32 60  1  0
 33 61  1  0
 34 62  1  0
 35 63  1  0
 36 64  1  0
 40 65  1  0
 40 66  1  0
 40 67  1  0
 41 68  1  0
M  END
>  <smiles>  (57) 
COc1cc(=NS(=O)(=O)c2ccc(NC(=O)c3ccccc3NC(=O)C(C)Oc3ccccc3)cc2)nc(OC)[nH]1

>  <score_type>  (57) 
oracle

>  <origin>  (57) 
adg

>  <m_score__min__energy>  (57) 
-9.8300000000000001

>  <m_primary>  (57) 
energy

$$$$
57:0
     RDKit          3D

 45 50  0  0  0  0  0  0  0  0999 V2000
   58.5970   35.0790   51.4060 H   0  0  0  0  0  0  0  0  0  0  0  0
   59.2620   34.5790   50.8270 O   0  0  0  0  0  0  0  0  0  0  0  0
   59.3530   33.1890   50.8580 C   0  0  0  0  0  0  0  0  0  0  0  0
   60.5740   32.5700   50.5720 C   0  0  0  0  0  0  0  0  0  0  0  0
   61.4542   33.1820   50.3257 H   0  0  0  0  0  0  0  0  0  0  0  0
   60.6800   31.1760   50.5980 C   0  0  0  0  0  0  0  0  0  0  0  0
   61.6422   30.6953   50.3679 H   0  0  0  0  0  0  0  0  0  0  0  0
   59.5620   30.3870   50.9170 C   0  0  0  0  0  0  0  0  0  0  0  0
   59.6600   28.8850   50.9220 C   0  0  0  0  0  0  0  0  0  0  0  0
   60.4585   28.5768   51.6130 H   0  0  0  0  0  0  0  0  0  0  0  0
   58.6954   28.4671   51.2458 H   0  0  0  0  0  0  0  0  0  0  0  0
   59.9650   28.3860   49.5810 N   0  0  0  0  0  0  0  0  0  0  0  0
   59.3240   28.7380   48.5080 C   0  0  0  0  0  0  0  0  0  0  0  0
   59.4500   29.9560   47.9180 N   0  0  0  0  0  0  0  0  0  0  0  0
   58.6010   29.8230   46.8820 C   0  0  0  0  0  0  0  0  0  0  0  0
   58.3090   30.7750   45.9150 C   0  0  0  0  0  0  0  0  0  0  0  0
   58.8820   32.0090   45.9100 N   0  0  0  0  0  0  0  0  0  0  0  0
   58.5750   32.9210   44.9490 C   0  0  0  0  0  0  0  0  0  0  0  0
   59.0502   33.9130   44.9633 H   0  0  0  0  0  0  0  0  0  0  0  0
   57.6560   32.6020   43.9410 C   0  0  0  0  0  0  0  0  0  0  0  0
   57.4082   33.3412   43.1650 H   0  0  0  0  0  0  0  0  0  0  0  0
   57.0550   31.3390   43.9260 C   0  0  0  0  0  0  0  0  0  0  0  0
   56.3324   31.0786   43.1385 H   0  0  0  0  0  0  0  0  0  0  0  0
   57.3790   30.4110   44.9180 C   0  0  0  0  0  0  0  0  0  0  0  0
   56.8070   29.1690   44.9330 N   0  0  0  0  0  0  0  0  0  0  0  0
   57.1160   28.2550   45.9000 C   0  0  0  0  0  0  0  0  0  0  0  0
   56.4810   26.9170   45.8930 C   0  0  0  0  0  0  0  0  0  0  0  0
   55.1460   26.7130   46.0010 N   0  0  0  0  0  0  0  0  0  0  0  0
   54.8920   25.4090   45.9630 N   0  0  0  0  0  0  0  0  0  0  0  0
   56.0700   24.7780   45.8290 C   0  0  0  0  0  0  0  0  0  0  0  0
   56.2900   23.4050   45.7450 C   0  0  0  0  0  0  0  0  0  0  0  0
   55.4537   22.6915   45.7852 H   0  0  0  0  0  0  0  0  0  0  0  0
   57.6180   22.9620   45.6070 C   0  0  0  0  0  0  0  0  0  0  0  0
   57.8307   21.8849   45.5384 H   0  0  0  0  0  0  0  0  0  0  0  0
   58.6800   23.8920   45.5560 C   0  0  0  0  0  0  0  0  0  0  0  0
   59.7142   23.5334   45.4466 H   0  0  0  0  0  0  0  0  0  0  0  0
   58.4260   25.2740   45.6440 C   0  0  0  0  0  0  0  0  0  0  0  0
   59.2453   26.0070   45.6063 H   0  0  0  0  0  0  0  0  0  0  0  0
   57.0960   25.6820   45.7810 C   0  0  0  0  0  0  0  0  0  0  0  0
   58.0150   28.6200   46.8560 N   0  0  0  0  0  0  0  0  0  0  0  0
   58.4580   27.9110   47.8780 N   0  0  0  0  0  0  0  0  0  0  0  0
   58.3370   31.0120   51.2000 C   0  0  0  0  0  0  0  0  0  0  0  0
   57.4544   30.4022   51.4432 H   0  0  0  0  0  0  0  0  0  0  0  0
   58.2340   32.4060   51.1740 C   0  0  0  0  0  0  0  0  0  0  0  0
   57.2726   32.8895   51.4020 H   0  0  0  0  0  0  0  0  0  0  0  0
  1  2  1  0
  2  3  1  0
  3  4  2  0
  4  5  1  0
  4  6  1  0
  6  7  1  0
  6  8  2  0
  8  9  1  0
  9 10  1  0
  9 11  1  0
  9 12  1  0
 12 13  2  0
 13 14  1  0
 14 15  2  0
 15 16  1  0
 16 17  2  0
 17 18  1  0
 18 19  1  0
 18 20  2  0
 20 21  1  0
 20 22  1  0
 22 23  1  0
 22 24  2  0
 24 25  1  0
 25 26  2  0
 26 27  1  0
 27 28  1  0
 28 29  1  0
 29 30  2  0
 30 31  1  0
 31 32  1  0
 31 33  2  0
 33 34  1  0
 33 35  1  0
 35 36  1  0
 35 37  2  0
 37 38  1  0
 37 39  1  0
 26 40  1  0
 40 41  1  0
  8 42  1  0
 42 43  1  0
 42 44  2  0
 44 45  1  0
 44  3  1  0
 41 13  1  0
 40 15  1  0
 24 16  1  0
 39 27  2  0
 39 30  1  0
M  CHG  2  28  -1  41  -1
M  END
>  <UniqueID>  (58) 
49

>  <SMILES>  (58) 
Oc1ccc(C/N=c2\nc3c4ncccc4nc(-c4[n-]nc5ccccc45)n3[n-]2)cc1

>  <Energy>  (58) 
134.7362572293411

>  <Genealogy>  (58) 
Oc1ccc(CN=c2nc3c4ncccc4nc(-c4[n-]nc5ccccc45)n3[n-]2)cc1 (protonated)
Oc1ccc(C/N=c2\nc3c4ncccc4nc(-c4[n-]nc5ccccc45)n3[n-]2)cc1 (cis-trans isomerization)
Oc1ccc(C/N=c2\nc3c4ncccc4nc(-c4[n-]nc5ccccc45)n3[n-]2)cc1 (3D coordinates assigned)
Oc1ccc(C/N=c2\nc3c4ncccc4nc(-c4[n-]nc5ccccc45)n3[n-]2)cc1 (optimized conformer: 134.7362572293411 kcal/mol)

>  <smiles>  (58) 
Oc1ccc(CN=c2nc3c4ncccc4nc(-c4[nH]nc5ccccc45)n3[nH]2)cc1

>  <score_type>  (58) 
oracle

>  <origin>  (58) 
adg

>  <m_score__min__energy>  (58) 
-13.199999999999999

>  <m_primary>  (58) 
energy

$$$$
58:0
     RDKit          3D

 45 47  0  0  0  0  0  0  0  0999 V2000
   55.1440   28.9690   44.5040 N   0  0  0  0  0  0  0  0  0  0  0  0
   56.4710   30.0170   44.1410 S   0  0  0  0  0  0  0  0  0  0  0  0
   56.1070   31.4300   44.5050 O   0  0  0  0  0  0  0  0  0  0  0  0
   56.7730   29.9600   42.6700 O   0  0  0  0  0  0  0  0  0  0  0  0
   57.8840   29.5050   45.0580 C   0  0  0  0  0  0  0  0  0  0  0  0
   58.7910   28.5900   44.5080 C   0  0  0  0  0  0  0  0  0  0  0  0
   59.9300   28.2140   45.2240 C   0  0  0  0  0  0  0  0  0  0  0  0
   60.1690   28.7470   46.4940 C   0  0  0  0  0  0  0  0  0  0  0  0
   59.2620   29.6520   47.0660 C   0  0  0  0  0  0  0  0  0  0  0  0
   59.5490   30.2170   48.3560 N   0  0  0  0  0  0  0  0  0  0  0  0
   60.8750   30.4850   48.8350 C   0  0  0  0  0  0  0  0  0  0  0  0
   61.8450   30.5570   48.0320 O   0  0  0  0  0  0  0  0  0  0  0  0
   61.1210   30.6840   50.3000 C   0  0  0  0  0  0  0  0  0  0  0  0
   59.9150   31.1830   50.9490 N   0  0  0  0  0  0  0  0  0  0  0  0
   59.0760   32.1990   50.3880 C   0  0  0  0  0  0  0  0  0  0  0  0
   57.8760   31.9480   50.0990 O   0  0  0  0  0  0  0  0  0  0  0  0
   59.6270   33.5720   50.1530 C   0  0  0  0  0  0  0  0  0  0  0  0
   60.3090   33.6540   48.8030 C   0  0  0  0  0  0  0  0  0  0  0  0
   61.7120   33.7310   48.7730 C   0  0  0  0  0  0  0  0  0  0  0  0
   62.3990   33.8220   47.5640 C   0  0  0  0  0  0  0  0  0  0  0  0
   61.7030   33.8440   46.3590 C   0  0  0  0  0  0  0  0  0  0  0  0
   60.3020   33.7850   46.3520 C   0  0  0  0  0  0  0  0  0  0  0  0
   59.6080   33.8200   45.1310 C   0  0  0  0  0  0  0  0  0  0  0  0
   58.2150   33.7720   45.1120 C   0  0  0  0  0  0  0  0  0  0  0  0
   57.5010   33.6870   46.3070 C   0  0  0  0  0  0  0  0  0  0  0  0
   58.1750   33.6480   47.5300 C   0  0  0  0  0  0  0  0  0  0  0  0
   59.5860   33.6940   47.5770 C   0  0  0  0  0  0  0  0  0  0  0  0
   58.1260   30.0420   46.3310 C   0  0  0  0  0  0  0  0  0  0  0  0
   54.6770   29.3510   45.3570 H   0  0  0  0  0  0  0  0  0  0  0  0
   58.6058   28.1665   43.5098 H   0  0  0  0  0  0  0  0  0  0  0  0
   60.6406   27.4968   44.7874 H   0  0  0  0  0  0  0  0  0  0  0  0
   61.0733   28.4553   47.0481 H   0  0  0  0  0  0  0  0  0  0  0  0
   58.7420   30.4810   48.9670 H   0  0  0  0  0  0  0  0  0  0  0  0
   61.4075   29.7240   50.7542 H   0  0  0  0  0  0  0  0  0  0  0  0
   61.9298   31.4177   50.4320 H   0  0  0  0  0  0  0  0  0  0  0  0
   58.8042   34.3014   50.1863 H   0  0  0  0  0  0  0  0  0  0  0  0
   60.3671   33.7937   50.9360 H   0  0  0  0  0  0  0  0  0  0  0  0
   62.2759   33.7193   49.7174 H   0  0  0  0  0  0  0  0  0  0  0  0
   63.4976   33.8768   47.5621 H   0  0  0  0  0  0  0  0  0  0  0  0
   62.2537   33.9079   45.4089 H   0  0  0  0  0  0  0  0  0  0  0  0
   60.1665   33.8856   44.1856 H   0  0  0  0  0  0  0  0  0  0  0  0
   57.6778   33.8012   44.1525 H   0  0  0  0  0  0  0  0  0  0  0  0
   56.4018   33.6505   46.2864 H   0  0  0  0  0  0  0  0  0  0  0  0
   57.6010   33.5808   48.4660 H   0  0  0  0  0  0  0  0  0  0  0  0
   57.4235   30.7728   46.7581 H   0  0  0  0  0  0  0  0  0  0  0  0
  1  2  1  0
  2  3  2  0
  2  4  2  0
  2  5  1  0
  5  6  2  0
  6  7  1  0
  7  8  2  0
  8  9  1  0
  9 10  1  0
 10 11  1  0
 11 12  2  0
 11 13  1  0
 13 14  1  0
 14 15  1  0
 15 16  2  0
 15 17  1  0
 17 18  1  0
 18 19  2  0
 19 20  1  0
 20 21  2  0
 21 22  1  0
 22 23  2  0
 23 24  1  0
 24 25  2  0
 25 26  1  0
 26 27  2  0
  9 28  2  0
 28  5  1  0
 27 18  1  0
 27 22  1  0
  1 29  1  0
  6 30  1  0
  7 31  1  0
  8 32  1  0
 10 33  1  0
 13 34  1  0
 13 35  1  0
 17 36  1  0
 17 37  1  0
 19 38  1  0
 20 39  1  0
 21 40  1  0
 23 41  1  0
 24 42  1  0
 25 43  1  0
 26 44  1  0
 28 45  1  0
M  CHG  2   1  -1  14  -1
M  END
>  <UniqueID>  (59) 
50

>  <SMILES>  (59) 
[NH-]S(=O)(=O)c1cccc(NC(=O)C[N-]C(=O)Cc2cccc3ccccc23)c1

>  <Energy>  (59) 
51.453487029220085

>  <Genealogy>  (59) 
[NH-]S(=O)(=O)c1cccc(NC(=O)C[N-]C(=O)Cc2cccc3ccccc23)c1 (protonated)
[NH-]S(=O)(=O)c1cccc(NC(=O)C[N-]C(=O)Cc2cccc3ccccc23)c1 (3D coordinates assigned)
[NH-]S(=O)(=O)c1cccc(NC(=O)C[N-]C(=O)Cc2cccc3ccccc23)c1 (optimized conformer: 51.453487029220085 kcal/mol)

>  <smiles>  (59) 
NS(=O)(=O)c1cccc(NC(=O)CNC(=O)Cc2cccc3ccccc23)c1

>  <score_type>  (59) 
oracle

>  <origin>  (59) 
adg

>  <m_score__min__energy>  (59) 
-13.800000000000001

>  <m_primary>  (59) 
energy

$$$$
59:0
     RDKit          3D

 28 29  0  0  0  0  0  0  0  0999 V2000
   59.1300   35.1900   47.3850 N   0  0  0  0  0  0  0  0  0  0  0  0
   59.6290   34.3480   45.9590 S   0  0  0  0  0  0  0  0  0  0  0  0
   59.3210   35.2010   44.7590 O   0  0  0  0  0  0  0  0  0  0  0  0
   61.1060   34.0860   46.0200 O   0  0  0  0  0  0  0  0  0  0  0  0
   58.7680   32.8170   45.8410 C   0  0  0  0  0  0  0  0  0  0  0  0
   57.7950   32.6260   44.8500 C   0  0  0  0  0  0  0  0  0  0  0  0
   57.1180   31.4060   44.7560 C   0  0  0  0  0  0  0  0  0  0  0  0
   57.3910   30.3720   45.6590 C   0  0  0  0  0  0  0  0  0  0  0  0
   56.6960   29.1220   45.5140 N   0  0  0  0  0  0  0  0  0  0  0  0
   57.1840   27.9890   45.0950 C   0  0  0  0  0  0  0  0  0  0  0  0
   57.2240   26.7510   45.9090 C   0  0  0  0  0  0  0  0  0  0  0  0
   56.0300   26.1620   46.3480 C   0  0  0  0  0  0  0  0  0  0  0  0
   54.8000   26.7130   46.0030 O   0  0  0  0  0  0  0  0  0  0  0  0
   56.0650   25.0360   47.1060 N   0  0  0  0  0  0  0  0  0  0  0  0
   57.2460   24.4690   47.4650 C   0  0  0  0  0  0  0  0  0  0  0  0
   57.2540   23.4220   48.1620 O   0  0  0  0  0  0  0  0  0  0  0  0
   58.4170   25.0370   47.0780 N   0  0  0  0  0  0  0  0  0  0  0  0
   58.4350   26.1640   46.3220 C   0  0  0  0  0  0  0  0  0  0  0  0
   59.5420   26.6800   46.0140 O   0  0  0  0  0  0  0  0  0  0  0  0
   58.3980   30.5500   46.6240 C   0  0  0  0  0  0  0  0  0  0  0  0
   59.0750   31.7700   46.7190 C   0  0  0  0  0  0  0  0  0  0  0  0
   59.2660   36.2100   47.2020 H   0  0  0  0  0  0  0  0  0  0  0  0
   59.7990   34.9280   48.1440 H   0  0  0  0  0  0  0  0  0  0  0  0
   57.5635   33.4377   44.1447 H   0  0  0  0  0  0  0  0  0  0  0  0
   56.3659   31.2580   43.9671 H   0  0  0  0  0  0  0  0  0  0  0  0
   57.5915   27.9487   44.0741 H   0  0  0  0  0  0  0  0  0  0  0  0
   58.6543   29.7265   47.3068 H   0  0  0  0  0  0  0  0  0  0  0  0
   59.8513   31.9077   47.4860 H   0  0  0  0  0  0  0  0  0  0  0  0
  1  2  1  0
  2  3  2  0
  2  4  2  0
  2  5  1  0
  5  6  2  0
  6  7  1  0
  7  8  2  0
  8  9  1  0
  9 10  2  3
 10 11  1  0
 11 12  2  0
 12 13  1  0
 12 14  1  0
 14 15  1  0
 15 16  2  0
 15 17  1  0
 17 18  1  0
 18 19  2  0
  8 20  1  0
 20 21  2  0
 21  5  1  0
 18 11  1  0
  1 22  1  0
  1 23  1  0
  6 24  1  0
  7 25  1  0
 10 26  1  0
 20 27  1  0
 21 28  1  0
M  CHG  3  13  -1  14  -1  17  -1
M  END
>  <UniqueID>  (60) 
51

>  <SMILES>  (60) 
NS(=O)(=O)c1ccc(N=Cc2c([O-])[n-]c(=O)[n-]c2=O)cc1

>  <Energy>  (60) 
42.0838430899826

>  <Genealogy>  (60) 
NS(=O)(=O)c1ccc(N=Cc2c([O-])[n-]c(=O)[n-]c2=O)cc1 (protonated)
NS(=O)(=O)c1ccc(N=Cc2c([O-])[n-]c(=O)[n-]c2=O)cc1 (3D coordinates assigned)
NS(=O)(=O)c1ccc(N=Cc2c([O-])[n-]c(=O)[n-]c2=O)cc1 (optimized conformer: 42.0838430899826 kcal/mol)

>  <smiles>  (60) 
NS(=O)(=O)c1ccc(N=Cc2c(O)[nH]c(=O)[nH]c2=O)cc1

>  <score_type>  (60) 
oracle

>  <origin>  (60) 
adg

>  <m_score__min__energy>  (60) 
-14.550000000000001

>  <m_primary>  (60) 
energy

$$$$
60:0
     RDKit          3D

 58 60  0  0  0  0  0  0  0  0999 V2000
   58.1090   22.9490   44.5810 C   0  0  0  0  0  0  0  0  0  0  0  0
   57.8840   24.4130   44.9420 C   0  0  0  0  0  0  0  0  0  0  0  0
   58.8060   24.8430   46.0990 C   0  0  0  0  0  0  0  0  0  0  0  0
   59.6520   26.0780   45.7310 C   0  0  0  0  0  0  0  0  0  0  0  0
   59.1830   27.2830   46.4390 N   0  0  0  0  0  0  0  0  0  0  0  0
   59.5540   27.5510   47.8100 C   0  0  0  0  0  0  0  0  0  0  0  0
   59.8890   26.5940   48.5640 O   0  0  0  0  0  0  0  0  0  0  0  0
   59.5880   28.9230   48.3530 C   0  0  0  0  0  0  0  0  0  0  0  0
   58.7590   29.2710   49.4210 C   0  0  0  0  0  0  0  0  0  0  0  0
   58.8260   30.5560   49.9450 C   0  0  0  0  0  0  0  0  0  0  0  0
   59.7160   31.4750   49.3900 C   0  0  0  0  0  0  0  0  0  0  0  0
   59.7660   32.6450   49.8590 O   0  0  0  0  0  0  0  0  0  0  0  0
   60.5090   31.1020   48.3330 N   0  0  0  0  0  0  0  0  0  0  0  0
   61.4540   32.0250   47.7550 C   0  0  0  0  0  0  0  0  0  0  0  0
   62.8370   31.8300   47.9160 C   0  0  0  0  0  0  0  0  0  0  0  0
   63.7490   32.7100   47.3210 C   0  0  0  0  0  0  0  0  0  0  0  0
   63.2900   33.7800   46.5500 C   0  0  0  0  0  0  0  0  0  0  0  0
   61.9170   33.9730   46.3760 C   0  0  0  0  0  0  0  0  0  0  0  0
   61.0020   33.1000   46.9750 C   0  0  0  0  0  0  0  0  0  0  0  0
   60.4180   29.8640   47.8220 N   0  0  0  0  0  0  0  0  0  0  0  0
   58.2010   28.1300   45.8080 C   0  0  0  0  0  0  0  0  0  0  0  0
   58.5740   29.3380   45.1830 C   0  0  0  0  0  0  0  0  0  0  0  0
   59.9700   29.6700   45.0850 N   0  0  0  0  0  0  0  0  0  0  0  0
   57.6030   30.1600   44.6460 N   0  0  0  0  0  0  0  0  0  0  0  0
   57.9440   31.4630   44.0370 C   0  0  0  0  0  0  0  0  0  0  0  0
   58.3120   32.4830   45.1210 C   0  0  0  0  0  0  0  0  0  0  0  0
   57.0960   33.3020   45.5430 C   0  0  0  0  0  0  0  0  0  0  0  0
   56.2900   29.7530   44.6550 C   0  0  0  0  0  0  0  0  0  0  0  0
   55.3900   30.4610   44.1260 O   0  0  0  0  0  0  0  0  0  0  0  0
   55.9370   28.5790   45.2320 N   0  0  0  0  0  0  0  0  0  0  0  0
   56.8510   27.7700   45.8140 C   0  0  0  0  0  0  0  0  0  0  0  0
   56.4720   26.6990   46.3580 O   0  0  0  0  0  0  0  0  0  0  0  0
   58.2004   22.3542   45.5018 H   0  0  0  0  0  0  0  0  0  0  0  0
   57.2567   22.5818   43.9904 H   0  0  0  0  0  0  0  0  0  0  0  0
   59.0322   22.8547   43.9904 H   0  0  0  0  0  0  0  0  0  0  0  0
   58.0960   25.0375   44.0616 H   0  0  0  0  0  0  0  0  0  0  0  0
   56.8388   24.5393   45.2606 H   0  0  0  0  0  0  0  0  0  0  0  0
   58.1873   25.0842   46.9760 H   0  0  0  0  0  0  0  0  0  0  0  0
   59.4927   24.0113   46.3149 H   0  0  0  0  0  0  0  0  0  0  0  0
   60.7004   25.8878   46.0044 H   0  0  0  0  0  0  0  0  0  0  0  0
   59.5557   26.2531   44.6493 H   0  0  0  0  0  0  0  0  0  0  0  0
   58.0594   28.5348   49.8436 H   0  0  0  0  0  0  0  0  0  0  0  0
   58.1833   30.8456   50.7894 H   0  0  0  0  0  0  0  0  0  0  0  0
   63.2043   30.9818   48.5124 H   0  0  0  0  0  0  0  0  0  0  0  0
   64.8294   32.5582   47.4612 H   0  0  0  0  0  0  0  0  0  0  0  0
   64.0075   34.4692   46.0808 H   0  0  0  0  0  0  0  0  0  0  0  0
   61.5544   34.8137   45.7663 H   0  0  0  0  0  0  0  0  0  0  0  0
   59.9226   33.2574   46.8335 H   0  0  0  0  0  0  0  0  0  0  0  0
   61.0050   29.6040   46.9960 H   0  0  0  0  0  0  0  0  0  0  0  0
   60.6610   29.0100   44.6690 H   0  0  0  0  0  0  0  0  0  0  0  0
   60.3460   30.6040   45.3360 H   0  0  0  0  0  0  0  0  0  0  0  0
   58.7993   31.3323   43.3578 H   0  0  0  0  0  0  0  0  0  0  0  0
   57.0710   31.8348   43.4806 H   0  0  0  0  0  0  0  0  0  0  0  0
   58.7064   31.9484   45.9977 H   0  0  0  0  0  0  0  0  0  0  0  0
   59.0689   33.1684   44.7120 H   0  0  0  0  0  0  0  0  0  0  0  0
   57.0417   33.3386   46.6410 H   0  0  0  0  0  0  0  0  0  0  0  0
   57.1865   34.3239   45.1461 H   0  0  0  0  0  0  0  0  0  0  0  0
   56.1830   32.8340   45.1461 H   0  0  0  0  0  0  0  0  0  0  0  0
  1  2  1  0
  2  3  1  0
  3  4  1  0
  4  5  1  0
  5  6  1  0
  6  7  2  0
  6  8  1  0
  8  9  1  0
  9 10  2  0
 10 11  1  0
 11 12  2  0
 11 13  1  0
 13 14  1  0
 14 15  2  0
 15 16  1  0
 16 17  2  0
 17 18  1  0
 18 19  2  0
 13 20  1  0
  5 21  1  0
 21 22  2  0
 22 23  1  0
 22 24  1  0
 24 25  1  0
 25 26  1  0
 26 27  1  0
 24 28  1  0
 28 29  2  0
 28 30  1  0
 30 31  1  0
 31 32  2  0
 20  8  2  0
 31 21  1  0
 19 14  1  0
  1 33  1  0
  1 34  1  0
  1 35  1  0
  2 36  1  0
  2 37  1  0
  3 38  1  0
  3 39  1  0
  4 40  1  0
  4 41  1  0
  9 42  1  0
 10 43  1  0
 15 44  1  0
 16 45  1  0
 17 46  1  0
 18 47  1  0
 19 48  1  0
 20 49  1  0
 23 50  1  0
 23 51  1  0
 25 52  1  0
 25 53  1  0
 26 54  1  0
 26 55  1  0
 27 56  1  0
 27 57  1  0
 27 58  1  0
M  CHG  2  20   1  30  -1
M  END
>  <UniqueID>  (61) 
52

>  <SMILES>  (61) 
CCCCN(C(=O)c1ccc(=O)n(-c2ccccc2)[nH+]1)c1c(N)n(CCC)c(=O)[n-]c1=O

>  <Energy>  (61) 
77.17800232495956

>  <Genealogy>  (61) 
CCCCN(C(=O)c1ccc(=O)n(-c2ccccc2)[nH+]1)c1c(N)n(CCC)c(=O)[n-]c1=O (protonated)
CCCCN(C(=O)c1ccc(=O)n(-c2ccccc2)[nH+]1)c1c(N)n(CCC)c(=O)[n-]c1=O (3D coordinates assigned)
CCCCN(C(=O)c1ccc(=O)n(-c2ccccc2)[nH+]1)c1c(N)n(CCC)c(=O)[n-]c1=O (optimized conformer: 77.17800232495956 kcal/mol)

>  <smiles>  (61) 
CCCCN(C(=O)c1ccc(=O)n(-c2ccccc2)n1)c1c(N)n(CCC)c(=O)[nH]c1=O

>  <score_type>  (61) 
oracle

>  <origin>  (61) 
adg

>  <m_score__min__energy>  (61) 
-8.5700000000000003

>  <m_primary>  (61) 
energy

$$$$
61:0
     RDKit          3D

 46 49  0  0  0  0  0  0  0  0999 V2000
   54.3300   23.6890   45.9390 C   0  0  0  0  0  0  0  0  0  0  0  0
   55.4740   24.2220   46.7000 N   0  0  0  0  0  0  0  0  0  0  0  0
   55.6770   23.4130   47.9140 C   0  0  0  0  0  0  0  0  0  0  0  0
   56.7010   24.2170   45.8790 C   0  0  0  0  0  0  0  0  0  0  0  0
   57.3110   25.5980   45.8210 C   0  0  0  0  0  0  0  0  0  0  0  0
   58.7050   25.7280   45.7000 C   0  0  0  0  0  0  0  0  0  0  0  0
   59.2970   26.9880   45.6120 C   0  0  0  0  0  0  0  0  0  0  0  0
   58.5010   28.1430   45.6140 C   0  0  0  0  0  0  0  0  0  0  0  0
   59.0960   29.4470   45.5640 N   0  0  0  0  0  0  0  0  0  0  0  0
   58.9990   30.4550   46.3980 C   0  0  0  0  0  0  0  0  0  0  0  0
   58.5010   31.6790   45.8840 C   0  0  0  0  0  0  0  0  0  0  0  0
   58.2780   31.8750   44.5030 C   0  0  0  0  0  0  0  0  0  0  0  0
   57.7420   33.0780   44.0340 C   0  0  0  0  0  0  0  0  0  0  0  0
   57.4100   34.0960   44.9290 C   0  0  0  0  0  0  0  0  0  0  0  0
   57.6150   33.9170   46.2980 C   0  0  0  0  0  0  0  0  0  0  0  0
   58.1590   32.7190   46.7790 C   0  0  0  0  0  0  0  0  0  0  0  0
   58.3410   32.5600   48.1110 N   0  0  0  0  0  0  0  0  0  0  0  0
   58.9020   31.4450   48.6370 C   0  0  0  0  0  0  0  0  0  0  0  0
   59.1230   31.3890   50.0190 C   0  0  0  0  0  0  0  0  0  0  0  0
   59.8160   30.3160   50.5750 C   0  0  0  0  0  0  0  0  0  0  0  0
   60.3260   29.3160   49.7510 C   0  0  0  0  0  0  0  0  0  0  0  0
   60.1020   29.3560   48.3730 C   0  0  0  0  0  0  0  0  0  0  0  0
   59.3110   30.3780   47.7940 C   0  0  0  0  0  0  0  0  0  0  0  0
   57.1170   28.0250   45.7760 C   0  0  0  0  0  0  0  0  0  0  0  0
   56.5120   26.7660   45.8630 C   0  0  0  0  0  0  0  0  0  0  0  0
   55.1220   26.7120   45.9910 O   0  0  0  0  0  0  0  0  0  0  0  0
   53.5600   23.3302   46.6378 H   0  0  0  0  0  0  0  0  0  0  0  0
   53.9088   24.4836   45.3056 H   0  0  0  0  0  0  0  0  0  0  0  0
   54.6674   22.8554   45.3056 H   0  0  0  0  0  0  0  0  0  0  0  0
   55.5195   24.0407   48.8035 H   0  0  0  0  0  0  0  0  0  0  0  0
   54.9604   22.5785   47.9226 H   0  0  0  0  0  0  0  0  0  0  0  0
   56.7027   23.0157   47.9226 H   0  0  0  0  0  0  0  0  0  0  0  0
   57.4280   23.5195   46.3206 H   0  0  0  0  0  0  0  0  0  0  0  0
   56.4415   23.9021   44.8575 H   0  0  0  0  0  0  0  0  0  0  0  0
   59.3357   24.8271   45.6744 H   0  0  0  0  0  0  0  0  0  0  0  0
   60.3912   27.0761   45.5408 H   0  0  0  0  0  0  0  0  0  0  0  0
   58.5281   31.0747   43.7909 H   0  0  0  0  0  0  0  0  0  0  0  0
   57.5813   33.2227   42.9555 H   0  0  0  0  0  0  0  0  0  0  0  0
   56.9865   35.0400   44.5554 H   0  0  0  0  0  0  0  0  0  0  0  0
   57.3485   34.7194   47.0016 H   0  0  0  0  0  0  0  0  0  0  0  0
   58.7482   32.1948   50.6673 H   0  0  0  0  0  0  0  0  0  0  0  0
   59.9602   30.2587   51.6640 H   0  0  0  0  0  0  0  0  0  0  0  0
   60.9079   28.4908   50.1874 H   0  0  0  0  0  0  0  0  0  0  0  0
   60.5461   28.5830   47.7286 H   0  0  0  0  0  0  0  0  0  0  0  0
   56.4971   28.9317   45.8357 H   0  0  0  0  0  0  0  0  0  0  0  0
   54.6310   25.9160   46.3790 H   0  0  0  0  0  0  0  0  0  0  0  0
  1  2  1  0
  2  3  1  0
  2  4  1  0
  4  5  1  0
  5  6  2  0
  6  7  1  0
  7  8  2  0
  8  9  1  0
  9 10  2  3
 10 11  1  0
 11 12  2  0
 12 13  1  0
 13 14  2  0
 14 15  1  0
 15 16  2  0
 16 17  1  0
 17 18  1  0
 18 19  2  0
 19 20  1  0
 20 21  2  0
 21 22  1  0
 22 23  2  0
  8 24  1  0
 24 25  2  0
 25 26  1  0
 25  5  1  0
 23 10  1  0
 16 11  1  0
 23 18  1  0
  1 27  1  0
  1 28  1  0
  1 29  1  0
  3 30  1  0
  3 31  1  0
  3 32  1  0
  4 33  1  0
  4 34  1  0
  6 35  1  0
  7 36  1  0
 12 37  1  0
 13 38  1  0
 14 39  1  0
 15 40  1  0
 19 41  1  0
 20 42  1  0
 21 43  1  0
 22 44  1  0
 24 45  1  0
 26 46  1  0
M  CHG  1  17  -1
M  END
>  <UniqueID>  (62) 
53

>  <SMILES>  (62) 
CN(C)Cc1ccc(N=c2c3ccccc3[n-]c3ccccc23)cc1O

>  <Energy>  (62) 
79.22771521882903

>  <Genealogy>  (62) 
CN(C)Cc1ccc(N=c2c3ccccc3[n-]c3ccccc23)cc1O (protonated)
CN(C)Cc1ccc(N=c2c3ccccc3[n-]c3ccccc23)cc1O (3D coordinates assigned)
CN(C)Cc1ccc(N=c2c3ccccc3[n-]c3ccccc23)cc1O (optimized conformer: 79.22771521882903 kcal/mol)

>  <smiles>  (62) 
CN(C)Cc1ccc(N=c2c3ccccc3[nH]c3ccccc23)cc1O

>  <score_type>  (62) 
oracle

>  <origin>  (62) 
adg

>  <m_score__min__energy>  (62) 
-9.5700000000000003

>  <m_primary>  (62) 
energy

$$$$
62:0
     RDKit          3D

 50 52  0  0  0  0  0  0  0  0999 V2000
   56.2160   29.4670   42.9720 C   0  0  0  0  0  0  0  0  0  0  0  0
   56.8880   30.7320   43.4220 C   0  0  0  0  0  0  0  0  0  0  0  0
   57.4590   31.6040   42.4800 C   0  0  0  0  0  0  0  0  0  0  0  0
   58.1420   32.7490   42.9050 C   0  0  0  0  0  0  0  0  0  0  0  0
   58.2570   33.0320   44.2700 C   0  0  0  0  0  0  0  0  0  0  0  0
   57.6810   32.1790   45.2220 C   0  0  0  0  0  0  0  0  0  0  0  0
   57.8390   32.4980   46.6140 N   0  0  0  0  0  0  0  0  0  0  0  0
   58.7860   33.4190   47.1810 C   0  0  0  0  0  0  0  0  0  0  0  0
   58.5010   34.6480   47.2460 O   0  0  0  0  0  0  0  0  0  0  0  0
   60.1100   32.9220   47.6540 C   0  0  0  0  0  0  0  0  0  0  0  0
   61.1720   33.8380   47.8030 C   0  0  0  0  0  0  0  0  0  0  0  0
   62.4380   33.4100   48.2030 C   0  0  0  0  0  0  0  0  0  0  0  0
   62.6720   32.0620   48.4660 C   0  0  0  0  0  0  0  0  0  0  0  0
   61.6380   31.1370   48.3280 C   0  0  0  0  0  0  0  0  0  0  0  0
   60.3590   31.5500   47.9240 C   0  0  0  0  0  0  0  0  0  0  0  0
   59.3260   30.5610   47.8020 N   0  0  0  0  0  0  0  0  0  0  0  0
   59.2230   29.6680   46.6770 C   0  0  0  0  0  0  0  0  0  0  0  0
   60.0770   29.8400   45.5780 C   0  0  0  0  0  0  0  0  0  0  0  0
   60.0170   28.9620   44.4910 C   0  0  0  0  0  0  0  0  0  0  0  0
   59.1030   27.9050   44.4900 C   0  0  0  0  0  0  0  0  0  0  0  0
   58.2320   27.7220   45.5730 C   0  0  0  0  0  0  0  0  0  0  0  0
   57.3210   26.6080   45.5690 N   0  0  0  0  0  0  0  0  0  0  0  0
   57.3120   25.5860   46.5780 C   0  0  0  0  0  0  0  0  0  0  0  0
   57.7650   25.8300   47.7290 O   0  0  0  0  0  0  0  0  0  0  0  0
   56.6610   24.2870   46.3340 C   0  0  0  0  0  0  0  0  0  0  0  0
   55.4770   24.1170   45.7250 C   0  0  0  0  0  0  0  0  0  0  0  0
   54.4130   25.1350   45.6240 C   0  0  0  0  0  0  0  0  0  0  0  0
   54.6940   26.3430   45.8390 O   0  0  0  0  0  0  0  0  0  0  0  0
   53.0910   24.7810   45.3770 O   0  0  0  0  0  0  0  0  0  0  0  0
   58.3120   28.5950   46.6740 C   0  0  0  0  0  0  0  0  0  0  0  0
   57.0240   31.0090   44.7940 C   0  0  0  0  0  0  0  0  0  0  0  0
   55.9061   28.8836   43.8515 H   0  0  0  0  0  0  0  0  0  0  0  0
   55.3316   29.7167   42.3674 H   0  0  0  0  0  0  0  0  0  0  0  0
   56.9180   28.8740   42.3674 H   0  0  0  0  0  0  0  0  0  0  0  0
   57.3689   31.3861   41.4056 H   0  0  0  0  0  0  0  0  0  0  0  0
   58.5894   33.4279   42.1641 H   0  0  0  0  0  0  0  0  0  0  0  0
   58.8025   33.9290   44.5984 H   0  0  0  0  0  0  0  0  0  0  0  0
   60.9995   34.9054   47.6009 H   0  0  0  0  0  0  0  0  0  0  0  0
   63.2543   34.1393   48.3111 H   0  0  0  0  0  0  0  0  0  0  0  0
   63.6712   31.7279   48.7821 H   0  0  0  0  0  0  0  0  0  0  0  0
   61.8264   30.0737   48.5377 H   0  0  0  0  0  0  0  0  0  0  0  0
   58.6460   30.4680   48.5910 H   0  0  0  0  0  0  0  0  0  0  0  0
   60.7984   30.6704   45.5709 H   0  0  0  0  0  0  0  0  0  0  0  0
   60.6917   29.1040   43.6339 H   0  0  0  0  0  0  0  0  0  0  0  0
   59.0668   27.2133   43.6354 H   0  0  0  0  0  0  0  0  0  0  0  0
   56.5870   26.5680   44.8250 H   0  0  0  0  0  0  0  0  0  0  0  0
   57.1872   23.3845   46.6784 H   0  0  0  0  0  0  0  0  0  0  0  0
   55.2836   23.1377   45.2628 H   0  0  0  0  0  0  0  0  0  0  0  0
   57.6551   28.4370   47.5421 H   0  0  0  0  0  0  0  0  0  0  0  0
   56.6151   30.3082   45.5368 H   0  0  0  0  0  0  0  0  0  0  0  0
  1  2  1  0
  2  3  2  0
  3  4  1  0
  4  5  2  0
  5  6  1  0
  6  7  1  0
  7  8  1  0
  8  9  2  0
  8 10  1  0
 10 11  2  0
 11 12  1  0
 12 13  2  0
 13 14  1  0
 14 15  2  0
 15 16  1  0
 16 17  1  0
 17 18  2  0
 18 19  1  0
 19 20  2  0
 20 21  1  0
 21 22  1  0
 22 23  1  0
 23 24  2  0
 23 25  1  0
 25 26  2  3
 26 27  1  0
 27 28  2  0
 27 29  1  0
 21 30  2  0
  6 31  2  0
 31  2  1  0
 15 10  1  0
 30 17  1  0
  1 32  1  0
  1 33  1  0
  1 34  1  0
  3 35  1  0
  4 36  1  0
  5 37  1  0
 11 38  1  0
 12 39  1  0
 13 40  1  0
 14 41  1  0
 16 42  1  0
 18 43  1  0
 19 44  1  0
 20 45  1  0
 22 46  1  0
 25 47  1  0
 26 48  1  0
 30 49  1  0
 31 50  1  0
M  CHG  2   7  -1  29  -1
M  END
>  <UniqueID>  (63) 
54

>  <SMILES>  (63) 
Cc1cccc([N-]C(=O)c2ccccc2Nc2cccc(NC(=O)C=CC(=O)[O-])c2)c1

>  <Energy>  (63) 
73.60100936839723

>  <Genealogy>  (63) 
Cc1cccc([N-]C(=O)c2ccccc2Nc2cccc(NC(=O)C=CC(=O)[O-])c2)c1 (protonated)
Cc1cccc([N-]C(=O)c2ccccc2Nc2cccc(NC(=O)C=CC(=O)[O-])c2)c1 (3D coordinates assigned)
Cc1cccc([N-]C(=O)c2ccccc2Nc2cccc(NC(=O)C=CC(=O)[O-])c2)c1 (optimized conformer: 73.60100936839723 kcal/mol)

>  <smiles>  (63) 
Cc1cccc(NC(=O)c2ccccc2Nc2cccc(NC(=O)C=CC(=O)O)c2)c1

>  <score_type>  (63) 
oracle

>  <origin>  (63) 
adg

>  <m_score__min__energy>  (63) 
-13.74

>  <m_primary>  (63) 
energy

$$$$
63:0
     RDKit          3D

 51 53  0  0  0  0  0  0  0  0999 V2000
   55.1230   30.5650   44.5220 O   0  0  0  0  0  0  0  0  0  0  0  0
   56.0620   29.7280   44.4460 C   0  0  0  0  0  0  0  0  0  0  0  0
   57.3020   30.0670   43.6760 C   0  0  0  0  0  0  0  0  0  0  0  0
   57.8700   31.4210   44.1080 C   0  0  0  0  0  0  0  0  0  0  0  0
   57.5900   31.6630   45.5260 N   0  0  0  0  0  0  0  0  0  0  0  0
   58.2820   33.1820   46.0150 S   0  0  0  0  0  0  0  0  0  0  0  0
   57.4170   33.7780   47.0910 O   0  0  0  0  0  0  0  0  0  0  0  0
   58.2850   34.1330   44.8530 O   0  0  0  0  0  0  0  0  0  0  0  0
   59.9360   32.9600   46.6290 C   0  0  0  0  0  0  0  0  0  0  0  0
   60.9010   33.9190   46.2700 C   0  0  0  0  0  0  0  0  0  0  0  0
   62.2040   33.8420   46.7610 C   0  0  0  0  0  0  0  0  0  0  0  0
   62.5650   32.8160   47.6280 C   0  0  0  0  0  0  0  0  0  0  0  0
   61.6250   31.8560   48.0020 C   0  0  0  0  0  0  0  0  0  0  0  0
   60.3070   31.9000   47.5050 C   0  0  0  0  0  0  0  0  0  0  0  0
   59.3550   30.8130   47.9600 C   0  0  0  0  0  0  0  0  0  0  0  0
   59.6870   29.4930   47.3070 C   0  0  0  0  0  0  0  0  0  0  0  0
   60.0780   29.4480   45.9580 C   0  0  0  0  0  0  0  0  0  0  0  0
   60.3950   28.2270   45.3560 C   0  0  0  0  0  0  0  0  0  0  0  0
   60.3300   27.0430   46.0960 C   0  0  0  0  0  0  0  0  0  0  0  0
   59.9490   27.0800   47.4410 C   0  0  0  0  0  0  0  0  0  0  0  0
   59.6290   28.2980   48.0460 C   0  0  0  0  0  0  0  0  0  0  0  0
   55.9630   28.4670   45.1110 N   0  0  0  0  0  0  0  0  0  0  0  0
   57.1170   27.6110   45.3530 C   0  0  0  0  0  0  0  0  0  0  0  0
   56.8160   26.6620   46.5100 C   0  0  0  0  0  0  0  0  0  0  0  0
   55.7650   25.6650   46.1270 C   0  0  0  0  0  0  0  0  0  0  0  0
   55.9570   24.3200   45.9220 C   0  0  0  0  0  0  0  0  0  0  0  0
   54.7820   23.7580   45.5930 N   0  0  0  0  0  0  0  0  0  0  0  0
   53.9070   24.7870   45.6150 C   0  0  0  0  0  0  0  0  0  0  0  0
   54.4690   25.9700   45.9390 N   0  0  0  0  0  0  0  0  0  0  0  0
   58.0582   29.2880   43.8528 H   0  0  0  0  0  0  0  0  0  0  0  0
   57.0441   30.1226   42.6081 H   0  0  0  0  0  0  0  0  0  0  0  0
   58.9582   31.4255   43.9474 H   0  0  0  0  0  0  0  0  0  0  0  0
   57.3966   32.2139   43.5102 H   0  0  0  0  0  0  0  0  0  0  0  0
   56.5540   31.7320   45.6450 H   0  0  0  0  0  0  0  0  0  0  0  0
   60.6239   34.7405   45.5930 H   0  0  0  0  0  0  0  0  0  0  0  0
   62.9483   34.5947   46.4618 H   0  0  0  0  0  0  0  0  0  0  0  0
   63.5919   32.7618   48.0187 H   0  0  0  0  0  0  0  0  0  0  0  0
   61.9165   31.0529   48.6949 H   0  0  0  0  0  0  0  0  0  0  0  0
   59.4305   30.7029   49.0519 H   0  0  0  0  0  0  0  0  0  0  0  0
   58.3331   31.0993   47.6706 H   0  0  0  0  0  0  0  0  0  0  0  0
   60.1349   30.3779   45.3731 H   0  0  0  0  0  0  0  0  0  0  0  0
   60.6960   28.1979   44.2984 H   0  0  0  0  0  0  0  0  0  0  0  0
   60.5784   26.0826   45.6206 H   0  0  0  0  0  0  0  0  0  0  0  0
   59.9012   26.1483   48.0238 H   0  0  0  0  0  0  0  0  0  0  0  0
   59.3305   28.3223   49.1045 H   0  0  0  0  0  0  0  0  0  0  0  0
   57.3357   27.0264   44.4472 H   0  0  0  0  0  0  0  0  0  0  0  0
   57.9872   28.2338   45.6079 H   0  0  0  0  0  0  0  0  0  0  0  0
   57.7367   26.1265   46.7849 H   0  0  0  0  0  0  0  0  0  0  0  0
   56.4453   27.2528   47.3606 H   0  0  0  0  0  0  0  0  0  0  0  0
   56.9165   23.7898   46.0125 H   0  0  0  0  0  0  0  0  0  0  0  0
   52.8365   24.6712   45.3898 H   0  0  0  0  0  0  0  0  0  0  0  0
  1  2  2  0
  2  3  1  0
  3  4  1  0
  4  5  1  0
  5  6  1  0
  6  7  2  0
  6  8  2  0
  6  9  1  0
  9 10  2  0
 10 11  1  0
 11 12  2  0
 12 13  1  0
 13 14  2  0
 14 15  1  0
 15 16  1  0
 16 17  2  0
 17 18  1  0
 18 19  2  0
 19 20  1  0
 20 21  2  0
  2 22  1  0
 22 23  1  0
 23 24  1  0
 24 25  1  0
 25 26  2  0
 26 27  1  0
 27 28  1  0
 28 29  2  0
 14  9  1  0
 21 16  1  0
 29 25  1  0
  3 30  1  0
  3 31  1  0
  4 32  1  0
  4 33  1  0
  5 34  1  0
 10 35  1  0
 11 36  1  0
 12 37  1  0
 13 38  1  0
 15 39  1  0
 15 40  1  0
 17 41  1  0
 18 42  1  0
 19 43  1  0
 20 44  1  0
 21 45  1  0
 23 46  1  0
 23 47  1  0
 24 48  1  0
 24 49  1  0
 26 50  1  0
 28 51  1  0
M  CHG  2  22  -1  27  -1
M  END
>  <UniqueID>  (64) 
55

>  <SMILES>  (64) 
O=C(CCNS(=O)(=O)c1ccccc1Cc1ccccc1)[N-]CCc1c[n-]cn1

>  <Energy>  (64) 
72.5336270339756

>  <Genealogy>  (64) 
O=C(CCNS(=O)(=O)c1ccccc1Cc1ccccc1)[N-]CCc1c[n-]cn1 (protonated)
O=C(CCNS(=O)(=O)c1ccccc1Cc1ccccc1)[N-]CCc1c[n-]cn1 (3D coordinates assigned)
O=C(CCNS(=O)(=O)c1ccccc1Cc1ccccc1)[N-]CCc1c[n-]cn1 (optimized conformer: 72.5336270339756 kcal/mol)

>  <smiles>  (64) 
O=C(CCNS(=O)(=O)c1ccccc1Cc1ccccc1)NCCc1c[nH]cn1

>  <score_type>  (64) 
oracle

>  <origin>  (64) 
adg

>  <m_score__min__energy>  (64) 
-13.029999999999999

>  <m_primary>  (64) 
energy

$$$$
64:0
     RDKit          3D

 32 33  0  0  1  0  0  0  0  0999 V2000
   57.0340   31.6320   43.6870 C   0  0  0  0  0  0  0  0  0  0  0  0
   57.7640   31.4230   44.9540 C   0  0  0  0  0  0  0  0  0  0  0  0
   58.4380   32.4760   45.5330 C   0  0  0  0  0  0  0  0  0  0  0  0
   58.4790   33.7840   44.9770 N   0  0  0  0  0  0  0  0  0  0  0  0
   57.4840   34.5340   44.9060 O   0  0  0  0  0  0  0  0  0  0  0  0
   59.6660   34.2470   44.4950 O   0  0  0  0  0  0  0  0  0  0  0  0
   59.1410   32.3110   46.7330 C   0  0  0  0  0  0  0  0  0  0  0  0
   59.1870   31.0950   47.3840 C   0  0  0  0  0  0  0  0  0  0  0  0
   58.5070   30.0470   46.7950 C   0  0  0  0  0  0  0  0  0  0  0  0
   57.8180   30.2130   45.6140 C   0  0  0  0  0  0  0  0  0  0  0  0
   56.9850   28.8190   44.9380 S   0  0  0  0  0  0  0  0  0  0  0  0
   55.5320   29.0780   44.8250 O   0  0  0  0  0  0  0  0  0  0  0  0
   57.4900   28.5060   43.5620 O   0  0  0  0  0  0  0  0  0  0  0  0
   57.2700   27.5390   46.0460 N   0  0  0  0  0  0  0  0  0  0  0  0
   57.4960   26.3660   45.5630 C   0  0  0  0  0  0  0  0  0  0  0  0
   57.3740   25.8570   44.3550 N   0  0  0  0  0  0  0  0  0  0  0  0
   57.6970   24.6100   44.2230 N   0  0  0  0  0  0  0  0  0  0  0  0
   58.0880   23.8440   45.0200 C   0  0  0  0  0  0  0  0  0  0  0  0
   58.5880   22.1780   45.1560 S   0  0  0  0  0  0  0  0  0  0  0  0
   58.1400   21.2320   43.8000 N   0  0  0  0  0  0  0  0  0  0  0  0
   60.0710   22.1480   45.3940 O   0  0  0  0  0  0  0  0  0  0  0  0
   57.8870   21.6300   46.3660 O   0  0  0  0  0  0  0  0  0  0  0  0
   58.1080   24.9660   46.5540 S   0  0  0  0  0  0  0  0  0  0  0  0
   55.9976   31.9287   43.9056 H   0  0  0  0  0  0  0  0  0  0  0  0
   57.5276   32.4249   43.1059 H   0  0  0  0  0  0  0  0  0  0  0  0
   57.0332   30.6980   43.1059 H   0  0  0  0  0  0  0  0  0  0  0  0
   59.6697   33.1722   47.1675 H   0  0  0  0  0  0  0  0  0  0  0  0
   59.7388   30.9666   48.3269 H   0  0  0  0  0  0  0  0  0  0  0  0
   58.5159   29.0593   47.2791 H   0  0  0  0  0  0  0  0  0  0  0  0
   57.0270   26.4410   43.5280 H   0  0  0  0  0  0  0  0  0  0  0  0
   59.0190   21.0340   43.2710 H   0  0  0  0  0  0  0  0  0  0  0  0
   57.7610   20.3040   44.1120 H   0  0  0  0  0  0  0  0  0  0  0  0
  1  2  1  0
  2  3  2  0
  3  4  1  0
  4  5  2  0
  4  6  1  0
  3  7  1  0
  7  8  2  0
  8  9  1  0
  9 10  2  0
 10 11  1  0
 11 12  2  0
 11 13  2  0
 11 14  1  0
 14 15  2  0
 15 16  1  0
 16 17  1  0
 17 18  2  0
 18 19  1  0
 19 20  1  0
 19 21  2  0
 19 22  2  0
 18 23  1  0
 10  2  1  0
 23 15  1  0
  1 24  1  0
  1 25  1  0
  1 26  1  0
  7 27  1  0
  8 28  1  0
  9 29  1  0
 16 30  1  0
 20 31  1  0
 20 32  1  0
M  CHG  2   4   1   6  -1
M  END
>  <smiles>  (65) 
Cc1c([N+](=O)[O-])cccc1S(=O)(=O)N=c1[nH]nc(S(N)(=O)=O)s1

>  <score_type>  (65) 
oracle

>  <origin>  (65) 
adg

>  <m_score__min__energy>  (65) 
-8.3900000000000006

>  <m_primary>  (65) 
energy

$$$$
65:0
     RDKit          3D

 24 25  0  0  0  0  0  0  0  0999 V2000
   55.0140   26.5420   46.0280 O   0  0  0  0  0  0  0  0  0  0  0  0
   56.2700   26.4340   45.9760 C   0  0  0  0  0  0  0  0  0  0  0  0
   56.9070   25.2190   46.3930 N   0  0  0  0  0  0  0  0  0  0  0  0
   57.2930   24.1230   45.5500 C   0  0  0  0  0  0  0  0  0  0  0  0
   58.5990   23.6240   45.6550 C   0  0  0  0  0  0  0  0  0  0  0  0
   59.0110   22.5450   44.8670 C   0  0  0  0  0  0  0  0  0  0  0  0
   58.1150   21.9470   43.9770 C   0  0  0  0  0  0  0  0  0  0  0  0
   56.8030   22.4190   43.8830 C   0  0  0  0  0  0  0  0  0  0  0  0
   55.9070   21.8100   43.0120 O   0  0  0  0  0  0  0  0  0  0  0  0
   56.3890   23.5000   44.6700 C   0  0  0  0  0  0  0  0  0  0  0  0
   57.0980   27.5320   45.4340 C   0  0  0  0  0  0  0  0  0  0  0  0
   58.4500   27.3630   45.3850 N   0  0  0  0  0  0  0  0  0  0  0  0
   59.2850   28.3210   44.9040 C   0  0  0  0  0  0  0  0  0  0  0  0
   58.7680   29.5290   44.4380 C   0  0  0  0  0  0  0  0  0  0  0  0
   57.3900   29.7380   44.4730 C   0  0  0  0  0  0  0  0  0  0  0  0
   56.5420   28.7440   44.9710 C   0  0  0  0  0  0  0  0  0  0  0  0
   55.1710   28.9740   44.9990 O   0  0  0  0  0  0  0  0  0  0  0  0
   59.3044   24.0846   46.3623 H   0  0  0  0  0  0  0  0  0  0  0  0
   60.0408   22.1668   44.9477 H   0  0  0  0  0  0  0  0  0  0  0  0
   58.4425   21.1045   43.3502 H   0  0  0  0  0  0  0  0  0  0  0  0
   55.3532   23.8637   44.6002 H   0  0  0  0  0  0  0  0  0  0  0  0
   60.3703   28.1432   44.8823 H   0  0  0  0  0  0  0  0  0  0  0  0
   59.4393   30.3079   44.0474 H   0  0  0  0  0  0  0  0  0  0  0  0
   56.9691   30.6866   44.1082 H   0  0  0  0  0  0  0  0  0  0  0  0
  1  2  2  0
  2  3  1  0
  3  4  1  0
  4  5  2  0
  5  6  1  0
  6  7  2  0
  7  8  1  0
  8  9  1  0
  8 10  2  0
  2 11  1  0
 11 12  2  0
 12 13  1  0
 13 14  2  0
 14 15  1  0
 15 16  2  0
 16 17  1  0
 10  4  1  0
 16 11  1  0
  5 18  1  0
  6 19  1  0
  7 20  1  0
 10 21  1  0
 13 22  1  0
 14 23  1  0
 15 24  1  0
M  CHG  3   3  -1   9  -1  17  -1
M  END
>  <UniqueID>  (66) 
56

>  <SMILES>  (66) 
O=C([N-]c1cccc([O-])c1)c1ncccc1[O-]

>  <Energy>  (66) 
30.670718863529196

>  <Genealogy>  (66) 
O=C([N-]c1cccc([O-])c1)c1ncccc1[O-] (protonated)
O=C([N-]c1cccc([O-])c1)c1ncccc1[O-] (3D coordinates assigned)
O=C([N-]c1cccc([O-])c1)c1ncccc1[O-] (optimized conformer: 30.670718863529196 kcal/mol)

>  <smiles>  (66) 
O=C(Nc1cccc(O)c1)c1ncccc1O

>  <score_type>  (66) 
oracle

>  <origin>  (66) 
adg

>  <m_score__min__energy>  (66) 
-13.41

>  <m_primary>  (66) 
energy

$$$$
66:0
     RDKit          3D

 94 97  0  0  0  0  0  0  0  0999 V2000
   54.7310   27.0960   46.3940 H   0  0  0  0  0  0  0  0  0  0  0  0
   55.4650   26.4620   46.0040 N   0  0  0  0  0  0  0  0  0  0  0  0
   56.8350   26.5980   46.3860 C   0  0  0  0  0  0  0  0  0  0  0  0
   57.1530   27.4550   47.2550 O   0  0  0  0  0  0  0  0  0  0  0  0
   57.9100   25.8290   45.6610 C   0  0  2  0  0  0  0  0  0  0  0  0
   57.9573   24.8591   46.1779 H   0  0  0  0  0  0  0  0  0  0  0  0
   59.2300   26.4560   45.7900 N   0  0  0  0  0  0  0  0  0  0  0  0
   59.6180   27.7620   45.3420 C   0  0  0  0  0  0  0  0  0  0  0  0
   59.6430   28.0310   44.1080 O   0  0  0  0  0  0  0  0  0  0  0  0
   59.8690   28.8590   46.3430 C   0  0  2  0  0  0  0  0  0  0  0  0
   60.7122   29.4487   45.9540 H   0  0  0  0  0  0  0  0  0  0  0  0
   60.2050   28.2790   47.6430 N   0  0  0  0  0  0  0  0  0  0  0  0
   60.1990   29.0140   48.8710 C   0  0  0  0  0  0  0  0  0  0  0  0
   59.1620   28.9850   49.5910 O   0  0  0  0  0  0  0  0  0  0  0  0
   61.3960   29.7570   49.3370 C   0  0  0  0  0  0  0  0  0  0  0  0
   62.0440   29.4290   50.4140 N   0  0  0  0  0  0  0  0  0  0  0  0
   62.0180   30.1760   51.6360 C   0  0  0  0  0  0  0  0  0  0  0  0
   63.0730   30.7380   52.0400 O   0  0  0  0  0  0  0  0  0  0  0  0
   60.7650   30.2320   52.4640 C   0  0  0  0  0  0  0  0  0  0  0  0
   59.9732   29.6564   51.9624 H   0  0  0  0  0  0  0  0  0  0  0  0
   60.9734   29.8039   53.4556 H   0  0  0  0  0  0  0  0  0  0  0  0
   60.3250   31.6120   52.6280 N   0  0  0  0  0  0  0  0  0  0  0  0
   60.5110   32.6290   51.6350 C   0  0  0  0  0  0  0  0  0  0  0  0
   61.2290   33.6370   51.8870 O   0  0  0  0  0  0  0  0  0  0  0  0
   59.9020   32.4490   50.2720 C   0  0  1  0  0  0  0  0  0  0  0  0
   60.6525   32.0067   49.6003 H   0  0  0  0  0  0  0  0  0  0  0  0
   58.7520   31.5370   50.3370 N   0  0  0  0  0  0  0  0  0  0  0  0
   58.7710   30.6660   49.7580 H   0  0  0  0  0  0  0  0  0  0  0  0
   57.6190   31.7580   51.1850 C   0  0  0  0  0  0  0  0  0  0  0  0
   57.5220   32.8180   51.8590 O   0  0  0  0  0  0  0  0  0  0  0  0
   56.6250   30.7780   51.2640 O   0  0  0  0  0  0  0  0  0  0  0  0
   55.9520   30.4420   52.4770 C   0  0  0  0  0  0  0  0  0  0  0  0
   56.4186   29.5457   52.9117 H   0  0  0  0  0  0  0  0  0  0  0  0
   56.0327   31.2914   53.1713 H   0  0  0  0  0  0  0  0  0  0  0  0
   54.4950   30.1650   52.2220 C   0  0  0  0  0  0  0  0  0  0  0  0
   53.7880   30.8800   51.2370 C   0  0  0  0  0  0  0  0  0  0  0  0
   54.3051   31.6428   50.6365 H   0  0  0  0  0  0  0  0  0  0  0  0
   52.4300   30.6240   51.0190 C   0  0  0  0  0  0  0  0  0  0  0  0
   51.8802   31.1876   50.2509 H   0  0  0  0  0  0  0  0  0  0  0  0
   51.7710   29.6500   51.7790 C   0  0  0  0  0  0  0  0  0  0  0  0
   50.7034   29.4483   51.6070 H   0  0  0  0  0  0  0  0  0  0  0  0
   52.4690   28.9330   52.7570 C   0  0  0  0  0  0  0  0  0  0  0  0
   51.9498   28.1682   53.3532 H   0  0  0  0  0  0  0  0  0  0  0  0
   53.8260   29.1880   52.9770 C   0  0  0  0  0  0  0  0  0  0  0  0
   54.3721   28.6207   53.7451 H   0  0  0  0  0  0  0  0  0  0  0  0
   59.4690   33.8200   49.7150 C   0  0  0  0  0  0  0  0  0  0  0  0
   58.3919   33.7829   49.4946 H   0  0  0  0  0  0  0  0  0  0  0  0
   59.7101   34.5730   50.4797 H   0  0  0  0  0  0  0  0  0  0  0  0
   60.2160   34.2190   48.4320 C   0  0  0  0  0  0  0  0  0  0  0  0
   60.6132   35.2372   48.5563 H   0  0  0  0  0  0  0  0  0  0  0  0
   61.0232   33.4890   48.2723 H   0  0  0  0  0  0  0  0  0  0  0  0
   59.3240   34.1920   47.2180 C   0  0  0  0  0  0  0  0  0  0  0  0
   58.0970   33.5020   47.2460 C   0  0  0  0  0  0  0  0  0  0  0  0
   57.7735   32.9954   48.1672 H   0  0  0  0  0  0  0  0  0  0  0  0
   57.2880   33.4590   46.1050 C   0  0  0  0  0  0  0  0  0  0  0  0
   56.3339   32.9121   46.1293 H   0  0  0  0  0  0  0  0  0  0  0  0
   57.6890   34.1090   44.9350 C   0  0  0  0  0  0  0  0  0  0  0  0
   57.0490   34.0771   44.0409 H   0  0  0  0  0  0  0  0  0  0  0  0
   58.9040   34.8000   44.9010 C   0  0  0  0  0  0  0  0  0  0  0  0
   59.2189   35.3116   43.9795 H   0  0  0  0  0  0  0  0  0  0  0  0
   59.7190   34.8420   46.0350 C   0  0  0  0  0  0  0  0  0  0  0  0
   60.6744   35.3862   46.0024 H   0  0  0  0  0  0  0  0  0  0  0  0
   61.8960   30.9190   48.5320 C   0  0  0  0  0  0  0  0  0  0  0  0
   62.2383   31.7146   49.2101 H   0  0  0  0  0  0  0  0  0  0  0  0
   62.7332   30.5924   47.8977 H   0  0  0  0  0  0  0  0  0  0  0  0
   61.0832   31.3024   47.8977 H   0  0  0  0  0  0  0  0  0  0  0  0
   58.6790   29.8360   46.5000 C   0  0  0  0  0  0  0  0  0  0  0  0
   57.9547   29.3924   47.1990 H   0  0  0  0  0  0  0  0  0  0  0  0
   59.0892   30.7871   46.8703 H   0  0  0  0  0  0  0  0  0  0  0  0
   57.9650   30.1370   45.1970 C   0  0  0  0  0  0  0  0  0  0  0  0
   58.5080   31.0460   44.2730 C   0  0  0  0  0  0  0  0  0  0  0  0
   59.4671   31.5389   44.4902 H   0  0  0  0  0  0  0  0  0  0  0  0
   57.8360   31.3280   43.0780 C   0  0  0  0  0  0  0  0  0  0  0  0
   58.2620   32.0511   42.3669 H   0  0  0  0  0  0  0  0  0  0  0  0
   56.6280   30.6950   42.7860 C   0  0  0  0  0  0  0  0  0  0  0  0
   56.1012   30.9207   41.8471 H   0  0  0  0  0  0  0  0  0  0  0  0
   56.0880   29.7750   43.6860 C   0  0  0  0  0  0  0  0  0  0  0  0
   55.1390   29.2701   43.4523 H   0  0  0  0  0  0  0  0  0  0  0  0
   56.7520   29.4940   44.8850 C   0  0  0  0  0  0  0  0  0  0  0  0
   56.3233   28.7655   45.5889 H   0  0  0  0  0  0  0  0  0  0  0  0
   57.5670   25.4820   44.1910 C   0  0  0  0  0  0  0  0  0  0  0  0
   56.6224   25.9838   43.9345 H   0  0  0  0  0  0  0  0  0  0  0  0
   58.4229   25.8221   43.5895 H   0  0  0  0  0  0  0  0  0  0  0  0
   57.4080   24.0090   43.8980 C   0  0  0  0  0  0  0  0  0  0  0  0
   58.2300   23.0600   44.5350 C   0  0  0  0  0  0  0  0  0  0  0  0
   58.9967   23.3920   45.2505 H   0  0  0  0  0  0  0  0  0  0  0  0
   58.0760   21.6970   44.2620 C   0  0  0  0  0  0  0  0  0  0  0  0
   58.7184   20.9598   44.7659 H   0  0  0  0  0  0  0  0  0  0  0  0
   57.1060   21.2700   43.3490 C   0  0  0  0  0  0  0  0  0  0  0  0
   56.9792   20.1971   43.1420 H   0  0  0  0  0  0  0  0  0  0  0  0
   56.2980   22.2080   42.7000 C   0  0  0  0  0  0  0  0  0  0  0  0
   55.5403   21.8715   41.9771 H   0  0  0  0  0  0  0  0  0  0  0  0
   56.4490   23.5720   42.9660 C   0  0  0  0  0  0  0  0  0  0  0  0
   55.8162   24.3057   42.4452 H   0  0  0  0  0  0  0  0  0  0  0  0
  1  2  1  0
  2  3  1  0
  3  4  2  0
  3  5  1  0
  5  6  1  1
  5  7  1  0
  7  8  1  0
  8  9  2  0
  8 10  1  0
 10 11  1  6
 10 12  1  0
 12 13  1  0
 13 14  2  0
 13 15  1  0
 15 16  2  0
 16 17  1  0
 17 18  2  0
 17 19  1  0
 19 20  1  0
 19 21  1  0
 19 22  1  0
 22 23  1  0
 23 24  2  0
 23 25  1  0
 25 26  1  6
 25 27  1  0
 27 28  1  0
 27 29  1  0
 29 30  2  0
 29 31  1  0
 31 32  1  0
 32 33  1  0
 32 34  1  0
 32 35  1  0
 35 36  2  0
 36 37  1  0
 36 38  1  0
 38 39  1  0
 38 40  2  0
 40 41  1  0
 40 42  1  0
 42 43  1  0
 42 44  2  0
 44 45  1  0
 25 46  1  0
 46 47  1  0
 46 48  1  0
 46 49  1  0
 49 50  1  0
 49 51  1  0
 49 52  1  0
 52 53  2  0
 53 54  1  0
 53 55  1  0
 55 56  1  0
 55 57  2  0
 57 58  1  0
 57 59  1  0
 59 60  1  0
 59 61  2  0
 61 62  1  0
 15 63  1  0
 63 64  1  0
 63 65  1  0
 63 66  1  0
 10 67  1  0
 67 68  1  0
 67 69  1  0
 67 70  1  0
 70 71  2  0
 71 72  1  0
 71 73  1  0
 73 74  1  0
 73 75  2  0
 75 76  1  0
 75 77  1  0
 77 78  1  0
 77 79  2  0
 79 80  1  0
  5 81  1  0
 81 82  1  0
 81 83  1  0
 81 84  1  0
 84 85  2  0
 85 86  1  0
 85 87  1  0
 87 88  1  0
 87 89  2  0
 89 90  1  0
 89 91  1  0
 91 92  1  0
 91 93  2  0
 93 94  1  0
 44 35  1  0
 61 52  1  0
 79 70  1  0
 93 84  1  0
M  CHG  4   2  -1   7  -1  12  -1  22  -1
M  END
>  <UniqueID>  (67) 
57

>  <SMILES>  (67) 
C/C(=N/C(=O)C[N-]C(=O)[C@H](CCc1ccccc1)NC(=O)OCc1ccccc1)C(=O)[N-][C@H](Cc1ccccc1)C(=O)[N-]C(Cc1ccccc1)C([NH-])=O

>  <Energy>  (67) 
95.16845707678057

>  <Genealogy>  (67) 
CC(=NC(=O)C[N-]C(=O)C(CCc1ccccc1)NC(=O)OCc1ccccc1)C(=O)[N-]C(Cc1ccccc1)C(=O)[N-]C(Cc1ccccc1)C([NH-])=O (protonated)
CC(=NC(=O)C[N-]C(=O)[C@H](CCc1ccccc1)NC(=O)OCc1ccccc1)C(=O)[N-][C@H](Cc1ccccc1)C(=O)[N-]C(Cc1ccccc1)C([NH-])=O (chirality)
C/C(=N/C(=O)C[N-]C(=O)[C@H](CCc1ccccc1)NC(=O)OCc1ccccc1)C(=O)[N-][C@H](Cc1ccccc1)C(=O)[N-]C(Cc1ccccc1)C([NH-])=O (cis-trans isomerization)
C/C(=N/C(=O)C[N-]C(=O)[C@H](CCc1ccccc1)NC(=O)OCc1ccccc1)C(=O)[N-][C@H](Cc1ccccc1)C(=O)[N-]C(Cc1ccccc1)C([NH-])=O (3D coordinates assigned)
C/C(=N/C(=O)C[N-]C(=O)[C@H](CCc1ccccc1)NC(=O)OCc1ccccc1)C(=O)[N-][C@H](Cc1ccccc1)C(=O)[N-]C(Cc1ccccc1)C([NH-])=O (optimized conformer: 95.16845707678057 kcal/mol)

>  <smiles>  (67) 
CC(=NC(=O)CNC(=O)C(CCc1ccccc1)NC(=O)OCc1ccccc1)C(=O)NC(Cc1ccccc1)C(=O)NC(Cc1ccccc1)C(N)=O

>  <score_type>  (67) 
oracle

>  <origin>  (67) 
adg

>  <m_score__min__energy>  (67) 
-18.170000000000002

>  <m_primary>  (67) 
energy

$$$$
67:0
     RDKit          3D

 54 57  0  0  0  0  0  0  0  0999 V2000
   50.2290   32.6850   52.0000 N   0  0  0  0  0  0  0  0  0  0  0  0
   51.4960   31.7870   51.2420 S   0  0  0  0  0  0  0  0  0  0  0  0
   50.9770   31.2160   49.9520 O   0  0  0  0  0  0  0  0  0  0  0  0
   52.6530   32.7000   50.9520 O   0  0  0  0  0  0  0  0  0  0  0  0
   52.0260   30.4900   52.3070 C   0  0  0  0  0  0  0  0  0  0  0  0
   51.0910   29.7350   53.0280 C   0  0  0  0  0  0  0  0  0  0  0  0
   51.5190   28.6950   53.8590 C   0  0  0  0  0  0  0  0  0  0  0  0
   52.8800   28.4050   53.9760 C   0  0  0  0  0  0  0  0  0  0  0  0
   53.8270   29.1590   53.2640 C   0  0  0  0  0  0  0  0  0  0  0  0
   55.2890   28.8150   53.3480 C   0  0  0  0  0  0  0  0  0  0  0  0
   56.1040   29.9140   52.7430 C   0  0  0  0  0  0  0  0  0  0  0  0
   55.6680   31.0980   52.7700 O   0  0  0  0  0  0  0  0  0  0  0  0
   57.3630   29.6160   52.1210 N   0  0  0  0  0  0  0  0  0  0  0  0
   58.0810   30.5530   51.3040 C   0  0  0  0  0  0  0  0  0  0  0  0
   58.5980   30.1310   50.0710 C   0  0  0  0  0  0  0  0  0  0  0  0
   59.2940   31.0260   49.2430 C   0  0  0  0  0  0  0  0  0  0  0  0
   59.8280   30.5650   47.9100 C   0  0  0  0  0  0  0  0  0  0  0  0
   58.8120   30.6940   46.7970 C   0  0  0  0  0  0  0  0  0  0  0  0
   57.9410   29.6740   46.5580 N   0  0  0  0  0  0  0  0  0  0  0  0
   57.0370   29.7270   45.5800 N   0  0  0  0  0  0  0  0  0  0  0  0
   56.9350   30.8040   44.7640 C   0  0  0  0  0  0  0  0  0  0  0  0
   56.0820   30.7990   43.8360 O   0  0  0  0  0  0  0  0  0  0  0  0
   57.7800   31.9040   44.9640 C   0  0  0  0  0  0  0  0  0  0  0  0
   58.7260   31.8590   46.0000 C   0  0  0  0  0  0  0  0  0  0  0  0
   59.6420   33.0510   46.1670 C   0  0  0  0  0  0  0  0  0  0  0  0
   58.8510   34.3650   46.0550 C   0  0  0  0  0  0  0  0  0  0  0  0
   57.8530   34.4150   44.8690 C   0  0  0  0  0  0  0  0  0  0  0  0
   57.7580   33.1120   44.0580 C   0  0  0  0  0  0  0  0  0  0  0  0
   59.4350   32.3650   49.6400 C   0  0  0  0  0  0  0  0  0  0  0  0
   58.8990   32.7970   50.8560 C   0  0  0  0  0  0  0  0  0  0  0  0
   58.2200   31.9000   51.6850 C   0  0  0  0  0  0  0  0  0  0  0  0
   57.6530   32.3610   52.8290 F   0  0  0  0  0  0  0  0  0  0  0  0
   53.3910   30.1940   52.4200 C   0  0  0  0  0  0  0  0  0  0  0  0
   50.5160   33.6890   51.9840 H   0  0  0  0  0  0  0  0  0  0  0  0
   50.0181   29.9610   52.9400 H   0  0  0  0  0  0  0  0  0  0  0  0
   50.7817   28.1038   54.4220 H   0  0  0  0  0  0  0  0  0  0  0  0
   53.2114   27.5833   54.6280 H   0  0  0  0  0  0  0  0  0  0  0  0
   55.5740   28.6872   54.4027 H   0  0  0  0  0  0  0  0  0  0  0  0
   55.4743   27.8806   52.7980 H   0  0  0  0  0  0  0  0  0  0  0  0
   57.8300   28.7130   52.3650 H   0  0  0  0  0  0  0  0  0  0  0  0
   58.4569   29.0886   49.7493 H   0  0  0  0  0  0  0  0  0  0  0  0
   60.7086   31.1727   47.6546 H   0  0  0  0  0  0  0  0  0  0  0  0
   60.0825   29.4991   48.0051 H   0  0  0  0  0  0  0  0  0  0  0  0
   60.1220   33.0017   47.1555 H   0  0  0  0  0  0  0  0  0  0  0  0
   60.4018   33.0270   45.3719 H   0  0  0  0  0  0  0  0  0  0  0  0
   58.2843   34.5055   46.9872 H   0  0  0  0  0  0  0  0  0  0  0  0
   59.5893   35.1607   45.8767 H   0  0  0  0  0  0  0  0  0  0  0  0
   56.8545   34.6433   45.2700 H   0  0  0  0  0  0  0  0  0  0  0  0
   58.2268   35.1856   44.1788 H   0  0  0  0  0  0  0  0  0  0  0  0
   56.8194   33.1136   43.4844 H   0  0  0  0  0  0  0  0  0  0  0  0
   58.6243   33.0574   43.3824 H   0  0  0  0  0  0  0  0  0  0  0  0
   59.9688   33.0760   48.9922 H   0  0  0  0  0  0  0  0  0  0  0  0
   59.0120   33.8475   51.1620 H   0  0  0  0  0  0  0  0  0  0  0  0
   54.1258   30.7758   51.8442 H   0  0  0  0  0  0  0  0  0  0  0  0
  1  2  1  0
  2  3  2  0
  2  4  2  0
  2  5  1  0
  5  6  2  0
  6  7  1  0
  7  8  2  0
  8  9  1  0
  9 10  1  0
 10 11  1  0
 11 12  2  0
 11 13  1  0
 13 14  1  0
 14 15  2  0
 15 16  1  0
 16 17  1  0
 17 18  1  0
 18 19  2  0
 19 20  1  0
 20 21  1  0
 21 22  2  0
 21 23  1  0
 23 24  2  0
 24 25  1  0
 25 26  1  0
 26 27  1  0
 27 28  1  0
 16 29  2  0
 29 30  1  0
 30 31  2  0
 31 32  1  0
  9 33  2  0
 33  5  1  0
 31 14  1  0
 24 18  1  0
 28 23  1  0
  1 34  1  0
  6 35  1  0
  7 36  1  0
  8 37  1  0
 10 38  1  0
 10 39  1  0
 13 40  1  0
 15 41  1  0
 17 42  1  0
 17 43  1  0
 25 44  1  0
 25 45  1  0
 26 46  1  0
 26 47  1  0
 27 48  1  0
 27 49  1  0
 28 50  1  0
 28 51  1  0
 29 52  1  0
 30 53  1  0
 33 54  1  0
M  CHG  2   1  -1  20  -1
M  END
>  <UniqueID>  (68) 
58

>  <SMILES>  (68) 
[NH-]S(=O)(=O)c1cccc(CC(=O)Nc2cc(Cc3n[n-]c(=O)c4c3CCCC4)ccc2F)c1

>  <Energy>  (68) 
68.21090655667706

>  <Genealogy>  (68) 
[NH-]S(=O)(=O)c1cccc(CC(=O)Nc2cc(Cc3n[n-]c(=O)c4c3CCCC4)ccc2F)c1 (protonated)
[NH-]S(=O)(=O)c1cccc(CC(=O)Nc2cc(Cc3n[n-]c(=O)c4c3CCCC4)ccc2F)c1 (3D coordinates assigned)
[NH-]S(=O)(=O)c1cccc(CC(=O)Nc2cc(Cc3n[n-]c(=O)c4c3CCCC4)ccc2F)c1 (nonaromatic ring conformer: 68.21090655667706 kcal/mol)

>  <smiles>  (68) 
NS(=O)(=O)c1cccc(CC(=O)Nc2cc(Cc3n[nH]c(=O)c4c3CCCC4)ccc2F)c1

>  <score_type>  (68) 
oracle

>  <origin>  (68) 
adg

>  <m_score__min__energy>  (68) 
-14.27

>  <m_primary>  (68) 
energy

$$$$
68:0
     RDKit          3D

 48 51  0  0  0  0  0  0  0  0999 V2000
   55.9080   25.6620   46.3170 O   0  0  0  0  0  0  0  0  0  0  0  0
   56.6440   26.1720   45.4300 C   0  0  0  0  0  0  0  0  0  0  0  0
   57.1060   25.3800   44.3240 N   0  0  0  0  0  0  0  0  0  0  0  0
   57.0150   23.9450   44.2730 C   0  0  0  0  0  0  0  0  0  0  0  0
   56.4050   23.2930   43.1840 C   0  0  0  0  0  0  0  0  0  0  0  0
   56.3030   21.8990   43.1640 C   0  0  0  0  0  0  0  0  0  0  0  0
   56.7970   21.1440   44.2310 C   0  0  0  0  0  0  0  0  0  0  0  0
   57.3860   21.7830   45.3240 C   0  0  0  0  0  0  0  0  0  0  0  0
   57.4890   23.1780   45.3510 C   0  0  0  0  0  0  0  0  0  0  0  0
   58.0660   23.7800   46.4210 F   0  0  0  0  0  0  0  0  0  0  0  0
   56.9920   27.5980   45.5200 C   0  0  0  0  0  0  0  0  0  0  0  0
   58.1640   28.0440   46.0170 N   0  0  0  0  0  0  0  0  0  0  0  0
   58.0720   29.3840   45.9220 C   0  0  0  0  0  0  0  0  0  0  0  0
   59.1420   30.3160   46.3540 C   0  0  0  0  0  0  0  0  0  0  0  0
   58.8900   31.6980   46.4000 C   0  0  0  0  0  0  0  0  0  0  0  0
   59.8880   32.5900   46.8030 C   0  0  0  0  0  0  0  0  0  0  0  0
   61.1550   32.1170   47.1650 C   0  0  0  0  0  0  0  0  0  0  0  0
   62.4170   33.2430   47.6670 S   0  0  0  0  0  0  0  0  0  0  0  0
   61.7900   34.3750   48.4350 O   0  0  0  0  0  0  0  0  0  0  0  0
   63.0810   33.8210   46.4480 O   0  0  0  0  0  0  0  0  0  0  0  0
   63.6210   32.4680   48.6680 N   0  0  0  0  0  0  0  0  0  0  0  0
   64.5570   33.4630   49.2140 C   0  0  0  0  0  0  0  0  0  0  0  0
   65.6250   32.7590   50.0760 C   0  0  0  0  0  0  0  0  0  0  0  0
   65.3410   31.3840   50.2710 O   0  0  0  0  0  0  0  0  0  0  0  0
   64.0300   31.2330   50.7810 C   0  0  0  0  0  0  0  0  0  0  0  0
   62.9780   31.7230   49.7630 C   0  0  0  0  0  0  0  0  0  0  0  0
   61.4130   30.7420   47.1260 C   0  0  0  0  0  0  0  0  0  0  0  0
   60.4180   29.8460   46.7230 C   0  0  0  0  0  0  0  0  0  0  0  0
   56.8470   29.7120   45.3720 C   0  0  0  0  0  0  0  0  0  0  0  0
   56.1620   28.5830   45.1180 N   0  0  0  0  0  0  0  0  0  0  0  0
   57.4560   25.8790   43.4750 H   0  0  0  0  0  0  0  0  0  0  0  0
   56.0070   23.8833   42.3454 H   0  0  0  0  0  0  0  0  0  0  0  0
   55.8329   21.3953   42.3065 H   0  0  0  0  0  0  0  0  0  0  0  0
   56.7219   20.0468   44.2100 H   0  0  0  0  0  0  0  0  0  0  0  0
   57.7699   21.1881   46.1658 H   0  0  0  0  0  0  0  0  0  0  0  0
   57.8986   32.0811   46.1164 H   0  0  0  0  0  0  0  0  0  0  0  0
   59.6768   33.6690   46.8359 H   0  0  0  0  0  0  0  0  0  0  0  0
   65.0486   33.9947   48.3859 H   0  0  0  0  0  0  0  0  0  0  0  0
   64.0020   34.1795   49.8374 H   0  0  0  0  0  0  0  0  0  0  0  0
   66.6001   32.8509   49.5752 H   0  0  0  0  0  0  0  0  0  0  0  0
   65.6321   33.2436   51.0635 H   0  0  0  0  0  0  0  0  0  0  0  0
   63.8500   30.1702   51.0003 H   0  0  0  0  0  0  0  0  0  0  0  0
   63.9391   31.8372   51.6957 H   0  0  0  0  0  0  0  0  0  0  0  0
   62.4472   30.8545   49.3459 H   0  0  0  0  0  0  0  0  0  0  0  0
   62.2717   32.3907   50.2780 H   0  0  0  0  0  0  0  0  0  0  0  0
   62.4049   30.3637   47.4142 H   0  0  0  0  0  0  0  0  0  0  0  0
   60.6328   28.7676   46.6939 H   0  0  0  0  0  0  0  0  0  0  0  0
   56.4896   30.7333   45.1738 H   0  0  0  0  0  0  0  0  0  0  0  0
  1  2  2  0
  2  3  1  0
  3  4  1  0
  4  5  2  0
  5  6  1  0
  6  7  2  0
  7  8  1  0
  8  9  2  0
  9 10  1  0
  2 11  1  0
 11 12  2  0
 12 13  1  0
 13 14  1  0
 14 15  2  0
 15 16  1  0
 16 17  2  0
 17 18  1  0
 18 19  2  0
 18 20  2  0
 18 21  1  0
 21 22  1  0
 22 23  1  0
 23 24  1  0
 24 25  1  0
 25 26  1  0
 17 27  1  0
 27 28  2  0
 13 29  2  0
 29 30  1  0
  9  4  1  0
 30 11  1  0
 28 14  1  0
 26 21  1  0
  3 31  1  0
  5 32  1  0
  6 33  1  0
  7 34  1  0
  8 35  1  0
 15 36  1  0
 16 37  1  0
 22 38  1  0
 22 39  1  0
 23 40  1  0
 23 41  1  0
 25 42  1  0
 25 43  1  0
 26 44  1  0
 26 45  1  0
 27 46  1  0
 28 47  1  0
 29 48  1  0
M  CHG  1  30  -1
M  END
>  <UniqueID>  (69) 
59

>  <SMILES>  (69) 
O=C(Nc1ccccc1F)c1nc(-c2ccc(S(=O)(=O)N3CCOCC3)cc2)c[n-]1

>  <Energy>  (69) 
90.47572606347458

>  <Genealogy>  (69) 
O=C(Nc1ccccc1F)c1nc(-c2ccc(S(=O)(=O)N3CCOCC3)cc2)c[n-]1 (protonated)
O=C(Nc1ccccc1F)c1nc(-c2ccc(S(=O)(=O)N3CCOCC3)cc2)c[n-]1 (3D coordinates assigned)
O=C(Nc1ccccc1F)c1nc(-c2ccc(S(=O)(=O)N3CCOCC3)cc2)c[n-]1 (nonaromatic ring conformer: 90.47572606347458 kcal/mol)

>  <smiles>  (69) 
O=C(Nc1ccccc1F)c1nc(-c2ccc(S(=O)(=O)N3CCOCC3)cc2)c[nH]1

>  <score_type>  (69) 
oracle

>  <origin>  (69) 
adg

>  <m_score__min__energy>  (69) 
-9.5899999999999999

>  <m_primary>  (69) 
energy

$$$$
69:0
     RDKit          3D

 40 42  0  0  0  0  0  0  0  0999 V2000
   55.2860   25.3780   46.3300 O   0  0  0  0  0  0  0  0  0  0  0  0
   56.2510   24.6740   46.7320 C   0  0  0  0  0  0  0  0  0  0  0  0
   57.6010   25.1180   46.5130 N   0  0  0  0  0  0  0  0  0  0  0  0
   57.9600   26.4950   46.3010 C   0  0  0  0  0  0  0  0  0  0  0  0
   59.2420   26.9350   46.6610 C   0  0  0  0  0  0  0  0  0  0  0  0
   59.6060   28.2710   46.4830 C   0  0  0  0  0  0  0  0  0  0  0  0
   58.6920   29.1840   45.9520 C   0  0  0  0  0  0  0  0  0  0  0  0
   57.3960   28.7640   45.5990 C   0  0  0  0  0  0  0  0  0  0  0  0
   56.4330   29.6380   45.0690 O   0  0  0  0  0  0  0  0  0  0  0  0
   56.6520   30.5660   44.0060 C   0  0  0  0  0  0  0  0  0  0  0  0
   57.4120   31.7750   44.4960 C   0  0  0  0  0  0  0  0  0  0  0  0
   57.4320   32.0750   45.8700 C   0  0  0  0  0  0  0  0  0  0  0  0
   58.1350   33.1840   46.3440 C   0  0  0  0  0  0  0  0  0  0  0  0
   58.8180   34.0140   45.4530 C   0  0  0  0  0  0  0  0  0  0  0  0
   59.7000   35.4080   46.0520 Cl  0  0  0  0  0  0  0  0  0  0  0  0
   58.7960   33.7360   44.0830 C   0  0  0  0  0  0  0  0  0  0  0  0
   58.0950   32.6260   43.5980 C   0  0  0  0  0  0  0  0  0  0  0  0
   58.0850   32.3380   41.8610 Cl  0  0  0  0  0  0  0  0  0  0  0  0
   57.0370   27.4230   45.7870 C   0  0  0  0  0  0  0  0  0  0  0  0
   55.9600   23.3740   47.3700 C   0  0  0  0  0  0  0  0  0  0  0  0
   54.7260   22.8450   47.3980 C   0  0  0  0  0  0  0  0  0  0  0  0
   54.5230   21.5810   47.9670 O   0  0  0  0  0  0  0  0  0  0  0  0
   55.6140   20.7140   48.2760 C   0  0  0  0  0  0  0  0  0  0  0  0
   56.7910   21.5350   48.8030 C   0  0  0  0  0  0  0  0  0  0  0  0
   57.0180   22.6540   47.9440 O   0  0  0  0  0  0  0  0  0  0  0  0
   58.3420   24.3950   46.3780 H   0  0  0  0  0  0  0  0  0  0  0  0
   59.9650   26.2233   47.0861 H   0  0  0  0  0  0  0  0  0  0  0  0
   60.6160   28.6058   46.7619 H   0  0  0  0  0  0  0  0  0  0  0  0
   58.9860   30.2343   45.8093 H   0  0  0  0  0  0  0  0  0  0  0  0
   57.2318   30.0735   43.2114 H   0  0  0  0  0  0  0  0  0  0  0  0
   55.6762   30.8962   43.6204 H   0  0  0  0  0  0  0  0  0  0  0  0
   56.8892   31.4304   46.5770 H   0  0  0  0  0  0  0  0  0  0  0  0
   58.1509   33.4044   47.4216 H   0  0  0  0  0  0  0  0  0  0  0  0
   59.3324   34.3931   43.3827 H   0  0  0  0  0  0  0  0  0  0  0  0
   56.0202   27.0918   45.5293 H   0  0  0  0  0  0  0  0  0  0  0  0
   53.8771   23.4025   46.9754 H   0  0  0  0  0  0  0  0  0  0  0  0
   55.3003   19.9905   49.0429 H   0  0  0  0  0  0  0  0  0  0  0  0
   55.9221   20.1776   47.3664 H   0  0  0  0  0  0  0  0  0  0  0  0
   56.5624   21.8929   49.8177 H   0  0  0  0  0  0  0  0  0  0  0  0
   57.6928   20.9056   48.8288 H   0  0  0  0  0  0  0  0  0  0  0  0
  1  2  2  0
  2  3  1  0
  3  4  1  0
  4  5  2  0
  5  6  1  0
  6  7  2  0
  7  8  1  0
  8  9  1  0
  9 10  1  0
 10 11  1  0
 11 12  2  0
 12 13  1  0
 13 14  2  0
 14 15  1  0
 14 16  1  0
 16 17  2  0
 17 18  1  0
  8 19  2  0
  2 20  1  0
 20 21  2  0
 21 22  1  0
 22 23  1  0
 23 24  1  0
 24 25  1  0
 19  4  1  0
 25 20  1  0
 17 11  1  0
  3 26  1  0
  5 27  1  0
  6 28  1  0
  7 29  1  0
 10 30  1  0
 10 31  1  0
 12 32  1  0
 13 33  1  0
 16 34  1  0
 19 35  1  0
 21 36  1  0
 23 37  1  0
 23 38  1  0
 24 39  1  0
 24 40  1  0
M  END
>  <UniqueID>  (70) 
60

>  <SMILES>  (70) 
O=C(Nc1cccc(OCc2ccc(Cl)cc2Cl)c1)C1=COCCO1

>  <Energy>  (70) 
47.151133298835994

>  <Genealogy>  (70) 
O=C(Nc1cccc(OCc2ccc(Cl)cc2Cl)c1)C1=COCCO1 (3D coordinates assigned)
O=C(Nc1cccc(OCc2ccc(Cl)cc2Cl)c1)C1=COCCO1 (nonaromatic ring conformer: 47.151133298835994 kcal/mol)

>  <smiles>  (70) 
O=C(Nc1cccc(OCc2ccc(Cl)cc2Cl)c1)C1=COCCO1

>  <score_type>  (70) 
oracle

>  <origin>  (70) 
adg

>  <m_score__min__energy>  (70) 
-8.5999999999999996

>  <m_primary>  (70) 
energy

$$$$
70:0
     RDKit          3D

 46 48  0  0  0  0  0  0  0  0999 V2000
   55.1060   22.8630   48.1050 C   0  0  0  0  0  0  0  0  0  0  0  0
   56.5990   23.0800   48.2960 C   0  0  0  0  0  0  0  0  0  0  0  0
   57.1140   23.8430   47.2070 O   0  0  0  0  0  0  0  0  0  0  0  0
   56.9800   23.4950   45.8520 C   0  0  0  0  0  0  0  0  0  0  0  0
   57.8020   22.5160   45.2580 C   0  0  0  0  0  0  0  0  0  0  0  0
   57.6220   22.1540   43.9220 C   0  0  0  0  0  0  0  0  0  0  0  0
   56.6210   22.7580   43.1630 C   0  0  0  0  0  0  0  0  0  0  0  0
   55.8030   23.7350   43.7340 C   0  0  0  0  0  0  0  0  0  0  0  0
   55.9860   24.1270   45.0710 C   0  0  0  0  0  0  0  0  0  0  0  0
   55.1120   25.1860   45.6340 C   0  0  0  0  0  0  0  0  0  0  0  0
   53.8940   24.9340   45.8300 O   0  0  0  0  0  0  0  0  0  0  0  0
   55.6120   26.4810   45.9930 N   0  0  0  0  0  0  0  0  0  0  0  0
   56.7900   27.1150   45.4720 C   0  0  0  0  0  0  0  0  0  0  0  0
   57.6490   26.4590   44.5740 C   0  0  0  0  0  0  0  0  0  0  0  0
   58.7990   27.1000   44.1090 C   0  0  0  0  0  0  0  0  0  0  0  0
   59.0910   28.4040   44.5170 C   0  0  0  0  0  0  0  0  0  0  0  0
   58.2150   29.0910   45.3770 C   0  0  0  0  0  0  0  0  0  0  0  0
   58.5030   30.4230   45.8330 N   0  0  0  0  0  0  0  0  0  0  0  0
   57.8070   31.5950   45.3740 C   0  0  0  0  0  0  0  0  0  0  0  0
   56.6840   31.4810   44.8160 O   0  0  0  0  0  0  0  0  0  0  0  0
   58.3860   32.9390   45.5880 C   0  0  0  0  0  0  0  0  0  0  0  0
   58.6900   33.8670   44.6100 C   0  0  0  0  0  0  0  0  0  0  0  0
   59.1850   34.9720   45.2740 C   0  0  0  0  0  0  0  0  0  0  0  0
   59.1860   34.7500   46.5680 O   0  0  0  0  0  0  0  0  0  0  0  0
   58.7150   33.5450   46.7930 C   0  0  0  0  0  0  0  0  0  0  0  0
   58.5720   32.9640   48.1620 C   0  0  0  0  0  0  0  0  0  0  0  0
   57.0690   28.4330   45.8510 C   0  0  0  0  0  0  0  0  0  0  0  0
   54.6171   22.7919   49.0878 H   0  0  0  0  0  0  0  0  0  0  0  0
   54.6813   23.7089   47.5445 H   0  0  0  0  0  0  0  0  0  0  0  0
   54.9397   21.9312   47.5445 H   0  0  0  0  0  0  0  0  0  0  0  0
   56.7728   23.6219   49.2374 H   0  0  0  0  0  0  0  0  0  0  0  0
   57.1083   22.1057   48.3329 H   0  0  0  0  0  0  0  0  0  0  0  0
   58.5919   22.0333   45.8522 H   0  0  0  0  0  0  0  0  0  0  0  0
   58.2710   21.3910   43.4675 H   0  0  0  0  0  0  0  0  0  0  0  0
   56.4753   22.4646   42.1129 H   0  0  0  0  0  0  0  0  0  0  0  0
   55.0090   24.2016   43.1324 H   0  0  0  0  0  0  0  0  0  0  0  0
   57.4150   25.4385   44.2367 H   0  0  0  0  0  0  0  0  0  0  0  0
   59.4774   26.5766   43.4192 H   0  0  0  0  0  0  0  0  0  0  0  0
   60.0097   28.8955   44.1643 H   0  0  0  0  0  0  0  0  0  0  0  0
   59.1930   30.5320   46.6100 H   0  0  0  0  0  0  0  0  0  0  0  0
   58.5634   33.7493   43.5237 H   0  0  0  0  0  0  0  0  0  0  0  0
   59.5272   35.8992   44.7911 H   0  0  0  0  0  0  0  0  0  0  0  0
   58.7640   33.7442   48.9133 H   0  0  0  0  0  0  0  0  0  0  0  0
   57.5512   32.5747   48.2903 H   0  0  0  0  0  0  0  0  0  0  0  0
   59.2955   32.1454   48.2903 H   0  0  0  0  0  0  0  0  0  0  0  0
   56.3816   28.9601   46.5290 H   0  0  0  0  0  0  0  0  0  0  0  0
  1  2  1  0
  2  3  1  0
  3  4  1  0
  4  5  2  0
  5  6  1  0
  6  7  2  0
  7  8  1  0
  8  9  2  0
  9 10  1  0
 10 11  2  0
 10 12  1  0
 12 13  1  0
 13 14  2  0
 14 15  1  0
 15 16  2  0
 16 17  1  0
 17 18  1  0
 18 19  1  0
 19 20  2  0
 19 21  1  0
 21 22  1  0
 22 23  2  0
 23 24  1  0
 24 25  1  0
 25 26  1  0
 17 27  2  0
  9  4  1  0
 27 13  1  0
 25 21  2  0
  1 28  1  0
  1 29  1  0
  1 30  1  0
  2 31  1  0
  2 32  1  0
  5 33  1  0
  6 34  1  0
  7 35  1  0
  8 36  1  0
 14 37  1  0
 15 38  1  0
 16 39  1  0
 18 40  1  0
 22 41  1  0
 23 42  1  0
 26 43  1  0
 26 44  1  0
 26 45  1  0
 27 46  1  0
M  CHG  1  12  -1
M  END
>  <UniqueID>  (71) 
61

>  <SMILES>  (71) 
CCOc1ccccc1C(=O)[N-]c1cccc(NC(=O)c2ccoc2C)c1

>  <Energy>  (71) 
80.66978044814182

>  <Genealogy>  (71) 
CCOc1ccccc1C(=O)[N-]c1cccc(NC(=O)c2ccoc2C)c1 (protonated)
CCOc1ccccc1C(=O)[N-]c1cccc(NC(=O)c2ccoc2C)c1 (3D coordinates assigned)
CCOc1ccccc1C(=O)[N-]c1cccc(NC(=O)c2ccoc2C)c1 (optimized conformer: 80.66978044814182 kcal/mol)

>  <smiles>  (71) 
CCOc1ccccc1C(=O)Nc1cccc(NC(=O)c2ccoc2C)c1

>  <score_type>  (71) 
oracle

>  <origin>  (71) 
adg

>  <m_score__min__energy>  (71) 
-9.7400000000000002

>  <m_primary>  (71) 
energy

$$$$
71:0
     RDKit          3D

 41 44  0  0  0  0  0  0  0  0999 V2000
   56.0400   30.0130   43.1200 O   0  0  0  0  0  0  0  0  0  0  0  0
   56.9890   29.5010   43.7680 C   0  0  0  0  0  0  0  0  0  0  0  0
   57.3970   28.2360   43.4370 N   0  0  0  0  0  0  0  0  0  0  0  0
   58.4140   27.7080   44.1410 C   0  0  0  0  0  0  0  0  0  0  0  0
   58.9990   28.4110   45.1310 N   0  0  0  0  0  0  0  0  0  0  0  0
   58.6180   29.6530   45.4730 C   0  0  0  0  0  0  0  0  0  0  0  0
   57.5910   30.2140   44.7800 C   0  0  0  0  0  0  0  0  0  0  0  0
   57.4130   31.4280   45.3010 N   0  0  0  0  0  0  0  0  0  0  0  0
   58.3290   31.6290   46.3240 C   0  0  0  0  0  0  0  0  0  0  0  0
   58.3150   32.8250   47.0400 N   0  0  0  0  0  0  0  0  0  0  0  0
   58.2370   34.1720   46.5430 C   0  0  0  0  0  0  0  0  0  0  0  0
   59.4250   34.9340   47.0270 C   0  0  0  0  0  0  0  0  0  0  0  0
   59.3630   34.9140   48.4480 O   0  0  0  0  0  0  0  0  0  0  0  0
   59.5930   33.6210   48.8940 C   0  0  0  0  0  0  0  0  0  0  0  0
   58.4220   32.7350   48.5210 C   0  0  0  0  0  0  0  0  0  0  0  0
   59.0750   30.5480   46.4420 N   0  0  0  0  0  0  0  0  0  0  0  0
   60.1250   30.1150   47.3140 C   0  0  0  0  0  0  0  0  0  0  0  0
   61.1860   31.0880   47.6250 C   0  0  0  0  0  0  0  0  0  0  0  0
   61.5180   32.0930   46.7450 C   0  0  0  0  0  0  0  0  0  0  0  0
   62.4750   33.0660   47.0620 C   0  0  0  0  0  0  0  0  0  0  0  0
   62.7830   34.0590   46.1750 F   0  0  0  0  0  0  0  0  0  0  0  0
   63.1120   33.0240   48.3020 C   0  0  0  0  0  0  0  0  0  0  0  0
   62.7980   32.0350   49.1880 C   0  0  0  0  0  0  0  0  0  0  0  0
   61.8410   31.0620   48.8630 C   0  0  0  0  0  0  0  0  0  0  0  0
   61.5520   30.0650   49.7750 O   0  0  0  0  0  0  0  0  0  0  0  0
   56.9230   27.7450   42.6850 H   0  0  0  0  0  0  0  0  0  0  0  0
   58.7712   26.6943   43.9070 H   0  0  0  0  0  0  0  0  0  0  0  0
   58.2287   34.1601   45.4431 H   0  0  0  0  0  0  0  0  0  0  0  0
   57.3145   34.6502   46.9040 H   0  0  0  0  0  0  0  0  0  0  0  0
   60.3520   34.4543   46.6798 H   0  0  0  0  0  0  0  0  0  0  0  0
   59.4219   35.9644   46.6421 H   0  0  0  0  0  0  0  0  0  0  0  0
   60.5095   33.2310   48.4272 H   0  0  0  0  0  0  0  0  0  0  0  0
   59.7093   33.6288   49.9878 H   0  0  0  0  0  0  0  0  0  0  0  0
   58.6110   31.6966   48.8309 H   0  0  0  0  0  0  0  0  0  0  0  0
   57.4937   33.0527   49.0184 H   0  0  0  0  0  0  0  0  0  0  0  0
   59.6621   29.8147   48.2656 H   0  0  0  0  0  0  0  0  0  0  0  0
   60.6328   29.3070   46.7669 H   0  0  0  0  0  0  0  0  0  0  0  0
   61.0182   32.1333   45.7659 H   0  0  0  0  0  0  0  0  0  0  0  0
   63.8631   33.7837   48.5642 H   0  0  0  0  0  0  0  0  0  0  0  0
   63.2999   32.0003   50.1662 H   0  0  0  0  0  0  0  0  0  0  0  0
   62.1690   29.6490   50.4450 H   0  0  0  0  0  0  0  0  0  0  0  0
  1  2  2  0
  2  3  1  0
  3  4  1  0
  4  5  2  0
  5  6  1  0
  6  7  2  0
  7  8  1  0
  8  9  2  0
  9 10  1  0
 10 11  1  0
 11 12  1  0
 12 13  1  0
 13 14  1  0
 14 15  1  0
  9 16  1  0
 16 17  1  0
 17 18  1  0
 18 19  2  0
 19 20  1  0
 20 21  1  0
 20 22  2  0
 22 23  1  0
 23 24  2  0
 24 25  1  0
  7  2  1  0
 15 10  1  0
 24 18  1  0
 16  6  1  0
  3 26  1  0
  4 27  1  0
 11 28  1  0
 11 29  1  0
 12 30  1  0
 12 31  1  0
 14 32  1  0
 14 33  1  0
 15 34  1  0
 15 35  1  0
 17 36  1  0
 17 37  1  0
 19 38  1  0
 22 39  1  0
 23 40  1  0
 25 41  1  0
M  END
>  <smiles>  (72) 
O=c1[nH]cnc2c1nc(N1CCOCC1)n2Cc1cc(F)ccc1O

>  <score_type>  (72) 
oracle

>  <origin>  (72) 
adg

>  <m_score__min__energy>  (72) 
-7

>  <m_primary>  (72) 
energy

$$$$
72:0
     RDKit          3D

 46 48  0  0  0  0  0  0  0  0999 V2000
   57.4930   27.5520   53.4180 O   0  0  0  0  0  0  0  0  0  0  0  0
   57.3400   28.9440   53.9660 S   0  0  0  0  0  0  0  0  0  0  0  0
   58.2400   29.0860   55.1600 O   0  0  0  0  0  0  0  0  0  0  0  0
   55.6930   29.2030   54.4630 N   0  0  0  0  0  0  0  0  0  0  0  0
   54.9710   30.0550   53.5120 C   0  0  0  0  0  0  0  0  0  0  0  0
   53.4700   29.7440   53.5210 C   0  0  0  0  0  0  0  0  0  0  0  0
   52.7420   30.4810   52.4280 C   0  0  0  0  0  0  0  0  0  0  0  0
   52.7240   29.9710   51.1200 C   0  0  0  0  0  0  0  0  0  0  0  0
   52.0240   30.6410   50.1110 C   0  0  0  0  0  0  0  0  0  0  0  0
   51.3310   31.8200   50.4030 C   0  0  0  0  0  0  0  0  0  0  0  0
   50.6380   32.4810   49.3950 O   0  0  0  0  0  0  0  0  0  0  0  0
   51.3360   32.3310   51.7060 C   0  0  0  0  0  0  0  0  0  0  0  0
   50.6450   33.5000   52.0010 O   0  0  0  0  0  0  0  0  0  0  0  0
   52.0360   31.6620   52.7160 C   0  0  0  0  0  0  0  0  0  0  0  0
   57.8110   30.1290   52.7510 C   0  0  0  0  0  0  0  0  0  0  0  0
   57.7150   31.4960   53.0370 C   0  0  0  0  0  0  0  0  0  0  0  0
   58.0500   32.4430   52.0660 C   0  0  0  0  0  0  0  0  0  0  0  0
   58.4950   32.0340   50.8000 C   0  0  0  0  0  0  0  0  0  0  0  0
   58.8430   33.0580   49.7530 C   0  0  0  0  0  0  0  0  0  0  0  0
   58.2260   32.7400   48.5050 O   0  0  0  0  0  0  0  0  0  0  0  0
   58.4330   33.4260   47.2980 C   0  0  0  0  0  0  0  0  0  0  0  0
   57.7410   33.1070   46.1120 C   0  0  0  0  0  0  0  0  0  0  0  0
   57.9930   33.8210   44.9370 C   0  0  0  0  0  0  0  0  0  0  0  0
   58.9300   34.8570   44.9320 C   0  0  0  0  0  0  0  0  0  0  0  0
   59.6170   35.1810   46.1040 C   0  0  0  0  0  0  0  0  0  0  0  0
   59.3690   34.4690   47.2820 C   0  0  0  0  0  0  0  0  0  0  0  0
   58.5770   30.6620   50.5110 C   0  0  0  0  0  0  0  0  0  0  0  0
   58.2400   29.7140   51.4820 C   0  0  0  0  0  0  0  0  0  0  0  0
   55.1211   31.1091   53.7884 H   0  0  0  0  0  0  0  0  0  0  0  0
   55.3619   29.8604   52.5024 H   0  0  0  0  0  0  0  0  0  0  0  0
   53.3291   28.6626   53.3768 H   0  0  0  0  0  0  0  0  0  0  0  0
   53.0581   30.0698   54.4875 H   0  0  0  0  0  0  0  0  0  0  0  0
   53.2627   29.0405   50.8876 H   0  0  0  0  0  0  0  0  0  0  0  0
   52.0187   30.2400   49.0867 H   0  0  0  0  0  0  0  0  0  0  0  0
   52.0339   32.0622   53.7406 H   0  0  0  0  0  0  0  0  0  0  0  0
   57.3746   31.8257   54.0297 H   0  0  0  0  0  0  0  0  0  0  0  0
   57.9644   33.5154   52.2955 H   0  0  0  0  0  0  0  0  0  0  0  0
   58.4939   34.0466   50.0859 H   0  0  0  0  0  0  0  0  0  0  0  0
   59.9343   33.0627   49.6147 H   0  0  0  0  0  0  0  0  0  0  0  0
   57.0004   32.2937   46.1112 H   0  0  0  0  0  0  0  0  0  0  0  0
   57.4520   33.5664   44.0137 H   0  0  0  0  0  0  0  0  0  0  0  0
   59.1266   35.4171   44.0059 H   0  0  0  0  0  0  0  0  0  0  0  0
   60.3542   35.9974   46.1006 H   0  0  0  0  0  0  0  0  0  0  0  0
   59.9123   34.7294   48.2023 H   0  0  0  0  0  0  0  0  0  0  0  0
   58.9081   30.3315   49.5155 H   0  0  0  0  0  0  0  0  0  0  0  0
   58.3115   28.6411   51.2501 H   0  0  0  0  0  0  0  0  0  0  0  0
  1  2  2  0
  2  3  2  0
  2  4  1  0
  4  5  1  0
  5  6  1  0
  6  7  1  0
  7  8  2  0
  8  9  1  0
  9 10  2  0
 10 11  1  0
 10 12  1  0
 12 13  1  0
 12 14  2  0
  2 15  1  0
 15 16  2  0
 16 17  1  0
 17 18  2  0
 18 19  1  0
 19 20  1  0
 20 21  1  0
 21 22  2  0
 22 23  1  0
 23 24  2  0
 24 25  1  0
 25 26  2  0
 18 27  1  0
 27 28  2  0
 14  7  1  0
 28 15  1  0
 26 21  1  0
  5 29  1  0
  5 30  1  0
  6 31  1  0
  6 32  1  0
  8 33  1  0
  9 34  1  0
 14 35  1  0
 16 36  1  0
 17 37  1  0
 19 38  1  0
 19 39  1  0
 22 40  1  0
 23 41  1  0
 24 42  1  0
 25 43  1  0
 26 44  1  0
 27 45  1  0
 28 46  1  0
M  CHG  3   4  -1  11  -1  13  -1
M  END
>  <UniqueID>  (73) 
62

>  <SMILES>  (73) 
O=S(=O)([N-]CCc1ccc([O-])c([O-])c1)c1ccc(COc2ccccc2)cc1

>  <Energy>  (73) 
44.81453355430697

>  <Genealogy>  (73) 
O=S(=O)([N-]CCc1ccc([O-])c([O-])c1)c1ccc(COc2ccccc2)cc1 (protonated)
O=S(=O)([N-]CCc1ccc([O-])c([O-])c1)c1ccc(COc2ccccc2)cc1 (3D coordinates assigned)
O=S(=O)([N-]CCc1ccc([O-])c([O-])c1)c1ccc(COc2ccccc2)cc1 (optimized conformer: 44.81453355430697 kcal/mol)

>  <smiles>  (73) 
O=S(=O)(NCCc1ccc(O)c(O)c1)c1ccc(COc2ccccc2)cc1

>  <score_type>  (73) 
oracle

>  <origin>  (73) 
adg

>  <m_score__min__energy>  (73) 
-18.690000000000001

>  <m_primary>  (73) 
energy

$$$$
73:0
     RDKit          3D

 61 64  0  0  0  0  0  0  0  0999 V2000
   62.3810   34.0810   49.4780 C   0  0  0  0  0  0  0  0  0  0  0  0
   61.7530   33.8010   50.4660 C   0  0  0  0  0  0  0  0  0  0  0  0
   60.9770   33.4660   51.6650 C   0  0  0  0  0  0  0  0  0  0  0  0
   59.6500   32.9770   51.2700 N   0  0  0  0  0  0  0  0  0  0  0  0
   58.4600   33.3170   52.0630 C   0  0  0  0  0  0  0  0  0  0  0  0
   57.7170   32.0740   52.4840 C   0  0  0  0  0  0  0  0  0  0  0  0
   58.3580   31.1030   53.2690 C   0  0  0  0  0  0  0  0  0  0  0  0
   57.6930   29.9270   53.6260 C   0  0  0  0  0  0  0  0  0  0  0  0
   56.3790   29.7090   53.2020 C   0  0  0  0  0  0  0  0  0  0  0  0
   55.7350   28.5630   53.5440 N   0  0  0  0  0  0  0  0  0  0  0  0
   54.4560   28.3300   53.1460 C   0  0  0  0  0  0  0  0  0  0  0  0
   53.7770   27.0550   53.5190 C   0  0  0  0  0  0  0  0  0  0  0  0
   53.8060   29.2470   52.3830 N   0  0  0  0  0  0  0  0  0  0  0  0
   54.4020   30.4090   52.0120 C   0  0  0  0  0  0  0  0  0  0  0  0
   53.7610   31.2330   51.3060 O   0  0  0  0  0  0  0  0  0  0  0  0
   55.7210   30.6770   52.4170 C   0  0  0  0  0  0  0  0  0  0  0  0
   56.3960   31.8580   52.0620 C   0  0  0  0  0  0  0  0  0  0  0  0
   59.5420   32.0000   50.2210 C   0  0  0  0  0  0  0  0  0  0  0  0
   58.9390   32.3370   49.0020 C   0  0  0  0  0  0  0  0  0  0  0  0
   58.8290   31.3870   47.9840 C   0  0  0  0  0  0  0  0  0  0  0  0
   59.3270   30.0890   48.1690 C   0  0  0  0  0  0  0  0  0  0  0  0
   59.1870   29.0820   47.0990 C   0  0  0  0  0  0  0  0  0  0  0  0
   60.1950   28.4140   46.7500 O   0  0  0  0  0  0  0  0  0  0  0  0
   57.9380   28.8430   46.4390 N   0  0  0  0  0  0  0  0  0  0  0  0
   57.6720   29.0520   45.0140 C   0  0  1  0  0  0  0  0  0  0  0  0
   57.7380   27.7220   44.2330 C   0  0  0  0  0  0  0  0  0  0  0  0
   57.6920   26.5090   45.1340 C   0  0  0  0  0  0  0  0  0  0  0  0
   58.8770   25.8460   45.4940 C   0  0  0  0  0  0  0  0  0  0  0  0
   58.8280   24.7000   46.2940 C   0  0  0  0  0  0  0  0  0  0  0  0
   57.6000   24.2090   46.7440 C   0  0  0  0  0  0  0  0  0  0  0  0
   57.5620   23.0650   47.5340 O   0  0  0  0  0  0  0  0  0  0  0  0
   56.4120   24.8680   46.3990 C   0  0  0  0  0  0  0  0  0  0  0  0
   55.1910   24.3750   46.8550 O   0  0  0  0  0  0  0  0  0  0  0  0
   56.4600   26.0160   45.5950 C   0  0  0  0  0  0  0  0  0  0  0  0
   56.3410   29.7230   44.8320 C   0  0  0  0  0  0  0  0  0  0  0  0
   56.2620   30.9740   44.6890 O   0  0  0  0  0  0  0  0  0  0  0  0
   55.1760   28.9660   44.8740 O   0  0  0  0  0  0  0  0  0  0  0  0
   59.9100   29.7420   49.3990 C   0  0  0  0  0  0  0  0  0  0  0  0
   60.3710   28.4840   49.6150 F   0  0  0  0  0  0  0  0  0  0  0  0
   60.0230   30.6960   50.4160 C   0  0  0  0  0  0  0  0  0  0  0  0
   62.9549   34.3369   48.5751 H   0  0  0  0  0  0  0  0  0  0  0  0
   61.5012   32.6841   52.2341 H   0  0  0  0  0  0  0  0  0  0  0  0
   60.8650   34.3634   52.2912 H   0  0  0  0  0  0  0  0  0  0  0  0
   58.7723   33.8707   52.9607 H   0  0  0  0  0  0  0  0  0  0  0  0
   57.7906   33.9322   51.4438 H   0  0  0  0  0  0  0  0  0  0  0  0
   59.3919   31.2690   53.6058 H   0  0  0  0  0  0  0  0  0  0  0  0
   58.2041   29.1720   54.2414 H   0  0  0  0  0  0  0  0  0  0  0  0
   53.7320   26.9705   54.6148 H   0  0  0  0  0  0  0  0  0  0  0  0
   52.7564   27.0494   53.1086 H   0  0  0  0  0  0  0  0  0  0  0  0
   54.3419   26.2050   53.1086 H   0  0  0  0  0  0  0  0  0  0  0  0
   55.8861   32.6168   51.4502 H   0  0  0  0  0  0  0  0  0  0  0  0
   58.5505   33.3542   48.8460 H   0  0  0  0  0  0  0  0  0  0  0  0
   58.3492   31.6583   47.0321 H   0  0  0  0  0  0  0  0  0  0  0  0
   58.4534   29.7099   44.6058 H   0  0  0  0  0  0  0  0  0  0  0  0
   56.8839   27.6782   43.5412 H   0  0  0  0  0  0  0  0  0  0  0  0
   58.6989   27.7001   43.6980 H   0  0  0  0  0  0  0  0  0  0  0  0
   59.8471   26.2297   45.1453 H   0  0  0  0  0  0  0  0  0  0  0  0
   59.7593   24.1836   46.5698 H   0  0  0  0  0  0  0  0  0  0  0  0
   55.1370   23.5430   47.4310 H   0  0  0  0  0  0  0  0  0  0  0  0
   55.5278   26.5333   45.3239 H   0  0  0  0  0  0  0  0  0  0  0  0
   60.4911   30.4228   51.3732 H   0  0  0  0  0  0  0  0  0  0  0  0
  1  2  3  0
  2  3  1  0
  3  4  1  0
  4  5  1  0
  5  6  1  0
  6  7  2  0
  7  8  1  0
  8  9  2  0
  9 10  1  0
 10 11  1  0
 11 12  1  0
 11 13  2  0
 13 14  1  0
 14 15  2  0
 14 16  1  0
 16 17  2  0
  4 18  1  0
 18 19  2  0
 19 20  1  0
 20 21  2  0
 21 22  1  0
 22 23  2  0
 22 24  1  0
 24 25  1  0
 25 26  1  0
 26 27  1  0
 27 28  2  0
 28 29  1  0
 29 30  2  0
 30 31  1  0
 30 32  1  0
 32 33  1  0
 32 34  2  0
 25 35  1  0
 35 36  2  0
 35 37  1  0
 21 38  1  0
 38 39  1  0
 38 40  2  0
 17  6  1  0
 40 18  1  0
 16  9  1  0
 34 27  1  0
  1 41  1  0
  3 42  1  0
  3 43  1  0
  5 44  1  0
  5 45  1  0
  7 46  1  0
  8 47  1  0
 12 48  1  0
 12 49  1  0
 12 50  1  0
 17 51  1  0
 19 52  1  0
 20 53  1  0
 25 54  1  6
 26 55  1  0
 26 56  1  0
 28 57  1  0
 29 58  1  0
 33 59  1  0
 34 60  1  0
 40 61  1  0
M  CHG  4  10  -1  24  -1  31  -1  37  -1
M  END
>  <UniqueID>  (74) 
63

>  <SMILES>  (74) 
C#CCN(Cc1ccc2[n-]c(C)nc(=O)c2c1)c1ccc(C(=O)[N-][C@@H](Cc2ccc([O-])c(O)c2)C(=O)[O-])c(F)c1

>  <Energy>  (74) 
71.58564770462208

>  <Genealogy>  (74) 
C#CCN(Cc1ccc2[n-]c(C)nc(=O)c2c1)c1ccc(C(=O)[N-]C(Cc2ccc([O-])c(O)c2)C(=O)[O-])c(F)c1 (protonated)
C#CCN(Cc1ccc2[n-]c(C)nc(=O)c2c1)c1ccc(C(=O)[N-][C@@H](Cc2ccc([O-])c(O)c2)C(=O)[O-])c(F)c1 (chirality)
C#CCN(Cc1ccc2[n-]c(C)nc(=O)c2c1)c1ccc(C(=O)[N-][C@@H](Cc2ccc([O-])c(O)c2)C(=O)[O-])c(F)c1 (3D coordinates assigned)
C#CCN(Cc1ccc2[n-]c(C)nc(=O)c2c1)c1ccc(C(=O)[N-][C@@H](Cc2ccc([O-])c(O)c2)C(=O)[O-])c(F)c1 (optimized conformer: 71.58564770462208 kcal/mol)

>  <smiles>  (74) 
C#CCN(Cc1ccc2[nH]c(C)nc(=O)c2c1)c1ccc(C(=O)NC(Cc2ccc(O)c(O)c2)C(=O)O)c(F)c1

>  <score_type>  (74) 
oracle

>  <origin>  (74) 
adg

>  <m_score__min__energy>  (74) 
-17.140000000000001

>  <m_primary>  (74) 
energy

$$$$
74:0
     RDKit          3D

 31 33  0  0  0  0  0  0  0  0999 V2000
   57.8900   34.2220   45.5600 C   0  0  0  0  0  0  0  0  0  0  0  0
   59.1810   34.5590   46.3020 C   0  0  0  0  0  0  0  0  0  0  0  0
   60.2910   33.5030   46.1280 C   0  0  0  0  0  0  0  0  0  0  0  0
   60.0330   32.1170   46.7600 C   0  0  1  0  0  0  0  0  0  0  0  0
   58.9960   31.2750   45.9730 C   0  0  0  0  0  0  0  0  0  0  0  0
   58.9400   29.8890   46.5480 C   0  0  0  0  0  0  0  0  0  0  0  0
   59.9700   29.4220   47.3540 C   0  0  0  0  0  0  0  0  0  0  0  0
   59.6750   27.8290   47.8360 S   0  0  0  0  0  0  0  0  0  0  0  0
   58.2410   27.7190   46.9620 C   0  0  0  0  0  0  0  0  0  0  0  0
   57.4330   26.6370   46.8710 N   0  0  0  0  0  0  0  0  0  0  0  0
   56.3100   26.7150   46.1030 C   0  0  0  0  0  0  0  0  0  0  0  0
   55.5480   25.7170   46.0120 O   0  0  0  0  0  0  0  0  0  0  0  0
   56.0100   27.8700   45.4300 N   0  0  0  0  0  0  0  0  0  0  0  0
   56.8170   28.9700   45.5110 C   0  0  0  0  0  0  0  0  0  0  0  0
   56.5210   30.0160   44.8760 O   0  0  0  0  0  0  0  0  0  0  0  0
   57.9680   28.9040   46.3040 C   0  0  0  0  0  0  0  0  0  0  0  0
   61.1010   30.3040   47.7910 C   0  0  0  0  0  0  0  0  0  0  0  0
   61.2580   31.4060   46.9080 O   0  0  0  0  0  0  0  0  0  0  0  0
   57.0922   34.0138   46.2882 H   0  0  0  0  0  0  0  0  0  0  0  0
   57.5969   35.0737   44.9286 H   0  0  0  0  0  0  0  0  0  0  0  0
   58.0506   33.3357   44.9286 H   0  0  0  0  0  0  0  0  0  0  0  0
   59.5562   35.5222   45.9258 H   0  0  0  0  0  0  0  0  0  0  0  0
   58.9357   34.5932   47.3737 H   0  0  0  0  0  0  0  0  0  0  0  0
   60.4439   33.3544   45.0489 H   0  0  0  0  0  0  0  0  0  0  0  0
   61.1626   33.9078   46.6631 H   0  0  0  0  0  0  0  0  0  0  0  0
   59.5951   32.2945   47.7533 H   0  0  0  0  0  0  0  0  0  0  0  0
   58.0049   31.7456   46.0523 H   0  0  0  0  0  0  0  0  0  0  0  0
   59.2921   31.2224   44.9149 H   0  0  0  0  0  0  0  0  0  0  0  0
   55.1460   27.9110   44.8420 H   0  0  0  0  0  0  0  0  0  0  0  0
   60.8928   30.6810   48.8032 H   0  0  0  0  0  0  0  0  0  0  0  0
   62.0291   29.7136   47.7829 H   0  0  0  0  0  0  0  0  0  0  0  0
  1  2  1  0
  2  3  1  0
  3  4  1  0
  4  5  1  0
  5  6  1  0
  6  7  2  0
  7  8  1  0
  8  9  1  0
  9 10  1  0
 10 11  1  0
 11 12  2  0
 11 13  1  0
 13 14  1  0
 14 15  2  0
 14 16  1  0
  7 17  1  0
 17 18  1  0
 18  4  1  0
 16  6  1  0
 16  9  2  0
  1 19  1  0
  1 20  1  0
  1 21  1  0
  2 22  1  0
  2 23  1  0
  3 24  1  0
  3 25  1  0
  4 26  1  1
  5 27  1  0
  5 28  1  0
 13 29  1  0
 17 30  1  0
 17 31  1  0
M  CHG  1  10  -1
M  END
>  <UniqueID>  (75) 
64

>  <SMILES>  (75) 
CCC[C@H]1Cc2c(sc3[n-]c(=O)[nH]c(=O)c23)CO1

>  <Energy>  (75) 
70.40747856237275

>  <Genealogy>  (75) 
CCCC1Cc2c(sc3[n-]c(=O)[nH]c(=O)c23)CO1 (protonated)
CCC[C@H]1Cc2c(sc3[n-]c(=O)[nH]c(=O)c23)CO1 (chirality)
CCC[C@H]1Cc2c(sc3[n-]c(=O)[nH]c(=O)c23)CO1 (3D coordinates assigned)
CCC[C@H]1Cc2c(sc3[n-]c(=O)[nH]c(=O)c23)CO1 (nonaromatic ring conformer: 70.40747856237275 kcal/mol)

>  <smiles>  (75) 
CCCC1Cc2c(sc3[nH]c(=O)[nH]c(=O)c23)CO1

>  <score_type>  (75) 
oracle

>  <origin>  (75) 
adg

>  <m_score__min__energy>  (75) 
-8.8200000000000003

>  <m_primary>  (75) 
energy

$$$$
75:0
     RDKit          3D

 46 48  0  0  0  0  0  0  0  0999 V2000
   58.5630   28.9510   46.8160 C   0  0  0  0  0  0  0  0  0  0  0  0
   58.6300   30.0210   45.8320 N   0  0  0  0  0  0  0  0  0  0  0  0
   57.7800   31.1730   45.8220 C   0  0  0  0  0  0  0  0  0  0  0  0
   56.8470   31.2300   44.9780 O   0  0  0  0  0  0  0  0  0  0  0  0
   57.9800   32.3220   46.7740 C   0  0  0  0  0  0  0  0  0  0  0  0
   59.3880   32.4470   47.1550 N   0  0  0  0  0  0  0  0  0  0  0  0
   60.3230   32.8690   46.3180 N   0  0  0  0  0  0  0  0  0  0  0  0
   61.4820   32.9590   46.9990 C   0  0  0  0  0  0  0  0  0  0  0  0
   61.2780   32.5900   48.3130 C   0  0  0  0  0  0  0  0  0  0  0  0
   59.9390   32.2580   48.3770 C   0  0  0  0  0  0  0  0  0  0  0  0
   59.2300   31.8250   49.5960 C   0  0  0  0  0  0  0  0  0  0  0  0
   59.2580   30.4760   49.9800 C   0  0  0  0  0  0  0  0  0  0  0  0
   58.5930   30.0560   51.1360 C   0  0  0  0  0  0  0  0  0  0  0  0
   57.8680   30.9790   51.9100 C   0  0  0  0  0  0  0  0  0  0  0  0
   57.2000   30.6030   53.1210 N   0  0  0  0  0  0  0  0  0  0  0  0
   56.3460   29.4700   53.3300 C   0  0  0  0  0  0  0  0  0  0  0  0
   56.8110   28.3030   53.2420 O   0  0  0  0  0  0  0  0  0  0  0  0
   54.9000   29.6360   53.5960 C   0  0  0  0  0  0  0  0  0  0  0  0
   53.9010   29.1690   52.8300 C   0  0  0  0  0  0  0  0  0  0  0  0
   53.0600   30.0070   51.9630 C   0  0  0  0  0  0  0  0  0  0  0  0
   52.8220   29.6270   50.6360 C   0  0  0  0  0  0  0  0  0  0  0  0
   51.9920   30.4030   49.8230 C   0  0  0  0  0  0  0  0  0  0  0  0
   51.3990   31.5650   50.3290 C   0  0  0  0  0  0  0  0  0  0  0  0
   50.5670   32.3220   49.5110 O   0  0  0  0  0  0  0  0  0  0  0  0
   51.6430   31.9570   51.6570 C   0  0  0  0  0  0  0  0  0  0  0  0
   51.0650   33.1110   52.1860 O   0  0  0  0  0  0  0  0  0  0  0  0
   52.4800   31.1800   52.4670 C   0  0  0  0  0  0  0  0  0  0  0  0
   57.8460   32.3250   51.5270 C   0  0  0  0  0  0  0  0  0  0  0  0
   58.5100   32.7460   50.3710 C   0  0  0  0  0  0  0  0  0  0  0  0
   58.5899   29.3813   47.8280 H   0  0  0  0  0  0  0  0  0  0  0  0
   57.6278   28.3876   46.6819 H   0  0  0  0  0  0  0  0  0  0  0  0
   59.4206   28.2753   46.6819 H   0  0  0  0  0  0  0  0  0  0  0  0
   57.6547   33.2534   46.2875 H   0  0  0  0  0  0  0  0  0  0  0  0
   57.3864   32.1340   47.6808 H   0  0  0  0  0  0  0  0  0  0  0  0
   62.4444   33.2781   46.5725 H   0  0  0  0  0  0  0  0  0  0  0  0
   62.0169   32.5657   49.1275 H   0  0  0  0  0  0  0  0  0  0  0  0
   59.8062   29.7445   49.3682 H   0  0  0  0  0  0  0  0  0  0  0  0
   58.6372   29.0000   51.4409 H   0  0  0  0  0  0  0  0  0  0  0  0
   54.6182   30.1918   54.5025 H   0  0  0  0  0  0  0  0  0  0  0  0
   53.6985   28.0880   52.8527 H   0  0  0  0  0  0  0  0  0  0  0  0
   53.2893   28.7162   50.2333 H   0  0  0  0  0  0  0  0  0  0  0  0
   51.8042   30.0997   48.7825 H   0  0  0  0  0  0  0  0  0  0  0  0
   50.5320   33.7540   51.6140 H   0  0  0  0  0  0  0  0  0  0  0  0
   52.6833   31.4908   53.5024 H   0  0  0  0  0  0  0  0  0  0  0  0
   57.3017   33.0578   52.1407 H   0  0  0  0  0  0  0  0  0  0  0  0
   58.4677   33.8027   50.0683 H   0  0  0  0  0  0  0  0  0  0  0  0
  1  2  1  0
  2  3  1  0
  3  4  2  0
  3  5  1  0
  5  6  1  0
  6  7  1  0
  7  8  2  0
  8  9  1  0
  9 10  2  0
 10 11  1  0
 11 12  2  0
 12 13  1  0
 13 14  2  0
 14 15  1  0
 15 16  1  0
 16 17  2  0
 16 18  1  0
 18 19  2  3
 19 20  1  0
 20 21  2  0
 21 22  1  0
 22 23  2  0
 23 24  1  0
 23 25  1  0
 25 26  1  0
 25 27  2  0
 14 28  1  0
 28 29  2  0
 10  6  1  0
 29 11  1  0
 27 20  1  0
  1 30  1  0
  1 31  1  0
  1 32  1  0
  5 33  1  0
  5 34  1  0
  8 35  1  0
  9 36  1  0
 12 37  1  0
 13 38  1  0
 18 39  1  0
 19 40  1  0
 21 41  1  0
 22 42  1  0
 26 43  1  0
 27 44  1  0
 28 45  1  0
 29 46  1  0
M  CHG  3   2  -1  15  -1  24  -1
M  END
>  <UniqueID>  (76) 
65

>  <SMILES>  (76) 
C[N-]C(=O)Cn1nccc1-c1ccc([N-]C(=O)C=Cc2ccc([O-])c(O)c2)cc1

>  <Energy>  (76) 
91.20643885169439

>  <Genealogy>  (76) 
C[N-]C(=O)Cn1nccc1-c1ccc([N-]C(=O)C=Cc2ccc([O-])c(O)c2)cc1 (protonated)
C[N-]C(=O)Cn1nccc1-c1ccc([N-]C(=O)C=Cc2ccc([O-])c(O)c2)cc1 (3D coordinates assigned)
C[N-]C(=O)Cn1nccc1-c1ccc([N-]C(=O)C=Cc2ccc([O-])c(O)c2)cc1 (optimized conformer: 91.20643885169439 kcal/mol)

>  <smiles>  (76) 
CNC(=O)Cn1nccc1-c1ccc(NC(=O)C=Cc2ccc(O)c(O)c2)cc1

>  <score_type>  (76) 
oracle

>  <origin>  (76) 
adg

>  <m_score__min__energy>  (76) 
-14.65

>  <m_primary>  (76) 
energy

$$$$
76:0
     RDKit          3D

 30 31  0  0  0  0  0  0  0  0999 V2000
   59.1010   24.4500   45.9660 C   0  0  0  0  0  0  0  0  0  0  0  0
   58.7690   25.9160   46.0550 C   0  0  0  0  0  0  0  0  0  0  0  0
   59.8200   26.8450   46.1420 C   0  0  0  0  0  0  0  0  0  0  0  0
   59.5560   28.2120   46.2420 C   0  0  0  0  0  0  0  0  0  0  0  0
   58.2330   28.6770   46.2640 C   0  0  0  0  0  0  0  0  0  0  0  0
   57.9170   30.0720   46.3710 N   0  0  0  0  0  0  0  0  0  0  0  0
   57.6330   31.1400   45.0360 S   0  0  0  0  0  0  0  0  0  0  0  0
   58.3110   30.5950   43.8100 O   0  0  0  0  0  0  0  0  0  0  0  0
   56.1560   31.2320   44.7820 O   0  0  0  0  0  0  0  0  0  0  0  0
   58.2480   32.7400   45.4090 C   0  0  0  0  0  0  0  0  0  0  0  0
   58.3650   33.2850   46.6780 C   0  0  0  0  0  0  0  0  0  0  0  0
   58.9060   34.5750   46.6680 C   0  0  0  0  0  0  0  0  0  0  0  0
   59.2140   35.0410   45.3960 C   0  0  0  0  0  0  0  0  0  0  0  0
   58.8120   33.8470   44.2800 S   0  0  0  0  0  0  0  0  0  0  0  0
   57.1830   27.7580   46.1840 C   0  0  0  0  0  0  0  0  0  0  0  0
   57.4320   26.3790   46.0860 C   0  0  0  0  0  0  0  0  0  0  0  0
   56.0550   25.2660   46.0010 S   0  0  0  0  0  0  0  0  0  0  0  0
   54.5750   26.1580   45.9530 N   0  0  0  0  0  0  0  0  0  0  0  0
   56.1430   24.4230   44.7590 O   0  0  0  0  0  0  0  0  0  0  0  0
   56.0610   24.3600   47.1990 O   0  0  0  0  0  0  0  0  0  0  0  0
   59.1954   24.0332   46.9796 H   0  0  0  0  0  0  0  0  0  0  0  0
   58.2991   23.9245   45.4267 H   0  0  0  0  0  0  0  0  0  0  0  0
   60.0510   24.3213   45.4267 H   0  0  0  0  0  0  0  0  0  0  0  0
   60.8615   26.4912   46.1312 H   0  0  0  0  0  0  0  0  0  0  0  0
   60.3891   28.9276   46.3038 H   0  0  0  0  0  0  0  0  0  0  0  0
   58.0642   32.7588   47.5960 H   0  0  0  0  0  0  0  0  0  0  0  0
   59.0719   35.1650   47.5815 H   0  0  0  0  0  0  0  0  0  0  0  0
   59.6472   36.0238   45.1585 H   0  0  0  0  0  0  0  0  0  0  0  0
   56.1446   28.1205   46.1980 H   0  0  0  0  0  0  0  0  0  0  0  0
   54.7700   27.0940   46.3780 H   0  0  0  0  0  0  0  0  0  0  0  0
  1  2  1  0
  2  3  2  0
  3  4  1  0
  4  5  2  0
  5  6  1  0
  6  7  1  0
  7  8  2  0
  7  9  2  0
  7 10  1  0
 10 11  2  0
 11 12  1  0
 12 13  2  0
 13 14  1  0
  5 15  1  0
 15 16  2  0
 16 17  1  0
 17 18  1  0
 17 19  2  0
 17 20  2  0
 16  2  1  0
 14 10  1  0
  1 21  1  0
  1 22  1  0
  1 23  1  0
  3 24  1  0
  4 25  1  0
 11 26  1  0
 12 27  1  0
 13 28  1  0
 15 29  1  0
 18 30  1  0
M  CHG  2   6  -1  18  -1
M  END
>  <UniqueID>  (77) 
66

>  <SMILES>  (77) 
Cc1ccc([N-]S(=O)(=O)c2cccs2)cc1S([NH-])(=O)=O

>  <Energy>  (77) 
60.56030486272997

>  <Genealogy>  (77) 
Cc1ccc([N-]S(=O)(=O)c2cccs2)cc1S([NH-])(=O)=O (protonated)
Cc1ccc([N-]S(=O)(=O)c2cccs2)cc1S([NH-])(=O)=O (3D coordinates assigned)
Cc1ccc([N-]S(=O)(=O)c2cccs2)cc1S([NH-])(=O)=O (optimized conformer: 60.56030486272997 kcal/mol)

>  <smiles>  (77) 
Cc1ccc(NS(=O)(=O)c2cccs2)cc1S(N)(=O)=O

>  <score_type>  (77) 
oracle

>  <origin>  (77) 
adg

>  <m_score__min__energy>  (77) 
-12.27

>  <m_primary>  (77) 
energy

$$$$
77:0
     RDKit          3D

 57 60  0  0  0  0  0  0  0  0999 V2000
   62.9120   33.6800   46.9990 C   0  0  0  0  0  0  0  0  0  0  0  0
   61.4140   33.9100   46.8060 C   0  0  0  0  0  0  0  0  0  0  0  0
   60.6350   33.3380   47.9590 C   0  0  0  0  0  0  0  0  0  0  0  0
   59.2490   33.1330   47.8480 C   0  0  0  0  0  0  0  0  0  0  0  0
   58.5180   32.6430   48.9330 C   0  0  0  0  0  0  0  0  0  0  0  0
   59.1580   32.3700   50.1540 C   0  0  0  0  0  0  0  0  0  0  0  0
   58.3830   31.8550   51.3070 C   0  0  0  0  0  0  0  0  0  0  0  0
   58.0440   32.7260   52.3550 C   0  0  0  0  0  0  0  0  0  0  0  0
   57.2470   32.2860   53.4130 C   0  0  0  0  0  0  0  0  0  0  0  0
   56.7740   30.9640   53.4460 C   0  0  0  0  0  0  0  0  0  0  0  0
   55.9120   30.5010   54.5540 C   0  0  0  0  0  0  0  0  0  0  0  0
   56.4220   30.2840   55.6860 O   0  0  0  0  0  0  0  0  0  0  0  0
   54.4970   30.3390   54.3930 N   0  0  0  0  0  0  0  0  0  0  0  0
   53.7870   30.3810   53.1450 C   0  0  0  0  0  0  0  0  0  0  0  0
   53.8610   29.3080   52.2140 C   0  0  0  0  0  0  0  0  0  0  0  0
   53.1540   29.3570   51.0000 C   0  0  0  0  0  0  0  0  0  0  0  0
   52.3700   30.4800   50.7520 C   0  0  0  0  0  0  0  0  0  0  0  0
   51.5760   30.8160   49.6740 C   0  0  0  0  0  0  0  0  0  0  0  0
   51.3920   30.0500   48.5260 O   0  0  0  0  0  0  0  0  0  0  0  0
   50.9940   32.0130   49.9060 N   0  0  0  0  0  0  0  0  0  0  0  0
   50.1570   32.6890   49.0470 O   0  0  0  0  0  0  0  0  0  0  0  0
   51.4120   32.4430   51.1140 C   0  0  0  0  0  0  0  0  0  0  0  0
   51.0280   33.6460   51.6950 O   0  0  0  0  0  0  0  0  0  0  0  0
   52.2710   31.5100   51.6600 C   0  0  0  0  0  0  0  0  0  0  0  0
   52.9590   31.4910   52.8710 C   0  0  0  0  0  0  0  0  0  0  0  0
   57.1360   30.0810   52.4170 C   0  0  0  0  0  0  0  0  0  0  0  0
   57.9380   30.5150   51.3550 C   0  0  0  0  0  0  0  0  0  0  0  0
   58.2710   29.6060   50.3490 O   0  0  0  0  0  0  0  0  0  0  0  0
   59.5840   29.0620   50.2250 C   0  0  0  0  0  0  0  0  0  0  0  0
   60.1320   29.3230   48.8180 C   0  0  0  0  0  0  0  0  0  0  0  0
   59.0240   29.4800   47.7710 C   0  0  0  0  0  0  0  0  0  0  0  0
   58.1870   28.3550   47.7800 O   0  0  0  0  0  0  0  0  0  0  0  0
   60.5430   32.5810   50.2660 C   0  0  0  0  0  0  0  0  0  0  0  0
   61.2750   33.0630   49.1770 C   0  0  0  0  0  0  0  0  0  0  0  0
   63.1420   33.6447   48.0741 H   0  0  0  0  0  0  0  0  0  0  0  0
   63.2000   32.7271   46.5309 H   0  0  0  0  0  0  0  0  0  0  0  0
   63.4726   34.5026   46.5309 H   0  0  0  0  0  0  0  0  0  0  0  0
   61.2202   34.9908   46.7401 H   0  0  0  0  0  0  0  0  0  0  0  0
   61.0956   33.4079   45.8805 H   0  0  0  0  0  0  0  0  0  0  0  0
   58.7368   33.3597   46.9013 H   0  0  0  0  0  0  0  0  0  0  0  0
   57.4365   32.4701   48.8311 H   0  0  0  0  0  0  0  0  0  0  0  0
   58.4095   33.7634   52.3420 H   0  0  0  0  0  0  0  0  0  0  0  0
   56.9876   32.9794   54.2265 H   0  0  0  0  0  0  0  0  0  0  0  0
   54.4794   28.4286   52.4470 H   0  0  0  0  0  0  0  0  0  0  0  0
   53.2182   28.5358   50.2709 H   0  0  0  0  0  0  0  0  0  0  0  0
   50.7860   30.3700   47.7800 H   0  0  0  0  0  0  0  0  0  0  0  0
   52.8601   32.3159   53.5919 H   0  0  0  0  0  0  0  0  0  0  0  0
   56.7863   29.0384   52.4453 H   0  0  0  0  0  0  0  0  0  0  0  0
   60.2451   29.5347   50.9663 H   0  0  0  0  0  0  0  0  0  0  0  0
   59.5417   27.9767   50.3990 H   0  0  0  0  0  0  0  0  0  0  0  0
   60.7297   30.2462   48.8389 H   0  0  0  0  0  0  0  0  0  0  0  0
   60.7389   28.4516   48.5311 H   0  0  0  0  0  0  0  0  0  0  0  0
   58.4302   30.3767   48.0019 H   0  0  0  0  0  0  0  0  0  0  0  0
   59.4818   29.5791   46.7757 H   0  0  0  0  0  0  0  0  0  0  0  0
   57.8200   28.2940   48.7010 H   0  0  0  0  0  0  0  0  0  0  0  0
   61.0539   32.3656   51.2160 H   0  0  0  0  0  0  0  0  0  0  0  0
   62.3582   33.2275   49.2754 H   0  0  0  0  0  0  0  0  0  0  0  0
  1  2  1  0
  2  3  1  0
  3  4  2  0
  4  5  1  0
  5  6  2  0
  6  7  1  0
  7  8  2  0
  8  9  1  0
  9 10  2  0
 10 11  1  0
 11 12  2  0
 11 13  1  0
 13 14  1  0
 14 15  1  0
 15 16  2  0
 16 17  1  0
 17 18  2  0
 18 19  1  0
 18 20  1  0
 20 21  1  0
 20 22  1  0
 22 23  1  0
 22 24  2  0
 24 25  1  0
 10 26  1  0
 26 27  2  0
 27 28  1  0
 28 29  1  0
 29 30  1  0
 30 31  1  0
 31 32  1  0
  6 33  1  0
 33 34  2  0
 34  3  1  0
 27  7  1  0
 25 14  2  0
 24 17  1  0
  1 35  1  0
  1 36  1  0
  1 37  1  0
  2 38  1  0
  2 39  1  0
  4 40  1  0
  5 41  1  0
  8 42  1  0
  9 43  1  0
 15 44  1  0
 16 45  1  0
 19 46  1  0
 25 47  1  0
 26 48  1  0
 29 49  1  0
 29 50  1  0
 30 51  1  0
 30 52  1  0
 31 53  1  0
 31 54  1  0
 32 55  1  0
 33 56  1  0
 34 57  1  0
M  CHG  3  13  -1  21  -1  23  -1
M  END
>  <UniqueID>  (78) 
67

>  <SMILES>  (78) 
CCc1ccc(-c2ccc(C(=O)[N-]c3ccc4c(O)n([O-])c([O-])c4c3)cc2OCCCO)cc1

>  <Energy>  (78) 
109.04561368977856

>  <Genealogy>  (78) 
CCc1ccc(-c2ccc(C(=O)[N-]c3ccc4c(O)n([O-])c([O-])c4c3)cc2OCCCO)cc1 (protonated)
CCc1ccc(-c2ccc(C(=O)[N-]c3ccc4c(O)n([O-])c([O-])c4c3)cc2OCCCO)cc1 (3D coordinates assigned)
CCc1ccc(-c2ccc(C(=O)[N-]c3ccc4c(O)n([O-])c([O-])c4c3)cc2OCCCO)cc1 (optimized conformer: 109.04561368977856 kcal/mol)

>  <smiles>  (78) 
CCc1ccc(-c2ccc(C(=O)Nc3ccc4c(O)n(O)c(O)c4c3)cc2OCCCO)cc1

>  <score_type>  (78) 
oracle

>  <origin>  (78) 
adg

>  <m_score__min__energy>  (78) 
-15.359999999999999

>  <m_primary>  (78) 
energy

$$$$
78:0
     RDKit          3D

 56 60  0  0  0  0  0  0  0  0999 V2000
   55.4700   28.9560   44.8420 N   0  0  0  0  0  0  0  0  0  0  0  0
   56.9620   29.8270   44.8370 S   0  0  0  0  0  0  0  0  0  0  0  0
   57.6140   29.6960   43.4900 O   0  0  0  0  0  0  0  0  0  0  0  0
   56.6980   31.2830   45.1070 O   0  0  0  0  0  0  0  0  0  0  0  0
   58.0190   29.1770   46.0850 C   0  0  0  0  0  0  0  0  0  0  0  0
   57.7550   27.9160   46.6380 C   0  0  0  0  0  0  0  0  0  0  0  0
   58.5970   27.3900   47.6200 C   0  0  0  0  0  0  0  0  0  0  0  0
   59.7100   28.1170   48.0540 C   0  0  0  0  0  0  0  0  0  0  0  0
   59.9860   29.3830   47.5120 C   0  0  0  0  0  0  0  0  0  0  0  0
   61.1700   30.1570   47.9660 C   0  0  0  0  0  0  0  0  0  0  0  0
   61.9130   30.8950   47.0270 C   0  0  0  0  0  0  0  0  0  0  0  0
   63.0410   31.6180   47.4220 C   0  0  0  0  0  0  0  0  0  0  0  0
   63.4430   31.6220   48.7590 C   0  0  0  0  0  0  0  0  0  0  0  0
   62.7130   30.9030   49.7130 C   0  0  0  0  0  0  0  0  0  0  0  0
   63.0920   30.9050   51.0620 C   0  0  0  0  0  0  0  0  0  0  0  0
   62.3360   30.1950   51.9970 C   0  0  0  0  0  0  0  0  0  0  0  0
   61.2060   29.4910   51.5740 C   0  0  0  0  0  0  0  0  0  0  0  0
   60.2100   28.5830   52.7510 S   0  0  0  0  0  0  0  0  0  0  0  0
   58.7770   29.6220   52.4710 C   0  0  0  0  0  0  0  0  0  0  0  0
   57.6850   29.5550   53.3420 C   0  0  0  0  0  0  0  0  0  0  0  0
   56.5600   30.3510   53.1140 C   0  0  0  0  0  0  0  0  0  0  0  0
   56.5290   31.2260   52.0230 C   0  0  0  0  0  0  0  0  0  0  0  0
   57.6300   31.3220   51.1580 C   0  0  0  0  0  0  0  0  0  0  0  0
   57.5720   32.2220   50.0390 N   0  0  0  0  0  0  0  0  0  0  0  0
   58.7350   32.7300   49.3620 C   0  0  0  0  0  0  0  0  0  0  0  0
   59.8620   32.6750   49.9270 O   0  0  0  0  0  0  0  0  0  0  0  0
   58.6220   33.3700   48.0300 C   0  0  0  0  0  0  0  0  0  0  0  0
   57.4970   33.1470   47.2130 C   0  0  0  0  0  0  0  0  0  0  0  0
   57.4100   33.7470   45.9530 C   0  0  0  0  0  0  0  0  0  0  0  0
   58.4410   34.5720   45.4940 C   0  0  0  0  0  0  0  0  0  0  0  0
   59.5640   34.7950   46.2950 C   0  0  0  0  0  0  0  0  0  0  0  0
   59.6590   34.1950   47.5540 C   0  0  0  0  0  0  0  0  0  0  0  0
   58.7490   30.4990   51.3790 C   0  0  0  0  0  0  0  0  0  0  0  0
   60.8530   29.4950   50.2620 N   0  0  0  0  0  0  0  0  0  0  0  0
   61.5700   30.1680   49.3200 C   0  0  0  0  0  0  0  0  0  0  0  0
   59.1390   29.9040   46.5170 C   0  0  0  0  0  0  0  0  0  0  0  0
   54.8610   29.3920   45.5720 H   0  0  0  0  0  0  0  0  0  0  0  0
   56.8823   27.3395   46.2974 H   0  0  0  0  0  0  0  0  0  0  0  0
   58.3843   26.4015   48.0532 H   0  0  0  0  0  0  0  0  0  0  0  0
   60.3728   27.6951   48.8239 H   0  0  0  0  0  0  0  0  0  0  0  0
   61.6028   30.9029   45.9717 H   0  0  0  0  0  0  0  0  0  0  0  0
   63.6153   32.1870   46.6761 H   0  0  0  0  0  0  0  0  0  0  0  0
   64.3342   32.1906   49.0631 H   0  0  0  0  0  0  0  0  0  0  0  0
   63.9828   31.4645   51.3836 H   0  0  0  0  0  0  0  0  0  0  0  0
   62.6278   30.1901   53.0576 H   0  0  0  0  0  0  0  0  0  0  0  0
   57.7119   28.8755   54.2066 H   0  0  0  0  0  0  0  0  0  0  0  0
   55.6971   30.2897   53.7934 H   0  0  0  0  0  0  0  0  0  0  0  0
   55.6362   31.8426   51.8420 H   0  0  0  0  0  0  0  0  0  0  0  0
   56.6430   32.6280   49.7880 H   0  0  0  0  0  0  0  0  0  0  0  0
   56.6829   32.4978   47.5676 H   0  0  0  0  0  0  0  0  0  0  0  0
   56.5275   33.5693   45.3209 H   0  0  0  0  0  0  0  0  0  0  0  0
   58.3683   35.0450   44.5035 H   0  0  0  0  0  0  0  0  0  0  0  0
   60.3753   35.4443   45.9340 H   0  0  0  0  0  0  0  0  0  0  0  0
   60.5492   34.3684   48.1765 H   0  0  0  0  0  0  0  0  0  0  0  0
   59.6062   30.5442   50.6911 H   0  0  0  0  0  0  0  0  0  0  0  0
   59.3559   30.8875   46.0747 H   0  0  0  0  0  0  0  0  0  0  0  0
  1  2  1  0
  2  3  2  0
  2  4  2  0
  2  5  1  0
  5  6  2  0
  6  7  1  0
  7  8  2  0
  8  9  1  0
  9 10  1  0
 10 11  2  0
 11 12  1  0
 12 13  2  0
 13 14  1  0
 14 15  2  0
 15 16  1  0
 16 17  2  0
 17 18  1  0
 18 19  1  0
 19 20  2  0
 20 21  1  0
 21 22  2  0
 22 23  1  0
 23 24  1  0
 24 25  1  0
 25 26  2  0
 25 27  1  0
 27 28  2  0
 28 29  1  0
 29 30  2  0
 30 31  1  0
 31 32  2  0
 23 33  2  0
 17 34  1  0
 34 35  2  0
  9 36  2  0
 36  5  1  0
 35 10  1  0
 35 14  1  0
 33 19  1  0
 32 27  1  0
  1 37  1  0
  6 38  1  0
  7 39  1  0
  8 40  1  0
 11 41  1  0
 12 42  1  0
 13 43  1  0
 15 44  1  0
 16 45  1  0
 20 46  1  0
 21 47  1  0
 22 48  1  0
 24 49  1  0
 28 50  1  0
 29 51  1  0
 30 52  1  0
 31 53  1  0
 32 54  1  0
 33 55  1  0
 36 56  1  0
M  CHG  1   1  -1
M  END
>  <UniqueID>  (79) 
68

>  <SMILES>  (79) 
[NH-]S(=O)(=O)c1cccc(-c2cccc3ccc(Sc4cccc(NC(=O)c5ccccc5)c4)nc23)c1

>  <Energy>  (79) 
73.00934876906966

>  <Genealogy>  (79) 
[NH-]S(=O)(=O)c1cccc(-c2cccc3ccc(Sc4cccc(NC(=O)c5ccccc5)c4)nc23)c1 (protonated)
[NH-]S(=O)(=O)c1cccc(-c2cccc3ccc(Sc4cccc(NC(=O)c5ccccc5)c4)nc23)c1 (3D coordinates assigned)
[NH-]S(=O)(=O)c1cccc(-c2cccc3ccc(Sc4cccc(NC(=O)c5ccccc5)c4)nc23)c1 (optimized conformer: 73.00934876906966 kcal/mol)

>  <smiles>  (79) 
NS(=O)(=O)c1cccc(-c2cccc3ccc(Sc4cccc(NC(=O)c5ccccc5)c4)nc23)c1

>  <score_type>  (79) 
oracle

>  <origin>  (79) 
adg

>  <m_score__min__energy>  (79) 
-14.880000000000001

>  <m_primary>  (79) 
energy

$$$$
79:0
     RDKit          3D

 72 76  0  0  0  0  0  0  0  0999 V2000
   57.1190   34.0960   45.6160 C   0  0  0  0  0  0  0  0  0  0  0  0
   57.9570   34.6320   46.6350 O   0  0  0  0  0  0  0  0  0  0  0  0
   59.2520   34.1750   46.9180 C   0  0  0  0  0  0  0  0  0  0  0  0
   60.2030   33.9240   45.9090 C   0  0  0  0  0  0  0  0  0  0  0  0
   61.4880   33.4860   46.2460 C   0  0  0  0  0  0  0  0  0  0  0  0
   61.8370   33.2720   47.5930 C   0  0  0  0  0  0  0  0  0  0  0  0
   63.1230   32.8650   47.9760 O   0  0  0  0  0  0  0  0  0  0  0  0
   63.5590   32.6810   49.2980 C   0  0  0  0  0  0  0  0  0  0  0  0
   64.5860   33.4660   49.8450 C   0  0  0  0  0  0  0  0  0  0  0  0
   64.9860   33.2540   51.1630 C   0  0  0  0  0  0  0  0  0  0  0  0
   64.3780   32.3010   51.9150 N   0  0  0  0  0  0  0  0  0  0  0  0
   63.3820   31.5180   51.4150 C   0  0  0  0  0  0  0  0  0  0  0  0
   62.7550   30.5560   52.2200 O   0  0  0  0  0  0  0  0  0  0  0  0
   63.2070   29.2430   52.4200 C   0  0  0  0  0  0  0  0  0  0  0  0
   64.4720   29.0520   52.9830 C   0  0  0  0  0  0  0  0  0  0  0  0
   64.9850   27.7650   53.1550 C   0  0  0  0  0  0  0  0  0  0  0  0
   64.2350   26.6530   52.7670 C   0  0  0  0  0  0  0  0  0  0  0  0
   62.9560   26.8180   52.2130 C   0  0  0  0  0  0  0  0  0  0  0  0
   62.1680   25.6240   51.7340 C   0  0  0  0  0  0  0  0  0  0  0  0
   61.4090   25.1320   52.7780 F   0  0  0  0  0  0  0  0  0  0  0  0
   63.0190   24.6260   51.2900 F   0  0  0  0  0  0  0  0  0  0  0  0
   61.3320   25.9740   50.6870 F   0  0  0  0  0  0  0  0  0  0  0  0
   62.4620   28.1200   52.0100 C   0  0  0  0  0  0  0  0  0  0  0  0
   62.9820   31.6700   50.0800 C   0  0  0  0  0  0  0  0  0  0  0  0
   61.9190   30.8180   49.5320 C   0  0  0  0  0  0  0  0  0  0  0  0
   61.0550   30.3330   50.3100 O   0  0  0  0  0  0  0  0  0  0  0  0
   61.8780   30.5480   48.1220 N   0  0  0  0  0  0  0  0  0  0  0  0
   60.7410   30.0000   47.4350 C   0  0  0  0  0  0  0  0  0  0  0  0
   60.6690   30.1040   46.0370 C   0  0  0  0  0  0  0  0  0  0  0  0
   59.5540   29.6200   45.3470 C   0  0  0  0  0  0  0  0  0  0  0  0
   58.4900   29.0360   46.0480 C   0  0  0  0  0  0  0  0  0  0  0  0
   57.0940   28.4250   45.1650 S   0  0  0  0  0  0  0  0  0  0  0  0
   57.4850   28.2180   43.7310 O   0  0  0  0  0  0  0  0  0  0  0  0
   55.9480   29.3980   45.2260 O   0  0  0  0  0  0  0  0  0  0  0  0
   56.5930   26.9100   45.8440 N   0  0  0  0  0  0  0  0  0  0  0  0
   57.3430   25.6890   45.7770 C   0  0  0  0  0  0  0  0  0  0  0  0
   58.7480   25.6900   45.8590 C   0  0  0  0  0  0  0  0  0  0  0  0
   59.4620   24.4920   45.7790 C   0  0  0  0  0  0  0  0  0  0  0  0
   58.7860   23.2840   45.6160 C   0  0  0  0  0  0  0  0  0  0  0  0
   57.3910   23.2650   45.5400 C   0  0  0  0  0  0  0  0  0  0  0  0
   56.6610   24.4610   45.6280 C   0  0  0  0  0  0  0  0  0  0  0  0
   54.8990   24.4190   45.5090 S   0  0  0  0  0  0  0  0  0  0  0  0
   54.2260   25.9820   45.8260 N   0  0  0  0  0  0  0  0  0  0  0  0
   54.5000   23.9950   44.1220 O   0  0  0  0  0  0  0  0  0  0  0  0
   54.3540   23.4410   46.5110 O   0  0  0  0  0  0  0  0  0  0  0  0
   58.5460   28.9510   47.4440 C   0  0  0  0  0  0  0  0  0  0  0  0
   59.6600   29.4350   48.1350 C   0  0  0  0  0  0  0  0  0  0  0  0
   60.8890   33.5230   48.5920 C   0  0  0  0  0  0  0  0  0  0  0  0
   59.6080   33.9700   48.2560 C   0  0  0  0  0  0  0  0  0  0  0  0
   56.2781   33.5581   46.0781 H   0  0  0  0  0  0  0  0  0  0  0  0
   56.7319   34.9145   44.9914 H   0  0  0  0  0  0  0  0  0  0  0  0
   57.6998   33.4013   44.9914 H   0  0  0  0  0  0  0  0  0  0  0  0
   59.9340   34.0730   44.8529 H   0  0  0  0  0  0  0  0  0  0  0  0
   62.2302   33.3077   45.4539 H   0  0  0  0  0  0  0  0  0  0  0  0
   65.0720   34.2435   49.2373 H   0  0  0  0  0  0  0  0  0  0  0  0
   65.7960   33.8600   51.5950 H   0  0  0  0  0  0  0  0  0  0  0  0
   65.0682   29.9228   53.2931 H   0  0  0  0  0  0  0  0  0  0  0  0
   65.9826   27.6267   53.5973 H   0  0  0  0  0  0  0  0  0  0  0  0
   64.6488   25.6420   52.8962 H   0  0  0  0  0  0  0  0  0  0  0  0
   61.4843   28.2622   51.5263 H   0  0  0  0  0  0  0  0  0  0  0  0
   62.7350   30.7660   47.5620 H   0  0  0  0  0  0  0  0  0  0  0  0
   61.4958   30.5696   45.4806 H   0  0  0  0  0  0  0  0  0  0  0  0
   59.5114   29.6976   44.2506 H   0  0  0  0  0  0  0  0  0  0  0  0
   59.2873   26.6402   45.9869 H   0  0  0  0  0  0  0  0  0  0  0  0
   60.5600   24.5020   45.8448 H   0  0  0  0  0  0  0  0  0  0  0  0
   59.3521   22.3434   45.5470 H   0  0  0  0  0  0  0  0  0  0  0  0
   56.8625   22.3090   45.4107 H   0  0  0  0  0  0  0  0  0  0  0  0
   54.7620   26.6750   45.2580 H   0  0  0  0  0  0  0  0  0  0  0  0
   57.7097   28.5014   47.9994 H   0  0  0  0  0  0  0  0  0  0  0  0
   59.6916   29.3737   49.2328 H   0  0  0  0  0  0  0  0  0  0  0  0
   61.1539   33.3674   49.6482 H   0  0  0  0  0  0  0  0  0  0  0  0
   58.8725   34.1626   49.0509 H   0  0  0  0  0  0  0  0  0  0  0  0
  1  2  1  0
  2  3  1  0
  3  4  2  0
  4  5  1  0
  5  6  2  0
  6  7  1  0
  7  8  1  0
  8  9  2  0
  9 10  1  0
 10 11  2  0
 11 12  1  0
 12 13  1  0
 13 14  1  0
 14 15  2  0
 15 16  1  0
 16 17  2  0
 17 18  1  0
 18 19  1  0
 19 20  1  0
 19 21  1  0
 19 22  1  0
 18 23  2  0
 12 24  2  0
 24 25  1  0
 25 26  2  0
 25 27  1  0
 27 28  1  0
 28 29  2  0
 29 30  1  0
 30 31  2  0
 31 32  1  0
 32 33  2  0
 32 34  2  0
 32 35  1  0
 35 36  1  0
 36 37  2  0
 37 38  1  0
 38 39  2  0
 39 40  1  0
 40 41  2  0
 41 42  1  0
 42 43  1  0
 42 44  2  0
 42 45  2  0
 31 46  1  0
 46 47  2  0
  6 48  1  0
 48 49  2  0
 49  3  1  0
 24  8  1  0
 47 28  1  0
 23 14  1  0
 41 36  1  0
  1 50  1  0
  1 51  1  0
  1 52  1  0
  4 53  1  0
  5 54  1  0
  9 55  1  0
 10 56  1  0
 15 57  1  0
 16 58  1  0
 17 59  1  0
 23 60  1  0
 27 61  1  0
 29 62  1  0
 30 63  1  0
 37 64  1  0
 38 65  1  0
 39 66  1  0
 40 67  1  0
 43 68  1  0
 46 69  1  0
 47 70  1  0
 48 71  1  0
 49 72  1  0
M  CHG  2  35  -1  43  -1
M  END
>  <UniqueID>  (80) 
69

>  <SMILES>  (80) 
COc1ccc(Oc2ccnc(Oc3cccc(C(F)(F)F)c3)c2C(=O)Nc2ccc(S(=O)(=O)[N-]c3ccccc3S([NH-])(=O)=O)cc2)cc1

>  <Energy>  (80) 
105.76211550952269

>  <Genealogy>  (80) 
COc1ccc(Oc2ccnc(Oc3cccc(C(F)(F)F)c3)c2C(=O)Nc2ccc(S(=O)(=O)[N-]c3ccccc3S([NH-])(=O)=O)cc2)cc1 (protonated)
COc1ccc(Oc2ccnc(Oc3cccc(C(F)(F)F)c3)c2C(=O)Nc2ccc(S(=O)(=O)[N-]c3ccccc3S([NH-])(=O)=O)cc2)cc1 (3D coordinates assigned)
COc1ccc(Oc2ccnc(Oc3cccc(C(F)(F)F)c3)c2C(=O)Nc2ccc(S(=O)(=O)[N-]c3ccccc3S([NH-])(=O)=O)cc2)cc1 (optimized conformer: 105.76211550952269 kcal/mol)

>  <smiles>  (80) 
COc1ccc(Oc2ccnc(Oc3cccc(C(F)(F)F)c3)c2C(=O)Nc2ccc(S(=O)(=O)Nc3ccccc3S(N)(=O)=O)cc2)cc1

>  <score_type>  (80) 
oracle

>  <origin>  (80) 
adg

>  <m_score__min__energy>  (80) 
-13.470000000000001

>  <m_primary>  (80) 
energy

$$$$
80:0
     RDKit          3D

 27 28  0  0  0  0  0  0  0  0999 V2000
   58.4860   34.9660   45.0090 O   0  0  0  0  0  0  0  0  0  0  0  0
   58.9090   33.8630   45.4470 C   0  0  0  0  0  0  0  0  0  0  0  0
   58.8470   32.7140   44.5930 N   0  0  0  0  0  0  0  0  0  0  0  0
   57.9730   31.5870   44.7520 C   0  0  0  0  0  0  0  0  0  0  0  0
   56.9310   31.3260   43.8430 C   0  0  0  0  0  0  0  0  0  0  0  0
   56.1160   30.2020   44.0110 C   0  0  0  0  0  0  0  0  0  0  0  0
   56.3420   29.3240   45.0760 C   0  0  0  0  0  0  0  0  0  0  0  0
   55.5310   28.2100   45.2450 O   0  0  0  0  0  0  0  0  0  0  0  0
   57.3910   29.5670   45.9690 C   0  0  0  0  0  0  0  0  0  0  0  0
   58.2080   30.6900   45.8020 C   0  0  0  0  0  0  0  0  0  0  0  0
   59.5480   33.8040   46.7800 C   0  0  0  0  0  0  0  0  0  0  0  0
   58.9350   34.2910   47.7690 O   0  0  0  0  0  0  0  0  0  0  0  0
   60.8670   33.1610   46.9940 C   0  0  0  0  0  0  0  0  0  0  0  0
   60.9390   31.8670   47.5430 C   0  0  0  0  0  0  0  0  0  0  0  0
   62.1780   31.2560   47.7620 C   0  0  0  0  0  0  0  0  0  0  0  0
   63.3590   31.9330   47.4440 C   0  0  0  0  0  0  0  0  0  0  0  0
   63.3010   33.2230   46.9130 C   0  0  0  0  0  0  0  0  0  0  0  0
   62.0650   33.8380   46.6910 C   0  0  0  0  0  0  0  0  0  0  0  0
   56.7570   32.0081   42.9977 H   0  0  0  0  0  0  0  0  0  0  0  0
   55.2957   30.0081   43.3042 H   0  0  0  0  0  0  0  0  0  0  0  0
   57.5736   28.8741   46.8036 H   0  0  0  0  0  0  0  0  0  0  0  0
   59.0397   30.8698   46.4991 H   0  0  0  0  0  0  0  0  0  0  0  0
   60.0134   31.3319   47.8019 H   0  0  0  0  0  0  0  0  0  0  0  0
   62.2231   30.2416   48.1850 H   0  0  0  0  0  0  0  0  0  0  0  0
   64.3329   31.4499   47.6119 H   0  0  0  0  0  0  0  0  0  0  0  0
   64.2309   33.7574   46.6684 H   0  0  0  0  0  0  0  0  0  0  0  0
   62.0277   34.8566   46.2773 H   0  0  0  0  0  0  0  0  0  0  0  0
  1  2  2  0
  2  3  1  0
  3  4  1  0
  4  5  2  0
  5  6  1  0
  6  7  2  0
  7  8  1  0
  7  9  1  0
  9 10  2  0
  2 11  1  0
 11 12  2  0
 11 13  1  0
 13 14  2  0
 14 15  1  0
 15 16  2  0
 16 17  1  0
 17 18  2  0
 10  4  1  0
 18 13  1  0
  5 19  1  0
  6 20  1  0
  9 21  1  0
 10 22  1  0
 14 23  1  0
 15 24  1  0
 16 25  1  0
 17 26  1  0
 18 27  1  0
M  CHG  2   3  -1   8  -1
M  END
>  <UniqueID>  (81) 
70

>  <SMILES>  (81) 
O=C([N-]c1ccc([O-])cc1)C(=O)c1ccccc1

>  <Energy>  (81) 
36.758063575607686

>  <Genealogy>  (81) 
O=C([N-]c1ccc([O-])cc1)C(=O)c1ccccc1 (protonated)
O=C([N-]c1ccc([O-])cc1)C(=O)c1ccccc1 (3D coordinates assigned)
O=C([N-]c1ccc([O-])cc1)C(=O)c1ccccc1 (optimized conformer: 36.758063575607686 kcal/mol)

>  <smiles>  (81) 
O=C(Nc1ccc(O)cc1)C(=O)c1ccccc1

>  <score_type>  (81) 
oracle

>  <origin>  (81) 
adg

>  <m_score__min__energy>  (81) 
-10.94

>  <m_primary>  (81) 
energy

$$$$
81:0
     RDKit          3D

 57 59  0  0  0  0  0  0  0  0999 V2000
   59.8200   33.8420   53.4550 C   0  0  0  0  0  0  0  0  0  0  0  0
   60.9280   33.8560   52.5600 O   0  0  0  0  0  0  0  0  0  0  0  0
   60.8790   33.4100   51.2290 C   0  0  0  0  0  0  0  0  0  0  0  0
   59.8880   32.5190   50.7780 C   0  0  0  0  0  0  0  0  0  0  0  0
   59.8870   32.0580   49.4510 C   0  0  0  0  0  0  0  0  0  0  0  0
   58.9010   31.0470   49.0090 C   0  0  0  0  0  0  0  0  0  0  0  0
   58.1540   30.4940   49.8580 O   0  0  0  0  0  0  0  0  0  0  0  0
   58.7840   30.6660   47.6290 N   0  0  0  0  0  0  0  0  0  0  0  0
   58.2990   31.5230   46.5820 C   0  0  0  0  0  0  0  0  0  0  0  0
   58.2220   32.9140   46.7710 C   0  0  0  0  0  0  0  0  0  0  0  0
   57.7880   33.7420   45.7360 C   0  0  0  0  0  0  0  0  0  0  0  0
   57.4330   33.1920   44.5060 C   0  0  0  0  0  0  0  0  0  0  0  0
   57.4710   31.8080   44.3190 C   0  0  0  0  0  0  0  0  0  0  0  0
   57.8740   30.9580   45.3660 C   0  0  0  0  0  0  0  0  0  0  0  0
   57.9690   29.5340   45.1900 N   0  0  0  0  0  0  0  0  0  0  0  0
   56.8950   28.5850   45.2370 C   0  0  0  0  0  0  0  0  0  0  0  0
   55.7190   28.9600   44.9870 O   0  0  0  0  0  0  0  0  0  0  0  0
   57.1670   27.1800   45.6300 C   0  0  0  0  0  0  0  0  0  0  0  0
   58.4900   26.6960   45.6210 C   0  0  0  0  0  0  0  0  0  0  0  0
   58.7670   25.3750   45.9870 C   0  0  0  0  0  0  0  0  0  0  0  0
   57.7300   24.5150   46.3570 C   0  0  0  0  0  0  0  0  0  0  0  0
   58.0090   23.2020   46.7190 O   0  0  0  0  0  0  0  0  0  0  0  0
   56.4130   24.9750   46.3610 C   0  0  0  0  0  0  0  0  0  0  0  0
   56.1240   26.2970   46.0010 C   0  0  0  0  0  0  0  0  0  0  0  0
   54.7980   26.7140   46.0090 O   0  0  0  0  0  0  0  0  0  0  0  0
   60.8450   32.5510   48.5540 C   0  0  0  0  0  0  0  0  0  0  0  0
   61.8280   33.4420   48.9910 C   0  0  0  0  0  0  0  0  0  0  0  0
   61.8670   33.8570   50.3370 C   0  0  0  0  0  0  0  0  0  0  0  0
   62.8690   34.7090   50.8300 O   0  0  0  0  0  0  0  0  0  0  0  0
   64.1510   34.2900   51.3050 C   0  0  0  0  0  0  0  0  0  0  0  0
   64.0750   32.8770   51.8950 C   0  0  0  0  0  0  0  0  0  0  0  0
   64.5190   31.8690   50.9060 N   0  0  0  0  0  0  0  0  0  0  0  0
   63.3870   31.0500   50.4410 C   0  0  0  0  0  0  0  0  0  0  0  0
   65.1740   32.5110   49.7560 C   0  0  0  0  0  0  0  0  0  0  0  0
   60.1864   33.8466   54.4922 H   0  0  0  0  0  0  0  0  0  0  0  0
   59.1976   34.7324   53.2820 H   0  0  0  0  0  0  0  0  0  0  0  0
   59.2203   32.9362   53.2820 H   0  0  0  0  0  0  0  0  0  0  0  0
   59.1052   32.1795   51.4722 H   0  0  0  0  0  0  0  0  0  0  0  0
   58.5054   33.3514   47.7397 H   0  0  0  0  0  0  0  0  0  0  0  0
   57.7260   34.8293   45.8907 H   0  0  0  0  0  0  0  0  0  0  0  0
   57.1221   33.8490   43.6803 H   0  0  0  0  0  0  0  0  0  0  0  0
   57.1841   31.3798   43.3472 H   0  0  0  0  0  0  0  0  0  0  0  0
   59.3125   27.3631   45.3234 H   0  0  0  0  0  0  0  0  0  0  0  0
   59.8053   25.0117   45.9836 H   0  0  0  0  0  0  0  0  0  0  0  0
   55.5971   24.2955   46.6485 H   0  0  0  0  0  0  0  0  0  0  0  0
   60.8225   32.2346   47.5007 H   0  0  0  0  0  0  0  0  0  0  0  0
   62.5763   33.8221   48.2800 H   0  0  0  0  0  0  0  0  0  0  0  0
   64.8651   34.2940   50.4683 H   0  0  0  0  0  0  0  0  0  0  0  0
   64.4810   34.9845   52.0917 H   0  0  0  0  0  0  0  0  0  0  0  0
   64.7230   32.8214   52.7821 H   0  0  0  0  0  0  0  0  0  0  0  0
   63.0309   32.6654   52.1692 H   0  0  0  0  0  0  0  0  0  0  0  0
   62.8398   30.6541   51.3092 H   0  0  0  0  0  0  0  0  0  0  0  0
   62.7113   31.6697   49.8332 H   0  0  0  0  0  0  0  0  0  0  0  0
   63.7643   30.2144   49.8332 H   0  0  0  0  0  0  0  0  0  0  0  0
   65.9163   33.2386   50.1160 H   0  0  0  0  0  0  0  0  0  0  0  0
   65.6764   31.7458   49.1460 H   0  0  0  0  0  0  0  0  0  0  0  0
   64.4191   33.0287   49.1460 H   0  0  0  0  0  0  0  0  0  0  0  0
  1  2  1  0
  2  3  1  0
  3  4  2  0
  4  5  1  0
  5  6  1  0
  6  7  2  0
  6  8  1  0
  8  9  1  0
  9 10  2  0
 10 11  1  0
 11 12  2  0
 12 13  1  0
 13 14  2  0
 14 15  1  0
 15 16  1  0
 16 17  2  0
 16 18  1  0
 18 19  2  0
 19 20  1  0
 20 21  2  0
 21 22  1  0
 21 23  1  0
 23 24  2  0
 24 25  1  0
  5 26  2  0
 26 27  1  0
 27 28  2  0
 28 29  1  0
 29 30  1  0
 30 31  1  0
 31 32  1  0
 32 33  1  0
 32 34  1  0
 28  3  1  0
 14  9  1  0
 24 18  1  0
  1 35  1  0
  1 36  1  0
  1 37  1  0
  4 38  1  0
 10 39  1  0
 11 40  1  0
 12 41  1  0
 13 42  1  0
 19 43  1  0
 20 44  1  0
 23 45  1  0
 26 46  1  0
 27 47  1  0
 30 48  1  0
 30 49  1  0
 31 50  1  0
 31 51  1  0
 33 52  1  0
 33 53  1  0
 33 54  1  0
 34 55  1  0
 34 56  1  0
 34 57  1  0
M  CHG  4   8  -1  15  -1  22  -1  25  -1
M  END
>  <UniqueID>  (82) 
71

>  <SMILES>  (82) 
COc1cc(C(=O)[N-]c2ccccc2[N-]C(=O)c2ccc([O-])cc2[O-])ccc1OCCN(C)C

>  <Energy>  (82) 
71.64527755115486

>  <Genealogy>  (82) 
COc1cc(C(=O)[N-]c2ccccc2[N-]C(=O)c2ccc([O-])cc2[O-])ccc1OCCN(C)C (protonated)
COc1cc(C(=O)[N-]c2ccccc2[N-]C(=O)c2ccc([O-])cc2[O-])ccc1OCCN(C)C (3D coordinates assigned)
COc1cc(C(=O)[N-]c2ccccc2[N-]C(=O)c2ccc([O-])cc2[O-])ccc1OCCN(C)C (optimized conformer: 71.64527755115486 kcal/mol)

>  <smiles>  (82) 
COc1cc(C(=O)Nc2ccccc2NC(=O)c2ccc(O)cc2O)ccc1OCCN(C)C

>  <score_type>  (82) 
oracle

>  <origin>  (82) 
adg

>  <m_score__min__energy>  (82) 
-15.83

>  <m_primary>  (82) 
energy

$$$$
82:0
     RDKit          3D

 88 93  0  0  0  0  0  0  0  0999 V2000
   66.3440   32.7280   50.1320 C   0  0  0  0  0  0  0  0  0  0  0  0
   65.8360   31.4400   50.7790 C   0  0  0  0  0  0  0  0  0  0  0  0
   64.3980   31.6030   51.2920 C   0  0  0  0  0  0  0  0  0  0  0  0
   63.7670   30.2860   51.4510 N   0  0  0  0  0  0  0  0  0  0  0  0
   64.3600   29.3300   52.2330 C   0  0  0  0  0  0  0  0  0  0  0  0
   63.7430   28.0910   52.4230 C   0  0  0  0  0  0  0  0  0  0  0  0
   62.5120   27.8300   51.8190 C   0  0  0  0  0  0  0  0  0  0  0  0
   61.9120   28.8070   51.0140 C   0  0  0  0  0  0  0  0  0  0  0  0
   60.6400   28.5550   50.3950 N   0  0  0  0  0  0  0  0  0  0  0  0
   60.4580   27.4940   49.4480 C   0  0  0  0  0  0  0  0  0  0  0  0
   60.9370   26.3620   49.7160 O   0  0  0  0  0  0  0  0  0  0  0  0
   59.7950   27.7240   48.1390 C   0  0  0  0  0  0  0  0  0  0  0  0
   59.2440   26.6650   47.3960 C   0  0  0  0  0  0  0  0  0  0  0  0
   58.4970   26.9170   46.2430 C   0  0  0  0  0  0  0  0  0  0  0  0
   58.2770   28.2360   45.8140 C   0  0  0  0  0  0  0  0  0  0  0  0
   57.3460   28.5530   44.7700 N   0  0  0  0  0  0  0  0  0  0  0  0
   56.5100   29.7060   44.7000 C   0  0  0  0  0  0  0  0  0  0  0  0
   55.2670   29.6120   44.8750 O   0  0  0  0  0  0  0  0  0  0  0  0
   57.1250   31.0060   44.4270 C   0  0  0  0  0  0  0  0  0  0  0  0
   57.4350   31.3840   43.1170 C   0  0  0  0  0  0  0  0  0  0  0  0
   58.1260   32.5780   42.8730 C   0  0  0  0  0  0  0  0  0  0  0  0
   58.4950   33.3990   43.9420 C   0  0  0  0  0  0  0  0  0  0  0  0
   58.1720   33.0390   45.2580 C   0  0  0  0  0  0  0  0  0  0  0  0
   58.5830   33.8960   46.3320 N   0  0  0  0  0  0  0  0  0  0  0  0
   58.9310   33.5050   47.6690 C   0  0  0  0  0  0  0  0  0  0  0  0
   58.0370   32.9920   48.3920 O   0  0  0  0  0  0  0  0  0  0  0  0
   60.3310   33.5590   48.1720 C   0  0  0  0  0  0  0  0  0  0  0  0
   61.3930   33.3600   47.2710 C   0  0  0  0  0  0  0  0  0  0  0  0
   62.6830   33.2780   47.7120 N   0  0  0  0  0  0  0  0  0  0  0  0
   63.7690   33.0860   46.7470 C   0  0  0  0  0  0  0  0  0  0  0  0
   62.9780   33.4050   49.0370 C   0  0  0  0  0  0  0  0  0  0  0  0
   61.9610   33.5930   49.9720 C   0  0  0  0  0  0  0  0  0  0  0  0
   60.6310   33.6820   49.5520 C   0  0  0  0  0  0  0  0  0  0  0  0
   59.6060   33.8690   50.5420 N   0  0  0  0  0  0  0  0  0  0  0  0
   58.7950   32.7960   51.0470 C   0  0  0  0  0  0  0  0  0  0  0  0
   57.7320   33.0920   51.9100 C   0  0  0  0  0  0  0  0  0  0  0  0
   56.9620   32.0680   52.4690 C   0  0  0  0  0  0  0  0  0  0  0  0
   57.2370   30.7310   52.1580 C   0  0  0  0  0  0  0  0  0  0  0  0
   56.4630   29.6360   52.7850 C   0  0  0  0  0  0  0  0  0  0  0  0
   57.0730   28.7870   53.4900 O   0  0  0  0  0  0  0  0  0  0  0  0
   54.9900   29.5300   52.6240 C   0  0  0  0  0  0  0  0  0  0  0  0
   54.3130   30.3620   51.7150 C   0  0  0  0  0  0  0  0  0  0  0  0
   52.9260   30.2700   51.5680 C   0  0  0  0  0  0  0  0  0  0  0  0
   52.2080   29.3230   52.3070 C   0  0  0  0  0  0  0  0  0  0  0  0
   52.8740   28.4660   53.1800 C   0  0  0  0  0  0  0  0  0  0  0  0
   54.2570   28.5580   53.3380 C   0  0  0  0  0  0  0  0  0  0  0  0
   58.2510   30.4360   51.2300 C   0  0  0  0  0  0  0  0  0  0  0  0
   59.0290   31.4580   50.6760 C   0  0  0  0  0  0  0  0  0  0  0  0
   60.0110   31.1430   49.7400 O   0  0  0  0  0  0  0  0  0  0  0  0
   57.5040   31.8280   45.4980 C   0  0  0  0  0  0  0  0  0  0  0  0
   58.8670   29.2880   46.5220 C   0  0  0  0  0  0  0  0  0  0  0  0
   59.6200   29.0350   47.6690 C   0  0  0  0  0  0  0  0  0  0  0  0
   62.5560   30.0470   50.8610 C   0  0  0  0  0  0  0  0  0  0  0  0
   66.6270   33.4455   50.9163 H   0  0  0  0  0  0  0  0  0  0  0  0
   67.2208   32.5033   49.5070 H   0  0  0  0  0  0  0  0  0  0  0  0
   65.5498   33.1623   49.5070 H   0  0  0  0  0  0  0  0  0  0  0  0
   65.8612   30.6308   50.0343 H   0  0  0  0  0  0  0  0  0  0  0  0
   66.4850   31.2018   51.6346 H   0  0  0  0  0  0  0  0  0  0  0  0
   64.4145   32.1183   52.2637 H   0  0  0  0  0  0  0  0  0  0  0  0
   63.8210   32.1936   50.5652 H   0  0  0  0  0  0  0  0  0  0  0  0
   65.3270   29.5391   52.7138 H   0  0  0  0  0  0  0  0  0  0  0  0
   64.2256   27.3239   53.0464 H   0  0  0  0  0  0  0  0  0  0  0  0
   62.0150   26.8611   51.9745 H   0  0  0  0  0  0  0  0  0  0  0  0
   59.8370   29.1950   50.6180 H   0  0  0  0  0  0  0  0  0  0  0  0
   59.4028   25.6278   47.7261 H   0  0  0  0  0  0  0  0  0  0  0  0
   58.0788   26.0778   45.6679 H   0  0  0  0  0  0  0  0  0  0  0  0
   57.1354   30.7420   42.2755 H   0  0  0  0  0  0  0  0  0  0  0  0
   58.3775   32.8686   41.8423 H   0  0  0  0  0  0  0  0  0  0  0  0
   59.0423   34.3336   43.7497 H   0  0  0  0  0  0  0  0  0  0  0  0
   61.1812   33.2691   46.1954 H   0  0  0  0  0  0  0  0  0  0  0  0
   64.7132   32.9191   47.2860 H   0  0  0  0  0  0  0  0  0  0  0  0
   63.5481   32.2130   46.1153 H   0  0  0  0  0  0  0  0  0  0  0  0
   63.8608   33.9818   46.1153 H   0  0  0  0  0  0  0  0  0  0  0  0
   64.0252   33.3588   49.3705 H   0  0  0  0  0  0  0  0  0  0  0  0
   62.2057   33.6714   51.0416 H   0  0  0  0  0  0  0  0  0  0  0  0
   59.4460   34.8320   50.9150 H   0  0  0  0  0  0  0  0  0  0  0  0
   57.5010   34.1403   52.1501 H   0  0  0  0  0  0  0  0  0  0  0  0
   56.1379   32.3133   53.1550 H   0  0  0  0  0  0  0  0  0  0  0  0
   54.8787   31.0903   51.1154 H   0  0  0  0  0  0  0  0  0  0  0  0
   52.3999   30.9407   50.8728 H   0  0  0  0  0  0  0  0  0  0  0  0
   51.1155   29.2553   52.1982 H   0  0  0  0  0  0  0  0  0  0  0  0
   52.3069   27.7133   53.7474 H   0  0  0  0  0  0  0  0  0  0  0  0
   54.7778   27.8709   54.0211 H   0  0  0  0  0  0  0  0  0  0  0  0
   58.4343   29.3918   50.9368 H   0  0  0  0  0  0  0  0  0  0  0  0
   57.2770   31.5227   46.5301 H   0  0  0  0  0  0  0  0  0  0  0  0
   58.7364   30.3226   46.1719 H   0  0  0  0  0  0  0  0  0  0  0  0
   60.0821   29.8730   48.2115 H   0  0  0  0  0  0  0  0  0  0  0  0
   62.0802   30.8353   50.2592 H   0  0  0  0  0  0  0  0  0  0  0  0
  1  2  1  0
  2  3  1  0
  3  4  1  0
  4  5  2  0
  5  6  1  0
  6  7  2  0
  7  8  1  0
  8  9  1  0
  9 10  1  0
 10 11  2  0
 10 12  1  0
 12 13  2  0
 13 14  1  0
 14 15  2  0
 15 16  1  0
 16 17  1  0
 17 18  2  0
 17 19  1  0
 19 20  2  0
 20 21  1  0
 21 22  2  0
 22 23  1  0
 23 24  1  0
 24 25  1  0
 25 26  2  0
 25 27  1  0
 27 28  2  0
 28 29  1  0
 29 30  1  0
 29 31  2  0
 31 32  1  0
 32 33  2  0
 33 34  1  0
 34 35  1  0
 35 36  2  0
 36 37  1  0
 37 38  2  0
 38 39  1  0
 39 40  2  0
 39 41  1  0
 41 42  2  0
 42 43  1  0
 43 44  2  0
 44 45  1  0
 45 46  2  0
 38 47  1  0
 47 48  2  0
 48 49  1  0
 23 50  2  0
 15 51  1  0
 51 52  2  0
  8 53  2  0
 53  4  1  0
 52 12  1  0
 50 19  1  0
 33 27  1  0
 48 35  1  0
 46 41  1  0
  1 54  1  0
  1 55  1  0
  1 56  1  0
  2 57  1  0
  2 58  1  0
  3 59  1  0
  3 60  1  0
  5 61  1  0
  6 62  1  0
  7 63  1  0
  9 64  1  0
 13 65  1  0
 14 66  1  0
 20 67  1  0
 21 68  1  0
 22 69  1  0
 28 70  1  0
 30 71  1  0
 30 72  1  0
 30 73  1  0
 31 74  1  0
 32 75  1  0
 34 76  1  0
 36 77  1  0
 37 78  1  0
 42 79  1  0
 43 80  1  0
 44 81  1  0
 45 82  1  0
 46 83  1  0
 47 84  1  0
 50 85  1  0
 51 86  1  0
 52 87  1  0
 53 88  1  0
M  CHG  5   4   1  16  -1  24  -1  29   1  49  -1
M  END
>  <UniqueID>  (83) 
72

>  <SMILES>  (83) 
CCC[n+]1cccc(NC(=O)c2ccc([N-]C(=O)c3cccc([N-]C(=O)c4c[n+](C)ccc4Nc4ccc(C(=O)c5ccccc5)cc4[O-])c3)cc2)c1

>  <Energy>  (83) 
129.99593482958664

>  <Genealogy>  (83) 
CCC[n+]1cccc(NC(=O)c2ccc([N-]C(=O)c3cccc([N-]C(=O)c4c[n+](C)ccc4Nc4ccc(C(=O)c5ccccc5)cc4[O-])c3)cc2)c1 (protonated)
CCC[n+]1cccc(NC(=O)c2ccc([N-]C(=O)c3cccc([N-]C(=O)c4c[n+](C)ccc4Nc4ccc(C(=O)c5ccccc5)cc4[O-])c3)cc2)c1 (3D coordinates assigned)
CCC[n+]1cccc(NC(=O)c2ccc([N-]C(=O)c3cccc([N-]C(=O)c4c[n+](C)ccc4Nc4ccc(C(=O)c5ccccc5)cc4[O-])c3)cc2)c1 (optimized conformer: 129.99593482958664 kcal/mol)

>  <smiles>  (83) 
CCC[n+]1cccc(NC(=O)c2ccc(NC(=O)c3cccc(NC(=O)c4c[n+](C)ccc4Nc4ccc(C(=O)c5ccccc5)cc4O)c3)cc2)c1

>  <score_type>  (83) 
oracle

>  <origin>  (83) 
adg

>  <m_score__min__energy>  (83) 
-12.460000000000001

>  <m_primary>  (83) 
energy

$$$$
83:0
     RDKit          3D

 54 57  0  0  0  0  0  0  0  0999 V2000
   59.2290   30.2420   50.0140 O   0  0  0  0  0  0  0  0  0  0  0  0
   60.4110   30.0180   49.6380 C   0  0  0  0  0  0  0  0  0  0  0  0
   61.5570   30.7270   50.3170 C   0  0  0  0  0  0  0  0  0  0  0  0
   62.0140   31.9320   49.5940 N   0  0  0  0  0  0  0  0  0  0  0  0
   61.1980   33.1440   49.8570 C   0  0  0  0  0  0  0  0  0  0  0  0
   61.0680   34.0490   48.6330 C   0  0  0  0  0  0  0  0  0  0  0  0
   60.6370   33.2440   47.4890 N   0  0  0  0  0  0  0  0  0  0  0  0
   59.4620   33.6030   46.7480 C   0  0  0  0  0  0  0  0  0  0  0  0
   59.5680   34.4070   45.6010 C   0  0  0  0  0  0  0  0  0  0  0  0
   58.4230   34.7540   44.8780 C   0  0  0  0  0  0  0  0  0  0  0  0
   57.1690   34.2920   45.2880 C   0  0  0  0  0  0  0  0  0  0  0  0
   57.0590   33.4870   46.4250 C   0  0  0  0  0  0  0  0  0  0  0  0
   58.1980   33.1540   47.1620 C   0  0  0  0  0  0  0  0  0  0  0  0
   61.3510   32.0070   47.1620 C   0  0  0  0  0  0  0  0  0  0  0  0
   62.4470   31.6970   48.1960 C   0  0  0  0  0  0  0  0  0  0  0  0
   60.6740   29.0290   48.6290 N   0  0  0  0  0  0  0  0  0  0  0  0
   59.6490   28.3840   47.8550 C   0  0  0  0  0  0  0  0  0  0  0  0
   59.6260   26.9840   47.7730 C   0  0  0  0  0  0  0  0  0  0  0  0
   58.6400   26.3350   47.0240 C   0  0  0  0  0  0  0  0  0  0  0  0
   57.6900   27.0820   46.3200 C   0  0  0  0  0  0  0  0  0  0  0  0
   57.7310   28.4800   46.3480 C   0  0  0  0  0  0  0  0  0  0  0  0
   56.7850   29.2010   45.6060 O   0  0  0  0  0  0  0  0  0  0  0  0
   57.0780   30.0250   44.5100 C   0  0  0  0  0  0  0  0  0  0  0  0
   56.3330   29.9740   43.3140 C   0  0  0  0  0  0  0  0  0  0  0  0
   56.6390   30.8360   42.2570 C   0  0  0  0  0  0  0  0  0  0  0  0
   57.6720   31.7650   42.3880 C   0  0  0  0  0  0  0  0  0  0  0  0
   58.4110   31.8270   43.5740 C   0  0  0  0  0  0  0  0  0  0  0  0
   58.1120   30.9630   44.6300 C   0  0  0  0  0  0  0  0  0  0  0  0
   58.6940   29.1280   47.1390 C   0  0  0  0  0  0  0  0  0  0  0  0
   61.2333   31.0270   51.3246 H   0  0  0  0  0  0  0  0  0  0  0  0
   62.4030   30.0244   50.3434 H   0  0  0  0  0  0  0  0  0  0  0  0
   60.1914   32.8287   50.1692 H   0  0  0  0  0  0  0  0  0  0  0  0
   61.7075   33.7215   50.6425 H   0  0  0  0  0  0  0  0  0  0  0  0
   60.3242   34.8345   48.8324 H   0  0  0  0  0  0  0  0  0  0  0  0
   62.0383   34.5182   48.4129 H   0  0  0  0  0  0  0  0  0  0  0  0
   60.5545   34.7645   45.2709 H   0  0  0  0  0  0  0  0  0  0  0  0
   58.5089   35.3913   43.9855 H   0  0  0  0  0  0  0  0  0  0  0  0
   56.2691   34.5620   44.7159 H   0  0  0  0  0  0  0  0  0  0  0  0
   56.0731   33.1147   46.7404 H   0  0  0  0  0  0  0  0  0  0  0  0
   58.1042   32.5385   48.0689 H   0  0  0  0  0  0  0  0  0  0  0  0
   60.6325   31.1743   47.1425 H   0  0  0  0  0  0  0  0  0  0  0  0
   61.8299   32.1349   46.1800 H   0  0  0  0  0  0  0  0  0  0  0  0
   62.7366   30.6409   48.0925 H   0  0  0  0  0  0  0  0  0  0  0  0
   63.2876   32.3775   47.9954 H   0  0  0  0  0  0  0  0  0  0  0  0
   61.6510   28.6720   48.5370 H   0  0  0  0  0  0  0  0  0  0  0  0
   60.3886   26.3930   48.3014 H   0  0  0  0  0  0  0  0  0  0  0  0
   58.6113   25.2360   46.9883 H   0  0  0  0  0  0  0  0  0  0  0  0
   56.9076   26.5683   45.7421 H   0  0  0  0  0  0  0  0  0  0  0  0
   55.5081   29.2534   43.2124 H   0  0  0  0  0  0  0  0  0  0  0  0
   56.0646   30.7819   41.3204 H   0  0  0  0  0  0  0  0  0  0  0  0
   57.9052   32.4487   41.5584 H   0  0  0  0  0  0  0  0  0  0  0  0
   59.2280   32.5565   43.6751 H   0  0  0  0  0  0  0  0  0  0  0  0
   58.6925   31.0194   45.5627 H   0  0  0  0  0  0  0  0  0  0  0  0
   58.7013   30.2263   47.1990 H   0  0  0  0  0  0  0  0  0  0  0  0
  1  2  2  0
  2  3  1  0
  3  4  1  0
  4  5  1  0
  5  6  1  0
  6  7  1  0
  7  8  1  0
  8  9  2  0
  9 10  1  0
 10 11  2  0
 11 12  1  0
 12 13  2  0
  7 14  1  0
 14 15  1  0
  2 16  1  0
 16 17  1  0
 17 18  2  0
 18 19  1  0
 19 20  2  0
 20 21  1  0
 21 22  1  0
 22 23  1  0
 23 24  2  0
 24 25  1  0
 25 26  2  0
 26 27  1  0
 27 28  2  0
 21 29  2  0
 15  4  1  0
 29 17  1  0
 13  8  1  0
 28 23  1  0
  3 30  1  0
  3 31  1  0
  5 32  1  0
  5 33  1  0
  6 34  1  0
  6 35  1  0
  9 36  1  0
 10 37  1  0
 11 38  1  0
 12 39  1  0
 13 40  1  0
 14 41  1  0
 14 42  1  0
 15 43  1  0
 15 44  1  0
 16 45  1  0
 18 46  1  0
 19 47  1  0
 20 48  1  0
 24 49  1  0
 25 50  1  0
 26 51  1  0
 27 52  1  0
 28 53  1  0
 29 54  1  0
M  END
>  <UniqueID>  (84) 
73

>  <SMILES>  (84) 
O=C(CN1CCN(c2ccccc2)CC1)Nc1cccc(Oc2ccccc2)c1

>  <Energy>  (84) 
77.27698267894618

>  <Genealogy>  (84) 
O=C(CN1CCN(c2ccccc2)CC1)Nc1cccc(Oc2ccccc2)c1 (3D coordinates assigned)
O=C(CN1CCN(c2ccccc2)CC1)Nc1cccc(Oc2ccccc2)c1 (nonaromatic ring conformer: 77.27698267894618 kcal/mol)

>  <smiles>  (84) 
O=C(CN1CCN(c2ccccc2)CC1)Nc1cccc(Oc2ccccc2)c1

>  <score_type>  (84) 
oracle

>  <origin>  (84) 
adg

>  <m_score__min__energy>  (84) 
-9.8499999999999996

>  <m_primary>  (84) 
energy

$$$$
84:0
     RDKit          3D

 43 45  0  0  0  0  0  0  0  0999 V2000
   55.1800   26.7080   46.0030 O   0  0  0  0  0  0  0  0  0  0  0  0
   56.4140   26.9340   45.8750 C   0  0  0  0  0  0  0  0  0  0  0  0
   56.8810   28.2960   45.4830 C   0  0  0  0  0  0  0  0  0  0  0  0
   55.5240   29.1960   44.6660 S   0  0  0  0  0  0  0  0  0  0  0  0
   56.5650   30.5770   44.2100 C   0  0  0  0  0  0  0  0  0  0  0  0
   57.1650   31.3200   45.1760 N   0  0  0  0  0  0  0  0  0  0  0  0
   57.9620   32.3790   44.8670 C   0  0  0  0  0  0  0  0  0  0  0  0
   58.5870   33.1620   45.9640 C   0  0  0  0  0  0  0  0  0  0  0  0
   59.3500   34.3170   45.7000 C   0  0  0  0  0  0  0  0  0  0  0  0
   59.9390   35.0310   46.7480 C   0  0  0  0  0  0  0  0  0  0  0  0
   59.7760   34.6030   48.0680 C   0  0  0  0  0  0  0  0  0  0  0  0
   59.0270   33.4570   48.3420 C   0  0  0  0  0  0  0  0  0  0  0  0
   58.4390   32.7370   47.2980 C   0  0  0  0  0  0  0  0  0  0  0  0
   58.1530   32.7130   43.5160 C   0  0  0  0  0  0  0  0  0  0  0  0
   57.5270   31.9360   42.5380 C   0  0  0  0  0  0  0  0  0  0  0  0
   57.6770   32.2130   41.3190 O   0  0  0  0  0  0  0  0  0  0  0  0
   56.7500   30.8850   42.9010 N   0  0  0  0  0  0  0  0  0  0  0  0
   57.3690   25.8890   46.0860 N   0  0  0  0  0  0  0  0  0  0  0  0
   58.7950   26.1230   46.2820 C   0  0  0  0  0  0  0  0  0  0  0  0
   59.0480   26.8170   47.6240 C   0  0  0  0  0  0  0  0  0  0  0  0
   59.7080   28.1530   47.4110 C   0  0  0  0  0  0  0  0  0  0  0  0
   60.0790   28.5640   46.1200 C   0  0  0  0  0  0  0  0  0  0  0  0
   60.7180   29.7930   45.9300 C   0  0  0  0  0  0  0  0  0  0  0  0
   61.0000   30.6140   47.0260 C   0  0  0  0  0  0  0  0  0  0  0  0
   60.6460   30.2050   48.3150 C   0  0  0  0  0  0  0  0  0  0  0  0
   60.0060   28.9770   48.5100 C   0  0  0  0  0  0  0  0  0  0  0  0
   57.1973   28.8470   46.3810 H   0  0  0  0  0  0  0  0  0  0  0  0
   57.7293   28.2054   44.7886 H   0  0  0  0  0  0  0  0  0  0  0  0
   59.4830   34.6590   44.6630 H   0  0  0  0  0  0  0  0  0  0  0  0
   60.5322   35.9320   46.5327 H   0  0  0  0  0  0  0  0  0  0  0  0
   60.2375   35.1686   48.8909 H   0  0  0  0  0  0  0  0  0  0  0  0
   58.8994   33.1201   49.3813 H   0  0  0  0  0  0  0  0  0  0  0  0
   57.8560   31.8311   47.5205 H   0  0  0  0  0  0  0  0  0  0  0  0
   58.7830   33.5694   43.2336 H   0  0  0  0  0  0  0  0  0  0  0  0
   59.3248   25.1591   46.2679 H   0  0  0  0  0  0  0  0  0  0  0  0
   59.1626   26.7711   45.4727 H   0  0  0  0  0  0  0  0  0  0  0  0
   58.0886   26.9657   48.1411 H   0  0  0  0  0  0  0  0  0  0  0  0
   59.7125   26.1850   48.2314 H   0  0  0  0  0  0  0  0  0  0  0  0
   59.8662   27.9171   45.2561 H   0  0  0  0  0  0  0  0  0  0  0  0
   60.9994   30.1146   44.9164 H   0  0  0  0  0  0  0  0  0  0  0  0
   61.5004   31.5817   46.8740 H   0  0  0  0  0  0  0  0  0  0  0  0
   60.8712   30.8500   49.1771 H   0  0  0  0  0  0  0  0  0  0  0  0
   59.7350   28.6550   49.5263 H   0  0  0  0  0  0  0  0  0  0  0  0
  1  2  2  0
  2  3  1  0
  3  4  1  0
  4  5  1  0
  5  6  2  0
  6  7  1  0
  7  8  1  0
  8  9  2  0
  9 10  1  0
 10 11  2  0
 11 12  1  0
 12 13  2  0
  7 14  2  0
 14 15  1  0
 15 16  2  0
 15 17  1  0
  2 18  1  0
 18 19  1  0
 19 20  1  0
 20 21  1  0
 21 22  2  0
 22 23  1  0
 23 24  2  0
 24 25  1  0
 25 26  2  0
 17  5  1  0
 26 21  1  0
 13  8  1  0
  3 27  1  0
  3 28  1  0
  9 29  1  0
 10 30  1  0
 11 31  1  0
 12 32  1  0
 13 33  1  0
 14 34  1  0
 19 35  1  0
 19 36  1  0
 20 37  1  0
 20 38  1  0
 22 39  1  0
 23 40  1  0
 24 41  1  0
 25 42  1  0
 26 43  1  0
M  CHG  2  17  -1  18  -1
M  END
>  <UniqueID>  (85) 
74

>  <SMILES>  (85) 
O=C(CSc1nc(-c2ccccc2)cc(=O)[n-]1)[N-]CCc1ccccc1

>  <Energy>  (85) 
40.91911055861555

>  <Genealogy>  (85) 
O=C(CSc1nc(-c2ccccc2)cc(=O)[n-]1)[N-]CCc1ccccc1 (protonated)
O=C(CSc1nc(-c2ccccc2)cc(=O)[n-]1)[N-]CCc1ccccc1 (3D coordinates assigned)
O=C(CSc1nc(-c2ccccc2)cc(=O)[n-]1)[N-]CCc1ccccc1 (optimized conformer: 40.91911055861555 kcal/mol)

>  <smiles>  (85) 
O=C(CSc1nc(-c2ccccc2)cc(=O)[nH]1)NCCc1ccccc1

>  <score_type>  (85) 
oracle

>  <origin>  (85) 
adg

>  <m_score__min__energy>  (85) 
-12.220000000000001

>  <m_primary>  (85) 
energy

$$$$
85:0
     RDKit          3D

 54 56  0  0  0  0  0  0  0  0999 V2000
   54.7740   30.3770   52.0330 C   0  0  0  0  0  0  0  0  0  0  0  0
   55.8790   31.2460   51.6500 N   0  0  0  0  0  0  0  0  0  0  0  0
   57.2050   30.7340   51.4500 C   0  0  0  0  0  0  0  0  0  0  0  0
   57.4340   29.5070   51.6360 O   0  0  0  0  0  0  0  0  0  0  0  0
   58.3030   31.6300   51.0250 C   0  0  0  0  0  0  0  0  0  0  0  0
   58.3880   32.0940   49.7020 C   0  0  0  0  0  0  0  0  0  0  0  0
   59.4360   32.9540   49.3310 C   0  0  0  0  0  0  0  0  0  0  0  0
   59.5460   33.4790   48.0340 O   0  0  0  0  0  0  0  0  0  0  0  0
   58.7070   33.1610   46.9570 C   0  0  0  0  0  0  0  0  0  0  0  0
   58.0420   34.1970   46.2940 C   0  0  0  0  0  0  0  0  0  0  0  0
   57.2100   33.9180   45.2080 C   0  0  0  0  0  0  0  0  0  0  0  0
   57.0430   32.6020   44.7740 C   0  0  0  0  0  0  0  0  0  0  0  0
   57.7020   31.5500   45.4230 C   0  0  0  0  0  0  0  0  0  0  0  0
   57.5310   30.2180   44.9140 N   0  0  0  0  0  0  0  0  0  0  0  0
   56.4240   29.3390   45.1440 C   0  0  0  0  0  0  0  0  0  0  0  0
   55.2490   29.6980   44.8630 O   0  0  0  0  0  0  0  0  0  0  0  0
   56.6840   28.0100   45.6080 N   0  0  0  0  0  0  0  0  0  0  0  0
   57.8750   27.5750   46.2790 C   0  0  0  0  0  0  0  0  0  0  0  0
   58.6750   26.6020   45.6690 C   0  0  0  0  0  0  0  0  0  0  0  0
   59.8630   26.1840   46.2740 C   0  0  0  0  0  0  0  0  0  0  0  0
   60.2650   26.7390   47.4910 C   0  0  0  0  0  0  0  0  0  0  0  0
   59.4770   27.7190   48.1150 C   0  0  0  0  0  0  0  0  0  0  0  0
   59.9310   28.3300   49.3800 C   0  0  0  0  0  0  0  0  0  0  0  0
   59.4590   29.4450   49.7240 O   0  0  0  0  0  0  0  0  0  0  0  0
   60.9150   27.7100   50.2190 N   0  0  0  0  0  0  0  0  0  0  0  0
   61.8170   28.4260   51.1150 C   0  0  0  0  0  0  0  0  0  0  0  0
   61.1400   28.6490   52.4650 C   0  0  0  0  0  0  0  0  0  0  0  0
   59.7200   28.9370   52.2870 N   0  0  0  0  0  0  0  0  0  0  0  0
   58.2940   28.1510   47.4920 C   0  0  0  0  0  0  0  0  0  0  0  0
   58.5580   31.8390   46.5030 C   0  0  0  0  0  0  0  0  0  0  0  0
   60.3700   33.3440   50.2940 C   0  0  0  0  0  0  0  0  0  0  0  0
   60.2570   32.8630   51.5990 C   0  0  0  0  0  0  0  0  0  0  0  0
   59.2380   32.0290   51.9310 N   0  0  0  0  0  0  0  0  0  0  0  0
   54.7102   30.3268   53.1300 H   0  0  0  0  0  0  0  0  0  0  0  0
   53.8336   30.7800   51.6291 H   0  0  0  0  0  0  0  0  0  0  0  0
   54.9440   29.3681   51.6291 H   0  0  0  0  0  0  0  0  0  0  0  0
   55.6870   32.2650   51.5230 H   0  0  0  0  0  0  0  0  0  0  0  0
   57.6375   31.7856   48.9593 H   0  0  0  0  0  0  0  0  0  0  0  0
   58.1749   35.2362   46.6294 H   0  0  0  0  0  0  0  0  0  0  0  0
   56.6853   34.7366   44.6936 H   0  0  0  0  0  0  0  0  0  0  0  0
   56.3888   32.3893   43.9156 H   0  0  0  0  0  0  0  0  0  0  0  0
   58.3668   26.1640   44.7082 H   0  0  0  0  0  0  0  0  0  0  0  0
   60.4837   25.4154   45.7903 H   0  0  0  0  0  0  0  0  0  0  0  0
   61.2020   26.4072   47.9620 H   0  0  0  0  0  0  0  0  0  0  0  0
   62.7329   27.8343   51.2597 H   0  0  0  0  0  0  0  0  0  0  0  0
   62.0698   29.4003   50.6714 H   0  0  0  0  0  0  0  0  0  0  0  0
   61.2508   27.7430   53.0789 H   0  0  0  0  0  0  0  0  0  0  0  0
   61.6159   29.5068   52.9627 H   0  0  0  0  0  0  0  0  0  0  0  0
   59.3430   28.2580   51.5860 H   0  0  0  0  0  0  0  0  0  0  0  0
   59.6280   29.8870   51.8580 H   0  0  0  0  0  0  0  0  0  0  0  0
   57.6911   28.9454   47.9562 H   0  0  0  0  0  0  0  0  0  0  0  0
   59.1130   31.0260   46.9940 H   0  0  0  0  0  0  0  0  0  0  0  0
   61.1898   34.0264   50.0250 H   0  0  0  0  0  0  0  0  0  0  0  0
   60.9941   33.1597   52.3596 H   0  0  0  0  0  0  0  0  0  0  0  0
  1  2  1  0
  2  3  1  0
  3  4  2  0
  3  5  1  0
  5  6  2  0
  6  7  1  0
  7  8  1  0
  8  9  1  0
  9 10  2  0
 10 11  1  0
 11 12  2  0
 12 13  1  0
 13 14  1  0
 14 15  1  0
 15 16  2  0
 15 17  1  0
 17 18  1  0
 18 19  2  0
 19 20  1  0
 20 21  2  0
 21 22  1  0
 22 23  1  0
 23 24  2  0
 23 25  1  0
 25 26  1  0
 26 27  1  0
 27 28  1  0
 22 29  2  0
 13 30  2  0
  7 31  2  0
 31 32  1  0
 32 33  2  0
 33  5  1  0
 30  9  1  0
 29 18  1  0
  1 34  1  0
  1 35  1  0
  1 36  1  0
  2 37  1  0
  6 38  1  0
 10 39  1  0
 11 40  1  0
 12 41  1  0
 19 42  1  0
 20 43  1  0
 21 44  1  0
 26 45  1  0
 26 46  1  0
 27 47  1  0
 27 48  1  0
 28 49  1  0
 28 50  1  0
 29 51  1  0
 30 52  1  0
 31 53  1  0
 32 54  1  0
M  CHG  3  14  -1  17  -1  25  -1
M  END
>  <UniqueID>  (86) 
75

>  <SMILES>  (86) 
CNC(=O)c1cc(Oc2cccc([N-]C(=O)[N-]c3cccc(C(=O)[N-]CCN)c3)c2)ccn1

>  <Energy>  (86) 
63.58642988754782

>  <Genealogy>  (86) 
CNC(=O)c1cc(Oc2cccc([N-]C(=O)[N-]c3cccc(C(=O)[N-]CCN)c3)c2)ccn1 (protonated)
CNC(=O)c1cc(Oc2cccc([N-]C(=O)[N-]c3cccc(C(=O)[N-]CCN)c3)c2)ccn1 (3D coordinates assigned)
CNC(=O)c1cc(Oc2cccc([N-]C(=O)[N-]c3cccc(C(=O)[N-]CCN)c3)c2)ccn1 (optimized conformer: 63.58642988754782 kcal/mol)

>  <smiles>  (86) 
CNC(=O)c1cc(Oc2cccc(NC(=O)Nc3cccc(C(=O)NCCN)c3)c2)ccn1

>  <score_type>  (86) 
oracle

>  <origin>  (86) 
adg

>  <m_score__min__energy>  (86) 
-13.630000000000001

>  <m_primary>  (86) 
energy

$$$$
86:0
     RDKit          3D

 51 55  0  0  0  0  0  0  0  0999 V2000
   57.3880   26.5740   46.6180 O   0  0  0  0  0  0  0  0  0  0  0  0
   56.4970   27.2110   45.9950 C   0  0  0  0  0  0  0  0  0  0  0  0
   55.1950   26.7240   45.9970 O   0  0  0  0  0  0  0  0  0  0  0  0
   56.8290   28.4600   45.2730 C   0  0  0  0  0  0  0  0  0  0  0  0
   58.1680   28.8380   45.0720 C   0  0  0  0  0  0  0  0  0  0  0  0
   58.4770   30.0170   44.3880 C   0  0  0  0  0  0  0  0  0  0  0  0
   57.4550   30.8370   43.8840 C   0  0  0  0  0  0  0  0  0  0  0  0
   57.7920   32.0860   43.1610 C   0  0  0  0  0  0  0  0  0  0  0  0
   58.2190   32.0180   41.9770 O   0  0  0  0  0  0  0  0  0  0  0  0
   57.7000   33.3750   43.7840 N   0  0  0  0  0  0  0  0  0  0  0  0
   58.2830   33.7520   45.0390 C   0  0  0  0  0  0  0  0  0  0  0  0
   59.0790   34.9030   45.1670 C   0  0  0  0  0  0  0  0  0  0  0  0
   59.6530   35.2290   46.3980 C   0  0  0  0  0  0  0  0  0  0  0  0
   59.4470   34.4060   47.5080 C   0  0  0  0  0  0  0  0  0  0  0  0
   58.6600   33.2480   47.3920 C   0  0  0  0  0  0  0  0  0  0  0  0
   58.4830   32.3320   48.5710 C   0  0  0  0  0  0  0  0  0  0  0  0
   59.7490   31.6780   48.8830 N   0  0  0  0  0  0  0  0  0  0  0  0
   60.8560   32.2860   49.3520 C   0  0  0  0  0  0  0  0  0  0  0  0
   61.8490   31.3320   49.4400 C   0  0  0  0  0  0  0  0  0  0  0  0
   63.2050   31.5280   49.8830 N   0  0  0  0  0  0  0  0  0  0  0  0
   64.1420   32.5170   49.4350 C   0  0  0  0  0  0  0  0  0  0  0  0
   63.9000   33.3910   48.5620 O   0  0  0  0  0  0  0  0  0  0  0  0
   65.4070   32.3670   50.1460 C   0  0  0  0  0  0  0  0  0  0  0  0
   66.5950   33.0880   50.0500 C   0  0  0  0  0  0  0  0  0  0  0  0
   67.6670   32.7080   50.8770 C   0  0  0  0  0  0  0  0  0  0  0  0
   67.5310   31.6260   51.7720 C   0  0  0  0  0  0  0  0  0  0  0  0
   66.3210   30.9120   51.8500 C   0  0  0  0  0  0  0  0  0  0  0  0
   65.2740   31.3100   51.0200 C   0  0  0  0  0  0  0  0  0  0  0  0
   63.9230   30.7790   50.8720 C   0  0  0  0  0  0  0  0  0  0  0  0
   63.4540   29.8020   51.5110 O   0  0  0  0  0  0  0  0  0  0  0  0
   61.2750   30.1540   48.9950 C   0  0  0  0  0  0  0  0  0  0  0  0
   59.9940   30.3960   48.6540 N   0  0  0  0  0  0  0  0  0  0  0  0
   58.0990   32.9170   46.1490 C   0  0  0  0  0  0  0  0  0  0  0  0
   56.1170   30.4680   44.1000 C   0  0  0  0  0  0  0  0  0  0  0  0
   55.8070   29.2890   44.7830 C   0  0  0  0  0  0  0  0  0  0  0  0
   58.9786   28.2011   45.4559 H   0  0  0  0  0  0  0  0  0  0  0  0
   59.5289   30.3046   44.2435 H   0  0  0  0  0  0  0  0  0  0  0  0
   59.2508   35.5500   44.2941 H   0  0  0  0  0  0  0  0  0  0  0  0
   60.2685   36.1356   46.4937 H   0  0  0  0  0  0  0  0  0  0  0  0
   59.9022   34.6653   48.4752 H   0  0  0  0  0  0  0  0  0  0  0  0
   58.1499   32.9168   49.4411 H   0  0  0  0  0  0  0  0  0  0  0  0
   57.7299   31.5681   48.3276 H   0  0  0  0  0  0  0  0  0  0  0  0
   60.9509   33.3495   49.6166 H   0  0  0  0  0  0  0  0  0  0  0  0
   66.6917   33.9295   49.3482 H   0  0  0  0  0  0  0  0  0  0  0  0
   68.6181   33.2582   50.8257 H   0  0  0  0  0  0  0  0  0  0  0  0
   68.3770   31.3384   52.4135 H   0  0  0  0  0  0  0  0  0  0  0  0
   66.2049   30.0665   52.5440 H   0  0  0  0  0  0  0  0  0  0  0  0
   61.7815   29.1797   48.9303 H   0  0  0  0  0  0  0  0  0  0  0  0
   57.5097   31.9940   46.0452 H   0  0  0  0  0  0  0  0  0  0  0  0
   55.3066   31.1124   43.7285 H   0  0  0  0  0  0  0  0  0  0  0  0
   54.7548   29.0083   44.9379 H   0  0  0  0  0  0  0  0  0  0  0  0
  1  2  2  0
  2  3  1  0
  2  4  1  0
  4  5  2  0
  5  6  1  0
  6  7  2  0
  7  8  1  0
  8  9  2  0
  8 10  1  0
 10 11  1  0
 11 12  2  0
 12 13  1  0
 13 14  2  0
 14 15  1  0
 15 16  1  0
 16 17  1  0
 17 18  1  0
 18 19  2  0
 19 20  1  0
 20 21  1  0
 21 22  2  0
 21 23  1  0
 23 24  2  0
 24 25  1  0
 25 26  2  0
 26 27  1  0
 27 28  2  0
 28 29  1  0
 29 30  2  0
 19 31  1  0
 31 32  2  0
 15 33  2  0
  7 34  1  0
 34 35  2  0
 35  4  1  0
 33 11  1  0
 32 17  1  0
 29 20  1  0
 28 23  1  0
  5 36  1  0
  6 37  1  0
 12 38  1  0
 13 39  1  0
 14 40  1  0
 16 41  1  0
 16 42  1  0
 18 43  1  0
 24 44  1  0
 25 45  1  0
 26 46  1  0
 27 47  1  0
 31 48  1  0
 33 49  1  0
 34 50  1  0
 35 51  1  0
M  CHG  2   3  -1  10  -1
M  END
>  <UniqueID>  (87) 
76

>  <SMILES>  (87) 
O=C([O-])c1ccc(C(=O)[N-]c2cccc(Cn3cc(N4C(=O)c5ccccc5C4=O)cn3)c2)cc1

>  <Energy>  (87) 
129.0655017337589

>  <Genealogy>  (87) 
O=C([O-])c1ccc(C(=O)[N-]c2cccc(Cn3cc(N4C(=O)c5ccccc5C4=O)cn3)c2)cc1 (protonated)
O=C([O-])c1ccc(C(=O)[N-]c2cccc(Cn3cc(N4C(=O)c5ccccc5C4=O)cn3)c2)cc1 (3D coordinates assigned)
O=C([O-])c1ccc(C(=O)[N-]c2cccc(Cn3cc(N4C(=O)c5ccccc5C4=O)cn3)c2)cc1 (nonaromatic ring conformer: 129.0655017337589 kcal/mol)

>  <smiles>  (87) 
O=C(O)c1ccc(C(=O)Nc2cccc(Cn3cc(N4C(=O)c5ccccc5C4=O)cn3)c2)cc1

>  <score_type>  (87) 
oracle

>  <origin>  (87) 
adg

>  <m_score__min__energy>  (87) 
-14.220000000000001

>  <m_primary>  (87) 
energy

$$$$
87:0
     RDKit          3D

 55 58  0  0  0  0  0  0  0  0999 V2000
   60.3660   34.1210   45.8430 C   0  0  0  0  0  0  0  0  0  0  0  0
   60.7060   34.5340   47.2010 N   0  0  0  0  0  0  0  0  0  0  0  0
   61.6720   34.0200   47.9040 C   0  0  0  0  0  0  0  0  0  0  0  0
   62.9290   33.9470   47.3810 N   0  0  0  0  0  0  0  0  0  0  0  0
   63.9800   33.4390   48.0730 C   0  0  0  0  0  0  0  0  0  0  0  0
   63.8070   32.9710   49.3810 C   0  0  0  0  0  0  0  0  0  0  0  0
   64.9500   32.3980   50.1420 C   0  0  0  0  0  0  0  0  0  0  0  0
   66.2130   33.0170   50.1140 C   0  0  0  0  0  0  0  0  0  0  0  0
   67.2870   32.4740   50.8250 C   0  0  0  0  0  0  0  0  0  0  0  0
   67.1220   31.2960   51.5660 C   0  0  0  0  0  0  0  0  0  0  0  0
   68.2660   30.7370   52.3610 C   0  0  0  0  0  0  0  0  0  0  0  0
   65.8640   30.6830   51.6120 C   0  0  0  0  0  0  0  0  0  0  0  0
   64.7890   31.2240   50.9010 C   0  0  0  0  0  0  0  0  0  0  0  0
   62.5250   33.0410   49.9490 C   0  0  0  0  0  0  0  0  0  0  0  0
   61.4360   33.5520   49.2190 C   0  0  0  0  0  0  0  0  0  0  0  0
   60.0870   33.5800   49.8490 C   0  0  0  0  0  0  0  0  0  0  0  0
   59.7310   34.5900   50.5150 O   0  0  0  0  0  0  0  0  0  0  0  0
   59.2270   32.4340   49.7750 N   0  0  0  0  0  0  0  0  0  0  0  0
   58.9010   31.6800   48.5990 C   0  0  0  0  0  0  0  0  0  0  0  0
   59.0800   30.2870   48.5320 C   0  0  0  0  0  0  0  0  0  0  0  0
   58.7190   29.5840   47.3780 C   0  0  0  0  0  0  0  0  0  0  0  0
   58.1660   30.2630   46.2830 C   0  0  0  0  0  0  0  0  0  0  0  0
   57.7050   29.3960   44.8220 S   0  0  0  0  0  0  0  0  0  0  0  0
   58.9060   28.7230   44.2170 O   0  0  0  0  0  0  0  0  0  0  0  0
   57.1290   30.3830   43.8440 O   0  0  0  0  0  0  0  0  0  0  0  0
   56.5180   28.2020   45.2370 N   0  0  0  0  0  0  0  0  0  0  0  0
   56.7610   26.9020   45.7950 C   0  0  0  0  0  0  0  0  0  0  0  0
   58.0960   26.4990   45.9480 C   0  0  0  0  0  0  0  0  0  0  0  0
   58.4080   25.2520   46.4990 C   0  0  0  0  0  0  0  0  0  0  0  0
   57.3850   24.3850   46.8890 C   0  0  0  0  0  0  0  0  0  0  0  0
   57.6950   23.1460   47.4380 O   0  0  0  0  0  0  0  0  0  0  0  0
   56.0500   24.7630   46.7230 C   0  0  0  0  0  0  0  0  0  0  0  0
   55.7290   26.0090   46.1690 C   0  0  0  0  0  0  0  0  0  0  0  0
   54.3890   26.3220   45.9780 O   0  0  0  0  0  0  0  0  0  0  0  0
   57.9670   31.6470   46.3580 C   0  0  0  0  0  0  0  0  0  0  0  0
   58.3250   32.3490   47.5120 C   0  0  0  0  0  0  0  0  0  0  0  0
   59.6673   33.2723   45.8820 H   0  0  0  0  0  0  0  0  0  0  0  0
   59.8938   34.9606   45.3118 H   0  0  0  0  0  0  0  0  0  0  0  0
   61.2806   33.8189   45.3118 H   0  0  0  0  0  0  0  0  0  0  0  0
   64.9737   33.3947   47.6034 H   0  0  0  0  0  0  0  0  0  0  0  0
   66.3566   33.9364   49.5274 H   0  0  0  0  0  0  0  0  0  0  0  0
   68.2666   32.9738   50.8028 H   0  0  0  0  0  0  0  0  0  0  0  0
   68.0519   30.8416   53.4349 H   0  0  0  0  0  0  0  0  0  0  0  0
   68.3979   29.6729   52.1153 H   0  0  0  0  0  0  0  0  0  0  0  0
   69.1865   31.2868   52.1153 H   0  0  0  0  0  0  0  0  0  0  0  0
   65.7210   29.7713   52.2106 H   0  0  0  0  0  0  0  0  0  0  0  0
   63.8081   30.7274   50.9351 H   0  0  0  0  0  0  0  0  0  0  0  0
   62.3695   32.6911   50.9802 H   0  0  0  0  0  0  0  0  0  0  0  0
   59.5058   29.7477   49.3910 H   0  0  0  0  0  0  0  0  0  0  0  0
   58.8694   28.4954   47.3293 H   0  0  0  0  0  0  0  0  0  0  0  0
   58.9067   27.1715   45.6310 H   0  0  0  0  0  0  0  0  0  0  0  0
   59.4593   24.9541   46.6252 H   0  0  0  0  0  0  0  0  0  0  0  0
   55.2459   24.0777   47.0293 H   0  0  0  0  0  0  0  0  0  0  0  0
   57.5269   32.1840   45.5048 H   0  0  0  0  0  0  0  0  0  0  0  0
   58.1532   33.4341   47.5669 H   0  0  0  0  0  0  0  0  0  0  0  0
  1  2  1  0
  2  3  2  3
  3  4  1  0
  4  5  1  0
  5  6  2  0
  6  7  1  0
  7  8  2  0
  8  9  1  0
  9 10  2  0
 10 11  1  0
 10 12  1  0
 12 13  2  0
  6 14  1  0
 14 15  2  0
 15 16  1  0
 16 17  2  0
 16 18  1  0
 18 19  1  0
 19 20  2  0
 20 21  1  0
 21 22  2  0
 22 23  1  0
 23 24  2  0
 23 25  2  0
 23 26  1  0
 26 27  1  0
 27 28  2  0
 28 29  1  0
 29 30  2  0
 30 31  1  0
 30 32  1  0
 32 33  2  0
 33 34  1  0
 22 35  1  0
 35 36  2  0
 15  3  1  0
 36 19  1  0
 13  7  1  0
 33 27  1  0
  1 37  1  0
  1 38  1  0
  1 39  1  0
  5 40  1  0
  8 41  1  0
  9 42  1  0
 11 43  1  0
 11 44  1  0
 11 45  1  0
 12 46  1  0
 13 47  1  0
 14 48  1  0
 20 49  1  0
 21 50  1  0
 28 51  1  0
 29 52  1  0
 32 53  1  0
 35 54  1  0
 36 55  1  0
M  CHG  5   4  -1  18  -1  26  -1  31  -1  34  -1
M  END
>  <UniqueID>  (88) 
77

>  <SMILES>  (88) 
CN=c1[n-]cc(-c2ccc(C)cc2)cc1C(=O)[N-]c1ccc(S(=O)(=O)[N-]c2ccc([O-])cc2[O-])cc1

>  <Energy>  (88) 
79.16418233311242

>  <Genealogy>  (88) 
CN=c1[n-]cc(-c2ccc(C)cc2)cc1C(=O)[N-]c1ccc(S(=O)(=O)[N-]c2ccc([O-])cc2[O-])cc1 (protonated)
CN=c1[n-]cc(-c2ccc(C)cc2)cc1C(=O)[N-]c1ccc(S(=O)(=O)[N-]c2ccc([O-])cc2[O-])cc1 (3D coordinates assigned)
CN=c1[n-]cc(-c2ccc(C)cc2)cc1C(=O)[N-]c1ccc(S(=O)(=O)[N-]c2ccc([O-])cc2[O-])cc1 (optimized conformer: 79.16418233311242 kcal/mol)

>  <smiles>  (88) 
CN=c1[nH]cc(-c2ccc(C)cc2)cc1C(=O)Nc1ccc(S(=O)(=O)Nc2ccc(O)cc2O)cc1

>  <score_type>  (88) 
oracle

>  <origin>  (88) 
adg

>  <m_score__min__energy>  (88) 
-18.920000000000002

>  <m_primary>  (88) 
energy

$$$$
88:0
     RDKit          3D

 52 53  0  0  0  0  0  0  0  0999 V2000
   62.4308   33.2975   45.9082 H   0  0  0  0  0  0  0  0  0  0  0  0
   62.2320   33.3920   46.9860 C   0  0  0  0  0  0  0  0  0  0  0  0
   63.2650   33.1730   47.9000 C   0  0  0  0  0  0  0  0  0  0  0  0
   64.2684   32.9146   47.5307 H   0  0  0  0  0  0  0  0  0  0  0  0
   63.0420   33.2780   49.2930 C   0  0  0  0  0  0  0  0  0  0  0  0
   64.1520   33.0450   50.3380 C   0  0  0  0  0  0  0  0  0  0  0  0
   65.5730   33.0530   49.7250 C   0  0  0  0  0  0  0  0  0  0  0  0
   66.3204   33.0572   50.5320 H   0  0  0  0  0  0  0  0  0  0  0  0
   65.7093   32.1556   49.1036 H   0  0  0  0  0  0  0  0  0  0  0  0
   65.6992   33.9519   49.1036 H   0  0  0  0  0  0  0  0  0  0  0  0
   64.0960   34.1600   51.4040 C   0  0  0  0  0  0  0  0  0  0  0  0
   64.1186   33.7096   52.4073 H   0  0  0  0  0  0  0  0  0  0  0  0
   64.9618   34.8276   51.2822 H   0  0  0  0  0  0  0  0  0  0  0  0
   63.1677   34.7375   51.2822 H   0  0  0  0  0  0  0  0  0  0  0  0
   63.9400   31.6750   51.0170 C   0  0  0  0  0  0  0  0  0  0  0  0
   63.9594   31.8004   52.1097 H   0  0  0  0  0  0  0  0  0  0  0  0
   62.9672   31.2615   50.7126 H   0  0  0  0  0  0  0  0  0  0  0  0
   64.7423   30.9868   50.7126 H   0  0  0  0  0  0  0  0  0  0  0  0
   61.7360   33.6030   49.7220 C   0  0  0  0  0  0  0  0  0  0  0  0
   61.5269   33.6844   50.7989 H   0  0  0  0  0  0  0  0  0  0  0  0
   60.7050   33.8230   48.8060 C   0  0  0  0  0  0  0  0  0  0  0  0
   59.6967   34.0706   49.1693 H   0  0  0  0  0  0  0  0  0  0  0  0
   60.9440   33.7310   47.4260 C   0  0  0  0  0  0  0  0  0  0  0  0
   59.8570   33.9510   46.4430 C   0  0  0  0  0  0  0  0  0  0  0  0
   59.8260   35.0340   45.7960 O   0  0  0  0  0  0  0  0  0  0  0  0
   58.8500   32.9490   46.2150 N   0  0  0  0  0  0  0  0  0  0  0  0
   58.8240   32.1060   46.8300 H   0  0  0  0  0  0  0  0  0  0  0  0
   57.8980   33.0090   45.1410 C   0  0  0  0  0  0  0  0  0  0  0  0
   57.0390   34.3790   44.8800 S   0  0  0  0  0  0  0  0  0  0  0  0
   57.4680   31.8100   44.4810 N   0  0  0  0  0  0  0  0  0  0  0  0
   57.4650   30.6200   45.0040 C   0  0  0  0  0  0  0  0  0  0  0  0
   58.3780   30.1770   45.8960 N   0  0  0  0  0  0  0  0  0  0  0  0
   58.1510   28.8850   46.2580 C   0  0  0  0  0  0  0  0  0  0  0  0
   59.0410   28.2020   47.2480 C   0  0  0  0  0  0  0  0  0  0  0  0
   58.7147   28.4524   48.2682 H   0  0  0  0  0  0  0  0  0  0  0  0
   58.9845   27.1132   47.1018 H   0  0  0  0  0  0  0  0  0  0  0  0
   60.0781   28.5383   47.1018 H   0  0  0  0  0  0  0  0  0  0  0  0
   57.0410   28.2870   45.6360 C   0  0  0  0  0  0  0  0  0  0  0  0
   56.5330   26.9090   45.8260 C   0  0  0  0  0  0  0  0  0  0  0  0
   55.3030   26.7130   46.0200 O   0  0  0  0  0  0  0  0  0  0  0  0
   57.4320   25.7890   45.7890 N   0  0  0  0  0  0  0  0  0  0  0  0
   58.4630   25.9510   45.7470 H   0  0  0  0  0  0  0  0  0  0  0  0
   56.9660   24.4060   45.8740 C   0  0  0  0  0  0  0  0  0  0  0  0
   57.7652   23.7355   45.5251 H   0  0  0  0  0  0  0  0  0  0  0  0
   56.7079   24.1881   46.9209 H   0  0  0  0  0  0  0  0  0  0  0  0
   55.7200   24.1900   45.0110 C   0  0  0  0  0  0  0  0  0  0  0  0
   55.7419   24.8905   44.1631 H   0  0  0  0  0  0  0  0  0  0  0  0
   55.7166   23.1517   44.6477 H   0  0  0  0  0  0  0  0  0  0  0  0
   54.5070   24.4190   45.7910 N   0  0  0  0  0  0  0  0  0  0  0  0
   53.9470   25.1640   45.3160 H   0  0  0  0  0  0  0  0  0  0  0  0
   54.7930   24.8110   46.7160 H   0  0  0  0  0  0  0  0  0  0  0  0
   56.3480   29.4350   44.6110 S   0  0  0  0  0  0  0  0  0  0  0  0
  1  2  1  0
  2  3  2  0
  3  4  1  0
  3  5  1  0
  5  6  1  0
  6  7  1  0
  7  8  1  0
  7  9  1  0
  7 10  1  0
  6 11  1  0
 11 12  1  0
 11 13  1  0
 11 14  1  0
  6 15  1  0
 15 16  1  0
 15 17  1  0
 15 18  1  0
  5 19  2  0
 19 20  1  0
 19 21  1  0
 21 22  1  0
 21 23  2  0
 23 24  1  0
 24 25  2  0
 24 26  1  0
 26 27  1  0
 26 28  1  0
 28 29  2  0
 28 30  1  0
 30 31  2  0
 31 32  1  0
 32 33  1  0
 33 34  1  0
 34 35  1  0
 34 36  1  0
 34 37  1  0
 33 38  2  0
 38 39  1  0
 39 40  2  0
 39 41  1  0
 41 42  1  0
 41 43  1  0
 43 44  1  0
 43 45  1  0
 43 46  1  0
 46 47  1  0
 46 48  1  0
 46 49  1  0
 49 50  1  0
 49 51  1  0
 38 52  1  0
 23  2  1  0
 52 31  1  0
M  CHG  1  32  -1
M  END
>  <UniqueID>  (89) 
78

>  <SMILES>  (89) 
Cc1[n-]/c(=N\C(=S)NC(=O)c2ccc(C(C)(C)C)cc2)sc1C(=O)NCCN

>  <Energy>  (89) 
84.81649356965342

>  <Genealogy>  (89) 
Cc1[n-]c(=NC(=S)NC(=O)c2ccc(C(C)(C)C)cc2)sc1C(=O)NCCN (protonated)
Cc1[n-]/c(=N\C(=S)NC(=O)c2ccc(C(C)(C)C)cc2)sc1C(=O)NCCN (cis-trans isomerization)
Cc1[n-]/c(=N\C(=S)NC(=O)c2ccc(C(C)(C)C)cc2)sc1C(=O)NCCN (3D coordinates assigned)
Cc1[n-]/c(=N\C(=S)NC(=O)c2ccc(C(C)(C)C)cc2)sc1C(=O)NCCN (optimized conformer: 84.81649356965342 kcal/mol)

>  <smiles>  (89) 
Cc1[nH]c(=NC(=S)NC(=O)c2ccc(C(C)(C)C)cc2)sc1C(=O)NCCN

>  <score_type>  (89) 
oracle

>  <origin>  (89) 
adg

>  <m_score__min__energy>  (89) 
-10.41

>  <m_primary>  (89) 
energy

$$$$
89:0
     RDKit          3D

 45 47  0  0  0  0  0  0  0  0999 V2000
   56.5015   32.6564   43.8830 H   0  0  0  0  0  0  0  0  0  0  0  0
   57.0120   31.8570   44.4400 C   0  0  0  0  0  0  0  0  0  0  0  0
   56.4430   30.6270   44.5340 N   0  0  0  0  0  0  0  0  0  0  0  0
   57.0380   29.6040   45.2050 C   0  0  0  0  0  0  0  0  0  0  0  0
   56.3630   28.3410   45.2870 N   0  0  0  0  0  0  0  0  0  0  0  0
   55.6610   28.1150   44.5450 H   0  0  0  0  0  0  0  0  0  0  0  0
   56.6830   27.3070   46.2290 C   0  0  0  0  0  0  0  0  0  0  0  0
   57.7160   27.3930   46.9460 O   0  0  0  0  0  0  0  0  0  0  0  0
   55.8070   26.1790   46.3490 N   0  0  0  0  0  0  0  0  0  0  0  0
   55.7840   25.0190   45.5030 C   0  0  0  0  0  0  0  0  0  0  0  0
   54.7260   24.0930   45.5330 C   0  0  0  0  0  0  0  0  0  0  0  0
   53.8736   24.2571   46.2086 H   0  0  0  0  0  0  0  0  0  0  0  0
   54.7530   22.9650   44.7080 C   0  0  0  0  0  0  0  0  0  0  0  0
   53.9151   22.2525   44.7277 H   0  0  0  0  0  0  0  0  0  0  0  0
   55.8470   22.7360   43.8520 C   0  0  0  0  0  0  0  0  0  0  0  0
   55.9200   21.6200   43.0040 O   0  0  0  0  0  0  0  0  0  0  0  0
   57.0220   20.7200   42.9550 C   0  0  0  0  0  0  0  0  0  0  0  0
   57.3335   20.4656   43.9789 H   0  0  0  0  0  0  0  0  0  0  0  0
   56.7239   19.8039   42.4241 H   0  0  0  0  0  0  0  0  0  0  0  0
   57.8601   21.1951   42.4241 H   0  0  0  0  0  0  0  0  0  0  0  0
   56.9080   23.6480   43.8440 C   0  0  0  0  0  0  0  0  0  0  0  0
   57.7704   23.4759   43.1831 H   0  0  0  0  0  0  0  0  0  0  0  0
   56.8810   24.7760   44.6690 C   0  0  0  0  0  0  0  0  0  0  0  0
   57.7281   25.4777   44.6626 H   0  0  0  0  0  0  0  0  0  0  0  0
   58.2660   29.8280   45.8520 C   0  0  0  0  0  0  0  0  0  0  0  0
   58.7383   29.0200   46.4300 H   0  0  0  0  0  0  0  0  0  0  0  0
   58.8880   31.0790   45.7610 C   0  0  0  0  0  0  0  0  0  0  0  0
   60.0290   31.2540   46.3720 N   0  0  0  0  0  0  0  0  0  0  0  0
   60.3560   30.8740   47.7180 C   0  0  0  0  0  0  0  0  0  0  0  0
   61.1470   29.9110   47.8950 O   0  0  0  0  0  0  0  0  0  0  0  0
   59.8510   31.6340   48.8890 C   0  0  0  0  0  0  0  0  0  0  0  0
   60.3980   32.8840   49.2230 C   0  0  0  0  0  0  0  0  0  0  0  0
   61.2088   33.3068   48.6116 H   0  0  0  0  0  0  0  0  0  0  0  0
   59.9190   33.5930   50.3260 C   0  0  0  0  0  0  0  0  0  0  0  0
   60.3498   34.5737   50.5761 H   0  0  0  0  0  0  0  0  0  0  0  0
   58.8950   33.0620   51.1130 C   0  0  0  0  0  0  0  0  0  0  0  0
   58.5219   33.6284   51.9790 H   0  0  0  0  0  0  0  0  0  0  0  0
   58.3380   31.8090   50.8060 C   0  0  0  0  0  0  0  0  0  0  0  0
   57.2850   31.2640   51.6210 N   0  0  0  0  0  0  0  0  0  0  0  0
   56.5760   32.0100   52.3290 O   0  0  0  0  0  0  0  0  0  0  0  0
   57.0390   29.9100   51.6340 O   0  0  0  0  0  0  0  0  0  0  0  0
   58.8270   31.1000   49.6910 C   0  0  0  0  0  0  0  0  0  0  0  0
   58.4021   30.1157   49.4447 H   0  0  0  0  0  0  0  0  0  0  0  0
   58.2420   32.1090   45.0480 C   0  0  0  0  0  0  0  0  0  0  0  0
   58.7043   33.1042   44.9715 H   0  0  0  0  0  0  0  0  0  0  0  0
  1  2  1  0
  2  3  1  0
  3  4  1  0
  4  5  1  0
  5  6  1  0
  5  7  1  0
  7  8  2  0
  7  9  1  0
  9 10  1  0
 10 11  2  0
 11 12  1  0
 11 13  1  0
 13 14  1  0
 13 15  2  0
 15 16  1  0
 16 17  1  0
 17 18  1  0
 17 19  1  0
 17 20  1  0
 15 21  1  0
 21 22  1  0
 21 23  2  0
 23 24  1  0
  4 25  2  0
 25 26  1  0
 25 27  1  0
 27 28  2  0
 28 29  1  0
 29 30  2  0
 29 31  1  0
 31 32  2  0
 32 33  1  0
 32 34  1  0
 34 35  1  0
 34 36  2  0
 36 37  1  0
 36 38  1  0
 38 39  1  0
 39 40  2  0
 39 41  1  0
 38 42  2  0
 42 43  1  0
 27 44  1  0
 44 45  1  0
 44  2  2  0
 23 10  1  0
 42 31  1  0
M  CHG  4   3  -1   9  -1  39   1  41  -1
M  END
>  <UniqueID>  (90) 
79

>  <SMILES>  (90) 
COc1ccc([N-]C(=O)Nc2c/c(=N/C(=O)c3cccc([N+](=O)[O-])c3)cc[n-]2)cc1

>  <Energy>  (90) 
66.39719460205374

>  <Genealogy>  (90) 
COc1ccc([N-]C(=O)Nc2cc(=NC(=O)c3cccc([N+](=O)[O-])c3)cc[n-]2)cc1 (protonated)
COc1ccc([N-]C(=O)Nc2c/c(=N/C(=O)c3cccc([N+](=O)[O-])c3)cc[n-]2)cc1 (cis-trans isomerization)
COc1ccc([N-]C(=O)Nc2c/c(=N/C(=O)c3cccc([N+](=O)[O-])c3)cc[n-]2)cc1 (3D coordinates assigned)
COc1ccc([N-]C(=O)Nc2c/c(=N/C(=O)c3cccc([N+](=O)[O-])c3)cc[n-]2)cc1 (optimized conformer: 66.39719460205374 kcal/mol)

>  <smiles>  (90) 
COc1ccc(NC(=O)Nc2cc(=NC(=O)c3cccc([N+](=O)[O-])c3)cc[nH]2)cc1

>  <score_type>  (90) 
oracle

>  <origin>  (90) 
adg

>  <m_score__min__energy>  (90) 
-11.41

>  <m_primary>  (90) 
energy

$$$$
90:0
     RDKit          3D

 33 34  0  0  0  0  0  0  0  0999 V2000
   55.1510   27.1020   45.1210 H   0  0  0  0  0  0  0  0  0  0  0  0
   55.1710   26.5430   46.0010 N   0  0  0  0  0  0  0  0  0  0  0  0
   56.3950   26.3080   46.6920 C   0  0  0  0  0  0  0  0  0  0  0  0
   56.5920   25.2070   47.2710 O   0  0  0  0  0  0  0  0  0  0  0  0
   57.4550   27.3240   46.6670 C   0  0  0  0  0  0  0  0  0  0  0  0
   57.3520   28.5700   45.9770 C   0  0  0  0  0  0  0  0  0  0  0  0
   56.3240   28.9490   45.2650 N   0  0  0  0  0  0  0  0  0  0  0  0
   56.2440   29.3870   43.8760 C   0  0  0  0  0  0  0  0  0  0  0  0
   56.8156   28.6928   43.2425 H   0  0  0  0  0  0  0  0  0  0  0  0
   55.1895   29.3987   43.5631 H   0  0  0  0  0  0  0  0  0  0  0  0
   56.8230   30.7950   43.7330 C   0  0  0  0  0  0  0  0  0  0  0  0
   57.8988   30.7207   43.5159 H   0  0  0  0  0  0  0  0  0  0  0  0
   56.2976   31.3072   42.9135 H   0  0  0  0  0  0  0  0  0  0  0  0
   56.6400   31.5510   44.9320 O   0  0  0  0  0  0  0  0  0  0  0  0
   57.4860   32.5650   45.4090 C   0  0  0  0  0  0  0  0  0  0  0  0
   57.7660   32.7540   46.7790 C   0  0  0  0  0  0  0  0  0  0  0  0
   57.3156   32.0855   47.5275 H   0  0  0  0  0  0  0  0  0  0  0  0
   58.6140   33.7880   47.1890 C   0  0  0  0  0  0  0  0  0  0  0  0
   58.8231   33.9345   48.2590 H   0  0  0  0  0  0  0  0  0  0  0  0
   59.1960   34.6350   46.2430 C   0  0  0  0  0  0  0  0  0  0  0  0
   59.8610   35.4487   46.5680 H   0  0  0  0  0  0  0  0  0  0  0  0
   58.9330   34.4480   44.8840 C   0  0  0  0  0  0  0  0  0  0  0  0
   59.3933   35.1130   44.1384 H   0  0  0  0  0  0  0  0  0  0  0  0
   58.0850   33.4160   44.4710 C   0  0  0  0  0  0  0  0  0  0  0  0
   57.8861   33.2708   43.3989 H   0  0  0  0  0  0  0  0  0  0  0  0
   58.4010   29.4300   46.0520 N   0  0  0  0  0  0  0  0  0  0  0  0
   59.5310   29.1470   46.7450 C   0  0  0  0  0  0  0  0  0  0  0  0
   60.6050   30.1000   46.7860 C   0  0  0  0  0  0  0  0  0  0  0  0
   61.4710   30.8680   46.8200 N   0  0  0  0  0  0  0  0  0  0  0  0
   59.6340   27.9280   47.4090 C   0  0  0  0  0  0  0  0  0  0  0  0
   60.5450   27.6793   47.9731 H   0  0  0  0  0  0  0  0  0  0  0  0
   58.6020   27.0490   47.3550 N   0  0  0  0  0  0  0  0  0  0  0  0
   58.6990   26.1400   47.8650 H   0  0  0  0  0  0  0  0  0  0  0  0
  1  2  1  0
  2  3  1  0
  3  4  2  0
  3  5  1  0
  5  6  1  0
  6  7  2  0
  7  8  1  0
  8  9  1  0
  8 10  1  0
  8 11  1  0
 11 12  1  0
 11 13  1  0
 11 14  1  0
 14 15  1  0
 15 16  2  0
 16 17  1  0
 16 18  1  0
 18 19  1  0
 18 20  2  0
 20 21  1  0
 20 22  1  0
 22 23  1  0
 22 24  2  0
 24 25  1  0
  6 26  1  0
 26 27  1  0
 27 28  1  0
 28 29  3  0
 27 30  2  0
 30 31  1  0
 30 32  1  0
 32 33  1  0
 32  5  2  0
 24 15  1  0
M  CHG  3   2  -1  26  -1  32   1
M  END
>  <UniqueID>  (91) 
80

>  <SMILES>  (91) 
N#Cc1c[nH+]c(C([NH-])=O)/c(=N\CCOc2ccccc2)[n-]1

>  <Energy>  (91) 
47.259839160335275

>  <Genealogy>  (91) 
N#Cc1c[nH+]c(C([NH-])=O)c(=NCCOc2ccccc2)[n-]1 (protonated)
N#Cc1c[nH+]c(C([NH-])=O)/c(=N\CCOc2ccccc2)[n-]1 (cis-trans isomerization)
N#Cc1c[nH+]c(C([NH-])=O)/c(=N\CCOc2ccccc2)[n-]1 (3D coordinates assigned)
N#Cc1c[nH+]c(C([NH-])=O)/c(=N\CCOc2ccccc2)[n-]1 (optimized conformer: 47.259839160335275 kcal/mol)

>  <smiles>  (91) 
N#Cc1cnc(C(N)=O)c(=NCCOc2ccccc2)[nH]1

>  <score_type>  (91) 
oracle

>  <origin>  (91) 
adg

>  <m_score__min__energy>  (91) 
-9.9499999999999993

>  <m_primary>  (91) 
energy

$$$$
