0:0
     RDKit          3D

 43 45  0  0  0  0  0  0  0  0999 V2000
   55.8780   19.4180   44.2020 C   0  0  0  0  0  0  0  0  0  0  0  0
   55.9020   20.5740   43.3710 O   0  0  0  0  0  0  0  0  0  0  0  0
   56.4690   21.8030   43.7400 C   0  0  0  0  0  0  0  0  0  0  0  0
   57.6380   21.7930   44.5080 C   0  0  0  0  0  0  0  0  0  0  0  0
   58.2440   22.9900   44.9000 C   0  0  0  0  0  0  0  0  0  0  0  0
   57.6910   24.2260   44.5200 C   0  0  0  0  0  0  0  0  0  0  0  0
   58.3120   25.5100   44.9280 C   0  0  0  0  0  0  0  0  0  0  0  0
   59.1580   25.5060   45.8640 O   0  0  0  0  0  0  0  0  0  0  0  0
   57.9720   26.7460   44.2710 N   0  0  0  0  0  0  0  0  0  0  0  0
   58.4670   28.0320   44.6820 C   0  0  0  0  0  0  0  0  0  0  0  0
   59.8050   28.2130   45.0730 C   0  0  0  0  0  0  0  0  0  0  0  0
   60.2490   29.4650   45.5050 C   0  0  0  0  0  0  0  0  0  0  0  0
   59.3660   30.5460   45.5560 C   0  0  0  0  0  0  0  0  0  0  0  0
   58.0240   30.3810   45.1690 C   0  0  0  0  0  0  0  0  0  0  0  0
   57.0740   31.4540   45.2400 N   0  0  0  0  0  0  0  0  0  0  0  0
   57.3540   32.8270   45.5440 C   0  0  0  0  0  0  0  0  0  0  0  0
   56.6520   33.7440   45.0350 O   0  0  0  0  0  0  0  0  0  0  0  0
   58.4350   33.1700   46.4990 C   0  0  0  0  0  0  0  0  0  0  0  0
   58.3550   32.7670   47.8450 C   0  0  0  0  0  0  0  0  0  0  0  0
   59.3740   33.0910   48.7450 C   0  0  0  0  0  0  0  0  0  0  0  0
   60.4840   33.8230   48.3140 C   0  0  0  0  0  0  0  0  0  0  0  0
   61.7620   34.2300   49.4450 Cl  0  0  0  0  0  0  0  0  0  0  0  0
   60.5740   34.2300   46.9800 C   0  0  0  0  0  0  0  0  0  0  0  0
   59.5570   33.9070   46.0760 C   0  0  0  0  0  0  0  0  0  0  0  0
   57.5790   29.1170   44.7620 C   0  0  0  0  0  0  0  0  0  0  0  0
   56.5090   24.2350   43.7610 C   0  0  0  0  0  0  0  0  0  0  0  0
   55.9040   23.0370   43.3690 C   0  0  0  0  0  0  0  0  0  0  0  0
   55.8844   19.7254   45.2581 H   0  0  0  0  0  0  0  0  0  0  0  0
   54.9676   18.8364   43.9949 H   0  0  0  0  0  0  0  0  0  0  0  0
   56.7635   18.7991   43.9949 H   0  0  0  0  0  0  0  0  0  0  0  0
   58.0850   20.8333   44.8065 H   0  0  0  0  0  0  0  0  0  0  0  0
   59.1593   22.9651   45.5096 H   0  0  0  0  0  0  0  0  0  0  0  0
   57.3750   26.7230   43.4160 H   0  0  0  0  0  0  0  0  0  0  0  0
   60.5052   27.3653   45.0387 H   0  0  0  0  0  0  0  0  0  0  0  0
   61.2983   29.6001   45.8062 H   0  0  0  0  0  0  0  0  0  0  0  0
   59.7211   31.5288   45.8997 H   0  0  0  0  0  0  0  0  0  0  0  0
   57.4834   32.1923   48.1915 H   0  0  0  0  0  0  0  0  0  0  0  0
   59.3023   32.7693   49.7945 H   0  0  0  0  0  0  0  0  0  0  0  0
   61.4473   34.8061   46.6401 H   0  0  0  0  0  0  0  0  0  0  0  0
   59.6345   34.2310   45.0277 H   0  0  0  0  0  0  0  0  0  0  0  0
   56.5201   28.9722   44.5016 H   0  0  0  0  0  0  0  0  0  0  0  0
   56.0548   25.1943   43.4721 H   0  0  0  0  0  0  0  0  0  0  0  0
   54.9828   23.0593   42.7683 H   0  0  0  0  0  0  0  0  0  0  0  0
  1  2  1  0
  2  3  1  0
  3  4  2  0
  4  5  1  0
  5  6  2  0
  6  7  1  0
  7  8  2  0
  7  9  1  0
  9 10  1  0
 10 11  2  0
 11 12  1  0
 12 13  2  0
 13 14  1  0
 14 15  1  0
 15 16  1  0
 16 17  2  0
 16 18  1  0
 18 19  2  0
 19 20  1  0
 20 21  2  0
 21 22  1  0
 21 23  1  0
 23 24  2  0
 14 25  2  0
  6 26  1  0
 26 27  2  0
 27  3  1  0
 25 10  1  0
 24 18  1  0
  1 28  1  0
  1 29  1  0
  1 30  1  0
  4 31  1  0
  5 32  1  0
  9 33  1  0
 11 34  1  0
 12 35  1  0
 13 36  1  0
 19 37  1  0
 20 38  1  0
 23 39  1  0
 24 40  1  0
 25 41  1  0
 26 42  1  0
 27 43  1  0
M  CHG  1  15  -1
M  END
>  <UniqueID>  (1) 
1

>  <SMILES>  (1) 
COc1ccc(C(=O)Nc2cccc([N-]C(=O)c3ccc(Cl)cc3)c2)cc1

>  <Energy>  (1) 
56.51091768216065

>  <Genealogy>  (1) 
COc1ccc(C(=O)Nc2cccc([N-]C(=O)c3ccc(Cl)cc3)c2)cc1 (protonated)
COc1ccc(C(=O)Nc2cccc([N-]C(=O)c3ccc(Cl)cc3)c2)cc1 (3D coordinates assigned)
COc1ccc(C(=O)Nc2cccc([N-]C(=O)c3ccc(Cl)cc3)c2)cc1 (optimized conformer: 56.51091768216065 kcal/mol)

>  <smiles>  (1) 
COc1ccc(C(=O)Nc2cccc(NC(=O)c3ccc(Cl)cc3)c2)cc1

>  <score_type>  (1) 
oracle

>  <origin>  (1) 
adg

>  <m_score__min__energy>  (1) 
-9.7300000000000004

>  <m_primary>  (1) 
energy

$$$$
1:0
     RDKit          3D

 55 59  0  0  0  0  0  0  0  0999 V2000
   58.1550   32.9800   44.6480 C   0  0  0  0  0  0  0  0  0  0  0  0
   57.6580   31.5750   44.8520 C   0  0  0  0  0  0  0  0  0  0  0  0
   56.5640   31.1100   44.1080 C   0  0  0  0  0  0  0  0  0  0  0  0
   56.0820   29.8130   44.2880 C   0  0  0  0  0  0  0  0  0  0  0  0
   56.6850   28.9480   45.2110 C   0  0  0  0  0  0  0  0  0  0  0  0
   56.1760   27.6090   45.3550 N   0  0  0  0  0  0  0  0  0  0  0  0
   56.9560   26.4890   45.8100 C   0  0  0  0  0  0  0  0  0  0  0  0
   57.9430   26.6890   46.5700 O   0  0  0  0  0  0  0  0  0  0  0  0
   56.5760   25.0970   45.4610 C   0  0  0  0  0  0  0  0  0  0  0  0
   57.5400   24.1600   45.0370 C   0  0  0  0  0  0  0  0  0  0  0  0
   57.1620   22.8650   44.6830 C   0  0  0  0  0  0  0  0  0  0  0  0
   55.8250   22.4790   44.7540 C   0  0  0  0  0  0  0  0  0  0  0  0
   54.8510   23.3840   45.2110 C   0  0  0  0  0  0  0  0  0  0  0  0
   53.4970   23.0400   45.3400 O   0  0  0  0  0  0  0  0  0  0  0  0
   52.4000   23.7940   44.8280 C   0  0  0  0  0  0  0  0  0  0  0  0
   51.2200   23.2450   45.2920 F   0  0  0  0  0  0  0  0  0  0  0  0
   52.4800   25.1050   45.2550 F   0  0  0  0  0  0  0  0  0  0  0  0
   52.3940   23.7530   43.4440 F   0  0  0  0  0  0  0  0  0  0  0  0
   55.2340   24.6860   45.5560 C   0  0  0  0  0  0  0  0  0  0  0  0
   57.8060   29.3970   45.9300 C   0  0  0  0  0  0  0  0  0  0  0  0
   58.2890   30.7050   45.7650 C   0  0  0  0  0  0  0  0  0  0  0  0
   59.4220   31.1430   46.5330 N   0  0  0  0  0  0  0  0  0  0  0  0
   60.5870   30.5140   46.3570 N   0  0  0  0  0  0  0  0  0  0  0  0
   61.7090   30.8740   47.0270 C   0  0  0  0  0  0  0  0  0  0  0  0
   61.6650   31.9370   47.9300 C   0  0  0  0  0  0  0  0  0  0  0  0
   62.8180   32.3340   48.6200 C   0  0  0  0  0  0  0  0  0  0  0  0
   62.7850   33.4100   49.5190 C   0  0  0  0  0  0  0  0  0  0  0  0
   64.0810   33.7860   50.2180 C   0  0  0  0  0  0  0  0  0  0  0  0
   64.7080   32.7320   51.1220 C   0  0  0  0  0  0  0  0  0  0  0  0
   65.3520   33.0670   49.7810 C   0  0  0  0  0  0  0  0  0  0  0  0
   61.5630   34.0860   49.7190 C   0  0  0  0  0  0  0  0  0  0  0  0
   60.4070   33.6960   49.0380 C   0  0  0  0  0  0  0  0  0  0  0  0
   59.2600   34.3850   49.2650 F   0  0  0  0  0  0  0  0  0  0  0  0
   60.4460   32.6160   48.1330 C   0  0  0  0  0  0  0  0  0  0  0  0
   59.3120   32.1890   47.4110 C   0  0  0  0  0  0  0  0  0  0  0  0
   58.2020   32.7750   47.5590 O   0  0  0  0  0  0  0  0  0  0  0  0
   58.3231   33.4551   45.6258 H   0  0  0  0  0  0  0  0  0  0  0  0
   59.0994   32.9567   44.0845 H   0  0  0  0  0  0  0  0  0  0  0  0
   57.4060   33.5557   44.0845 H   0  0  0  0  0  0  0  0  0  0  0  0
   56.0814   31.7739   43.3757 H   0  0  0  0  0  0  0  0  0  0  0  0
   55.2199   29.4660   43.6994 H   0  0  0  0  0  0  0  0  0  0  0  0
   55.1480   27.4700   45.2440 H   0  0  0  0  0  0  0  0  0  0  0  0
   58.5991   24.4526   44.9849 H   0  0  0  0  0  0  0  0  0  0  0  0
   57.9226   22.1452   44.3463 H   0  0  0  0  0  0  0  0  0  0  0  0
   55.5307   21.4632   44.4516 H   0  0  0  0  0  0  0  0  0  0  0  0
   54.4733   25.3988   45.9069 H   0  0  0  0  0  0  0  0  0  0  0  0
   58.3110   28.7155   46.6304 H   0  0  0  0  0  0  0  0  0  0  0  0
   62.6505   30.3304   46.8596 H   0  0  0  0  0  0  0  0  0  0  0  0
   63.7621   31.7943   48.4543 H   0  0  0  0  0  0  0  0  0  0  0  0
   63.7877   34.8400   50.3325 H   0  0  0  0  0  0  0  0  0  0  0  0
   65.1998   33.0330   52.0588 H   0  0  0  0  0  0  0  0  0  0  0  0
   64.3519   31.8102   51.6051 H   0  0  0  0  0  0  0  0  0  0  0  0
   66.3082   33.6098   49.7503 H   0  0  0  0  0  0  0  0  0  0  0  0
   65.6528   32.4873   48.8959 H   0  0  0  0  0  0  0  0  0  0  0  0
   61.5197   34.9319   50.4208 H   0  0  0  0  0  0  0  0  0  0  0  0
  1  2  1  0
  2  3  2  0
  3  4  1  0
  4  5  2  0
  5  6  1  0
  6  7  1  0
  7  8  2  0
  7  9  1  0
  9 10  2  0
 10 11  1  0
 11 12  2  0
 12 13  1  0
 13 14  1  0
 14 15  1  0
 15 16  1  0
 15 17  1  0
 15 18  1  0
 13 19  2  0
  5 20  1  0
 20 21  2  0
 21 22  1  0
 22 23  1  0
 23 24  2  0
 24 25  1  0
 25 26  2  0
 26 27  1  0
 27 28  1  0
 28 29  1  0
 29 30  1  0
 27 31  2  0
 31 32  1  0
 32 33  1  0
 32 34  2  0
 34 35  1  0
 35 36  2  0
 21  2  1  0
 35 22  1  0
 19  9  1  0
 34 25  1  0
 30 28  1  0
  1 37  1  0
  1 38  1  0
  1 39  1  0
  3 40  1  0
  4 41  1  0
  6 42  1  0
 10 43  1  0
 11 44  1  0
 12 45  1  0
 19 46  1  0
 20 47  1  0
 24 48  1  0
 26 49  1  0
 28 50  1  0
 29 51  1  0
 29 52  1  0
 30 53  1  0
 30 54  1  0
 31 55  1  0
M  END
>  <UniqueID>  (2) 
2

>  <SMILES>  (2) 
Cc1ccc(NC(=O)c2cccc(OC(F)(F)F)c2)cc1-n1ncc2cc(C3CC3)cc(F)c2c1=O

>  <Energy>  (2) 
348.6038495116177

>  <Genealogy>  (2) 
Cc1ccc(NC(=O)c2cccc(OC(F)(F)F)c2)cc1-n1ncc2cc(C3CC3)cc(F)c2c1=O (3D coordinates assigned)
Cc1ccc(NC(=O)c2cccc(OC(F)(F)F)c2)cc1-n1ncc2cc(C3CC3)cc(F)c2c1=O (nonaromatic ring conformer: 348.6038495116177 kcal/mol)

>  <smiles>  (2) 
Cc1ccc(NC(=O)c2cccc(OC(F)(F)F)c2)cc1-n1ncc2cc(C3CC3)cc(F)c2c1=O

>  <score_type>  (2) 
oracle

>  <origin>  (2) 
adg

>  <m_score__min__energy>  (2) 
-8.9900000000000002

>  <m_primary>  (2) 
energy

$$$$
2:0
     RDKit          3D

 34 36  0  0  0  0  0  0  0  0999 V2000
   60.9760   30.8570   48.0520 C   0  0  0  0  0  0  0  0  0  0  0  0
   60.6090   30.8930   46.6780 O   0  0  0  0  0  0  0  0  0  0  0  0
   59.5500   31.6850   46.2230 C   0  0  0  0  0  0  0  0  0  0  0  0
   59.6520   33.0900   46.3140 C   0  0  0  0  0  0  0  0  0  0  0  0
   60.8510   33.7460   46.9420 C   0  0  0  0  0  0  0  0  0  0  0  0
   58.6490   33.8970   45.7630 C   0  0  0  0  0  0  0  0  0  0  0  0
   57.5370   33.3260   45.1530 C   0  0  0  0  0  0  0  0  0  0  0  0
   57.3960   31.9390   45.0970 C   0  0  0  0  0  0  0  0  0  0  0  0
   56.3220   31.4300   44.5010 O   0  0  0  0  0  0  0  0  0  0  0  0
   56.1060   30.1260   44.4000 C   0  0  0  0  0  0  0  0  0  0  0  0
   55.0710   29.7090   43.8160 O   0  0  0  0  0  0  0  0  0  0  0  0
   57.0100   29.2180   44.9450 C   0  0  0  0  0  0  0  0  0  0  0  0
   58.1540   29.6890   45.6000 C   0  0  0  0  0  0  0  0  0  0  0  0
   59.0250   28.6880   46.2510 C   0  0  0  0  0  0  0  0  0  0  0  0
   58.8990   28.4270   47.6250 C   0  0  0  0  0  0  0  0  0  0  0  0
   59.7130   27.4680   48.2360 C   0  0  0  0  0  0  0  0  0  0  0  0
   60.6470   26.7570   47.4770 C   0  0  0  0  0  0  0  0  0  0  0  0
   60.7650   27.0000   46.1050 C   0  0  0  0  0  0  0  0  0  0  0  0
   59.9520   27.9570   45.4910 C   0  0  0  0  0  0  0  0  0  0  0  0
   58.3840   31.0920   45.6610 C   0  0  0  0  0  0  0  0  0  0  0  0
   60.0737   30.9455   48.6750 H   0  0  0  0  0  0  0  0  0  0  0  0
   61.4813   29.9050   48.2717 H   0  0  0  0  0  0  0  0  0  0  0  0
   61.6567   31.6927   48.2717 H   0  0  0  0  0  0  0  0  0  0  0  0
   60.7634   33.6981   48.0375 H   0  0  0  0  0  0  0  0  0  0  0  0
   61.7643   33.2219   46.6239 H   0  0  0  0  0  0  0  0  0  0  0  0
   60.9021   34.7978   46.6239 H   0  0  0  0  0  0  0  0  0  0  0  0
   58.7413   34.9920   45.8130 H   0  0  0  0  0  0  0  0  0  0  0  0
   56.7637   33.9721   44.7119 H   0  0  0  0  0  0  0  0  0  0  0  0
   56.8263   28.1367   44.8613 H   0  0  0  0  0  0  0  0  0  0  0  0
   58.1580   28.9784   48.2223 H   0  0  0  0  0  0  0  0  0  0  0  0
   59.6183   27.2731   49.3144 H   0  0  0  0  0  0  0  0  0  0  0  0
   61.2896   26.0058   47.9594 H   0  0  0  0  0  0  0  0  0  0  0  0
   61.4983   26.4375   45.5084 H   0  0  0  0  0  0  0  0  0  0  0  0
   60.0387   28.1379   44.4094 H   0  0  0  0  0  0  0  0  0  0  0  0
  1  2  1  0
  2  3  1  0
  3  4  2  0
  4  5  1  0
  4  6  1  0
  6  7  2  0
  7  8  1  0
  8  9  1  0
  9 10  1  0
 10 11  2  0
 10 12  1  0
 12 13  2  0
 13 14  1  0
 14 15  2  0
 15 16  1  0
 16 17  2  0
 17 18  1  0
 18 19  2  0
 13 20  1  0
 20  3  1  0
 20  8  2  0
 19 14  1  0
  1 21  1  0
  1 22  1  0
  1 23  1  0
  5 24  1  0
  5 25  1  0
  5 26  1  0
  6 27  1  0
  7 28  1  0
 12 29  1  0
 15 30  1  0
 16 31  1  0
 17 32  1  0
 18 33  1  0
 19 34  1  0
M  END
>  <UniqueID>  (3) 
3

>  <SMILES>  (3) 
COc1c(C)ccc2oc(=O)cc(-c3ccccc3)c12

>  <Energy>  (3) 
57.318374531446

>  <Genealogy>  (3) 
COc1c(C)ccc2oc(=O)cc(-c3ccccc3)c12 (3D coordinates assigned)
COc1c(C)ccc2oc(=O)cc(-c3ccccc3)c12 (optimized conformer: 57.318374531446 kcal/mol)

>  <smiles>  (3) 
COc1c(C)ccc2oc(=O)cc(-c3ccccc3)c12

>  <score_type>  (3) 
oracle

>  <origin>  (3) 
adg

>  <m_score__min__energy>  (3) 
-6.7800000000000002

>  <m_primary>  (3) 
energy

$$$$
3:0
     RDKit          3D

 42 44  0  0  0  0  0  0  0  0999 V2000
   61.3500   33.8410   50.6210 C   0  0  0  0  0  0  0  0  0  0  0  0
   61.4320   34.2200   49.1350 C   0  0  0  0  0  0  0  0  0  0  0  0
   62.8820   34.1970   48.6330 C   0  0  0  0  0  0  0  0  0  0  0  0
   60.5660   33.3420   48.3100 N   0  0  0  0  0  0  0  0  0  0  0  0
   60.2410   32.0930   48.7760 C   0  0  0  0  0  0  0  0  0  0  0  0
   59.4310   31.2330   48.0400 C   0  0  0  0  0  0  0  0  0  0  0  0
   58.9350   31.6410   46.8020 C   0  0  0  0  0  0  0  0  0  0  0  0
   58.1160   30.7890   46.0460 C   0  0  0  0  0  0  0  0  0  0  0  0
   57.6130   31.2060   44.8080 C   0  0  0  0  0  0  0  0  0  0  0  0
   56.5650   30.1370   43.8810 S   0  0  0  0  0  0  0  0  0  0  0  0
   55.1950   30.0720   44.4960 O   0  0  0  0  0  0  0  0  0  0  0  0
   56.4470   30.6720   42.4820 O   0  0  0  0  0  0  0  0  0  0  0  0
   57.2400   28.5400   43.8290 N   0  0  0  0  0  0  0  0  0  0  0  0
   58.3070   28.0890   44.6820 C   0  0  0  0  0  0  0  0  0  0  0  0
   59.6380   28.5150   44.4980 C   0  0  0  0  0  0  0  0  0  0  0  0
   60.6510   28.0490   45.3420 C   0  0  0  0  0  0  0  0  0  0  0  0
   60.3490   27.1630   46.3790 C   0  0  0  0  0  0  0  0  0  0  0  0
   59.0320   26.7430   46.5750 C   0  0  0  0  0  0  0  0  0  0  0  0
   58.0170   27.2040   45.7340 C   0  0  0  0  0  0  0  0  0  0  0  0
   57.9420   32.4750   44.3180 C   0  0  0  0  0  0  0  0  0  0  0  0
   58.7590   33.3300   45.0610 C   0  0  0  0  0  0  0  0  0  0  0  0
   59.2630   32.9230   46.3120 C   0  0  0  0  0  0  0  0  0  0  0  0
   60.0880   33.7660   47.0890 C   0  0  0  0  0  0  0  0  0  0  0  0
   60.3830   34.9140   46.6530 O   0  0  0  0  0  0  0  0  0  0  0  0
   61.5426   34.7313   51.2376 H   0  0  0  0  0  0  0  0  0  0  0  0
   60.3465   33.4500   50.8449 H   0  0  0  0  0  0  0  0  0  0  0  0
   62.1022   33.0702   50.8449 H   0  0  0  0  0  0  0  0  0  0  0  0
   61.0604   35.2503   49.0331 H   0  0  0  0  0  0  0  0  0  0  0  0
   63.5677   34.1861   49.4931 H   0  0  0  0  0  0  0  0  0  0  0  0
   63.0446   33.2962   48.0230 H   0  0  0  0  0  0  0  0  0  0  0  0
   63.0731   35.0922   48.0230 H   0  0  0  0  0  0  0  0  0  0  0  0
   60.6287   31.7645   49.7516 H   0  0  0  0  0  0  0  0  0  0  0  0
   59.1832   30.2360   48.4330 H   0  0  0  0  0  0  0  0  0  0  0  0
   57.8678   29.7878   46.4282 H   0  0  0  0  0  0  0  0  0  0  0  0
   56.8940   27.9060   43.0730 H   0  0  0  0  0  0  0  0  0  0  0  0
   59.8810   29.2172   43.6869 H   0  0  0  0  0  0  0  0  0  0  0  0
   61.6885   28.3810   45.1889 H   0  0  0  0  0  0  0  0  0  0  0  0
   61.1480   26.7967   47.0404 H   0  0  0  0  0  0  0  0  0  0  0  0
   58.7935   26.0477   47.3934 H   0  0  0  0  0  0  0  0  0  0  0  0
   56.9812   26.8713   45.8966 H   0  0  0  0  0  0  0  0  0  0  0  0
   57.5546   32.8011   43.3415 H   0  0  0  0  0  0  0  0  0  0  0  0
   59.0102   34.3260   44.6675 H   0  0  0  0  0  0  0  0  0  0  0  0
  1  2  1  0
  2  3  1  0
  2  4  1  0
  4  5  1  0
  5  6  2  0
  6  7  1  0
  7  8  2  0
  8  9  1  0
  9 10  1  0
 10 11  2  0
 10 12  2  0
 10 13  1  0
 13 14  1  0
 14 15  2  0
 15 16  1  0
 16 17  2  0
 17 18  1  0
 18 19  2  0
  9 20  2  0
 20 21  1  0
 21 22  2  0
 22 23  1  0
 23 24  2  0
 23  4  1  0
 22  7  1  0
 19 14  1  0
  1 25  1  0
  1 26  1  0
  1 27  1  0
  2 28  1  0
  3 29  1  0
  3 30  1  0
  3 31  1  0
  5 32  1  0
  6 33  1  0
  8 34  1  0
 13 35  1  0
 15 36  1  0
 16 37  1  0
 17 38  1  0
 18 39  1  0
 19 40  1  0
 20 41  1  0
 21 42  1  0
M  END
>  <UniqueID>  (4) 
4

>  <SMILES>  (4) 
CC(C)n1ccc2cc(S(=O)(=O)Nc3ccccc3)ccc2c1=O

>  <Energy>  (4) 
51.76683292122569

>  <Genealogy>  (4) 
CC(C)n1ccc2cc(S(=O)(=O)Nc3ccccc3)ccc2c1=O (3D coordinates assigned)
CC(C)n1ccc2cc(S(=O)(=O)Nc3ccccc3)ccc2c1=O (optimized conformer: 51.76683292122569 kcal/mol)

>  <smiles>  (4) 
CC(C)n1ccc2cc(S(=O)(=O)Nc3ccccc3)ccc2c1=O

>  <score_type>  (4) 
oracle

>  <origin>  (4) 
adg

>  <m_score__min__energy>  (4) 
-8.6899999999999995

>  <m_primary>  (4) 
energy

$$$$
4:0
     RDKit          3D

 53 56  0  0  1  0  0  0  0  0999 V2000
   58.9390   26.4020   46.8870 C   0  0  0  0  0  0  0  0  0  0  0  0
   58.9070   27.8560   46.5360 C   0  0  1  0  0  0  0  0  0  0  0  0
   57.6060   28.3900   46.2520 N   0  0  0  0  0  0  0  0  0  0  0  0
   57.4030   29.4020   45.5000 C   0  0  0  0  0  0  0  0  0  0  0  0
   57.9420   30.5840   45.8790 N   0  0  0  0  0  0  0  0  0  0  0  0
   57.7590   31.6940   45.1180 C   0  0  0  0  0  0  0  0  0  0  0  0
   58.3490   32.9070   45.5690 N   0  0  0  0  0  0  0  0  0  0  0  0
   57.9880   34.2080   45.1190 C   0  0  0  0  0  0  0  0  0  0  0  0
   56.9320   34.5660   44.5130 O   0  0  0  0  0  0  0  0  0  0  0  0
   59.0120   35.0810   45.4560 O   0  0  0  0  0  0  0  0  0  0  0  0
   60.0790   34.3580   45.9920 C   0  0  0  0  0  0  0  0  0  0  0  0
   59.4050   33.1170   46.5400 C   0  0  1  0  0  0  0  0  0  0  0  0
   58.8180   33.3650   47.9130 C   0  0  0  0  0  0  0  0  0  0  0  0
   59.6870   34.2440   48.7590 C   0  0  0  0  0  0  0  0  0  0  0  0
   58.5500   32.0870   48.6490 C   0  0  0  0  0  0  0  0  0  0  0  0
   57.0190   31.6000   43.9570 C   0  0  0  0  0  0  0  0  0  0  0  0
   56.4790   30.3640   43.5960 C   0  0  0  0  0  0  0  0  0  0  0  0
   56.6830   29.3060   44.3720 N   0  0  0  0  0  0  0  0  0  0  0  0
   59.7180   28.7190   47.4290 C   0  0  0  0  0  0  0  0  0  0  0  0
   59.7450   28.5790   48.7920 C   0  0  0  0  0  0  0  0  0  0  0  0
   60.5780   29.5310   49.2860 N   0  0  0  0  0  0  0  0  0  0  0  0
   61.0710   30.2570   48.3000 N   0  0  0  0  0  0  0  0  0  0  0  0
   61.9790   31.3560   48.3500 C   0  0  0  0  0  0  0  0  0  0  0  0
   62.3150   32.0020   49.5120 C   0  0  0  0  0  0  0  0  0  0  0  0
   63.2120   33.0700   49.4660 C   0  0  0  0  0  0  0  0  0  0  0  0
   63.7700   33.4880   48.2650 C   0  0  0  0  0  0  0  0  0  0  0  0
   63.4210   32.8220   47.0870 C   0  0  0  0  0  0  0  0  0  0  0  0
   62.5290   31.7640   47.1430 C   0  0  0  0  0  0  0  0  0  0  0  0
   60.5530   29.7720   47.1410 C   0  0  0  0  0  0  0  0  0  0  0  0
   58.9415   26.2889   47.9812 H   0  0  0  0  0  0  0  0  0  0  0  0
   58.0516   25.9043   46.4690 H   0  0  0  0  0  0  0  0  0  0  0  0
   59.8474   25.9438   46.4690 H   0  0  0  0  0  0  0  0  0  0  0  0
   59.4221   27.8831   45.5644 H   0  0  0  0  0  0  0  0  0  0  0  0
   60.5779   34.9237   46.7926 H   0  0  0  0  0  0  0  0  0  0  0  0
   60.8665   34.1361   45.2567 H   0  0  0  0  0  0  0  0  0  0  0  0
   60.0880   32.2641   46.6666 H   0  0  0  0  0  0  0  0  0  0  0  0
   57.8649   33.8839   47.7333 H   0  0  0  0  0  0  0  0  0  0  0  0
   59.4879   34.0426   49.8219 H   0  0  0  0  0  0  0  0  0  0  0  0
   60.7443   34.0360   48.5382 H   0  0  0  0  0  0  0  0  0  0  0  0
   59.4669   35.2989   48.5382 H   0  0  0  0  0  0  0  0  0  0  0  0
   58.5890   32.2728   49.7325 H   0  0  0  0  0  0  0  0  0  0  0  0
   57.5532   31.7095   48.3773 H   0  0  0  0  0  0  0  0  0  0  0  0
   59.3112   31.3408   48.3773 H   0  0  0  0  0  0  0  0  0  0  0  0
   56.8569   32.4858   43.3252 H   0  0  0  0  0  0  0  0  0  0  0  0
   55.8877   30.2672   42.6735 H   0  0  0  0  0  0  0  0  0  0  0  0
   56.2920   28.3740   44.1250 H   0  0  0  0  0  0  0  0  0  0  0  0
   59.1922   27.8311   49.3794 H   0  0  0  0  0  0  0  0  0  0  0  0
   61.8817   31.6815   50.4709 H   0  0  0  0  0  0  0  0  0  0  0  0
   63.4817   33.5898   50.3972 H   0  0  0  0  0  0  0  0  0  0  0  0
   64.4763   34.3309   48.2412 H   0  0  0  0  0  0  0  0  0  0  0  0
   63.8508   33.1352   46.1241 H   0  0  0  0  0  0  0  0  0  0  0  0
   62.2523   31.2392   46.2167 H   0  0  0  0  0  0  0  0  0  0  0  0
   60.7675   30.1598   46.1342 H   0  0  0  0  0  0  0  0  0  0  0  0
  1  2  1  0
  2  3  1  0
  3  4  2  0
  4  5  1  0
  5  6  2  0
  6  7  1  0
  7  8  1  0
  8  9  2  0
  8 10  1  0
 10 11  1  0
 11 12  1  0
 12 13  1  0
 13 14  1  0
 13 15  1  0
  6 16  1  0
 16 17  2  0
 17 18  1  0
  2 19  1  0
 19 20  1  0
 20 21  2  0
 21 22  1  0
 22 23  1  0
 23 24  2  0
 24 25  1  0
 25 26  2  0
 26 27  1  0
 27 28  2  0
 22 29  1  0
 18  4  1  0
 29 19  2  0
 12  7  1  0
 28 23  1  0
  1 30  1  0
  1 31  1  0
  1 32  1  0
  2 33  1  6
 11 34  1  0
 11 35  1  0
 12 36  1  1
 13 37  1  0
 14 38  1  0
 14 39  1  0
 14 40  1  0
 15 41  1  0
 15 42  1  0
 15 43  1  0
 16 44  1  0
 17 45  1  0
 18 46  1  0
 20 47  1  0
 24 48  1  0
 25 49  1  0
 26 50  1  0
 27 51  1  0
 28 52  1  0
 29 53  1  0
M  END
>  <smiles>  (5) 
CC(N=c1nc(N2C(=O)OCC2C(C)C)cc[nH]1)c1cnn(-c2ccccc2)c1

>  <score_type>  (5) 
oracle

>  <origin>  (5) 
adg

>  <m_score__min__energy>  (5) 
-9.8100000000000005

>  <m_primary>  (5) 
energy

$$$$
5:0
     RDKit          3D

 38 39  0  0  1  0  0  0  0  0999 V2000
   64.1140   33.4060   47.0130 N   0  0  0  0  0  0  0  0  0  0  0  0
   62.8570   33.4760   47.3390 C   0  0  0  0  0  0  0  0  0  0  0  0
   61.8940   33.7520   46.4260 N   0  0  0  0  0  0  0  0  0  0  0  0
   60.5910   33.8320   46.7390 C   0  0  0  0  0  0  0  0  0  0  0  0
   59.7410   34.0970   45.8050 N   0  0  0  0  0  0  0  0  0  0  0  0
   58.8730   33.0670   45.3460 C   0  0  0  0  0  0  0  0  0  0  0  0
   58.2240   33.1500   44.1080 C   0  0  0  0  0  0  0  0  0  0  0  0
   57.3870   32.1540   43.6740 C   0  0  0  0  0  0  0  0  0  0  0  0
   57.1410   31.0300   44.4220 C   0  0  0  0  0  0  0  0  0  0  0  0
   56.2570   29.9490   43.9850 C   0  0  0  0  0  0  0  0  0  0  0  0
   55.4120   29.4120   44.7730 O   0  0  0  0  0  0  0  0  0  0  0  0
   56.2880   29.4480   42.6930 O   0  0  0  0  0  0  0  0  0  0  0  0
   57.7690   30.9240   45.6450 C   0  0  0  0  0  0  0  0  0  0  0  0
   58.6090   31.9230   46.0820 C   0  0  0  0  0  0  0  0  0  0  0  0
   60.1400   33.6360   48.0100 N   0  0  0  0  0  0  0  0  0  0  0  0
   61.0600   33.3580   48.9520 C   0  0  0  0  0  0  0  0  0  0  0  0
   60.7420   33.1400   50.3200 N   0  0  0  0  0  0  0  0  0  0  0  0
   59.4940   33.5830   50.9040 C   0  0  0  0  0  0  0  0  0  0  0  0
   59.6450   33.8730   52.3850 C   0  0  0  0  0  0  0  0  0  0  0  0
   60.9470   33.5760   52.7890 O   0  0  0  0  0  0  0  0  0  0  0  0
   62.4210   33.2740   48.6310 C   0  0  0  0  0  0  0  0  0  0  0  0
   63.4030   32.9810   49.6140 N   0  0  0  0  0  0  0  0  0  0  0  0
   64.3170   32.1540   49.4190 O   0  0  0  0  0  0  0  0  0  0  0  0
   63.3540   33.6370   50.8480 O   0  0  0  0  0  0  0  0  0  0  0  0
   64.6330   32.5700   47.3530 H   0  0  0  0  0  0  0  0  0  0  0  0
   62.2620   33.9000   45.4450 H   0  0  0  0  0  0  0  0  0  0  0  0
   58.3887   34.0315   43.4710 H   0  0  0  0  0  0  0  0  0  0  0  0
   56.8971   32.2595   42.6948 H   0  0  0  0  0  0  0  0  0  0  0  0
   55.4650   29.0270   42.2460 H   0  0  0  0  0  0  0  0  0  0  0  0
   57.5980   30.0377   46.2738 H   0  0  0  0  0  0  0  0  0  0  0  0
   59.0940   31.8077   47.0625 H   0  0  0  0  0  0  0  0  0  0  0  0
   59.1300   33.6960   48.2640 H   0  0  0  0  0  0  0  0  0  0  0  0
   61.4450   32.6400   50.9150 H   0  0  0  0  0  0  0  0  0  0  0  0
   59.1653   34.4995   50.3921 H   0  0  0  0  0  0  0  0  0  0  0  0
   58.7524   32.7796   50.7836 H   0  0  0  0  0  0  0  0  0  0  0  0
   59.4369   34.9366   52.5730 H   0  0  0  0  0  0  0  0  0  0  0  0
   58.9356   33.2533   52.9531 H   0  0  0  0  0  0  0  0  0  0  0  0
   61.5900   33.8800   52.0930 H   0  0  0  0  0  0  0  0  0  0  0  0
  1  2  2  3
  2  3  1  0
  3  4  1  0
  4  5  2  0
  5  6  1  0
  6  7  2  0
  7  8  1  0
  8  9  2  0
  9 10  1  0
 10 11  2  0
 10 12  1  0
  9 13  1  0
 13 14  2  0
  4 15  1  0
 15 16  1  0
 16 17  1  0
 17 18  1  0
 18 19  1  0
 19 20  1  0
 16 21  2  0
 21 22  1  0
 22 23  2  0
 22 24  1  0
 21  2  1  0
 14  6  1  0
  1 25  1  0
  3 26  1  0
  7 27  1  0
  8 28  1  0
 12 29  1  0
 13 30  1  0
 14 31  1  0
 15 32  1  0
 17 33  1  0
 18 34  1  0
 18 35  1  0
 19 36  1  0
 19 37  1  0
 20 38  1  0
M  CHG  2  22   1  24  -1
M  END
>  <smiles>  (6) 
N=c1[nH]c(=Nc2ccc(C(=O)O)cc2)[nH]c(NCCO)c1[N+](=O)[O-]

>  <score_type>  (6) 
oracle

>  <origin>  (6) 
adg

>  <m_score__min__energy>  (6) 
-6.5499999999999998

>  <m_primary>  (6) 
energy

$$$$
6:0
     RDKit          3D

 45 48  0  0  0  0  0  0  0  0999 V2000
   57.2420   33.6590   46.5420 O   0  0  0  0  0  0  0  0  0  0  0  0
   58.2370   33.3230   45.8440 C   0  0  0  0  0  0  0  0  0  0  0  0
   58.1170   33.3010   44.3460 C   0  0  0  0  0  0  0  0  0  0  0  0
   57.5260   31.9780   43.8490 C   0  0  0  0  0  0  0  0  0  0  0  0
   57.0700   31.1450   44.9670 N   0  0  0  0  0  0  0  0  0  0  0  0
   56.5800   29.5670   44.4280 S   0  0  0  0  0  0  0  0  0  0  0  0
   56.7040   29.4850   42.9310 O   0  0  0  0  0  0  0  0  0  0  0  0
   55.1390   29.3450   44.7960 O   0  0  0  0  0  0  0  0  0  0  0  0
   57.5660   28.3210   45.1950 C   0  0  0  0  0  0  0  0  0  0  0  0
   56.9600   27.2180   45.8230 C   0  0  0  0  0  0  0  0  0  0  0  0
   57.7400   26.2040   46.4060 C   0  0  0  0  0  0  0  0  0  0  0  0
   59.1380   26.2680   46.3670 C   0  0  0  0  0  0  0  0  0  0  0  0
   59.7490   27.3540   45.7420 C   0  0  0  0  0  0  0  0  0  0  0  0
   61.0910   27.5010   45.6410 N   0  0  0  0  0  0  0  0  0  0  0  0
   61.2150   28.9220   44.8110 S   0  0  0  0  0  0  0  0  0  0  0  0
   59.6500   29.4010   44.5540 N   0  0  0  0  0  0  0  0  0  0  0  0
   58.9660   28.3880   45.1540 C   0  0  0  0  0  0  0  0  0  0  0  0
   59.4950   33.0650   46.4850 N   0  0  0  0  0  0  0  0  0  0  0  0
   60.5880   34.0090   46.2040 C   0  0  0  0  0  0  0  0  0  0  0  0
   61.7610   33.8240   47.1680 C   0  0  0  0  0  0  0  0  0  0  0  0
   62.2110   32.3630   47.1830 C   0  0  0  0  0  0  0  0  0  0  0  0
   61.0620   31.4630   47.5460 C   0  0  0  0  0  0  0  0  0  0  0  0
   61.3070   30.2500   48.2060 C   0  0  0  0  0  0  0  0  0  0  0  0
   60.2470   29.4120   48.5560 C   0  0  0  0  0  0  0  0  0  0  0  0
   58.9360   29.7790   48.2500 C   0  0  0  0  0  0  0  0  0  0  0  0
   58.6810   30.9750   47.5770 C   0  0  0  0  0  0  0  0  0  0  0  0
   59.7420   31.8200   47.1880 C   0  0  0  0  0  0  0  0  0  0  0  0
   57.4632   34.1264   44.0277 H   0  0  0  0  0  0  0  0  0  0  0  0
   59.1241   33.4114   43.9177 H   0  0  0  0  0  0  0  0  0  0  0  0
   56.6717   32.1922   43.1900 H   0  0  0  0  0  0  0  0  0  0  0  0
   58.3094   31.4303   43.3047 H   0  0  0  0  0  0  0  0  0  0  0  0
   55.8628   27.1479   45.8584 H   0  0  0  0  0  0  0  0  0  0  0  0
   57.2472   25.3522   46.8975 H   0  0  0  0  0  0  0  0  0  0  0  0
   59.7457   25.4726   46.8231 H   0  0  0  0  0  0  0  0  0  0  0  0
   61.8480   26.8740   45.9910 H   0  0  0  0  0  0  0  0  0  0  0  0
   60.9433   33.8464   45.1757 H   0  0  0  0  0  0  0  0  0  0  0  0
   60.1989   35.0300   46.3313 H   0  0  0  0  0  0  0  0  0  0  0  0
   62.5995   34.4585   46.8450 H   0  0  0  0  0  0  0  0  0  0  0  0
   61.4401   34.1097   48.1806 H   0  0  0  0  0  0  0  0  0  0  0  0
   62.5847   32.0888   46.1854 H   0  0  0  0  0  0  0  0  0  0  0  0
   63.0078   32.2432   47.9319 H   0  0  0  0  0  0  0  0  0  0  0  0
   62.3392   29.9577   48.4489 H   0  0  0  0  0  0  0  0  0  0  0  0
   60.4453   28.4617   49.0734 H   0  0  0  0  0  0  0  0  0  0  0  0
   58.1012   29.1240   48.5399 H   0  0  0  0  0  0  0  0  0  0  0  0
   57.6439   31.2613   47.3479 H   0  0  0  0  0  0  0  0  0  0  0  0
  1  2  2  0
  2  3  1  0
  3  4  1  0
  4  5  1  0
  5  6  1  0
  6  7  2  0
  6  8  2  0
  6  9  1  0
  9 10  2  0
 10 11  1  0
 11 12  2  0
 12 13  1  0
 13 14  2  0
 14 15  1  0
 15 16  1  0
 16 17  2  0
  2 18  1  0
 18 19  1  0
 19 20  1  0
 20 21  1  0
 21 22  1  0
 22 23  2  0
 23 24  1  0
 24 25  2  0
 25 26  1  0
 26 27  2  0
 17  9  1  0
 27 18  1  0
 17 13  1  0
 27 22  1  0
  3 28  1  0
  3 29  1  0
  4 30  1  0
  4 31  1  0
 10 32  1  0
 11 33  1  0
 12 34  1  0
 14 35  1  0
 19 36  1  0
 19 37  1  0
 20 38  1  0
 20 39  1  0
 21 40  1  0
 21 41  1  0
 23 42  1  0
 24 43  1  0
 25 44  1  0
 26 45  1  0
M  CHG  2   5  -1  14   1
M  END
>  <UniqueID>  (7) 
5

>  <SMILES>  (7) 
O=C(CC[N-]S(=O)(=O)c1cccc2[nH+]snc12)N1CCCc2ccccc21

>  <Energy>  (7) 
91.85182041351685

>  <Genealogy>  (7) 
O=C(CC[N-]S(=O)(=O)c1cccc2[nH+]snc12)N1CCCc2ccccc21 (protonated)
O=C(CC[N-]S(=O)(=O)c1cccc2[nH+]snc12)N1CCCc2ccccc21 (3D coordinates assigned)
O=C(CC[N-]S(=O)(=O)c1cccc2[nH+]snc12)N1CCCc2ccccc21 (nonaromatic ring conformer: 91.85182041351685 kcal/mol)

>  <smiles>  (7) 
O=C(CCNS(=O)(=O)c1cccc2nsnc12)N1CCCc2ccccc21

>  <score_type>  (7) 
oracle

>  <origin>  (7) 
adg

>  <m_score__min__energy>  (7) 
-10.710000000000001

>  <m_primary>  (7) 
energy

$$$$
7:0
     RDKit          3D

 30 33  0  0  0  0  0  0  0  0999 V2000
   59.2660   35.5570   44.8840 O   0  0  0  0  0  0  0  0  0  0  0  0
   59.5780   34.5320   45.5490 C   0  0  0  0  0  0  0  0  0  0  0  0
   60.6520   34.5880   46.4420 C   0  0  0  0  0  0  0  0  0  0  0  0
   61.0030   33.4410   47.1880 C   0  0  0  0  0  0  0  0  0  0  0  0
   62.1370   33.4200   48.1620 C   0  0  0  0  0  0  0  0  0  0  0  0
   63.3300   32.6950   47.9350 C   0  0  0  0  0  0  0  0  0  0  0  0
   64.3620   32.7080   48.8790 C   0  0  0  0  0  0  0  0  0  0  0  0
   64.2270   33.4400   50.0600 C   0  0  0  0  0  0  0  0  0  0  0  0
   63.0580   34.1610   50.3010 C   0  0  0  0  0  0  0  0  0  0  0  0
   62.0220   34.1520   49.3620 C   0  0  0  0  0  0  0  0  0  0  0  0
   60.2970   32.3220   47.0220 O   0  0  0  0  0  0  0  0  0  0  0  0
   59.2700   32.2250   46.1850 C   0  0  0  0  0  0  0  0  0  0  0  0
   58.8630   33.3360   45.4060 C   0  0  0  0  0  0  0  0  0  0  0  0
   57.7610   33.2080   44.5170 C   0  0  0  0  0  0  0  0  0  0  0  0
   57.0720   31.9850   44.4070 C   0  0  0  0  0  0  0  0  0  0  0  0
   57.5040   30.9170   45.1900 C   0  0  0  0  0  0  0  0  0  0  0  0
   57.0060   29.7060   45.2390 O   0  0  0  0  0  0  0  0  0  0  0  0
   57.7170   29.0160   46.1130 C   0  0  0  0  0  0  0  0  0  0  0  0
   58.7210   29.8100   46.6580 C   0  0  0  0  0  0  0  0  0  0  0  0
   58.5630   31.0330   46.0470 C   0  0  0  0  0  0  0  0  0  0  0  0
   61.2214   35.5213   46.5633 H   0  0  0  0  0  0  0  0  0  0  0  0
   63.4473   32.1155   47.0074 H   0  0  0  0  0  0  0  0  0  0  0  0
   65.2841   32.1389   48.6900 H   0  0  0  0  0  0  0  0  0  0  0  0
   65.0415   33.4480   50.7993 H   0  0  0  0  0  0  0  0  0  0  0  0
   62.9507   34.7378   51.2314 H   0  0  0  0  0  0  0  0  0  0  0  0
   61.1040   34.7241   49.5621 H   0  0  0  0  0  0  0  0  0  0  0  0
   57.4446   34.0699   43.9112 H   0  0  0  0  0  0  0  0  0  0  0  0
   56.2176   31.8761   43.7228 H   0  0  0  0  0  0  0  0  0  0  0  0
   57.5400   27.9620   46.3732 H   0  0  0  0  0  0  0  0  0  0  0  0
   59.4725   29.5244   47.4088 H   0  0  0  0  0  0  0  0  0  0  0  0
  1  2  2  0
  2  3  1  0
  3  4  2  0
  4  5  1  0
  5  6  2  0
  6  7  1  0
  7  8  2  0
  8  9  1  0
  9 10  2  0
  4 11  1  0
 11 12  1  0
 12 13  2  0
 13 14  1  0
 14 15  2  0
 15 16  1  0
 16 17  1  0
 17 18  1  0
 18 19  2  0
 19 20  1  0
 13  2  1  0
 20 16  2  0
 10  5  1  0
 20 12  1  0
  3 21  1  0
  6 22  1  0
  7 23  1  0
  8 24  1  0
  9 25  1  0
 10 26  1  0
 14 27  1  0
 15 28  1  0
 18 29  1  0
 19 30  1  0
M  END
>  <UniqueID>  (8) 
6

>  <SMILES>  (8) 
O=c1cc(-c2ccccc2)oc2c1ccc1occc12

>  <Energy>  (8) 
77.64694189678964

>  <Genealogy>  (8) 
O=c1cc(-c2ccccc2)oc2c1ccc1occc12 (3D coordinates assigned)
O=c1cc(-c2ccccc2)oc2c1ccc1occc12 (optimized conformer: 77.64694189678964 kcal/mol)

>  <smiles>  (8) 
O=c1cc(-c2ccccc2)oc2c1ccc1occc12

>  <score_type>  (8) 
oracle

>  <origin>  (8) 
adg

>  <m_score__min__energy>  (8) 
-6.8700000000000001

>  <m_primary>  (8) 
energy

$$$$
8:0
     RDKit          3D

 53 55  0  0  0  0  0  0  0  0999 V2000
   56.3620   22.5970   48.4880 C   0  0  0  0  0  0  0  0  0  0  0  0
   57.3580   22.2790   47.5240 O   0  0  0  0  0  0  0  0  0  0  0  0
   57.2250   22.4900   46.1400 C   0  0  0  0  0  0  0  0  0  0  0  0
   56.8290   21.4540   45.2700 C   0  0  0  0  0  0  0  0  0  0  0  0
   56.7140   21.6880   43.8980 C   0  0  0  0  0  0  0  0  0  0  0  0
   56.9630   22.9600   43.3790 C   0  0  0  0  0  0  0  0  0  0  0  0
   57.3530   23.9970   44.2270 C   0  0  0  0  0  0  0  0  0  0  0  0
   57.4970   23.7710   45.6090 C   0  0  0  0  0  0  0  0  0  0  0  0
   57.9910   24.8830   46.4980 C   0  0  0  0  0  0  0  0  0  0  0  0
   56.8670   25.6660   46.9950 N   0  0  0  0  0  0  0  0  0  0  0  0
   56.0990   26.5380   46.1590 C   0  0  0  0  0  0  0  0  0  0  0  0
   54.8640   26.3340   45.9930 O   0  0  0  0  0  0  0  0  0  0  0  0
   56.7460   27.7180   45.4950 C   0  0  0  0  0  0  0  0  0  0  0  0
   57.8360   28.2500   46.3160 N   0  0  0  0  0  0  0  0  0  0  0  0
   58.2580   29.6290   46.3280 C   0  0  0  0  0  0  0  0  0  0  0  0
   58.0410   30.4880   45.2320 C   0  0  0  0  0  0  0  0  0  0  0  0
   58.4670   31.8180   45.2780 C   0  0  0  0  0  0  0  0  0  0  0  0
   59.1000   32.3200   46.4220 C   0  0  0  0  0  0  0  0  0  0  0  0
   59.6140   34.0100   46.4920 S   0  0  0  0  0  0  0  0  0  0  0  0
   59.6810   34.5630   45.0940 O   0  0  0  0  0  0  0  0  0  0  0  0
   58.5980   34.8090   47.2620 O   0  0  0  0  0  0  0  0  0  0  0  0
   61.1850   34.1700   47.2430 N   0  0  0  0  0  0  0  0  0  0  0  0
   61.0840   34.1920   48.7220 C   0  0  0  0  0  0  0  0  0  0  0  0
   62.1210   33.2800   49.4000 C   0  0  0  0  0  0  0  0  0  0  0  0
   63.4150   33.4740   48.8550 O   0  0  0  0  0  0  0  0  0  0  0  0
   63.4610   33.2540   47.4420 C   0  0  0  0  0  0  0  0  0  0  0  0
   62.0910   33.1240   46.7470 C   0  0  0  0  0  0  0  0  0  0  0  0
   59.3160   31.4720   47.5160 C   0  0  0  0  0  0  0  0  0  0  0  0
   58.9050   30.1370   47.4660 C   0  0  0  0  0  0  0  0  0  0  0  0
   56.7749   22.4652   49.4990 H   0  0  0  0  0  0  0  0  0  0  0  0
   56.0435   23.6415   48.3553 H   0  0  0  0  0  0  0  0  0  0  0  0
   55.4972   21.9303   48.3553 H   0  0  0  0  0  0  0  0  0  0  0  0
   56.6092   20.4549   45.6743 H   0  0  0  0  0  0  0  0  0  0  0  0
   56.4263   20.8676   43.2241 H   0  0  0  0  0  0  0  0  0  0  0  0
   56.8516   23.1448   42.3004 H   0  0  0  0  0  0  0  0  0  0  0  0
   57.5491   24.9972   43.8132 H   0  0  0  0  0  0  0  0  0  0  0  0
   58.5383   24.4519   47.3492 H   0  0  0  0  0  0  0  0  0  0  0  0
   58.6566   25.5385   45.9172 H   0  0  0  0  0  0  0  0  0  0  0  0
   57.1492   27.4059   44.5203 H   0  0  0  0  0  0  0  0  0  0  0  0
   55.9890   28.5054   45.3647 H   0  0  0  0  0  0  0  0  0  0  0  0
   58.2990   27.5840   46.9800 H   0  0  0  0  0  0  0  0  0  0  0  0
   57.5324   30.1086   44.3335 H   0  0  0  0  0  0  0  0  0  0  0  0
   58.3042   32.4746   44.4106 H   0  0  0  0  0  0  0  0  0  0  0  0
   61.2409   35.2235   49.0704 H   0  0  0  0  0  0  0  0  0  0  0  0
   60.0852   33.8194   48.9931 H   0  0  0  0  0  0  0  0  0  0  0  0
   62.1481   33.5070   50.4760 H   0  0  0  0  0  0  0  0  0  0  0  0
   61.8265   32.2340   49.2291 H   0  0  0  0  0  0  0  0  0  0  0  0
   63.9946   34.1000   46.9842 H   0  0  0  0  0  0  0  0  0  0  0  0
   63.9641   32.2858   47.3027 H   0  0  0  0  0  0  0  0  0  0  0  0
   62.2197   33.2363   45.6603 H   0  0  0  0  0  0  0  0  0  0  0  0
   61.6623   32.1351   46.9669 H   0  0  0  0  0  0  0  0  0  0  0  0
   59.8115   31.8587   48.4188 H   0  0  0  0  0  0  0  0  0  0  0  0
   59.0903   29.4777   48.3268 H   0  0  0  0  0  0  0  0  0  0  0  0
  1  2  1  0
  2  3  1  0
  3  4  2  0
  4  5  1  0
  5  6  2  0
  6  7  1  0
  7  8  2  0
  8  9  1  0
  9 10  1  0
 10 11  1  0
 11 12  2  0
 11 13  1  0
 13 14  1  0
 14 15  1  0
 15 16  2  0
 16 17  1  0
 17 18  2  0
 18 19  1  0
 19 20  2  0
 19 21  2  0
 19 22  1  0
 22 23  1  0
 23 24  1  0
 24 25  1  0
 25 26  1  0
 26 27  1  0
 18 28  1  0
 28 29  2  0
  8  3  1  0
 29 15  1  0
 27 22  1  0
  1 30  1  0
  1 31  1  0
  1 32  1  0
  4 33  1  0
  5 34  1  0
  6 35  1  0
  7 36  1  0
  9 37  1  0
  9 38  1  0
 13 39  1  0
 13 40  1  0
 14 41  1  0
 16 42  1  0
 17 43  1  0
 23 44  1  0
 23 45  1  0
 24 46  1  0
 24 47  1  0
 26 48  1  0
 26 49  1  0
 27 50  1  0
 27 51  1  0
 28 52  1  0
 29 53  1  0
M  CHG  1  10  -1
M  END
>  <UniqueID>  (9) 
7

>  <SMILES>  (9) 
COc1ccccc1C[N-]C(=O)CNc1ccc(S(=O)(=O)N2CCOCC2)cc1

>  <Energy>  (9) 
56.62097336965792

>  <Genealogy>  (9) 
COc1ccccc1C[N-]C(=O)CNc1ccc(S(=O)(=O)N2CCOCC2)cc1 (protonated)
COc1ccccc1C[N-]C(=O)CNc1ccc(S(=O)(=O)N2CCOCC2)cc1 (3D coordinates assigned)
COc1ccccc1C[N-]C(=O)CNc1ccc(S(=O)(=O)N2CCOCC2)cc1 (nonaromatic ring conformer: 56.62097336965792 kcal/mol)

>  <smiles>  (9) 
COc1ccccc1CNC(=O)CNc1ccc(S(=O)(=O)N2CCOCC2)cc1

>  <score_type>  (9) 
oracle

>  <origin>  (9) 
adg

>  <m_score__min__energy>  (9) 
-10.77

>  <m_primary>  (9) 
energy

$$$$
9:0
     RDKit          3D

 33 35  0  0  0  0  0  0  0  0999 V2000
   55.6209   26.3476   45.7126 H   0  0  0  0  0  0  0  0  0  0  0  0
   56.4510   27.0660   45.6430 C   0  0  0  0  0  0  0  0  0  0  0  0
   58.0660   26.7520   45.9930 S   0  0  0  0  0  0  0  0  0  0  0  0
   58.5760   28.3180   45.6190 C   0  0  0  0  0  0  0  0  0  0  0  0
   59.7870   28.7800   45.7580 N   0  0  0  0  0  0  0  0  0  0  0  0
   60.3110   29.4850   46.8920 C   0  0  0  0  0  0  0  0  0  0  0  0
   61.1070   30.6360   46.7440 C   0  0  0  0  0  0  0  0  0  0  0  0
   61.3708   30.9944   45.7380 H   0  0  0  0  0  0  0  0  0  0  0  0
   61.5640   31.3260   47.8720 C   0  0  0  0  0  0  0  0  0  0  0  0
   62.2018   32.2141   47.7517 H   0  0  0  0  0  0  0  0  0  0  0  0
   61.2110   30.8880   49.1520 C   0  0  0  0  0  0  0  0  0  0  0  0
   61.6650   31.5740   50.2710 O   0  0  0  0  0  0  0  0  0  0  0  0
   60.3920   29.7650   49.3030 C   0  0  0  0  0  0  0  0  0  0  0  0
   60.1075   29.4246   50.3096 H   0  0  0  0  0  0  0  0  0  0  0  0
   59.9340   29.0740   48.1780 C   0  0  0  0  0  0  0  0  0  0  0  0
   59.2740   28.2028   48.3023 H   0  0  0  0  0  0  0  0  0  0  0  0
   57.5270   29.0940   45.2420 N   0  0  0  0  0  0  0  0  0  0  0  0
   57.6310   30.4840   44.8770 C   0  0  0  0  0  0  0  0  0  0  0  0
   57.5870   30.8690   43.5270 C   0  0  0  0  0  0  0  0  0  0  0  0
   57.4677   30.1058   42.7439 H   0  0  0  0  0  0  0  0  0  0  0  0
   57.6940   32.2160   43.1740 C   0  0  0  0  0  0  0  0  0  0  0  0
   57.6625   32.5094   42.1143 H   0  0  0  0  0  0  0  0  0  0  0  0
   57.8410   33.1920   44.1630 C   0  0  0  0  0  0  0  0  0  0  0  0
   57.9343   34.2506   43.8791 H   0  0  0  0  0  0  0  0  0  0  0  0
   57.8700   32.8260   45.5170 C   0  0  0  0  0  0  0  0  0  0  0  0
   58.0700   33.8680   46.5770 C   0  0  0  0  0  0  0  0  0  0  0  0
   57.9807   33.4029   47.5698 H   0  0  0  0  0  0  0  0  0  0  0  0
   59.0700   34.3134   46.4693 H   0  0  0  0  0  0  0  0  0  0  0  0
   57.3059   34.6520   46.4693 H   0  0  0  0  0  0  0  0  0  0  0  0
   57.7810   31.4690   45.8680 C   0  0  0  0  0  0  0  0  0  0  0  0
   57.8291   31.1749   46.9269 H   0  0  0  0  0  0  0  0  0  0  0  0
   56.3530   28.3960   45.2500 C   0  0  0  0  0  0  0  0  0  0  0  0
   55.1410   28.9640   44.8730 O   0  0  0  0  0  0  0  0  0  0  0  0
  1  2  1  0
  2  3  1  0
  3  4  1  0
  4  5  2  0
  5  6  1  0
  6  7  2  0
  7  8  1  0
  7  9  1  0
  9 10  1  0
  9 11  2  0
 11 12  1  0
 11 13  1  0
 13 14  1  0
 13 15  2  0
 15 16  1  0
  4 17  1  0
 17 18  1  0
 18 19  2  0
 19 20  1  0
 19 21  1  0
 21 22  1  0
 21 23  2  0
 23 24  1  0
 23 25  1  0
 25 26  1  0
 26 27  1  0
 26 28  1  0
 26 29  1  0
 25 30  2  0
 30 31  1  0
 17 32  1  0
 32 33  1  0
 32  2  2  0
 15  6  1  0
 30 18  1  0
M  CHG  2  12  -1  33  -1
M  END
>  <UniqueID>  (10) 
8

>  <SMILES>  (10) 
Cc1cccc(-n2c([O-])cs/c2=N\c2ccc([O-])cc2)c1

>  <Energy>  (10) 
79.32692793020644

>  <Genealogy>  (10) 
Cc1cccc(-n2c([O-])csc2=Nc2ccc([O-])cc2)c1 (protonated)
Cc1cccc(-n2c([O-])cs/c2=N\c2ccc([O-])cc2)c1 (cis-trans isomerization)
Cc1cccc(-n2c([O-])cs/c2=N\c2ccc([O-])cc2)c1 (3D coordinates assigned)
Cc1cccc(-n2c([O-])cs/c2=N\c2ccc([O-])cc2)c1 (optimized conformer: 79.32692793020644 kcal/mol)

>  <smiles>  (10) 
Cc1cccc(-n2c(O)csc2=Nc2ccc(O)cc2)c1

>  <score_type>  (10) 
oracle

>  <origin>  (10) 
adg

>  <m_score__min__energy>  (10) 
-10.859999999999999

>  <m_primary>  (10) 
energy

$$$$
10:0
     RDKit          3D

 70 74  0  0  0  0  0  0  0  0999 V2000
   61.2210   33.4400   52.5120 C   0  0  0  0  0  0  0  0  0  0  0  0
   60.1770   33.0220   51.5680 N   0  0  0  0  0  0  0  0  0  0  0  0
   60.1110   33.6730   50.2760 C   0  0  0  0  0  0  0  0  0  0  0  0
   59.3130   34.6280   50.0810 O   0  0  0  0  0  0  0  0  0  0  0  0
   60.9980   33.2640   49.1660 C   0  0  0  0  0  0  0  0  0  0  0  0
   62.3510   33.6290   49.2330 C   0  0  0  0  0  0  0  0  0  0  0  0
   63.2370   33.2590   48.2210 C   0  0  0  0  0  0  0  0  0  0  0  0
   62.7800   32.5200   47.1290 C   0  0  0  0  0  0  0  0  0  0  0  0
   61.4350   32.1540   47.0430 C   0  0  0  0  0  0  0  0  0  0  0  0
   60.5240   32.5270   48.0470 C   0  0  0  0  0  0  0  0  0  0  0  0
   59.0610   32.1760   47.8630 C   0  0  0  0  0  0  0  0  0  0  0  0
   58.6140   32.4650   46.4430 C   0  0  0  0  0  0  0  0  0  0  0  0
   58.7940   33.7740   45.9720 C   0  0  0  0  0  0  0  0  0  0  0  0
   58.4150   34.1170   44.6770 C   0  0  0  0  0  0  0  0  0  0  0  0
   57.8660   33.1890   43.8550 N   0  0  0  0  0  0  0  0  0  0  0  0
   57.6740   31.8990   44.2580 C   0  0  0  0  0  0  0  0  0  0  0  0
   57.1060   30.9720   43.3720 C   0  0  0  0  0  0  0  0  0  0  0  0
   56.9020   29.6500   43.7620 C   0  0  0  0  0  0  0  0  0  0  0  0
   57.2650   29.2310   45.0470 C   0  0  0  0  0  0  0  0  0  0  0  0
   57.0640   27.8290   45.4600 C   0  0  0  0  0  0  0  0  0  0  0  0
   55.8930   27.4120   45.6480 O   0  0  0  0  0  0  0  0  0  0  0  0
   58.1580   26.9200   45.6230 N   0  0  0  0  0  0  0  0  0  0  0  0
   59.5660   27.3020   45.6000 C   0  0  0  0  0  0  0  0  0  0  0  0
   60.0130   27.6450   46.9920 C   0  0  0  0  0  0  0  0  0  0  0  0
   60.0640   26.6560   47.9890 C   0  0  0  0  0  0  0  0  0  0  0  0
   60.4540   26.9900   49.2900 C   0  0  0  0  0  0  0  0  0  0  0  0
   60.7860   28.3100   49.6080 C   0  0  0  0  0  0  0  0  0  0  0  0
   60.7270   29.3000   48.6240 C   0  0  0  0  0  0  0  0  0  0  0  0
   60.3380   28.9720   47.3210 C   0  0  0  0  0  0  0  0  0  0  0  0
   57.8580   30.1400   45.9350 C   0  0  0  0  0  0  0  0  0  0  0  0
   58.0550   31.4920   45.5660 C   0  0  0  0  0  0  0  0  0  0  0  0
   59.1580   32.0430   52.0030 C   0  0  0  0  0  0  0  0  0  0  0  0
   57.7370   32.5180   51.6420 C   0  0  0  0  0  0  0  0  0  0  0  0
   56.6630   31.5920   52.2520 C   0  0  0  0  0  0  0  0  0  0  0  0
   57.1170   30.1240   52.3860 C   0  0  0  0  0  0  0  0  0  0  0  0
   58.1740   29.7510   51.3340 C   0  0  0  0  0  0  0  0  0  0  0  0
   59.4480   30.6130   51.4680 C   0  0  0  0  0  0  0  0  0  0  0  0
   60.8627   33.2965   53.5421 H   0  0  0  0  0  0  0  0  0  0  0  0
   62.1251   32.8345   52.3506 H   0  0  0  0  0  0  0  0  0  0  0  0
   61.4574   34.5021   52.3506 H   0  0  0  0  0  0  0  0  0  0  0  0
   62.7164   34.2121   50.0912 H   0  0  0  0  0  0  0  0  0  0  0  0
   64.2960   33.5498   48.2838 H   0  0  0  0  0  0  0  0  0  0  0  0
   63.4808   32.2251   46.3341 H   0  0  0  0  0  0  0  0  0  0  0  0
   61.0846   31.5677   46.1807 H   0  0  0  0  0  0  0  0  0  0  0  0
   58.9168   31.1065   48.0762 H   0  0  0  0  0  0  0  0  0  0  0  0
   58.4615   32.7874   48.5534 H   0  0  0  0  0  0  0  0  0  0  0  0
   59.2378   34.5350   46.6306 H   0  0  0  0  0  0  0  0  0  0  0  0
   58.5618   35.1466   44.3187 H   0  0  0  0  0  0  0  0  0  0  0  0
   57.5930   33.4850   42.8890 H   0  0  0  0  0  0  0  0  0  0  0  0
   56.8188   31.2917   42.3594 H   0  0  0  0  0  0  0  0  0  0  0  0
   56.4542   28.9334   43.0577 H   0  0  0  0  0  0  0  0  0  0  0  0
   60.1673   26.4641   45.2175 H   0  0  0  0  0  0  0  0  0  0  0  0
   59.6987   28.1763   44.9458 H   0  0  0  0  0  0  0  0  0  0  0  0
   59.7967   25.6171   47.7457 H   0  0  0  0  0  0  0  0  0  0  0  0
   60.4996   26.2113   50.0655 H   0  0  0  0  0  0  0  0  0  0  0  0
   61.0934   28.5690   50.6319 H   0  0  0  0  0  0  0  0  0  0  0  0
   60.9869   30.3391   48.8743 H   0  0  0  0  0  0  0  0  0  0  0  0
   60.2863   29.7558   46.5509 H   0  0  0  0  0  0  0  0  0  0  0  0
   58.1742   29.7977   46.9314 H   0  0  0  0  0  0  0  0  0  0  0  0
   59.2161   31.9799   53.0996 H   0  0  0  0  0  0  0  0  0  0  0  0
   57.5915   33.5378   52.0277 H   0  0  0  0  0  0  0  0  0  0  0  0
   57.6319   32.4967   50.5472 H   0  0  0  0  0  0  0  0  0  0  0  0
   56.4063   31.9693   53.2529 H   0  0  0  0  0  0  0  0  0  0  0  0
   55.8020   31.6021   51.5675 H   0  0  0  0  0  0  0  0  0  0  0  0
   57.5450   29.9745   53.3882 H   0  0  0  0  0  0  0  0  0  0  0  0
   56.2388   29.4805   52.2289 H   0  0  0  0  0  0  0  0  0  0  0  0
   58.4454   28.6927   51.4621 H   0  0  0  0  0  0  0  0  0  0  0  0
   57.7429   29.9318   50.3383 H   0  0  0  0  0  0  0  0  0  0  0  0
   60.1391   30.1122   52.1620 H   0  0  0  0  0  0  0  0  0  0  0  0
   59.8819   30.7187   50.4627 H   0  0  0  0  0  0  0  0  0  0  0  0
  1  2  1  0
  2  3  1  0
  3  4  2  0
  3  5  1  0
  5  6  2  0
  6  7  1  0
  7  8  2  0
  8  9  1  0
  9 10  2  0
 10 11  1  0
 11 12  1  0
 12 13  2  0
 13 14  1  0
 14 15  2  0
 15 16  1  0
 16 17  2  0
 17 18  1  0
 18 19  2  0
 19 20  1  0
 20 21  2  0
 20 22  1  0
 22 23  1  0
 23 24  1  0
 24 25  2  0
 25 26  1  0
 26 27  2  0
 27 28  1  0
 28 29  2  0
 19 30  1  0
 30 31  2  0
  2 32  1  0
 32 33  1  0
 33 34  1  0
 34 35  1  0
 35 36  1  0
 36 37  1  0
 10  5  1  0
 31 12  1  0
 37 32  1  0
 31 16  1  0
 29 24  1  0
  1 38  1  0
  1 39  1  0
  1 40  1  0
  6 41  1  0
  7 42  1  0
  8 43  1  0
  9 44  1  0
 11 45  1  0
 11 46  1  0
 13 47  1  0
 14 48  1  0
 15 49  1  0
 17 50  1  0
 18 51  1  0
 23 52  1  0
 23 53  1  0
 25 54  1  0
 26 55  1  0
 27 56  1  0
 28 57  1  0
 29 58  1  0
 30 59  1  0
 32 60  1  0
 33 61  1  0
 33 62  1  0
 34 63  1  0
 34 64  1  0
 35 65  1  0
 35 66  1  0
 36 67  1  0
 36 68  1  0
 37 69  1  0
 37 70  1  0
M  CHG  2  15   1  22  -1
M  END
>  <UniqueID>  (11) 
9

>  <SMILES>  (11) 
CN(C(=O)c1ccccc1Cc1cc[nH+]c2ccc(C(=O)[N-]Cc3ccccc3)cc12)C1CCCCC1

>  <Energy>  (11) 
94.33957399823299

>  <Genealogy>  (11) 
CN(C(=O)c1ccccc1Cc1cc[nH+]c2ccc(C(=O)[N-]Cc3ccccc3)cc12)C1CCCCC1 (protonated)
CN(C(=O)c1ccccc1Cc1cc[nH+]c2ccc(C(=O)[N-]Cc3ccccc3)cc12)C1CCCCC1 (3D coordinates assigned)
CN(C(=O)c1ccccc1Cc1cc[nH+]c2ccc(C(=O)[N-]Cc3ccccc3)cc12)C1CCCCC1 (nonaromatic ring conformer: 94.33957399823299 kcal/mol)

>  <smiles>  (11) 
CN(C(=O)c1ccccc1Cc1ccnc2ccc(C(=O)NCc3ccccc3)cc12)C1CCCCC1

>  <score_type>  (11) 
oracle

>  <origin>  (11) 
adg

>  <m_score__min__energy>  (11) 
-10.42

>  <m_primary>  (11) 
energy

$$$$
11:0
     RDKit          3D

 35 37  0  0  0  0  0  0  0  0999 V2000
   59.6270   33.9400   48.5460 C   0  0  0  0  0  0  0  0  0  0  0  0
   59.1170   33.7890   47.1440 C   0  0  0  0  0  0  0  0  0  0  0  0
   59.2820   34.8280   46.2150 C   0  0  0  0  0  0  0  0  0  0  0  0
   58.8390   34.6720   44.9000 C   0  0  0  0  0  0  0  0  0  0  0  0
   58.2430   33.4740   44.4970 C   0  0  0  0  0  0  0  0  0  0  0  0
   58.0950   32.4200   45.4090 C   0  0  0  0  0  0  0  0  0  0  0  0
   57.3680   30.9030   44.8880 S   0  0  0  0  0  0  0  0  0  0  0  0
   58.1430   30.3680   43.7190 O   0  0  0  0  0  0  0  0  0  0  0  0
   55.9380   31.1140   44.4740 O   0  0  0  0  0  0  0  0  0  0  0  0
   57.4170   29.7470   46.1800 N   0  0  0  0  0  0  0  0  0  0  0  0
   58.1640   28.5220   46.1650 C   0  0  0  0  0  0  0  0  0  0  0  0
   59.3800   28.3800   46.8560 C   0  0  0  0  0  0  0  0  0  0  0  0
   60.0760   27.1710   46.8060 C   0  0  0  0  0  0  0  0  0  0  0  0
   59.5710   26.0950   46.0740 C   0  0  0  0  0  0  0  0  0  0  0  0
   58.3540   26.2180   45.3790 C   0  0  0  0  0  0  0  0  0  0  0  0
   57.7940   25.0950   44.5920 C   0  0  0  0  0  0  0  0  0  0  0  0
   57.0410   25.2070   43.4820 N   0  0  0  0  0  0  0  0  0  0  0  0
   56.7420   23.9840   43.0770 N   0  0  0  0  0  0  0  0  0  0  0  0
   57.3280   23.1540   43.9620 C   0  0  0  0  0  0  0  0  0  0  0  0
   57.9720   23.8280   44.8880 O   0  0  0  0  0  0  0  0  0  0  0  0
   57.6610   27.4400   45.4330 C   0  0  0  0  0  0  0  0  0  0  0  0
   58.5350   32.5800   46.7310 C   0  0  0  0  0  0  0  0  0  0  0  0
   58.8219   33.7016   49.2567 H   0  0  0  0  0  0  0  0  0  0  0  0
   60.4716   33.2534   48.7049 H   0  0  0  0  0  0  0  0  0  0  0  0
   59.9616   34.9758   48.7049 H   0  0  0  0  0  0  0  0  0  0  0  0
   59.7619   35.7684   46.5238 H   0  0  0  0  0  0  0  0  0  0  0  0
   58.9595   35.4943   44.1794 H   0  0  0  0  0  0  0  0  0  0  0  0
   57.8893   33.3579   43.4619 H   0  0  0  0  0  0  0  0  0  0  0  0
   59.7835   29.2226   47.4368 H   0  0  0  0  0  0  0  0  0  0  0  0
   61.0281   27.0656   47.3467 H   0  0  0  0  0  0  0  0  0  0  0  0
   60.1272   25.1466   46.0404 H   0  0  0  0  0  0  0  0  0  0  0  0
   56.7310   26.0750   42.9930 H   0  0  0  0  0  0  0  0  0  0  0  0
   57.2743   22.0563   43.9154 H   0  0  0  0  0  0  0  0  0  0  0  0
   56.7093   27.5475   44.8920 H   0  0  0  0  0  0  0  0  0  0  0  0
   58.4235   31.7536   47.4483 H   0  0  0  0  0  0  0  0  0  0  0  0
  1  2  1  0
  2  3  2  0
  3  4  1  0
  4  5  2  0
  5  6  1  0
  6  7  1  0
  7  8  2  0
  7  9  2  0
  7 10  1  0
 10 11  1  0
 11 12  2  0
 12 13  1  0
 13 14  2  0
 14 15  1  0
 15 16  1  0
 16 17  2  0
 17 18  1  0
 18 19  2  0
 19 20  1  0
 15 21  2  0
  6 22  2  0
 22  2  1  0
 21 11  1  0
 20 16  1  0
  1 23  1  0
  1 24  1  0
  1 25  1  0
  3 26  1  0
  4 27  1  0
  5 28  1  0
 12 29  1  0
 13 30  1  0
 14 31  1  0
 17 32  1  0
 19 33  1  0
 21 34  1  0
 22 35  1  0
M  CHG  2  10  -1  17   1
M  END
>  <UniqueID>  (12) 
10

>  <SMILES>  (12) 
Cc1cccc(S(=O)(=O)[N-]c2cccc(-c3[nH+]nco3)c2)c1

>  <Energy>  (12) 
75.85016481021165

>  <Genealogy>  (12) 
Cc1cccc(S(=O)(=O)[N-]c2cccc(-c3[nH+]nco3)c2)c1 (protonated)
Cc1cccc(S(=O)(=O)[N-]c2cccc(-c3[nH+]nco3)c2)c1 (3D coordinates assigned)
Cc1cccc(S(=O)(=O)[N-]c2cccc(-c3[nH+]nco3)c2)c1 (optimized conformer: 75.85016481021165 kcal/mol)

>  <smiles>  (12) 
Cc1cccc(S(=O)(=O)Nc2cccc(-c3nnco3)c2)c1

>  <score_type>  (12) 
oracle

>  <origin>  (12) 
adg

>  <m_score__min__energy>  (12) 
-8.2200000000000006

>  <m_primary>  (12) 
energy

$$$$
12:0
     RDKit          3D

 57 59  0  0  0  0  0  0  0  0999 V2000
   56.5430   26.0570   46.2260 C   0  0  0  0  0  0  0  0  0  0  0  0
   57.8080   25.3910   46.7620 C   0  0  0  0  0  0  0  0  0  0  0  0
   58.9350   25.4150   45.7170 C   0  0  0  0  0  0  0  0  0  0  0  0
   60.3280   25.5830   46.3470 C   0  0  0  0  0  0  0  0  0  0  0  0
   60.7380   27.0460   46.5860 C   0  0  0  0  0  0  0  0  0  0  0  0
   59.7260   28.0170   46.0350 C   0  0  0  0  0  0  0  0  0  0  0  0
   58.8540   28.6990   46.8950 C   0  0  0  0  0  0  0  0  0  0  0  0
   57.9260   29.6100   46.3820 C   0  0  0  0  0  0  0  0  0  0  0  0
   57.8640   29.8520   45.0030 C   0  0  0  0  0  0  0  0  0  0  0  0
   56.6510   30.9420   44.3310 S   0  0  0  0  0  0  0  0  0  0  0  0
   56.9370   31.2450   42.8860 O   0  0  0  0  0  0  0  0  0  0  0  0
   55.3060   30.2860   44.4420 O   0  0  0  0  0  0  0  0  0  0  0  0
   56.6240   32.4210   45.2420 N   0  0  0  0  0  0  0  0  0  0  0  0
   57.7880   33.1790   45.5980 C   0  0  0  0  0  0  0  0  0  0  0  0
   58.2050   34.2060   44.7460 C   0  0  0  0  0  0  0  0  0  0  0  0
   59.2800   35.0210   45.1000 C   0  0  0  0  0  0  0  0  0  0  0  0
   59.9430   34.8220   46.3100 C   0  0  0  0  0  0  0  0  0  0  0  0
   59.5490   33.7840   47.1760 C   0  0  0  0  0  0  0  0  0  0  0  0
   60.2060   33.5590   48.4910 C   0  0  0  0  0  0  0  0  0  0  0  0
   59.5910   33.9320   49.5310 O   0  0  0  0  0  0  0  0  0  0  0  0
   61.5330   32.9760   48.6320 N   0  0  0  0  0  0  0  0  0  0  0  0
   61.8550   32.0810   47.4930 C   0  0  0  0  0  0  0  0  0  0  0  0
   63.3690   32.0090   47.2410 C   0  0  0  0  0  0  0  0  0  0  0  0
   64.0550   32.0420   48.4740 O   0  0  0  0  0  0  0  0  0  0  0  0
   63.9600   33.3320   49.0590 C   0  0  0  0  0  0  0  0  0  0  0  0
   62.5750   33.9950   48.8810 C   0  0  0  0  0  0  0  0  0  0  0  0
   58.4920   32.9430   46.7900 C   0  0  0  0  0  0  0  0  0  0  0  0
   58.7430   29.1840   44.1430 C   0  0  0  0  0  0  0  0  0  0  0  0
   59.6680   28.2710   44.6560 C   0  0  0  0  0  0  0  0  0  0  0  0
   55.9170   26.3866   47.0684 H   0  0  0  0  0  0  0  0  0  0  0  0
   56.8187   26.9269   45.6117 H   0  0  0  0  0  0  0  0  0  0  0  0
   55.9819   25.3374   45.6117 H   0  0  0  0  0  0  0  0  0  0  0  0
   58.1421   25.9277   47.6622 H   0  0  0  0  0  0  0  0  0  0  0  0
   57.5755   24.3423   46.9992 H   0  0  0  0  0  0  0  0  0  0  0  0
   58.9146   24.4689   45.1562 H   0  0  0  0  0  0  0  0  0  0  0  0
   58.7610   26.2813   45.0618 H   0  0  0  0  0  0  0  0  0  0  0  0
   60.3346   25.0601   47.3148 H   0  0  0  0  0  0  0  0  0  0  0  0
   61.0515   25.1640   45.6322 H   0  0  0  0  0  0  0  0  0  0  0  0
   60.8374   27.2139   47.6686 H   0  0  0  0  0  0  0  0  0  0  0  0
   61.6913   27.2194   46.0653 H   0  0  0  0  0  0  0  0  0  0  0  0
   58.9002   28.5164   47.9788 H   0  0  0  0  0  0  0  0  0  0  0  0
   57.2424   30.1385   47.0628 H   0  0  0  0  0  0  0  0  0  0  0  0
   57.6829   34.3720   43.7921 H   0  0  0  0  0  0  0  0  0  0  0  0
   59.6058   35.8236   44.4220 H   0  0  0  0  0  0  0  0  0  0  0  0
   60.7790   35.4798   46.5900 H   0  0  0  0  0  0  0  0  0  0  0  0
   61.5100   32.3780   49.4960 H   0  0  0  0  0  0  0  0  0  0  0  0
   61.4818   31.0706   47.7163 H   0  0  0  0  0  0  0  0  0  0  0  0
   61.3747   32.4865   46.5902 H   0  0  0  0  0  0  0  0  0  0  0  0
   63.6085   31.0739   46.7134 H   0  0  0  0  0  0  0  0  0  0  0  0
   63.6789   32.8673   46.6268 H   0  0  0  0  0  0  0  0  0  0  0  0
   64.1655   33.2409   50.1358 H   0  0  0  0  0  0  0  0  0  0  0  0
   64.6914   33.9727   48.5446 H   0  0  0  0  0  0  0  0  0  0  0  0
   62.3224   34.5533   49.7945 H   0  0  0  0  0  0  0  0  0  0  0  0
   62.6177   34.6740   48.0166 H   0  0  0  0  0  0  0  0  0  0  0  0
   58.2130   32.0912   47.4277 H   0  0  0  0  0  0  0  0  0  0  0  0
   58.7056   29.3781   43.0609 H   0  0  0  0  0  0  0  0  0  0  0  0
   60.3551   27.7480   43.9746 H   0  0  0  0  0  0  0  0  0  0  0  0
  1  2  1  0
  2  3  1  0
  3  4  1  0
  4  5  1  0
  5  6  1  0
  6  7  2  0
  7  8  1  0
  8  9  2  0
  9 10  1  0
 10 11  2  0
 10 12  2  0
 10 13  1  0
 13 14  1  0
 14 15  2  0
 15 16  1  0
 16 17  2  0
 17 18  1  0
 18 19  1  0
 19 20  2  0
 19 21  1  0
 21 22  1  0
 22 23  1  0
 23 24  1  0
 24 25  1  0
 25 26  1  0
 18 27  2  0
  9 28  1  0
 28 29  2  0
 29  6  1  0
 27 14  1  0
 26 21  1  0
  1 30  1  0
  1 31  1  0
  1 32  1  0
  2 33  1  0
  2 34  1  0
  3 35  1  0
  3 36  1  0
  4 37  1  0
  4 38  1  0
  5 39  1  0
  5 40  1  0
  7 41  1  0
  8 42  1  0
 15 43  1  0
 16 44  1  0
 17 45  1  0
 21 46  1  0
 22 47  1  0
 22 48  1  0
 23 49  1  0
 23 50  1  0
 25 51  1  0
 25 52  1  0
 26 53  1  0
 26 54  1  0
 27 55  1  0
 28 56  1  0
 29 57  1  0
M  CHG  2  13  -1  21   1
M  END
>  <UniqueID>  (13) 
11

>  <SMILES>  (13) 
CCCCCc1ccc(S(=O)(=O)[N-]c2cccc(C(=O)[NH+]3CCOCC3)c2)cc1

>  <Energy>  (13) 
70.72957319492396

>  <Genealogy>  (13) 
CCCCCc1ccc(S(=O)(=O)[N-]c2cccc(C(=O)[NH+]3CCOCC3)c2)cc1 (protonated)
CCCCCc1ccc(S(=O)(=O)[N-]c2cccc(C(=O)[NH+]3CCOCC3)c2)cc1 (3D coordinates assigned)
CCCCCc1ccc(S(=O)(=O)[N-]c2cccc(C(=O)[NH+]3CCOCC3)c2)cc1 (nonaromatic ring conformer: 70.72957319492396 kcal/mol)

>  <smiles>  (13) 
CCCCCc1ccc(S(=O)(=O)Nc2cccc(C(=O)N3CCOCC3)c2)cc1

>  <score_type>  (13) 
oracle

>  <origin>  (13) 
adg

>  <m_score__min__energy>  (13) 
-9.8499999999999996

>  <m_primary>  (13) 
energy

$$$$
13:0
     RDKit          3D

 42 45  0  0  0  0  0  0  0  0999 V2000
   57.0200   31.2370   43.1400 C   0  0  0  0  0  0  0  0  0  0  0  0
   57.6120   31.2680   44.4860 N   0  0  0  0  0  0  0  0  0  0  0  0
   57.7900   30.1190   45.2290 C   0  0  0  0  0  0  0  0  0  0  0  0
   57.4320   29.0060   44.7510 O   0  0  0  0  0  0  0  0  0  0  0  0
   58.3660   30.1710   46.4890 N   0  0  0  0  0  0  0  0  0  0  0  0
   58.5530   28.9270   47.2620 C   0  0  0  0  0  0  0  0  0  0  0  0
   59.9830   28.4050   47.0720 C   0  0  0  0  0  0  0  0  0  0  0  0
   60.1110   27.0330   46.4280 C   0  0  0  0  0  0  0  0  0  0  0  0
   60.4300   28.2830   45.6230 C   0  0  0  0  0  0  0  0  0  0  0  0
   58.8150   31.3690   47.0010 C   0  0  0  0  0  0  0  0  0  0  0  0
   59.3690   31.4280   48.1310 O   0  0  0  0  0  0  0  0  0  0  0  0
   58.6530   32.5170   46.2320 C   0  0  0  0  0  0  0  0  0  0  0  0
   58.0670   32.4360   45.0110 C   0  0  0  0  0  0  0  0  0  0  0  0
   58.0610   33.7210   44.4970 C   0  0  0  0  0  0  0  0  0  0  0  0
   58.6340   34.5240   45.4220 N   0  0  0  0  0  0  0  0  0  0  0  0
   59.0010   33.8000   46.4750 N   0  0  0  0  0  0  0  0  0  0  0  0
   59.6060   34.3670   47.6810 C   0  0  0  0  0  0  0  0  0  0  0  0
   61.0600   33.9820   47.7740 C   0  0  0  0  0  0  0  0  0  0  0  0
   61.6590   33.7870   49.0300 C   0  0  0  0  0  0  0  0  0  0  0  0
   63.0090   33.4330   49.1200 C   0  0  0  0  0  0  0  0  0  0  0  0
   63.7720   33.2800   47.9590 C   0  0  0  0  0  0  0  0  0  0  0  0
   63.1870   33.4840   46.7070 C   0  0  0  0  0  0  0  0  0  0  0  0
   61.8380   33.8380   46.6120 C   0  0  0  0  0  0  0  0  0  0  0  0
   55.9246   31.1796   43.2225 H   0  0  0  0  0  0  0  0  0  0  0  0
   57.2994   32.1510   42.5954 H   0  0  0  0  0  0  0  0  0  0  0  0
   57.3933   30.3572   42.5954 H   0  0  0  0  0  0  0  0  0  0  0  0
   58.3776   29.1304   48.3287 H   0  0  0  0  0  0  0  0  0  0  0  0
   57.8401   28.1686   46.9063 H   0  0  0  0  0  0  0  0  0  0  0  0
   60.3861   28.8720   47.9827 H   0  0  0  0  0  0  0  0  0  0  0  0
   60.9209   26.3549   46.7348 H   0  0  0  0  0  0  0  0  0  0  0  0
   59.4405   26.1714   46.2935 H   0  0  0  0  0  0  0  0  0  0  0  0
   61.4707   28.5091   45.3476 H   0  0  0  0  0  0  0  0  0  0  0  0
   60.0858   28.7001   44.6651 H   0  0  0  0  0  0  0  0  0  0  0  0
   57.6643   34.0311   43.5190 H   0  0  0  0  0  0  0  0  0  0  0  0
   58.7660   35.5560   45.3320 H   0  0  0  0  0  0  0  0  0  0  0  0
   59.5235   35.4633   47.6461 H   0  0  0  0  0  0  0  0  0  0  0  0
   59.0773   33.9744   48.5621 H   0  0  0  0  0  0  0  0  0  0  0  0
   61.0636   33.9133   49.9463 H   0  0  0  0  0  0  0  0  0  0  0  0
   63.4709   33.2748   50.1057 H   0  0  0  0  0  0  0  0  0  0  0  0
   64.8330   32.9990   48.0312 H   0  0  0  0  0  0  0  0  0  0  0  0
   63.7891   33.3658   45.7940 H   0  0  0  0  0  0  0  0  0  0  0  0
   61.3835   34.0045   45.6242 H   0  0  0  0  0  0  0  0  0  0  0  0
  1  2  1  0
  2  3  1  0
  3  4  2  0
  3  5  1  0
  5  6  1  0
  6  7  1  0
  7  8  1  0
  8  9  1  0
  5 10  1  0
 10 11  2  0
 10 12  1  0
 12 13  2  0
 13 14  1  0
 14 15  2  0
 15 16  1  0
 16 17  1  0
 17 18  1  0
 18 19  2  0
 19 20  1  0
 20 21  2  0
 21 22  1  0
 22 23  2  0
 13  2  1  0
 23 18  1  0
  9  7  1  0
 16 12  1  0
  1 24  1  0
  1 25  1  0
  1 26  1  0
  6 27  1  0
  6 28  1  0
  7 29  1  0
  8 30  1  0
  8 31  1  0
  9 32  1  0
  9 33  1  0
 14 34  1  0
 15 35  1  0
 17 36  1  0
 17 37  1  0
 19 38  1  0
 20 39  1  0
 21 40  1  0
 22 41  1  0
 23 42  1  0
M  CHG  1  15   1
M  END
>  <UniqueID>  (14) 
12

>  <SMILES>  (14) 
Cn1c(=O)n(CC2CC2)c(=O)c2c1c[nH+]n2Cc1ccccc1

>  <Energy>  (14) 
355.0832776124758

>  <Genealogy>  (14) 
Cn1c(=O)n(CC2CC2)c(=O)c2c1c[nH+]n2Cc1ccccc1 (protonated)
Cn1c(=O)n(CC2CC2)c(=O)c2c1c[nH+]n2Cc1ccccc1 (3D coordinates assigned)
Cn1c(=O)n(CC2CC2)c(=O)c2c1c[nH+]n2Cc1ccccc1 (nonaromatic ring conformer: 355.0832776124758 kcal/mol)

>  <smiles>  (14) 
Cn1c(=O)n(CC2CC2)c(=O)c2c1cnn2Cc1ccccc1

>  <score_type>  (14) 
oracle

>  <origin>  (14) 
adg

>  <m_score__min__energy>  (14) 
-5.7199999999999998

>  <m_primary>  (14) 
energy

$$$$
14:0
     RDKit          3D

 66 69  0  0  0  0  0  0  0  0999 V2000
   55.6657   30.3554   44.4138 H   0  0  0  0  0  0  0  0  0  0  0  0
   56.3450   29.5910   44.8190 C   0  0  0  0  0  0  0  0  0  0  0  0
   55.8480   28.3990   45.2340 N   0  0  0  0  0  0  0  0  0  0  0  0
   56.6500   27.4280   45.7410 C   0  0  0  0  0  0  0  0  0  0  0  0
   56.0870   26.2150   46.1560 C   0  0  0  0  0  0  0  0  0  0  0  0
   55.0015   26.0575   46.0732 H   0  0  0  0  0  0  0  0  0  0  0  0
   56.9000   25.2040   46.6750 C   0  0  0  0  0  0  0  0  0  0  0  0
   56.1910   23.6840   47.1920 Cl  0  0  0  0  0  0  0  0  0  0  0  0
   58.2810   25.4000   46.7790 C   0  0  0  0  0  0  0  0  0  0  0  0
   58.9186   24.6013   47.1858 H   0  0  0  0  0  0  0  0  0  0  0  0
   58.8540   26.6070   46.3680 C   0  0  0  0  0  0  0  0  0  0  0  0
   59.9407   26.7537   46.4545 H   0  0  0  0  0  0  0  0  0  0  0  0
   58.0470   27.6380   45.8430 C   0  0  0  0  0  0  0  0  0  0  0  0
   58.5890   28.8740   45.4170 C   0  0  0  0  0  0  0  0  0  0  0  0
   59.8790   29.0700   45.5060 N   0  0  0  0  0  0  0  0  0  0  0  0
   60.7060   29.2570   46.7010 C   0  0  0  0  0  0  0  0  0  0  0  0
   61.7591   29.3536   46.3982 H   0  0  0  0  0  0  0  0  0  0  0  0
   60.5728   28.3859   47.3593 H   0  0  0  0  0  0  0  0  0  0  0  0
   60.2860   30.5200   47.4690 C   0  0  0  0  0  0  0  0  0  0  0  0
   60.1710   31.3425   46.7477 H   0  0  0  0  0  0  0  0  0  0  0  0
   61.0717   30.7195   48.2125 H   0  0  0  0  0  0  0  0  0  0  0  0
   58.9680   30.3650   48.2410 C   0  0  0  0  0  0  0  0  0  0  0  0
   58.8313   29.3060   48.5051 H   0  0  0  0  0  0  0  0  0  0  0  0
   58.1486   30.7181   47.5976 H   0  0  0  0  0  0  0  0  0  0  0  0
   58.9650   31.1640   49.4660 N   0  0  0  0  0  0  0  0  0  0  0  0
   59.1650   32.5830   49.5410 C   0  0  0  0  0  0  0  0  0  0  0  0
   59.0440   33.1550   50.6560 O   0  0  0  0  0  0  0  0  0  0  0  0
   59.4990   33.3910   48.3550 C   0  0  0  0  0  0  0  0  0  0  0  0
   58.6180   33.8130   47.3760 C   0  0  0  0  0  0  0  0  0  0  0  0
   57.5257   33.6846   47.3939 H   0  0  0  0  0  0  0  0  0  0  0  0
   59.3260   34.4080   46.3970 N   0  0  0  0  0  0  0  0  0  0  0  0
   58.7830   34.9590   45.1560 C   0  0  0  0  0  0  0  0  0  0  0  0
   59.4431   34.6818   44.3209 H   0  0  0  0  0  0  0  0  0  0  0  0
   58.7241   36.0528   45.2562 H   0  0  0  0  0  0  0  0  0  0  0  0
   57.3740   34.4190   44.8810 C   0  0  0  0  0  0  0  0  0  0  0  0
   56.9315   34.9886   44.0505 H   0  0  0  0  0  0  0  0  0  0  0  0
   56.7821   34.5313   45.8014 H   0  0  0  0  0  0  0  0  0  0  0  0
   57.3900   32.9290   44.5070 C   0  0  0  0  0  0  0  0  0  0  0  0
   56.3525   32.5915   44.3669 H   0  0  0  0  0  0  0  0  0  0  0  0
   57.8900   32.3895   45.3249 H   0  0  0  0  0  0  0  0  0  0  0  0
   58.1780   32.6420   43.2160 C   0  0  0  0  0  0  0  0  0  0  0  0
   59.1107   32.1283   43.4921 H   0  0  0  0  0  0  0  0  0  0  0  0
   58.3439   33.6162   42.7329 H   0  0  0  0  0  0  0  0  0  0  0  0
   57.4390   31.7700   42.1860 C   0  0  0  0  0  0  0  0  0  0  0  0
   56.4084   31.6117   42.5365 H   0  0  0  0  0  0  0  0  0  0  0  0
   57.9942   30.8245   42.0984 H   0  0  0  0  0  0  0  0  0  0  0  0
   57.3880   32.3990   40.7940 C   0  0  0  0  0  0  0  0  0  0  0  0
   57.2994   33.4914   40.8883 H   0  0  0  0  0  0  0  0  0  0  0  0
   58.3091   32.1517   40.2459 H   0  0  0  0  0  0  0  0  0  0  0  0
   56.5187   32.0066   40.2459 H   0  0  0  0  0  0  0  0  0  0  0  0
   60.6150   34.3660   46.6980 N   0  0  0  0  0  0  0  0  0  0  0  0
   61.3770   34.7600   46.1000 H   0  0  0  0  0  0  0  0  0  0  0  0
   60.7600   33.7500   47.8880 C   0  0  0  0  0  0  0  0  0  0  0  0
   62.0660   33.5430   48.5540 C   0  0  0  0  0  0  0  0  0  0  0  0
   63.0100   32.6420   48.0310 C   0  0  0  0  0  0  0  0  0  0  0  0
   62.7865   32.0931   47.1043 H   0  0  0  0  0  0  0  0  0  0  0  0
   64.2310   32.4390   48.6810 C   0  0  0  0  0  0  0  0  0  0  0  0
   64.9657   31.7355   48.2622 H   0  0  0  0  0  0  0  0  0  0  0  0
   64.5200   33.1290   49.8630 C   0  0  0  0  0  0  0  0  0  0  0  0
   66.0510   32.8710   50.6780 Cl  0  0  0  0  0  0  0  0  0  0  0  0
   63.5820   34.0180   50.3970 C   0  0  0  0  0  0  0  0  0  0  0  0
   63.8060   34.5574   51.3291 H   0  0  0  0  0  0  0  0  0  0  0  0
   62.3600   34.2230   49.7490 C   0  0  0  0  0  0  0  0  0  0  0  0
   61.6245   34.9203   50.1766 H   0  0  0  0  0  0  0  0  0  0  0  0
   57.7120   29.8530   44.9030 C   0  0  0  0  0  0  0  0  0  0  0  0
   58.1071   30.8235   44.5684 H   0  0  0  0  0  0  0  0  0  0  0  0
  1  2  1  0
  2  3  1  0
  3  4  1  0
  4  5  2  0
  5  6  1  0
  5  7  1  0
  7  8  1  0
  7  9  2  0
  9 10  1  0
  9 11  1  0
 11 12  1  0
 11 13  2  0
 13 14  1  0
 14 15  2  0
 15 16  1  0
 16 17  1  0
 16 18  1  0
 16 19  1  0
 19 20  1  0
 19 21  1  0
 19 22  1  0
 22 23  1  0
 22 24  1  0
 22 25  1  0
 25 26  1  0
 26 27  2  0
 26 28  1  0
 28 29  2  0
 29 30  1  0
 29 31  1  0
 31 32  1  0
 32 33  1  0
 32 34  1  0
 32 35  1  0
 35 36  1  0
 35 37  1  0
 35 38  1  0
 38 39  1  0
 38 40  1  0
 38 41  1  0
 41 42  1  0
 41 43  1  0
 41 44  1  0
 44 45  1  0
 44 46  1  0
 44 47  1  0
 47 48  1  0
 47 49  1  0
 47 50  1  0
 31 51  1  0
 51 52  1  0
 51 53  2  0
 53 54  1  0
 54 55  2  0
 55 56  1  0
 55 57  1  0
 57 58  1  0
 57 59  2  0
 59 60  1  0
 59 61  1  0
 61 62  1  0
 61 63  2  0
 63 64  1  0
 14 65  1  0
 65 66  1  0
 65  2  2  0
 13  4  1  0
 53 28  1  0
 63 54  1  0
M  CHG  3   3  -1  25  -1  51   1
M  END
>  <UniqueID>  (15) 
13

>  <SMILES>  (15) 
CCCCCCn1cc(C(=O)[N-]CCC/N=c2\cc[n-]c3cc(Cl)ccc23)c(-c2ccc(Cl)cc2)[nH+]1

>  <Energy>  (15) 
102.0819493031434

>  <Genealogy>  (15) 
CCCCCCn1cc(C(=O)[N-]CCCN=c2cc[n-]c3cc(Cl)ccc23)c(-c2ccc(Cl)cc2)[nH+]1 (protonated)
CCCCCCn1cc(C(=O)[N-]CCC/N=c2\cc[n-]c3cc(Cl)ccc23)c(-c2ccc(Cl)cc2)[nH+]1 (cis-trans isomerization)
CCCCCCn1cc(C(=O)[N-]CCC/N=c2\cc[n-]c3cc(Cl)ccc23)c(-c2ccc(Cl)cc2)[nH+]1 (3D coordinates assigned)
CCCCCCn1cc(C(=O)[N-]CCC/N=c2\cc[n-]c3cc(Cl)ccc23)c(-c2ccc(Cl)cc2)[nH+]1 (optimized conformer: 102.0819493031434 kcal/mol)

>  <smiles>  (15) 
CCCCCCn1cc(C(=O)NCCCN=c2cc[nH]c3cc(Cl)ccc23)c(-c2ccc(Cl)cc2)n1

>  <score_type>  (15) 
oracle

>  <origin>  (15) 
adg

>  <m_score__min__energy>  (15) 
-11.23

>  <m_primary>  (15) 
energy

$$$$
15:0
     RDKit          3D

 44 46  0  0  0  0  0  0  0  0999 V2000
   58.0700   32.3470   41.1190 C   0  0  0  0  0  0  0  0  0  0  0  0
   57.4010   32.1390   42.4820 C   0  0  0  0  0  0  0  0  0  0  0  0
   58.3670   31.7330   43.6280 C   0  0  1  0  0  0  0  0  0  0  0  0
   58.4780   32.7250   44.7840 C   0  0  0  0  0  0  0  0  0  0  0  0
   59.1190   33.9560   44.5460 C   0  0  0  0  0  0  0  0  0  0  0  0
   59.2650   34.8950   45.5710 C   0  0  0  0  0  0  0  0  0  0  0  0
   58.7840   34.6150   46.8500 C   0  0  0  0  0  0  0  0  0  0  0  0
   58.1600   33.3930   47.1080 C   0  0  0  0  0  0  0  0  0  0  0  0
   58.0060   32.4510   46.0860 C   0  0  0  0  0  0  0  0  0  0  0  0
   58.0930   30.3570   44.1110 N   0  0  0  0  0  0  0  0  0  0  0  0
   59.0910   29.4610   44.1830 N   0  0  0  0  0  0  0  0  0  0  0  0
   58.9030   28.2050   44.6650 C   0  0  0  0  0  0  0  0  0  0  0  0
   57.6440   27.8110   45.1210 C   0  0  0  0  0  0  0  0  0  0  0  0
   57.4290   26.4820   45.6430 N   0  0  0  0  0  0  0  0  0  0  0  0
   57.6880   26.1940   47.0600 C   0  0  0  0  0  0  0  0  0  0  0  0
   57.0780   24.8450   47.4470 C   0  0  0  0  0  0  0  0  0  0  0  0
   55.8410   24.6790   46.7850 O   0  0  0  0  0  0  0  0  0  0  0  0
   56.0470   24.4340   45.4020 C   0  0  0  0  0  0  0  0  0  0  0  0
   57.0960   25.3660   44.7500 C   0  0  0  0  0  0  0  0  0  0  0  0
   56.5990   28.7330   45.0450 C   0  0  0  0  0  0  0  0  0  0  0  0
   56.8370   30.0130   44.5460 C   0  0  0  0  0  0  0  0  0  0  0  0
   55.8880   30.8430   44.5130 O   0  0  0  0  0  0  0  0  0  0  0  0
   59.1109   32.6706   41.2670 H   0  0  0  0  0  0  0  0  0  0  0  0
   58.0563   31.4022   40.5558 H   0  0  0  0  0  0  0  0  0  0  0  0
   57.5230   33.1175   40.5558 H   0  0  0  0  0  0  0  0  0  0  0  0
   56.9076   33.0797   42.7678 H   0  0  0  0  0  0  0  0  0  0  0  0
   56.6998   31.3007   42.3573 H   0  0  0  0  0  0  0  0  0  0  0  0
   59.3626   31.7552   43.1609 H   0  0  0  0  0  0  0  0  0  0  0  0
   59.5091   34.1811   43.5424 H   0  0  0  0  0  0  0  0  0  0  0  0
   59.7600   35.8563   45.3687 H   0  0  0  0  0  0  0  0  0  0  0  0
   58.8962   35.3564   47.6548 H   0  0  0  0  0  0  0  0  0  0  0  0
   57.7881   33.1704   48.1190 H   0  0  0  0  0  0  0  0  0  0  0  0
   57.5139   31.4903   46.2979 H   0  0  0  0  0  0  0  0  0  0  0  0
   60.0560   29.7130   43.8750 H   0  0  0  0  0  0  0  0  0  0  0  0
   59.7444   27.4972   44.6960 H   0  0  0  0  0  0  0  0  0  0  0  0
   58.7741   26.1640   47.2317 H   0  0  0  0  0  0  0  0  0  0  0  0
   57.2313   26.9833   47.6752 H   0  0  0  0  0  0  0  0  0  0  0  0
   57.7624   24.0355   47.1532 H   0  0  0  0  0  0  0  0  0  0  0  0
   56.9182   24.8140   48.5349 H   0  0  0  0  0  0  0  0  0  0  0  0
   56.3847   23.3941   45.2809 H   0  0  0  0  0  0  0  0  0  0  0  0
   55.0893   24.6283   44.8970 H   0  0  0  0  0  0  0  0  0  0  0  0
   58.0084   24.7893   44.5380 H   0  0  0  0  0  0  0  0  0  0  0  0
   56.6751   25.7733   43.8189 H   0  0  0  0  0  0  0  0  0  0  0  0
   55.5895   28.4504   45.3782 H   0  0  0  0  0  0  0  0  0  0  0  0
  1  2  1  0
  2  3  1  0
  3  4  1  0
  4  5  2  0
  5  6  1  0
  6  7  2  0
  7  8  1  0
  8  9  2  0
  3 10  1  0
 10 11  1  0
 11 12  2  0
 12 13  1  0
 13 14  1  0
 14 15  1  0
 15 16  1  0
 16 17  1  0
 17 18  1  0
 18 19  1  0
 13 20  2  0
 20 21  1  0
 21 22  2  0
  9  4  1  0
 21 10  1  0
 19 14  1  0
  1 23  1  0
  1 24  1  0
  1 25  1  0
  2 26  1  0
  2 27  1  0
  3 28  1  6
  5 29  1  0
  6 30  1  0
  7 31  1  0
  8 32  1  0
  9 33  1  0
 11 34  1  0
 12 35  1  0
 15 36  1  0
 15 37  1  0
 16 38  1  0
 16 39  1  0
 18 40  1  0
 18 41  1  0
 19 42  1  0
 19 43  1  0
 20 44  1  0
M  CHG  1  11   1
M  END
>  <UniqueID>  (16) 
14

>  <SMILES>  (16) 
CC[C@@H](c1ccccc1)n1[nH+]cc(N2CCOCC2)cc1=O

>  <Energy>  (16) 
61.916933886106555

>  <Genealogy>  (16) 
CCC(c1ccccc1)n1[nH+]cc(N2CCOCC2)cc1=O (protonated)
CC[C@@H](c1ccccc1)n1[nH+]cc(N2CCOCC2)cc1=O (chirality)
CC[C@@H](c1ccccc1)n1[nH+]cc(N2CCOCC2)cc1=O (3D coordinates assigned)
CC[C@@H](c1ccccc1)n1[nH+]cc(N2CCOCC2)cc1=O (nonaromatic ring conformer: 61.916933886106555 kcal/mol)

>  <smiles>  (16) 
CCC(c1ccccc1)n1ncc(N2CCOCC2)cc1=O

>  <score_type>  (16) 
oracle

>  <origin>  (16) 
adg

>  <m_score__min__energy>  (16) 
-6.6399999999999997

>  <m_primary>  (16) 
energy

$$$$
16:0
     RDKit          3D

 37 39  0  0  0  0  0  0  0  0999 V2000
   58.9110   27.6650   45.4970 C   0  0  0  0  0  0  0  0  0  0  0  0
   58.4710   29.0960   45.6280 C   0  0  0  0  0  0  0  0  0  0  0  0
   57.1870   29.5880   45.4620 C   0  0  0  0  0  0  0  0  0  0  0  0
   56.0030   28.8350   45.1640 N   0  0  0  0  0  0  0  0  0  0  0  0
   55.0930   29.3150   44.4580 O   0  0  0  0  0  0  0  0  0  0  0  0
   55.8890   27.5420   45.6180 O   0  0  0  0  0  0  0  0  0  0  0  0
   57.1830   30.9270   45.6070 N   0  0  0  0  0  0  0  0  0  0  0  0
   58.4670   31.2410   45.8870 C   0  0  0  0  0  0  0  0  0  0  0  0
   58.9030   32.6430   46.0680 C   0  0  0  0  0  0  0  0  0  0  0  0
   58.9190   33.5080   44.9600 C   0  0  0  0  0  0  0  0  0  0  0  0
   59.2980   34.8450   45.1130 C   0  0  0  0  0  0  0  0  0  0  0  0
   59.6460   35.3340   46.3740 C   0  0  0  0  0  0  0  0  0  0  0  0
   59.6100   34.4900   47.4850 C   0  0  0  0  0  0  0  0  0  0  0  0
   59.2340   33.1510   47.3360 C   0  0  0  0  0  0  0  0  0  0  0  0
   59.2730   30.1460   45.9190 N   0  0  0  0  0  0  0  0  0  0  0  0
   60.6840   30.1180   46.0390 N   0  0  0  0  0  0  0  0  0  0  0  0
   61.1010   30.5910   47.3400 C   0  0  0  0  0  0  0  0  0  0  0  0
   60.5550   30.0090   48.4990 C   0  0  0  0  0  0  0  0  0  0  0  0
   60.9730   30.4220   49.7670 C   0  0  0  0  0  0  0  0  0  0  0  0
   61.9520   31.4100   49.8940 C   0  0  0  0  0  0  0  0  0  0  0  0
   62.5180   31.9830   48.7540 C   0  0  0  0  0  0  0  0  0  0  0  0
   62.1040   31.5730   47.4830 C   0  0  0  0  0  0  0  0  0  0  0  0
   59.0449   27.2295   46.4982 H   0  0  0  0  0  0  0  0  0  0  0  0
   58.1466   27.0951   44.9485 H   0  0  0  0  0  0  0  0  0  0  0  0
   59.8635   27.6230   44.9485 H   0  0  0  0  0  0  0  0  0  0  0  0
   58.6318   33.1309   43.9674 H   0  0  0  0  0  0  0  0  0  0  0  0
   59.3221   35.5126   44.2391 H   0  0  0  0  0  0  0  0  0  0  0  0
   59.9487   36.3850   46.4917 H   0  0  0  0  0  0  0  0  0  0  0  0
   59.8776   34.8782   48.4788 H   0  0  0  0  0  0  0  0  0  0  0  0
   59.1972   32.4920   48.2160 H   0  0  0  0  0  0  0  0  0  0  0  0
   61.1320   30.7080   45.3040 H   0  0  0  0  0  0  0  0  0  0  0  0
   61.0010   29.1320   45.8820 H   0  0  0  0  0  0  0  0  0  0  0  0
   59.7923   29.2218   48.4061 H   0  0  0  0  0  0  0  0  0  0  0  0
   60.5304   29.9684   50.6661 H   0  0  0  0  0  0  0  0  0  0  0  0
   62.2771   31.7367   50.8928 H   0  0  0  0  0  0  0  0  0  0  0  0
   63.2913   32.7587   48.8557 H   0  0  0  0  0  0  0  0  0  0  0  0
   62.5633   32.0190   46.5885 H   0  0  0  0  0  0  0  0  0  0  0  0
  1  2  1  0
  2  3  2  0
  3  4  1  0
  4  5  2  0
  4  6  1  0
  3  7  1  0
  7  8  2  0
  8  9  1  0
  9 10  2  0
 10 11  1  0
 11 12  2  0
 12 13  1  0
 13 14  2  0
  8 15  1  0
 15 16  1  0
 16 17  1  0
 17 18  2  0
 18 19  1  0
 19 20  2  0
 20 21  1  0
 21 22  2  0
 15  2  1  0
 22 17  1  0
 14  9  1  0
  1 23  1  0
  1 24  1  0
  1 25  1  0
 10 26  1  0
 11 27  1  0
 12 28  1  0
 13 29  1  0
 14 30  1  0
 16 31  1  0
 16 32  1  0
 18 33  1  0
 19 34  1  0
 20 35  1  0
 21 36  1  0
 22 37  1  0
M  CHG  3   4   1   6  -1  16   1
M  END
>  <UniqueID>  (17) 
15

>  <SMILES>  (17) 
Cc1c([N+](=O)[O-])nc(-c2ccccc2)n1[NH2+]c1ccccc1

>  <Energy>  (17) 
80.75659104569863

>  <Genealogy>  (17) 
Cc1c([N+](=O)[O-])nc(-c2ccccc2)n1[NH2+]c1ccccc1 (protonated)
Cc1c([N+](=O)[O-])nc(-c2ccccc2)n1[NH2+]c1ccccc1 (3D coordinates assigned)
Cc1c([N+](=O)[O-])nc(-c2ccccc2)n1[NH2+]c1ccccc1 (optimized conformer: 80.75659104569863 kcal/mol)

>  <smiles>  (17) 
Cc1c([N+](=O)[O-])nc(-c2ccccc2)n1Nc1ccccc1

>  <score_type>  (17) 
oracle

>  <origin>  (17) 
adg

>  <m_score__min__energy>  (17) 
-6.75

>  <m_primary>  (17) 
energy

$$$$
17:0
     RDKit          3D

 56 58  0  0  0  0  0  0  0  0999 V2000
   64.2830   31.5920   50.6280 C   0  0  0  0  0  0  0  0  0  0  0  0
   63.4970   32.8090   51.0900 C   0  0  0  0  0  0  0  0  0  0  0  0
   62.3150   32.9310   50.3060 O   0  0  0  0  0  0  0  0  0  0  0  0
   61.0130   32.6730   50.7640 C   0  0  0  0  0  0  0  0  0  0  0  0
   60.3700   33.5390   51.6730 C   0  0  0  0  0  0  0  0  0  0  0  0
   59.0910   33.2460   52.1460 C   0  0  0  0  0  0  0  0  0  0  0  0
   58.4380   32.0890   51.7250 C   0  0  0  0  0  0  0  0  0  0  0  0
   59.0570   31.2240   50.8200 C   0  0  0  0  0  0  0  0  0  0  0  0
   60.3410   31.5080   50.3200 C   0  0  0  0  0  0  0  0  0  0  0  0
   60.9640   30.5750   49.3510 C   0  0  0  0  0  0  0  0  0  0  0  0
   61.5220   29.5230   49.7670 O   0  0  0  0  0  0  0  0  0  0  0  0
   60.9250   30.8580   47.9420 N   0  0  0  0  0  0  0  0  0  0  0  0
   59.7800   31.3520   47.1730 C   0  0  1  0  0  0  0  0  0  0  0  0
   58.5690   30.3910   47.2680 C   0  0  0  0  0  0  0  0  0  0  0  0
   57.8920   30.0920   45.9570 C   0  0  0  0  0  0  0  0  0  0  0  0
   57.2920   28.8870   45.5960 C   0  0  0  0  0  0  0  0  0  0  0  0
   56.8320   28.9450   44.3270 N   0  0  0  0  0  0  0  0  0  0  0  0
   57.1560   30.1670   43.8740 C   0  0  0  0  0  0  0  0  0  0  0  0
   56.9230   30.6780   42.5980 C   0  0  0  0  0  0  0  0  0  0  0  0
   57.3900   31.9740   42.3130 C   0  0  0  0  0  0  0  0  0  0  0  0
   58.0780   32.7180   43.2950 C   0  0  0  0  0  0  0  0  0  0  0  0
   58.3000   32.1780   44.5730 C   0  0  0  0  0  0  0  0  0  0  0  0
   57.8120   30.8950   44.8330 C   0  0  0  0  0  0  0  0  0  0  0  0
   59.4720   32.8010   47.5050 C   0  0  0  0  0  0  0  0  0  0  0  0
   58.4800   33.0720   48.2330 O   0  0  0  0  0  0  0  0  0  0  0  0
   60.3420   33.8720   47.0680 N   0  0  0  0  0  0  0  0  0  0  0  0
   60.0470   34.6310   45.8480 C   0  0  0  0  0  0  0  0  0  0  0  0
   61.5480   34.1900   47.8480 C   0  0  0  0  0  0  0  0  0  0  0  0
   62.7540   33.5700   47.2060 C   0  0  0  0  0  0  0  0  0  0  0  0
   63.2670   32.3230   47.6720 N   0  0  0  0  0  0  0  0  0  0  0  0
   63.3070   34.1460   46.2320 O   0  0  0  0  0  0  0  0  0  0  0  0
   64.6435   31.0339   51.5047 H   0  0  0  0  0  0  0  0  0  0  0  0
   63.6326   30.9436   50.0226 H   0  0  0  0  0  0  0  0  0  0  0  0
   65.1415   31.9182   50.0226 H   0  0  0  0  0  0  0  0  0  0  0  0
   63.2248   32.6903   52.1492 H   0  0  0  0  0  0  0  0  0  0  0  0
   64.1130   33.7125   50.9710 H   0  0  0  0  0  0  0  0  0  0  0  0
   60.8811   34.4524   52.0114 H   0  0  0  0  0  0  0  0  0  0  0  0
   58.5969   33.9292   52.8525 H   0  0  0  0  0  0  0  0  0  0  0  0
   57.4328   31.8566   52.1064 H   0  0  0  0  0  0  0  0  0  0  0  0
   58.5355   30.3117   50.4949 H   0  0  0  0  0  0  0  0  0  0  0  0
   60.0492   31.3562   46.1065 H   0  0  0  0  0  0  0  0  0  0  0  0
   58.9201   29.4403   47.6958 H   0  0  0  0  0  0  0  0  0  0  0  0
   57.8200   30.8997   47.8927 H   0  0  0  0  0  0  0  0  0  0  0  0
   57.2049   28.0096   46.2537 H   0  0  0  0  0  0  0  0  0  0  0  0
   56.3470   28.1830   43.8040 H   0  0  0  0  0  0  0  0  0  0  0  0
   56.3909   30.0866   41.8383 H   0  0  0  0  0  0  0  0  0  0  0  0
   57.2177   32.4103   41.3180 H   0  0  0  0  0  0  0  0  0  0  0  0
   58.4432   33.7282   43.0582 H   0  0  0  0  0  0  0  0  0  0  0  0
   58.8405   32.7470   45.3438 H   0  0  0  0  0  0  0  0  0  0  0  0
   59.6608   35.6247   46.1188 H   0  0  0  0  0  0  0  0  0  0  0  0
   60.9666   34.7441   45.2551 H   0  0  0  0  0  0  0  0  0  0  0  0
   59.2924   34.0934   45.2551 H   0  0  0  0  0  0  0  0  0  0  0  0
   61.6779   35.2815   47.8887 H   0  0  0  0  0  0  0  0  0  0  0  0
   61.4352   33.7889   48.8660 H   0  0  0  0  0  0  0  0  0  0  0  0
   64.0980   31.8950   47.2110 H   0  0  0  0  0  0  0  0  0  0  0  0
   62.8170   31.8270   48.4740 H   0  0  0  0  0  0  0  0  0  0  0  0
  1  2  1  0
  2  3  1  0
  3  4  1  0
  4  5  2  0
  5  6  1  0
  6  7  2  0
  7  8  1  0
  8  9  2  0
  9 10  1  0
 10 11  2  0
 10 12  1  0
 12 13  1  0
 13 14  1  0
 14 15  1  0
 15 16  2  0
 16 17  1  0
 17 18  1  0
 18 19  2  0
 19 20  1  0
 20 21  2  0
 21 22  1  0
 22 23  2  0
 13 24  1  0
 24 25  2  0
 24 26  1  0
 26 27  1  0
 26 28  1  0
 28 29  1  0
 29 30  1  0
 29 31  2  0
  9  4  1  0
 23 15  1  0
 23 18  1  0
  1 32  1  0
  1 33  1  0
  1 34  1  0
  2 35  1  0
  2 36  1  0
  5 37  1  0
  6 38  1  0
  7 39  1  0
  8 40  1  0
 13 41  1  6
 14 42  1  0
 14 43  1  0
 16 44  1  0
 17 45  1  0
 19 46  1  0
 20 47  1  0
 21 48  1  0
 22 49  1  0
 27 50  1  0
 27 51  1  0
 27 52  1  0
 28 53  1  0
 28 54  1  0
 30 55  1  0
 30 56  1  0
M  CHG  1  12  -1
M  END
>  <UniqueID>  (18) 
16

>  <SMILES>  (18) 
CCOc1ccccc1C(=O)[N-][C@@H](Cc1c[nH]c2ccccc12)C(=O)N(C)CC(N)=O

>  <Energy>  (18) 
85.0315781273495

>  <Genealogy>  (18) 
CCOc1ccccc1C(=O)[N-]C(Cc1c[nH]c2ccccc12)C(=O)N(C)CC(N)=O (protonated)
CCOc1ccccc1C(=O)[N-][C@@H](Cc1c[nH]c2ccccc12)C(=O)N(C)CC(N)=O (chirality)
CCOc1ccccc1C(=O)[N-][C@@H](Cc1c[nH]c2ccccc12)C(=O)N(C)CC(N)=O (3D coordinates assigned)
CCOc1ccccc1C(=O)[N-][C@@H](Cc1c[nH]c2ccccc12)C(=O)N(C)CC(N)=O (optimized conformer: 85.0315781273495 kcal/mol)

>  <smiles>  (18) 
CCOc1ccccc1C(=O)NC(Cc1c[nH]c2ccccc12)C(=O)N(C)CC(N)=O

>  <score_type>  (18) 
oracle

>  <origin>  (18) 
adg

>  <m_score__min__energy>  (18) 
-9.8300000000000001

>  <m_primary>  (18) 
energy

$$$$
18:0
     RDKit          3D

 51 54  0  0  0  0  0  0  0  0999 V2000
   63.7620   32.0070   48.9390 C   0  0  0  0  0  0  0  0  0  0  0  0
   62.6190   32.8220   48.4230 C   0  0  0  0  0  0  0  0  0  0  0  0
   62.4580   34.1070   48.6630 O   0  0  0  0  0  0  0  0  0  0  0  0
   61.3760   34.5600   48.0970 N   0  0  0  0  0  0  0  0  0  0  0  0
   60.8050   33.5190   47.4490 C   0  0  0  0  0  0  0  0  0  0  0  0
   59.5390   33.6070   46.7120 C   0  0  0  0  0  0  0  0  0  0  0  0
   59.5390   34.0510   45.3780 C   0  0  0  0  0  0  0  0  0  0  0  0
   58.3280   34.2050   44.6930 C   0  0  0  0  0  0  0  0  0  0  0  0
   57.1170   33.9060   45.3320 C   0  0  0  0  0  0  0  0  0  0  0  0
   57.1130   33.4640   46.6640 C   0  0  0  0  0  0  0  0  0  0  0  0
   58.3210   33.3220   47.3560 C   0  0  0  0  0  0  0  0  0  0  0  0
   61.5680   32.3780   47.6410 C   0  0  0  0  0  0  0  0  0  0  0  0
   61.3440   31.0000   47.0780 C   0  0  0  0  0  0  0  0  0  0  0  0
   60.1590   30.9570   46.2810 O   0  0  0  0  0  0  0  0  0  0  0  0
   59.2330   29.9000   46.2610 C   0  0  0  0  0  0  0  0  0  0  0  0
   58.1660   29.8430   45.3460 C   0  0  0  0  0  0  0  0  0  0  0  0
   57.2980   28.7480   45.3410 C   0  0  0  0  0  0  0  0  0  0  0  0
   57.4790   27.6890   46.2430 C   0  0  0  0  0  0  0  0  0  0  0  0
   56.5640   26.5260   46.2100 C   0  0  0  0  0  0  0  0  0  0  0  0
   55.3340   26.7130   45.9920 O   0  0  0  0  0  0  0  0  0  0  0  0
   57.0630   25.1880   46.3940 N   0  0  0  0  0  0  0  0  0  0  0  0
   56.1880   24.0180   46.3750 C   0  0  0  0  0  0  0  0  0  0  0  0
   56.3120   23.3000   45.0580 C   0  0  0  0  0  0  0  0  0  0  0  0
   56.5390   24.0230   43.8780 C   0  0  0  0  0  0  0  0  0  0  0  0
   56.6460   23.3530   42.6580 C   0  0  0  0  0  0  0  0  0  0  0  0
   56.5230   21.9630   42.6290 C   0  0  0  0  0  0  0  0  0  0  0  0
   56.2900   21.2740   43.7800 N   0  0  0  0  0  0  0  0  0  0  0  0
   56.1770   21.9060   44.9800 C   0  0  0  0  0  0  0  0  0  0  0  0
   58.5230   27.7650   47.1800 C   0  0  0  0  0  0  0  0  0  0  0  0
   59.3920   28.8610   47.1860 C   0  0  0  0  0  0  0  0  0  0  0  0
   63.7509   32.0149   50.0389 H   0  0  0  0  0  0  0  0  0  0  0  0
   63.6665   30.9720   48.5788 H   0  0  0  0  0  0  0  0  0  0  0  0
   64.7093   32.4346   48.5788 H   0  0  0  0  0  0  0  0  0  0  0  0
   60.4897   34.2771   44.8731 H   0  0  0  0  0  0  0  0  0  0  0  0
   58.3268   34.5610   43.6522 H   0  0  0  0  0  0  0  0  0  0  0  0
   56.1674   34.0180   44.7882 H   0  0  0  0  0  0  0  0  0  0  0  0
   56.1614   33.2295   47.1635 H   0  0  0  0  0  0  0  0  0  0  0  0
   58.3183   32.9874   48.4039 H   0  0  0  0  0  0  0  0  0  0  0  0
   62.2066   30.7219   46.4547 H   0  0  0  0  0  0  0  0  0  0  0  0
   61.2285   30.2951   47.9145 H   0  0  0  0  0  0  0  0  0  0  0  0
   58.0142   30.6648   44.6307 H   0  0  0  0  0  0  0  0  0  0  0  0
   56.4651   28.7161   44.6232 H   0  0  0  0  0  0  0  0  0  0  0  0
   58.0960   25.0230   46.4720 H   0  0  0  0  0  0  0  0  0  0  0  0
   56.4746   23.3363   47.1893 H   0  0  0  0  0  0  0  0  0  0  0  0
   55.1465   24.3454   46.5096 H   0  0  0  0  0  0  0  0  0  0  0  0
   56.6328   25.1184   43.9138 H   0  0  0  0  0  0  0  0  0  0  0  0
   56.8254   23.9146   41.7293 H   0  0  0  0  0  0  0  0  0  0  0  0
   56.6144   21.4234   41.6748 H   0  0  0  0  0  0  0  0  0  0  0  0
   55.9793   21.3221   45.8911 H   0  0  0  0  0  0  0  0  0  0  0  0
   58.6580   26.9569   47.9141 H   0  0  0  0  0  0  0  0  0  0  0  0
   60.2069   28.9070   47.9234 H   0  0  0  0  0  0  0  0  0  0  0  0
  1  2  1  0
  2  3  1  0
  3  4  1  0
  4  5  2  0
  5  6  1  0
  6  7  2  0
  7  8  1  0
  8  9  2  0
  9 10  1  0
 10 11  2  0
  5 12  1  0
 12 13  1  0
 13 14  1  0
 14 15  1  0
 15 16  2  0
 16 17  1  0
 17 18  2  0
 18 19  1  0
 19 20  2  0
 19 21  1  0
 21 22  1  0
 22 23  1  0
 23 24  2  0
 24 25  1  0
 25 26  2  0
 26 27  1  0
 27 28  2  0
 18 29  1  0
 29 30  2  0
 12  2  2  0
 30 15  1  0
 11  6  1  0
 28 23  1  0
  1 31  1  0
  1 32  1  0
  1 33  1  0
  7 34  1  0
  8 35  1  0
  9 36  1  0
 10 37  1  0
 11 38  1  0
 13 39  1  0
 13 40  1  0
 16 41  1  0
 17 42  1  0
 21 43  1  0
 22 44  1  0
 22 45  1  0
 24 46  1  0
 25 47  1  0
 26 48  1  0
 28 49  1  0
 29 50  1  0
 30 51  1  0
M  END
>  <UniqueID>  (19) 
17

>  <SMILES>  (19) 
Cc1onc(-c2ccccc2)c1COc1ccc(C(=O)NCc2cccnc2)cc1

>  <Energy>  (19) 
90.9334692527079

>  <Genealogy>  (19) 
Cc1onc(-c2ccccc2)c1COc1ccc(C(=O)NCc2cccnc2)cc1 (3D coordinates assigned)
Cc1onc(-c2ccccc2)c1COc1ccc(C(=O)NCc2cccnc2)cc1 (optimized conformer: 90.9334692527079 kcal/mol)

>  <smiles>  (19) 
Cc1onc(-c2ccccc2)c1COc1ccc(C(=O)NCc2cccnc2)cc1

>  <score_type>  (19) 
oracle

>  <origin>  (19) 
adg

>  <m_score__min__energy>  (19) 
-9.4399999999999995

>  <m_primary>  (19) 
energy

$$$$
19:0
     RDKit          3D

 43 44  0  0  0  0  0  0  0  0999 V2000
   59.2760   34.9420   45.2170 C   0  0  0  0  0  0  0  0  0  0  0  0
   58.6120   33.5610   45.3360 C   0  0  0  0  0  0  0  0  0  0  0  0
   57.7790   33.4950   46.6230 C   0  0  0  0  0  0  0  0  0  0  0  0
   57.7150   33.2380   44.1160 C   0  0  0  0  0  0  0  0  0  0  0  0
   58.1880   32.0540   43.2390 C   0  0  0  0  0  0  0  0  0  0  0  0
   57.9230   30.7150   43.8250 N   0  0  1  0  0  0  0  0  0  0  0  0
   58.8160   30.4410   44.9850 C   0  0  0  0  0  0  0  0  0  0  0  0
   58.2770   29.3480   45.9360 C   0  0  0  0  0  0  0  0  0  0  0  0
   57.3200   28.3980   45.2120 C   0  0  1  0  0  0  0  0  0  0  0  0
   56.8610   27.3710   46.1460 N   0  0  0  0  0  0  0  0  0  0  0  0
   56.0420   26.2380   45.8220 C   0  0  0  0  0  0  0  0  0  0  0  0
   54.7980   26.3250   45.9860 O   0  0  0  0  0  0  0  0  0  0  0  0
   56.5990   24.9880   45.2770 C   0  0  0  0  0  0  0  0  0  0  0  0
   56.0130   24.1580   44.3280 C   0  0  0  0  0  0  0  0  0  0  0  0
   56.8230   23.0740   43.9690 C   0  0  0  0  0  0  0  0  0  0  0  0
   58.0520   23.0560   44.6140 C   0  0  0  0  0  0  0  0  0  0  0  0
   58.1320   24.3930   45.6290 S   0  0  0  0  0  0  0  0  0  0  0  0
   56.1230   29.1840   44.6330 C   0  0  0  0  0  0  0  0  0  0  0  0
   56.5000   30.6210   44.2190 C   0  0  0  0  0  0  0  0  0  0  0  0
   59.4692   35.3438   46.2226 H   0  0  0  0  0  0  0  0  0  0  0  0
   60.2265   34.8461   44.6716 H   0  0  0  0  0  0  0  0  0  0  0  0
   58.6076   35.6245   44.6716 H   0  0  0  0  0  0  0  0  0  0  0  0
   59.4142   32.8090   45.3670 H   0  0  0  0  0  0  0  0  0  0  0  0
   58.4471   33.5479   47.4953 H   0  0  0  0  0  0  0  0  0  0  0  0
   57.0755   34.3402   46.6482 H   0  0  0  0  0  0  0  0  0  0  0  0
   57.2173   32.5495   46.6482 H   0  0  0  0  0  0  0  0  0  0  0  0
   56.7071   33.0028   44.4887 H   0  0  0  0  0  0  0  0  0  0  0  0
   57.7511   34.1273   43.4695 H   0  0  0  0  0  0  0  0  0  0  0  0
   57.6705   32.1146   42.2702 H   0  0  0  0  0  0  0  0  0  0  0  0
   59.2802   32.1469   43.1469 H   0  0  0  0  0  0  0  0  0  0  0  0
   58.0880   29.9950   43.0840 H   0  0  0  0  0  0  0  0  0  0  0  0
   58.9371   31.3720   45.5583 H   0  0  0  0  0  0  0  0  0  0  0  0
   59.7696   30.0733   44.5783 H   0  0  0  0  0  0  0  0  0  0  0  0
   57.7417   29.8297   46.7675 H   0  0  0  0  0  0  0  0  0  0  0  0
   59.1304   28.7618   46.3076 H   0  0  0  0  0  0  0  0  0  0  0  0
   57.8458   27.9135   44.3761 H   0  0  0  0  0  0  0  0  0  0  0  0
   55.0142   24.3350   43.9024 H   0  0  0  0  0  0  0  0  0  0  0  0
   56.5141   22.3075   43.2430 H   0  0  0  0  0  0  0  0  0  0  0  0
   58.8379   22.2975   44.4833 H   0  0  0  0  0  0  0  0  0  0  0  0
   55.3321   29.2334   45.3959 H   0  0  0  0  0  0  0  0  0  0  0  0
   55.7838   28.6558   43.7297 H   0  0  0  0  0  0  0  0  0  0  0  0
   56.3185   31.2969   45.0676 H   0  0  0  0  0  0  0  0  0  0  0  0
   55.8825   30.9047   43.3540 H   0  0  0  0  0  0  0  0  0  0  0  0
  1  2  1  0
  2  3  1  0
  2  4  1  0
  4  5  1  0
  5  6  1  0
  6  7  1  0
  7  8  1  0
  8  9  1  0
  9 10  1  0
 10 11  1  0
 11 12  2  0
 11 13  1  0
 13 14  2  0
 14 15  1  0
 15 16  2  0
 16 17  1  0
  9 18  1  0
 18 19  1  0
 19  6  1  0
 17 13  1  0
  1 20  1  0
  1 21  1  0
  1 22  1  0
  2 23  1  0
  3 24  1  0
  3 25  1  0
  3 26  1  0
  4 27  1  0
  4 28  1  0
  5 29  1  0
  5 30  1  0
  6 31  1  6
  7 32  1  0
  7 33  1  0
  8 34  1  0
  8 35  1  0
  9 36  1  6
 14 37  1  0
 15 38  1  0
 16 39  1  0
 18 40  1  0
 18 41  1  0
 19 42  1  0
 19 43  1  0
M  CHG  2   6   1  10  -1
M  END
>  <UniqueID>  (20) 
18

>  <SMILES>  (20) 
CC(C)CC[NH+]1CCC([N-]C(=O)c2cccs2)CC1

>  <Energy>  (20) 
71.5333496104899

>  <Genealogy>  (20) 
CC(C)CC[NH+]1CCC([N-]C(=O)c2cccs2)CC1 (protonated)
CC(C)CC[NH+]1CCC([N-]C(=O)c2cccs2)CC1 (3D coordinates assigned)
CC(C)CC[NH+]1CCC([N-]C(=O)c2cccs2)CC1 (nonaromatic ring conformer: 71.5333496104899 kcal/mol)

>  <smiles>  (20) 
CC(C)CCN1CCC(NC(=O)c2cccs2)CC1

>  <score_type>  (20) 
oracle

>  <origin>  (20) 
adg

>  <m_score__min__energy>  (20) 
-7.4500000000000002

>  <m_primary>  (20) 
energy

$$$$
20:0
     RDKit          3D

 25 27  0  0  0  0  0  0  0  0999 V2000
   59.0760   32.5610   49.7540 C   0  0  0  0  0  0  0  0  0  0  0  0
   59.7230   32.9530   48.5030 N   0  0  0  0  0  0  0  0  0  0  0  0
   61.0490   33.1040   48.2630 C   0  0  0  0  0  0  0  0  0  0  0  0
   62.1280   32.8670   49.1170 C   0  0  0  0  0  0  0  0  0  0  0  0
   63.4240   33.1190   48.6250 C   0  0  0  0  0  0  0  0  0  0  0  0
   64.9390   32.8100   49.7440 Br  0  0  0  0  0  0  0  0  0  0  0  0
   63.6090   33.6020   47.3070 C   0  0  0  0  0  0  0  0  0  0  0  0
   62.5050   33.8420   46.4710 C   0  0  0  0  0  0  0  0  0  0  0  0
   61.2350   33.5800   46.9860 C   0  0  0  0  0  0  0  0  0  0  0  0
   60.0320   33.7510   46.4140 N   0  0  0  0  0  0  0  0  0  0  0  0
   59.6850   34.2190   45.1870 C   0  0  0  0  0  0  0  0  0  0  0  0
   58.3220   34.3180   44.8770 C   0  0  0  0  0  0  0  0  0  0  0  0
   57.3630   33.9420   45.8360 C   0  0  0  0  0  0  0  0  0  0  0  0
   57.7620   33.4670   47.0960 C   0  0  0  0  0  0  0  0  0  0  0  0
   59.1330   33.3770   47.3530 C   0  0  0  0  0  0  0  0  0  0  0  0
   59.6727   32.9225   50.6044 H   0  0  0  0  0  0  0  0  0  0  0  0
   58.0688   33.0009   49.7994 H   0  0  0  0  0  0  0  0  0  0  0  0
   58.9996   31.4646   49.7994 H   0  0  0  0  0  0  0  0  0  0  0  0
   61.9713   32.4957   50.1405 H   0  0  0  0  0  0  0  0  0  0  0  0
   64.6263   33.7912   46.9338 H   0  0  0  0  0  0  0  0  0  0  0  0
   62.6374   34.2227   45.4475 H   0  0  0  0  0  0  0  0  0  0  0  0
   60.4532   34.5124   44.4564 H   0  0  0  0  0  0  0  0  0  0  0  0
   58.0038   34.6871   43.8908 H   0  0  0  0  0  0  0  0  0  0  0  0
   56.2922   34.0208   45.5967 H   0  0  0  0  0  0  0  0  0  0  0  0
   57.0208   33.1757   47.8548 H   0  0  0  0  0  0  0  0  0  0  0  0
  1  2  1  0
  2  3  1  0
  3  4  2  0
  4  5  1  0
  5  6  1  0
  5  7  2  0
  7  8  1  0
  8  9  2  0
  9 10  1  0
 10 11  1  0
 11 12  2  0
 12 13  1  0
 13 14  2  0
 14 15  1  0
 15  2  2  0
  9  3  1  0
 15 10  1  0
  1 16  1  0
  1 17  1  0
  1 18  1  0
  4 19  1  0
  7 20  1  0
  8 21  1  0
 11 22  1  0
 12 23  1  0
 13 24  1  0
 14 25  1  0
M  CHG  1   2   1
M  END
>  <UniqueID>  (21) 
19

>  <SMILES>  (21) 
C[n+]1c2cc(Br)ccc2n2ccccc21

>  <Energy>  (21) 
73.49049723246523

>  <Genealogy>  (21) 
C[n+]1c2cc(Br)ccc2n2ccccc21 (3D coordinates assigned)
C[n+]1c2cc(Br)ccc2n2ccccc21 (optimized conformer: 73.49049723246523 kcal/mol)

>  <smiles>  (21) 
C[n+]1c2cc(Br)ccc2n2ccccc21

>  <score_type>  (21) 
oracle

>  <origin>  (21) 
adg

>  <m_score__min__energy>  (21) 
-4.8799999999999999

>  <m_primary>  (21) 
energy

$$$$
21:0
     RDKit          3D

 56 57  0  0  0  0  0  0  0  0999 V2000
   58.4560   30.9660   46.8930 H   0  0  0  0  0  0  0  0  0  0  0  0
   58.4180   30.5740   47.8280 O   0  0  0  0  0  0  0  0  0  0  0  0
   58.9200   31.2650   48.9310 C   0  0  0  0  0  0  0  0  0  0  0  0
   59.3790   30.5510   50.0480 C   0  0  0  0  0  0  0  0  0  0  0  0
   59.3541   29.4513   50.0417 H   0  0  0  0  0  0  0  0  0  0  0  0
   59.8670   31.2270   51.1670 C   0  0  0  0  0  0  0  0  0  0  0  0
   60.2229   30.6598   52.0397 H   0  0  0  0  0  0  0  0  0  0  0  0
   59.9040   32.6230   51.1800 C   0  0  0  0  0  0  0  0  0  0  0  0
   60.3850   33.2780   52.2650 F   0  0  0  0  0  0  0  0  0  0  0  0
   59.4500   33.3450   50.0720 C   0  0  0  0  0  0  0  0  0  0  0  0
   59.4800   34.4445   50.0878 H   0  0  0  0  0  0  0  0  0  0  0  0
   58.9560   32.6780   48.9390 C   0  0  0  0  0  0  0  0  0  0  0  0
   58.5010   33.4830   47.7860 C   0  0  0  0  0  0  0  0  0  0  0  0
   58.8911   34.5025   47.6505 H   0  0  0  0  0  0  0  0  0  0  0  0
   57.6490   33.0070   46.9310 N   0  0  0  0  0  0  0  0  0  0  0  0
   57.4410   33.5970   45.6130 C   0  0  0  0  0  0  0  0  0  0  0  0
   56.4295   33.3512   45.2574 H   0  0  0  0  0  0  0  0  0  0  0  0
   57.5526   34.6893   45.6801 H   0  0  0  0  0  0  0  0  0  0  0  0
   58.4770   33.0390   44.6300 C   0  0  0  0  0  0  0  0  0  0  0  0
   58.5974   33.7526   43.8016 H   0  0  0  0  0  0  0  0  0  0  0  0
   59.4181   32.8968   45.1814 H   0  0  0  0  0  0  0  0  0  0  0  0
   58.0650   31.6770   44.0510 C   0  0  0  0  0  0  0  0  0  0  0  0
   57.3599   31.8432   43.2232 H   0  0  0  0  0  0  0  0  0  0  0  0
   58.9771   31.1682   43.7057 H   0  0  0  0  0  0  0  0  0  0  0  0
   57.4220   30.8160   45.0540 N   0  0  0  0  0  0  0  0  0  0  0  0
   58.1890   30.3470   45.5910 H   0  0  0  0  0  0  0  0  0  0  0  0
   56.5940   29.7700   44.4330 C   0  0  0  0  0  0  0  0  0  0  0  0
   55.5332   30.0482   44.5192 H   0  0  0  0  0  0  0  0  0  0  0  0
   56.8739   29.6744   43.3735 H   0  0  0  0  0  0  0  0  0  0  0  0
   56.8220   28.4270   45.1310 C   0  0  0  0  0  0  0  0  0  0  0  0
   55.8545   27.9264   45.2839 H   0  0  0  0  0  0  0  0  0  0  0  0
   57.4707   27.7980   44.5037 H   0  0  0  0  0  0  0  0  0  0  0  0
   57.4700   28.6440   46.4330 N   0  0  0  0  0  0  0  0  0  0  0  0
   57.4920   29.6700   46.6390 H   0  0  0  0  0  0  0  0  0  0  0  0
   58.8380   28.1060   46.4820 C   0  0  0  0  0  0  0  0  0  0  0  0
   59.4469   28.7489   47.1346 H   0  0  0  0  0  0  0  0  0  0  0  0
   58.7796   27.0778   46.8685 H   0  0  0  0  0  0  0  0  0  0  0  0
   59.4980   28.0470   45.0910 C   0  0  0  0  0  0  0  0  0  0  0  0
   60.1421   27.1569   45.0379 H   0  0  0  0  0  0  0  0  0  0  0  0
   58.7031   27.9992   44.3322 H   0  0  0  0  0  0  0  0  0  0  0  0
   60.3480   29.2950   44.8220 C   0  0  0  0  0  0  0  0  0  0  0  0
   61.3797   28.9862   44.5981 H   0  0  0  0  0  0  0  0  0  0  0  0
   59.9145   29.8373   43.9688 H   0  0  0  0  0  0  0  0  0  0  0  0
   60.3560   30.1830   45.9830 N   0  0  0  0  0  0  0  0  0  0  0  0
   61.3450   30.2410   46.8220 C   0  0  0  0  0  0  0  0  0  0  0  0
   61.8114   29.3092   47.1744 H   0  0  0  0  0  0  0  0  0  0  0  0
   61.8530   31.5370   47.3100 C   0  0  0  0  0  0  0  0  0  0  0  0
   61.4990   32.7510   46.6930 C   0  0  0  0  0  0  0  0  0  0  0  0
   60.8279   32.7482   45.8214 H   0  0  0  0  0  0  0  0  0  0  0  0
   61.9850   33.9290   47.1720 N   0  0  0  0  0  0  0  0  0  0  0  0
   62.8020   33.9780   48.2550 C   0  0  0  0  0  0  0  0  0  0  0  0
   63.1712   34.9473   48.6214 H   0  0  0  0  0  0  0  0  0  0  0  0
   63.1740   32.8000   48.9040 C   0  0  0  0  0  0  0  0  0  0  0  0
   63.8293   32.8360   49.7867 H   0  0  0  0  0  0  0  0  0  0  0  0
   62.7070   31.5750   48.4230 C   0  0  0  0  0  0  0  0  0  0  0  0
   63.0086   30.6394   48.9167 H   0  0  0  0  0  0  0  0  0  0  0  0
  1  2  1  0
  2  3  1  0
  3  4  2  0
  4  5  1  0
  4  6  1  0
  6  7  1  0
  6  8  2  0
  8  9  1  0
  8 10  1  0
 10 11  1  0
 10 12  2  0
 12 13  1  0
 13 14  1  0
 13 15  2  0
 15 16  1  0
 16 17  1  0
 16 18  1  0
 16 19  1  0
 19 20  1  0
 19 21  1  0
 19 22  1  0
 22 23  1  0
 22 24  1  0
 22 25  1  0
 25 26  1  0
 25 27  1  0
 27 28  1  0
 27 29  1  0
 27 30  1  0
 30 31  1  0
 30 32  1  0
 30 33  1  0
 33 34  1  0
 33 35  1  0
 35 36  1  0
 35 37  1  0
 35 38  1  0
 38 39  1  0
 38 40  1  0
 38 41  1  0
 41 42  1  0
 41 43  1  0
 41 44  1  0
 44 45  2  0
 45 46  1  0
 45 47  1  0
 47 48  2  0
 48 49  1  0
 48 50  1  0
 50 51  2  0
 51 52  1  0
 51 53  1  0
 53 54  1  0
 53 55  2  0
 55 56  1  0
 12  3  1  0
 55 47  1  0
M  END
>  <UniqueID>  (22) 
20

>  <SMILES>  (22) 
Oc1ccc(F)cc1/C=N/CCCNCCNCCC/N=C/c1cccnc1

>  <Energy>  (22) 
47.37616589900949

>  <Genealogy>  (22) 
Oc1ccc(F)cc1/C=N/CCCNCCNCCC/N=C/c1cccnc1 (cis-trans isomerization)
Oc1ccc(F)cc1/C=N/CCCNCCNCCC/N=C/c1cccnc1 (3D coordinates assigned)
Oc1ccc(F)cc1/C=N/CCCNCCNCCC/N=C/c1cccnc1 (optimized conformer: 47.37616589900949 kcal/mol)

>  <smiles>  (22) 
Oc1ccc(F)cc1C=NCCCNCCNCCCN=Cc1cccnc1

>  <score_type>  (22) 
oracle

>  <origin>  (22) 
adg

>  <m_score__min__energy>  (22) 
-7.04

>  <m_primary>  (22) 
energy

$$$$
22:0
     RDKit          3D

 31 32  0  0  0  0  0  0  0  0999 V2000
   64.5850   32.5200   49.0010 C   0  0  0  0  0  0  0  0  0  0  0  0
   63.3440   33.0750   48.3630 C   0  0  0  0  0  0  0  0  0  0  0  0
   63.2990   33.2950   46.9780 C   0  0  0  0  0  0  0  0  0  0  0  0
   62.1570   33.8450   46.3890 C   0  0  0  0  0  0  0  0  0  0  0  0
   61.0560   34.1990   47.1800 C   0  0  0  0  0  0  0  0  0  0  0  0
   59.6110   34.8690   46.4350 S   0  0  0  0  0  0  0  0  0  0  0  0
   58.7050   35.4360   47.4920 O   0  0  0  0  0  0  0  0  0  0  0  0
   59.9860   35.9820   45.4960 O   0  0  0  0  0  0  0  0  0  0  0  0
   58.7780   33.5960   45.5520 C   0  0  0  0  0  0  0  0  0  0  0  0
   58.8230   33.5560   44.1570 C   0  0  0  0  0  0  0  0  0  0  0  0
   58.1770   32.5290   43.4680 C   0  0  0  0  0  0  0  0  0  0  0  0
   57.4750   31.5460   44.1850 C   0  0  0  0  0  0  0  0  0  0  0  0
   56.8120   30.4030   43.4600 C   0  0  0  0  0  0  0  0  0  0  0  0
   56.5840   30.7380   42.1370 F   0  0  0  0  0  0  0  0  0  0  0  0
   57.6130   29.2750   43.4900 F   0  0  0  0  0  0  0  0  0  0  0  0
   55.6040   30.1170   44.0680 F   0  0  0  0  0  0  0  0  0  0  0  0
   57.4750   31.5870   45.5510 N   0  0  0  0  0  0  0  0  0  0  0  0
   58.1000   32.5830   46.2380 C   0  0  0  0  0  0  0  0  0  0  0  0
   61.1030   33.9890   48.5650 C   0  0  0  0  0  0  0  0  0  0  0  0
   62.2440   33.4380   49.1560 C   0  0  0  0  0  0  0  0  0  0  0  0
   64.4858   32.5644   50.0956 H   0  0  0  0  0  0  0  0  0  0  0  0
   64.7224   31.4747   48.6874 H   0  0  0  0  0  0  0  0  0  0  0  0
   65.4558   33.1144   48.6874 H   0  0  0  0  0  0  0  0  0  0  0  0
   64.1658   33.0336   46.3533 H   0  0  0  0  0  0  0  0  0  0  0  0
   62.1225   34.0005   45.3006 H   0  0  0  0  0  0  0  0  0  0  0  0
   59.3675   34.3338   43.6015 H   0  0  0  0  0  0  0  0  0  0  0  0
   58.2172   32.4893   42.3694 H   0  0  0  0  0  0  0  0  0  0  0  0
   56.9940   30.8390   46.0990 H   0  0  0  0  0  0  0  0  0  0  0  0
   58.0715   32.5909   47.3376 H   0  0  0  0  0  0  0  0  0  0  0  0
   60.2386   34.2588   49.1895 H   0  0  0  0  0  0  0  0  0  0  0  0
   62.2798   33.2885   50.2452 H   0  0  0  0  0  0  0  0  0  0  0  0
  1  2  1  0
  2  3  2  0
  3  4  1  0
  4  5  2  0
  5  6  1  0
  6  7  2  0
  6  8  2  0
  6  9  1  0
  9 10  2  0
 10 11  1  0
 11 12  2  0
 12 13  1  0
 13 14  1  0
 13 15  1  0
 13 16  1  0
 12 17  1  0
 17 18  2  0
  5 19  1  0
 19 20  2  0
 20  2  1  0
 18  9  1  0
  1 21  1  0
  1 22  1  0
  1 23  1  0
  3 24  1  0
  4 25  1  0
 10 26  1  0
 11 27  1  0
 17 28  1  0
 18 29  1  0
 19 30  1  0
 20 31  1  0
M  CHG  1  17   1
M  END
>  <UniqueID>  (23) 
21

>  <SMILES>  (23) 
Cc1ccc(S(=O)(=O)c2ccc(C(F)(F)F)[nH+]c2)cc1

>  <Energy>  (23) 
32.92600028433337

>  <Genealogy>  (23) 
Cc1ccc(S(=O)(=O)c2ccc(C(F)(F)F)[nH+]c2)cc1 (protonated)
Cc1ccc(S(=O)(=O)c2ccc(C(F)(F)F)[nH+]c2)cc1 (3D coordinates assigned)
Cc1ccc(S(=O)(=O)c2ccc(C(F)(F)F)[nH+]c2)cc1 (optimized conformer: 32.92600028433337 kcal/mol)

>  <smiles>  (23) 
Cc1ccc(S(=O)(=O)c2ccc(C(F)(F)F)nc2)cc1

>  <score_type>  (23) 
oracle

>  <origin>  (23) 
adg

>  <m_score__min__energy>  (23) 
-5.2599999999999998

>  <m_primary>  (23) 
energy

$$$$
23:0
     RDKit          3D

 23 23  0  0  0  0  0  0  0  0999 V2000
   59.1380   21.9060   44.4300 C   0  0  0  0  0  0  0  0  0  0  0  0
   57.6090   21.7670   44.3920 C   0  0  2  0  0  0  0  0  0  0  0  0
   57.1070   21.3300   43.0050 C   0  0  0  0  0  0  0  0  0  0  0  0
   55.9800   22.0690   42.6210 O   0  0  0  0  0  0  0  0  0  0  0  0
   56.9070   23.0290   44.8660 C   0  0  0  0  0  0  0  0  0  0  0  0
   57.5120   24.2970   44.7480 C   0  0  0  0  0  0  0  0  0  0  0  0
   56.8370   25.4460   45.1710 C   0  0  0  0  0  0  0  0  0  0  0  0
   55.5490   25.3500   45.7100 C   0  0  0  0  0  0  0  0  0  0  0  0
   54.8680   26.4880   46.1340 O   0  0  0  0  0  0  0  0  0  0  0  0
   54.9370   24.0980   45.8210 C   0  0  0  0  0  0  0  0  0  0  0  0
   55.6070   22.9470   45.4000 C   0  0  0  0  0  0  0  0  0  0  0  0
   59.4775   21.9369   45.4758 H   0  0  0  0  0  0  0  0  0  0  0  0
   59.5971   21.0459   43.9207 H   0  0  0  0  0  0  0  0  0  0  0  0
   59.4345   22.8348   43.9207 H   0  0  0  0  0  0  0  0  0  0  0  0
   57.3486   20.9676   45.1013 H   0  0  0  0  0  0  0  0  0  0  0  0
   57.9078   21.4865   42.2673 H   0  0  0  0  0  0  0  0  0  0  0  0
   56.8283   20.2670   43.0531 H   0  0  0  0  0  0  0  0  0  0  0  0
   56.2680   22.6350   41.8590 H   0  0  0  0  0  0  0  0  0  0  0  0
   58.5218   24.3829   44.3203 H   0  0  0  0  0  0  0  0  0  0  0  0
   57.3204   26.4299   45.0798 H   0  0  0  0  0  0  0  0  0  0  0  0
   54.7740   26.7130   47.1180 H   0  0  0  0  0  0  0  0  0  0  0  0
   53.9237   24.0190   46.2416 H   0  0  0  0  0  0  0  0  0  0  0  0
   55.1143   21.9673   45.4865 H   0  0  0  0  0  0  0  0  0  0  0  0
  1  2  1  0
  2  3  1  0
  3  4  1  0
  2  5  1  0
  5  6  2  0
  6  7  1  0
  7  8  2  0
  8  9  1  0
  8 10  1  0
 10 11  2  0
 11  5  1  0
  1 12  1  0
  1 13  1  0
  1 14  1  0
  2 15  1  1
  3 16  1  0
  3 17  1  0
  4 18  1  0
  6 19  1  0
  7 20  1  0
  9 21  1  0
 10 22  1  0
 11 23  1  0
M  END
>  <UniqueID>  (24) 
22

>  <SMILES>  (24) 
C[C@H](CO)c1ccc(O)cc1

>  <Energy>  (24) 
18.439589355625756

>  <Genealogy>  (24) 
C[C@H](CO)c1ccc(O)cc1 (chirality)
C[C@H](CO)c1ccc(O)cc1 (3D coordinates assigned)
C[C@H](CO)c1ccc(O)cc1 (optimized conformer: 18.439589355625756 kcal/mol)

>  <smiles>  (24) 
CC(CO)c1ccc(O)cc1

>  <score_type>  (24) 
oracle

>  <origin>  (24) 
adg

>  <m_score__min__energy>  (24) 
-6.0599999999999996

>  <m_primary>  (24) 
energy

$$$$
24:0
     RDKit          3D

 32 35  0  0  0  0  0  0  0  0999 V2000
   55.1200   30.7000   44.3240 O   0  0  0  0  0  0  0  0  0  0  0  0
   56.1270   30.0020   44.6120 C   0  0  0  0  0  0  0  0  0  0  0  0
   56.0280   28.7190   45.2240 N   0  0  0  0  0  0  0  0  0  0  0  0
   57.3660   28.2780   45.3640 C   0  0  0  0  0  0  0  0  0  0  0  0
   57.7830   27.0670   45.9170 C   0  0  0  0  0  0  0  0  0  0  0  0
   59.1620   26.8000   45.9740 C   0  0  0  0  0  0  0  0  0  0  0  0
   60.0890   27.7400   45.4800 C   0  0  0  0  0  0  0  0  0  0  0  0
   59.6460   28.9530   44.9270 C   0  0  0  0  0  0  0  0  0  0  0  0
   58.2730   29.2020   44.8820 C   0  0  0  0  0  0  0  0  0  0  0  0
   57.5560   30.4140   44.3470 C   0  0  1  0  0  0  0  0  0  0  0  0
   57.7820   30.5650   42.9650 O   0  0  0  0  0  0  0  0  0  0  0  0
   57.9340   31.6660   45.1270 C   0  0  0  0  0  0  0  0  0  0  0  0
   57.7130   32.9650   44.5860 C   0  0  0  0  0  0  0  0  0  0  0  0
   58.0810   34.1190   45.3000 C   0  0  0  0  0  0  0  0  0  0  0  0
   58.6730   33.9510   46.5470 C   0  0  0  0  0  0  0  0  0  0  0  0
   59.1330   34.8800   47.4540 C   0  0  0  0  0  0  0  0  0  0  0  0
   59.6290   34.1340   48.5180 C   0  0  0  0  0  0  0  0  0  0  0  0
   59.4850   32.8090   48.2830 N   0  0  0  0  0  0  0  0  0  0  0  0
   58.9000   32.7130   47.0780 C   0  0  0  0  0  0  0  0  0  0  0  0
   58.5490   31.5480   46.4000 C   0  0  0  0  0  0  0  0  0  0  0  0
   55.1590   28.2150   45.5060 H   0  0  0  0  0  0  0  0  0  0  0  0
   57.0514   26.3396   46.2987 H   0  0  0  0  0  0  0  0  0  0  0  0
   59.5192   25.8535   46.4059 H   0  0  0  0  0  0  0  0  0  0  0  0
   61.1662   27.5223   45.5278 H   0  0  0  0  0  0  0  0  0  0  0  0
   60.3644   29.6897   44.5383 H   0  0  0  0  0  0  0  0  0  0  0  0
   57.9550   29.6660   42.5770 H   0  0  0  0  0  0  0  0  0  0  0  0
   57.2474   33.0669   43.5946 H   0  0  0  0  0  0  0  0  0  0  0  0
   57.9062   35.1228   44.8854 H   0  0  0  0  0  0  0  0  0  0  0  0
   59.1125   35.9756   47.3576 H   0  0  0  0  0  0  0  0  0  0  0  0
   60.0772   34.5625   49.4266 H   0  0  0  0  0  0  0  0  0  0  0  0
   59.7710   32.0270   48.9120 H   0  0  0  0  0  0  0  0  0  0  0  0
   58.7441   30.5595   46.8413 H   0  0  0  0  0  0  0  0  0  0  0  0
  1  2  2  0
  2  3  1  0
  3  4  1  0
  4  5  2  0
  5  6  1  0
  6  7  2  0
  7  8  1  0
  8  9  2  0
  9 10  1  0
 10 11  1  6
 10 12  1  0
 12 13  2  0
 13 14  1  0
 14 15  2  0
 15 16  1  0
 16 17  2  0
 17 18  1  0
 18 19  1  0
 19 20  2  0
 10  2  1  0
 20 12  1  0
  9  4  1  0
 19 15  1  0
  3 21  1  0
  5 22  1  0
  6 23  1  0
  7 24  1  0
  8 25  1  0
 11 26  1  0
 13 27  1  0
 14 28  1  0
 16 29  1  0
 17 30  1  0
 18 31  1  0
 20 32  1  0
M  END
>  <UniqueID>  (25) 
23

>  <SMILES>  (25) 
O=C1Nc2ccccc2[C@]1(O)c1ccc2cc[nH]c2c1

>  <Energy>  (25) 
92.29569769713379

>  <Genealogy>  (25) 
O=C1Nc2ccccc2[C@]1(O)c1ccc2cc[nH]c2c1 (chirality)
O=C1Nc2ccccc2[C@]1(O)c1ccc2cc[nH]c2c1 (3D coordinates assigned)
O=C1Nc2ccccc2[C@]1(O)c1ccc2cc[nH]c2c1 (nonaromatic ring conformer: 92.29569769713379 kcal/mol)

>  <smiles>  (25) 
O=C1Nc2ccccc2C1(O)c1ccc2cc[nH]c2c1

>  <score_type>  (25) 
oracle

>  <origin>  (25) 
adg

>  <m_score__min__energy>  (25) 
-8.2200000000000006

>  <m_primary>  (25) 
energy

$$$$
25:0
     RDKit          3D

 35 38  0  0  0  0  0  0  0  0999 V2000
   54.1650   25.1310   45.6150 C   0  0  0  0  0  0  0  0  0  0  0  0
   54.9020   26.3350   45.9860 N   0  0  0  0  0  0  0  0  0  0  0  0
   56.3290   26.4970   45.8920 C   0  0  0  0  0  0  0  0  0  0  0  0
   57.0190   25.5470   45.4280 O   0  0  0  0  0  0  0  0  0  0  0  0
   57.0260   27.7570   46.3350 C   0  0  2  0  0  0  0  0  0  0  0  0
   56.5160   28.8670   45.5980 O   0  0  0  0  0  0  0  0  0  0  0  0
   57.6110   29.4810   44.9250 C   0  0  1  0  0  0  0  0  0  0  0  0
   57.3360   29.6200   43.4520 C   0  0  0  0  0  0  0  0  0  0  0  0
   57.1400   28.6550   42.6680 O   0  0  0  0  0  0  0  0  0  0  0  0
   57.3070   30.9800   43.0260 N   0  0  0  0  0  0  0  0  0  0  0  0
   57.5620   31.7310   44.2010 C   0  0  0  0  0  0  0  0  0  0  0  0
   57.6130   33.1220   44.2960 C   0  0  0  0  0  0  0  0  0  0  0  0
   57.8630   33.6930   45.5560 C   0  0  0  0  0  0  0  0  0  0  0  0
   58.0490   32.8720   46.6870 C   0  0  0  0  0  0  0  0  0  0  0  0
   57.9830   31.4730   46.5690 C   0  0  0  0  0  0  0  0  0  0  0  0
   57.7420   30.9240   45.3080 C   0  0  0  0  0  0  0  0  0  0  0  0
   58.8270   28.6900   45.2210 C   0  0  0  0  0  0  0  0  0  0  0  0
   60.1460   28.8710   44.7910 C   0  0  0  0  0  0  0  0  0  0  0  0
   61.1250   27.9670   45.2410 C   0  0  0  0  0  0  0  0  0  0  0  0
   60.7680   26.9160   46.1120 C   0  0  0  0  0  0  0  0  0  0  0  0
   59.4310   26.7680   46.5290 C   0  0  0  0  0  0  0  0  0  0  0  0
   58.4810   27.6790   46.0510 C   0  0  0  0  0  0  0  0  0  0  0  0
   53.8422   24.6037   46.5248 H   0  0  0  0  0  0  0  0  0  0  0  0
   53.2826   25.4099   45.0203 H   0  0  0  0  0  0  0  0  0  0  0  0
   54.8147   24.4721   45.0203 H   0  0  0  0  0  0  0  0  0  0  0  0
   56.8536   27.8765   47.4148 H   0  0  0  0  0  0  0  0  0  0  0  0
   57.1100   31.3430   42.0680 H   0  0  0  0  0  0  0  0  0  0  0  0
   57.4617   33.7547   43.4090 H   0  0  0  0  0  0  0  0  0  0  0  0
   57.9138   34.7869   45.6602 H   0  0  0  0  0  0  0  0  0  0  0  0
   58.2470   33.3291   47.6677 H   0  0  0  0  0  0  0  0  0  0  0  0
   58.1179   30.8264   47.4486 H   0  0  0  0  0  0  0  0  0  0  0  0
   60.4108   29.6997   44.1178 H   0  0  0  0  0  0  0  0  0  0  0  0
   62.1692   28.0794   44.9138 H   0  0  0  0  0  0  0  0  0  0  0  0
   61.5350   26.2113   46.4658 H   0  0  0  0  0  0  0  0  0  0  0  0
   59.1402   25.9571   47.2130 H   0  0  0  0  0  0  0  0  0  0  0  0
  1  2  1  0
  2  3  1  0
  3  4  2  0
  3  5  1  0
  5  6  1  0
  7  6  1  1
  7  8  1  0
  8  9  2  0
  8 10  1  0
 10 11  1  0
 11 12  2  0
 12 13  1  0
 13 14  2  0
 14 15  1  0
 15 16  2  0
  7 17  1  0
 17 18  2  0
 18 19  1  0
 19 20  2  0
 20 21  1  0
 21 22  2  0
 22  5  1  0
 16  7  1  0
 22 17  1  0
 16 11  1  0
  1 23  1  0
  1 24  1  0
  1 25  1  0
  5 26  1  1
 10 27  1  0
 12 28  1  0
 13 29  1  0
 14 30  1  0
 15 31  1  0
 18 32  1  0
 19 33  1  0
 20 34  1  0
 21 35  1  0
M  CHG  1   2  -1
M  END
>  <UniqueID>  (26) 
24

>  <SMILES>  (26) 
C[N-]C(=O)[C@@H]1O[C@]2(C(=O)Nc3ccccc32)c2ccccc21

>  <Energy>  (26) 
68.15533139040564

>  <Genealogy>  (26) 
C[N-]C(=O)C1OC2(C(=O)Nc3ccccc32)c2ccccc21 (protonated)
C[N-]C(=O)[C@@H]1O[C@]2(C(=O)Nc3ccccc32)c2ccccc21 (chirality)
C[N-]C(=O)[C@@H]1O[C@]2(C(=O)Nc3ccccc32)c2ccccc21 (3D coordinates assigned)
C[N-]C(=O)[C@@H]1O[C@]2(C(=O)Nc3ccccc32)c2ccccc21 (nonaromatic ring conformer: 68.15533139040564 kcal/mol)

>  <smiles>  (26) 
CNC(=O)C1OC2(C(=O)Nc3ccccc32)c2ccccc21

>  <score_type>  (26) 
oracle

>  <origin>  (26) 
adg

>  <m_score__min__energy>  (26) 
-9.7100000000000009

>  <m_primary>  (26) 
energy

$$$$
26:0
     RDKit          3D

 31 32  0  0  0  0  0  0  0  0999 V2000
   62.4280   33.5370   47.0820 C   0  0  0  0  0  0  0  0  0  0  0  0
   60.8930   33.7790   48.0290 S   0  0  0  0  0  0  0  0  0  0  0  0
   59.8370   33.5810   46.5930 C   0  0  0  0  0  0  0  0  0  0  0  0
   59.5750   34.6730   45.7590 C   0  0  0  0  0  0  0  0  0  0  0  0
   58.7620   34.5150   44.6350 C   0  0  0  0  0  0  0  0  0  0  0  0
   58.2070   33.2670   44.3390 C   0  0  0  0  0  0  0  0  0  0  0  0
   58.4580   32.1630   45.1730 C   0  0  0  0  0  0  0  0  0  0  0  0
   57.8960   30.8720   44.8650 N   0  0  0  0  0  0  0  0  0  0  0  0
   57.0660   30.6730   43.6710 C   0  0  0  0  0  0  0  0  0  0  0  0
   55.7420   29.9720   44.0370 C   0  0  0  0  0  0  0  0  0  0  0  0
   55.8300   29.1470   45.2620 N   0  0  0  0  0  0  0  0  0  0  0  0
   57.1730   28.5880   45.4740 C   0  0  0  0  0  0  0  0  0  0  0  0
   58.1830   29.7180   45.7270 C   0  0  0  0  0  0  0  0  0  0  0  0
   59.2850   32.3290   46.2970 C   0  0  0  0  0  0  0  0  0  0  0  0
   63.2704   33.4042   47.7768 H   0  0  0  0  0  0  0  0  0  0  0  0
   62.3309   32.6431   46.4484 H   0  0  0  0  0  0  0  0  0  0  0  0
   62.6106   34.4174   46.4484 H   0  0  0  0  0  0  0  0  0  0  0  0
   60.0098   35.6569   45.9889 H   0  0  0  0  0  0  0  0  0  0  0  0
   58.5577   35.3752   43.9806 H   0  0  0  0  0  0  0  0  0  0  0  0
   57.5709   33.1478   43.4495 H   0  0  0  0  0  0  0  0  0  0  0  0
   56.8437   31.6509   43.2189 H   0  0  0  0  0  0  0  0  0  0  0  0
   57.6163   30.0395   42.9598 H   0  0  0  0  0  0  0  0  0  0  0  0
   54.9713   30.7417   44.1902 H   0  0  0  0  0  0  0  0  0  0  0  0
   55.4949   29.2936   43.2071 H   0  0  0  0  0  0  0  0  0  0  0  0
   55.5650   29.7260   46.0940 H   0  0  0  0  0  0  0  0  0  0  0  0
   55.1450   28.3580   45.1920 H   0  0  0  0  0  0  0  0  0  0  0  0
   57.1538   27.9159   46.3446 H   0  0  0  0  0  0  0  0  0  0  0  0
   57.4758   28.0297   44.5759 H   0  0  0  0  0  0  0  0  0  0  0  0
   58.1205   30.0293   46.7802 H   0  0  0  0  0  0  0  0  0  0  0  0
   59.1933   29.3478   45.4983 H   0  0  0  0  0  0  0  0  0  0  0  0
   59.5001   31.4693   46.9487 H   0  0  0  0  0  0  0  0  0  0  0  0
  1  2  1  0
  2  3  1  0
  3  4  2  0
  4  5  1  0
  5  6  2  0
  6  7  1  0
  7  8  1  0
  8  9  1  0
  9 10  1  0
 10 11  1  0
 11 12  1  0
 12 13  1  0
  7 14  2  0
 14  3  1  0
 13  8  1  0
  1 15  1  0
  1 16  1  0
  1 17  1  0
  4 18  1  0
  5 19  1  0
  6 20  1  0
  9 21  1  0
  9 22  1  0
 10 23  1  0
 10 24  1  0
 11 25  1  0
 11 26  1  0
 12 27  1  0
 12 28  1  0
 13 29  1  0
 13 30  1  0
 14 31  1  0
M  CHG  1  11   1
M  END
>  <UniqueID>  (27) 
25

>  <SMILES>  (27) 
CSc1cccc(N2CC[NH2+]CC2)c1

>  <Energy>  (27) 
33.846124107371544

>  <Genealogy>  (27) 
CSc1cccc(N2CC[NH2+]CC2)c1 (protonated)
CSc1cccc(N2CC[NH2+]CC2)c1 (3D coordinates assigned)
CSc1cccc(N2CC[NH2+]CC2)c1 (nonaromatic ring conformer: 33.846124107371544 kcal/mol)

>  <smiles>  (27) 
CSc1cccc(N2CCNCC2)c1

>  <score_type>  (27) 
oracle

>  <origin>  (27) 
adg

>  <m_score__min__energy>  (27) 
-4.8399999999999999

>  <m_primary>  (27) 
energy

$$$$
27:0
     RDKit          3D

 27 28  0  0  0  0  0  0  0  0999 V2000
   56.9360   25.2900   46.7310 C   0  0  0  0  0  0  0  0  0  0  0  0
   56.3400   26.8430   45.9940 S   0  0  0  0  0  0  0  0  0  0  0  0
   57.9950   27.5070   45.7550 C   0  0  0  0  0  0  0  0  0  0  0  0
   59.0870   26.7800   46.2500 C   0  0  0  0  0  0  0  0  0  0  0  0
   60.3900   27.2420   46.0520 C   0  0  0  0  0  0  0  0  0  0  0  0
   60.6110   28.4310   45.3530 C   0  0  0  0  0  0  0  0  0  0  0  0
   59.5300   29.1650   44.8610 C   0  0  0  0  0  0  0  0  0  0  0  0
   58.2160   28.7230   45.0740 C   0  0  0  0  0  0  0  0  0  0  0  0
   56.8480   29.7070   44.4360 S   0  0  0  0  0  0  0  0  0  0  0  0
   57.6320   31.2780   44.8350 C   0  0  0  0  0  0  0  0  0  0  0  0
   57.9470   31.5650   46.1700 C   0  0  0  0  0  0  0  0  0  0  0  0
   58.5650   32.7730   46.5070 C   0  0  0  0  0  0  0  0  0  0  0  0
   58.8600   33.7090   45.5110 C   0  0  0  0  0  0  0  0  0  0  0  0
   59.6340   35.2250   45.9350 Cl  0  0  0  0  0  0  0  0  0  0  0  0
   58.5290   33.4410   44.1800 C   0  0  0  0  0  0  0  0  0  0  0  0
   57.9100   32.2320   43.8370 C   0  0  0  0  0  0  0  0  0  0  0  0
   57.4640   31.9640   42.1560 Cl  0  0  0  0  0  0  0  0  0  0  0  0
   56.9056   25.3692   47.8277 H   0  0  0  0  0  0  0  0  0  0  0  0
   56.2929   24.4591   46.4054 H   0  0  0  0  0  0  0  0  0  0  0  0
   57.9699   25.1027   46.4054 H   0  0  0  0  0  0  0  0  0  0  0  0
   58.9165   25.8410   46.7971 H   0  0  0  0  0  0  0  0  0  0  0  0
   61.2424   26.6695   46.4466 H   0  0  0  0  0  0  0  0  0  0  0  0
   61.6381   28.7895   45.1900 H   0  0  0  0  0  0  0  0  0  0  0  0
   59.7099   30.0957   44.3029 H   0  0  0  0  0  0  0  0  0  0  0  0
   57.7066   30.8355   46.9574 H   0  0  0  0  0  0  0  0  0  0  0  0
   58.8191   32.9871   47.5556 H   0  0  0  0  0  0  0  0  0  0  0  0
   58.7553   34.1819   43.3990 H   0  0  0  0  0  0  0  0  0  0  0  0
  1  2  1  0
  2  3  1  0
  3  4  2  0
  4  5  1  0
  5  6  2  0
  6  7  1  0
  7  8  2  0
  8  9  1  0
  9 10  1  0
 10 11  2  0
 11 12  1  0
 12 13  2  0
 13 14  1  0
 13 15  1  0
 15 16  2  0
 16 17  1  0
  8  3  1  0
 16 10  1  0
  1 18  1  0
  1 19  1  0
  1 20  1  0
  4 21  1  0
  5 22  1  0
  6 23  1  0
  7 24  1  0
 11 25  1  0
 12 26  1  0
 15 27  1  0
M  END
>  <UniqueID>  (28) 
26

>  <SMILES>  (28) 
CSc1ccccc1Sc1ccc(Cl)cc1Cl

>  <Energy>  (28) 
20.9319296534589

>  <Genealogy>  (28) 
CSc1ccccc1Sc1ccc(Cl)cc1Cl (3D coordinates assigned)
CSc1ccccc1Sc1ccc(Cl)cc1Cl (optimized conformer: 20.9319296534589 kcal/mol)

>  <smiles>  (28) 
CSc1ccccc1Sc1ccc(Cl)cc1Cl

>  <score_type>  (28) 
oracle

>  <origin>  (28) 
adg

>  <m_score__min__energy>  (28) 
-7.0199999999999996

>  <m_primary>  (28) 
energy

$$$$
28:0
     RDKit          3D

 26 27  0  0  0  0  0  0  0  0999 V2000
   57.8848   31.3785   42.6144 H   0  0  0  0  0  0  0  0  0  0  0  0
   57.6930   31.2140   43.6850 C   0  0  0  0  0  0  0  0  0  0  0  0
   57.1930   30.0210   44.0490 C   0  0  0  0  0  0  0  0  0  0  0  0
   55.4840   29.7180   43.7710 Cl  0  0  0  0  0  0  0  0  0  0  0  0
   58.0040   28.9200   44.6200 C   0  0  0  0  0  0  0  0  0  0  0  0
   59.1360   29.1970   45.4070 C   0  0  0  0  0  0  0  0  0  0  0  0
   59.4231   30.2377   45.6180 H   0  0  0  0  0  0  0  0  0  0  0  0
   59.8920   28.1420   45.9180 C   0  0  0  0  0  0  0  0  0  0  0  0
   60.7729   28.3477   46.5439 H   0  0  0  0  0  0  0  0  0  0  0  0
   59.5290   26.8270   45.6340 C   0  0  0  0  0  0  0  0  0  0  0  0
   60.1169   25.9890   46.0365 H   0  0  0  0  0  0  0  0  0  0  0  0
   58.4110   26.5840   44.8330 C   0  0  0  0  0  0  0  0  0  0  0  0
   58.1186   25.5497   44.5990 H   0  0  0  0  0  0  0  0  0  0  0  0
   57.6820   27.6230   44.3410 N   0  0  0  0  0  0  0  0  0  0  0  0
   56.8480   27.4090   43.7490 H   0  0  0  0  0  0  0  0  0  0  0  0
   58.0060   32.3250   44.6140 C   0  0  0  0  0  0  0  0  0  0  0  0
   57.7670   32.1550   45.9860 C   0  0  0  0  0  0  0  0  0  0  0  0
   57.3349   31.2124   46.3533 H   0  0  0  0  0  0  0  0  0  0  0  0
   58.0750   33.1770   46.8890 C   0  0  0  0  0  0  0  0  0  0  0  0
   57.8716   33.0419   47.9615 H   0  0  0  0  0  0  0  0  0  0  0  0
   58.6410   34.3700   46.4310 C   0  0  0  0  0  0  0  0  0  0  0  0
   58.9410   35.3600   47.3070 F   0  0  0  0  0  0  0  0  0  0  0  0
   58.9100   34.5370   45.0690 C   0  0  0  0  0  0  0  0  0  0  0  0
   59.3631   35.4726   44.7094 H   0  0  0  0  0  0  0  0  0  0  0  0
   58.6040   33.5170   44.1640 C   0  0  0  0  0  0  0  0  0  0  0  0
   58.8314   33.6463   43.0956 H   0  0  0  0  0  0  0  0  0  0  0  0
  1  2  1  0
  2  3  2  0
  3  4  1  0
  3  5  1  0
  5  6  2  0
  6  7  1  0
  6  8  1  0
  8  9  1  0
  8 10  2  0
 10 11  1  0
 10 12  1  0
 12 13  1  0
 12 14  2  0
 14 15  1  0
  2 16  1  0
 16 17  2  0
 17 18  1  0
 17 19  1  0
 19 20  1  0
 19 21  2  0
 21 22  1  0
 21 23  1  0
 23 24  1  0
 23 25  2  0
 25 26  1  0
 14  5  1  0
 25 16  1  0
M  CHG  1  14   1
M  END
>  <UniqueID>  (29) 
27

>  <SMILES>  (29) 
Fc1ccc(/C=C(/Cl)c2cccc[nH+]2)cc1

>  <Energy>  (29) 
36.88292435318585

>  <Genealogy>  (29) 
Fc1ccc(C=C(Cl)c2cccc[nH+]2)cc1 (protonated)
Fc1ccc(/C=C(/Cl)c2cccc[nH+]2)cc1 (cis-trans isomerization)
Fc1ccc(/C=C(/Cl)c2cccc[nH+]2)cc1 (3D coordinates assigned)
Fc1ccc(/C=C(/Cl)c2cccc[nH+]2)cc1 (optimized conformer: 36.88292435318585 kcal/mol)

>  <smiles>  (29) 
Fc1ccc(C=C(Cl)c2ccccn2)cc1

>  <score_type>  (29) 
oracle

>  <origin>  (29) 
adg

>  <m_score__min__energy>  (29) 
-5.0499999999999998

>  <m_primary>  (29) 
energy

$$$$
29:0
     RDKit          3D

 30 31  0  0  0  0  0  0  0  0999 V2000
   54.9930   26.5320   46.1310 O   0  0  0  0  0  0  0  0  0  0  0  0
   56.3840   26.4770   46.2760 C   0  0  0  0  0  0  0  0  0  0  0  0
   57.0430   27.6870   45.5950 C   0  0  0  0  0  0  0  0  0  0  0  0
   56.0700   28.6560   45.0570 N   0  0  0  0  0  0  0  0  0  0  0  0
   56.5050   29.3020   43.8100 C   0  0  0  0  0  0  0  0  0  0  0  0
   57.1300   30.6450   44.0830 C   0  0  0  0  0  0  0  0  0  0  0  0
   57.4300   31.5180   43.0250 C   0  0  0  0  0  0  0  0  0  0  0  0
   58.0270   32.7560   43.2770 C   0  0  0  0  0  0  0  0  0  0  0  0
   58.3350   33.1380   44.5910 C   0  0  0  0  0  0  0  0  0  0  0  0
   58.9350   34.3780   44.8530 C   0  0  0  0  0  0  0  0  0  0  0  0
   59.2380   34.7470   46.1680 C   0  0  0  0  0  0  0  0  0  0  0  0
   58.9450   33.8820   47.2250 C   0  0  0  0  0  0  0  0  0  0  0  0
   58.3470   32.6440   46.9770 C   0  0  0  0  0  0  0  0  0  0  0  0
   58.0380   32.2620   45.6630 C   0  0  0  0  0  0  0  0  0  0  0  0
   57.4380   31.0200   45.4000 C   0  0  0  0  0  0  0  0  0  0  0  0
   54.7290   27.4630   46.3530 H   0  0  0  0  0  0  0  0  0  0  0  0
   56.6371   26.4815   47.3465 H   0  0  0  0  0  0  0  0  0  0  0  0
   56.7554   25.5559   45.8031 H   0  0  0  0  0  0  0  0  0  0  0  0
   57.6758   28.2012   46.3333 H   0  0  0  0  0  0  0  0  0  0  0  0
   57.6256   27.3042   44.7441 H   0  0  0  0  0  0  0  0  0  0  0  0
   55.1550   28.1770   44.8880 H   0  0  0  0  0  0  0  0  0  0  0  0
   57.2431   28.6574   43.3103 H   0  0  0  0  0  0  0  0  0  0  0  0
   55.6239   29.4512   43.1686 H   0  0  0  0  0  0  0  0  0  0  0  0
   57.1936   31.2255   41.9913 H   0  0  0  0  0  0  0  0  0  0  0  0
   58.2564   33.4337   42.4415 H   0  0  0  0  0  0  0  0  0  0  0  0
   59.1678   35.0617   44.0233 H   0  0  0  0  0  0  0  0  0  0  0  0
   59.7081   35.7207   46.3701 H   0  0  0  0  0  0  0  0  0  0  0  0
   59.1861   34.1769   48.2569 H   0  0  0  0  0  0  0  0  0  0  0  0
   58.1180   31.9675   47.8136 H   0  0  0  0  0  0  0  0  0  0  0  0
   57.2080   30.3370   46.2310 H   0  0  0  0  0  0  0  0  0  0  0  0
  1  2  1  0
  2  3  1  0
  3  4  1  0
  4  5  1  0
  5  6  1  0
  6  7  2  0
  7  8  1  0
  8  9  2  0
  9 10  1  0
 10 11  2  0
 11 12  1  0
 12 13  2  0
 13 14  1  0
 14 15  2  0
 15  6  1  0
 14  9  1  0
  1 16  1  0
  2 17  1  0
  2 18  1  0
  3 19  1  0
  3 20  1  0
  4 21  1  0
  5 22  1  0
  5 23  1  0
  7 24  1  0
  8 25  1  0
 10 26  1  0
 11 27  1  0
 12 28  1  0
 13 29  1  0
 15 30  1  0
M  END
>  <UniqueID>  (30) 
28

>  <SMILES>  (30) 
OCCNCc1ccc2ccccc2c1

>  <Energy>  (30) 
32.64171532604474

>  <Genealogy>  (30) 
OCCNCc1ccc2ccccc2c1 (3D coordinates assigned)
OCCNCc1ccc2ccccc2c1 (optimized conformer: 32.64171532604474 kcal/mol)

>  <smiles>  (30) 
OCCNCc1ccc2ccccc2c1

>  <score_type>  (30) 
oracle

>  <origin>  (30) 
adg

>  <m_score__min__energy>  (30) 
-8.0099999999999998

>  <m_primary>  (30) 
energy

$$$$
30:0
     RDKit          3D

 37 39  0  0  0  0  0  0  0  0999 V2000
   57.2150   25.1530   47.9400 O   0  0  0  0  0  0  0  0  0  0  0  0
   57.3510   25.7840   46.8590 C   0  0  0  0  0  0  0  0  0  0  0  0
   56.4970   26.4530   46.0060 C   0  0  0  0  0  0  0  0  0  0  0  0
   55.1340   26.7150   45.9890 O   0  0  0  0  0  0  0  0  0  0  0  0
   57.5610   26.7560   45.1780 C   0  0  0  0  0  0  0  0  0  0  0  0
   57.7190   27.4980   43.9640 N   0  0  0  0  0  0  0  0  0  0  0  0
   57.6580   28.9060   44.2620 C   0  0  0  0  0  0  0  0  0  0  0  0
   58.6990   29.5290   44.9710 C   0  0  0  0  0  0  0  0  0  0  0  0
   58.6260   30.8880   45.2860 C   0  0  0  0  0  0  0  0  0  0  0  0
   57.5040   31.6430   44.9120 C   0  0  0  0  0  0  0  0  0  0  0  0
   57.4500   33.1200   45.2080 C   0  0  0  0  0  0  0  0  0  0  0  0
   58.8050   33.8000   44.9630 C   0  0  0  0  0  0  0  0  0  0  0  0
   59.5850   33.9660   46.2430 C   0  0  0  0  0  0  0  0  0  0  0  0
   58.9620   34.4810   47.3930 C   0  0  0  0  0  0  0  0  0  0  0  0
   59.6750   34.5890   48.5910 C   0  0  0  0  0  0  0  0  0  0  0  0
   61.0100   34.1820   48.6510 C   0  0  0  0  0  0  0  0  0  0  0  0
   61.6340   33.6620   47.5140 C   0  0  0  0  0  0  0  0  0  0  0  0
   60.9250   33.5490   46.3140 C   0  0  0  0  0  0  0  0  0  0  0  0
   56.4590   31.0210   44.2090 C   0  0  0  0  0  0  0  0  0  0  0  0
   56.5330   29.6620   43.8930 C   0  0  0  0  0  0  0  0  0  0  0  0
   58.4180   26.1000   46.0420 C   0  0  0  0  0  0  0  0  0  0  0  0
   59.6580   25.8850   46.0720 O   0  0  0  0  0  0  0  0  0  0  0  0
   58.6390   27.2540   43.5300 H   0  0  0  0  0  0  0  0  0  0  0  0
   56.9580   27.2310   43.2970 H   0  0  0  0  0  0  0  0  0  0  0  0
   59.5770   28.9428   45.2800 H   0  0  0  0  0  0  0  0  0  0  0  0
   59.4524   31.3687   45.8301 H   0  0  0  0  0  0  0  0  0  0  0  0
   56.6949   33.5861   44.5580 H   0  0  0  0  0  0  0  0  0  0  0  0
   57.1903   33.2470   46.2693 H   0  0  0  0  0  0  0  0  0  0  0  0
   59.3918   33.1846   44.2652 H   0  0  0  0  0  0  0  0  0  0  0  0
   58.6164   34.7995   44.5441 H   0  0  0  0  0  0  0  0  0  0  0  0
   57.9102   34.8001   47.3504 H   0  0  0  0  0  0  0  0  0  0  0  0
   59.1839   34.9951   49.4876 H   0  0  0  0  0  0  0  0  0  0  0  0
   61.5701   34.2709   49.5935 H   0  0  0  0  0  0  0  0  0  0  0  0
   62.6850   33.3409   47.5630 H   0  0  0  0  0  0  0  0  0  0  0  0
   61.4177   33.1325   45.4231 H   0  0  0  0  0  0  0  0  0  0  0  0
   55.5784   31.6065   43.9059 H   0  0  0  0  0  0  0  0  0  0  0  0
   55.7050   29.1810   43.3518 H   0  0  0  0  0  0  0  0  0  0  0  0
  1  2  2  0
  2  3  1  0
  3  4  1  0
  3  5  2  0
  5  6  1  0
  6  7  1  0
  7  8  2  0
  8  9  1  0
  9 10  2  0
 10 11  1  0
 11 12  1  0
 12 13  1  0
 13 14  2  0
 14 15  1  0
 15 16  2  0
 16 17  1  0
 17 18  2  0
 10 19  1  0
 19 20  2  0
  5 21  1  0
 21 22  2  0
 21  2  1  0
 20  7  1  0
 18 13  1  0
  6 23  1  0
  6 24  1  0
  8 25  1  0
  9 26  1  0
 11 27  1  0
 11 28  1  0
 12 29  1  0
 12 30  1  0
 14 31  1  0
 15 32  1  0
 16 33  1  0
 17 34  1  0
 18 35  1  0
 19 36  1  0
 20 37  1  0
M  CHG  2   4  -1   6   1
M  END
>  <UniqueID>  (31) 
29

>  <SMILES>  (31) 
O=c1c([O-])c([NH2+]c2ccc(CCc3ccccc3)cc2)c1=O

>  <Energy>  (31) 
28.22315187687065

>  <Genealogy>  (31) 
O=c1c([O-])c([NH2+]c2ccc(CCc3ccccc3)cc2)c1=O (protonated)
O=c1c([O-])c([NH2+]c2ccc(CCc3ccccc3)cc2)c1=O (3D coordinates assigned)
O=c1c([O-])c([NH2+]c2ccc(CCc3ccccc3)cc2)c1=O (optimized conformer: 28.22315187687065 kcal/mol)

>  <smiles>  (31) 
O=c1c(O)c(Nc2ccc(CCc3ccccc3)cc2)c1=O

>  <score_type>  (31) 
oracle

>  <origin>  (31) 
adg

>  <m_score__min__energy>  (31) 
-10.73

>  <m_primary>  (31) 
energy

$$$$
31:0
     RDKit          3D

 54 57  0  0  0  0  0  0  0  0999 V2000
   56.2990   25.3780   47.4970 O   0  0  0  0  0  0  0  0  0  0  0  0
   56.2360   25.7040   46.2810 C   0  0  0  0  0  0  0  0  0  0  0  0
   56.1430   27.0890   45.9140 N   0  0  0  0  0  0  0  0  0  0  0  0
   57.0480   27.7780   44.9890 C   0  0  2  0  0  0  0  0  0  0  0  0
   58.3320   26.9370   44.8000 C   0  0  0  0  0  0  0  0  0  0  0  0
   59.1900   26.8770   46.0350 C   0  0  0  0  0  0  0  0  0  0  0  0
   60.5830   26.8120   45.9970 C   0  0  0  0  0  0  0  0  0  0  0  0
   61.1340   26.7140   47.5840 S   0  0  0  0  0  0  0  0  0  0  0  0
   59.5950   26.7350   48.2570 C   0  0  0  0  0  0  0  0  0  0  0  0
   58.6580   26.8190   47.2890 N   0  0  0  0  0  0  0  0  0  0  0  0
   57.2990   29.1940   45.4670 C   0  0  0  0  0  0  0  0  0  0  0  0
   56.4510   30.0930   45.2120 O   0  0  0  0  0  0  0  0  0  0  0  0
   58.5150   29.5590   46.1300 N   0  0  0  0  0  0  0  0  0  0  0  0
   58.5050   29.7610   47.5810 C   0  0  0  0  0  0  0  0  0  0  0  0
   59.1890   31.0840   47.9330 C   0  0  0  0  0  0  0  0  0  0  0  0
   60.5180   31.1830   47.3090 N   0  0  0  0  0  0  0  0  0  0  0  0
   61.4970   32.0980   47.8550 C   0  0  0  0  0  0  0  0  0  0  0  0
   62.6860   32.3770   47.1550 C   0  0  0  0  0  0  0  0  0  0  0  0
   63.6300   33.2640   47.6820 C   0  0  0  0  0  0  0  0  0  0  0  0
   63.3960   33.8890   48.9090 C   0  0  0  0  0  0  0  0  0  0  0  0
   62.2200   33.6240   49.6140 C   0  0  0  0  0  0  0  0  0  0  0  0
   61.9940   34.2320   50.8050 F   0  0  0  0  0  0  0  0  0  0  0  0
   61.2750   32.7330   49.0940 C   0  0  0  0  0  0  0  0  0  0  0  0
   60.8830   30.2940   46.1920 C   0  0  0  0  0  0  0  0  0  0  0  0
   59.6630   29.9770   45.3190 C   0  0  0  0  0  0  0  0  0  0  0  0
   56.2540   24.6570   45.2320 C   0  0  0  0  0  0  0  0  0  0  0  0
   57.4460   23.9760   44.9170 C   0  0  0  0  0  0  0  0  0  0  0  0
   57.4570   22.9890   43.9260 C   0  0  0  0  0  0  0  0  0  0  0  0
   56.2830   22.6700   43.2400 C   0  0  0  0  0  0  0  0  0  0  0  0
   56.2970   21.7140   42.2790 F   0  0  0  0  0  0  0  0  0  0  0  0
   55.0930   23.3370   43.5440 C   0  0  0  0  0  0  0  0  0  0  0  0
   55.0770   24.3250   44.5340 C   0  0  0  0  0  0  0  0  0  0  0  0
   56.5906   27.8739   43.9932 H   0  0  0  0  0  0  0  0  0  0  0  0
   58.0412   25.9120   44.5265 H   0  0  0  0  0  0  0  0  0  0  0  0
   58.9271   27.4224   44.0125 H   0  0  0  0  0  0  0  0  0  0  0  0
   61.2087   26.8229   45.0924 H   0  0  0  0  0  0  0  0  0  0  0  0
   59.3809   26.6870   49.3349 H   0  0  0  0  0  0  0  0  0  0  0  0
   57.6340   26.8290   47.4920 H   0  0  0  0  0  0  0  0  0  0  0  0
   57.4648   29.7831   47.9380 H   0  0  0  0  0  0  0  0  0  0  0  0
   59.0490   28.9353   48.0630 H   0  0  0  0  0  0  0  0  0  0  0  0
   58.5636   31.9161   47.5774 H   0  0  0  0  0  0  0  0  0  0  0  0
   59.3145   31.1295   49.0249 H   0  0  0  0  0  0  0  0  0  0  0  0
   62.8742   31.8932   46.1852 H   0  0  0  0  0  0  0  0  0  0  0  0
   64.5585   33.4699   47.1292 H   0  0  0  0  0  0  0  0  0  0  0  0
   64.1378   34.5897   49.3199 H   0  0  0  0  0  0  0  0  0  0  0  0
   60.3522   32.5264   49.6559 H   0  0  0  0  0  0  0  0  0  0  0  0
   61.6481   30.7877   45.5749 H   0  0  0  0  0  0  0  0  0  0  0  0
   61.2706   29.3519   46.6069 H   0  0  0  0  0  0  0  0  0  0  0  0
   59.3887   30.8764   44.7482 H   0  0  0  0  0  0  0  0  0  0  0  0
   59.9277   29.1499   44.6438 H   0  0  0  0  0  0  0  0  0  0  0  0
   58.3741   24.2219   45.4537 H   0  0  0  0  0  0  0  0  0  0  0  0
   58.3927   22.4627   43.6863 H   0  0  0  0  0  0  0  0  0  0  0  0
   54.1683   23.0848   43.0043 H   0  0  0  0  0  0  0  0  0  0  0  0
   54.1376   24.8467   44.7691 H   0  0  0  0  0  0  0  0  0  0  0  0
  1  2  2  0
  2  3  1  0
  3  4  1  0
  4  5  1  0
  5  6  1  0
  6  7  2  0
  7  8  1  0
  8  9  1  0
  9 10  2  0
  4 11  1  0
 11 12  2  0
 11 13  1  0
 13 14  1  0
 14 15  1  0
 15 16  1  0
 16 17  1  0
 17 18  2  0
 18 19  1  0
 19 20  2  0
 20 21  1  0
 21 22  1  0
 21 23  2  0
 16 24  1  0
 24 25  1  0
  2 26  1  0
 26 27  2  0
 27 28  1  0
 28 29  2  0
 29 30  1  0
 29 31  1  0
 31 32  2  0
 10  6  1  0
 25 13  1  0
 32 26  1  0
 23 17  1  0
  4 33  1  6
  5 34  1  0
  5 35  1  0
  7 36  1  0
  9 37  1  0
 10 38  1  0
 14 39  1  0
 14 40  1  0
 15 41  1  0
 15 42  1  0
 18 43  1  0
 19 44  1  0
 20 45  1  0
 23 46  1  0
 24 47  1  0
 24 48  1  0
 25 49  1  0
 25 50  1  0
 27 51  1  0
 28 52  1  0
 31 53  1  0
 32 54  1  0
M  CHG  2   3  -1  10   1
M  END
>  <UniqueID>  (32) 
30

>  <SMILES>  (32) 
O=C([N-][C@H](Cc1csc[nH+]1)C(=O)N1CCN(c2cccc(F)c2)CC1)c1ccc(F)cc1

>  <Energy>  (32) 
93.23576718688862

>  <Genealogy>  (32) 
O=C([N-]C(Cc1csc[nH+]1)C(=O)N1CCN(c2cccc(F)c2)CC1)c1ccc(F)cc1 (protonated)
O=C([N-][C@H](Cc1csc[nH+]1)C(=O)N1CCN(c2cccc(F)c2)CC1)c1ccc(F)cc1 (chirality)
O=C([N-][C@H](Cc1csc[nH+]1)C(=O)N1CCN(c2cccc(F)c2)CC1)c1ccc(F)cc1 (3D coordinates assigned)
O=C([N-][C@H](Cc1csc[nH+]1)C(=O)N1CCN(c2cccc(F)c2)CC1)c1ccc(F)cc1 (nonaromatic ring conformer: 93.23576718688862 kcal/mol)

>  <smiles>  (32) 
O=C(NC(Cc1cscn1)C(=O)N1CCN(c2cccc(F)c2)CC1)c1ccc(F)cc1

>  <score_type>  (32) 
oracle

>  <origin>  (32) 
adg

>  <m_score__min__energy>  (32) 
-7.4400000000000004

>  <m_primary>  (32) 
energy

$$$$
32:0
     RDKit          3D

 41 44  0  0  0  0  0  0  0  0999 V2000
   61.8563   34.3286   46.0242 H   0  0  0  0  0  0  0  0  0  0  0  0
   60.8880   34.0590   46.4710 C   0  0  0  0  0  0  0  0  0  0  0  0
   60.8580   33.6200   47.7410 C   0  0  0  0  0  0  0  0  0  0  0  0
   62.1150   33.5510   48.5210 C   0  0  0  0  0  0  0  0  0  0  0  0
   62.2130   34.2140   49.7570 C   0  0  0  0  0  0  0  0  0  0  0  0
   61.3514   34.7765   50.1460 H   0  0  0  0  0  0  0  0  0  0  0  0
   63.4010   34.1620   50.4950 C   0  0  0  0  0  0  0  0  0  0  0  0
   63.4880   34.8090   51.6830 F   0  0  0  0  0  0  0  0  0  0  0  0
   64.4950   33.4450   50.0070 C   0  0  0  0  0  0  0  0  0  0  0  0
   65.4289   33.4062   50.5870 H   0  0  0  0  0  0  0  0  0  0  0  0
   64.4060   32.7770   48.7840 C   0  0  0  0  0  0  0  0  0  0  0  0
   65.2692   32.2109   48.4040 H   0  0  0  0  0  0  0  0  0  0  0  0
   63.2220   32.8260   48.0410 C   0  0  0  0  0  0  0  0  0  0  0  0
   63.1460   32.1350   46.8740 F   0  0  0  0  0  0  0  0  0  0  0  0
   59.5970   33.0280   48.3290 C   0  0  0  0  0  0  0  0  0  0  0  0
   59.6810   31.9313   48.3150 H   0  0  0  0  0  0  0  0  0  0  0  0
   59.4926   33.4094   49.3555 H   0  0  0  0  0  0  0  0  0  0  0  0
   58.3430   33.4370   47.5460 C   0  0  0  0  0  0  0  0  0  0  0  0
   57.5003   32.7991   47.8508 H   0  0  0  0  0  0  0  0  0  0  0  0
   58.1135   34.4910   47.7613 H   0  0  0  0  0  0  0  0  0  0  0  0
   58.5730   33.2810   46.0980 N   0  0  1  0  0  0  0  0  0  0  0  0
   58.8730   32.2940   45.9080 H   0  0  0  0  0  0  0  0  0  0  0  0
   57.3550   33.5330   45.3640 C   0  0  0  0  0  0  0  0  0  0  0  0
   56.9750   34.7200   45.1570 O   0  0  0  0  0  0  0  0  0  0  0  0
   56.5930   32.4220   44.8630 N   0  0  0  0  0  0  0  0  0  0  0  0
   57.0100   31.1980   44.7390 C   0  0  0  0  0  0  0  0  0  0  0  0
   57.6880   30.5230   45.7000 N   0  0  0  0  0  0  0  0  0  0  0  0
   57.9900   29.2680   45.2810 C   0  0  0  0  0  0  0  0  0  0  0  0
   58.6840   28.3260   46.0430 C   0  0  0  0  0  0  0  0  0  0  0  0
   59.0308   28.5715   47.0576 H   0  0  0  0  0  0  0  0  0  0  0  0
   58.9310   27.0580   45.4890 C   0  0  0  0  0  0  0  0  0  0  0  0
   59.8010   25.8530   46.4230 Cl  0  0  0  0  0  0  0  0  0  0  0  0
   58.4850   26.7480   44.1870 C   0  0  0  0  0  0  0  0  0  0  0  0
   58.6841   25.7529   43.7626 H   0  0  0  0  0  0  0  0  0  0  0  0
   57.7880   27.7040   43.4300 C   0  0  0  0  0  0  0  0  0  0  0  0
   57.4362   27.4735   42.4136 H   0  0  0  0  0  0  0  0  0  0  0  0
   57.5550   28.9510   44.0020 C   0  0  0  0  0  0  0  0  0  0  0  0
   56.7590   30.2750   43.3430 S   0  0  0  0  0  0  0  0  0  0  0  0
   59.6390   34.1940   45.6390 C   0  0  0  0  0  0  0  0  0  0  0  0
   59.8817   33.9601   44.5919 H   0  0  0  0  0  0  0  0  0  0  0  0
   59.2717   35.2260   45.7387 H   0  0  0  0  0  0  0  0  0  0  0  0
  1  2  1  0
  2  3  2  0
  3  4  1  0
  4  5  2  0
  5  6  1  0
  5  7  1  0
  7  8  1  0
  7  9  2  0
  9 10  1  0
  9 11  1  0
 11 12  1  0
 11 13  2  0
 13 14  1  0
  3 15  1  0
 15 16  1  0
 15 17  1  0
 15 18  1  0
 18 19  1  0
 18 20  1  0
 18 21  1  0
 21 22  1  1
 21 23  1  0
 23 24  2  0
 23 25  1  0
 25 26  2  0
 26 27  1  0
 27 28  1  0
 28 29  2  0
 29 30  1  0
 29 31  1  0
 31 32  1  0
 31 33  2  0
 33 34  1  0
 33 35  1  0
 35 36  1  0
 35 37  2  0
 37 38  1  0
 21 39  1  0
 39 40  1  0
 39 41  1  0
 39  2  1  0
 13  4  1  0
 38 26  1  0
 37 28  1  0
M  CHG  2  21   1  27  -1
M  END
>  <UniqueID>  (33) 
31

>  <SMILES>  (33) 
O=C(/N=c1\[n-]c2cc(Cl)ccc2s1)[N@H+]1CC=C(c2cc(F)ccc2F)CC1

>  <Energy>  (33) 
91.61868604262112

>  <Genealogy>  (33) 
O=C(N=c1[n-]c2cc(Cl)ccc2s1)[NH+]1CC=C(c2cc(F)ccc2F)CC1 (protonated)
O=C(N=c1[n-]c2cc(Cl)ccc2s1)[N@H+]1CC=C(c2cc(F)ccc2F)CC1 (chirality)
O=C(/N=c1\[n-]c2cc(Cl)ccc2s1)[N@H+]1CC=C(c2cc(F)ccc2F)CC1 (cis-trans isomerization)
O=C(/N=c1\[n-]c2cc(Cl)ccc2s1)[N@H+]1CC=C(c2cc(F)ccc2F)CC1 (3D coordinates assigned)
O=C(/N=c1\[n-]c2cc(Cl)ccc2s1)[N@H+]1CC=C(c2cc(F)ccc2F)CC1 (nonaromatic ring conformer: 91.61868604262112 kcal/mol)

>  <smiles>  (33) 
O=C(N=c1[nH]c2cc(Cl)ccc2s1)N1CC=C(c2cc(F)ccc2F)CC1

>  <score_type>  (33) 
oracle

>  <origin>  (33) 
adg

>  <m_score__min__energy>  (33) 
-8.4900000000000002

>  <m_primary>  (33) 
energy

$$$$
33:0
     RDKit          3D

 46 49  0  0  0  0  0  0  0  0999 V2000
   60.6480   30.1620   47.9920 C   0  0  0  0  0  0  0  0  0  0  0  0
   59.5640   29.8780   46.9940 C   0  0  0  0  0  0  0  0  0  0  0  0
   58.8880   28.6520   47.0270 C   0  0  0  0  0  0  0  0  0  0  0  0
   57.9160   28.3570   46.0720 C   0  0  0  0  0  0  0  0  0  0  0  0
   57.6060   29.2830   45.0660 C   0  0  0  0  0  0  0  0  0  0  0  0
   56.6440   28.9670   44.0980 C   0  0  0  0  0  0  0  0  0  0  0  0
   56.3410   29.8750   43.0860 C   0  0  0  0  0  0  0  0  0  0  0  0
   56.9850   31.1110   43.0350 C   0  0  0  0  0  0  0  0  0  0  0  0
   57.9500   31.4630   43.9950 C   0  0  0  0  0  0  0  0  0  0  0  0
   58.5520   32.7700   43.9520 N   0  0  0  0  0  0  0  0  0  0  0  0
   58.2290   33.9900   45.1430 S   0  0  0  0  0  0  0  0  0  0  0  0
   56.8240   33.8210   45.6490 O   0  0  0  0  0  0  0  0  0  0  0  0
   58.3570   35.3460   44.5080 O   0  0  0  0  0  0  0  0  0  0  0  0
   59.3770   33.8580   46.4700 C   0  0  0  0  0  0  0  0  0  0  0  0
   58.9210   33.8620   47.7930 C   0  0  0  0  0  0  0  0  0  0  0  0
   59.8280   33.7710   48.8500 C   0  0  0  0  0  0  0  0  0  0  0  0
   61.2060   33.6800   48.6010 C   0  0  0  0  0  0  0  0  0  0  0  0
   61.6700   33.6420   47.2640 C   0  0  0  0  0  0  0  0  0  0  0  0
   60.7490   33.7490   46.2100 C   0  0  0  0  0  0  0  0  0  0  0  0
   63.1450   33.6010   46.9410 C   0  0  0  0  0  0  0  0  0  0  0  0
   63.9920   33.0990   48.1140 C   0  0  0  0  0  0  0  0  0  0  0  0
   63.6030   33.8260   49.4010 C   0  0  0  0  0  0  0  0  0  0  0  0
   62.1490   33.5160   49.7690 C   0  0  0  0  0  0  0  0  0  0  0  0
   58.2770   30.5360   45.0190 C   0  0  0  0  0  0  0  0  0  0  0  0
   59.2730   30.8050   45.9810 C   0  0  0  0  0  0  0  0  0  0  0  0
   60.2456   30.0566   49.0103 H   0  0  0  0  0  0  0  0  0  0  0  0
   61.4741   29.4500   47.8486 H   0  0  0  0  0  0  0  0  0  0  0  0
   61.0189   31.1876   47.8486 H   0  0  0  0  0  0  0  0  0  0  0  0
   59.1252   27.9176   47.8108 H   0  0  0  0  0  0  0  0  0  0  0  0
   57.3892   27.3920   46.1080 H   0  0  0  0  0  0  0  0  0  0  0  0
   56.1256   27.9976   44.1372 H   0  0  0  0  0  0  0  0  0  0  0  0
   55.5909   29.6162   42.3242 H   0  0  0  0  0  0  0  0  0  0  0  0
   56.7344   31.8204   42.2325 H   0  0  0  0  0  0  0  0  0  0  0  0
   59.2190   33.0160   43.1900 H   0  0  0  0  0  0  0  0  0  0  0  0
   57.8434   33.9372   48.0008 H   0  0  0  0  0  0  0  0  0  0  0  0
   59.4597   33.7706   49.8865 H   0  0  0  0  0  0  0  0  0  0  0  0
   61.1081   33.7472   45.1703 H   0  0  0  0  0  0  0  0  0  0  0  0
   63.2991   32.9302   46.0829 H   0  0  0  0  0  0  0  0  0  0  0  0
   63.4649   34.6290   46.7155 H   0  0  0  0  0  0  0  0  0  0  0  0
   63.8277   32.0191   48.2438 H   0  0  0  0  0  0  0  0  0  0  0  0
   65.0525   33.2966   47.8989 H   0  0  0  0  0  0  0  0  0  0  0  0
   64.2621   33.4958   50.2175 H   0  0  0  0  0  0  0  0  0  0  0  0
   63.7090   34.9098   49.2453 H   0  0  0  0  0  0  0  0  0  0  0  0
   62.0899   32.4773   50.1262 H   0  0  0  0  0  0  0  0  0  0  0  0
   61.8428   34.2309   50.5469 H   0  0  0  0  0  0  0  0  0  0  0  0
   59.8287   31.7533   45.9367 H   0  0  0  0  0  0  0  0  0  0  0  0
  1  2  1  0
  2  3  2  0
  3  4  1  0
  4  5  2  0
  5  6  1  0
  6  7  2  0
  7  8  1  0
  8  9  2  0
  9 10  1  0
 10 11  1  0
 11 12  2  0
 11 13  2  0
 11 14  1  0
 14 15  2  0
 15 16  1  0
 16 17  2  0
 17 18  1  0
 18 19  2  0
 18 20  1  0
 20 21  1  0
 21 22  1  0
 22 23  1  0
  9 24  1  0
 24 25  2  0
 25  2  1  0
 24  5  1  0
 19 14  1  0
 23 17  1  0
  1 26  1  0
  1 27  1  0
  1 28  1  0
  3 29  1  0
  4 30  1  0
  6 31  1  0
  7 32  1  0
  8 33  1  0
 10 34  1  0
 15 35  1  0
 16 36  1  0
 19 37  1  0
 20 38  1  0
 20 39  1  0
 21 40  1  0
 21 41  1  0
 22 42  1  0
 22 43  1  0
 23 44  1  0
 23 45  1  0
 25 46  1  0
M  END
>  <UniqueID>  (34) 
32

>  <SMILES>  (34) 
Cc1ccc2cccc(NS(=O)(=O)c3ccc4c(c3)CCCC4)c2c1

>  <Energy>  (34) 
57.4594157044559

>  <Genealogy>  (34) 
Cc1ccc2cccc(NS(=O)(=O)c3ccc4c(c3)CCCC4)c2c1 (3D coordinates assigned)
Cc1ccc2cccc(NS(=O)(=O)c3ccc4c(c3)CCCC4)c2c1 (nonaromatic ring conformer: 57.4594157044559 kcal/mol)

>  <smiles>  (34) 
Cc1ccc2cccc(NS(=O)(=O)c3ccc4c(c3)CCCC4)c2c1

>  <score_type>  (34) 
oracle

>  <origin>  (34) 
adg

>  <m_score__min__energy>  (34) 
-10.09

>  <m_primary>  (34) 
energy

$$$$
34:0
     RDKit          3D

 61 63  0  0  1  0  0  0  0  0999 V2000
   61.9370   30.8860   49.6500 C   0  0  0  0  0  0  0  0  0  0  0  0
   61.0740   30.2160   48.6440 C   0  0  0  0  0  0  0  0  0  0  0  0
   61.2300   30.5330   47.3250 C   0  0  0  0  0  0  0  0  0  0  0  0
   60.4280   29.9140   46.3920 C   0  0  0  0  0  0  0  0  0  0  0  0
   59.4630   28.9780   46.7270 C   0  0  0  0  0  0  0  0  0  0  0  0
   58.6550   28.3630   45.7270 N   0  0  0  0  0  0  0  0  0  0  0  0
   57.9310   29.1240   44.9960 C   0  0  0  0  0  0  0  0  0  0  0  0
   57.4100   28.5960   43.8650 N   0  0  0  0  0  0  0  0  0  0  0  0
   56.6350   29.3070   43.0210 C   0  0  0  0  0  0  0  0  0  0  0  0
   56.3740   30.6240   43.3440 C   0  0  0  0  0  0  0  0  0  0  0  0
   56.8920   31.1870   44.4900 C   0  0  0  0  0  0  0  0  0  0  0  0
   56.6990   32.3890   44.8550 N   0  0  0  0  0  0  0  0  0  0  0  0
   57.6980   33.2220   45.4540 C   0  0  0  0  0  0  0  0  0  0  0  0
   58.3310   34.2330   44.7600 C   0  0  0  0  0  0  0  0  0  0  0  0
   59.2840   34.9860   45.4210 C   0  0  0  0  0  0  0  0  0  0  0  0
   59.5880   34.7190   46.7560 C   0  0  0  0  0  0  0  0  0  0  0  0
   58.9400   33.6990   47.4380 C   0  0  0  0  0  0  0  0  0  0  0  0
   59.3220   33.4880   48.8320 C   0  0  0  0  0  0  0  0  0  0  0  0
   60.3750   34.0010   49.2380 O   0  0  0  0  0  0  0  0  0  0  0  0
   58.5280   32.7190   49.7300 N   0  0  0  0  0  0  0  0  0  0  0  0
   59.0000   32.5700   51.0980 C   0  0  0  0  0  0  0  0  0  0  0  0
   57.8510   32.2070   52.0200 C   0  0  0  0  0  0  0  0  0  0  0  0
   57.8190   30.7560   52.3570 C   0  0  0  0  0  0  0  0  0  0  0  0
   56.6080   30.0890   51.9350 N   0  0  0  0  0  0  0  0  0  0  0  0
   56.4020   29.0070   52.8800 C   0  0  0  0  0  0  0  0  0  0  0  0
   55.4580   30.9350   51.9560 C   0  0  0  0  0  0  0  0  0  0  0  0
   57.9970   32.9540   46.7820 C   0  0  0  0  0  0  0  0  0  0  0  0
   57.6620   30.4110   45.2880 N   0  0  0  0  0  0  0  0  0  0  0  0
   59.3230   28.6730   48.0760 C   0  0  0  0  0  0  0  0  0  0  0  0
   60.1320   29.2980   49.0110 C   0  0  0  0  0  0  0  0  0  0  0  0
   59.9880   28.9770   50.4700 C   0  0  0  0  0  0  0  0  0  0  0  0
   61.5952   30.6206   50.6613 H   0  0  0  0  0  0  0  0  0  0  0  0
   62.9783   30.5574   49.5169 H   0  0  0  0  0  0  0  0  0  0  0  0
   61.8767   31.9763   49.5169 H   0  0  0  0  0  0  0  0  0  0  0  0
   61.9839   31.2707   47.0127 H   0  0  0  0  0  0  0  0  0  0  0  0
   60.5597   30.1749   45.3315 H   0  0  0  0  0  0  0  0  0  0  0  0
   57.6030   27.5910   43.6100 H   0  0  0  0  0  0  0  0  0  0  0  0
   56.2248   28.8535   42.1066 H   0  0  0  0  0  0  0  0  0  0  0  0
   55.7442   31.2317   42.6776 H   0  0  0  0  0  0  0  0  0  0  0  0
   58.0837   34.4348   43.7073 H   0  0  0  0  0  0  0  0  0  0  0  0
   59.8042   35.7983   44.8923 H   0  0  0  0  0  0  0  0  0  0  0  0
   60.3485   35.3227   47.2729 H   0  0  0  0  0  0  0  0  0  0  0  0
   57.6390   32.2790   49.4150 H   0  0  0  0  0  0  0  0  0  0  0  0
   59.7587   31.7743   51.1345 H   0  0  0  0  0  0  0  0  0  0  0  0
   59.4349   33.5242   51.4302 H   0  0  0  0  0  0  0  0  0  0  0  0
   57.9527   32.7823   52.9520 H   0  0  0  0  0  0  0  0  0  0  0  0
   56.9151   32.4460   51.4937 H   0  0  0  0  0  0  0  0  0  0  0  0
   58.6739   30.2666   51.8674 H   0  0  0  0  0  0  0  0  0  0  0  0
   57.8635   30.6791   53.4534 H   0  0  0  0  0  0  0  0  0  0  0  0
   56.4763   29.3970   53.9059 H   0  0  0  0  0  0  0  0  0  0  0  0
   55.4045   28.5699   52.7252 H   0  0  0  0  0  0  0  0  0  0  0  0
   57.1691   28.2340   52.7252 H   0  0  0  0  0  0  0  0  0  0  0  0
   55.1750   31.1432   52.9984 H   0  0  0  0  0  0  0  0  0  0  0  0
   55.6888   31.8802   51.4429 H   0  0  0  0  0  0  0  0  0  0  0  0
   54.6243   30.4333   51.4429 H   0  0  0  0  0  0  0  0  0  0  0  0
   57.4754   32.1414   47.3089 H   0  0  0  0  0  0  0  0  0  0  0  0
   58.0730   30.8220   46.1760 H   0  0  0  0  0  0  0  0  0  0  0  0
   58.5720   27.9375   48.4002 H   0  0  0  0  0  0  0  0  0  0  0  0
   60.3655   29.8185   51.0696 H   0  0  0  0  0  0  0  0  0  0  0  0
   58.9270   28.8062   50.7049 H   0  0  0  0  0  0  0  0  0  0  0  0
   60.5660   28.0710   50.7049 H   0  0  0  0  0  0  0  0  0  0  0  0
  1  2  1  0
  2  3  2  0
  3  4  1  0
  4  5  2  0
  5  6  1  0
  6  7  2  0
  7  8  1  0
  8  9  1  0
  9 10  2  0
 10 11  1  0
 11 12  2  0
 12 13  1  0
 13 14  2  0
 14 15  1  0
 15 16  2  0
 16 17  1  0
 17 18  1  0
 18 19  2  0
 18 20  1  0
 20 21  1  0
 21 22  1  0
 22 23  1  0
 23 24  1  0
 24 25  1  0
 24 26  1  0
 17 27  2  0
 11 28  1  0
  5 29  1  0
 29 30  2  0
 30 31  1  0
 30  2  1  0
 28  7  1  0
 27 13  1  0
  1 32  1  0
  1 33  1  0
  1 34  1  0
  3 35  1  0
  4 36  1  0
  8 37  1  0
  9 38  1  0
 10 39  1  0
 14 40  1  0
 15 41  1  0
 16 42  1  0
 20 43  1  0
 21 44  1  0
 21 45  1  0
 22 46  1  0
 22 47  1  0
 23 48  1  0
 23 49  1  0
 25 50  1  0
 25 51  1  0
 25 52  1  0
 26 53  1  0
 26 54  1  0
 26 55  1  0
 27 56  1  0
 28 57  1  0
 29 58  1  0
 31 59  1  0
 31 60  1  0
 31 61  1  0
M  END
>  <smiles>  (35) 
Cc1ccc(N=c2[nH]ccc(=Nc3cccc(C(=O)NCCCN(C)C)c3)[nH]2)cc1C

>  <score_type>  (35) 
oracle

>  <origin>  (35) 
adg

>  <m_score__min__energy>  (35) 
-9.6699999999999999

>  <m_primary>  (35) 
energy

$$$$
35:0
     RDKit          3D

 28 30  0  0  0  0  0  0  0  0999 V2000
   57.7680   32.6870   47.5380 O   0  0  0  0  0  0  0  0  0  0  0  0
   58.6300   33.1130   46.3850 S   0  0  0  0  0  0  0  0  0  0  0  0
   58.3700   34.6040   46.2190 O   0  0  0  0  0  0  0  0  0  0  0  0
   60.3180   32.9060   46.7140 C   0  0  0  0  0  0  0  0  0  0  0  0
   60.7670   31.7030   47.2330 C   0  0  0  0  0  0  0  0  0  0  0  0
   62.1210   31.5650   47.4870 C   0  0  0  0  0  0  0  0  0  0  0  0
   63.0340   32.5750   47.2420 C   0  0  0  0  0  0  0  0  0  0  0  0
   62.5840   33.7770   46.7240 C   0  0  0  0  0  0  0  0  0  0  0  0
   61.2300   33.9180   46.4680 C   0  0  0  0  0  0  0  0  0  0  0  0
   58.1220   32.3090   44.9020 C   0  0  0  0  0  0  0  0  0  0  0  0
   58.1810   32.9910   43.7040 C   0  0  0  0  0  0  0  0  0  0  0  0
   57.7820   32.3520   42.5560 C   0  0  0  0  0  0  0  0  0  0  0  0
   57.3300   31.0410   42.6190 C   0  0  0  0  0  0  0  0  0  0  0  0
   57.2840   30.3800   43.8510 C   0  0  0  0  0  0  0  0  0  0  0  0
   56.8830   29.1110   44.1480 N   0  0  0  0  0  0  0  0  0  0  0  0
   57.0310   28.9550   45.4810 C   0  0  0  0  0  0  0  0  0  0  0  0
   57.5160   30.1120   45.9980 N   0  0  0  0  0  0  0  0  0  0  0  0
   57.6800   31.0050   45.0050 C   0  0  0  0  0  0  0  0  0  0  0  0
   60.0669   30.8796   47.4378 H   0  0  0  0  0  0  0  0  0  0  0  0
   62.4857   30.6132   47.9006 H   0  0  0  0  0  0  0  0  0  0  0  0
   64.1025   32.4249   47.4559 H   0  0  0  0  0  0  0  0  0  0  0  0
   63.2846   34.6003   46.5206 H   0  0  0  0  0  0  0  0  0  0  0  0
   60.8658   34.8697   46.0537 H   0  0  0  0  0  0  0  0  0  0  0  0
   58.5418   34.0296   43.6692 H   0  0  0  0  0  0  0  0  0  0  0  0
   57.8204   32.8769   41.5901 H   0  0  0  0  0  0  0  0  0  0  0  0
   57.0090   30.5235   41.7030 H   0  0  0  0  0  0  0  0  0  0  0  0
   56.5330   28.4210   43.4350 H   0  0  0  0  0  0  0  0  0  0  0  0
   56.7978   28.0439   46.0515 H   0  0  0  0  0  0  0  0  0  0  0  0
  1  2  2  0
  2  3  2  0
  2  4  1  0
  4  5  2  0
  5  6  1  0
  6  7  2  0
  7  8  1  0
  8  9  2  0
  2 10  1  0
 10 11  2  0
 11 12  1  0
 12 13  2  0
 13 14  1  0
 14 15  1  0
 15 16  1  0
 16 17  2  0
 17 18  1  0
  9  4  1  0
 18 10  1  0
 18 14  2  0
  5 19  1  0
  6 20  1  0
  7 21  1  0
  8 22  1  0
  9 23  1  0
 11 24  1  0
 12 25  1  0
 13 26  1  0
 15 27  1  0
 16 28  1  0
M  END
>  <smiles>  (36) 
O=S(=O)(c1ccccc1)c1cccc2[nH]cnc12

>  <score_type>  (36) 
oracle

>  <origin>  (36) 
adg

>  <m_score__min__energy>  (36) 
-7.1600000000000001

>  <m_primary>  (36) 
energy

$$$$
36:0
     RDKit          3D

 38 39  0  0  0  0  0  0  0  0999 V2000
   50.4150   33.0020   54.4740 C   0  0  0  0  0  0  0  0  0  0  0  0
   51.2590   31.9960   53.7430 C   0  0  0  0  0  0  0  0  0  0  0  0
   52.1030   31.1360   54.4610 C   0  0  0  0  0  0  0  0  0  0  0  0
   52.8680   30.1680   53.8020 C   0  0  0  0  0  0  0  0  0  0  0  0
   53.7070   29.3090   54.5860 N   0  0  0  0  0  0  0  0  0  0  0  0
   55.3480   29.6470   55.0320 S   0  0  0  0  0  0  0  0  0  0  0  0
   55.3720   30.8320   55.9570 O   0  0  0  0  0  0  0  0  0  0  0  0
   55.9190   28.4570   55.7480 O   0  0  0  0  0  0  0  0  0  0  0  0
   56.3100   29.9620   53.5920 C   0  0  0  0  0  0  0  0  0  0  0  0
   55.9600   31.0120   52.7320 C   0  0  0  0  0  0  0  0  0  0  0  0
   56.7300   31.2770   51.5950 C   0  0  0  0  0  0  0  0  0  0  0  0
   57.8580   30.4970   51.3110 C   0  0  0  0  0  0  0  0  0  0  0  0
   58.8290   30.8170   49.8780 S   0  0  0  0  0  0  0  0  0  0  0  0
   60.5540   30.7050   50.2980 C   0  0  0  0  0  0  0  0  0  0  0  0
   58.5140   29.8160   48.8040 O   0  0  0  0  0  0  0  0  0  0  0  0
   58.5230   32.1940   49.3600 O   0  0  0  0  0  0  0  0  0  0  0  0
   58.2020   29.4410   52.1650 C   0  0  0  0  0  0  0  0  0  0  0  0
   57.4310   29.1740   53.3000 C   0  0  0  0  0  0  0  0  0  0  0  0
   52.7860   30.0610   52.4030 C   0  0  0  0  0  0  0  0  0  0  0  0
   51.9380   30.9060   51.6710 C   0  0  0  0  0  0  0  0  0  0  0  0
   51.8300   30.7590   50.1790 C   0  0  0  0  0  0  0  0  0  0  0  0
   51.1640   31.8660   52.3450 C   0  0  0  0  0  0  0  0  0  0  0  0
   50.3000   32.6890   51.6280 O   0  0  0  0  0  0  0  0  0  0  0  0
   50.5333   32.8610   55.5585 H   0  0  0  0  0  0  0  0  0  0  0  0
   50.7350   34.0179   54.1993 H   0  0  0  0  0  0  0  0  0  0  0  0
   49.3589   32.8634   54.1993 H   0  0  0  0  0  0  0  0  0  0  0  0
   52.1640   31.2239   55.5558 H   0  0  0  0  0  0  0  0  0  0  0  0
   55.0768   31.6296   52.9521 H   0  0  0  0  0  0  0  0  0  0  0  0
   56.4489   32.1004   50.9219 H   0  0  0  0  0  0  0  0  0  0  0  0
   60.6652   30.6978   51.3923 H   0  0  0  0  0  0  0  0  0  0  0  0
   60.9735   29.7777   49.8807 H   0  0  0  0  0  0  0  0  0  0  0  0
   61.0899   31.5702   49.8807 H   0  0  0  0  0  0  0  0  0  0  0  0
   59.0819   28.8198   51.9416 H   0  0  0  0  0  0  0  0  0  0  0  0
   57.7053   28.3426   53.9660 H   0  0  0  0  0  0  0  0  0  0  0  0
   53.3919   29.3083   51.8773 H   0  0  0  0  0  0  0  0  0  0  0  0
   51.1942   29.8935   49.9409 H   0  0  0  0  0  0  0  0  0  0  0  0
   51.3846   31.6697   49.7521 H   0  0  0  0  0  0  0  0  0  0  0  0
   52.8322   30.6062   49.7521 H   0  0  0  0  0  0  0  0  0  0  0  0
  1  2  1  0
  2  3  2  0
  3  4  1  0
  4  5  1  0
  5  6  1  0
  6  7  2  0
  6  8  2  0
  6  9  1  0
  9 10  2  0
 10 11  1  0
 11 12  2  0
 12 13  1  0
 13 14  1  0
 13 15  2  0
 13 16  2  0
 12 17  1  0
 17 18  2  0
  4 19  2  0
 19 20  1  0
 20 21  1  0
 20 22  2  0
 22 23  1  0
 22  2  1  0
 18  9  1  0
  1 24  1  0
  1 25  1  0
  1 26  1  0
  3 27  1  0
 10 28  1  0
 11 29  1  0
 14 30  1  0
 14 31  1  0
 14 32  1  0
 17 33  1  0
 18 34  1  0
 19 35  1  0
 21 36  1  0
 21 37  1  0
 21 38  1  0
M  CHG  2   5  -1  23  -1
M  END
>  <UniqueID>  (37) 
33

>  <SMILES>  (37) 
Cc1cc([N-]S(=O)(=O)c2ccc(S(C)(=O)=O)cc2)cc(C)c1[O-]

>  <Energy>  (37) 
38.10917650179433

>  <Genealogy>  (37) 
Cc1cc([N-]S(=O)(=O)c2ccc(S(C)(=O)=O)cc2)cc(C)c1[O-] (protonated)
Cc1cc([N-]S(=O)(=O)c2ccc(S(C)(=O)=O)cc2)cc(C)c1[O-] (3D coordinates assigned)
Cc1cc([N-]S(=O)(=O)c2ccc(S(C)(=O)=O)cc2)cc(C)c1[O-] (optimized conformer: 38.10917650179433 kcal/mol)

>  <smiles>  (37) 
Cc1cc(NS(=O)(=O)c2ccc(S(C)(=O)=O)cc2)cc(C)c1O

>  <score_type>  (37) 
oracle

>  <origin>  (37) 
adg

>  <m_score__min__energy>  (37) 
-11.390000000000001

>  <m_primary>  (37) 
energy

$$$$
37:0
     RDKit          3D

 36 38  0  0  0  0  0  0  0  0999 V2000
   56.6560   34.9270   44.5040 F   0  0  0  0  0  0  0  0  0  0  0  0
   57.5520   34.1040   45.1010 C   0  0  0  0  0  0  0  0  0  0  0  0
   57.2430   32.7550   45.2940 C   0  0  0  0  0  0  0  0  0  0  0  0
   58.1660   31.9050   45.9120 C   0  0  0  0  0  0  0  0  0  0  0  0
   59.4110   32.3980   46.3260 C   0  0  0  0  0  0  0  0  0  0  0  0
   60.3800   31.4930   46.9860 C   0  0  0  0  0  0  0  0  0  0  0  0
   61.4370   31.9700   47.6750 C   0  0  0  0  0  0  0  0  0  0  0  0
   62.8580   31.5010   47.5090 C   0  0  0  0  0  0  0  0  0  0  0  0
   63.7670   32.6960   47.2020 C   0  0  0  0  0  0  0  0  0  0  0  0
   63.1250   33.8270   46.4150 C   0  0  0  0  0  0  0  0  0  0  0  0
   63.3880   33.9900   47.9040 C   0  0  0  0  0  0  0  0  0  0  0  0
   60.1690   30.0240   46.8640 C   0  0  0  0  0  0  0  0  0  0  0  0
   59.6540   29.2920   47.9490 C   0  0  0  0  0  0  0  0  0  0  0  0
   59.4500   27.9140   47.8410 C   0  0  0  0  0  0  0  0  0  0  0  0
   59.7480   27.2510   46.6480 C   0  0  0  0  0  0  0  0  0  0  0  0
   59.5500   25.9140   46.5470 F   0  0  0  0  0  0  0  0  0  0  0  0
   60.2490   27.9670   45.5600 C   0  0  0  0  0  0  0  0  0  0  0  0
   60.4570   29.3450   45.6630 C   0  0  0  0  0  0  0  0  0  0  0  0
   59.7120   33.7570   46.1430 C   0  0  0  0  0  0  0  0  0  0  0  0
   58.7860   34.6050   45.5280 C   0  0  0  0  0  0  0  0  0  0  0  0
   56.2721   32.3608   44.9593 H   0  0  0  0  0  0  0  0  0  0  0  0
   57.9141   30.8465   46.0736 H   0  0  0  0  0  0  0  0  0  0  0  0
   61.2463   32.7618   48.4143 H   0  0  0  0  0  0  0  0  0  0  0  0
   63.1934   31.0163   48.4378 H   0  0  0  0  0  0  0  0  0  0  0  0
   62.9085   30.7833   46.6770 H   0  0  0  0  0  0  0  0  0  0  0  0
   64.6873   32.1026   47.0969 H   0  0  0  0  0  0  0  0  0  0  0  0
   63.7199   34.3965   45.6858 H   0  0  0  0  0  0  0  0  0  0  0  0
   62.2414   33.9196   45.7664 H   0  0  0  0  0  0  0  0  0  0  0  0
   64.1731   34.6774   48.2519 H   0  0  0  0  0  0  0  0  0  0  0  0
   62.7735   34.2494   48.7787 H   0  0  0  0  0  0  0  0  0  0  0  0
   59.4101   29.8081   48.8893 H   0  0  0  0  0  0  0  0  0  0  0  0
   59.0536   27.3495   48.6979 H   0  0  0  0  0  0  0  0  0  0  0  0
   60.4806   27.4457   44.6195 H   0  0  0  0  0  0  0  0  0  0  0  0
   60.8484   29.9040   44.8003 H   0  0  0  0  0  0  0  0  0  0  0  0
   60.6788   34.1556   46.4843 H   0  0  0  0  0  0  0  0  0  0  0  0
   59.0283   35.6677   45.3798 H   0  0  0  0  0  0  0  0  0  0  0  0
  1  2  1  0
  2  3  2  0
  3  4  1  0
  4  5  2  0
  5  6  1  0
  6  7  2  3
  7  8  1  0
  8  9  1  0
  9 10  1  0
 10 11  1  0
  6 12  1  0
 12 13  2  0
 13 14  1  0
 14 15  2  0
 15 16  1  0
 15 17  1  0
 17 18  2  0
  5 19  1  0
 19 20  2  0
 20  2  1  0
 11  9  1  0
 18 12  1  0
  3 21  1  0
  4 22  1  0
  7 23  1  0
  8 24  1  0
  8 25  1  0
  9 26  1  0
 10 27  1  0
 10 28  1  0
 11 29  1  0
 11 30  1  0
 13 31  1  0
 14 32  1  0
 17 33  1  0
 18 34  1  0
 19 35  1  0
 20 36  1  0
M  END
>  <UniqueID>  (38) 
34

>  <SMILES>  (38) 
Fc1ccc(C(=CCC2CC2)c2ccc(F)cc2)cc1

>  <Energy>  (38) 
311.0482916657857

>  <Genealogy>  (38) 
Fc1ccc(C(=CCC2CC2)c2ccc(F)cc2)cc1 (3D coordinates assigned)
Fc1ccc(C(=CCC2CC2)c2ccc(F)cc2)cc1 (nonaromatic ring conformer: 311.0482916657857 kcal/mol)

>  <smiles>  (38) 
Fc1ccc(C(=CCC2CC2)c2ccc(F)cc2)cc1

>  <score_type>  (38) 
oracle

>  <origin>  (38) 
adg

>  <m_score__min__energy>  (38) 
-6.54

>  <m_primary>  (38) 
energy

$$$$
38:0
     RDKit          3D

 47 50  0  0  0  0  0  0  0  0999 V2000
   54.8720   24.5060   46.3660 O   0  0  0  0  0  0  0  0  0  0  0  0
   55.8350   25.2600   46.0700 C   0  0  0  0  0  0  0  0  0  0  0  0
   57.2340   24.7150   46.0210 C   0  0  0  0  0  0  0  0  0  0  0  0
   58.1030   25.5480   45.2450 O   0  0  0  0  0  0  0  0  0  0  0  0
   57.9100   26.9280   45.1010 C   0  0  0  0  0  0  0  0  0  0  0  0
   58.9440   27.7340   44.6220 C   0  0  0  0  0  0  0  0  0  0  0  0
   58.7470   29.1110   44.4710 C   0  0  0  0  0  0  0  0  0  0  0  0
   57.5050   29.6960   44.7840 C   0  0  0  0  0  0  0  0  0  0  0  0
   57.3170   31.1590   44.6190 C   0  0  0  0  0  0  0  0  0  0  0  0
   56.1440   31.6090   44.5030 O   0  0  0  0  0  0  0  0  0  0  0  0
   58.5050   32.1030   44.5250 C   0  0  0  0  0  0  0  0  0  0  0  0
   59.1100   32.4810   45.8280 N   0  0  0  0  0  0  0  0  0  0  0  0
   60.0000   31.4170   46.3750 C   0  0  0  0  0  0  0  0  0  0  0  0
   61.1440   31.9560   47.2550 C   0  0  0  0  0  0  0  0  0  0  0  0
   60.7360   33.1790   47.9530 N   0  0  0  0  0  0  0  0  0  0  0  0
   61.1250   33.3880   49.3170 C   0  0  0  0  0  0  0  0  0  0  0  0
   60.1480   33.4220   50.3250 C   0  0  0  0  0  0  0  0  0  0  0  0
   60.5160   33.6320   51.6570 C   0  0  0  0  0  0  0  0  0  0  0  0
   59.2900   33.6790   52.9100 Cl  0  0  0  0  0  0  0  0  0  0  0  0
   61.8620   33.8080   51.9900 C   0  0  0  0  0  0  0  0  0  0  0  0
   62.8420   33.7710   50.9940 C   0  0  0  0  0  0  0  0  0  0  0  0
   62.4800   33.5610   49.6580 C   0  0  0  0  0  0  0  0  0  0  0  0
   63.7400   33.4840   48.4340 Cl  0  0  0  0  0  0  0  0  0  0  0  0
   60.1070   34.2740   47.2080 C   0  0  0  0  0  0  0  0  0  0  0  0
   59.7390   33.8220   45.7900 C   0  0  0  0  0  0  0  0  0  0  0  0
   56.4660   28.8730   45.2640 C   0  0  0  0  0  0  0  0  0  0  0  0
   56.6700   27.4970   45.4180 C   0  0  0  0  0  0  0  0  0  0  0  0
   55.6050   26.6550   45.8590 N   0  0  0  0  0  0  0  0  0  0  0  0
   57.6264   24.6490   47.0465 H   0  0  0  0  0  0  0  0  0  0  0  0
   57.1979   23.7232   45.5466 H   0  0  0  0  0  0  0  0  0  0  0  0
   59.9147   27.2862   44.3630 H   0  0  0  0  0  0  0  0  0  0  0  0
   59.5699   29.7423   44.1044 H   0  0  0  0  0  0  0  0  0  0  0  0
   59.2812   31.6155   43.9168 H   0  0  0  0  0  0  0  0  0  0  0  0
   58.1237   33.0343   44.0809 H   0  0  0  0  0  0  0  0  0  0  0  0
   58.3020   32.5580   46.4940 H   0  0  0  0  0  0  0  0  0  0  0  0
   59.3894   30.7316   46.9812 H   0  0  0  0  0  0  0  0  0  0  0  0
   60.4665   30.9153   45.5144 H   0  0  0  0  0  0  0  0  0  0  0  0
   61.4178   31.1919   47.9975 H   0  0  0  0  0  0  0  0  0  0  0  0
   62.0034   32.1900   46.6095 H   0  0  0  0  0  0  0  0  0  0  0  0
   59.0882   33.2827   50.0652 H   0  0  0  0  0  0  0  0  0  0  0  0
   62.1507   33.9760   53.0381 H   0  0  0  0  0  0  0  0  0  0  0  0
   63.9005   33.9072   51.2606 H   0  0  0  0  0  0  0  0  0  0  0  0
   59.1947   34.5917   47.7341 H   0  0  0  0  0  0  0  0  0  0  0  0
   60.8183   35.1103   47.1397 H   0  0  0  0  0  0  0  0  0  0  0  0
   59.0331   34.5422   45.3507 H   0  0  0  0  0  0  0  0  0  0  0  0
   60.6531   33.7728   45.1802 H   0  0  0  0  0  0  0  0  0  0  0  0
   55.4910   29.3141   45.5185 H   0  0  0  0  0  0  0  0  0  0  0  0
  1  2  2  0
  2  3  1  0
  3  4  1  0
  4  5  1  0
  5  6  2  0
  6  7  1  0
  7  8  2  0
  8  9  1  0
  9 10  2  0
  9 11  1  0
 11 12  1  0
 12 13  1  0
 13 14  1  0
 14 15  1  0
 15 16  1  0
 16 17  2  0
 17 18  1  0
 18 19  1  0
 18 20  2  0
 20 21  1  0
 21 22  2  0
 22 23  1  0
 15 24  1  0
 24 25  1  0
  8 26  1  0
 26 27  2  0
 27 28  1  0
 28  2  1  0
 27  5  1  0
 25 12  1  0
 22 16  1  0
  3 29  1  0
  3 30  1  0
  6 31  1  0
  7 32  1  0
 11 33  1  0
 11 34  1  0
 12 35  1  0
 13 36  1  0
 13 37  1  0
 14 38  1  0
 14 39  1  0
 17 40  1  0
 20 41  1  0
 21 42  1  0
 24 43  1  0
 24 44  1  0
 25 45  1  0
 25 46  1  0
 26 47  1  0
M  CHG  2  12   1  28  -1
M  END
>  <UniqueID>  (39) 
35

>  <SMILES>  (39) 
O=C1COc2ccc(C(=O)C[NH+]3CCN(c4cc(Cl)ccc4Cl)CC3)cc2[N-]1

>  <Energy>  (39) 
70.70806797812975

>  <Genealogy>  (39) 
O=C1COc2ccc(C(=O)C[NH+]3CCN(c4cc(Cl)ccc4Cl)CC3)cc2[N-]1 (protonated)
O=C1COc2ccc(C(=O)C[NH+]3CCN(c4cc(Cl)ccc4Cl)CC3)cc2[N-]1 (3D coordinates assigned)
O=C1COc2ccc(C(=O)C[NH+]3CCN(c4cc(Cl)ccc4Cl)CC3)cc2[N-]1 (nonaromatic ring conformer: 70.70806797812975 kcal/mol)

>  <smiles>  (39) 
O=C1COc2ccc(C(=O)CN3CCN(c4cc(Cl)ccc4Cl)CC3)cc2N1

>  <score_type>  (39) 
oracle

>  <origin>  (39) 
adg

>  <m_score__min__energy>  (39) 
-9.6899999999999995

>  <m_primary>  (39) 
energy

$$$$
39:0
     RDKit          3D

 36 37  0  0  0  0  0  0  0  0999 V2000
   61.8724   30.2473   46.7224 H   0  0  0  0  0  0  0  0  0  0  0  0
   60.8860   29.8680   46.4170 C   0  0  0  0  0  0  0  0  0  0  0  0
   59.7500   30.1920   47.1650 C   0  0  0  0  0  0  0  0  0  0  0  0
   59.8443   30.8236   48.0607 H   0  0  0  0  0  0  0  0  0  0  0  0
   58.4950   29.7150   46.7770 C   0  0  0  0  0  0  0  0  0  0  0  0
   57.6051   29.9658   47.3730 H   0  0  0  0  0  0  0  0  0  0  0  0
   58.3660   28.9160   45.6280 C   0  0  0  0  0  0  0  0  0  0  0  0
   57.0240   28.3660   45.2280 C   0  0  0  0  0  0  0  0  0  0  0  0
   56.7262   27.5811   45.9388 H   0  0  0  0  0  0  0  0  0  0  0  0
   57.0954   27.9460   44.2139 H   0  0  0  0  0  0  0  0  0  0  0  0
   56.0260   29.4250   45.2350 N   0  0  0  0  0  0  0  0  0  0  0  0
   55.9800   30.2840   44.2980 N   0  0  0  0  0  0  0  0  0  0  0  0
   56.9310   31.3510   44.2030 C   0  0  0  0  0  0  0  0  0  0  0  0
   56.9120   32.4240   45.1680 N   0  0  0  0  0  0  0  0  0  0  0  0
   56.2850   32.3390   45.9990 H   0  0  0  0  0  0  0  0  0  0  0  0
   57.6760   33.6660   45.0420 C   0  0  0  0  0  0  0  0  0  0  0  0
   58.1627   33.6922   44.0559 H   0  0  0  0  0  0  0  0  0  0  0  0
   56.9879   34.5174   45.1503 H   0  0  0  0  0  0  0  0  0  0  0  0
   58.7290   33.7540   46.1160 C   0  0  0  0  0  0  0  0  0  0  0  0
   58.4020   33.5160   47.4620 C   0  0  0  0  0  0  0  0  0  0  0  0
   57.3683   33.2592   47.7370 H   0  0  0  0  0  0  0  0  0  0  0  0
   59.3840   33.6040   48.4530 C   0  0  0  0  0  0  0  0  0  0  0  0
   59.1232   33.4111   49.5041 H   0  0  0  0  0  0  0  0  0  0  0  0
   60.6970   33.9370   48.1090 C   0  0  0  0  0  0  0  0  0  0  0  0
   61.4695   34.0038   48.8892 H   0  0  0  0  0  0  0  0  0  0  0  0
   61.0290   34.1850   46.7750 C   0  0  0  0  0  0  0  0  0  0  0  0
   62.0623   34.4499   46.5063 H   0  0  0  0  0  0  0  0  0  0  0  0
   60.0500   34.0970   45.7810 C   0  0  0  0  0  0  0  0  0  0  0  0
   60.3148   34.2971   44.7322 H   0  0  0  0  0  0  0  0  0  0  0  0
   57.8090   31.3190   43.2460 N   0  0  0  0  0  0  0  0  0  0  0  0
   58.1520   30.4020   42.8780 H   0  0  0  0  0  0  0  0  0  0  0  0
   58.2100   32.1820   42.8220 H   0  0  0  0  0  0  0  0  0  0  0  0
   59.5140   28.5820   44.8890 C   0  0  0  0  0  0  0  0  0  0  0  0
   59.4260   27.9410   43.9994 H   0  0  0  0  0  0  0  0  0  0  0  0
   60.7680   29.0620   45.2810 C   0  0  0  0  0  0  0  0  0  0  0  0
   61.6624   28.8049   44.6946 H   0  0  0  0  0  0  0  0  0  0  0  0
  1  2  1  0
  2  3  2  0
  3  4  1  0
  3  5  1  0
  5  6  1  0
  5  7  2  0
  7  8  1  0
  8  9  1  0
  8 10  1  0
  8 11  1  0
 11 12  2  0
 12 13  1  0
 13 14  1  0
 14 15  1  0
 14 16  1  0
 16 17  1  0
 16 18  1  0
 16 19  1  0
 19 20  2  0
 20 21  1  0
 20 22  1  0
 22 23  1  0
 22 24  2  0
 24 25  1  0
 24 26  1  0
 26 27  1  0
 26 28  2  0
 28 29  1  0
 13 30  2  0
 30 31  1  0
 30 32  1  0
  7 33  1  0
 33 34  1  0
 33 35  2  0
 35 36  1  0
 35  2  1  0
 28 19  1  0
M  CHG  1  30   1
M  END
>  <UniqueID>  (40) 
36

>  <SMILES>  (40) 
[NH2+]=C(/N=N/Cc1ccccc1)NCc1ccccc1

>  <Energy>  (40) 
31.1617437853178

>  <Genealogy>  (40) 
[NH2+]=C(N=NCc1ccccc1)NCc1ccccc1 (protonated)
[NH2+]=C(/N=N/Cc1ccccc1)NCc1ccccc1 (cis-trans isomerization)
[NH2+]=C(/N=N/Cc1ccccc1)NCc1ccccc1 (3D coordinates assigned)
[NH2+]=C(/N=N/Cc1ccccc1)NCc1ccccc1 (optimized conformer: 31.1617437853178 kcal/mol)

>  <smiles>  (40) 
N=C(N=NCc1ccccc1)NCc1ccccc1

>  <score_type>  (40) 
oracle

>  <origin>  (40) 
adg

>  <m_score__min__energy>  (40) 
-5.9699999999999998

>  <m_primary>  (40) 
energy

$$$$
40:0
     RDKit          3D

 37 40  0  0  0  0  0  0  0  0999 V2000
   54.0670   25.1190   45.6250 C   0  0  0  0  0  0  0  0  0  0  0  0
   55.4200   25.4870   45.8710 O   0  0  0  0  0  0  0  0  0  0  0  0
   56.5150   24.6110   45.7900 C   0  0  0  0  0  0  0  0  0  0  0  0
   56.3340   23.2120   45.7380 C   0  0  0  0  0  0  0  0  0  0  0  0
   57.4330   22.3590   45.6250 C   0  0  0  0  0  0  0  0  0  0  0  0
   58.7220   22.8830   45.5620 C   0  0  0  0  0  0  0  0  0  0  0  0
   58.9200   24.2630   45.6180 C   0  0  0  0  0  0  0  0  0  0  0  0
   57.8260   25.1400   45.7380 C   0  0  0  0  0  0  0  0  0  0  0  0
   58.0750   26.6000   45.8110 C   0  0  0  0  0  0  0  0  0  0  0  0
   57.2250   27.5380   45.3160 N   0  0  0  0  0  0  0  0  0  0  0  0
   57.6750   28.7850   45.4620 N   0  0  0  0  0  0  0  0  0  0  0  0
   57.0190   29.9080   45.0600 C   0  0  0  0  0  0  0  0  0  0  0  0
   55.8930   29.8230   44.4980 O   0  0  0  0  0  0  0  0  0  0  0  0
   57.6250   31.1620   45.2830 C   0  0  0  0  0  0  0  0  0  0  0  0
   57.0190   32.3690   44.8930 C   0  0  0  0  0  0  0  0  0  0  0  0
   57.6600   33.5870   45.1360 C   0  0  0  0  0  0  0  0  0  0  0  0
   58.9060   33.6220   45.7800 C   0  0  0  0  0  0  0  0  0  0  0  0
   59.6040   34.9300   46.0000 C   0  0  0  0  0  0  0  0  0  0  0  0
   59.5260   32.4200   46.1560 C   0  0  0  0  0  0  0  0  0  0  0  0
   58.8950   31.1940   45.9190 C   0  0  0  0  0  0  0  0  0  0  0  0
   59.5010   30.0350   46.2970 N   0  0  0  0  0  0  0  0  0  0  0  0
   58.8820   28.8540   46.0630 C   0  0  0  0  0  0  0  0  0  0  0  0
   59.4690   27.3310   46.4570 S   0  0  0  0  0  0  0  0  0  0  0  0
   53.5456   24.9772   46.5831 H   0  0  0  0  0  0  0  0  0  0  0  0
   53.5693   25.9144   45.0509 H   0  0  0  0  0  0  0  0  0  0  0  0
   54.0407   24.1811   45.0509 H   0  0  0  0  0  0  0  0  0  0  0  0
   55.3190   22.7908   45.7869 H   0  0  0  0  0  0  0  0  0  0  0  0
   57.2808   21.2703   45.5856 H   0  0  0  0  0  0  0  0  0  0  0  0
   59.5853   22.2078   45.4679 H   0  0  0  0  0  0  0  0  0  0  0  0
   59.9410   24.6693   45.5679 H   0  0  0  0  0  0  0  0  0  0  0  0
   56.3020   27.3140   44.8800 H   0  0  0  0  0  0  0  0  0  0  0  0
   56.0381   32.3548   44.3954 H   0  0  0  0  0  0  0  0  0  0  0  0
   57.1834   34.5265   44.8195 H   0  0  0  0  0  0  0  0  0  0  0  0
   59.7031   35.1157   47.0797 H   0  0  0  0  0  0  0  0  0  0  0  0
   60.6030   34.8943   45.5409 H   0  0  0  0  0  0  0  0  0  0  0  0
   59.0182   35.7400   45.5409 H   0  0  0  0  0  0  0  0  0  0  0  0
   60.5137   32.4422   46.6398 H   0  0  0  0  0  0  0  0  0  0  0  0
  1  2  1  0
  2  3  1  0
  3  4  2  0
  4  5  1  0
  5  6  2  0
  6  7  1  0
  7  8  2  0
  8  9  1  0
  9 10  2  0
 10 11  1  0
 11 12  1  0
 12 13  2  0
 12 14  1  0
 14 15  2  0
 15 16  1  0
 16 17  2  0
 17 18  1  0
 17 19  1  0
 19 20  2  0
 20 21  1  0
 21 22  2  0
 22 23  1  0
  8  3  1  0
 23  9  1  0
 22 11  1  0
 20 14  1  0
  1 24  1  0
  1 25  1  0
  1 26  1  0
  4 27  1  0
  5 28  1  0
  6 29  1  0
  7 30  1  0
 10 31  1  0
 15 32  1  0
 16 33  1  0
 18 34  1  0
 18 35  1  0
 18 36  1  0
 19 37  1  0
M  CHG  1  10   1
M  END
>  <UniqueID>  (41) 
37

>  <SMILES>  (41) 
COc1ccccc1-c1[nH+]n2c(=O)c3ccc(C)cc3nc2s1

>  <Energy>  (41) 
86.66950193273304

>  <Genealogy>  (41) 
COc1ccccc1-c1[nH+]n2c(=O)c3ccc(C)cc3nc2s1 (protonated)
COc1ccccc1-c1[nH+]n2c(=O)c3ccc(C)cc3nc2s1 (3D coordinates assigned)
COc1ccccc1-c1[nH+]n2c(=O)c3ccc(C)cc3nc2s1 (optimized conformer: 86.66950193273304 kcal/mol)

>  <smiles>  (41) 
COc1ccccc1-c1nn2c(=O)c3ccc(C)cc3nc2s1

>  <score_type>  (41) 
oracle

>  <origin>  (41) 
adg

>  <m_score__min__energy>  (41) 
-6.1799999999999997

>  <m_primary>  (41) 
energy

$$$$
41:0
     RDKit          3D

 29 31  0  0  0  0  0  0  0  0999 V2000
   59.7180   34.1910   49.9280 C   0  0  0  0  0  0  0  0  0  0  0  0
   60.7940   33.8470   48.9970 N   0  0  0  0  0  0  0  0  0  0  0  0
   60.7300   33.6890   47.6430 C   0  0  0  0  0  0  0  0  0  0  0  0
   59.4990   33.7980   46.8290 C   0  0  0  0  0  0  0  0  0  0  0  0
   58.3210   33.1330   47.2080 C   0  0  0  0  0  0  0  0  0  0  0  0
   57.1720   33.2280   46.4170 C   0  0  0  0  0  0  0  0  0  0  0  0
   57.1930   33.9770   45.2390 C   0  0  0  0  0  0  0  0  0  0  0  0
   58.3650   34.6260   44.8440 C   0  0  0  0  0  0  0  0  0  0  0  0
   59.5170   34.5330   45.6330 C   0  0  0  0  0  0  0  0  0  0  0  0
   61.9420   33.4070   47.0990 N   0  0  0  0  0  0  0  0  0  0  0  0
   62.7780   33.3620   48.1490 C   0  0  0  0  0  0  0  0  0  0  0  0
   64.1440   33.0900   48.1480 C   0  0  0  0  0  0  0  0  0  0  0  0
   64.8080   33.0900   49.3890 C   0  0  0  0  0  0  0  0  0  0  0  0
   64.0990   33.3570   50.5820 C   0  0  0  0  0  0  0  0  0  0  0  0
   62.7180   33.6270   50.5460 C   0  0  0  0  0  0  0  0  0  0  0  0
   62.0880   33.6220   49.2990 C   0  0  0  0  0  0  0  0  0  0  0  0
   60.0767   34.0763   50.9615 H   0  0  0  0  0  0  0  0  0  0  0  0
   59.4079   35.2331   49.7610 H   0  0  0  0  0  0  0  0  0  0  0  0
   58.8608   33.5221   49.7610 H   0  0  0  0  0  0  0  0  0  0  0  0
   58.3025   32.5350   48.1311 H   0  0  0  0  0  0  0  0  0  0  0  0
   56.2502   32.7119   46.7233 H   0  0  0  0  0  0  0  0  0  0  0  0
   56.2860   34.0561   44.6216 H   0  0  0  0  0  0  0  0  0  0  0  0
   58.3825   35.2105   43.9123 H   0  0  0  0  0  0  0  0  0  0  0  0
   60.4409   35.0381   45.3146 H   0  0  0  0  0  0  0  0  0  0  0  0
   62.1710   33.2350   46.0950 H   0  0  0  0  0  0  0  0  0  0  0  0
   64.6838   32.8829   47.2122 H   0  0  0  0  0  0  0  0  0  0  0  0
   65.8871   32.8806   49.4306 H   0  0  0  0  0  0  0  0  0  0  0  0
   64.6300   33.3538   51.5453 H   0  0  0  0  0  0  0  0  0  0  0  0
   62.1544   33.8347   51.4676 H   0  0  0  0  0  0  0  0  0  0  0  0
  1  2  1  0
  2  3  1  0
  3  4  1  0
  4  5  2  0
  5  6  1  0
  6  7  2  0
  7  8  1  0
  8  9  2  0
  3 10  2  0
 10 11  1  0
 11 12  2  0
 12 13  1  0
 13 14  2  0
 14 15  1  0
 15 16  2  0
 16  2  1  0
  9  4  1  0
 16 11  1  0
  1 17  1  0
  1 18  1  0
  1 19  1  0
  5 20  1  0
  6 21  1  0
  7 22  1  0
  8 23  1  0
  9 24  1  0
 10 25  1  0
 12 26  1  0
 13 27  1  0
 14 28  1  0
 15 29  1  0
M  CHG  1  10   1
M  END
>  <UniqueID>  (42) 
38

>  <SMILES>  (42) 
Cn1c(-c2ccccc2)[nH+]c2ccccc21

>  <Energy>  (42) 
75.20630286495876

>  <Genealogy>  (42) 
Cn1c(-c2ccccc2)[nH+]c2ccccc21 (protonated)
Cn1c(-c2ccccc2)[nH+]c2ccccc21 (3D coordinates assigned)
Cn1c(-c2ccccc2)[nH+]c2ccccc21 (optimized conformer: 75.20630286495876 kcal/mol)

>  <smiles>  (42) 
Cn1c(-c2ccccc2)nc2ccccc21

>  <score_type>  (42) 
oracle

>  <origin>  (42) 
adg

>  <m_score__min__energy>  (42) 
-4.6200000000000001

>  <m_primary>  (42) 
energy

$$$$
42:0
     RDKit          3D

 43 45  0  0  0  0  0  0  0  0999 V2000
   56.2270   20.8760   45.3290 C   0  0  0  0  0  0  0  0  0  0  0  0
   57.4970   20.9420   44.5780 N   0  0  0  0  0  0  0  0  0  0  0  0
   57.3020   21.5340   43.2350 C   0  0  0  0  0  0  0  0  0  0  0  0
   56.9010   23.0140   43.3200 C   0  0  0  0  0  0  0  0  0  0  0  0
   57.6960   23.7170   44.3330 N   0  0  0  0  0  0  0  0  0  0  0  0
   57.4690   25.1220   44.5570 C   0  0  0  0  0  0  0  0  0  0  0  0
   56.7330   25.5590   45.6710 C   0  0  0  0  0  0  0  0  0  0  0  0
   56.5130   26.9230   45.8860 C   0  0  0  0  0  0  0  0  0  0  0  0
   57.0160   27.8750   44.9850 C   0  0  0  0  0  0  0  0  0  0  0  0
   56.7770   29.3190   45.2200 C   0  0  0  0  0  0  0  0  0  0  0  0
   55.6850   29.8310   44.8570 O   0  0  0  0  0  0  0  0  0  0  0  0
   57.7320   30.1490   45.8960 N   0  0  0  0  0  0  0  0  0  0  0  0
   57.9130   31.5590   45.7060 C   0  0  0  0  0  0  0  0  0  0  0  0
   57.8810   32.0780   44.4060 C   0  0  0  0  0  0  0  0  0  0  0  0
   58.0680   33.4480   44.1870 C   0  0  0  0  0  0  0  0  0  0  0  0
   58.3030   34.3040   45.2650 C   0  0  0  0  0  0  0  0  0  0  0  0
   58.3600   33.7910   46.5650 C   0  0  0  0  0  0  0  0  0  0  0  0
   58.1740   32.4230   46.7870 C   0  0  0  0  0  0  0  0  0  0  0  0
   57.7670   27.4390   43.8800 C   0  0  0  0  0  0  0  0  0  0  0  0
   57.9860   26.0770   43.6660 C   0  0  0  0  0  0  0  0  0  0  0  0
   58.8800   23.0610   44.8990 C   0  0  0  0  0  0  0  0  0  0  0  0
   58.5600   21.6260   45.3670 C   0  0  0  0  0  0  0  0  0  0  0  0
   56.4384   20.8870   46.4084 H   0  0  0  0  0  0  0  0  0  0  0  0
   55.6018   21.7429   45.0689 H   0  0  0  0  0  0  0  0  0  0  0  0
   55.6950   19.9490   45.0689 H   0  0  0  0  0  0  0  0  0  0  0  0
   57.8010   19.9500   44.4280 H   0  0  0  0  0  0  0  0  0  0  0  0
   58.2415   21.4511   42.6689 H   0  0  0  0  0  0  0  0  0  0  0  0
   56.4902   20.9868   42.7334 H   0  0  0  0  0  0  0  0  0  0  0  0
   57.0655   23.4880   42.3411 H   0  0  0  0  0  0  0  0  0  0  0  0
   55.8399   23.0738   43.6038 H   0  0  0  0  0  0  0  0  0  0  0  0
   56.3266   24.8224   46.3797 H   0  0  0  0  0  0  0  0  0  0  0  0
   55.9422   27.2523   46.7667 H   0  0  0  0  0  0  0  0  0  0  0  0
   57.7081   31.4059   43.5525 H   0  0  0  0  0  0  0  0  0  0  0  0
   58.0298   33.8508   43.1641 H   0  0  0  0  0  0  0  0  0  0  0  0
   58.4432   35.3812   45.0919 H   0  0  0  0  0  0  0  0  0  0  0  0
   58.5513   34.4643   47.4135 H   0  0  0  0  0  0  0  0  0  0  0  0
   58.2317   32.0205   47.8091 H   0  0  0  0  0  0  0  0  0  0  0  0
   58.1852   28.1762   43.1788 H   0  0  0  0  0  0  0  0  0  0  0  0
   58.5683   25.7489   42.7923 H   0  0  0  0  0  0  0  0  0  0  0  0
   59.6672   23.0199   44.1318 H   0  0  0  0  0  0  0  0  0  0  0  0
   59.2140   23.6427   45.7709 H   0  0  0  0  0  0  0  0  0  0  0  0
   59.4803   21.0277   45.2949 H   0  0  0  0  0  0  0  0  0  0  0  0
   58.1812   21.7095   46.3963 H   0  0  0  0  0  0  0  0  0  0  0  0
  1  2  1  0
  2  3  1  0
  3  4  1  0
  4  5  1  0
  5  6  1  0
  6  7  2  0
  7  8  1  0
  8  9  2  0
  9 10  1  0
 10 11  2  0
 10 12  1  0
 12 13  1  0
 13 14  2  0
 14 15  1  0
 15 16  2  0
 16 17  1  0
 17 18  2  0
  9 19  1  0
 19 20  2  0
  5 21  1  0
 21 22  1  0
 22  2  1  0
 20  6  1  0
 18 13  1  0
  1 23  1  0
  1 24  1  0
  1 25  1  0
  2 26  1  0
  3 27  1  0
  3 28  1  0
  4 29  1  0
  4 30  1  0
  7 31  1  0
  8 32  1  0
 14 33  1  0
 15 34  1  0
 16 35  1  0
 17 36  1  0
 18 37  1  0
 19 38  1  0
 20 39  1  0
 21 40  1  0
 21 41  1  0
 22 42  1  0
 22 43  1  0
M  CHG  2   2   1  12  -1
M  END
>  <UniqueID>  (43) 
39

>  <SMILES>  (43) 
C[NH+]1CCN(c2ccc(C(=O)[N-]c3ccccc3)cc2)CC1

>  <Energy>  (43) 
62.733956176541085

>  <Genealogy>  (43) 
C[NH+]1CCN(c2ccc(C(=O)[N-]c3ccccc3)cc2)CC1 (protonated)
C[NH+]1CCN(c2ccc(C(=O)[N-]c3ccccc3)cc2)CC1 (3D coordinates assigned)
C[NH+]1CCN(c2ccc(C(=O)[N-]c3ccccc3)cc2)CC1 (nonaromatic ring conformer: 62.733956176541085 kcal/mol)

>  <smiles>  (43) 
CN1CCN(c2ccc(C(=O)Nc3ccccc3)cc2)CC1

>  <score_type>  (43) 
oracle

>  <origin>  (43) 
adg

>  <m_score__min__energy>  (43) 
-7.6399999999999997

>  <m_primary>  (43) 
energy

$$$$
43:0
     RDKit          3D

 63 68  0  0  0  0  0  0  0  0999 V2000
   64.8410   32.4390   49.3820 C   0  0  0  0  0  0  0  0  0  0  0  0
   63.5060   32.2890   48.7830 N   0  0  0  0  0  0  0  0  0  0  0  0
   62.4430   32.7820   49.6960 C   0  0  0  0  0  0  0  0  0  0  0  0
   61.9560   34.1920   49.3200 C   0  0  0  0  0  0  0  0  0  0  0  0
   61.4300   34.2570   47.9320 N   0  0  0  0  0  0  0  0  0  0  0  0
   59.9530   34.2030   47.9050 C   0  0  0  0  0  0  0  0  0  0  0  0
   59.4630   32.7820   47.9740 C   0  0  0  0  0  0  0  0  0  0  0  0
   59.5180   31.9280   46.9360 N   0  0  0  0  0  0  0  0  0  0  0  0
   59.0310   30.7630   47.4170 C   0  0  0  0  0  0  0  0  0  0  0  0
   58.8740   29.4800   46.6260 C   0  0  1  0  0  0  0  0  0  0  0  0
   58.6280   28.3020   47.6070 C   0  0  0  0  0  0  0  0  0  0  0  0
   58.4180   26.9900   46.8200 C   0  0  2  0  0  0  0  0  0  0  0  0
   59.6750   26.6890   45.9770 C   0  0  0  0  0  0  0  0  0  0  0  0
   59.9230   27.8460   44.9850 C   0  0  1  0  0  0  0  0  0  0  0  0
   58.7010   27.9960   44.0530 C   0  0  0  0  0  0  0  0  0  0  0  0
   57.4420   28.2980   44.8940 C   0  0  1  0  0  0  0  0  0  0  0  0
   57.1970   27.1400   45.8870 C   0  0  0  0  0  0  0  0  0  0  0  0
   57.6510   29.6130   45.6800 C   0  0  0  0  0  0  0  0  0  0  0  0
   60.1340   29.1590   45.7700 C   0  0  0  0  0  0  0  0  0  0  0  0
   58.6890   30.8680   48.6830 O   0  0  0  0  0  0  0  0  0  0  0  0
   58.9320   32.1020   49.0640 C   0  0  0  0  0  0  0  0  0  0  0  0
   58.6870   32.5850   50.4390 C   0  0  0  0  0  0  0  0  0  0  0  0
   57.7480   31.9150   51.2410 C   0  0  0  0  0  0  0  0  0  0  0  0
   57.4850   32.3550   52.5430 C   0  0  0  0  0  0  0  0  0  0  0  0
   58.1470   33.4760   53.0490 C   0  0  0  0  0  0  0  0  0  0  0  0
   59.0650   34.1640   52.2510 C   0  0  0  0  0  0  0  0  0  0  0  0
   59.3300   33.7260   50.9510 C   0  0  0  0  0  0  0  0  0  0  0  0
   62.0330   33.2470   47.0260 C   0  0  0  0  0  0  0  0  0  0  0  0
   63.4690   32.9120   47.4410 C   0  0  0  0  0  0  0  0  0  0  0  0
   64.7541   32.4292   50.4785 H   0  0  0  0  0  0  0  0  0  0  0  0
   65.4839   31.6074   49.0577 H   0  0  0  0  0  0  0  0  0  0  0  0
   65.2834   33.3925   49.0577 H   0  0  0  0  0  0  0  0  0  0  0  0
   61.5894   32.0896   49.6512 H   0  0  0  0  0  0  0  0  0  0  0  0
   62.8676   32.8325   50.7095 H   0  0  0  0  0  0  0  0  0  0  0  0
   61.1562   34.4868   50.0153 H   0  0  0  0  0  0  0  0  0  0  0  0
   62.8172   34.8732   49.3850 H   0  0  0  0  0  0  0  0  0  0  0  0
   59.5570   34.7620   48.7656 H   0  0  0  0  0  0  0  0  0  0  0  0
   59.6037   34.6483   46.9618 H   0  0  0  0  0  0  0  0  0  0  0  0
   59.8770   32.1350   45.9790 H   0  0  0  0  0  0  0  0  0  0  0  0
   57.7322   28.5118   48.2099 H   0  0  0  0  0  0  0  0  0  0  0  0
   59.5038   28.1915   48.2633 H   0  0  0  0  0  0  0  0  0  0  0  0
   58.2424   26.1637   47.5246 H   0  0  0  0  0  0  0  0  0  0  0  0
   59.5255   25.7534   45.4182 H   0  0  0  0  0  0  0  0  0  0  0  0
   60.5448   26.5857   46.6424 H   0  0  0  0  0  0  0  0  0  0  0  0
   60.8183   27.6285   44.3841 H   0  0  0  0  0  0  0  0  0  0  0  0
   58.5513   27.0615   43.4924 H   0  0  0  0  0  0  0  0  0  0  0  0
   58.8774   28.8231   43.3496 H   0  0  0  0  0  0  0  0  0  0  0  0
   56.5724   28.4019   44.2284 H   0  0  0  0  0  0  0  0  0  0  0  0
   57.0462   26.2045   45.3283 H   0  0  0  0  0  0  0  0  0  0  0  0
   56.3024   27.3582   46.4887 H   0  0  0  0  0  0  0  0  0  0  0  0
   56.7517   29.8276   46.2759 H   0  0  0  0  0  0  0  0  0  0  0  0
   57.8331   30.4324   44.9691 H   0  0  0  0  0  0  0  0  0  0  0  0
   61.0056   29.0507   46.4322 H   0  0  0  0  0  0  0  0  0  0  0  0
   60.3040   29.9802   45.0582 H   0  0  0  0  0  0  0  0  0  0  0  0
   57.2159   31.0385   50.8427 H   0  0  0  0  0  0  0  0  0  0  0  0
   56.7566   31.8179   53.1683 H   0  0  0  0  0  0  0  0  0  0  0  0
   57.9458   33.8171   54.0752 H   0  0  0  0  0  0  0  0  0  0  0  0
   59.5798   35.0518   52.6470 H   0  0  0  0  0  0  0  0  0  0  0  0
   60.0462   34.2772   50.3240 H   0  0  0  0  0  0  0  0  0  0  0  0
   61.4274   32.3293   47.0591 H   0  0  0  0  0  0  0  0  0  0  0  0
   62.0545   33.6634   46.0081 H   0  0  0  0  0  0  0  0  0  0  0  0
   63.9005   32.2135   46.7090 H   0  0  0  0  0  0  0  0  0  0  0  0
   64.0492   33.8459   47.4741 H   0  0  0  0  0  0  0  0  0  0  0  0
  1  2  1  0
  2  3  1  0
  3  4  1  0
  4  5  1  0
  5  6  1  0
  6  7  1  0
  7  8  1  0
  8  9  2  0
 10  9  1  1
 10 11  1  0
 11 12  1  0
 12 13  1  0
 13 14  1  0
 14 15  1  0
 15 16  1  0
 16 17  1  0
 16 18  1  0
 14 19  1  0
  9 20  1  0
 20 21  1  0
 21 22  1  0
 22 23  2  0
 23 24  1  0
 24 25  2  0
 25 26  1  0
 26 27  2  0
  5 28  1  0
 28 29  1  0
 29  2  1  0
 21  7  2  0
 27 22  1  0
 18 10  1  0
 19 10  1  0
 17 12  1  0
  1 30  1  0
  1 31  1  0
  1 32  1  0
  3 33  1  0
  3 34  1  0
  4 35  1  0
  4 36  1  0
  6 37  1  0
  6 38  1  0
  8 39  1  0
 11 40  1  0
 11 41  1  0
 12 42  1  1
 13 43  1  0
 13 44  1  0
 14 45  1  6
 15 46  1  0
 15 47  1  0
 16 48  1  6
 17 49  1  0
 17 50  1  0
 18 51  1  0
 18 52  1  0
 19 53  1  0
 19 54  1  0
 23 55  1  0
 24 56  1  0
 25 57  1  0
 26 58  1  0
 27 59  1  0
 28 60  1  0
 28 61  1  0
 29 62  1  0
 29 63  1  0
M  CHG  1   8   1
M  END
>  <UniqueID>  (44) 
40

>  <SMILES>  (44) 
CN1CCN(Cc2[nH+]c(C34CC5CC(CC(C5)C3)C4)oc2-c2ccccc2)CC1

>  <Energy>  (44) 
111.94376968903121

>  <Genealogy>  (44) 
CN1CCN(Cc2[nH+]c(C34CC5CC(CC(C5)C3)C4)oc2-c2ccccc2)CC1 (protonated)
CN1CCN(Cc2[nH+]c(C34CC5CC(CC(C5)C3)C4)oc2-c2ccccc2)CC1 (3D coordinates assigned)
CN1CCN(Cc2[nH+]c(C34CC5CC(CC(C5)C3)C4)oc2-c2ccccc2)CC1 (nonaromatic ring conformer: 111.94376968903121 kcal/mol)

>  <smiles>  (44) 
CN1CCN(Cc2nc(C34CC5CC(CC(C5)C3)C4)oc2-c2ccccc2)CC1

>  <score_type>  (44) 
oracle

>  <origin>  (44) 
adg

>  <m_score__min__energy>  (44) 
-7.1299999999999999

>  <m_primary>  (44) 
energy

$$$$
44:0
     RDKit          3D

 53 57  0  0  0  0  0  0  0  0999 V2000
   66.3100   31.6480   50.7360 C   0  0  0  0  0  0  0  0  0  0  0  0
   64.9740   32.0710   50.1990 C   0  0  0  0  0  0  0  0  0  0  0  0
   64.8870   33.0890   49.2360 C   0  0  0  0  0  0  0  0  0  0  0  0
   63.6460   33.4650   48.7150 C   0  0  0  0  0  0  0  0  0  0  0  0
   62.4720   32.8310   49.1510 C   0  0  0  0  0  0  0  0  0  0  0  0
   61.1650   33.2230   48.5800 C   0  0  0  0  0  0  0  0  0  0  0  0
   60.6450   34.5070   48.5550 C   0  0  0  0  0  0  0  0  0  0  0  0
   59.4520   34.5050   47.9170 N   0  0  0  0  0  0  0  0  0  0  0  0
   59.2650   33.2110   47.5850 C   0  0  0  0  0  0  0  0  0  0  0  0
   58.1610   32.6880   46.8990 C   0  0  0  0  0  0  0  0  0  0  0  0
   57.0760   33.5110   46.4440 N   0  0  0  0  0  0  0  0  0  0  0  0
   57.0840   34.2180   45.1980 C   0  0  0  0  0  0  0  0  0  0  0  0
   58.1210   34.2670   44.4840 O   0  0  0  0  0  0  0  0  0  0  0  0
   58.1710   31.3130   46.6080 C   0  0  0  0  0  0  0  0  0  0  0  0
   59.2310   30.4840   47.0470 C   0  0  0  0  0  0  0  0  0  0  0  0
   59.2190   29.0250   46.7690 C   0  0  0  0  0  0  0  0  0  0  0  0
   59.1650   28.5490   45.4460 C   0  0  0  0  0  0  0  0  0  0  0  0
   59.1530   27.1760   45.1870 C   0  0  0  0  0  0  0  0  0  0  0  0
   59.2090   26.2530   46.2450 C   0  0  0  0  0  0  0  0  0  0  0  0
   59.1850   24.8680   46.0240 O   0  0  0  0  0  0  0  0  0  0  0  0
   58.2970   24.1960   45.1720 C   0  0  0  0  0  0  0  0  0  0  0  0
   57.1720   24.8320   44.6140 C   0  0  0  0  0  0  0  0  0  0  0  0
   56.3210   24.1310   43.7560 C   0  0  0  0  0  0  0  0  0  0  0  0
   56.5900   22.7980   43.4370 C   0  0  0  0  0  0  0  0  0  0  0  0
   57.7150   22.1660   43.9720 C   0  0  0  0  0  0  0  0  0  0  0  0
   58.5690   22.8650   44.8300 C   0  0  0  0  0  0  0  0  0  0  0  0
   59.2430   26.7230   47.5610 C   0  0  0  0  0  0  0  0  0  0  0  0
   59.2550   28.0960   47.8240 C   0  0  0  0  0  0  0  0  0  0  0  0
   60.2980   31.0720   47.7540 C   0  0  0  0  0  0  0  0  0  0  0  0
   60.2810   32.4150   47.9650 N   0  0  0  0  0  0  0  0  0  0  0  0
   62.5620   31.7890   50.0870 C   0  0  0  0  0  0  0  0  0  0  0  0
   63.8030   31.4110   50.6100 C   0  0  0  0  0  0  0  0  0  0  0  0
   63.8650   30.3950   51.5070 F   0  0  0  0  0  0  0  0  0  0  0  0
   66.2826   31.6567   51.8356 H   0  0  0  0  0  0  0  0  0  0  0  0
   66.5422   30.6324   50.3830 H   0  0  0  0  0  0  0  0  0  0  0  0
   67.0844   32.3449   50.3830 H   0  0  0  0  0  0  0  0  0  0  0  0
   65.8010   33.5936   48.8896 H   0  0  0  0  0  0  0  0  0  0  0  0
   63.5889   34.2621   47.9591 H   0  0  0  0  0  0  0  0  0  0  0  0
   61.1292   35.3944   48.9886 H   0  0  0  0  0  0  0  0  0  0  0  0
   56.3010   33.7250   47.1110 H   0  0  0  0  0  0  0  0  0  0  0  0
   56.1695   34.7266   44.8590 H   0  0  0  0  0  0  0  0  0  0  0  0
   57.3433   30.8749   46.0309 H   0  0  0  0  0  0  0  0  0  0  0  0
   59.1320   29.2628   44.6097 H   0  0  0  0  0  0  0  0  0  0  0  0
   59.0994   26.8157   44.1491 H   0  0  0  0  0  0  0  0  0  0  0  0
   56.9622   25.8847   44.8544 H   0  0  0  0  0  0  0  0  0  0  0  0
   55.4375   24.6297   43.3309 H   0  0  0  0  0  0  0  0  0  0  0  0
   55.9163   22.2462   42.7649 H   0  0  0  0  0  0  0  0  0  0  0  0
   57.9291   21.1174   43.7179 H   0  0  0  0  0  0  0  0  0  0  0  0
   59.4602   22.3668   45.2392 H   0  0  0  0  0  0  0  0  0  0  0  0
   59.2604   26.0071   48.3960 H   0  0  0  0  0  0  0  0  0  0  0  0
   59.2929   28.4523   48.8640 H   0  0  0  0  0  0  0  0  0  0  0  0
   61.1292   30.4563   48.1283 H   0  0  0  0  0  0  0  0  0  0  0  0
   61.6503   31.2660   50.4115 H   0  0  0  0  0  0  0  0  0  0  0  0
  1  2  1  0
  2  3  2  0
  3  4  1  0
  4  5  2  0
  5  6  1  0
  6  7  2  0
  7  8  1  0
  8  9  2  0
  9 10  1  0
 10 11  1  0
 11 12  1  0
 12 13  2  0
 10 14  2  0
 14 15  1  0
 15 16  1  0
 16 17  2  0
 17 18  1  0
 18 19  2  0
 19 20  1  0
 20 21  1  0
 21 22  2  0
 22 23  1  0
 23 24  2  0
 24 25  1  0
 25 26  2  0
 19 27  1  0
 27 28  2  0
 15 29  2  0
 29 30  1  0
  5 31  1  0
 31 32  2  0
 32 33  1  0
 32  2  1  0
 30  6  1  0
 30  9  1  0
 28 16  1  0
 26 21  1  0
  1 34  1  0
  1 35  1  0
  1 36  1  0
  3 37  1  0
  4 38  1  0
  7 39  1  0
 11 40  1  0
 12 41  1  0
 14 42  1  0
 17 43  1  0
 18 44  1  0
 22 45  1  0
 23 46  1  0
 24 47  1  0
 25 48  1  0
 26 49  1  0
 27 50  1  0
 28 51  1  0
 29 52  1  0
 31 53  1  0
M  END
>  <UniqueID>  (45) 
41

>  <SMILES>  (45) 
Cc1ccc(-c2cnc3c(NC=O)cc(-c4ccc(Oc5ccccc5)cc4)cn23)cc1F

>  <Energy>  (45) 
114.94826472929402

>  <Genealogy>  (45) 
Cc1ccc(-c2cnc3c(NC=O)cc(-c4ccc(Oc5ccccc5)cc4)cn23)cc1F (3D coordinates assigned)
Cc1ccc(-c2cnc3c(NC=O)cc(-c4ccc(Oc5ccccc5)cc4)cn23)cc1F (optimized conformer: 114.94826472929402 kcal/mol)

>  <smiles>  (45) 
Cc1ccc(-c2cnc3c(NC=O)cc(-c4ccc(Oc5ccccc5)cc4)cn23)cc1F

>  <score_type>  (45) 
oracle

>  <origin>  (45) 
adg

>  <m_score__min__energy>  (45) 
-8.7200000000000006

>  <m_primary>  (45) 
energy

$$$$
45:0
     RDKit          3D

 27 28  0  0  0  0  0  0  0  0999 V2000
   56.1900   29.7580   43.0500 C   0  0  0  0  0  0  0  0  0  0  0  0
   57.1690   29.3810   44.1100 C   0  0  0  0  0  0  0  0  0  0  0  0
   57.2160   28.1660   44.6970 N   0  0  0  0  0  0  0  0  0  0  0  0
   58.2490   28.0520   45.5770 C   0  0  0  0  0  0  0  0  0  0  0  0
   58.5180   26.7820   46.3270 C   0  0  0  0  0  0  0  0  0  0  0  0
   57.2710   26.2190   46.8280 N   0  0  0  0  0  0  0  0  0  0  0  0
   56.1470   25.9120   45.9940 C   0  0  0  0  0  0  0  0  0  0  0  0
   55.1400   26.6710   45.9970 O   0  0  0  0  0  0  0  0  0  0  0  0
   56.1670   24.7100   45.1290 C   0  0  0  0  0  0  0  0  0  0  0  0
   57.3710   24.2410   44.5760 C   0  0  0  0  0  0  0  0  0  0  0  0
   57.3770   23.1070   43.7610 C   0  0  0  0  0  0  0  0  0  0  0  0
   56.1740   22.4460   43.5010 C   0  0  0  0  0  0  0  0  0  0  0  0
   56.1610   21.4230   42.7690 O   0  0  0  0  0  0  0  0  0  0  0  0
   55.0160   22.9090   44.0400 N   0  0  0  0  0  0  0  0  0  0  0  0
   54.9830   24.0100   44.8370 C   0  0  0  0  0  0  0  0  0  0  0  0
   59.0540   29.1850   45.6820 C   0  0  0  0  0  0  0  0  0  0  0  0
   58.4360   30.3530   44.6370 S   0  0  0  0  0  0  0  0  0  0  0  0
   55.2614   30.1156   43.5189 H   0  0  0  0  0  0  0  0  0  0  0  0
   56.6160   30.5564   42.4246 H   0  0  0  0  0  0  0  0  0  0  0  0
   55.9705   28.8801   42.4246 H   0  0  0  0  0  0  0  0  0  0  0  0
   56.5430   27.3950   44.4890 H   0  0  0  0  0  0  0  0  0  0  0  0
   58.9990   26.0574   45.6535 H   0  0  0  0  0  0  0  0  0  0  0  0
   59.1799   27.0012   47.1778 H   0  0  0  0  0  0  0  0  0  0  0  0
   58.3126   24.7694   44.7861 H   0  0  0  0  0  0  0  0  0  0  0  0
   58.3187   22.7382   43.3284 H   0  0  0  0  0  0  0  0  0  0  0  0
   54.0258   24.3547   45.2553 H   0  0  0  0  0  0  0  0  0  0  0  0
   59.9351   29.2966   46.3310 H   0  0  0  0  0  0  0  0  0  0  0  0
  1  2  1  0
  2  3  2  0
  3  4  1  0
  4  5  1  0
  5  6  1  0
  6  7  1  0
  7  8  2  0
  7  9  1  0
  9 10  1  0
 10 11  2  0
 11 12  1  0
 12 13  2  0
 12 14  1  0
 14 15  1  0
  4 16  2  0
 16 17  1  0
 17  2  1  0
 15  9  2  0
  1 18  1  0
  1 19  1  0
  1 20  1  0
  3 21  1  0
  5 22  1  0
  5 23  1  0
 10 24  1  0
 11 25  1  0
 15 26  1  0
 16 27  1  0
M  CHG  3   3   1   6  -1  14  -1
M  END
>  <UniqueID>  (46) 
42

>  <SMILES>  (46) 
Cc1[nH+]c(C[N-]C(=O)c2ccc(=O)[n-]c2)cs1

>  <Energy>  (46) 
53.457133787687475

>  <Genealogy>  (46) 
Cc1[nH+]c(C[N-]C(=O)c2ccc(=O)[n-]c2)cs1 (protonated)
Cc1[nH+]c(C[N-]C(=O)c2ccc(=O)[n-]c2)cs1 (3D coordinates assigned)
Cc1[nH+]c(C[N-]C(=O)c2ccc(=O)[n-]c2)cs1 (optimized conformer: 53.457133787687475 kcal/mol)

>  <smiles>  (46) 
Cc1nc(CNC(=O)c2ccc(=O)[nH]c2)cs1

>  <score_type>  (46) 
oracle

>  <origin>  (46) 
adg

>  <m_score__min__energy>  (46) 
-8.6400000000000006

>  <m_primary>  (46) 
energy

$$$$
46:0
     RDKit          3D

 42 44  0  0  1  0  0  0  0  0999 V2000
   56.7840   21.1320   42.9930 C   0  0  0  0  0  0  0  0  0  0  0  0
   56.0630   22.2560   43.4680 O   0  0  0  0  0  0  0  0  0  0  0  0
   56.7870   23.2470   44.1150 C   0  0  0  0  0  0  0  0  0  0  0  0
   57.0040   24.4140   43.3850 C   0  0  0  0  0  0  0  0  0  0  0  0
   57.7160   25.4400   43.9690 C   0  0  0  0  0  0  0  0  0  0  0  0
   58.2070   25.3130   45.2600 C   0  0  0  0  0  0  0  0  0  0  0  0
   58.9620   26.4770   45.7980 C   0  0  0  0  0  0  0  0  0  0  0  0
   57.9740   27.3450   46.4090 N   0  0  0  0  0  0  0  0  0  0  0  0
   57.6770   28.4860   45.9310 C   0  0  0  0  0  0  0  0  0  0  0  0
   58.1920   29.6370   46.4580 C   0  0  0  0  0  0  0  0  0  0  0  0
   57.8450   30.8310   45.9120 C   0  0  0  0  0  0  0  0  0  0  0  0
   58.3410   32.1040   46.4040 C   0  0  0  0  0  0  0  0  0  0  0  0
   58.3550   33.1910   45.5290 C   0  0  0  0  0  0  0  0  0  0  0  0
   58.8230   34.4290   45.9660 C   0  0  0  0  0  0  0  0  0  0  0  0
   59.2800   34.6030   47.2580 C   0  0  0  0  0  0  0  0  0  0  0  0
   59.2670   33.5290   48.1260 C   0  0  0  0  0  0  0  0  0  0  0  0
   58.7980   32.3140   47.6700 C   0  0  0  0  0  0  0  0  0  0  0  0
   56.9950   30.8540   44.8570 N   0  0  0  0  0  0  0  0  0  0  0  0
   56.4790   29.7240   44.3280 C   0  0  0  0  0  0  0  0  0  0  0  0
   55.5490   29.7190   43.1750 C   0  0  0  0  0  0  0  0  0  0  0  0
   56.8470   28.5580   44.8960 N   0  0  0  0  0  0  0  0  0  0  0  0
   57.9910   24.1570   45.9810 C   0  0  0  0  0  0  0  0  0  0  0  0
   57.2780   23.1410   45.3840 C   0  0  0  0  0  0  0  0  0  0  0  0
   57.1582   20.5487   43.8472 H   0  0  0  0  0  0  0  0  0  0  0  0
   56.1207   20.5026   42.3816 H   0  0  0  0  0  0  0  0  0  0  0  0
   57.6327   21.4724   42.3816 H   0  0  0  0  0  0  0  0  0  0  0  0
   56.6143   24.5147   42.3613 H   0  0  0  0  0  0  0  0  0  0  0  0
   57.8963   26.3677   43.4061 H   0  0  0  0  0  0  0  0  0  0  0  0
   59.6946   26.1441   46.5480 H   0  0  0  0  0  0  0  0  0  0  0  0
   59.5205   26.9967   45.0056 H   0  0  0  0  0  0  0  0  0  0  0  0
   58.8802   29.5967   47.3152 H   0  0  0  0  0  0  0  0  0  0  0  0
   57.9972   33.0709   44.4958 H   0  0  0  0  0  0  0  0  0  0  0  0
   58.8286   35.2814   45.2708 H   0  0  0  0  0  0  0  0  0  0  0  0
   59.6494   35.5842   47.5910 H   0  0  0  0  0  0  0  0  0  0  0  0
   59.6235   33.6399   49.1607 H   0  0  0  0  0  0  0  0  0  0  0  0
   58.7929   31.4653   48.3698 H   0  0  0  0  0  0  0  0  0  0  0  0
   54.5116   29.7134   43.5407 H   0  0  0  0  0  0  0  0  0  0  0  0
   55.7176   30.6181   42.5640 H   0  0  0  0  0  0  0  0  0  0  0  0
   55.7272   28.8218   42.5640 H   0  0  0  0  0  0  0  0  0  0  0  0
   56.4460   27.6780   44.4840 H   0  0  0  0  0  0  0  0  0  0  0  0
   58.3778   24.0495   47.0051 H   0  0  0  0  0  0  0  0  0  0  0  0
   57.0985   22.2140   45.9483 H   0  0  0  0  0  0  0  0  0  0  0  0
  1  2  1  0
  2  3  1  0
  3  4  2  0
  4  5  1  0
  5  6  2  0
  6  7  1  0
  7  8  1  0
  8  9  2  0
  9 10  1  0
 10 11  2  0
 11 12  1  0
 12 13  2  0
 13 14  1  0
 14 15  2  0
 15 16  1  0
 16 17  2  0
 11 18  1  0
 18 19  2  0
 19 20  1  0
 19 21  1  0
  6 22  1  0
 22 23  2  0
 23  3  1  0
 21  9  1  0
 17 12  1  0
  1 24  1  0
  1 25  1  0
  1 26  1  0
  4 27  1  0
  5 28  1  0
  7 29  1  0
  7 30  1  0
 10 31  1  0
 13 32  1  0
 14 33  1  0
 15 34  1  0
 16 35  1  0
 17 36  1  0
 20 37  1  0
 20 38  1  0
 20 39  1  0
 21 40  1  0
 22 41  1  0
 23 42  1  0
M  END
>  <smiles>  (47) 
COc1ccc(CN=c2cc(-c3ccccc3)nc(C)[nH]2)cc1

>  <score_type>  (47) 
oracle

>  <origin>  (47) 
adg

>  <m_score__min__energy>  (47) 
-8.0800000000000001

>  <m_primary>  (47) 
energy

$$$$
47:0
     RDKit          3D

 34 36  0  0  0  0  0  0  0  0999 V2000
   64.8780   33.4960   50.9050 C   0  0  0  0  0  0  0  0  0  0  0  0
   64.0310   33.3670   49.6820 C   0  0  0  0  0  0  0  0  0  0  0  0
   62.6820   33.6450   49.5920 C   0  0  0  0  0  0  0  0  0  0  0  0
   62.3990   33.4490   48.2510 C   0  0  0  0  0  0  0  0  0  0  0  0
   61.0960   33.6030   47.5940 C   0  0  0  0  0  0  0  0  0  0  0  0
   60.1490   34.5890   47.8600 C   0  0  0  0  0  0  0  0  0  0  0  0
   59.0010   34.4810   47.0660 C   0  0  0  0  0  0  0  0  0  0  0  0
   59.0500   33.4090   46.1880 C   0  0  0  0  0  0  0  0  0  0  0  0
   57.8120   32.9940   45.0170 S   0  0  0  0  0  0  0  0  0  0  0  0
   58.3650   33.1800   43.6330 O   0  0  0  0  0  0  0  0  0  0  0  0
   56.6330   33.9120   45.1950 O   0  0  0  0  0  0  0  0  0  0  0  0
   57.3360   31.3300   45.2420 N   0  0  0  0  0  0  0  0  0  0  0  0
   56.4990   30.8640   44.1370 C   0  0  0  0  0  0  0  0  0  0  0  0
   56.7060   29.3600   44.0420 C   0  0  0  0  0  0  0  0  0  0  0  0
   58.0100   29.0840   44.7740 C   0  0  0  0  0  0  0  0  0  0  0  0
   58.4980   30.4430   45.2530 C   0  0  0  0  0  0  0  0  0  0  0  0
   60.5100   32.5990   46.3760 S   0  0  0  0  0  0  0  0  0  0  0  0
   63.5030   33.0990   47.6270 O   0  0  0  0  0  0  0  0  0  0  0  0
   64.4980   33.0480   48.4620 N   0  0  0  0  0  0  0  0  0  0  0  0
   64.2463   33.3998   51.8003 H   0  0  0  0  0  0  0  0  0  0  0  0
   65.6411   32.7037   50.9078 H   0  0  0  0  0  0  0  0  0  0  0  0
   65.3706   34.4795   50.9078 H   0  0  0  0  0  0  0  0  0  0  0  0
   61.9949   33.9499   50.3951 H   0  0  0  0  0  0  0  0  0  0  0  0
   60.2890   35.3739   48.6179 H   0  0  0  0  0  0  0  0  0  0  0  0
   58.1493   35.1740   47.1318 H   0  0  0  0  0  0  0  0  0  0  0  0
   55.4417   31.0899   44.3398 H   0  0  0  0  0  0  0  0  0  0  0  0
   56.7704   31.3629   43.1949 H   0  0  0  0  0  0  0  0  0  0  0  0
   55.8738   28.8259   44.5239 H   0  0  0  0  0  0  0  0  0  0  0  0
   56.7433   29.0177   42.9973 H   0  0  0  0  0  0  0  0  0  0  0  0
   57.8374   28.4136   45.6288 H   0  0  0  0  0  0  0  0  0  0  0  0
   58.7475   28.5893   44.1249 H   0  0  0  0  0  0  0  0  0  0  0  0
   58.9051   30.3629   46.2718 H   0  0  0  0  0  0  0  0  0  0  0  0
   59.2985   30.8288   44.6047 H   0  0  0  0  0  0  0  0  0  0  0  0
   65.4810   32.8090   48.2060 H   0  0  0  0  0  0  0  0  0  0  0  0
  1  2  1  0
  2  3  1  0
  3  4  2  0
  4  5  1  0
  5  6  2  0
  6  7  1  0
  7  8  2  0
  8  9  1  0
  9 10  2  0
  9 11  2  0
  9 12  1  0
 12 13  1  0
 13 14  1  0
 14 15  1  0
 15 16  1  0
  8 17  1  0
  4 18  1  0
 18 19  1  0
 19  2  2  0
 17  5  1  0
 16 12  1  0
  1 20  1  0
  1 21  1  0
  1 22  1  0
  3 23  1  0
  6 24  1  0
  7 25  1  0
 13 26  1  0
 13 27  1  0
 14 28  1  0
 14 29  1  0
 15 30  1  0
 15 31  1  0
 16 32  1  0
 16 33  1  0
 19 34  1  0
M  CHG  1  19   1
M  END
>  <UniqueID>  (48) 
43

>  <SMILES>  (48) 
Cc1cc(-c2ccc(S(=O)(=O)N3CCCC3)s2)o[nH+]1

>  <Energy>  (48) 
90.31245644960718

>  <Genealogy>  (48) 
Cc1cc(-c2ccc(S(=O)(=O)N3CCCC3)s2)o[nH+]1 (protonated)
Cc1cc(-c2ccc(S(=O)(=O)N3CCCC3)s2)o[nH+]1 (3D coordinates assigned)
Cc1cc(-c2ccc(S(=O)(=O)N3CCCC3)s2)o[nH+]1 (nonaromatic ring conformer: 90.31245644960718 kcal/mol)

>  <smiles>  (48) 
Cc1cc(-c2ccc(S(=O)(=O)N3CCCC3)s2)on1

>  <score_type>  (48) 
oracle

>  <origin>  (48) 
adg

>  <m_score__min__energy>  (48) 
-6.6399999999999997

>  <m_primary>  (48) 
energy

$$$$
48:0
     RDKit          3D

 41 42  0  0  0  0  0  0  0  0999 V2000
   57.4030   33.3620   44.4680 C   0  0  0  0  0  0  0  0  0  0  0  0
   57.3860   31.9490   43.9000 C   0  0  0  0  0  0  0  0  0  0  0  0
   56.4510   31.1120   44.6440 N   0  0  0  0  0  0  0  0  0  0  0  0
   56.5160   29.6840   44.7540 C   0  0  0  0  0  0  0  0  0  0  0  0
   55.4420   29.0350   44.8680 O   0  0  0  0  0  0  0  0  0  0  0  0
   57.8200   28.9460   44.8100 C   0  0  0  0  0  0  0  0  0  0  0  0
   58.1200   28.3750   46.5140 S   0  0  0  0  0  0  0  0  0  0  0  0
   58.6610   29.9890   47.0800 C   0  0  0  0  0  0  0  0  0  0  0  0
   59.8520   30.1110   47.8030 C   0  0  0  0  0  0  0  0  0  0  0  0
   60.2640   31.3730   48.2320 C   0  0  0  0  0  0  0  0  0  0  0  0
   59.4860   32.4980   47.9410 C   0  0  0  0  0  0  0  0  0  0  0  0
   60.0030   34.0910   48.4840 S   0  0  0  0  0  0  0  0  0  0  0  0
   59.3810   35.1300   47.5930 O   0  0  0  0  0  0  0  0  0  0  0  0
   59.5530   34.3240   49.9010 O   0  0  0  0  0  0  0  0  0  0  0  0
   61.7450   34.1980   48.4000 N   0  0  0  0  0  0  0  0  0  0  0  0
   62.2430   33.7820   47.0700 C   0  0  0  0  0  0  0  0  0  0  0  0
   62.8780   32.3790   47.1040 C   0  0  0  0  0  0  0  0  0  0  0  0
   63.9660   32.2820   48.0120 O   0  0  0  0  0  0  0  0  0  0  0  0
   63.8080   33.0720   49.1840 C   0  0  0  0  0  0  0  0  0  0  0  0
   62.3490   33.4340   49.5080 C   0  0  0  0  0  0  0  0  0  0  0  0
   58.2990   32.3330   47.2130 C   0  0  0  0  0  0  0  0  0  0  0  0
   57.9130   31.0940   46.8040 N   0  0  0  0  0  0  0  0  0  0  0  0
   57.4024   33.3154   45.5670 H   0  0  0  0  0  0  0  0  0  0  0  0
   58.3075   33.8848   44.1236 H   0  0  0  0  0  0  0  0  0  0  0  0
   56.5113   33.9064   44.1236 H   0  0  0  0  0  0  0  0  0  0  0  0
   57.0780   31.9865   42.8447 H   0  0  0  0  0  0  0  0  0  0  0  0
   58.3948   31.5187   43.9848 H   0  0  0  0  0  0  0  0  0  0  0  0
   57.7803   28.0790   44.1341 H   0  0  0  0  0  0  0  0  0  0  0  0
   58.6349   29.6160   44.4983 H   0  0  0  0  0  0  0  0  0  0  0  0
   60.4575   29.2214   48.0310 H   0  0  0  0  0  0  0  0  0  0  0  0
   61.2003   31.4830   48.7988 H   0  0  0  0  0  0  0  0  0  0  0  0
   61.4009   33.7735   46.3623 H   0  0  0  0  0  0  0  0  0  0  0  0
   63.0178   34.4979   46.7584 H   0  0  0  0  0  0  0  0  0  0  0  0
   62.1073   31.6530   47.4022 H   0  0  0  0  0  0  0  0  0  0  0  0
   63.2710   32.1722   46.0976 H   0  0  0  0  0  0  0  0  0  0  0  0
   64.2219   32.5123   50.0357 H   0  0  0  0  0  0  0  0  0  0  0  0
   64.3355   34.0196   49.0000 H   0  0  0  0  0  0  0  0  0  0  0  0
   61.7737   32.5098   49.6656 H   0  0  0  0  0  0  0  0  0  0  0  0
   62.3308   34.0533   50.4169 H   0  0  0  0  0  0  0  0  0  0  0  0
   57.6778   33.2082   46.9717 H   0  0  0  0  0  0  0  0  0  0  0  0
   57.0260   30.9940   46.2610 H   0  0  0  0  0  0  0  0  0  0  0  0
  1  2  1  0
  2  3  1  0
  3  4  1  0
  4  5  2  0
  4  6  1  0
  6  7  1  0
  7  8  1  0
  8  9  2  0
  9 10  1  0
 10 11  2  0
 11 12  1  0
 12 13  2  0
 12 14  2  0
 12 15  1  0
 15 16  1  0
 16 17  1  0
 17 18  1  0
 18 19  1  0
 19 20  1  0
 11 21  1  0
 21 22  2  0
 22  8  1  0
 20 15  1  0
  1 23  1  0
  1 24  1  0
  1 25  1  0
  2 26  1  0
  2 27  1  0
  6 28  1  0
  6 29  1  0
  9 30  1  0
 10 31  1  0
 16 32  1  0
 16 33  1  0
 17 34  1  0
 17 35  1  0
 19 36  1  0
 19 37  1  0
 20 38  1  0
 20 39  1  0
 21 40  1  0
 22 41  1  0
M  CHG  2   3  -1  22   1
M  END
>  <UniqueID>  (49) 
44

>  <SMILES>  (49) 
CC[N-]C(=O)CSc1ccc(S(=O)(=O)N2CCOCC2)c[nH+]1

>  <Energy>  (49) 
42.97455709604872

>  <Genealogy>  (49) 
CC[N-]C(=O)CSc1ccc(S(=O)(=O)N2CCOCC2)c[nH+]1 (protonated)
CC[N-]C(=O)CSc1ccc(S(=O)(=O)N2CCOCC2)c[nH+]1 (3D coordinates assigned)
CC[N-]C(=O)CSc1ccc(S(=O)(=O)N2CCOCC2)c[nH+]1 (nonaromatic ring conformer: 42.97455709604872 kcal/mol)

>  <smiles>  (49) 
CCNC(=O)CSc1ccc(S(=O)(=O)N2CCOCC2)cn1

>  <score_type>  (49) 
oracle

>  <origin>  (49) 
adg

>  <m_score__min__energy>  (49) 
-7.9699999999999998

>  <m_primary>  (49) 
energy

$$$$
49:0
     RDKit          3D

 44 45  0  0  0  0  0  0  0  0999 V2000
   57.9040   21.6990   45.1260 C   0  0  0  0  0  0  0  0  0  0  0  0
   58.1220   22.2830   46.3920 O   0  0  0  0  0  0  0  0  0  0  0  0
   56.9100   22.7950   46.9110 C   0  0  0  0  0  0  0  0  0  0  0  0
   56.6240   24.1490   46.3340 C   0  0  0  0  0  0  0  0  0  0  0  0
   55.4690   24.6390   46.4590 O   0  0  0  0  0  0  0  0  0  0  0  0
   57.6370   24.8430   45.5880 N   0  0  0  0  0  0  0  0  0  0  0  0
   57.5180   26.2040   45.1400 C   0  0  0  0  0  0  0  0  0  0  0  0
   56.9140   27.1540   45.9780 C   0  0  0  0  0  0  0  0  0  0  0  0
   56.7660   28.4790   45.5580 C   0  0  0  0  0  0  0  0  0  0  0  0
   57.2090   28.8690   44.2890 C   0  0  0  0  0  0  0  0  0  0  0  0
   56.9900   30.5360   43.7610 S   0  0  0  0  0  0  0  0  0  0  0  0
   55.8870   31.1790   44.5540 O   0  0  0  0  0  0  0  0  0  0  0  0
   56.5920   30.5220   42.3110 O   0  0  0  0  0  0  0  0  0  0  0  0
   58.4800   31.4310   43.9630 N   0  0  0  0  0  0  0  0  0  0  0  0
   59.0690   31.1240   45.2820 C   0  0  0  0  0  0  0  0  0  0  0  0
   58.0820   31.3260   46.4480 C   0  0  0  0  0  0  0  0  0  0  0  0
   58.0430   32.7410   47.0650 C   0  0  0  0  0  0  0  0  0  0  0  0
   57.8110   33.8770   46.0550 C   0  0  0  0  0  0  0  0  0  0  0  0
   58.7140   33.8410   44.7960 C   0  0  0  0  0  0  0  0  0  0  0  0
   58.2780   32.8710   43.6720 C   0  0  0  0  0  0  0  0  0  0  0  0
   57.7860   27.9200   43.4360 C   0  0  0  0  0  0  0  0  0  0  0  0
   57.9360   26.5940   43.8560 C   0  0  0  0  0  0  0  0  0  0  0  0
   57.5220   20.6756   45.2552 H   0  0  0  0  0  0  0  0  0  0  0  0
   57.1686   22.2972   44.5680 H   0  0  0  0  0  0  0  0  0  0  0  0
   58.8515   21.6690   44.5680 H   0  0  0  0  0  0  0  0  0  0  0  0
   56.0880   22.1107   46.6540 H   0  0  0  0  0  0  0  0  0  0  0  0
   56.9999   22.8849   48.0036 H   0  0  0  0  0  0  0  0  0  0  0  0
   58.4720   24.2970   45.2750 H   0  0  0  0  0  0  0  0  0  0  0  0
   56.5542   26.8536   46.9731 H   0  0  0  0  0  0  0  0  0  0  0  0
   56.2999   29.2174   46.2269 H   0  0  0  0  0  0  0  0  0  0  0  0
   59.4001   30.0750   45.2817 H   0  0  0  0  0  0  0  0  0  0  0  0
   59.9060   31.8208   45.4370 H   0  0  0  0  0  0  0  0  0  0  0  0
   57.0726   31.0920   46.0788 H   0  0  0  0  0  0  0  0  0  0  0  0
   58.4328   30.6618   47.2516 H   0  0  0  0  0  0  0  0  0  0  0  0
   57.2299   32.7695   47.8053 H   0  0  0  0  0  0  0  0  0  0  0  0
   59.0359   32.9151   47.5052 H   0  0  0  0  0  0  0  0  0  0  0  0
   56.7635   33.8274   45.7230 H   0  0  0  0  0  0  0  0  0  0  0  0
   58.0635   34.8085   46.5828 H   0  0  0  0  0  0  0  0  0  0  0  0
   58.7404   34.8558   44.3724 H   0  0  0  0  0  0  0  0  0  0  0  0
   59.6898   33.4707   45.1433 H   0  0  0  0  0  0  0  0  0  0  0  0
   57.2067   33.0320   43.4810 H   0  0  0  0  0  0  0  0  0  0  0  0
   58.9193   33.0993   42.8079 H   0  0  0  0  0  0  0  0  0  0  0  0
   58.1225   28.2183   42.4321 H   0  0  0  0  0  0  0  0  0  0  0  0
   58.3835   25.8526   43.1777 H   0  0  0  0  0  0  0  0  0  0  0  0
  1  2  1  0
  2  3  1  0
  3  4  1  0
  4  5  2  0
  4  6  1  0
  6  7  1  0
  7  8  2  0
  8  9  1  0
  9 10  2  0
 10 11  1  0
 11 12  2  0
 11 13  2  0
 11 14  1  0
 14 15  1  0
 15 16  1  0
 16 17  1  0
 17 18  1  0
 18 19  1  0
 19 20  1  0
 10 21  1  0
 21 22  2  0
 22  7  1  0
 20 14  1  0
  1 23  1  0
  1 24  1  0
  1 25  1  0
  3 26  1  0
  3 27  1  0
  6 28  1  0
  8 29  1  0
  9 30  1  0
 15 31  1  0
 15 32  1  0
 16 33  1  0
 16 34  1  0
 17 35  1  0
 17 36  1  0
 18 37  1  0
 18 38  1  0
 19 39  1  0
 19 40  1  0
 20 41  1  0
 20 42  1  0
 21 43  1  0
 22 44  1  0
M  END
>  <UniqueID>  (50) 
45

>  <SMILES>  (50) 
COCC(=O)Nc1ccc(S(=O)(=O)N2CCCCCC2)cc1

>  <Energy>  (50) 
59.38223691154689

>  <Genealogy>  (50) 
COCC(=O)Nc1ccc(S(=O)(=O)N2CCCCCC2)cc1 (3D coordinates assigned)
COCC(=O)Nc1ccc(S(=O)(=O)N2CCCCCC2)cc1 (nonaromatic ring conformer: 59.38223691154689 kcal/mol)

>  <smiles>  (50) 
COCC(=O)Nc1ccc(S(=O)(=O)N2CCCCCC2)cc1

>  <score_type>  (50) 
oracle

>  <origin>  (50) 
adg

>  <m_score__min__energy>  (50) 
-6.0199999999999996

>  <m_primary>  (50) 
energy

$$$$
50:0
     RDKit          3D

 35 37  0  0  0  0  0  0  0  0999 V2000
   57.7950   32.8830   44.9820 C   0  0  0  0  0  0  0  0  0  0  0  0
   57.7710   31.3560   44.9350 C   0  0  0  0  0  0  0  0  0  0  0  0
   56.6970   30.8080   43.9810 C   0  0  0  0  0  0  0  0  0  0  0  0
   56.6590   29.2770   43.8940 C   0  0  0  0  0  0  0  0  0  0  0  0
   55.9170   28.7220   44.9800 O   0  0  0  0  0  0  0  0  0  0  0  0
   56.2700   27.5370   45.6340 C   0  0  0  0  0  0  0  0  0  0  0  0
   55.4040   26.5710   45.9910 N   0  0  0  0  0  0  0  0  0  0  0  0
   56.0910   25.6040   46.5810 N   0  0  0  0  0  0  0  0  0  0  0  0
   57.3950   25.9490   46.6040 C   0  0  0  0  0  0  0  0  0  0  0  0
   57.5480   27.1840   46.0040 C   0  0  0  0  0  0  0  0  0  0  0  0
   58.7860   27.9580   45.7920 C   0  0  0  0  0  0  0  0  0  0  0  0
   59.4850   27.9540   44.6350 N   0  0  0  0  0  0  0  0  0  0  0  0
   60.5040   28.7970   44.7830 N   0  0  0  0  0  0  0  0  0  0  0  0
   60.4110   29.2910   46.0300 C   0  0  0  0  0  0  0  0  0  0  0  0
   59.3550   28.7950   46.6760 N   0  0  0  0  0  0  0  0  0  0  0  0
   58.8640   29.2570   47.9080 N   0  0  0  0  0  0  0  0  0  0  0  0
   59.2510   30.3980   48.4040 C   0  0  0  0  0  0  0  0  0  0  0  0
   58.7270   30.8320   49.7370 C   0  0  0  0  0  0  0  0  0  0  0  0
   60.1000   31.3550   47.5880 C   0  0  0  0  0  0  0  0  0  0  0  0
   61.4980   30.4990   46.7710 S   0  0  0  0  0  0  0  0  0  0  0  0
   57.8003   33.2175   46.0299 H   0  0  0  0  0  0  0  0  0  0  0  0
   58.6990   33.2513   44.4750 H   0  0  0  0  0  0  0  0  0  0  0  0
   56.9030   33.2795   44.4750 H   0  0  0  0  0  0  0  0  0  0  0  0
   58.7556   30.9989   44.5987 H   0  0  0  0  0  0  0  0  0  0  0  0
   57.5313   30.9964   45.9465 H   0  0  0  0  0  0  0  0  0  0  0  0
   55.7143   31.1587   44.3291 H   0  0  0  0  0  0  0  0  0  0  0  0
   56.9479   31.1768   42.9755 H   0  0  0  0  0  0  0  0  0  0  0  0
   56.1849   28.9820   42.9463 H   0  0  0  0  0  0  0  0  0  0  0  0
   57.6901   28.8971   43.9432 H   0  0  0  0  0  0  0  0  0  0  0  0
   58.2072   25.3433   47.0323 H   0  0  0  0  0  0  0  0  0  0  0  0
   59.3100   30.3491   50.5351 H   0  0  0  0  0  0  0  0  0  0  0  0
   58.8158   31.9246   49.8278 H   0  0  0  0  0  0  0  0  0  0  0  0
   57.6700   30.5412   49.8278 H   0  0  0  0  0  0  0  0  0  0  0  0
   59.4691   31.8216   46.8172 H   0  0  0  0  0  0  0  0  0  0  0  0
   60.5148   32.1108   48.2712 H   0  0  0  0  0  0  0  0  0  0  0  0
  1  2  1  0
  2  3  1  0
  3  4  1  0
  4  5  1  0
  5  6  1  0
  6  7  1  0
  7  8  1  0
  8  9  2  0
  9 10  1  0
 10 11  1  0
 11 12  2  0
 12 13  1  0
 13 14  2  0
 14 15  1  0
 15 16  1  0
 16 17  2  0
 17 18  1  0
 17 19  1  0
 19 20  1  0
 10  6  2  0
 15 11  1  0
 20 14  1  0
  1 21  1  0
  1 22  1  0
  1 23  1  0
  2 24  1  0
  2 25  1  0
  3 26  1  0
  3 27  1  0
  4 28  1  0
  4 29  1  0
  9 30  1  0
 18 31  1  0
 18 32  1  0
 18 33  1  0
 19 34  1  0
 19 35  1  0
M  CHG  1   7  -1
M  END
>  <UniqueID>  (51) 
46

>  <SMILES>  (51) 
CCCCOc1[n-]ncc1-c1nnc2n1N=C(C)CS2

>  <Energy>  (51) 
103.10971307489079

>  <Genealogy>  (51) 
CCCCOc1[n-]ncc1-c1nnc2n1N=C(C)CS2 (protonated)
CCCCOc1[n-]ncc1-c1nnc2n1N=C(C)CS2 (3D coordinates assigned)
CCCCOc1[n-]ncc1-c1nnc2n1N=C(C)CS2 (nonaromatic ring conformer: 103.10971307489079 kcal/mol)

>  <smiles>  (51) 
CCCCOc1[nH]ncc1-c1nnc2n1N=C(C)CS2

>  <score_type>  (51) 
oracle

>  <origin>  (51) 
adg

>  <m_score__min__energy>  (51) 
-9.1600000000000001

>  <m_primary>  (51) 
energy

$$$$
51:0
     RDKit          3D

 33 34  0  0  0  0  0  0  0  0999 V2000
   63.7020   33.0700   46.8080 N   0  0  0  0  0  0  0  0  0  0  0  0
   62.5130   32.3590   47.1650 C   0  0  0  0  0  0  0  0  0  0  0  0
   62.5850   31.1170   47.3670 O   0  0  0  0  0  0  0  0  0  0  0  0
   61.2050   33.0470   47.2750 C   0  0  0  0  0  0  0  0  0  0  0  0
   60.9200   33.8980   48.3580 C   0  0  0  0  0  0  0  0  0  0  0  0
   59.6900   34.5590   48.4320 C   0  0  0  0  0  0  0  0  0  0  0  0
   58.7370   34.3850   47.4270 C   0  0  0  0  0  0  0  0  0  0  0  0
   59.0060   33.5390   46.3440 C   0  0  0  0  0  0  0  0  0  0  0  0
   57.8480   33.3680   45.0270 S   0  0  0  0  0  0  0  0  0  0  0  0
   58.5630   33.2990   43.7050 O   0  0  0  0  0  0  0  0  0  0  0  0
   56.9440   34.5680   45.0230 O   0  0  0  0  0  0  0  0  0  0  0  0
   56.8860   31.9320   45.2500 N   0  0  0  0  0  0  0  0  0  0  0  0
   57.1090   30.9610   44.1750 C   0  0  0  0  0  0  0  0  0  0  0  0
   57.4860   29.6120   44.7330 C   0  0  0  0  0  0  0  0  0  0  0  0
   58.8400   29.2810   44.9180 C   0  0  0  0  0  0  0  0  0  0  0  0
   59.1960   28.0510   45.4790 C   0  0  0  0  0  0  0  0  0  0  0  0
   58.2070   27.1370   45.8510 C   0  0  0  0  0  0  0  0  0  0  0  0
   56.8590   27.4490   45.6560 C   0  0  0  0  0  0  0  0  0  0  0  0
   56.4940   28.6790   45.0980 C   0  0  0  0  0  0  0  0  0  0  0  0
   55.1460   28.9720   44.9170 O   0  0  0  0  0  0  0  0  0  0  0  0
   60.2280   32.8560   46.2830 C   0  0  0  0  0  0  0  0  0  0  0  0
   64.6190   32.5730   46.7870 H   0  0  0  0  0  0  0  0  0  0  0  0
   63.6700   34.0590   46.4770 H   0  0  0  0  0  0  0  0  0  0  0  0
   61.6684   34.0443   49.1507 H   0  0  0  0  0  0  0  0  0  0  0  0
   59.4726   35.2184   49.2852 H   0  0  0  0  0  0  0  0  0  0  0  0
   57.7738   34.9129   47.4858 H   0  0  0  0  0  0  0  0  0  0  0  0
   56.1865   30.8606   43.5843 H   0  0  0  0  0  0  0  0  0  0  0  0
   57.9345   31.3215   43.5437 H   0  0  0  0  0  0  0  0  0  0  0  0
   59.6232   29.9935   44.6198 H   0  0  0  0  0  0  0  0  0  0  0  0
   60.2571   27.8023   45.6279 H   0  0  0  0  0  0  0  0  0  0  0  0
   58.4894   26.1721   46.2973 H   0  0  0  0  0  0  0  0  0  0  0  0
   56.0820   26.7249   45.9422 H   0  0  0  0  0  0  0  0  0  0  0  0
   60.4244   32.1639   45.4509 H   0  0  0  0  0  0  0  0  0  0  0  0
  1  2  1  0
  2  3  2  0
  2  4  1  0
  4  5  2  0
  5  6  1  0
  6  7  2  0
  7  8  1  0
  8  9  1  0
  9 10  2  0
  9 11  2  0
  9 12  1  0
 12 13  1  0
 13 14  1  0
 14 15  2  0
 15 16  1  0
 16 17  2  0
 17 18  1  0
 18 19  2  0
 19 20  1  0
  8 21  2  0
 21  4  1  0
 19 14  1  0
  1 22  1  0
  1 23  1  0
  5 24  1  0
  6 25  1  0
  7 26  1  0
 13 27  1  0
 13 28  1  0
 15 29  1  0
 16 30  1  0
 17 31  1  0
 18 32  1  0
 21 33  1  0
M  CHG  2  12  -1  20  -1
M  END
>  <UniqueID>  (52) 
47

>  <SMILES>  (52) 
NC(=O)c1cccc(S(=O)(=O)[N-]Cc2ccccc2[O-])c1

>  <Energy>  (52) 
30.594560409616452

>  <Genealogy>  (52) 
NC(=O)c1cccc(S(=O)(=O)[N-]Cc2ccccc2[O-])c1 (protonated)
NC(=O)c1cccc(S(=O)(=O)[N-]Cc2ccccc2[O-])c1 (3D coordinates assigned)
NC(=O)c1cccc(S(=O)(=O)[N-]Cc2ccccc2[O-])c1 (optimized conformer: 30.594560409616452 kcal/mol)

>  <smiles>  (52) 
NC(=O)c1cccc(S(=O)(=O)NCc2ccccc2O)c1

>  <score_type>  (52) 
oracle

>  <origin>  (52) 
adg

>  <m_score__min__energy>  (52) 
-13.02

>  <m_primary>  (52) 
energy

$$$$
52:0
     RDKit          3D

 39 41  0  0  0  0  0  0  0  0999 V2000
   59.6560   28.4530   45.2980 C   0  0  0  0  0  0  0  0  0  0  0  0
   60.4030   29.7380   45.6540 C   0  0  0  0  0  0  0  0  0  0  0  0
   59.5950   30.6480   46.5920 C   0  0  0  0  0  0  0  0  0  0  0  0
   59.5150   32.0810   46.0790 C   0  0  0  0  0  0  0  0  0  0  0  0
   60.3290   33.1010   46.6340 C   0  0  0  0  0  0  0  0  0  0  0  0
   61.4030   32.8220   47.6070 C   0  0  0  0  0  0  0  0  0  0  0  0
   62.7520   32.9010   47.2240 C   0  0  0  0  0  0  0  0  0  0  0  0
   63.7640   32.6630   48.1590 C   0  0  0  0  0  0  0  0  0  0  0  0
   63.4350   32.3640   49.4850 C   0  0  0  0  0  0  0  0  0  0  0  0
   62.0940   32.3080   49.8770 C   0  0  0  0  0  0  0  0  0  0  0  0
   61.0810   32.5450   48.9450 C   0  0  0  0  0  0  0  0  0  0  0  0
   60.1160   34.3970   46.2880 N   0  0  0  0  0  0  0  0  0  0  0  0
   59.1530   34.7470   45.4030 C   0  0  0  0  0  0  0  0  0  0  0  0
   58.3800   33.7930   44.8320 N   0  0  0  0  0  0  0  0  0  0  0  0
   58.5350   32.4770   45.1320 C   0  0  0  0  0  0  0  0  0  0  0  0
   57.6490   31.5150   44.4470 C   0  0  0  0  0  0  0  0  0  0  0  0
   57.5160   31.5590   43.0510 C   0  0  0  0  0  0  0  0  0  0  0  0
   56.7020   30.6320   42.3920 C   0  0  0  0  0  0  0  0  0  0  0  0
   56.0310   29.6460   43.1220 C   0  0  0  0  0  0  0  0  0  0  0  0
   56.1790   29.5800   44.5110 C   0  0  0  0  0  0  0  0  0  0  0  0
   55.5220   28.5930   45.2340 O   0  0  0  0  0  0  0  0  0  0  0  0
   56.9930   30.5070   45.1720 C   0  0  0  0  0  0  0  0  0  0  0  0
   59.3554   27.9359   46.2212 H   0  0  0  0  0  0  0  0  0  0  0  0
   58.7610   28.7005   44.7083 H   0  0  0  0  0  0  0  0  0  0  0  0
   60.3140   27.7978   44.7083 H   0  0  0  0  0  0  0  0  0  0  0  0
   61.3481   29.4709   46.1495 H   0  0  0  0  0  0  0  0  0  0  0  0
   60.5784   30.2922   44.7201 H   0  0  0  0  0  0  0  0  0  0  0  0
   58.5747   30.2468   46.6820 H   0  0  0  0  0  0  0  0  0  0  0  0
   60.1061   30.6669   47.5658 H   0  0  0  0  0  0  0  0  0  0  0  0
   63.0132   33.1509   46.1851 H   0  0  0  0  0  0  0  0  0  0  0  0
   64.8191   32.7109   47.8516 H   0  0  0  0  0  0  0  0  0  0  0  0
   64.2312   32.1729   50.2195 H   0  0  0  0  0  0  0  0  0  0  0  0
   61.8364   32.0769   50.9211 H   0  0  0  0  0  0  0  0  0  0  0  0
   60.0276   32.5145   49.2604 H   0  0  0  0  0  0  0  0  0  0  0  0
   58.9986   35.8058   45.1479 H   0  0  0  0  0  0  0  0  0  0  0  0
   58.0536   32.3250   42.4729 H   0  0  0  0  0  0  0  0  0  0  0  0
   56.5896   30.6786   41.2988 H   0  0  0  0  0  0  0  0  0  0  0  0
   55.3861   28.9215   42.6031 H   0  0  0  0  0  0  0  0  0  0  0  0
   57.1193   30.4458   46.2630 H   0  0  0  0  0  0  0  0  0  0  0  0
  1  2  1  0
  2  3  1  0
  3  4  1  0
  4  5  2  0
  5  6  1  0
  6  7  2  0
  7  8  1  0
  8  9  2  0
  9 10  1  0
 10 11  2  0
  5 12  1  0
 12 13  2  0
 13 14  1  0
 14 15  2  0
 15 16  1  0
 16 17  2  0
 17 18  1  0
 18 19  2  0
 19 20  1  0
 20 21  1  0
 20 22  2  0
 15  4  1  0
 22 16  1  0
 11  6  1  0
  1 23  1  0
  1 24  1  0
  1 25  1  0
  2 26  1  0
  2 27  1  0
  3 28  1  0
  3 29  1  0
  7 30  1  0
  8 31  1  0
  9 32  1  0
 10 33  1  0
 11 34  1  0
 13 35  1  0
 17 36  1  0
 18 37  1  0
 19 38  1  0
 22 39  1  0
M  CHG  1  21  -1
M  END
>  <UniqueID>  (53) 
48

>  <SMILES>  (53) 
CCCc1c(-c2ccccc2)ncnc1-c1cccc([O-])c1

>  <Energy>  (53) 
53.93702706397601

>  <Genealogy>  (53) 
CCCc1c(-c2ccccc2)ncnc1-c1cccc([O-])c1 (protonated)
CCCc1c(-c2ccccc2)ncnc1-c1cccc([O-])c1 (3D coordinates assigned)
CCCc1c(-c2ccccc2)ncnc1-c1cccc([O-])c1 (optimized conformer: 53.93702706397601 kcal/mol)

>  <smiles>  (53) 
CCCc1c(-c2ccccc2)ncnc1-c1cccc(O)c1

>  <score_type>  (53) 
oracle

>  <origin>  (53) 
adg

>  <m_score__min__energy>  (53) 
-11.09

>  <m_primary>  (53) 
energy

$$$$
53:0
     RDKit          3D

 47 49  0  0  0  0  0  0  0  0999 V2000
   57.3730   25.9750   45.1300 C   0  0  0  0  0  0  0  0  0  0  0  0
   56.7440   27.1650   45.5940 O   0  0  0  0  0  0  0  0  0  0  0  0
   57.3380   28.4340   45.5720 C   0  0  0  0  0  0  0  0  0  0  0  0
   56.9530   29.3310   44.5700 C   0  0  0  0  0  0  0  0  0  0  0  0
   57.5010   30.6160   44.5160 C   0  0  0  0  0  0  0  0  0  0  0  0
   58.4360   31.0310   45.4800 C   0  0  0  0  0  0  0  0  0  0  0  0
   58.9870   32.3610   45.4810 N   0  0  0  0  0  0  0  0  0  0  0  0
   58.2130   33.5620   45.3280 C   0  0  0  0  0  0  0  0  0  0  0  0
   56.9640   33.5090   45.1690 O   0  0  0  0  0  0  0  0  0  0  0  0
   58.8840   34.9020   45.3650 C   0  0  0  0  0  0  0  0  0  0  0  0
   59.3670   35.3350   47.0720 S   0  0  0  0  0  0  0  0  0  0  0  0
   60.6020   34.0370   47.2270 C   0  0  0  0  0  0  0  0  0  0  0  0
   61.5860   33.8540   46.3270 N   0  0  0  0  0  0  0  0  0  0  0  0
   62.3000   32.8170   46.7390 N   0  0  0  0  0  0  0  0  0  0  0  0
   61.7420   32.3840   47.8860 C   0  0  0  0  0  0  0  0  0  0  0  0
   62.2730   31.2220   48.6640 C   0  0  0  0  0  0  0  0  0  0  0  0
   60.6660   33.1270   48.2220 N   0  0  0  0  0  0  0  0  0  0  0  0
   59.7800   32.9660   49.3440 C   0  0  0  0  0  0  0  0  0  0  0  0
   58.8560   31.9110   49.3790 C   0  0  0  0  0  0  0  0  0  0  0  0
   58.0380   31.7240   50.4970 C   0  0  0  0  0  0  0  0  0  0  0  0
   58.1300   32.5840   51.5980 C   0  0  0  0  0  0  0  0  0  0  0  0
   57.3060   32.3410   52.7060 O   0  0  0  0  0  0  0  0  0  0  0  0
   56.3320   31.3040   52.7680 C   0  0  0  0  0  0  0  0  0  0  0  0
   59.0420   33.6550   51.5560 C   0  0  0  0  0  0  0  0  0  0  0  0
   59.8540   33.8450   50.4350 C   0  0  0  0  0  0  0  0  0  0  0  0
   58.8560   30.1160   46.4570 C   0  0  0  0  0  0  0  0  0  0  0  0
   58.3060   28.8320   46.5130 C   0  0  0  0  0  0  0  0  0  0  0  0
   57.6929   25.3697   45.9910 H   0  0  0  0  0  0  0  0  0  0  0  0
   56.6620   25.3982   44.5203 H   0  0  0  0  0  0  0  0  0  0  0  0
   58.2501   26.2376   44.5203 H   0  0  0  0  0  0  0  0  0  0  0  0
   56.2122   29.0224   43.8176 H   0  0  0  0  0  0  0  0  0  0  0  0
   57.1988   31.3062   43.7146 H   0  0  0  0  0  0  0  0  0  0  0  0
   59.9900   32.4660   45.7580 H   0  0  0  0  0  0  0  0  0  0  0  0
   59.7829   34.8733   44.7316 H   0  0  0  0  0  0  0  0  0  0  0  0
   58.1795   35.6607   44.9935 H   0  0  0  0  0  0  0  0  0  0  0  0
   62.1790   31.4278   49.7405 H   0  0  0  0  0  0  0  0  0  0  0  0
   61.6984   30.3186   48.4118 H   0  0  0  0  0  0  0  0  0  0  0  0
   63.3322   31.0652   48.4118 H   0  0  0  0  0  0  0  0  0  0  0  0
   58.7747   31.2268   48.5215 H   0  0  0  0  0  0  0  0  0  0  0  0
   57.3160   30.8943   50.5119 H   0  0  0  0  0  0  0  0  0  0  0  0
   56.1121   31.0699   53.8201 H   0  0  0  0  0  0  0  0  0  0  0  0
   55.4111   31.6354   52.2659 H   0  0  0  0  0  0  0  0  0  0  0  0
   56.7204   30.4056   52.2659 H   0  0  0  0  0  0  0  0  0  0  0  0
   59.1159   34.3453   52.4092 H   0  0  0  0  0  0  0  0  0  0  0  0
   60.5570   34.6906   50.4076 H   0  0  0  0  0  0  0  0  0  0  0  0
   59.6252   30.4116   47.1857 H   0  0  0  0  0  0  0  0  0  0  0  0
   58.6309   28.1302   47.2953 H   0  0  0  0  0  0  0  0  0  0  0  0
  1  2  1  0
  2  3  1  0
  3  4  2  0
  4  5  1  0
  5  6  2  0
  6  7  1  0
  7  8  1  0
  8  9  2  0
  8 10  1  0
 10 11  1  0
 11 12  1  0
 12 13  2  0
 13 14  1  0
 14 15  2  0
 15 16  1  0
 15 17  1  0
 17 18  1  0
 18 19  2  0
 19 20  1  0
 20 21  2  0
 21 22  1  0
 22 23  1  0
 21 24  1  0
 24 25  2  0
  6 26  1  0
 26 27  2  0
 27  3  1  0
 17 12  1  0
 25 18  1  0
  1 28  1  0
  1 29  1  0
  1 30  1  0
  4 31  1  0
  5 32  1  0
  7 33  1  0
 10 34  1  0
 10 35  1  0
 16 36  1  0
 16 37  1  0
 16 38  1  0
 19 39  1  0
 20 40  1  0
 23 41  1  0
 23 42  1  0
 23 43  1  0
 24 44  1  0
 25 45  1  0
 26 46  1  0
 27 47  1  0
M  END
>  <UniqueID>  (54) 
49

>  <SMILES>  (54) 
COc1ccc(NC(=O)CSc2nnc(C)n2-c2ccc(OC)cc2)cc1

>  <Energy>  (54) 
81.10537260802742

>  <Genealogy>  (54) 
COc1ccc(NC(=O)CSc2nnc(C)n2-c2ccc(OC)cc2)cc1 (3D coordinates assigned)
COc1ccc(NC(=O)CSc2nnc(C)n2-c2ccc(OC)cc2)cc1 (optimized conformer: 81.10537260802742 kcal/mol)

>  <smiles>  (54) 
COc1ccc(NC(=O)CSc2nnc(C)n2-c2ccc(OC)cc2)cc1

>  <score_type>  (54) 
oracle

>  <origin>  (54) 
adg

>  <m_score__min__energy>  (54) 
-8.1400000000000006

>  <m_primary>  (54) 
energy

$$$$
54:0
     RDKit          3D

 30 31  0  0  0  0  0  0  0  0999 V2000
   57.5538   31.0114   47.1071 H   0  0  0  0  0  0  0  0  0  0  0  0
   57.8070   31.6710   46.2640 C   0  0  0  0  0  0  0  0  0  0  0  0
   58.4560   32.8830   46.5030 C   0  0  0  0  0  0  0  0  0  0  0  0
   58.6945   33.1836   47.5339 H   0  0  0  0  0  0  0  0  0  0  0  0
   58.8050   33.7190   45.4320 C   0  0  0  0  0  0  0  0  0  0  0  0
   59.4580   35.0450   45.6930 C   0  0  0  0  0  0  0  0  0  0  0  0
   59.5378   35.2071   46.7781 H   0  0  0  0  0  0  0  0  0  0  0  0
   60.4631   35.0530   45.2461 H   0  0  0  0  0  0  0  0  0  0  0  0
   58.8516   35.8466   45.2461 H   0  0  0  0  0  0  0  0  0  0  0  0
   58.4790   33.3380   44.1220 C   0  0  0  0  0  0  0  0  0  0  0  0
   58.7280   34.0037   43.2825 H   0  0  0  0  0  0  0  0  0  0  0  0
   57.8370   32.1130   43.8730 C   0  0  0  0  0  0  0  0  0  0  0  0
   57.4880   31.7230   42.4630 C   0  0  0  0  0  0  0  0  0  0  0  0
   56.7545   30.9034   42.4801 H   0  0  0  0  0  0  0  0  0  0  0  0
   57.0578   32.5891   41.9388 H   0  0  0  0  0  0  0  0  0  0  0  0
   58.3964   31.3913   41.9388 H   0  0  0  0  0  0  0  0  0  0  0  0
   57.4760   31.2890   44.9590 C   0  0  0  0  0  0  0  0  0  0  0  0
   56.8210   30.0340   44.7400 N   0  0  0  0  0  0  0  0  0  0  0  0
   57.1080   28.8600   45.2440 C   0  0  0  0  0  0  0  0  0  0  0  0
   58.4010   28.4870   45.7200 C   0  0  0  0  0  0  0  0  0  0  0  0
   59.5610   29.3470   45.6830 C   0  0  0  0  0  0  0  0  0  0  0  0
   60.4940   30.0310   45.6450 N   0  0  0  0  0  0  0  0  0  0  0  0
   58.5820   27.2020   46.2480 C   0  0  0  0  0  0  0  0  0  0  0  0
   59.5709   26.8998   46.6232 H   0  0  0  0  0  0  0  0  0  0  0  0
   57.5200   26.3060   46.3010 C   0  0  0  0  0  0  0  0  0  0  0  0
   57.6641   25.2981   46.7174 H   0  0  0  0  0  0  0  0  0  0  0  0
   56.2750   26.6960   45.8230 C   0  0  0  0  0  0  0  0  0  0  0  0
   55.4299   25.9928   45.8585 H   0  0  0  0  0  0  0  0  0  0  0  0
   56.0970   27.9420   45.3120 N   0  0  0  0  0  0  0  0  0  0  0  0
   55.1450   28.1990   44.9640 H   0  0  0  0  0  0  0  0  0  0  0  0
  1  2  1  0
  2  3  2  0
  3  4  1  0
  3  5  1  0
  5  6  1  0
  6  7  1  0
  6  8  1  0
  6  9  1  0
  5 10  2  0
 10 11  1  0
 10 12  1  0
 12 13  1  0
 13 14  1  0
 13 15  1  0
 13 16  1  0
 12 17  2  0
 17 18  1  0
 18 19  2  0
 19 20  1  0
 20 21  1  0
 21 22  3  0
 20 23  2  0
 23 24  1  0
 23 25  1  0
 25 26  1  0
 25 27  2  0
 27 28  1  0
 27 29  1  0
 29 30  1  0
 17  2  1  0
 29 19  1  0
M  END
>  <UniqueID>  (55) 
50

>  <SMILES>  (55) 
Cc1ccc(/N=c2/[nH]cccc2C#N)c(C)c1

>  <Energy>  (55) 
44.735124162469624

>  <Genealogy>  (55) 
Cc1ccc(/N=c2/[nH]cccc2C#N)c(C)c1 (cis-trans isomerization)
Cc1ccc(/N=c2/[nH]cccc2C#N)c(C)c1 (3D coordinates assigned)
Cc1ccc(/N=c2/[nH]cccc2C#N)c(C)c1 (optimized conformer: 44.735124162469624 kcal/mol)

>  <smiles>  (55) 
Cc1ccc(N=c2[nH]cccc2C#N)c(C)c1

>  <score_type>  (55) 
oracle

>  <origin>  (55) 
adg

>  <m_score__min__energy>  (55) 
-6.5599999999999996

>  <m_primary>  (55) 
energy

$$$$
55:0
     RDKit          3D

 29 31  0  0  0  0  0  0  0  0999 V2000
   61.7758   34.3309   51.4486 H   0  0  0  0  0  0  0  0  0  0  0  0
   62.5570   33.9690   50.7640 C   0  0  0  0  0  0  0  0  0  0  0  0
   63.7730   33.6150   51.2500 N   0  0  0  0  0  0  0  0  0  0  0  0
   64.7500   33.1640   50.4260 C   0  0  0  0  0  0  0  0  0  0  0  0
   65.7289   32.8811   50.8404 H   0  0  0  0  0  0  0  0  0  0  0  0
   64.5250   33.0600   49.0900 N   0  0  0  0  0  0  0  0  0  0  0  0
   65.2990   32.7130   48.4810 H   0  0  0  0  0  0  0  0  0  0  0  0
   63.3210   33.4100   48.5510 C   0  0  0  0  0  0  0  0  0  0  0  0
   62.2950   33.8740   49.3900 C   0  0  0  0  0  0  0  0  0  0  0  0
   60.9680   34.2110   48.8350 C   0  0  0  0  0  0  0  0  0  0  0  0
   60.0220   34.5380   49.6050 O   0  0  0  0  0  0  0  0  0  0  0  0
   60.7340   34.1470   47.3800 C   0  0  0  0  0  0  0  0  0  0  0  0
   59.5090   34.2630   46.9440 N   0  0  0  0  0  0  0  0  0  0  0  0
   58.7990   33.3410   46.1030 C   0  0  0  0  0  0  0  0  0  0  0  0
   58.5570   32.0180   46.5080 C   0  0  0  0  0  0  0  0  0  0  0  0
   58.8863   31.6796   47.5015 H   0  0  0  0  0  0  0  0  0  0  0  0
   57.8980   31.1290   45.6510 C   0  0  0  0  0  0  0  0  0  0  0  0
   57.6960   30.0983   45.9780 H   0  0  0  0  0  0  0  0  0  0  0  0
   57.4960   31.5500   44.3790 C   0  0  0  0  0  0  0  0  0  0  0  0
   56.6730   30.4340   43.3050 Cl  0  0  0  0  0  0  0  0  0  0  0  0
   57.7660   32.8570   43.9600 C   0  0  0  0  0  0  0  0  0  0  0  0
   57.4594   33.1861   42.9562 H   0  0  0  0  0  0  0  0  0  0  0  0
   58.4250   33.7460   44.8150 C   0  0  0  0  0  0  0  0  0  0  0  0
   58.6506   34.7675   44.4749 H   0  0  0  0  0  0  0  0  0  0  0  0
   61.9080   33.9660   46.4400 C   0  0  0  0  0  0  0  0  0  0  0  0
   61.5839   33.3483   45.5894 H   0  0  0  0  0  0  0  0  0  0  0  0
   62.2311   34.9678   46.1207 H   0  0  0  0  0  0  0  0  0  0  0  0
   63.0880   33.3000   47.0940 C   0  0  0  0  0  0  0  0  0  0  0  0
   63.9260   32.6990   46.3680 O   0  0  0  0  0  0  0  0  0  0  0  0
  1  2  1  0
  2  3  2  0
  3  4  1  0
  4  5  1  0
  4  6  2  0
  6  7  1  0
  6  8  1  0
  8  9  2  0
  9 10  1  0
 10 11  2  0
 10 12  1  0
 12 13  2  0
 13 14  1  0
 14 15  2  0
 15 16  1  0
 15 17  1  0
 17 18  1  0
 17 19  2  0
 19 20  1  0
 19 21  1  0
 21 22  1  0
 21 23  2  0
 23 24  1  0
 12 25  1  0
 25 26  1  0
 25 27  1  0
 25 28  1  0
 28 29  2  0
  9  2  1  0
 23 14  1  0
 28  8  1  0
M  CHG  1   6   1
M  END
>  <UniqueID>  (56) 
51

>  <SMILES>  (56) 
O=C1/C(=N/c2ccc(Cl)cc2)CC(=O)c2[nH+]cncc21

>  <Energy>  (56) 
42.6261397409909

>  <Genealogy>  (56) 
O=C1C(=Nc2ccc(Cl)cc2)CC(=O)c2[nH+]cncc21 (protonated)
O=C1/C(=N/c2ccc(Cl)cc2)CC(=O)c2[nH+]cncc21 (cis-trans isomerization)
O=C1/C(=N/c2ccc(Cl)cc2)CC(=O)c2[nH+]cncc21 (3D coordinates assigned)
O=C1/C(=N/c2ccc(Cl)cc2)CC(=O)c2[nH+]cncc21 (nonaromatic ring conformer: 42.6261397409909 kcal/mol)

>  <smiles>  (56) 
O=C1C(=Nc2ccc(Cl)cc2)CC(=O)c2ncncc21

>  <score_type>  (56) 
oracle

>  <origin>  (56) 
adg

>  <m_score__min__energy>  (56) 
-6.2400000000000002

>  <m_primary>  (56) 
energy

$$$$
56:0
     RDKit          3D

 37 38  0  0  0  0  0  0  0  0999 V2000
   60.0750   28.9750   44.6600 C   0  0  0  0  0  0  0  0  0  0  0  0
   59.4980   30.1890   45.3850 C   0  0  0  0  0  0  0  0  0  0  0  0
   58.1120   30.4490   44.9630 N   0  0  0  0  0  0  0  0  0  0  0  0
   57.4010   29.4560   44.1510 C   0  0  0  0  0  0  0  0  0  0  0  0
   56.1890   28.9620   44.8760 C   0  0  0  0  0  0  0  0  0  0  0  0
   55.1350   29.6530   44.8770 O   0  0  0  0  0  0  0  0  0  0  0  0
   56.2460   27.7140   45.5770 N   0  0  0  0  0  0  0  0  0  0  0  0
   57.4440   27.0270   45.9660 C   0  0  0  0  0  0  0  0  0  0  0  0
   58.3170   27.5440   46.9450 C   0  0  0  0  0  0  0  0  0  0  0  0
   58.0380   28.7030   47.5930 F   0  0  0  0  0  0  0  0  0  0  0  0
   59.4630   26.8280   47.3090 C   0  0  0  0  0  0  0  0  0  0  0  0
   59.7380   25.5930   46.7180 C   0  0  0  0  0  0  0  0  0  0  0  0
   58.8600   25.0620   45.7710 C   0  0  0  0  0  0  0  0  0  0  0  0
   57.7130   25.7710   45.4020 C   0  0  0  0  0  0  0  0  0  0  0  0
   56.8660   25.2400   44.4840 F   0  0  0  0  0  0  0  0  0  0  0  0
   57.5040   31.7360   45.1900 C   0  0  0  0  0  0  0  0  0  0  0  0
   56.3050   31.9240   44.8510 O   0  0  0  0  0  0  0  0  0  0  0  0
   58.2540   32.8490   45.8030 C   0  0  0  0  0  0  0  0  0  0  0  0
   58.7520   33.9080   45.0260 C   0  0  0  0  0  0  0  0  0  0  0  0
   59.4730   34.9310   45.6450 C   0  0  0  0  0  0  0  0  0  0  0  0
   59.7020   34.8870   47.0210 C   0  0  0  0  0  0  0  0  0  0  0  0
   59.2110   33.8100   47.7600 C   0  0  0  0  0  0  0  0  0  0  0  0
   58.5090   32.8230   47.1410 N   0  0  0  0  0  0  0  0  0  0  0  0
   60.4249   28.2389   45.3987 H   0  0  0  0  0  0  0  0  0  0  0  0
   59.2967   28.5203   44.0295 H   0  0  0  0  0  0  0  0  0  0  0  0
   60.9190   29.2914   44.0295 H   0  0  0  0  0  0  0  0  0  0  0  0
   59.5144   30.0015   46.4688 H   0  0  0  0  0  0  0  0  0  0  0  0
   60.1099   31.0683   45.1355 H   0  0  0  0  0  0  0  0  0  0  0  0
   57.0925   29.9178   43.2015 H   0  0  0  0  0  0  0  0  0  0  0  0
   58.0722   28.6064   43.9570 H   0  0  0  0  0  0  0  0  0  0  0  0
   60.1497   27.2395   48.0634 H   0  0  0  0  0  0  0  0  0  0  0  0
   60.6459   25.0388   46.9984 H   0  0  0  0  0  0  0  0  0  0  0  0
   59.0712   24.0838   45.3144 H   0  0  0  0  0  0  0  0  0  0  0  0
   58.5757   33.9311   43.9405 H   0  0  0  0  0  0  0  0  0  0  0  0
   59.8600   35.7706   45.0489 H   0  0  0  0  0  0  0  0  0  0  0  0
   60.2633   35.6923   47.5174 H   0  0  0  0  0  0  0  0  0  0  0  0
   59.3918   33.7592   48.8439 H   0  0  0  0  0  0  0  0  0  0  0  0
  1  2  1  0
  2  3  1  0
  3  4  1  0
  4  5  1  0
  5  6  2  0
  5  7  1  0
  7  8  1  0
  8  9  2  0
  9 10  1  0
  9 11  1  0
 11 12  2  0
 12 13  1  0
 13 14  2  0
 14 15  1  0
  3 16  1  0
 16 17  2  0
 16 18  1  0
 18 19  2  0
 19 20  1  0
 20 21  2  0
 21 22  1  0
 22 23  2  0
 14  8  1  0
 23 18  1  0
  1 24  1  0
  1 25  1  0
  1 26  1  0
  2 27  1  0
  2 28  1  0
  4 29  1  0
  4 30  1  0
 11 31  1  0
 12 32  1  0
 13 33  1  0
 19 34  1  0
 20 35  1  0
 21 36  1  0
 22 37  1  0
M  CHG  1   7  -1
M  END
>  <UniqueID>  (57) 
52

>  <SMILES>  (57) 
CCN(CC(=O)[N-]c1c(F)cccc1F)C(=O)c1ccccn1

>  <Energy>  (57) 
42.15138707579537

>  <Genealogy>  (57) 
CCN(CC(=O)[N-]c1c(F)cccc1F)C(=O)c1ccccn1 (protonated)
CCN(CC(=O)[N-]c1c(F)cccc1F)C(=O)c1ccccn1 (3D coordinates assigned)
CCN(CC(=O)[N-]c1c(F)cccc1F)C(=O)c1ccccn1 (optimized conformer: 42.15138707579537 kcal/mol)

>  <smiles>  (57) 
CCN(CC(=O)Nc1c(F)cccc1F)C(=O)c1ccccn1

>  <score_type>  (57) 
oracle

>  <origin>  (57) 
adg

>  <m_score__min__energy>  (57) 
-9.2200000000000006

>  <m_primary>  (57) 
energy

$$$$
57:0
     RDKit          3D

 60 64  0  0  0  0  0  0  0  0999 V2000
   55.3510   30.4030   44.4990 O   0  0  0  0  0  0  0  0  0  0  0  0
   56.8310   30.3050   44.2490 S   0  0  0  0  0  0  0  0  0  0  0  0
   57.1330   30.9420   42.9210 O   0  0  0  0  0  0  0  0  0  0  0  0
   57.2400   28.5910   44.1960 C   0  0  0  0  0  0  0  0  0  0  0  0
   57.0470   27.8030   45.3380 C   0  0  0  0  0  0  0  0  0  0  0  0
   57.4150   26.4580   45.3120 C   0  0  0  0  0  0  0  0  0  0  0  0
   57.9660   25.9120   44.1520 C   0  0  0  0  0  0  0  0  0  0  0  0
   58.1380   26.7250   43.0290 C   0  0  0  0  0  0  0  0  0  0  0  0
   57.7810   28.0380   43.0710 N   0  0  0  0  0  0  0  0  0  0  0  0
   57.7440   31.1090   45.5200 N   0  0  0  0  0  0  0  0  0  0  0  0
   59.1150   30.5380   45.5600 C   0  0  0  0  0  0  0  0  0  0  0  0
   59.4120   29.9970   46.9340 C   0  0  0  0  0  0  0  0  0  0  0  0
   59.0150   30.7110   48.0780 C   0  0  0  0  0  0  0  0  0  0  0  0
   59.2790   30.2040   49.3530 C   0  0  0  0  0  0  0  0  0  0  0  0
   59.9550   28.9900   49.4980 C   0  0  0  0  0  0  0  0  0  0  0  0
   60.3780   28.2860   48.3680 C   0  0  0  0  0  0  0  0  0  0  0  0
   60.1180   28.7900   47.0880 C   0  0  0  0  0  0  0  0  0  0  0  0
   57.7360   32.5850   45.3250 C   0  0  1  0  0  0  0  0  0  0  0  0
   57.2060   33.3150   46.5630 C   0  0  0  0  0  0  0  0  0  0  0  0
   58.0600   34.5650   46.7390 C   0  0  0  0  0  0  0  0  0  0  0  0
   59.0910   34.5370   45.7010 N   0  0  0  0  0  0  0  0  0  0  0  0
   60.3930   35.1290   46.0870 C   0  0  0  0  0  0  0  0  0  0  0  0
   61.2740   34.2350   46.9420 C   0  0  0  0  0  0  0  0  0  0  0  0
   62.5230   33.8010   46.4610 C   0  0  0  0  0  0  0  0  0  0  0  0
   63.3090   32.9880   47.2150 N   0  0  0  0  0  0  0  0  0  0  0  0
   62.9360   32.5830   48.4580 C   0  0  0  0  0  0  0  0  0  0  0  0
   63.7720   31.7420   49.2030 C   0  0  0  0  0  0  0  0  0  0  0  0
   63.3900   31.3360   50.4870 C   0  0  0  0  0  0  0  0  0  0  0  0
   62.1750   31.7670   51.0290 C   0  0  0  0  0  0  0  0  0  0  0  0
   61.3330   32.6070   50.2910 C   0  0  0  0  0  0  0  0  0  0  0  0
   61.7070   33.0190   49.0020 C   0  0  0  0  0  0  0  0  0  0  0  0
   60.8850   33.8570   48.2380 C   0  0  0  0  0  0  0  0  0  0  0  0
   59.1420   33.1730   45.1720 C   0  0  0  0  0  0  0  0  0  0  0  0
   56.6092   28.2411   46.2470 H   0  0  0  0  0  0  0  0  0  0  0  0
   57.2713   25.8295   46.2032 H   0  0  0  0  0  0  0  0  0  0  0  0
   58.2617   24.8529   44.1222 H   0  0  0  0  0  0  0  0  0  0  0  0
   58.5637   26.3024   42.1069 H   0  0  0  0  0  0  0  0  0  0  0  0
   57.9320   28.6220   42.2190 H   0  0  0  0  0  0  0  0  0  0  0  0
   59.1913   29.7238   44.8243 H   0  0  0  0  0  0  0  0  0  0  0  0
   59.8409   31.3290   45.3205 H   0  0  0  0  0  0  0  0  0  0  0  0
   58.4939   31.6736   47.9689 H   0  0  0  0  0  0  0  0  0  0  0  0
   58.9541   30.7615   50.2439 H   0  0  0  0  0  0  0  0  0  0  0  0
   60.1543   28.5883   50.5025 H   0  0  0  0  0  0  0  0  0  0  0  0
   60.9164   27.3338   48.4841 H   0  0  0  0  0  0  0  0  0  0  0  0
   60.4665   28.2410   46.2008 H   0  0  0  0  0  0  0  0  0  0  0  0
   57.1177   32.7252   44.4261 H   0  0  0  0  0  0  0  0  0  0  0  0
   56.1524   33.5944   46.4153 H   0  0  0  0  0  0  0  0  0  0  0  0
   57.2615   32.6716   47.4535 H   0  0  0  0  0  0  0  0  0  0  0  0
   57.4375   35.4650   46.6272 H   0  0  0  0  0  0  0  0  0  0  0  0
   58.5155   34.5878   47.7400 H   0  0  0  0  0  0  0  0  0  0  0  0
   60.9441   35.3721   45.1665 H   0  0  0  0  0  0  0  0  0  0  0  0
   60.1605   36.0113   46.7014 H   0  0  0  0  0  0  0  0  0  0  0  0
   62.8662   34.1223   45.4665 H   0  0  0  0  0  0  0  0  0  0  0  0
   64.7281   31.4007   48.7795 H   0  0  0  0  0  0  0  0  0  0  0  0
   64.0476   30.6758   51.0716 H   0  0  0  0  0  0  0  0  0  0  0  0
   61.8801   31.4448   52.0386 H   0  0  0  0  0  0  0  0  0  0  0  0
   60.3783   32.9443   50.7209 H   0  0  0  0  0  0  0  0  0  0  0  0
   59.9332   34.2198   48.6534 H   0  0  0  0  0  0  0  0  0  0  0  0
   59.4321   33.1891   44.1111 H   0  0  0  0  0  0  0  0  0  0  0  0
   59.8836   32.5675   45.7136 H   0  0  0  0  0  0  0  0  0  0  0  0
  1  2  2  0
  2  3  2  0
  2  4  1  0
  4  5  2  0
  5  6  1  0
  6  7  2  0
  7  8  1  0
  8  9  2  0
  2 10  1  0
 10 11  1  0
 11 12  1  0
 12 13  2  0
 13 14  1  0
 14 15  2  0
 15 16  1  0
 16 17  2  0
 10 18  1  0
 18 19  1  0
 19 20  1  0
 20 21  1  0
 21 22  1  0
 22 23  1  0
 23 24  2  0
 24 25  1  0
 25 26  2  0
 26 27  1  0
 27 28  2  0
 28 29  1  0
 29 30  2  0
 30 31  1  0
 31 32  2  0
 21 33  1  0
  9  4  1  0
 17 12  1  0
 33 18  1  0
 32 23  1  0
 31 26  1  0
  5 34  1  0
  6 35  1  0
  7 36  1  0
  8 37  1  0
  9 38  1  0
 11 39  1  0
 11 40  1  0
 13 41  1  0
 14 42  1  0
 15 43  1  0
 16 44  1  0
 17 45  1  0
 18 46  1  6
 19 47  1  0
 19 48  1  0
 20 49  1  0
 20 50  1  0
 22 51  1  0
 22 52  1  0
 24 53  1  0
 27 54  1  0
 28 55  1  0
 29 56  1  0
 30 57  1  0
 32 58  1  0
 33 59  1  0
 33 60  1  0
M  CHG  1   9   1
M  END
>  <UniqueID>  (58) 
53

>  <SMILES>  (58) 
O=S(=O)(c1cccc[nH+]1)N(Cc1ccccc1)[C@H]1CCN(Cc2cnc3ccccc3c2)C1

>  <Energy>  (58) 
78.09402207990343

>  <Genealogy>  (58) 
O=S(=O)(c1cccc[nH+]1)N(Cc1ccccc1)C1CCN(Cc2cnc3ccccc3c2)C1 (protonated)
O=S(=O)(c1cccc[nH+]1)N(Cc1ccccc1)[C@H]1CCN(Cc2cnc3ccccc3c2)C1 (chirality)
O=S(=O)(c1cccc[nH+]1)N(Cc1ccccc1)[C@H]1CCN(Cc2cnc3ccccc3c2)C1 (3D coordinates assigned)
O=S(=O)(c1cccc[nH+]1)N(Cc1ccccc1)[C@H]1CCN(Cc2cnc3ccccc3c2)C1 (nonaromatic ring conformer: 78.09402207990343 kcal/mol)

>  <smiles>  (58) 
O=S(=O)(c1ccccn1)N(Cc1ccccc1)C1CCN(Cc2cnc3ccccc3c2)C1

>  <score_type>  (58) 
oracle

>  <origin>  (58) 
adg

>  <m_score__min__energy>  (58) 
-8.9900000000000002

>  <m_primary>  (58) 
energy

$$$$
58:0
     RDKit          3D

 34 38  0  0  0  0  0  0  0  0999 V2000
   55.1500   28.9620   44.7900 O   0  0  0  0  0  0  0  0  0  0  0  0
   56.3790   28.4960   45.2400 C   0  0  0  0  0  0  0  0  0  0  0  0
   56.6750   27.2220   45.3990 O   0  0  0  0  0  0  0  0  0  0  0  0
   57.9220   27.1310   45.8200 C   0  0  0  0  0  0  0  0  0  0  0  0
   58.4330   28.4040   45.9330 C   0  0  0  0  0  0  0  0  0  0  0  0
   57.4620   29.2810   45.5720 C   0  0  0  0  0  0  0  0  0  0  0  0
   57.6760   30.7630   45.4920 C   0  0  2  0  0  0  0  0  0  0  0  0
   57.6240   31.1780   44.0450 C   0  0  0  0  0  0  0  0  0  0  0  0
   58.2680   32.2580   43.4790 C   0  0  0  0  0  0  0  0  0  0  0  0
   57.8780   32.2710   42.1560 C   0  0  0  0  0  0  0  0  0  0  0  0
   57.0470   31.2780   41.9260 O   0  0  0  0  0  0  0  0  0  0  0  0
   56.8680   30.6060   43.0390 C   0  0  0  0  0  0  0  0  0  0  0  0
   59.0210   31.1740   46.1210 C   0  0  0  0  0  0  0  0  0  0  0  0
   59.9840   30.1750   46.4650 C   0  0  0  0  0  0  0  0  0  0  0  0
   61.2360   30.5400   46.9560 C   0  0  0  0  0  0  0  0  0  0  0  0
   61.5650   31.8790   47.1370 C   0  0  0  0  0  0  0  0  0  0  0  0
   60.6390   32.8830   46.8350 C   0  0  0  0  0  0  0  0  0  0  0  0
   60.9870   34.2290   47.0350 C   0  0  0  0  0  0  0  0  0  0  0  0
   60.0750   35.2430   46.7430 C   0  0  0  0  0  0  0  0  0  0  0  0
   58.8110   34.9250   46.2510 C   0  0  0  0  0  0  0  0  0  0  0  0
   58.4480   33.5920   46.0470 C   0  0  0  0  0  0  0  0  0  0  0  0
   59.3550   32.5440   46.3280 C   0  0  0  0  0  0  0  0  0  0  0  0
   59.6960   28.8060   46.3400 O   0  0  0  0  0  0  0  0  0  0  0  0
   58.4607   26.1981   46.0425 H   0  0  0  0  0  0  0  0  0  0  0  0
   56.8833   31.2712   46.0606 H   0  0  0  0  0  0  0  0  0  0  0  0
   58.9501   32.9620   43.9782 H   0  0  0  0  0  0  0  0  0  0  0  0
   58.2121   33.0026   41.4055 H   0  0  0  0  0  0  0  0  0  0  0  0
   56.2183   29.7257   43.1534 H   0  0  0  0  0  0  0  0  0  0  0  0
   61.9719   29.7607   47.2031 H   0  0  0  0  0  0  0  0  0  0  0  0
   62.5598   32.1504   47.5201 H   0  0  0  0  0  0  0  0  0  0  0  0
   61.9837   34.4846   47.4238 H   0  0  0  0  0  0  0  0  0  0  0  0
   60.3541   36.2952   46.9014 H   0  0  0  0  0  0  0  0  0  0  0  0
   58.0951   35.7281   46.0220 H   0  0  0  0  0  0  0  0  0  0  0  0
   57.4449   33.3544   45.6633 H   0  0  0  0  0  0  0  0  0  0  0  0
  1  2  1  0
  2  3  1  0
  3  4  1  0
  4  5  2  0
  5  6  1  0
  6  7  1  0
  7  8  1  0
  8  9  1  0
  9 10  2  0
 10 11  1  0
 11 12  1  0
  7 13  1  0
 13 14  2  0
 14 15  1  0
 15 16  2  0
 16 17  1  0
 17 18  2  0
 18 19  1  0
 19 20  2  0
 20 21  1  0
 21 22  2  0
 14 23  1  0
  6  2  2  0
 12  8  2  0
 22 13  1  0
 23  5  1  0
 22 17  1  0
  4 24  1  0
  7 25  1  1
  9 26  1  0
 10 27  1  0
 12 28  1  0
 15 29  1  0
 16 30  1  0
 18 31  1  0
 19 32  1  0
 20 33  1  0
 21 34  1  0
M  CHG  1   1  -1
M  END
>  <UniqueID>  (59) 
54

>  <SMILES>  (59) 
[O-]c1occ2c1[C@H](c1ccoc1)c1c(ccc3ccccc13)O2

>  <Energy>  (59) 
106.58495821986564

>  <Genealogy>  (59) 
[O-]c1occ2c1C(c1ccoc1)c1c(ccc3ccccc13)O2 (protonated)
[O-]c1occ2c1[C@H](c1ccoc1)c1c(ccc3ccccc13)O2 (chirality)
[O-]c1occ2c1[C@H](c1ccoc1)c1c(ccc3ccccc13)O2 (3D coordinates assigned)
[O-]c1occ2c1[C@H](c1ccoc1)c1c(ccc3ccccc13)O2 (nonaromatic ring conformer: 106.58495821986564 kcal/mol)

>  <smiles>  (59) 
Oc1occ2c1C(c1ccoc1)c1c(ccc3ccccc13)O2

>  <score_type>  (59) 
oracle

>  <origin>  (59) 
adg

>  <m_score__min__energy>  (59) 
-10.300000000000001

>  <m_primary>  (59) 
energy

$$$$
59:0
     RDKit          3D

 49 51  0  0  0  0  0  0  0  0999 V2000
   56.8670   23.5840   48.0910 C   0  0  0  0  0  0  0  0  0  0  0  0
   57.0290   22.1210   48.0860 N   0  0  0  0  0  0  0  0  0  0  0  0
   56.3420   21.5520   49.2570 C   0  0  0  0  0  0  0  0  0  0  0  0
   56.4900   21.5570   46.8310 C   0  0  0  0  0  0  0  0  0  0  0  0
   55.0720   22.0640   46.5620 C   0  0  0  0  0  0  0  0  0  0  0  0
   54.8380   22.1570   45.1260 N   0  0  0  0  0  0  0  0  0  0  0  0
   55.6060   22.9880   44.2490 C   0  0  0  0  0  0  0  0  0  0  0  0
   55.8640   22.5660   43.0910 O   0  0  0  0  0  0  0  0  0  0  0  0
   56.1320   24.3030   44.6770 C   0  0  0  0  0  0  0  0  0  0  0  0
   55.4390   25.0710   45.6280 C   0  0  0  0  0  0  0  0  0  0  0  0
   55.9130   26.3330   46.0040 C   0  0  0  0  0  0  0  0  0  0  0  0
   57.0960   26.8440   45.4380 C   0  0  0  0  0  0  0  0  0  0  0  0
   57.5940   28.1470   45.7860 N   0  0  0  0  0  0  0  0  0  0  0  0
   57.0140   29.3820   45.3360 C   0  0  0  0  0  0  0  0  0  0  0  0
   55.8920   29.3830   44.7600 O   0  0  0  0  0  0  0  0  0  0  0  0
   57.6950   30.6270   45.5550 N   0  0  0  0  0  0  0  0  0  0  0  0
   58.9750   30.7600   46.2560 C   0  0  0  0  0  0  0  0  0  0  0  0
   59.2530   32.2130   46.1680 C   0  0  0  0  0  0  0  0  0  0  0  0
   60.3480   32.9080   46.6860 C   0  0  0  0  0  0  0  0  0  0  0  0
   60.4080   34.2980   46.5020 C   0  0  0  0  0  0  0  0  0  0  0  0
   59.3830   34.9640   45.8070 C   0  0  0  0  0  0  0  0  0  0  0  0
   58.2910   34.2450   45.2950 C   0  0  0  0  0  0  0  0  0  0  0  0
   58.2490   32.8640   45.4930 C   0  0  0  0  0  0  0  0  0  0  0  0
   57.1960   31.9130   45.0640 C   0  0  0  0  0  0  0  0  0  0  0  0
   57.7660   26.0920   44.4610 C   0  0  0  0  0  0  0  0  0  0  0  0
   57.2850   24.8370   44.0810 C   0  0  0  0  0  0  0  0  0  0  0  0
   56.8270   23.9449   49.1293 H   0  0  0  0  0  0  0  0  0  0  0  0
   57.7191   24.0490   47.5737 H   0  0  0  0  0  0  0  0  0  0  0  0
   55.9338   23.8513   47.5737 H   0  0  0  0  0  0  0  0  0  0  0  0
   56.8062   21.9365   50.1771 H   0  0  0  0  0  0  0  0  0  0  0  0
   55.2803   21.8389   49.2345 H   0  0  0  0  0  0  0  0  0  0  0  0
   56.4261   20.4555   49.2345 H   0  0  0  0  0  0  0  0  0  0  0  0
   57.1415   21.8528   45.9955 H   0  0  0  0  0  0  0  0  0  0  0  0
   56.4564   20.4617   46.9270 H   0  0  0  0  0  0  0  0  0  0  0  0
   54.3459   21.3663   47.0046 H   0  0  0  0  0  0  0  0  0  0  0  0
   54.9544   23.0610   47.0116 H   0  0  0  0  0  0  0  0  0  0  0  0
   54.5169   24.6773   46.0804 H   0  0  0  0  0  0  0  0  0  0  0  0
   55.3588   26.9279   46.7449 H   0  0  0  0  0  0  0  0  0  0  0  0
   58.3600   28.1910   46.4920 H   0  0  0  0  0  0  0  0  0  0  0  0
   58.8875   30.4368   47.3038 H   0  0  0  0  0  0  0  0  0  0  0  0
   59.7731   30.1387   45.8235 H   0  0  0  0  0  0  0  0  0  0  0  0
   61.1459   32.3776   47.2264 H   0  0  0  0  0  0  0  0  0  0  0  0
   61.2592   34.8681   46.9026 H   0  0  0  0  0  0  0  0  0  0  0  0
   59.4369   36.0533   45.6638 H   0  0  0  0  0  0  0  0  0  0  0  0
   57.4859   34.7591   44.7495 H   0  0  0  0  0  0  0  0  0  0  0  0
   56.2275   32.1624   45.5220 H   0  0  0  0  0  0  0  0  0  0  0  0
   57.0180   31.9235   43.9785 H   0  0  0  0  0  0  0  0  0  0  0  0
   58.6760   26.4935   43.9913 H   0  0  0  0  0  0  0  0  0  0  0  0
   57.8148   24.2618   43.3074 H   0  0  0  0  0  0  0  0  0  0  0  0
  1  2  1  0
  2  3  1  0
  2  4  1  0
  4  5  1  0
  5  6  1  0
  6  7  1  0
  7  8  2  0
  7  9  1  0
  9 10  2  0
 10 11  1  0
 11 12  2  0
 12 13  1  0
 13 14  1  0
 14 15  2  0
 14 16  1  0
 16 17  1  0
 17 18  1  0
 18 19  2  0
 19 20  1  0
 20 21  2  0
 21 22  1  0
 22 23  2  0
 23 24  1  0
 12 25  1  0
 25 26  2  0
 26  9  1  0
 24 16  1  0
 23 18  1  0
  1 27  1  0
  1 28  1  0
  1 29  1  0
  3 30  1  0
  3 31  1  0
  3 32  1  0
  4 33  1  0
  4 34  1  0
  5 35  1  0
  5 36  1  0
 10 37  1  0
 11 38  1  0
 13 39  1  0
 17 40  1  0
 17 41  1  0
 19 42  1  0
 20 43  1  0
 21 44  1  0
 22 45  1  0
 24 46  1  0
 24 47  1  0
 25 48  1  0
 26 49  1  0
M  CHG  1   6  -1
M  END
>  <UniqueID>  (60) 
55

>  <SMILES>  (60) 
CN(C)CC[N-]C(=O)c1ccc(NC(=O)N2Cc3ccccc3C2)cc1

>  <Energy>  (60) 
67.53828114710534

>  <Genealogy>  (60) 
CN(C)CC[N-]C(=O)c1ccc(NC(=O)N2Cc3ccccc3C2)cc1 (protonated)
CN(C)CC[N-]C(=O)c1ccc(NC(=O)N2Cc3ccccc3C2)cc1 (3D coordinates assigned)
CN(C)CC[N-]C(=O)c1ccc(NC(=O)N2Cc3ccccc3C2)cc1 (nonaromatic ring conformer: 67.53828114710534 kcal/mol)

>  <smiles>  (60) 
CN(C)CCNC(=O)c1ccc(NC(=O)N2Cc3ccccc3C2)cc1

>  <score_type>  (60) 
oracle

>  <origin>  (60) 
adg

>  <m_score__min__energy>  (60) 
-9.5099999999999998

>  <m_primary>  (60) 
energy

$$$$
60:0
     RDKit          3D

 69 72  0  0  0  0  0  0  0  0999 V2000
   58.0920   32.3470   42.1140 C   0  0  0  0  0  0  0  0  0  0  0  0
   57.0200   31.3580   42.5590 C   0  0  0  0  0  0  0  0  0  0  0  0
   57.0690   31.1650   44.0130 N   0  0  0  0  0  0  0  0  0  0  0  0
   56.9500   32.3150   44.9190 C   0  0  0  0  0  0  0  0  0  0  0  0
   58.3000   32.6710   45.4830 C   0  0  0  0  0  0  0  0  0  0  0  0
   58.8890   33.9050   45.1690 C   0  0  0  0  0  0  0  0  0  0  0  0
   60.0820   34.2940   45.7820 C   0  0  0  0  0  0  0  0  0  0  0  0
   60.7190   33.4460   46.6930 C   0  0  0  0  0  0  0  0  0  0  0  0
   61.9080   33.8980   47.3520 N   0  0  0  0  0  0  0  0  0  0  0  0
   62.0260   34.1290   48.7610 C   0  0  0  0  0  0  0  0  0  0  0  0
   62.9110   34.9270   49.1740 O   0  0  0  0  0  0  0  0  0  0  0  0
   61.1670   33.4160   49.7350 C   0  0  0  0  0  0  0  0  0  0  0  0
   61.7160   32.4560   50.5970 C   0  0  0  0  0  0  0  0  0  0  0  0
   60.9040   31.7710   51.5050 C   0  0  0  0  0  0  0  0  0  0  0  0
   59.5230   32.0170   51.5520 C   0  0  0  0  0  0  0  0  0  0  0  0
   58.6780   31.2870   52.4620 N   0  0  0  0  0  0  0  0  0  0  0  0
   58.1480   31.9640   53.6500 C   0  0  0  0  0  0  0  0  0  0  0  0
   58.2410   29.9220   52.1300 C   0  0  0  0  0  0  0  0  0  0  0  0
   58.9650   29.4020   50.9140 C   0  0  0  0  0  0  0  0  0  0  0  0
   58.5220   29.7410   49.6230 C   0  0  0  0  0  0  0  0  0  0  0  0
   59.1990   29.2580   48.4990 C   0  0  0  0  0  0  0  0  0  0  0  0
   60.3150   28.4320   48.6530 C   0  0  0  0  0  0  0  0  0  0  0  0
   60.7560   28.0830   49.9320 C   0  0  0  0  0  0  0  0  0  0  0  0
   60.0860   28.5670   51.0590 C   0  0  0  0  0  0  0  0  0  0  0  0
   58.9730   32.9850   50.6960 C   0  0  0  0  0  0  0  0  0  0  0  0
   59.7860   33.6760   49.7940 C   0  0  0  0  0  0  0  0  0  0  0  0
   60.1390   32.2000   46.9980 C   0  0  0  0  0  0  0  0  0  0  0  0
   58.9360   31.8180   46.3990 C   0  0  0  0  0  0  0  0  0  0  0  0
   57.4570   29.8880   44.5440 C   0  0  0  0  0  0  0  0  0  0  0  0
   58.7980   29.4840   44.4810 C   0  0  0  0  0  0  0  0  0  0  0  0
   59.1920   28.2380   45.0040 C   0  0  0  0  0  0  0  0  0  0  0  0
   60.5270   27.8070   44.9910 O   0  0  0  0  0  0  0  0  0  0  0  0
   61.6200   28.5940   44.5260 C   0  0  0  0  0  0  0  0  0  0  0  0
   58.2270   27.3970   45.5660 C   0  0  0  0  0  0  0  0  0  0  0  0
   56.8900   27.7990   45.6370 C   0  0  0  0  0  0  0  0  0  0  0  0
   56.5010   29.0470   45.1320 C   0  0  0  0  0  0  0  0  0  0  0  0
   55.1690   29.4530   45.2080 O   0  0  0  0  0  0  0  0  0  0  0  0
   58.5722   32.7900   42.9989 H   0  0  0  0  0  0  0  0  0  0  0  0
   58.8476   31.8221   41.5110 H   0  0  0  0  0  0  0  0  0  0  0  0
   57.6295   33.1423   41.5110 H   0  0  0  0  0  0  0  0  0  0  0  0
   56.0300   31.7472   42.2788 H   0  0  0  0  0  0  0  0  0  0  0  0
   57.2016   30.3916   42.0660 H   0  0  0  0  0  0  0  0  0  0  0  0
   56.5492   33.1758   44.3637 H   0  0  0  0  0  0  0  0  0  0  0  0
   56.2721   32.0540   45.7450 H   0  0  0  0  0  0  0  0  0  0  0  0
   58.4085   34.5697   44.4360 H   0  0  0  0  0  0  0  0  0  0  0  0
   60.5233   35.2737   45.5466 H   0  0  0  0  0  0  0  0  0  0  0  0
   62.7940   32.2404   50.5583 H   0  0  0  0  0  0  0  0  0  0  0  0
   61.3506   31.0334   52.1880 H   0  0  0  0  0  0  0  0  0  0  0  0
   58.5334   31.4717   54.5551 H   0  0  0  0  0  0  0  0  0  0  0  0
   58.4637   33.0177   53.6430 H   0  0  0  0  0  0  0  0  0  0  0  0
   57.0493   31.9104   53.6430 H   0  0  0  0  0  0  0  0  0  0  0  0
   58.4502   29.2601   52.9833 H   0  0  0  0  0  0  0  0  0  0  0  0
   57.1629   29.9430   51.9128 H   0  0  0  0  0  0  0  0  0  0  0  0
   57.6410   30.3875   49.4972 H   0  0  0  0  0  0  0  0  0  0  0  0
   58.8520   29.5291   47.4910 H   0  0  0  0  0  0  0  0  0  0  0  0
   60.8470   28.0561   47.7666 H   0  0  0  0  0  0  0  0  0  0  0  0
   61.6308   27.4271   50.0520 H   0  0  0  0  0  0  0  0  0  0  0  0
   60.4379   28.2930   52.0645 H   0  0  0  0  0  0  0  0  0  0  0  0
   57.8951   33.2006   50.7359 H   0  0  0  0  0  0  0  0  0  0  0  0
   59.3429   34.4287   49.1253 H   0  0  0  0  0  0  0  0  0  0  0  0
   60.6349   31.5246   47.7107 H   0  0  0  0  0  0  0  0  0  0  0  0
   58.4855   30.8454   46.6460 H   0  0  0  0  0  0  0  0  0  0  0  0
   59.5469   30.1448   44.0200 H   0  0  0  0  0  0  0  0  0  0  0  0
   62.1759   28.9943   45.3867 H   0  0  0  0  0  0  0  0  0  0  0  0
   62.2887   27.9688   43.9162 H   0  0  0  0  0  0  0  0  0  0  0  0
   61.2391   29.4265   43.9162 H   0  0  0  0  0  0  0  0  0  0  0  0
   58.5220   26.4114   45.9553 H   0  0  0  0  0  0  0  0  0  0  0  0
   56.1408   27.1335   46.0908 H   0  0  0  0  0  0  0  0  0  0  0  0
   54.9050   30.3420   45.6230 H   0  0  0  0  0  0  0  0  0  0  0  0
  1  2  1  0
  2  3  1  0
  3  4  1  0
  4  5  1  0
  5  6  2  0
  6  7  1  0
  7  8  2  0
  8  9  1  0
  9 10  1  0
 10 11  2  0
 10 12  1  0
 12 13  2  0
 13 14  1  0
 14 15  2  0
 15 16  1  0
 16 17  1  0
 16 18  1  0
 18 19  1  0
 19 20  2  0
 20 21  1  0
 21 22  2  0
 22 23  1  0
 23 24  2  0
 15 25  1  0
 25 26  2  0
  8 27  1  0
 27 28  2  0
  3 29  1  0
 29 30  2  0
 30 31  1  0
 31 32  1  0
 32 33  1  0
 31 34  2  0
 34 35  1  0
 35 36  2  0
 36 37  1  0
 28  5  1  0
 36 29  1  0
 26 12  1  0
 24 19  1  0
  1 38  1  0
  1 39  1  0
  1 40  1  0
  2 41  1  0
  2 42  1  0
  4 43  1  0
  4 44  1  0
  6 45  1  0
  7 46  1  0
 13 47  1  0
 14 48  1  0
 17 49  1  0
 17 50  1  0
 17 51  1  0
 18 52  1  0
 18 53  1  0
 20 54  1  0
 21 55  1  0
 22 56  1  0
 23 57  1  0
 24 58  1  0
 25 59  1  0
 26 60  1  0
 27 61  1  0
 28 62  1  0
 30 63  1  0
 33 64  1  0
 33 65  1  0
 33 66  1  0
 34 67  1  0
 35 68  1  0
 37 69  1  0
M  CHG  1   9  -1
M  END
>  <UniqueID>  (61) 
56

>  <SMILES>  (61) 
CCN(Cc1ccc([N-]C(=O)c2ccc(N(C)Cc3ccccc3)cc2)cc1)c1cc(OC)ccc1O

>  <Energy>  (61) 
81.98265217901324

>  <Genealogy>  (61) 
CCN(Cc1ccc([N-]C(=O)c2ccc(N(C)Cc3ccccc3)cc2)cc1)c1cc(OC)ccc1O (protonated)
CCN(Cc1ccc([N-]C(=O)c2ccc(N(C)Cc3ccccc3)cc2)cc1)c1cc(OC)ccc1O (3D coordinates assigned)
CCN(Cc1ccc([N-]C(=O)c2ccc(N(C)Cc3ccccc3)cc2)cc1)c1cc(OC)ccc1O (optimized conformer: 81.98265217901324 kcal/mol)

>  <smiles>  (61) 
CCN(Cc1ccc(NC(=O)c2ccc(N(C)Cc3ccccc3)cc2)cc1)c1cc(OC)ccc1O

>  <score_type>  (61) 
oracle

>  <origin>  (61) 
adg

>  <m_score__min__energy>  (61) 
-12.789999999999999

>  <m_primary>  (61) 
energy

$$$$
61:0
     RDKit          3D

 35 36  0  0  0  0  0  0  0  0999 V2000
   63.6970   33.8020   46.9500 C   0  0  0  0  0  0  0  0  0  0  0  0
   63.7550   32.6840   47.9860 C   0  0  0  0  0  0  0  0  0  0  0  0
   62.4330   31.9800   48.0780 C   0  0  0  0  0  0  0  0  0  0  0  0
   61.4230   32.2270   47.1390 C   0  0  0  0  0  0  0  0  0  0  0  0
   60.2090   31.5270   47.2210 C   0  0  0  0  0  0  0  0  0  0  0  0
   59.1250   31.7740   46.2390 C   0  0  0  0  0  0  0  0  0  0  0  0
   58.3920   30.6880   45.7320 C   0  0  0  0  0  0  0  0  0  0  0  0
   57.3550   30.8830   44.8040 C   0  0  0  0  0  0  0  0  0  0  0  0
   56.5900   29.7190   44.2920 C   0  0  0  0  0  0  0  0  0  0  0  0
   57.0220   28.9870   43.1410 N   0  0  0  0  0  0  0  0  0  0  0  0
   55.5410   29.3510   44.8860 O   0  0  0  0  0  0  0  0  0  0  0  0
   57.0470   32.1910   44.3970 C   0  0  0  0  0  0  0  0  0  0  0  0
   57.7730   33.2770   44.8880 C   0  0  0  0  0  0  0  0  0  0  0  0
   58.8240   33.0830   45.8040 C   0  0  0  0  0  0  0  0  0  0  0  0
   59.5910   34.1570   46.2840 O   0  0  0  0  0  0  0  0  0  0  0  0
   59.2800   34.9190   47.4460 C   0  0  0  0  0  0  0  0  0  0  0  0
   60.0290   30.5960   48.2550 C   0  0  0  0  0  0  0  0  0  0  0  0
   61.0620   30.3720   49.1680 C   0  0  0  0  0  0  0  0  0  0  0  0
   62.2320   31.0560   49.0580 N   0  0  0  0  0  0  0  0  0  0  0  0
   63.6466   34.7742   47.4621 H   0  0  0  0  0  0  0  0  0  0  0  0
   64.5982   33.7656   46.3204 H   0  0  0  0  0  0  0  0  0  0  0  0
   62.8044   33.6725   46.3204 H   0  0  0  0  0  0  0  0  0  0  0  0
   64.5303   31.9604   47.6940 H   0  0  0  0  0  0  0  0  0  0  0  0
   63.9928   33.1215   48.9669 H   0  0  0  0  0  0  0  0  0  0  0  0
   61.5807   32.9668   46.3404 H   0  0  0  0  0  0  0  0  0  0  0  0
   58.6338   29.6685   46.0669 H   0  0  0  0  0  0  0  0  0  0  0  0
   56.4340   28.2100   42.7690 H   0  0  0  0  0  0  0  0  0  0  0  0
   57.9580   29.1460   42.7080 H   0  0  0  0  0  0  0  0  0  0  0  0
   56.2262   32.3613   43.6848 H   0  0  0  0  0  0  0  0  0  0  0  0
   57.5213   34.2950   44.5558 H   0  0  0  0  0  0  0  0  0  0  0  0
   59.5197   34.3316   48.3446 H   0  0  0  0  0  0  0  0  0  0  0  0
   59.8716   35.8464   47.4455 H   0  0  0  0  0  0  0  0  0  0  0  0
   58.2085   35.1676   47.4455 H   0  0  0  0  0  0  0  0  0  0  0  0
   59.0807   30.0461   48.3461 H   0  0  0  0  0  0  0  0  0  0  0  0
   60.9287   29.6402   49.9783 H   0  0  0  0  0  0  0  0  0  0  0  0
  1  2  1  0
  2  3  1  0
  3  4  2  0
  4  5  1  0
  5  6  1  0
  6  7  2  0
  7  8  1  0
  8  9  1  0
  9 10  1  0
  9 11  2  0
  8 12  2  0
 12 13  1  0
 13 14  2  0
 14 15  1  0
 15 16  1  0
  5 17  2  0
 17 18  1  0
 18 19  2  0
 19  3  1  0
 14  6  1  0
  1 20  1  0
  1 21  1  0
  1 22  1  0
  2 23  1  0
  2 24  1  0
  4 25  1  0
  7 26  1  0
 10 27  1  0
 10 28  1  0
 12 29  1  0
 13 30  1  0
 16 31  1  0
 16 32  1  0
 16 33  1  0
 17 34  1  0
 18 35  1  0
M  END
>  <UniqueID>  (62) 
57

>  <SMILES>  (62) 
CCc1cc(-c2cc(C(N)=O)ccc2OC)ccn1

>  <Energy>  (62) 
39.24090311861449

>  <Genealogy>  (62) 
CCc1cc(-c2cc(C(N)=O)ccc2OC)ccn1 (3D coordinates assigned)
CCc1cc(-c2cc(C(N)=O)ccc2OC)ccn1 (optimized conformer: 39.24090311861449 kcal/mol)

>  <smiles>  (62) 
CCc1cc(-c2cc(C(N)=O)ccc2OC)ccn1

>  <score_type>  (62) 
oracle

>  <origin>  (62) 
adg

>  <m_score__min__energy>  (62) 
-7.1200000000000001

>  <m_primary>  (62) 
energy

$$$$
62:0
     RDKit          3D

 55 58  0  0  0  0  0  0  0  0999 V2000
   58.7880   26.5840   45.1340 C   0  0  0  0  0  0  0  0  0  0  0  0
   59.6520   27.3010   45.9660 C   0  0  0  0  0  0  0  0  0  0  0  0
   59.5930   28.6960   46.0060 C   0  0  0  0  0  0  0  0  0  0  0  0
   58.6640   29.3860   45.2110 C   0  0  0  0  0  0  0  0  0  0  0  0
   58.5950   30.7870   45.2430 C   0  0  0  0  0  0  0  0  0  0  0  0
   57.6640   31.4700   44.4460 C   0  0  0  0  0  0  0  0  0  0  0  0
   57.5660   32.9710   44.4950 C   0  0  0  0  0  0  0  0  0  0  0  0
   58.5550   33.5160   45.4450 N   0  0  0  0  0  0  0  0  0  0  0  0
   58.0760   33.3730   46.8380 C   0  0  0  0  0  0  0  0  0  0  0  0
   58.9100   34.2060   47.8350 C   0  0  0  0  0  0  0  0  0  0  0  0
   60.3150   34.5600   47.2770 C   0  0  0  0  0  0  0  0  0  0  0  0
   61.2150   33.3720   47.0550 N   0  0  0  0  0  0  0  0  0  0  0  0
   62.5950   33.8110   46.6540 C   0  0  0  0  0  0  0  0  0  0  0  0
   63.7520   32.8420   46.9920 C   0  0  0  0  0  0  0  0  0  0  0  0
   64.0930   32.6890   48.5000 C   0  0  0  0  0  0  0  0  0  0  0  0
   63.1790   33.4510   49.4750 C   0  0  0  0  0  0  0  0  0  0  0  0
   61.7400   32.9210   49.5210 C   0  0  0  0  0  0  0  0  0  0  0  0
   61.1930   32.3920   48.1800 C   0  0  0  0  0  0  0  0  0  0  0  0
   60.0910   35.3960   45.9760 C   0  0  0  0  0  0  0  0  0  0  0  0
   58.8820   34.9230   45.1410 C   0  0  0  0  0  0  0  0  0  0  0  0
   56.7950   30.7420   43.6180 C   0  0  0  0  0  0  0  0  0  0  0  0
   56.8580   29.3470   43.5770 C   0  0  0  0  0  0  0  0  0  0  0  0
   57.7880   28.6590   44.3690 C   0  0  0  0  0  0  0  0  0  0  0  0
   57.8590   27.2580   44.3370 C   0  0  0  0  0  0  0  0  0  0  0  0
   58.8394   25.4855   45.1064 H   0  0  0  0  0  0  0  0  0  0  0  0
   60.3810   26.7650   46.5915 H   0  0  0  0  0  0  0  0  0  0  0  0
   60.2761   29.2554   46.6621 H   0  0  0  0  0  0  0  0  0  0  0  0
   59.2748   31.3532   45.8967 H   0  0  0  0  0  0  0  0  0  0  0  0
   57.7608   33.3807   43.4929 H   0  0  0  0  0  0  0  0  0  0  0  0
   56.5561   33.2539   44.8268 H   0  0  0  0  0  0  0  0  0  0  0  0
   57.0291   33.7068   46.8877 H   0  0  0  0  0  0  0  0  0  0  0  0
   58.1750   32.3144   47.1200 H   0  0  0  0  0  0  0  0  0  0  0  0
   58.3708   35.1395   48.0537 H   0  0  0  0  0  0  0  0  0  0  0  0
   59.0513   33.6013   48.7429 H   0  0  0  0  0  0  0  0  0  0  0  0
   60.8628   35.1447   48.0307 H   0  0  0  0  0  0  0  0  0  0  0  0
   60.8390   32.8410   46.2360 H   0  0  0  0  0  0  0  0  0  0  0  0
   62.5940   33.9635   45.5646 H   0  0  0  0  0  0  0  0  0  0  0  0
   62.7943   34.7192   47.2418 H   0  0  0  0  0  0  0  0  0  0  0  0
   63.4826   31.8481   46.6053 H   0  0  0  0  0  0  0  0  0  0  0  0
   64.6491   33.2774   46.5276 H   0  0  0  0  0  0  0  0  0  0  0  0
   64.0374   31.6196   48.7515 H   0  0  0  0  0  0  0  0  0  0  0  0
   65.0941   33.1273   48.6253 H   0  0  0  0  0  0  0  0  0  0  0  0
   63.6089   33.3741   50.4846 H   0  0  0  0  0  0  0  0  0  0  0  0
   63.1254   34.4897   49.1168 H   0  0  0  0  0  0  0  0  0  0  0  0
   61.7029   32.0995   50.2516 H   0  0  0  0  0  0  0  0  0  0  0  0
   61.1069   33.7787   49.7923 H   0  0  0  0  0  0  0  0  0  0  0  0
   61.7976   31.5216   47.8852 H   0  0  0  0  0  0  0  0  0  0  0  0
   60.1340   32.1516   48.3553 H   0  0  0  0  0  0  0  0  0  0  0  0
   59.9283   36.4460   46.2605 H   0  0  0  0  0  0  0  0  0  0  0  0
   60.9866   35.2674   45.3504 H   0  0  0  0  0  0  0  0  0  0  0  0
   58.0123   35.5544   45.3754 H   0  0  0  0  0  0  0  0  0  0  0  0
   59.1365   35.0038   44.0739 H   0  0  0  0  0  0  0  0  0  0  0  0
   56.0591   31.2738   42.9970 H   0  0  0  0  0  0  0  0  0  0  0  0
   56.1756   28.7865   42.9211 H   0  0  0  0  0  0  0  0  0  0  0  0
   57.1818   26.6890   43.6830 H   0  0  0  0  0  0  0  0  0  0  0  0
  1  2  2  0
  2  3  1  0
  3  4  2  0
  4  5  1  0
  5  6  2  0
  6  7  1  0
  7  8  1  0
  8  9  1  0
  9 10  1  0
 10 11  1  0
 11 12  1  0
 12 13  1  0
 13 14  1  0
 14 15  1  0
 15 16  1  0
 16 17  1  0
 17 18  1  0
 11 19  1  0
 19 20  1  0
  6 21  1  0
 21 22  2  0
 22 23  1  0
 23 24  2  0
 24  1  1  0
 23  4  1  0
 20  8  1  0
 18 12  1  0
  1 25  1  0
  2 26  1  0
  3 27  1  0
  5 28  1  0
  7 29  1  0
  7 30  1  0
  9 31  1  0
  9 32  1  0
 10 33  1  0
 10 34  1  0
 11 35  1  0
 12 36  1  0
 13 37  1  0
 13 38  1  0
 14 39  1  0
 14 40  1  0
 15 41  1  0
 15 42  1  0
 16 43  1  0
 16 44  1  0
 17 45  1  0
 17 46  1  0
 18 47  1  0
 18 48  1  0
 19 49  1  0
 19 50  1  0
 20 51  1  0
 20 52  1  0
 21 53  1  0
 22 54  1  0
 24 55  1  0
M  CHG  1  12   1
M  END
>  <UniqueID>  (63) 
58

>  <SMILES>  (63) 
c1ccc2cc(CN3CCC([NH+]4CCCCCC4)CC3)ccc2c1

>  <Energy>  (63) 
89.21541849834549

>  <Genealogy>  (63) 
c1ccc2cc(CN3CCC([NH+]4CCCCCC4)CC3)ccc2c1 (protonated)
c1ccc2cc(CN3CCC([NH+]4CCCCCC4)CC3)ccc2c1 (3D coordinates assigned)
c1ccc2cc(CN3CCC([NH+]4CCCCCC4)CC3)ccc2c1 (nonaromatic ring conformer: 89.21541849834549 kcal/mol)

>  <smiles>  (63) 
c1ccc2cc(CN3CCC(N4CCCCCC4)CC3)ccc2c1

>  <score_type>  (63) 
oracle

>  <origin>  (63) 
adg

>  <m_score__min__energy>  (63) 
-5.5700000000000003

>  <m_primary>  (63) 
energy

$$$$
63:0
     RDKit          3D

 32 35  0  0  0  0  0  0  0  0999 V2000
   59.5724   35.2194   48.6674 H   0  0  0  0  0  0  0  0  0  0  0  0
   59.3280   34.2010   48.3310 C   0  0  0  0  0  0  0  0  0  0  0  0
   58.9500   33.9760   47.0050 C   0  0  0  0  0  0  0  0  0  0  0  0
   58.9004   34.8195   46.3007 H   0  0  0  0  0  0  0  0  0  0  0  0
   58.6330   32.6810   46.5650 C   0  0  0  0  0  0  0  0  0  0  0  0
   58.2290   32.4520   45.2030 N   0  0  0  0  0  0  0  0  0  0  0  0
   58.4940   33.2040   44.0990 C   0  0  0  0  0  0  0  0  0  0  0  0
   59.1340   34.2890   44.1300 O   0  0  0  0  0  0  0  0  0  0  0  0
   57.9850   32.6820   42.9530 N   0  0  0  0  0  0  0  0  0  0  0  0
   58.0570   33.0590   41.9820 H   0  0  0  0  0  0  0  0  0  0  0  0
   57.3810   31.5560   43.3660 C   0  0  0  0  0  0  0  0  0  0  0  0
   56.7290   30.5800   42.6320 C   0  0  0  0  0  0  0  0  0  0  0  0
   56.5992   30.6755   41.5439 H   0  0  0  0  0  0  0  0  0  0  0  0
   56.2530   29.4940   43.3100 N   0  0  0  0  0  0  0  0  0  0  0  0
   56.4090   29.3590   44.6670 C   0  0  0  0  0  0  0  0  0  0  0  0
   55.9380   28.2880   45.2450 N   0  0  0  0  0  0  0  0  0  0  0  0
   56.5720   27.0420   45.7200 C   0  0  0  0  0  0  0  0  0  0  0  0
   55.6106   26.5767   45.9832 H   0  0  0  0  0  0  0  0  0  0  0  0
   57.9270   27.1840   46.3940 C   0  0  0  0  0  0  0  0  0  0  0  0
   58.3773   28.1796   46.5203 H   0  0  0  0  0  0  0  0  0  0  0  0
   58.3544   26.8691   47.3574 H   0  0  0  0  0  0  0  0  0  0  0  0
   57.8230   26.5620   45.0000 C   0  0  0  0  0  0  0  0  0  0  0  0
   58.1981   27.1100   44.1231 H   0  0  0  0  0  0  0  0  0  0  0  0
   58.1442   25.6140   44.5438 H   0  0  0  0  0  0  0  0  0  0  0  0
   57.0580   30.3370   45.3750 N   0  0  0  0  0  0  0  0  0  0  0  0
   57.5200   31.4200   44.7070 C   0  0  0  0  0  0  0  0  0  0  0  0
   58.7080   31.6120   47.4750 C   0  0  0  0  0  0  0  0  0  0  0  0
   58.4673   30.5917   47.1416 H   0  0  0  0  0  0  0  0  0  0  0  0
   59.0870   31.8390   48.8020 C   0  0  0  0  0  0  0  0  0  0  0  0
   59.1420   30.9981   49.5090 H   0  0  0  0  0  0  0  0  0  0  0  0
   59.3960   33.1330   49.2310 C   0  0  0  0  0  0  0  0  0  0  0  0
   59.8700   33.4170   50.8960 Cl  0  0  0  0  0  0  0  0  0  0  0  0
  1  2  1  0
  2  3  2  0
  3  4  1  0
  3  5  1  0
  5  6  1  0
  6  7  1  0
  7  8  2  0
  7  9  1  0
  9 10  1  0
  9 11  1  0
 11 12  2  0
 12 13  1  0
 12 14  1  0
 14 15  1  0
 15 16  2  0
 16 17  1  0
 17 18  1  0
 17 19  1  0
 19 20  1  0
 19 21  1  0
 19 22  1  0
 22 23  1  0
 22 24  1  0
 15 25  1  0
 25 26  2  0
  5 27  2  0
 27 28  1  0
 27 29  1  0
 29 30  1  0
 29 31  2  0
 31 32  1  0
 31  2  1  0
 26  6  1  0
 26 11  1  0
 22 17  1  0
M  CHG  1  14  -1
M  END
>  <UniqueID>  (64) 
59

>  <SMILES>  (64) 
O=c1[nH]c2c[n-]/c(=N/C3CC3)nc2n1-c1ccc(Cl)cc1

>  <Energy>  (64) 
357.9439130521817

>  <Genealogy>  (64) 
O=c1[nH]c2c[n-]c(=NC3CC3)nc2n1-c1ccc(Cl)cc1 (protonated)
O=c1[nH]c2c[n-]/c(=N/C3CC3)nc2n1-c1ccc(Cl)cc1 (cis-trans isomerization)
O=c1[nH]c2c[n-]/c(=N/C3CC3)nc2n1-c1ccc(Cl)cc1 (3D coordinates assigned)
O=c1[nH]c2c[n-]/c(=N/C3CC3)nc2n1-c1ccc(Cl)cc1 (nonaromatic ring conformer: 357.9439130521817 kcal/mol)

>  <smiles>  (64) 
O=c1[nH]c2c[nH]c(=NC3CC3)nc2n1-c1ccc(Cl)cc1

>  <score_type>  (64) 
oracle

>  <origin>  (64) 
adg

>  <m_score__min__energy>  (64) 
-8.6600000000000001

>  <m_primary>  (64) 
energy

$$$$
64:0
     RDKit          3D

 30 30  0  0  0  0  0  0  0  0999 V2000
   59.4200   27.2960   46.0070 C   0  0  0  0  0  0  0  0  0  0  0  0
   58.9410   27.1590   44.5580 C   0  0  0  0  0  0  0  0  0  0  0  0
   57.9040   26.0380   44.4430 C   0  0  0  0  0  0  0  0  0  0  0  0
   58.3660   28.4240   44.0890 N   0  0  0  0  0  0  0  0  0  0  0  0
   57.1860   28.9960   44.6770 C   0  0  0  0  0  0  0  0  0  0  0  0
   56.5390   28.3460   45.5440 O   0  0  0  0  0  0  0  0  0  0  0  0
   56.6710   30.3370   44.1990 C   0  0  2  0  0  0  0  0  0  0  0  0
   55.2820   30.5290   44.6340 N   0  0  0  0  0  0  0  0  0  0  0  0
   56.6870   30.3530   42.8110 F   0  0  0  0  0  0  0  0  0  0  0  0
   57.5680   31.4640   44.6940 C   0  0  0  0  0  0  0  0  0  0  0  0
   57.7340   32.6630   43.9680 C   0  0  0  0  0  0  0  0  0  0  0  0
   58.5300   33.6950   44.4740 C   0  0  0  0  0  0  0  0  0  0  0  0
   59.1540   33.5570   45.7140 C   0  0  0  0  0  0  0  0  0  0  0  0
   58.9800   32.3890   46.4560 C   0  0  0  0  0  0  0  0  0  0  0  0
   58.1870   31.3520   45.9560 C   0  0  0  0  0  0  0  0  0  0  0  0
   58.5917   27.0591   46.6909 H   0  0  0  0  0  0  0  0  0  0  0  0
   60.2531   26.6001   46.1851 H   0  0  0  0  0  0  0  0  0  0  0  0
   59.7591   28.3271   46.1851 H   0  0  0  0  0  0  0  0  0  0  0  0
   59.8067   26.9073   43.9278 H   0  0  0  0  0  0  0  0  0  0  0  0
   57.6028   25.7124   45.4496 H   0  0  0  0  0  0  0  0  0  0  0  0
   57.0228   26.4081   43.8984 H   0  0  0  0  0  0  0  0  0  0  0  0
   58.3415   25.1883   43.8984 H   0  0  0  0  0  0  0  0  0  0  0  0
   58.8070   28.9160   43.2780 H   0  0  0  0  0  0  0  0  0  0  0  0
   55.1390   30.0930   45.5750 H   0  0  0  0  0  0  0  0  0  0  0  0
   54.6540   30.0120   43.9770 H   0  0  0  0  0  0  0  0  0  0  0  0
   57.2332   32.7864   42.9964 H   0  0  0  0  0  0  0  0  0  0  0  0
   58.6647   34.6189   43.8924 H   0  0  0  0  0  0  0  0  0  0  0  0
   59.7833   34.3694   46.1065 H   0  0  0  0  0  0  0  0  0  0  0  0
   59.4676   32.2836   47.4364 H   0  0  0  0  0  0  0  0  0  0  0  0
   58.0444   30.4393   46.5532 H   0  0  0  0  0  0  0  0  0  0  0  0
  1  2  1  0
  2  3  1  0
  2  4  1  0
  4  5  1  0
  5  6  2  0
  5  7  1  0
  7  8  1  0
  7  9  1  6
  7 10  1  0
 10 11  2  0
 11 12  1  0
 12 13  2  0
 13 14  1  0
 14 15  2  0
 15 10  1  0
  1 16  1  0
  1 17  1  0
  1 18  1  0
  2 19  1  0
  3 20  1  0
  3 21  1  0
  3 22  1  0
  4 23  1  0
  8 24  1  0
  8 25  1  0
 11 26  1  0
 12 27  1  0
 13 28  1  0
 14 29  1  0
 15 30  1  0
M  END
>  <UniqueID>  (65) 
60

>  <SMILES>  (65) 
CC(C)NC(=O)[C@](N)(F)c1ccccc1

>  <Energy>  (65) 
24.634137993786425

>  <Genealogy>  (65) 
CC(C)NC(=O)[C@](N)(F)c1ccccc1 (chirality)
CC(C)NC(=O)[C@](N)(F)c1ccccc1 (3D coordinates assigned)
CC(C)NC(=O)[C@](N)(F)c1ccccc1 (optimized conformer: 24.634137993786425 kcal/mol)

>  <smiles>  (65) 
CC(C)NC(=O)C(N)(F)c1ccccc1

>  <score_type>  (65) 
oracle

>  <origin>  (65) 
adg

>  <m_score__min__energy>  (65) 
-6.2999999999999998

>  <m_primary>  (65) 
energy

$$$$
65:0
     RDKit          3D

 37 39  0  0  0  0  0  0  0  0999 V2000
   55.5000   29.2830   44.9550 O   0  0  0  0  0  0  0  0  0  0  0  0
   56.2760   28.3360   45.2510 C   0  0  0  0  0  0  0  0  0  0  0  0
   57.7630   28.5880   45.3090 C   0  0  0  0  0  0  0  0  0  0  0  0
   58.1260   29.8140   46.1590 C   0  0  0  0  0  0  0  0  0  0  0  0
   58.1600   31.0280   45.3450 N   0  0  0  0  0  0  0  0  0  0  0  0
   57.7000   31.1140   43.9600 C   0  0  0  0  0  0  0  0  0  0  0  0
   57.8940   32.5910   43.5370 C   0  0  0  0  0  0  0  0  0  0  0  0
   58.4110   33.2400   44.7750 C   0  0  0  0  0  0  0  0  0  0  0  0
   58.7590   34.5790   44.9650 C   0  0  0  0  0  0  0  0  0  0  0  0
   59.2460   34.9720   46.2210 C   0  0  0  0  0  0  0  0  0  0  0  0
   59.3790   34.0280   47.2570 C   0  0  0  0  0  0  0  0  0  0  0  0
   59.0250   32.6870   47.0420 C   0  0  0  0  0  0  0  0  0  0  0  0
   58.5430   32.3220   45.7800 C   0  0  0  0  0  0  0  0  0  0  0  0
   55.7100   27.0980   45.6970 N   0  0  0  0  0  0  0  0  0  0  0  0
   56.4090   25.8520   45.7980 C   0  0  0  0  0  0  0  0  0  0  0  0
   57.0520   25.3300   44.6690 C   0  0  0  0  0  0  0  0  0  0  0  0
   57.7550   24.1230   44.7540 C   0  0  0  0  0  0  0  0  0  0  0  0
   57.8330   23.4430   45.9730 C   0  0  0  0  0  0  0  0  0  0  0  0
   57.2220   23.9760   47.1120 C   0  0  0  0  0  0  0  0  0  0  0  0
   57.3210   23.3320   48.3000 F   0  0  0  0  0  0  0  0  0  0  0  0
   56.5210   25.1830   47.0270 C   0  0  0  0  0  0  0  0  0  0  0  0
   58.2528   27.7031   45.7414 H   0  0  0  0  0  0  0  0  0  0  0  0
   58.1061   28.7835   44.2823 H   0  0  0  0  0  0  0  0  0  0  0  0
   57.3750   29.9353   46.9536 H   0  0  0  0  0  0  0  0  0  0  0  0
   59.1249   29.6556   46.5916 H   0  0  0  0  0  0  0  0  0  0  0  0
   58.2971   30.4507   43.3170 H   0  0  0  0  0  0  0  0  0  0  0  0
   56.6495   30.8020   43.8641 H   0  0  0  0  0  0  0  0  0  0  0  0
   58.6218   32.6730   42.7163 H   0  0  0  0  0  0  0  0  0  0  0  0
   56.9697   33.0554   43.1627 H   0  0  0  0  0  0  0  0  0  0  0  0
   58.6538   35.3089   44.1488 H   0  0  0  0  0  0  0  0  0  0  0  0
   59.5248   36.0215   46.3968 H   0  0  0  0  0  0  0  0  0  0  0  0
   59.7619   34.3427   48.2390 H   0  0  0  0  0  0  0  0  0  0  0  0
   59.1239   31.9419   47.8451 H   0  0  0  0  0  0  0  0  0  0  0  0
   57.0044   25.8705   43.7121 H   0  0  0  0  0  0  0  0  0  0  0  0
   58.2465   23.7091   43.8612 H   0  0  0  0  0  0  0  0  0  0  0  0
   58.3754   22.4881   46.0360 H   0  0  0  0  0  0  0  0  0  0  0  0
   56.0552   25.6102   47.9273 H   0  0  0  0  0  0  0  0  0  0  0  0
  1  2  2  0
  2  3  1  0
  3  4  1  0
  4  5  1  0
  5  6  1  0
  6  7  1  0
  7  8  1  0
  8  9  2  0
  9 10  1  0
 10 11  2  0
 11 12  1  0
 12 13  2  0
  2 14  1  0
 14 15  1  0
 15 16  2  0
 16 17  1  0
 17 18  2  0
 18 19  1  0
 19 20  1  0
 19 21  2  0
 13  5  1  0
 21 15  1  0
 13  8  1  0
  3 22  1  0
  3 23  1  0
  4 24  1  0
  4 25  1  0
  6 26  1  0
  6 27  1  0
  7 28  1  0
  7 29  1  0
  9 30  1  0
 10 31  1  0
 11 32  1  0
 12 33  1  0
 16 34  1  0
 17 35  1  0
 18 36  1  0
 21 37  1  0
M  CHG  1  14  -1
M  END
>  <UniqueID>  (66) 
61

>  <SMILES>  (66) 
O=C(CCN1CCc2ccccc21)[N-]c1cccc(F)c1

>  <Energy>  (66) 
52.37823584815859

>  <Genealogy>  (66) 
O=C(CCN1CCc2ccccc21)[N-]c1cccc(F)c1 (protonated)
O=C(CCN1CCc2ccccc21)[N-]c1cccc(F)c1 (3D coordinates assigned)
O=C(CCN1CCc2ccccc21)[N-]c1cccc(F)c1 (nonaromatic ring conformer: 52.37823584815859 kcal/mol)

>  <smiles>  (66) 
O=C(CCN1CCc2ccccc21)Nc1cccc(F)c1

>  <score_type>  (66) 
oracle

>  <origin>  (66) 
adg

>  <m_score__min__energy>  (66) 
-9.1899999999999995

>  <m_primary>  (66) 
energy

$$$$
66:0
     RDKit          3D

 49 52  0  0  0  0  0  0  0  0999 V2000
   57.0240   24.3860   43.3740 C   0  0  0  0  0  0  0  0  0  0  0  0
   57.7670   24.4080   44.5890 O   0  0  0  0  0  0  0  0  0  0  0  0
   58.1160   25.5770   45.2820 C   0  0  0  0  0  0  0  0  0  0  0  0
   58.0850   26.8490   44.6820 C   0  0  0  0  0  0  0  0  0  0  0  0
   58.4430   27.9840   45.4150 C   0  0  0  0  0  0  0  0  0  0  0  0
   58.8420   27.8690   46.7570 C   0  0  0  0  0  0  0  0  0  0  0  0
   59.2140   29.0720   47.5430 C   0  0  0  0  0  0  0  0  0  0  0  0
   58.6040   29.3080   48.7780 C   0  0  0  0  0  0  0  0  0  0  0  0
   58.9410   30.4460   49.5170 C   0  0  0  0  0  0  0  0  0  0  0  0
   58.2940   30.7170   50.8250 C   0  0  0  0  0  0  0  0  0  0  0  0
   57.7760   31.9930   51.1110 C   0  0  0  0  0  0  0  0  0  0  0  0
   57.1660   32.2500   52.3430 C   0  0  0  0  0  0  0  0  0  0  0  0
   57.0690   31.2380   53.3020 C   0  0  0  0  0  0  0  0  0  0  0  0
   57.5800   29.9680   53.0290 C   0  0  0  0  0  0  0  0  0  0  0  0
   58.1900   29.7050   51.7990 C   0  0  0  0  0  0  0  0  0  0  0  0
   59.8670   31.3120   49.0120 N   0  0  0  0  0  0  0  0  0  0  0  0
   60.4580   31.1040   47.8290 N   0  0  0  0  0  0  0  0  0  0  0  0
   61.4340   32.0540   47.3630 C   0  0  0  0  0  0  0  0  0  0  0  0
   62.7960   31.7720   47.5440 C   0  0  0  0  0  0  0  0  0  0  0  0
   63.7690   32.6870   47.1430 C   0  0  0  0  0  0  0  0  0  0  0  0
   63.3900   33.8990   46.5640 C   0  0  0  0  0  0  0  0  0  0  0  0
   62.0380   34.1940   46.3740 C   0  0  0  0  0  0  0  0  0  0  0  0
   61.0410   33.2710   46.7510 C   0  0  0  0  0  0  0  0  0  0  0  0
   59.5800   33.6140   46.5460 C   0  0  0  0  0  0  0  0  0  0  0  0
   59.4350   34.8060   45.8560 F   0  0  0  0  0  0  0  0  0  0  0  0
   58.9600   33.7400   47.7750 F   0  0  0  0  0  0  0  0  0  0  0  0
   58.9460   32.6240   45.8160 F   0  0  0  0  0  0  0  0  0  0  0  0
   60.1670   29.9950   47.0800 C   0  0  0  0  0  0  0  0  0  0  0  0
   60.7600   29.7960   45.9820 O   0  0  0  0  0  0  0  0  0  0  0  0
   58.8640   26.5970   47.3560 C   0  0  0  0  0  0  0  0  0  0  0  0
   58.5060   25.4640   46.6220 C   0  0  0  0  0  0  0  0  0  0  0  0
   55.9485   24.3542   43.6025 H   0  0  0  0  0  0  0  0  0  0  0  0
   57.2483   25.2912   42.7906 H   0  0  0  0  0  0  0  0  0  0  0  0
   57.3014   23.4957   42.7906 H   0  0  0  0  0  0  0  0  0  0  0  0
   57.7775   26.9509   43.6308 H   0  0  0  0  0  0  0  0  0  0  0  0
   58.4121   28.9745   44.9375 H   0  0  0  0  0  0  0  0  0  0  0  0
   57.8592   28.5989   49.1684 H   0  0  0  0  0  0  0  0  0  0  0  0
   57.8512   32.7940   50.3608 H   0  0  0  0  0  0  0  0  0  0  0  0
   56.7619   33.2503   52.5575 H   0  0  0  0  0  0  0  0  0  0  0  0
   56.5904   31.4421   54.2711 H   0  0  0  0  0  0  0  0  0  0  0  0
   57.5025   29.1718   53.7840 H   0  0  0  0  0  0  0  0  0  0  0  0
   58.5910   28.7021   51.5907 H   0  0  0  0  0  0  0  0  0  0  0  0
   60.1450   32.1450   49.5790 H   0  0  0  0  0  0  0  0  0  0  0  0
   63.0992   30.8210   48.0062 H   0  0  0  0  0  0  0  0  0  0  0  0
   64.8348   32.4536   47.2830 H   0  0  0  0  0  0  0  0  0  0  0  0
   64.1581   34.6239   46.2564 H   0  0  0  0  0  0  0  0  0  0  0  0
   61.7482   35.1559   45.9258 H   0  0  0  0  0  0  0  0  0  0  0  0
   59.1650   26.4937   48.4090 H   0  0  0  0  0  0  0  0  0  0  0  0
   58.5307   24.4740   47.1009 H   0  0  0  0  0  0  0  0  0  0  0  0
  1  2  1  0
  2  3  1  0
  3  4  2  0
  4  5  1  0
  5  6  2  0
  6  7  1  0
  7  8  2  0
  8  9  1  0
  9 10  1  0
 10 11  2  0
 11 12  1  0
 12 13  2  0
 13 14  1  0
 14 15  2  0
  9 16  2  0
 16 17  1  0
 17 18  1  0
 18 19  2  0
 19 20  1  0
 20 21  2  0
 21 22  1  0
 22 23  2  0
 23 24  1  0
 24 25  1  0
 24 26  1  0
 24 27  1  0
 17 28  1  0
 28 29  2  0
  6 30  1  0
 30 31  2  0
 31  3  1  0
 28  7  1  0
 15 10  1  0
 23 18  1  0
  1 32  1  0
  1 33  1  0
  1 34  1  0
  4 35  1  0
  5 36  1  0
  8 37  1  0
 11 38  1  0
 12 39  1  0
 13 40  1  0
 14 41  1  0
 15 42  1  0
 16 43  1  0
 19 44  1  0
 20 45  1  0
 21 46  1  0
 22 47  1  0
 30 48  1  0
 31 49  1  0
M  CHG  1  16   1
M  END
>  <UniqueID>  (67) 
62

>  <SMILES>  (67) 
COc1ccc(-c2cc(-c3ccccc3)[nH+]n(-c3ccccc3C(F)(F)F)c2=O)cc1

>  <Energy>  (67) 
75.0649080748206

>  <Genealogy>  (67) 
COc1ccc(-c2cc(-c3ccccc3)[nH+]n(-c3ccccc3C(F)(F)F)c2=O)cc1 (protonated)
COc1ccc(-c2cc(-c3ccccc3)[nH+]n(-c3ccccc3C(F)(F)F)c2=O)cc1 (3D coordinates assigned)
COc1ccc(-c2cc(-c3ccccc3)[nH+]n(-c3ccccc3C(F)(F)F)c2=O)cc1 (optimized conformer: 75.0649080748206 kcal/mol)

>  <smiles>  (67) 
COc1ccc(-c2cc(-c3ccccc3)nn(-c3ccccc3C(F)(F)F)c2=O)cc1

>  <score_type>  (67) 
oracle

>  <origin>  (67) 
adg

>  <m_score__min__energy>  (67) 
-5.5

>  <m_primary>  (67) 
energy

$$$$
67:0
     RDKit          3D

 28 30  0  0  0  0  0  0  0  0999 V2000
   63.2820   32.7620   47.6020 C   0  0  0  0  0  0  0  0  0  0  0  0
   62.7520   31.4680   47.5760 C   0  0  0  0  0  0  0  0  0  0  0  0
   61.4520   31.2310   47.1530 C   0  0  0  0  0  0  0  0  0  0  0  0
   60.6790   32.3150   46.7530 C   0  0  0  0  0  0  0  0  0  0  0  0
   59.3630   32.1100   46.3220 C   0  0  0  0  0  0  0  0  0  0  0  0
   58.5930   33.1890   45.9240 C   0  0  0  0  0  0  0  0  0  0  0  0
   57.1860   32.9840   45.4610 C   0  0  0  0  0  0  0  0  0  0  0  0
   57.0690   31.8000   44.6070 C   0  0  0  0  0  0  0  0  0  0  0  0
   57.7520   31.4830   43.4300 C   0  0  0  0  0  0  0  0  0  0  0  0
   57.2890   30.2780   43.0170 N   0  0  0  0  0  0  0  0  0  0  0  0
   56.3590   29.8520   43.8890 C   0  0  0  0  0  0  0  0  0  0  0  0
   56.2160   30.7740   44.8650 N   0  0  0  0  0  0  0  0  0  0  0  0
   59.0950   34.4880   45.9400 C   0  0  0  0  0  0  0  0  0  0  0  0
   60.3980   34.6630   46.3710 C   0  0  0  0  0  0  0  0  0  0  0  0
   61.1960   33.6060   46.7760 C   0  0  0  0  0  0  0  0  0  0  0  0
   62.5070   33.8390   47.2030 C   0  0  0  0  0  0  0  0  0  0  0  0
   64.3161   32.9250   47.9399 H   0  0  0  0  0  0  0  0  0  0  0  0
   63.3776   30.6221   47.8970 H   0  0  0  0  0  0  0  0  0  0  0  0
   61.0429   30.2101   47.1346 H   0  0  0  0  0  0  0  0  0  0  0  0
   58.9420   31.0940   46.2997 H   0  0  0  0  0  0  0  0  0  0  0  0
   56.5357   32.8570   46.3391 H   0  0  0  0  0  0  0  0  0  0  0  0
   56.8842   33.8640   44.8741 H   0  0  0  0  0  0  0  0  0  0  0  0
   58.5193   32.0949   42.9332 H   0  0  0  0  0  0  0  0  0  0  0  0
   57.5910   29.7380   42.1580 H   0  0  0  0  0  0  0  0  0  0  0  0
   55.8039   28.9049   43.8188 H   0  0  0  0  0  0  0  0  0  0  0  0
   58.4791   35.3422   45.6221 H   0  0  0  0  0  0  0  0  0  0  0  0
   60.8160   35.6802   46.3928 H   0  0  0  0  0  0  0  0  0  0  0  0
   62.9161   34.8599   47.2218 H   0  0  0  0  0  0  0  0  0  0  0  0
  1  2  2  0
  2  3  1  0
  3  4  2  0
  4  5  1  0
  5  6  2  0
  6  7  1  0
  7  8  1  0
  8  9  2  0
  9 10  1  0
 10 11  1  0
 11 12  2  0
  6 13  1  0
 13 14  2  0
 14 15  1  0
 15 16  2  0
 16  1  1  0
 15  4  1  0
 12  8  1  0
  1 17  1  0
  2 18  1  0
  3 19  1  0
  5 20  1  0
  7 21  1  0
  7 22  1  0
  9 23  1  0
 10 24  1  0
 11 25  1  0
 13 26  1  0
 14 27  1  0
 16 28  1  0
M  END
>  <smiles>  (68) 
c1ccc2cc(Cc3c[nH]cn3)ccc2c1

>  <score_type>  (68) 
oracle

>  <origin>  (68) 
adg

>  <m_score__min__energy>  (68) 
-7.1100000000000003

>  <m_primary>  (68) 
energy

$$$$
68:0
     RDKit          3D

 36 38  0  0  0  0  0  0  0  0999 V2000
   58.8880   23.3890   45.2960 C   0  0  0  0  0  0  0  0  0  0  0  0
   59.1970   24.5450   46.0700 O   0  0  0  0  0  0  0  0  0  0  0  0
   58.6350   25.8120   45.8590 C   0  0  0  0  0  0  0  0  0  0  0  0
   57.2400   25.9330   45.8740 C   0  0  0  0  0  0  0  0  0  0  0  0
   56.6320   27.1740   45.6710 C   0  0  0  0  0  0  0  0  0  0  0  0
   57.4090   28.3190   45.4630 C   0  0  0  0  0  0  0  0  0  0  0  0
   56.7560   29.5430   45.2520 O   0  0  0  0  0  0  0  0  0  0  0  0
   57.3880   30.7880   45.1270 C   0  0  0  0  0  0  0  0  0  0  0  0
   57.8980   31.4100   46.2280 N   0  0  0  0  0  0  0  0  0  0  0  0
   58.4660   32.6420   46.1690 C   0  0  0  0  0  0  0  0  0  0  0  0
   58.9840   33.2330   47.3270 C   0  0  0  0  0  0  0  0  0  0  0  0
   59.5600   34.5060   47.2630 C   0  0  0  0  0  0  0  0  0  0  0  0
   59.6210   35.1900   46.0450 C   0  0  0  0  0  0  0  0  0  0  0  0
   59.1050   34.6070   44.8830 C   0  0  0  0  0  0  0  0  0  0  0  0
   58.5240   33.3290   44.9400 C   0  0  0  0  0  0  0  0  0  0  0  0
   58.0000   32.7170   43.7960 C   0  0  0  0  0  0  0  0  0  0  0  0
   57.4390   31.4320   43.8740 C   0  0  0  0  0  0  0  0  0  0  0  0
   56.9010   30.7980   42.6470 C   0  0  0  0  0  0  0  0  0  0  0  0
   56.2920   29.5050   42.6860 N   0  0  0  0  0  0  0  0  0  0  0  0
   57.0120   31.3900   41.5410 O   0  0  0  0  0  0  0  0  0  0  0  0
   58.8100   28.2000   45.4260 C   0  0  0  0  0  0  0  0  0  0  0  0
   59.4190   26.9580   45.6280 C   0  0  0  0  0  0  0  0  0  0  0  0
   58.6630   22.5474   45.9677 H   0  0  0  0  0  0  0  0  0  0  0  0
   58.0135   23.5956   44.6615 H   0  0  0  0  0  0  0  0  0  0  0  0
   59.7489   23.1317   44.6615 H   0  0  0  0  0  0  0  0  0  0  0  0
   56.6175   25.0428   46.0472 H   0  0  0  0  0  0  0  0  0  0  0  0
   55.5348   27.2518   45.6747 H   0  0  0  0  0  0  0  0  0  0  0  0
   58.9382   32.6970   48.2865 H   0  0  0  0  0  0  0  0  0  0  0  0
   59.9662   34.9704   48.1736 H   0  0  0  0  0  0  0  0  0  0  0  0
   60.0765   36.1903   46.0005 H   0  0  0  0  0  0  0  0  0  0  0  0
   59.1540   35.1480   43.9265 H   0  0  0  0  0  0  0  0  0  0  0  0
   58.0276   33.2448   42.8313 H   0  0  0  0  0  0  0  0  0  0  0  0
   56.3430   28.9080   43.5410 H   0  0  0  0  0  0  0  0  0  0  0  0
   55.8700   29.1010   41.8220 H   0  0  0  0  0  0  0  0  0  0  0  0
   59.4298   29.0889   45.2371 H   0  0  0  0  0  0  0  0  0  0  0  0
   60.5157   26.8759   45.6063 H   0  0  0  0  0  0  0  0  0  0  0  0
  1  2  1  0
  2  3  1  0
  3  4  2  0
  4  5  1  0
  5  6  2  0
  6  7  1  0
  7  8  1  0
  8  9  2  0
  9 10  1  0
 10 11  2  0
 11 12  1  0
 12 13  2  0
 13 14  1  0
 14 15  2  0
 15 16  1  0
 16 17  2  0
 17 18  1  0
 18 19  1  0
 18 20  2  0
  6 21  1  0
 21 22  2  0
 22  3  1  0
 17  8  1  0
 15 10  1  0
  1 23  1  0
  1 24  1  0
  1 25  1  0
  4 26  1  0
  5 27  1  0
 11 28  1  0
 12 29  1  0
 13 30  1  0
 14 31  1  0
 16 32  1  0
 19 33  1  0
 19 34  1  0
 21 35  1  0
 22 36  1  0
M  END
>  <UniqueID>  (69) 
63

>  <SMILES>  (69) 
COc1ccc(Oc2nc3ccccc3cc2C(N)=O)cc1

>  <Energy>  (69) 
48.6480704865019

>  <Genealogy>  (69) 
COc1ccc(Oc2nc3ccccc3cc2C(N)=O)cc1 (3D coordinates assigned)
COc1ccc(Oc2nc3ccccc3cc2C(N)=O)cc1 (optimized conformer: 48.6480704865019 kcal/mol)

>  <smiles>  (69) 
COc1ccc(Oc2nc3ccccc3cc2C(N)=O)cc1

>  <score_type>  (69) 
oracle

>  <origin>  (69) 
adg

>  <m_score__min__energy>  (69) 
-7.8300000000000001

>  <m_primary>  (69) 
energy

$$$$
69:0
     RDKit          3D

 27 29  0  0  0  0  0  0  0  0999 V2000
   57.6910   34.3370   45.0820 O   0  0  0  0  0  0  0  0  0  0  0  0
   58.4450   33.4490   45.5650 C   0  0  0  0  0  0  0  0  0  0  0  0
   59.5410   33.8260   46.3450 C   0  0  0  0  0  0  0  0  0  0  0  0
   60.3850   32.8340   46.8850 C   0  0  0  0  0  0  0  0  0  0  0  0
   61.5780   33.1520   47.7300 C   0  0  0  0  0  0  0  0  0  0  0  0
   61.3970   33.8910   48.9180 C   0  0  0  0  0  0  0  0  0  0  0  0
   62.4840   34.2100   49.7370 C   0  0  0  0  0  0  0  0  0  0  0  0
   63.7700   33.7990   49.3860 C   0  0  0  0  0  0  0  0  0  0  0  0
   63.9710   33.0680   48.2160 C   0  0  0  0  0  0  0  0  0  0  0  0
   62.8880   32.7450   47.3910 C   0  0  0  0  0  0  0  0  0  0  0  0
   60.1140   31.5520   46.6360 O   0  0  0  0  0  0  0  0  0  0  0  0
   59.0840   31.1470   45.9010 C   0  0  0  0  0  0  0  0  0  0  0  0
   58.8770   29.7800   45.6910 C   0  0  0  0  0  0  0  0  0  0  0  0
   57.7970   29.3420   44.9190 C   0  0  0  0  0  0  0  0  0  0  0  0
   56.9180   30.2710   44.3510 C   0  0  0  0  0  0  0  0  0  0  0  0
   55.5650   29.7150   43.3830 Cl  0  0  0  0  0  0  0  0  0  0  0  0
   57.1160   31.6410   44.5550 C   0  0  0  0  0  0  0  0  0  0  0  0
   58.2010   32.0890   45.3300 C   0  0  0  0  0  0  0  0  0  0  0  0
   59.7442   34.8899   46.5366 H   0  0  0  0  0  0  0  0  0  0  0  0
   60.3871   34.2206   49.2036 H   0  0  0  0  0  0  0  0  0  0  0  0
   62.3249   34.7864   50.6603 H   0  0  0  0  0  0  0  0  0  0  0  0
   64.6243   34.0513   50.0314 H   0  0  0  0  0  0  0  0  0  0  0  0
   64.9853   32.7438   47.9403 H   0  0  0  0  0  0  0  0  0  0  0  0
   63.0580   32.1687   46.4696 H   0  0  0  0  0  0  0  0  0  0  0  0
   59.5665   29.0468   46.1349 H   0  0  0  0  0  0  0  0  0  0  0  0
   57.6379   28.2656   44.7578 H   0  0  0  0  0  0  0  0  0  0  0  0
   56.4222   32.3687   44.1087 H   0  0  0  0  0  0  0  0  0  0  0  0
  1  2  2  0
  2  3  1  0
  3  4  2  0
  4  5  1  0
  5  6  2  0
  6  7  1  0
  7  8  2  0
  8  9  1  0
  9 10  2  0
  4 11  1  0
 11 12  1  0
 12 13  2  0
 13 14  1  0
 14 15  2  0
 15 16  1  0
 15 17  1  0
 17 18  2  0
 18  2  1  0
 10  5  1  0
 18 12  1  0
  3 19  1  0
  6 20  1  0
  7 21  1  0
  8 22  1  0
  9 23  1  0
 10 24  1  0
 13 25  1  0
 14 26  1  0
 17 27  1  0
M  END
>  <UniqueID>  (70) 
64

>  <SMILES>  (70) 
O=c1cc(-c2ccccc2)oc2ccc(Cl)cc12

>  <Energy>  (70) 
39.274462088673964

>  <Genealogy>  (70) 
O=c1cc(-c2ccccc2)oc2ccc(Cl)cc12 (3D coordinates assigned)
O=c1cc(-c2ccccc2)oc2ccc(Cl)cc12 (optimized conformer: 39.274462088673964 kcal/mol)

>  <smiles>  (70) 
O=c1cc(-c2ccccc2)oc2ccc(Cl)cc12

>  <score_type>  (70) 
oracle

>  <origin>  (70) 
adg

>  <m_score__min__energy>  (70) 
-6.75

>  <m_primary>  (70) 
energy

$$$$
70:0
     RDKit          3D

 69 72  0  0  0  0  0  0  0  0999 V2000
   57.0180   21.1840   42.6990 C   0  0  0  0  0  0  0  0  0  0  0  0
   55.9990   21.5250   43.6310 O   0  0  0  0  0  0  0  0  0  0  0  0
   56.0570   21.2560   45.0090 C   0  0  0  0  0  0  0  0  0  0  0  0
   55.7610   19.9810   45.5330 C   0  0  0  0  0  0  0  0  0  0  0  0
   55.8070   19.7560   46.9130 C   0  0  0  0  0  0  0  0  0  0  0  0
   56.1460   20.7940   47.7820 C   0  0  0  0  0  0  0  0  0  0  0  0
   56.4450   22.0600   47.2730 C   0  0  0  0  0  0  0  0  0  0  0  0
   56.4060   22.2960   45.8910 C   0  0  0  0  0  0  0  0  0  0  0  0
   56.7200   23.6020   45.3840 N   0  0  0  0  0  0  0  0  0  0  0  0
   57.8480   23.7850   44.4670 C   0  0  0  0  0  0  0  0  0  0  0  0
   57.6030   25.0250   43.5980 C   0  0  0  0  0  0  0  0  0  0  0  0
   57.3890   26.2680   44.3980 N   0  0  0  0  0  0  0  0  0  0  0  0
   58.6390   27.0650   44.4550 C   0  0  0  0  0  0  0  0  0  0  0  0
   58.3810   28.5170   44.7640 C   0  0  0  0  0  0  0  0  0  0  0  0
   57.1490   29.1080   44.4500 C   0  0  0  0  0  0  0  0  0  0  0  0
   56.9510   30.4550   44.7540 C   0  0  0  0  0  0  0  0  0  0  0  0
   55.8510   31.0070   44.4790 O   0  0  0  0  0  0  0  0  0  0  0  0
   57.9790   31.1890   45.3560 C   0  0  0  0  0  0  0  0  0  0  0  0
   57.7780   32.5530   45.6290 O   0  0  0  0  0  0  0  0  0  0  0  0
   58.3320   33.6360   44.8800 C   0  0  0  0  0  0  0  0  0  0  0  0
   59.5080   34.2460   45.5840 C   0  0  0  0  0  0  0  0  0  0  0  0
   59.6110   35.5010   45.6370 O   0  0  0  0  0  0  0  0  0  0  0  0
   60.5500   33.4110   46.1040 N   0  0  0  0  0  0  0  0  0  0  0  0
   61.1000   33.5060   47.4260 C   0  0  0  0  0  0  0  0  0  0  0  0
   62.4890   33.7050   47.5700 C   0  0  0  0  0  0  0  0  0  0  0  0
   63.3720   33.8350   46.3570 C   0  0  0  0  0  0  0  0  0  0  0  0
   63.0470   33.8340   48.8520 C   0  0  0  0  0  0  0  0  0  0  0  0
   62.2400   33.7510   49.9920 C   0  0  0  0  0  0  0  0  0  0  0  0
   62.8500   33.8560   51.3600 C   0  0  0  0  0  0  0  0  0  0  0  0
   60.8730   33.4880   49.8520 C   0  0  0  0  0  0  0  0  0  0  0  0
   60.2940   33.3410   48.5800 C   0  0  0  0  0  0  0  0  0  0  0  0
   58.8310   32.9980   48.4930 C   0  0  0  0  0  0  0  0  0  0  0  0
   59.1800   30.5220   45.6570 C   0  0  0  0  0  0  0  0  0  0  0  0
   59.3320   29.2370   45.3530 O   0  0  0  0  0  0  0  0  0  0  0  0
   56.8490   26.0210   45.7670 C   0  0  0  0  0  0  0  0  0  0  0  0
   55.9640   24.7710   45.8400 C   0  0  0  0  0  0  0  0  0  0  0  0
   57.9251   20.8805   43.2422 H   0  0  0  0  0  0  0  0  0  0  0  0
   56.6735   20.3522   42.0670 H   0  0  0  0  0  0  0  0  0  0  0  0
   57.2435   22.0556   42.0670 H   0  0  0  0  0  0  0  0  0  0  0  0
   55.4925   19.1589   44.8532 H   0  0  0  0  0  0  0  0  0  0  0  0
   55.5754   18.7583   47.3142 H   0  0  0  0  0  0  0  0  0  0  0  0
   56.1777   20.6154   48.8669 H   0  0  0  0  0  0  0  0  0  0  0  0
   56.7125   22.8764   47.9599 H   0  0  0  0  0  0  0  0  0  0  0  0
   58.7734   23.9199   45.0461 H   0  0  0  0  0  0  0  0  0  0  0  0
   57.9451   22.8986   43.8229 H   0  0  0  0  0  0  0  0  0  0  0  0
   58.4766   25.1741   42.9464 H   0  0  0  0  0  0  0  0  0  0  0  0
   56.6845   24.8445   43.0203 H   0  0  0  0  0  0  0  0  0  0  0  0
   56.6780   26.8400   43.8800 H   0  0  0  0  0  0  0  0  0  0  0  0
   59.2889   26.6473   45.2381 H   0  0  0  0  0  0  0  0  0  0  0  0
   59.1157   27.0124   43.4650 H   0  0  0  0  0  0  0  0  0  0  0  0
   56.3520   28.5195   43.9720 H   0  0  0  0  0  0  0  0  0  0  0  0
   58.6577   33.2619   43.8982 H   0  0  0  0  0  0  0  0  0  0  0  0
   57.5579   34.4094   44.7671 H   0  0  0  0  0  0  0  0  0  0  0  0
   64.4134   33.9883   46.6763 H   0  0  0  0  0  0  0  0  0  0  0  0
   63.3046   32.9172   45.7543 H   0  0  0  0  0  0  0  0  0  0  0  0
   63.0430   34.6944   45.7543 H   0  0  0  0  0  0  0  0  0  0  0  0
   64.1286   34.0019   48.9611 H   0  0  0  0  0  0  0  0  0  0  0  0
   62.0678   33.7214   52.1216 H   0  0  0  0  0  0  0  0  0  0  0  0
   63.6169   33.0767   51.4803 H   0  0  0  0  0  0  0  0  0  0  0  0
   63.3122   34.8469   51.4803 H   0  0  0  0  0  0  0  0  0  0  0  0
   60.2433   33.3951   50.7492 H   0  0  0  0  0  0  0  0  0  0  0  0
   58.4163   32.9008   49.5072 H   0  0  0  0  0  0  0  0  0  0  0  0
   58.2988   33.7957   47.9541 H   0  0  0  0  0  0  0  0  0  0  0  0
   58.7088   32.0469   47.9541 H   0  0  0  0  0  0  0  0  0  0  0  0
   59.9995   31.0677   46.1476 H   0  0  0  0  0  0  0  0  0  0  0  0
   57.6935   25.8947   46.4604 H   0  0  0  0  0  0  0  0  0  0  0  0
   56.2245   26.8852   46.0376 H   0  0  0  0  0  0  0  0  0  0  0  0
   55.6391   24.6135   46.8790 H   0  0  0  0  0  0  0  0  0  0  0  0
   55.0844   24.9099   45.1943 H   0  0  0  0  0  0  0  0  0  0  0  0
  1  2  1  0
  2  3  1  0
  3  4  2  0
  4  5  1  0
  5  6  2  0
  6  7  1  0
  7  8  2  0
  8  9  1  0
  9 10  1  0
 10 11  1  0
 11 12  1  0
 12 13  1  0
 13 14  1  0
 14 15  2  0
 15 16  1  0
 16 17  2  0
 16 18  1  0
 18 19  1  0
 19 20  1  0
 20 21  1  0
 21 22  2  0
 21 23  1  0
 23 24  1  0
 24 25  2  0
 25 26  1  0
 25 27  1  0
 27 28  2  0
 28 29  1  0
 28 30  1  0
 30 31  2  0
 31 32  1  0
 18 33  2  0
 33 34  1  0
 12 35  1  0
 35 36  1  0
  8  3  1  0
 36  9  1  0
 34 14  1  0
 31 24  1  0
  1 37  1  0
  1 38  1  0
  1 39  1  0
  4 40  1  0
  5 41  1  0
  6 42  1  0
  7 43  1  0
 10 44  1  0
 10 45  1  0
 11 46  1  0
 11 47  1  0
 12 48  1  0
 13 49  1  0
 13 50  1  0
 15 51  1  0
 20 52  1  0
 20 53  1  0
 26 54  1  0
 26 55  1  0
 26 56  1  0
 27 57  1  0
 29 58  1  0
 29 59  1  0
 29 60  1  0
 30 61  1  0
 32 62  1  0
 32 63  1  0
 32 64  1  0
 33 65  1  0
 35 66  1  0
 35 67  1  0
 36 68  1  0
 36 69  1  0
M  CHG  2  12   1  23  -1
M  END
>  <UniqueID>  (71) 
65

>  <SMILES>  (71) 
COc1ccccc1N1CC[NH+](Cc2cc(=O)c(OCC(=O)[N-]c3c(C)cc(C)cc3C)co2)CC1

>  <Energy>  (71) 
91.61640968108739

>  <Genealogy>  (71) 
COc1ccccc1N1CC[NH+](Cc2cc(=O)c(OCC(=O)[N-]c3c(C)cc(C)cc3C)co2)CC1 (protonated)
COc1ccccc1N1CC[NH+](Cc2cc(=O)c(OCC(=O)[N-]c3c(C)cc(C)cc3C)co2)CC1 (3D coordinates assigned)
COc1ccccc1N1CC[NH+](Cc2cc(=O)c(OCC(=O)[N-]c3c(C)cc(C)cc3C)co2)CC1 (nonaromatic ring conformer: 91.61640968108739 kcal/mol)

>  <smiles>  (71) 
COc1ccccc1N1CCN(Cc2cc(=O)c(OCC(=O)Nc3c(C)cc(C)cc3C)co2)CC1

>  <score_type>  (71) 
oracle

>  <origin>  (71) 
adg

>  <m_score__min__energy>  (71) 
-8.6799999999999997

>  <m_primary>  (71) 
energy

$$$$
71:0
     RDKit          3D

 46 48  0  0  0  0  0  0  0  0999 V2000
   56.2070   23.2470   43.0180 C   0  0  0  0  0  0  0  0  0  0  0  0
   55.5090   22.9760   44.3510 C   0  0  0  0  0  0  0  0  0  0  0  0
   55.1690   24.2650   45.1140 C   0  0  0  0  0  0  0  0  0  0  0  0
   55.9380   24.3880   46.4370 C   0  0  0  0  0  0  0  0  0  0  0  0
   56.6360   25.6700   46.5030 N   0  0  0  0  0  0  0  0  0  0  0  0
   57.5910   26.0800   45.5110 C   0  0  0  0  0  0  0  0  0  0  0  0
   57.7550   25.3800   44.4740 O   0  0  0  0  0  0  0  0  0  0  0  0
   58.3370   27.3000   45.6680 N   0  0  0  0  0  0  0  0  0  0  0  0
   58.6630   28.0930   44.4710 C   0  0  0  0  0  0  0  0  0  0  0  0
   59.4560   29.3570   44.8280 C   0  0  0  0  0  0  0  0  0  0  0  0
   58.8740   30.0000   46.0130 N   0  0  0  0  0  0  0  0  0  0  0  0
   58.5050   31.3870   45.9720 C   0  0  0  0  0  0  0  0  0  0  0  0
   57.3960   31.7520   45.2730 N   0  0  0  0  0  0  0  0  0  0  0  0
   57.0160   33.0510   45.1720 C   0  0  0  0  0  0  0  0  0  0  0  0
   57.7440   34.0250   45.7730 N   0  0  0  0  0  0  0  0  0  0  0  0
   58.8550   33.7240   46.4930 C   0  0  0  0  0  0  0  0  0  0  0  0
   59.5820   34.7450   47.1150 C   0  0  0  0  0  0  0  0  0  0  0  0
   60.7100   34.4370   47.8790 C   0  0  0  0  0  0  0  0  0  0  0  0
   61.1130   33.1070   48.0310 C   0  0  0  0  0  0  0  0  0  0  0  0
   60.3960   32.0790   47.4130 C   0  0  0  0  0  0  0  0  0  0  0  0
   59.2690   32.3780   46.6240 C   0  0  0  0  0  0  0  0  0  0  0  0
   58.5200   29.2060   47.1970 C   0  0  0  0  0  0  0  0  0  0  0  0
   58.8380   27.7240   46.9820 C   0  0  0  0  0  0  0  0  0  0  0  0
   57.2173   23.6393   43.2062 H   0  0  0  0  0  0  0  0  0  0  0  0
   56.2780   22.3111   42.4444 H   0  0  0  0  0  0  0  0  0  0  0  0
   55.6279   23.9856   42.4444 H   0  0  0  0  0  0  0  0  0  0  0  0
   54.5764   22.4266   44.1548 H   0  0  0  0  0  0  0  0  0  0  0  0
   56.2008   22.3922   44.9760 H   0  0  0  0  0  0  0  0  0  0  0  0
   55.4205   25.1272   44.4788 H   0  0  0  0  0  0  0  0  0  0  0  0
   54.0958   24.2371   45.3537 H   0  0  0  0  0  0  0  0  0  0  0  0
   55.2299   24.3172   47.2758 H   0  0  0  0  0  0  0  0  0  0  0  0
   56.6773   23.5757   46.4969 H   0  0  0  0  0  0  0  0  0  0  0  0
   56.3940   26.3160   47.2860 H   0  0  0  0  0  0  0  0  0  0  0  0
   59.2643   27.4759   43.7871 H   0  0  0  0  0  0  0  0  0  0  0  0
   57.7200   28.4018   43.9962 H   0  0  0  0  0  0  0  0  0  0  0  0
   60.5006   29.0839   45.0384 H   0  0  0  0  0  0  0  0  0  0  0  0
   59.4157   30.0583   43.9815 H   0  0  0  0  0  0  0  0  0  0  0  0
   56.1140   33.3150   44.6004 H   0  0  0  0  0  0  0  0  0  0  0  0
   59.2646   35.7921   47.0021 H   0  0  0  0  0  0  0  0  0  0  0  0
   61.2824   35.2426   48.3621 H   0  0  0  0  0  0  0  0  0  0  0  0
   61.9979   32.8688   48.6394 H   0  0  0  0  0  0  0  0  0  0  0  0
   60.7129   31.0337   47.5433 H   0  0  0  0  0  0  0  0  0  0  0  0
   59.0924   29.5746   48.0610 H   0  0  0  0  0  0  0  0  0  0  0  0
   57.4397   29.3090   47.3765 H   0  0  0  0  0  0  0  0  0  0  0  0
   59.9267   27.5728   47.0253 H   0  0  0  0  0  0  0  0  0  0  0  0
   58.3528   27.1276   47.7687 H   0  0  0  0  0  0  0  0  0  0  0  0
  1  2  1  0
  2  3  1  0
  3  4  1  0
  4  5  1  0
  5  6  1  0
  6  7  2  0
  6  8  1  0
  8  9  1  0
  9 10  1  0
 10 11  1  0
 11 12  1  0
 12 13  2  0
 13 14  1  0
 14 15  2  0
 15 16  1  0
 16 17  2  0
 17 18  1  0
 18 19  2  0
 19 20  1  0
 20 21  2  0
 11 22  1  0
 22 23  1  0
 23  8  1  0
 21 12  1  0
 21 16  1  0
  1 24  1  0
  1 25  1  0
  1 26  1  0
  2 27  1  0
  2 28  1  0
  3 29  1  0
  3 30  1  0
  4 31  1  0
  4 32  1  0
  5 33  1  0
  9 34  1  0
  9 35  1  0
 10 36  1  0
 10 37  1  0
 14 38  1  0
 17 39  1  0
 18 40  1  0
 19 41  1  0
 20 42  1  0
 22 43  1  0
 22 44  1  0
 23 45  1  0
 23 46  1  0
M  END
>  <UniqueID>  (72) 
66

>  <SMILES>  (72) 
CCCCNC(=O)N1CCN(c2ncnc3ccccc23)CC1

>  <Energy>  (72) 
51.299624307217336

>  <Genealogy>  (72) 
CCCCNC(=O)N1CCN(c2ncnc3ccccc23)CC1 (3D coordinates assigned)
CCCCNC(=O)N1CCN(c2ncnc3ccccc23)CC1 (nonaromatic ring conformer: 51.299624307217336 kcal/mol)

>  <smiles>  (72) 
CCCCNC(=O)N1CCN(c2ncnc3ccccc23)CC1

>  <score_type>  (72) 
oracle

>  <origin>  (72) 
adg

>  <m_score__min__energy>  (72) 
-7.2000000000000002

>  <m_primary>  (72) 
energy

$$$$
72:0
     RDKit          3D

 33 35  0  0  0  0  0  0  0  0999 V2000
   56.8358   23.8467   47.0506 H   0  0  0  0  0  0  0  0  0  0  0  0
   56.6880   24.8580   46.6440 C   0  0  0  0  0  0  0  0  0  0  0  0
   57.8330   26.0930   46.6220 S   0  0  0  0  0  0  0  0  0  0  0  0
   56.7970   27.1880   45.8840 C   0  0  0  0  0  0  0  0  0  0  0  0
   57.1560   28.3990   45.5650 N   0  0  0  0  0  0  0  0  0  0  0  0
   56.3530   29.4360   44.9820 C   0  0  0  0  0  0  0  0  0  0  0  0
   55.1340   29.2470   44.7320 O   0  0  0  0  0  0  0  0  0  0  0  0
   56.8970   30.7450   44.7880 N   0  0  0  0  0  0  0  0  0  0  0  0
   58.0250   31.3010   45.4800 C   0  0  0  0  0  0  0  0  0  0  0  0
   59.1130   30.4700   45.7710 C   0  0  0  0  0  0  0  0  0  0  0  0
   59.0958   29.4170   45.4534 H   0  0  0  0  0  0  0  0  0  0  0  0
   60.2210   30.9680   46.4620 C   0  0  0  0  0  0  0  0  0  0  0  0
   61.0737   30.3067   46.6753 H   0  0  0  0  0  0  0  0  0  0  0  0
   60.2540   32.3090   46.8870 C   0  0  0  0  0  0  0  0  0  0  0  0
   61.4320   32.8400   47.6200 C   0  0  0  0  0  0  0  0  0  0  0  0
   62.7380   32.5380   47.1890 C   0  0  0  0  0  0  0  0  0  0  0  0
   62.8876   31.9034   46.3031 H   0  0  0  0  0  0  0  0  0  0  0  0
   63.8460   33.0390   47.8790 C   0  0  0  0  0  0  0  0  0  0  0  0
   64.8625   32.7966   47.5355 H   0  0  0  0  0  0  0  0  0  0  0  0
   63.6640   33.8470   49.0040 C   0  0  0  0  0  0  0  0  0  0  0  0
   64.5369   34.2414   49.5449 H   0  0  0  0  0  0  0  0  0  0  0  0
   62.3740   34.1540   49.4420 C   0  0  0  0  0  0  0  0  0  0  0  0
   62.2319   34.7896   50.3284 H   0  0  0  0  0  0  0  0  0  0  0  0
   61.2630   33.6550   48.7560 C   0  0  0  0  0  0  0  0  0  0  0  0
   60.2495   33.9007   49.1060 H   0  0  0  0  0  0  0  0  0  0  0  0
   59.1490   33.1340   46.6160 C   0  0  0  0  0  0  0  0  0  0  0  0
   59.1565   34.1825   46.9486 H   0  0  0  0  0  0  0  0  0  0  0  0
   58.0400   32.6330   45.9270 C   0  0  0  0  0  0  0  0  0  0  0  0
   57.1752   33.2849   45.7340 H   0  0  0  0  0  0  0  0  0  0  0  0
   55.5870   26.6310   45.6350 N   0  0  0  0  0  0  0  0  0  0  0  0
   54.7880   27.0900   45.1460 H   0  0  0  0  0  0  0  0  0  0  0  0
   55.5230   25.3410   46.0580 C   0  0  0  0  0  0  0  0  0  0  0  0
   54.6182   24.7256   45.9454 H   0  0  0  0  0  0  0  0  0  0  0  0
  1  2  1  0
  2  3  1  0
  3  4  1  0
  4  5  2  0
  5  6  1  0
  6  7  2  0
  6  8  1  0
  8  9  1  0
  9 10  2  0
 10 11  1  0
 10 12  1  0
 12 13  1  0
 12 14  2  0
 14 15  1  0
 15 16  2  0
 16 17  1  0
 16 18  1  0
 18 19  1  0
 18 20  2  0
 20 21  1  0
 20 22  1  0
 22 23  1  0
 22 24  2  0
 24 25  1  0
 14 26  1  0
 26 27  1  0
 26 28  2  0
 28 29  1  0
  4 30  1  0
 30 31  1  0
 30 32  1  0
 32 33  1  0
 32  2  2  0
 28  9  1  0
 24 15  1  0
M  CHG  1   8  -1
M  END
>  <UniqueID>  (73) 
67

>  <SMILES>  (73) 
O=C(/N=c1\[nH]ccs1)[N-]c1ccc(-c2ccccc2)cc1

>  <Energy>  (73) 
78.87154773017677

>  <Genealogy>  (73) 
O=C(N=c1[nH]ccs1)[N-]c1ccc(-c2ccccc2)cc1 (protonated)
O=C(/N=c1\[nH]ccs1)[N-]c1ccc(-c2ccccc2)cc1 (cis-trans isomerization)
O=C(/N=c1\[nH]ccs1)[N-]c1ccc(-c2ccccc2)cc1 (3D coordinates assigned)
O=C(/N=c1\[nH]ccs1)[N-]c1ccc(-c2ccccc2)cc1 (optimized conformer: 78.87154773017677 kcal/mol)

>  <smiles>  (73) 
O=C(N=c1[nH]ccs1)Nc1ccc(-c2ccccc2)cc1

>  <score_type>  (73) 
oracle

>  <origin>  (73) 
adg

>  <m_score__min__energy>  (73) 
-9.4700000000000006

>  <m_primary>  (73) 
energy

$$$$
73:0
     RDKit          3D

 32 34  0  0  0  0  0  0  0  0999 V2000
   57.6620   32.0940   42.0640 C   0  0  0  0  0  0  0  0  0  0  0  0
   57.5300   32.0170   43.5180 N   0  0  0  0  0  0  0  0  0  0  0  0
   56.8850   31.0710   44.2490 C   0  0  0  0  0  0  0  0  0  0  0  0
   55.9460   29.7190   43.5390 S   0  0  0  0  0  0  0  0  0  0  0  0
   57.4070   28.6450   43.3670 C   0  0  0  0  0  0  0  0  0  0  0  0
   58.1350   28.5780   44.6770 C   0  0  0  0  0  0  0  0  0  0  0  0
   59.4320   29.1080   44.7950 C   0  0  0  0  0  0  0  0  0  0  0  0
   60.0960   29.0750   46.0250 C   0  0  0  0  0  0  0  0  0  0  0  0
   59.4690   28.5230   47.1460 C   0  0  0  0  0  0  0  0  0  0  0  0
   60.1140   28.4940   48.3380 F   0  0  0  0  0  0  0  0  0  0  0  0
   58.1740   28.0080   47.0390 C   0  0  0  0  0  0  0  0  0  0  0  0
   57.5060   28.0400   45.8100 C   0  0  0  0  0  0  0  0  0  0  0  0
   57.0330   31.2260   45.5910 N   0  0  0  0  0  0  0  0  0  0  0  0
   57.8220   32.3130   45.6810 C   0  0  0  0  0  0  0  0  0  0  0  0
   58.3130   32.9090   46.8400 C   0  0  0  0  0  0  0  0  0  0  0  0
   59.1550   34.0290   46.6940 C   0  0  0  0  0  0  0  0  0  0  0  0
   59.4830   34.5150   45.4080 C   0  0  0  0  0  0  0  0  0  0  0  0
   58.9720   33.8880   44.2570 C   0  0  0  0  0  0  0  0  0  0  0  0
   58.1330   32.7860   44.4390 C   0  0  0  0  0  0  0  0  0  0  0  0
   58.5860   32.6330   41.8077 H   0  0  0  0  0  0  0  0  0  0  0  0
   57.7022   31.0777   41.6451 H   0  0  0  0  0  0  0  0  0  0  0  0
   56.7971   32.6292   41.6451 H   0  0  0  0  0  0  0  0  0  0  0  0
   57.0868   27.6345   43.0733 H   0  0  0  0  0  0  0  0  0  0  0  0
   58.0757   29.0560   42.5964 H   0  0  0  0  0  0  0  0  0  0  0  0
   59.9258   29.5499   43.9170 H   0  0  0  0  0  0  0  0  0  0  0  0
   61.1135   29.4841   46.1108 H   0  0  0  0  0  0  0  0  0  0  0  0
   57.6795   27.5771   47.9220 H   0  0  0  0  0  0  0  0  0  0  0  0
   56.4836   27.6418   45.7317 H   0  0  0  0  0  0  0  0  0  0  0  0
   58.0524   32.5188   47.8349 H   0  0  0  0  0  0  0  0  0  0  0  0
   59.5598   34.5285   47.5866 H   0  0  0  0  0  0  0  0  0  0  0  0
   60.1424   35.3896   45.3064 H   0  0  0  0  0  0  0  0  0  0  0  0
   59.2240   34.2523   43.2501 H   0  0  0  0  0  0  0  0  0  0  0  0
  1  2  1  0
  2  3  1  0
  3  4  1  0
  4  5  1  0
  5  6  1  0
  6  7  2  0
  7  8  1  0
  8  9  2  0
  9 10  1  0
  9 11  1  0
 11 12  2  0
  3 13  2  0
 13 14  1  0
 14 15  2  0
 15 16  1  0
 16 17  2  0
 17 18  1  0
 18 19  2  0
 19  2  1  0
 12  6  1  0
 19 14  1  0
  1 20  1  0
  1 21  1  0
  1 22  1  0
  5 23  1  0
  5 24  1  0
  7 25  1  0
  8 26  1  0
 11 27  1  0
 12 28  1  0
 15 29  1  0
 16 30  1  0
 17 31  1  0
 18 32  1  0
M  END
>  <UniqueID>  (74) 
68

>  <SMILES>  (74) 
Cn1c(SCc2ccc(F)cc2)nc2ccccc21

>  <Energy>  (74) 
67.03102401698233

>  <Genealogy>  (74) 
Cn1c(SCc2ccc(F)cc2)nc2ccccc21 (3D coordinates assigned)
Cn1c(SCc2ccc(F)cc2)nc2ccccc21 (optimized conformer: 67.03102401698233 kcal/mol)

>  <smiles>  (74) 
Cn1c(SCc2ccc(F)cc2)nc2ccccc21

>  <score_type>  (74) 
oracle

>  <origin>  (74) 
adg

>  <m_score__min__energy>  (74) 
-6.9800000000000004

>  <m_primary>  (74) 
energy

$$$$
74:0
     RDKit          3D

 41 44  0  0  0  0  0  0  0  0999 V2000
   59.6540   35.7130   46.0120 Cl  0  0  0  0  0  0  0  0  0  0  0  0
   58.8870   34.1570   45.7510 C   0  0  0  0  0  0  0  0  0  0  0  0
   58.6660   33.2960   46.8310 C   0  0  0  0  0  0  0  0  0  0  0  0
   58.0530   32.0570   46.6240 C   0  0  0  0  0  0  0  0  0  0  0  0
   57.6740   31.6580   45.3360 C   0  0  0  0  0  0  0  0  0  0  0  0
   57.0210   30.3890   45.1690 N   0  0  0  0  0  0  0  0  0  0  0  0
   57.3530   29.2640   45.7340 C   0  0  0  0  0  0  0  0  0  0  0  0
   56.9070   28.0730   45.2520 N   0  0  0  0  0  0  0  0  0  0  0  0
   57.2660   26.8900   45.8180 C   0  0  0  0  0  0  0  0  0  0  0  0
   56.7310   25.6230   45.2550 C   0  0  0  0  0  0  0  0  0  0  0  0
   57.3890   24.9480   44.2080 C   0  0  0  0  0  0  0  0  0  0  0  0
   56.8610   23.7640   43.6860 C   0  0  0  0  0  0  0  0  0  0  0  0
   55.6710   23.2400   44.1970 C   0  0  0  0  0  0  0  0  0  0  0  0
   55.0030   23.9040   45.2260 C   0  0  0  0  0  0  0  0  0  0  0  0
   55.5250   25.0900   45.7510 C   0  0  0  0  0  0  0  0  0  0  0  0
   58.1160   26.9030   46.9350 C   0  0  0  0  0  0  0  0  0  0  0  0
   58.5940   28.1340   47.4130 C   0  0  0  0  0  0  0  0  0  0  0  0
   59.5030   28.2180   48.5850 C   0  0  0  0  0  0  0  0  0  0  0  0
   60.2600   27.0930   48.9670 C   0  0  0  0  0  0  0  0  0  0  0  0
   61.1150   27.1550   50.0710 C   0  0  0  0  0  0  0  0  0  0  0  0
   61.2190   28.3330   50.8120 C   0  0  0  0  0  0  0  0  0  0  0  0
   60.4660   29.4520   50.4530 C   0  0  0  0  0  0  0  0  0  0  0  0
   59.6100   29.3980   49.3480 C   0  0  0  0  0  0  0  0  0  0  0  0
   58.1950   29.2800   46.7970 N   0  0  0  0  0  0  0  0  0  0  0  0
   57.8690   32.5430   44.2580 C   0  0  0  0  0  0  0  0  0  0  0  0
   58.4820   33.7830   44.4660 C   0  0  0  0  0  0  0  0  0  0  0  0
   58.9748   33.5941   47.8438 H   0  0  0  0  0  0  0  0  0  0  0  0
   57.8669   31.3904   47.4790 H   0  0  0  0  0  0  0  0  0  0  0  0
   58.3250   25.3558   43.7985 H   0  0  0  0  0  0  0  0  0  0  0  0
   57.3839   23.2431   42.8704 H   0  0  0  0  0  0  0  0  0  0  0  0
   55.2611   22.3046   43.7883 H   0  0  0  0  0  0  0  0  0  0  0  0
   54.0637   23.4937   45.6251 H   0  0  0  0  0  0  0  0  0  0  0  0
   54.9895   25.6113   46.5581 H   0  0  0  0  0  0  0  0  0  0  0  0
   58.4034   25.9629   47.4286 H   0  0  0  0  0  0  0  0  0  0  0  0
   60.1776   26.1588   48.3921 H   0  0  0  0  0  0  0  0  0  0  0  0
   61.7073   26.2731   50.3564 H   0  0  0  0  0  0  0  0  0  0  0  0
   61.8944   28.3796   51.6790 H   0  0  0  0  0  0  0  0  0  0  0  0
   60.5459   30.3786   51.0404 H   0  0  0  0  0  0  0  0  0  0  0  0
   59.0165   30.2823   49.0728 H   0  0  0  0  0  0  0  0  0  0  0  0
   57.5380   32.2580   43.2485 H   0  0  0  0  0  0  0  0  0  0  0  0
   58.6456   34.4644   43.6181 H   0  0  0  0  0  0  0  0  0  0  0  0
  1  2  1  0
  2  3  2  0
  3  4  1  0
  4  5  2  0
  5  6  1  0
  6  7  2  3
  7  8  1  0
  8  9  2  0
  9 10  1  0
 10 11  2  0
 11 12  1  0
 12 13  2  0
 13 14  1  0
 14 15  2  0
  9 16  1  0
 16 17  2  0
 17 18  1  0
 18 19  2  0
 19 20  1  0
 20 21  2  0
 21 22  1  0
 22 23  2  0
 17 24  1  0
  5 25  1  0
 25 26  2  0
 26  2  1  0
 24  7  1  0
 15 10  1  0
 23 18  1  0
  3 27  1  0
  4 28  1  0
 11 29  1  0
 12 30  1  0
 13 31  1  0
 14 32  1  0
 15 33  1  0
 16 34  1  0
 19 35  1  0
 20 36  1  0
 21 37  1  0
 22 38  1  0
 23 39  1  0
 25 40  1  0
 26 41  1  0
M  CHG  1  24  -1
M  END
>  <UniqueID>  (75) 
69

>  <SMILES>  (75) 
Clc1ccc(N=c2nc(-c3ccccc3)cc(-c3ccccc3)[n-]2)cc1

>  <Energy>  (75) 
60.297844547867875

>  <Genealogy>  (75) 
Clc1ccc(N=c2nc(-c3ccccc3)cc(-c3ccccc3)[n-]2)cc1 (protonated)
Clc1ccc(N=c2nc(-c3ccccc3)cc(-c3ccccc3)[n-]2)cc1 (3D coordinates assigned)
Clc1ccc(N=c2nc(-c3ccccc3)cc(-c3ccccc3)[n-]2)cc1 (optimized conformer: 60.297844547867875 kcal/mol)

>  <smiles>  (75) 
Clc1ccc(N=c2nc(-c3ccccc3)cc(-c3ccccc3)[nH]2)cc1

>  <score_type>  (75) 
oracle

>  <origin>  (75) 
adg

>  <m_score__min__energy>  (75) 
-9.2899999999999991

>  <m_primary>  (75) 
energy

$$$$
75:0
     RDKit          3D

 37 39  0  0  0  0  0  0  0  0999 V2000
   56.9345   28.8599   43.2016 H   0  0  0  0  0  0  0  0  0  0  0  0
   56.5620   29.4790   44.0310 C   0  0  0  0  0  0  0  0  0  0  0  0
   55.5480   29.0970   44.6730 O   0  0  0  0  0  0  0  0  0  0  0  0
   57.2660   30.7380   44.3620 C   0  0  0  0  0  0  0  0  0  0  0  0
   57.7670   30.8880   45.6740 C   0  0  0  0  0  0  0  0  0  0  0  0
   57.6326   30.0898   46.4188 H   0  0  0  0  0  0  0  0  0  0  0  0
   58.4330   32.0620   46.0080 C   0  0  0  0  0  0  0  0  0  0  0  0
   58.6080   33.0680   45.0870 C   0  0  0  0  0  0  0  0  0  0  0  0
   58.1330   32.9650   43.7860 C   0  0  0  0  0  0  0  0  0  0  0  0
   58.2846   33.7825   43.0658 H   0  0  0  0  0  0  0  0  0  0  0  0
   57.4490   31.7840   43.4070 C   0  0  0  0  0  0  0  0  0  0  0  0
   56.9470   31.6220   42.1040 O   0  0  0  0  0  0  0  0  0  0  0  0
   57.4100   32.3390   40.9640 C   0  0  0  0  0  0  0  0  0  0  0  0
   57.9796   33.2210   41.2920 H   0  0  0  0  0  0  0  0  0  0  0  0
   58.0585   31.6877   40.3597 H   0  0  0  0  0  0  0  0  0  0  0  0
   56.5495   32.6621   40.3597 H   0  0  0  0  0  0  0  0  0  0  0  0
   59.3300   34.1320   45.7560 C   0  0  0  0  0  0  0  0  0  0  0  0
   59.6920   35.2320   45.2600 O   0  0  0  0  0  0  0  0  0  0  0  0
   59.5500   33.6590   47.1230 C   0  0  0  0  0  0  0  0  0  0  0  0
   60.2040   34.3170   48.0870 C   0  0  0  0  0  0  0  0  0  0  0  0
   59.6980   35.1669   48.5684 H   0  0  0  0  0  0  0  0  0  0  0  0
   61.5680   33.9690   48.5440 C   0  0  0  0  0  0  0  0  0  0  0  0
   62.4880   33.4720   47.6090 C   0  0  0  0  0  0  0  0  0  0  0  0
   62.1816   33.3354   46.5614 H   0  0  0  0  0  0  0  0  0  0  0  0
   63.7910   33.1490   47.9980 C   0  0  0  0  0  0  0  0  0  0  0  0
   64.4974   32.7473   47.2566 H   0  0  0  0  0  0  0  0  0  0  0  0
   64.2050   33.3320   49.3220 C   0  0  0  0  0  0  0  0  0  0  0  0
   65.5220   32.9910   49.6630 O   0  0  0  0  0  0  0  0  0  0  0  0
   65.8790   31.8770   50.4740 C   0  0  0  0  0  0  0  0  0  0  0  0
   65.7906   32.1527   51.5352 H   0  0  0  0  0  0  0  0  0  0  0  0
   65.2058   31.0346   50.2568 H   0  0  0  0  0  0  0  0  0  0  0  0
   66.9164   31.5828   50.2568 H   0  0  0  0  0  0  0  0  0  0  0  0
   63.2930   33.8540   50.2590 C   0  0  0  0  0  0  0  0  0  0  0  0
   63.6075   34.0085   51.3017 H   0  0  0  0  0  0  0  0  0  0  0  0
   61.9890   34.1770   49.8700 C   0  0  0  0  0  0  0  0  0  0  0  0
   61.2876   34.5967   50.6062 H   0  0  0  0  0  0  0  0  0  0  0  0
   58.9900   32.3840   47.2430 O   0  0  0  0  0  0  0  0  0  0  0  0
  1  2  1  0
  2  3  2  0
  2  4  1  0
  4  5  2  0
  5  6  1  0
  5  7  1  0
  7  8  2  0
  8  9  1  0
  9 10  1  0
  9 11  2  0
 11 12  1  0
 12 13  1  0
 13 14  1  0
 13 15  1  0
 13 16  1  0
  8 17  1  0
 17 18  2  0
 17 19  1  0
 19 20  2  0
 20 21  1  0
 20 22  1  0
 22 23  2  0
 23 24  1  0
 23 25  1  0
 25 26  1  0
 25 27  2  0
 27 28  1  0
 28 29  1  0
 29 30  1  0
 29 31  1  0
 29 32  1  0
 27 33  1  0
 33 34  1  0
 33 35  2  0
 35 36  1  0
 19 37  1  0
 11  4  1  0
 35 22  1  0
 37  7  1  0
M  END
>  <UniqueID>  (76) 
70

>  <SMILES>  (76) 
COc1ccc(/C=C2\Oc3cc(C=O)c(OC)cc3C2=O)cc1

>  <Energy>  (76) 
74.64357285083068

>  <Genealogy>  (76) 
COc1ccc(/C=C2\Oc3cc(C=O)c(OC)cc3C2=O)cc1 (cis-trans isomerization)
COc1ccc(/C=C2\Oc3cc(C=O)c(OC)cc3C2=O)cc1 (3D coordinates assigned)
COc1ccc(/C=C2\Oc3cc(C=O)c(OC)cc3C2=O)cc1 (nonaromatic ring conformer: 74.64357285083068 kcal/mol)

>  <smiles>  (76) 
COc1ccc(C=C2Oc3cc(C=O)c(OC)cc3C2=O)cc1

>  <score_type>  (76) 
oracle

>  <origin>  (76) 
adg

>  <m_score__min__energy>  (76) 
-7.46

>  <m_primary>  (76) 
energy

$$$$
76:0
     RDKit          3D

 52 54  0  0  0  0  0  0  0  0999 V2000
   56.0660   29.8390   44.1570 C   0  0  0  0  0  0  0  0  0  0  0  0
   57.4180   30.4830   44.4490 C   0  0  0  0  0  0  0  0  0  0  0  0
   57.2890   31.4940   45.4500 O   0  0  0  0  0  0  0  0  0  0  0  0
   58.0820   32.6500   45.5620 C   0  0  0  0  0  0  0  0  0  0  0  0
   58.5060   33.3790   44.4300 C   0  0  0  0  0  0  0  0  0  0  0  0
   59.2310   34.5640   44.5820 C   0  0  0  0  0  0  0  0  0  0  0  0
   59.5340   35.0420   45.8570 C   0  0  0  0  0  0  0  0  0  0  0  0
   59.1290   34.3270   46.9850 C   0  0  0  0  0  0  0  0  0  0  0  0
   58.4290   33.1210   46.8480 C   0  0  0  0  0  0  0  0  0  0  0  0
   58.0310   32.4250   48.0370 N   0  0  0  0  0  0  0  0  0  0  0  0
   58.9220   31.7710   48.9470 C   0  0  0  0  0  0  0  0  0  0  0  0
   59.3500   32.3740   49.9700 O   0  0  0  0  0  0  0  0  0  0  0  0
   59.3490   30.3590   48.6910 C   0  0  0  0  0  0  0  0  0  0  0  0
   58.7330   29.8390   47.4690 N   0  0  0  0  0  0  0  0  0  0  0  0
   58.8090   28.4650   47.0390 C   0  0  0  0  0  0  0  0  0  0  0  0
   60.0670   27.8580   46.9050 C   0  0  0  0  0  0  0  0  0  0  0  0
   60.1740   26.5300   46.4840 C   0  0  0  0  0  0  0  0  0  0  0  0
   59.0240   25.7920   46.1890 C   0  0  0  0  0  0  0  0  0  0  0  0
   57.7610   26.3810   46.3150 C   0  0  0  0  0  0  0  0  0  0  0  0
   56.3200   25.4320   45.9620 S   0  0  0  0  0  0  0  0  0  0  0  0
   56.1180   24.3870   47.0250 O   0  0  0  0  0  0  0  0  0  0  0  0
   55.1330   26.3550   45.9670 O   0  0  0  0  0  0  0  0  0  0  0  0
   56.4740   24.6800   44.3890 N   0  0  0  0  0  0  0  0  0  0  0  0
   57.7170   23.9030   44.3090 C   0  0  0  0  0  0  0  0  0  0  0  0
   57.4030   22.4660   44.7000 C   0  0  0  0  0  0  0  0  0  0  0  0
   55.8940   22.3410   44.6170 C   0  0  0  0  0  0  0  0  0  0  0  0
   55.3940   23.7100   44.1790 C   0  0  0  0  0  0  0  0  0  0  0  0
   57.6530   27.7120   46.7450 C   0  0  0  0  0  0  0  0  0  0  0  0
   55.5619   29.5989   45.1048 H   0  0  0  0  0  0  0  0  0  0  0  0
   55.4444   30.5378   43.5779 H   0  0  0  0  0  0  0  0  0  0  0  0
   56.2169   28.9161   43.5779 H   0  0  0  0  0  0  0  0  0  0  0  0
   58.1169   29.7110   44.8032 H   0  0  0  0  0  0  0  0  0  0  0  0
   57.7968   30.9453   43.5256 H   0  0  0  0  0  0  0  0  0  0  0  0
   58.2642   33.0119   43.4217 H   0  0  0  0  0  0  0  0  0  0  0  0
   59.5636   35.1213   43.6939 H   0  0  0  0  0  0  0  0  0  0  0  0
   60.0922   35.9827   45.9733 H   0  0  0  0  0  0  0  0  0  0  0  0
   59.3609   34.7129   47.9886 H   0  0  0  0  0  0  0  0  0  0  0  0
   60.4433   30.3277   48.5838 H   0  0  0  0  0  0  0  0  0  0  0  0
   59.0273   29.7360   49.5386 H   0  0  0  0  0  0  0  0  0  0  0  0
   58.1960   30.5170   46.8810 H   0  0  0  0  0  0  0  0  0  0  0  0
   60.9768   28.4326   47.1334 H   0  0  0  0  0  0  0  0  0  0  0  0
   61.1655   26.0641   46.3845 H   0  0  0  0  0  0  0  0  0  0  0  0
   59.1121   24.7469   45.8574 H   0  0  0  0  0  0  0  0  0  0  0  0
   58.1096   23.9325   43.2819 H   0  0  0  0  0  0  0  0  0  0  0  0
   58.4743   24.3251   44.9860 H   0  0  0  0  0  0  0  0  0  0  0  0
   57.8853   21.7644   44.0034 H   0  0  0  0  0  0  0  0  0  0  0  0
   57.7763   22.2274   45.7068 H   0  0  0  0  0  0  0  0  0  0  0  0
   55.6120   21.5751   43.8795 H   0  0  0  0  0  0  0  0  0  0  0  0
   55.4570   22.0366   45.5795 H   0  0  0  0  0  0  0  0  0  0  0  0
   55.1192   23.6831   43.1142 H   0  0  0  0  0  0  0  0  0  0  0  0
   54.5070   23.9959   44.7634 H   0  0  0  0  0  0  0  0  0  0  0  0
   56.6596   28.1718   46.8537 H   0  0  0  0  0  0  0  0  0  0  0  0
  1  2  1  0
  2  3  1  0
  3  4  1  0
  4  5  2  0
  5  6  1  0
  6  7  2  0
  7  8  1  0
  8  9  2  0
  9 10  1  0
 10 11  1  0
 11 12  2  0
 11 13  1  0
 13 14  1  0
 14 15  1  0
 15 16  2  0
 16 17  1  0
 17 18  2  0
 18 19  1  0
 19 20  1  0
 20 21  2  0
 20 22  2  0
 20 23  1  0
 23 24  1  0
 24 25  1  0
 25 26  1  0
 26 27  1  0
 19 28  2  0
  9  4  1  0
 28 15  1  0
 27 23  1  0
  1 29  1  0
  1 30  1  0
  1 31  1  0
  2 32  1  0
  2 33  1  0
  5 34  1  0
  6 35  1  0
  7 36  1  0
  8 37  1  0
 13 38  1  0
 13 39  1  0
 14 40  1  0
 16 41  1  0
 17 42  1  0
 18 43  1  0
 24 44  1  0
 24 45  1  0
 25 46  1  0
 25 47  1  0
 26 48  1  0
 26 49  1  0
 27 50  1  0
 27 51  1  0
 28 52  1  0
M  CHG  1  10  -1
M  END
>  <UniqueID>  (77) 
71

>  <SMILES>  (77) 
CCOc1ccccc1[N-]C(=O)CNc1cccc(S(=O)(=O)N2CCCC2)c1

>  <Energy>  (77) 
55.31515265764722

>  <Genealogy>  (77) 
CCOc1ccccc1[N-]C(=O)CNc1cccc(S(=O)(=O)N2CCCC2)c1 (protonated)
CCOc1ccccc1[N-]C(=O)CNc1cccc(S(=O)(=O)N2CCCC2)c1 (3D coordinates assigned)
CCOc1ccccc1[N-]C(=O)CNc1cccc(S(=O)(=O)N2CCCC2)c1 (nonaromatic ring conformer: 55.31515265764722 kcal/mol)

>  <smiles>  (77) 
CCOc1ccccc1NC(=O)CNc1cccc(S(=O)(=O)N2CCCC2)c1

>  <score_type>  (77) 
oracle

>  <origin>  (77) 
adg

>  <m_score__min__energy>  (77) 
-11.890000000000001

>  <m_primary>  (77) 
energy

$$$$
77:0
     RDKit          3D

 39 42  0  0  1  0  0  0  0  0999 V2000
   57.0520   21.1570   43.0280 C   0  0  0  0  0  0  0  0  0  0  0  0
   56.1170   22.1970   43.2470 O   0  0  0  0  0  0  0  0  0  0  0  0
   56.5400   23.2780   44.0090 C   0  0  0  0  0  0  0  0  0  0  0  0
   56.5000   23.0970   45.3960 C   0  0  0  0  0  0  0  0  0  0  0  0
   56.9050   24.1300   46.2130 C   0  0  0  0  0  0  0  0  0  0  0  0
   57.3490   25.3380   45.7020 C   0  0  0  0  0  0  0  0  0  0  0  0
   57.3820   25.5050   44.3110 C   0  0  0  0  0  0  0  0  0  0  0  0
   57.7750   26.7280   43.7720 N   0  0  0  0  0  0  0  0  0  0  0  0
   58.3430   27.6670   44.3520 C   0  0  0  0  0  0  0  0  0  0  0  0
   59.5750   27.4640   44.8790 N   0  0  0  0  0  0  0  0  0  0  0  0
   60.2640   28.4190   45.5220 C   0  0  0  0  0  0  0  0  0  0  0  0
   59.6830   29.6280   45.6360 N   0  0  0  0  0  0  0  0  0  0  0  0
   58.4540   29.8780   45.1250 C   0  0  0  0  0  0  0  0  0  0  0  0
   57.7690   28.8900   44.4730 C   0  0  0  0  0  0  0  0  0  0  0  0
   56.5920   29.4060   44.0740 C   0  0  0  0  0  0  0  0  0  0  0  0
   56.5980   30.7060   44.5000 N   0  0  0  0  0  0  0  0  0  0  0  0
   57.7120   30.9970   45.1320 N   0  0  0  0  0  0  0  0  0  0  0  0
   58.0800   32.2420   45.7140 C   0  0  0  0  0  0  0  0  0  0  0  0
   58.1380   33.4220   45.0010 C   0  0  0  0  0  0  0  0  0  0  0  0
   58.5080   34.5760   45.6670 C   0  0  0  0  0  0  0  0  0  0  0  0
   58.8190   34.5820   47.0190 C   0  0  0  0  0  0  0  0  0  0  0  0
   58.7550   33.3900   47.7150 C   0  0  0  0  0  0  0  0  0  0  0  0
   58.3870   32.2320   47.0620 C   0  0  0  0  0  0  0  0  0  0  0  0
   56.9740   24.4660   43.4600 C   0  0  0  0  0  0  0  0  0  0  0  0
   57.4015   20.7683   43.9959 H   0  0  0  0  0  0  0  0  0  0  0  0
   56.5726   20.3468   42.4590 H   0  0  0  0  0  0  0  0  0  0  0  0
   57.9085   21.5477   42.4590 H   0  0  0  0  0  0  0  0  0  0  0  0
   56.1513   22.1467   45.8265 H   0  0  0  0  0  0  0  0  0  0  0  0
   56.8747   23.9909   47.3038 H   0  0  0  0  0  0  0  0  0  0  0  0
   57.6688   26.1487   46.3732 H   0  0  0  0  0  0  0  0  0  0  0  0
   60.0170   26.5250   44.7870 H   0  0  0  0  0  0  0  0  0  0  0  0
   61.2627   28.2221   45.9389 H   0  0  0  0  0  0  0  0  0  0  0  0
   55.7927   28.8906   43.5213 H   0  0  0  0  0  0  0  0  0  0  0  0
   57.8957   33.4441   43.9283 H   0  0  0  0  0  0  0  0  0  0  0  0
   58.5574   35.5209   45.1060 H   0  0  0  0  0  0  0  0  0  0  0  0
   59.1099   35.5142   47.5253 H   0  0  0  0  0  0  0  0  0  0  0  0
   58.9970   33.3646   48.7877 H   0  0  0  0  0  0  0  0  0  0  0  0
   58.3371   31.2866   47.6221 H   0  0  0  0  0  0  0  0  0  0  0  0
   57.0002   24.5979   42.3683 H   0  0  0  0  0  0  0  0  0  0  0  0
  1  2  1  0
  2  3  1  0
  3  4  2  0
  4  5  1  0
  5  6  2  0
  6  7  1  0
  7  8  1  0
  8  9  2  0
  9 10  1  0
 10 11  1  0
 11 12  2  0
 12 13  1  0
 13 14  2  0
 14 15  1  0
 15 16  2  0
 16 17  1  0
 17 18  1  0
 18 19  2  0
 19 20  1  0
 20 21  2  0
 21 22  1  0
 22 23  2  0
  7 24  2  0
 24  3  1  0
 14  9  1  0
 23 18  1  0
 17 13  1  0
  1 25  1  0
  1 26  1  0
  1 27  1  0
  4 28  1  0
  5 29  1  0
  6 30  1  0
 10 31  1  0
 11 32  1  0
 15 33  1  0
 19 34  1  0
 20 35  1  0
 21 36  1  0
 22 37  1  0
 23 38  1  0
 24 39  1  0
M  END
>  <smiles>  (78) 
COc1cccc(N=c2[nH]cnc3c2cnn3-c2ccccc2)c1

>  <score_type>  (78) 
oracle

>  <origin>  (78) 
adg

>  <m_score__min__energy>  (78) 
-7.8600000000000003

>  <m_primary>  (78) 
energy

$$$$
78:0
     RDKit          3D

 32 35  0  0  0  0  0  0  0  0999 V2000
   56.4680   23.2740   43.0440 C   0  0  0  0  0  0  0  0  0  0  0  0
   56.9840   23.8500   44.2410 O   0  0  0  0  0  0  0  0  0  0  0  0
   57.2030   25.2230   44.4280 C   0  0  0  0  0  0  0  0  0  0  0  0
   56.8420   25.7910   45.6550 C   0  0  0  0  0  0  0  0  0  0  0  0
   57.0390   27.1540   45.8910 C   0  0  0  0  0  0  0  0  0  0  0  0
   57.6030   27.9790   44.9020 C   0  0  0  0  0  0  0  0  0  0  0  0
   57.8040   29.4250   45.1710 C   0  0  0  0  0  0  0  0  0  0  0  0
   58.9240   30.0070   45.7830 C   0  0  0  0  0  0  0  0  0  0  0  0
   58.6710   31.3180   45.8160 N   0  0  0  0  0  0  0  0  0  0  0  0
   57.4880   31.5050   45.2630 C   0  0  0  0  0  0  0  0  0  0  0  0
   56.8870   30.3810   44.8390 N   0  0  0  0  0  0  0  0  0  0  0  0
   57.0130   33.1260   45.2250 S   0  0  0  0  0  0  0  0  0  0  0  0
   58.4760   33.5790   45.9900 C   0  0  0  0  0  0  0  0  0  0  0  0
   58.9060   34.8540   46.3480 C   0  0  0  0  0  0  0  0  0  0  0  0
   60.1590   34.9830   46.9730 C   0  0  0  0  0  0  0  0  0  0  0  0
   60.9550   33.8450   47.2240 C   0  0  0  0  0  0  0  0  0  0  0  0
   60.5100   32.5650   46.8560 C   0  0  0  0  0  0  0  0  0  0  0  0
   59.2640   32.4530   46.2380 C   0  0  0  0  0  0  0  0  0  0  0  0
   57.9640   27.4060   43.6680 C   0  0  0  0  0  0  0  0  0  0  0  0
   57.7670   26.0420   43.4340 C   0  0  0  0  0  0  0  0  0  0  0  0
   55.7540   22.4770   43.2988 H   0  0  0  0  0  0  0  0  0  0  0  0
   55.9569   24.0495   42.4546 H   0  0  0  0  0  0  0  0  0  0  0  0
   57.2948   22.8509   42.4546 H   0  0  0  0  0  0  0  0  0  0  0  0
   56.3998   25.1596   46.4397 H   0  0  0  0  0  0  0  0  0  0  0  0
   56.7499   27.5860   46.8604 H   0  0  0  0  0  0  0  0  0  0  0  0
   59.8214   29.4922   46.1569 H   0  0  0  0  0  0  0  0  0  0  0  0
   58.2819   35.7372   46.1472 H   0  0  0  0  0  0  0  0  0  0  0  0
   60.5215   35.9786   47.2686 H   0  0  0  0  0  0  0  0  0  0  0  0
   61.9336   33.9618   47.7127 H   0  0  0  0  0  0  0  0  0  0  0  0
   61.1268   31.6750   47.0496 H   0  0  0  0  0  0  0  0  0  0  0  0
   58.4046   28.0365   42.8817 H   0  0  0  0  0  0  0  0  0  0  0  0
   58.0551   25.6065   42.4658 H   0  0  0  0  0  0  0  0  0  0  0  0
  1  2  1  0
  2  3  1  0
  3  4  2  0
  4  5  1  0
  5  6  2  0
  6  7  1  0
  7  8  2  0
  8  9  1  0
  9 10  1  0
 10 11  2  0
 10 12  1  0
 12 13  1  0
 13 14  2  0
 14 15  1  0
 15 16  2  0
 16 17  1  0
 17 18  2  0
  6 19  1  0
 19 20  2  0
 20  3  1  0
 11  7  1  0
 18 13  1  0
 18  9  1  0
  1 21  1  0
  1 22  1  0
  1 23  1  0
  4 24  1  0
  5 25  1  0
  8 26  1  0
 14 27  1  0
 15 28  1  0
 16 29  1  0
 17 30  1  0
 19 31  1  0
 20 32  1  0
M  END
>  <UniqueID>  (79) 
72

>  <SMILES>  (79) 
COc1ccc(-c2cn3c(n2)sc2ccccc23)cc1

>  <Energy>  (79) 
121.01168151750512

>  <Genealogy>  (79) 
COc1ccc(-c2cn3c(n2)sc2ccccc23)cc1 (3D coordinates assigned)
COc1ccc(-c2cn3c(n2)sc2ccccc23)cc1 (optimized conformer: 121.01168151750512 kcal/mol)

>  <smiles>  (79) 
COc1ccc(-c2cn3c(n2)sc2ccccc23)cc1

>  <score_type>  (79) 
oracle

>  <origin>  (79) 
adg

>  <m_score__min__energy>  (79) 
-6.8499999999999996

>  <m_primary>  (79) 
energy

$$$$
79:0
     RDKit          3D

 43 44  0  0  0  0  0  0  0  0999 V2000
   56.9610   34.2170   45.2460 C   0  0  0  0  0  0  0  0  0  0  0  0
   58.2690   33.9390   45.9250 C   0  0  0  0  0  0  0  0  0  0  0  0
   59.3360   34.8300   45.7750 C   0  0  0  0  0  0  0  0  0  0  0  0
   60.5670   34.5600   46.3730 C   0  0  0  0  0  0  0  0  0  0  0  0
   60.7640   33.3870   47.1250 C   0  0  0  0  0  0  0  0  0  0  0  0
   62.1210   33.1120   47.7610 C   0  0  0  0  0  0  0  0  0  0  0  0
   62.2750   33.8660   49.0890 C   0  0  0  0  0  0  0  0  0  0  0  0
   63.2610   33.4580   46.7960 C   0  0  0  0  0  0  0  0  0  0  0  0
   59.6960   32.4690   47.2620 C   0  0  0  0  0  0  0  0  0  0  0  0
   59.9000   31.2860   48.0000 O   0  0  0  0  0  0  0  0  0  0  0  0
   59.0370   30.1480   48.0020 C   0  0  0  0  0  0  0  0  0  0  0  0
   59.6970   28.9650   47.2900 C   0  0  0  0  0  0  0  0  0  0  0  0
   60.3790   29.4400   46.0780 N   0  0  0  0  0  0  0  0  0  0  0  0
   59.7730   28.8780   44.8650 C   0  0  0  0  0  0  0  0  0  0  0  0
   58.3990   29.4490   44.6530 C   0  0  0  0  0  0  0  0  0  0  0  0
   58.1750   30.7270   44.1140 C   0  0  0  0  0  0  0  0  0  0  0  0
   56.8300   31.0350   43.9610 C   0  0  0  0  0  0  0  0  0  0  0  0
   55.9300   29.7200   44.4950 S   0  0  0  0  0  0  0  0  0  0  0  0
   57.2300   28.7480   44.9260 C   0  0  0  0  0  0  0  0  0  0  0  0
   58.4540   32.7590   46.6570 C   0  0  0  0  0  0  0  0  0  0  0  0
   56.1819   34.3826   46.0047 H   0  0  0  0  0  0  0  0  0  0  0  0
   57.0576   35.1147   44.6176 H   0  0  0  0  0  0  0  0  0  0  0  0
   56.6841   33.3576   44.6176 H   0  0  0  0  0  0  0  0  0  0  0  0
   59.2042   35.7477   45.1830 H   0  0  0  0  0  0  0  0  0  0  0  0
   61.3954   35.2741   46.2551 H   0  0  0  0  0  0  0  0  0  0  0  0
   62.1770   32.0353   47.9789 H   0  0  0  0  0  0  0  0  0  0  0  0
   62.1322   33.1670   49.9262 H   0  0  0  0  0  0  0  0  0  0  0  0
   63.2816   34.3060   49.1463 H   0  0  0  0  0  0  0  0  0  0  0  0
   61.5216   34.6654   49.1463 H   0  0  0  0  0  0  0  0  0  0  0  0
   64.1583   33.7303   47.3711 H   0  0  0  0  0  0  0  0  0  0  0  0
   63.4822   32.5865   46.1623 H   0  0  0  0  0  0  0  0  0  0  0  0
   62.9605   34.3054   46.1623 H   0  0  0  0  0  0  0  0  0  0  0  0
   58.8153   29.8652   49.0417 H   0  0  0  0  0  0  0  0  0  0  0  0
   58.1098   30.4074   47.4700 H   0  0  0  0  0  0  0  0  0  0  0  0
   60.4297   28.4950   47.9625 H   0  0  0  0  0  0  0  0  0  0  0  0
   58.9280   28.2289   47.0129 H   0  0  0  0  0  0  0  0  0  0  0  0
   60.2720   30.4820   46.0380 H   0  0  0  0  0  0  0  0  0  0  0  0
   60.4045   29.1217   43.9980 H   0  0  0  0  0  0  0  0  0  0  0  0
   59.6923   27.7869   44.9790 H   0  0  0  0  0  0  0  0  0  0  0  0
   58.9868   31.4168   43.8398 H   0  0  0  0  0  0  0  0  0  0  0  0
   56.4242   31.9756   43.5602 H   0  0  0  0  0  0  0  0  0  0  0  0
   57.1675   27.7348   45.3498 H   0  0  0  0  0  0  0  0  0  0  0  0
   57.6204   32.0490   46.7617 H   0  0  0  0  0  0  0  0  0  0  0  0
  1  2  1  0
  2  3  2  0
  3  4  1  0
  4  5  2  0
  5  6  1  0
  6  7  1  0
  6  8  1  0
  5  9  1  0
  9 10  1  0
 10 11  1  0
 11 12  1  0
 12 13  1  0
 13 14  1  0
 14 15  1  0
 15 16  1  0
 16 17  2  0
 17 18  1  0
 18 19  1  0
  9 20  2  0
 20  2  1  0
 19 15  2  0
  1 21  1  0
  1 22  1  0
  1 23  1  0
  3 24  1  0
  4 25  1  0
  6 26  1  0
  7 27  1  0
  7 28  1  0
  7 29  1  0
  8 30  1  0
  8 31  1  0
  8 32  1  0
 11 33  1  0
 11 34  1  0
 12 35  1  0
 12 36  1  0
 13 37  1  0
 14 38  1  0
 14 39  1  0
 16 40  1  0
 17 41  1  0
 19 42  1  0
 20 43  1  0
M  END
>  <UniqueID>  (80) 
73

>  <SMILES>  (80) 
Cc1ccc(C(C)C)c(OCCNCc2ccsc2)c1

>  <Energy>  (80) 
60.319430576074346

>  <Genealogy>  (80) 
Cc1ccc(C(C)C)c(OCCNCc2ccsc2)c1 (3D coordinates assigned)
Cc1ccc(C(C)C)c(OCCNCc2ccsc2)c1 (optimized conformer: 60.319430576074346 kcal/mol)

>  <smiles>  (80) 
Cc1ccc(C(C)C)c(OCCNCc2ccsc2)c1

>  <score_type>  (80) 
oracle

>  <origin>  (80) 
adg

>  <m_score__min__energy>  (80) 
-6.8600000000000003

>  <m_primary>  (80) 
energy

$$$$
80:0
     RDKit          3D

 39 41  0  0  0  0  0  0  0  0999 V2000
   58.8830   25.9030   46.5100 O   0  0  0  0  0  0  0  0  0  0  0  0
   58.2630   26.6010   45.6620 C   0  0  0  0  0  0  0  0  0  0  0  0
   57.3880   25.9640   44.7090 N   0  0  0  0  0  0  0  0  0  0  0  0
   57.0800   24.5590   44.7200 C   0  0  0  0  0  0  0  0  0  0  0  0
   56.8270   23.8720   45.9200 C   0  0  0  0  0  0  0  0  0  0  0  0
   56.5040   22.5120   45.9010 C   0  0  0  0  0  0  0  0  0  0  0  0
   56.3960   21.8210   44.6820 C   0  0  0  0  0  0  0  0  0  0  0  0
   56.0980   20.3430   44.6650 C   0  0  0  0  0  0  0  0  0  0  0  0
   57.0710   19.6400   45.3540 F   0  0  0  0  0  0  0  0  0  0  0  0
   56.0640   19.9010   43.3570 F   0  0  0  0  0  0  0  0  0  0  0  0
   54.8760   20.0840   45.2610 F   0  0  0  0  0  0  0  0  0  0  0  0
   56.6520   22.5100   43.4840 C   0  0  0  0  0  0  0  0  0  0  0  0
   56.9740   23.8700   43.5040 C   0  0  0  0  0  0  0  0  0  0  0  0
   58.4570   28.0710   45.6630 C   0  0  0  0  0  0  0  0  0  0  0  0
   57.9360   28.8820   44.6400 C   0  0  0  0  0  0  0  0  0  0  0  0
   58.1360   30.2650   44.6590 C   0  0  0  0  0  0  0  0  0  0  0  0
   58.8680   30.8690   45.6960 C   0  0  0  0  0  0  0  0  0  0  0  0
   59.0780   32.3390   45.7140 C   0  0  0  0  0  0  0  0  0  0  0  0
   58.3270   33.1800   44.8700 C   0  0  0  0  0  0  0  0  0  0  0  0
   58.5270   34.5640   44.8890 C   0  0  0  0  0  0  0  0  0  0  0  0
   59.4760   35.1240   45.7470 C   0  0  0  0  0  0  0  0  0  0  0  0
   59.6670   36.4660   45.7630 F   0  0  0  0  0  0  0  0  0  0  0  0
   60.2280   34.3000   46.5880 C   0  0  0  0  0  0  0  0  0  0  0  0
   60.0310   32.9150   46.5750 C   0  0  0  0  0  0  0  0  0  0  0  0
   59.4010   30.0570   46.7100 C   0  0  0  0  0  0  0  0  0  0  0  0
   59.2010   28.6730   46.6920 C   0  0  0  0  0  0  0  0  0  0  0  0
   56.9870   26.5280   43.9300 H   0  0  0  0  0  0  0  0  0  0  0  0
   56.8835   24.4075   46.8792 H   0  0  0  0  0  0  0  0  0  0  0  0
   56.3330   21.9785   46.8477 H   0  0  0  0  0  0  0  0  0  0  0  0
   56.5986   21.9753   42.5242 H   0  0  0  0  0  0  0  0  0  0  0  0
   57.1456   24.4039   42.5577 H   0  0  0  0  0  0  0  0  0  0  0  0
   57.3662   28.4244   43.8178 H   0  0  0  0  0  0  0  0  0  0  0  0
   57.7165   30.8870   43.8546 H   0  0  0  0  0  0  0  0  0  0  0  0
   57.5782   32.7454   44.1914 H   0  0  0  0  0  0  0  0  0  0  0  0
   57.9354   35.2130   44.2266 H   0  0  0  0  0  0  0  0  0  0  0  0
   60.9769   34.7413   47.2621 H   0  0  0  0  0  0  0  0  0  0  0  0
   60.6245   32.2722   47.2417 H   0  0  0  0  0  0  0  0  0  0  0  0
   59.9809   30.5135   47.5257 H   0  0  0  0  0  0  0  0  0  0  0  0
   59.6300   28.0499   47.4906 H   0  0  0  0  0  0  0  0  0  0  0  0
  1  2  2  0
  2  3  1  0
  3  4  1  0
  4  5  2  0
  5  6  1  0
  6  7  2  0
  7  8  1  0
  8  9  1  0
  8 10  1  0
  8 11  1  0
  7 12  1  0
 12 13  2  0
  2 14  1  0
 14 15  2  0
 15 16  1  0
 16 17  2  0
 17 18  1  0
 18 19  2  0
 19 20  1  0
 20 21  2  0
 21 22  1  0
 21 23  1  0
 23 24  2  0
 17 25  1  0
 25 26  2  0
 13  4  1  0
 26 14  1  0
 24 18  1  0
  3 27  1  0
  5 28  1  0
  6 29  1  0
 12 30  1  0
 13 31  1  0
 15 32  1  0
 16 33  1  0
 19 34  1  0
 20 35  1  0
 23 36  1  0
 24 37  1  0
 25 38  1  0
 26 39  1  0
M  END
>  <UniqueID>  (81) 
74

>  <SMILES>  (81) 
O=C(Nc1ccc(C(F)(F)F)cc1)c1ccc(-c2ccc(F)cc2)cc1

>  <Energy>  (81) 
54.828854293979035

>  <Genealogy>  (81) 
O=C(Nc1ccc(C(F)(F)F)cc1)c1ccc(-c2ccc(F)cc2)cc1 (3D coordinates assigned)
O=C(Nc1ccc(C(F)(F)F)cc1)c1ccc(-c2ccc(F)cc2)cc1 (optimized conformer: 54.828854293979035 kcal/mol)

>  <smiles>  (81) 
O=C(Nc1ccc(C(F)(F)F)cc1)c1ccc(-c2ccc(F)cc2)cc1

>  <score_type>  (81) 
oracle

>  <origin>  (81) 
adg

>  <m_score__min__energy>  (81) 
-7.2199999999999998

>  <m_primary>  (81) 
energy

$$$$
81:0
     RDKit          3D

 43 46  0  0  0  0  0  0  0  0999 V2000
   55.1740   26.6750   46.0030 N   0  0  0  0  0  0  0  0  0  0  0  0
   56.1240   25.6150   45.8210 C   0  0  0  0  0  0  0  0  0  0  0  0
   55.6520   24.3400   45.4790 C   0  0  0  0  0  0  0  0  0  0  0  0
   56.5380   23.2840   45.2630 C   0  0  0  0  0  0  0  0  0  0  0  0
   57.9220   23.4850   45.3620 C   0  0  0  0  0  0  0  0  0  0  0  0
   58.8800   22.3370   45.1650 C   0  0  0  0  0  0  0  0  0  0  0  0
   60.1780   22.7330   45.4370 F   0  0  0  0  0  0  0  0  0  0  0  0
   58.5340   21.3060   46.0190 F   0  0  0  0  0  0  0  0  0  0  0  0
   58.8330   21.8760   43.8600 F   0  0  0  0  0  0  0  0  0  0  0  0
   58.4000   24.7510   45.7370 C   0  0  0  0  0  0  0  0  0  0  0  0
   57.5180   25.8210   45.9750 C   0  0  0  0  0  0  0  0  0  0  0  0
   58.0990   27.1650   46.3510 C   0  0  0  0  0  0  0  0  0  0  0  0
   58.3450   28.0210   45.1050 C   0  0  0  0  0  0  0  0  0  0  0  0
   58.7090   29.3910   45.4930 N   0  0  0  0  0  0  0  0  0  0  0  0
   59.9680   29.6530   46.1440 C   0  0  0  0  0  0  0  0  0  0  0  0
   60.7800   28.7100   46.3550 O   0  0  0  0  0  0  0  0  0  0  0  0
   60.3090   31.0300   46.5680 C   0  0  0  0  0  0  0  0  0  0  0  0
   61.5460   31.3050   47.1760 C   0  0  0  0  0  0  0  0  0  0  0  0
   61.8670   32.6030   47.5760 C   0  0  0  0  0  0  0  0  0  0  0  0
   60.9630   33.6450   47.3770 C   0  0  0  0  0  0  0  0  0  0  0  0
   59.7210   33.3970   46.7740 C   0  0  0  0  0  0  0  0  0  0  0  0
   58.8110   34.4440   46.5770 C   0  0  0  0  0  0  0  0  0  0  0  0
   57.5760   34.1970   45.9800 C   0  0  0  0  0  0  0  0  0  0  0  0
   57.2350   32.9070   45.5730 C   0  0  0  0  0  0  0  0  0  0  0  0
   58.1320   31.8400   45.7580 C   0  0  0  0  0  0  0  0  0  0  0  0
   59.3850   32.0810   46.3630 C   0  0  0  0  0  0  0  0  0  0  0  0
   57.7700   30.4700   45.3260 C   0  0  0  0  0  0  0  0  0  0  0  0
   56.6380   30.2500   44.8120 O   0  0  0  0  0  0  0  0  0  0  0  0
   54.4420   26.6050   46.7450 H   0  0  0  0  0  0  0  0  0  0  0  0
   55.1490   27.5210   45.3960 H   0  0  0  0  0  0  0  0  0  0  0  0
   54.5698   24.1700   45.3797 H   0  0  0  0  0  0  0  0  0  0  0  0
   56.1477   22.2864   45.0132 H   0  0  0  0  0  0  0  0  0  0  0  0
   59.4831   24.9089   45.8466 H   0  0  0  0  0  0  0  0  0  0  0  0
   57.3954   27.6887   47.0148 H   0  0  0  0  0  0  0  0  0  0  0  0
   59.0597   27.0026   46.8616 H   0  0  0  0  0  0  0  0  0  0  0  0
   59.1639   27.5802   44.5175 H   0  0  0  0  0  0  0  0  0  0  0  0
   57.4246   28.0513   44.5034 H   0  0  0  0  0  0  0  0  0  0  0  0
   62.2672   30.4903   47.3379 H   0  0  0  0  0  0  0  0  0  0  0  0
   62.8385   32.8047   48.0508 H   0  0  0  0  0  0  0  0  0  0  0  0
   61.2244   34.6654   47.6939 H   0  0  0  0  0  0  0  0  0  0  0  0
   59.0721   35.4643   46.8945 H   0  0  0  0  0  0  0  0  0  0  0  0
   56.8663   35.0238   45.8289 H   0  0  0  0  0  0  0  0  0  0  0  0
   56.2572   32.7231   45.1039 H   0  0  0  0  0  0  0  0  0  0  0  0
  1  2  1  0
  2  3  2  0
  3  4  1  0
  4  5  2  0
  5  6  1  0
  6  7  1  0
  6  8  1  0
  6  9  1  0
  5 10  1  0
 10 11  2  0
 11 12  1  0
 12 13  1  0
 13 14  1  0
 14 15  1  0
 15 16  2  0
 15 17  1  0
 17 18  2  0
 18 19  1  0
 19 20  2  0
 20 21  1  0
 21 22  2  0
 22 23  1  0
 23 24  2  0
 24 25  1  0
 25 26  2  0
 25 27  1  0
 27 28  2  0
 11  2  1  0
 27 14  1  0
 26 17  1  0
 26 21  1  0
  1 29  1  0
  1 30  1  0
  3 31  1  0
  4 32  1  0
 10 33  1  0
 12 34  1  0
 12 35  1  0
 13 36  1  0
 13 37  1  0
 18 38  1  0
 19 39  1  0
 20 40  1  0
 22 41  1  0
 23 42  1  0
 24 43  1  0
M  END
>  <UniqueID>  (82) 
75

>  <SMILES>  (82) 
Nc1ccc(C(F)(F)F)cc1CCN1C(=O)c2cccc3cccc(c23)C1=O

>  <Energy>  (82) 
52.45088967318049

>  <Genealogy>  (82) 
Nc1ccc(C(F)(F)F)cc1CCN1C(=O)c2cccc3cccc(c23)C1=O (3D coordinates assigned)
Nc1ccc(C(F)(F)F)cc1CCN1C(=O)c2cccc3cccc(c23)C1=O (nonaromatic ring conformer: 52.45088967318049 kcal/mol)

>  <smiles>  (82) 
Nc1ccc(C(F)(F)F)cc1CCN1C(=O)c2cccc3cccc(c23)C1=O

>  <score_type>  (82) 
oracle

>  <origin>  (82) 
adg

>  <m_score__min__energy>  (82) 
-9.6999999999999993

>  <m_primary>  (82) 
energy

$$$$
82:0
     RDKit          3D

 44 47  0  0  0  0  0  0  0  0999 V2000
   56.3010   29.3550   42.6730 C   0  0  0  0  0  0  0  0  0  0  0  0
   56.1930   29.8200   44.0920 C   0  0  0  0  0  0  0  0  0  0  0  0
   55.2770   29.3570   44.8250 O   0  0  0  0  0  0  0  0  0  0  0  0
   57.1340   30.8100   44.6450 C   0  0  0  0  0  0  0  0  0  0  0  0
   57.0110   32.2000   44.5610 C   0  0  0  0  0  0  0  0  0  0  0  0
   58.0710   32.8670   45.1850 C   0  0  0  0  0  0  0  0  0  0  0  0
   58.2410   34.2500   45.2640 C   0  0  0  0  0  0  0  0  0  0  0  0
   59.3710   34.7570   45.9270 C   0  0  0  0  0  0  0  0  0  0  0  0
   60.3180   33.8820   46.5150 C   0  0  0  0  0  0  0  0  0  0  0  0
   61.4630   34.3620   47.1670 O   0  0  0  0  0  0  0  0  0  0  0  0
   62.2220   33.6480   48.1060 C   0  0  0  0  0  0  0  0  0  0  0  0
   63.1200   32.6370   47.7230 C   0  0  0  0  0  0  0  0  0  0  0  0
   63.8690   31.9570   48.6870 C   0  0  0  0  0  0  0  0  0  0  0  0
   63.7490   32.2900   50.0470 C   0  0  0  0  0  0  0  0  0  0  0  0
   64.4950   31.5650   51.0450 N   0  0  0  0  0  0  0  0  0  0  0  0
   65.8430   32.0690   51.1000 C   0  0  0  0  0  0  0  0  0  0  0  0
   66.1810   33.2720   50.4540 C   0  0  0  0  0  0  0  0  0  0  0  0
   67.4830   33.7770   50.5350 C   0  0  0  0  0  0  0  0  0  0  0  0
   68.4560   33.0910   51.2660 C   0  0  0  0  0  0  0  0  0  0  0  0
   68.1290   31.8990   51.9190 C   0  0  0  0  0  0  0  0  0  0  0  0
   66.8290   31.3900   51.8410 C   0  0  0  0  0  0  0  0  0  0  0  0
   62.8600   33.3110   50.4240 C   0  0  0  0  0  0  0  0  0  0  0  0
   62.1120   33.9900   49.4590 C   0  0  0  0  0  0  0  0  0  0  0  0
   60.1380   32.4930   46.4080 C   0  0  0  0  0  0  0  0  0  0  0  0
   59.0100   32.0170   45.7460 C   0  0  0  0  0  0  0  0  0  0  0  0
   58.5520   30.4230   45.4870 S   0  0  0  0  0  0  0  0  0  0  0  0
   56.5498   28.2836   42.6562 H   0  0  0  0  0  0  0  0  0  0  0  0
   55.3414   29.5167   42.1601 H   0  0  0  0  0  0  0  0  0  0  0  0
   57.0911   29.9230   42.1601 H   0  0  0  0  0  0  0  0  0  0  0  0
   56.1754   32.7115   44.0609 H   0  0  0  0  0  0  0  0  0  0  0  0
   57.5031   34.9311   44.8150 H   0  0  0  0  0  0  0  0  0  0  0  0
   59.5223   35.8447   45.9904 H   0  0  0  0  0  0  0  0  0  0  0  0
   63.2338   32.3798   46.6596 H   0  0  0  0  0  0  0  0  0  0  0  0
   64.5570   31.1558   48.3793 H   0  0  0  0  0  0  0  0  0  0  0  0
   64.5010   30.5420   50.8190 H   0  0  0  0  0  0  0  0  0  0  0  0
   64.0340   31.6640   51.9810 H   0  0  0  0  0  0  0  0  0  0  0  0
   65.4170   33.8188   49.8818 H   0  0  0  0  0  0  0  0  0  0  0  0
   67.7410   34.7155   50.0225 H   0  0  0  0  0  0  0  0  0  0  0  0
   69.4797   33.4889   51.3278 H   0  0  0  0  0  0  0  0  0  0  0  0
   68.8958   31.3605   52.4952 H   0  0  0  0  0  0  0  0  0  0  0  0
   66.5754   30.4545   52.3611 H   0  0  0  0  0  0  0  0  0  0  0  0
   62.7524   33.5773   51.4858 H   0  0  0  0  0  0  0  0  0  0  0  0
   61.4320   34.7989   49.7644 H   0  0  0  0  0  0  0  0  0  0  0  0
   60.8727   31.7965   46.8382 H   0  0  0  0  0  0  0  0  0  0  0  0
  1  2  1  0
  2  3  2  0
  2  4  1  0
  4  5  2  0
  5  6  1  0
  6  7  2  0
  7  8  1  0
  8  9  2  0
  9 10  1  0
 10 11  1  0
 11 12  2  0
 12 13  1  0
 13 14  2  0
 14 15  1  0
 15 16  1  0
 16 17  2  0
 17 18  1  0
 18 19  2  0
 19 20  1  0
 20 21  2  0
 14 22  1  0
 22 23  2  0
  9 24  1  0
 24 25  2  0
 25 26  1  0
 26  4  1  0
 25  6  1  0
 23 11  1  0
 21 16  1  0
  1 27  1  0
  1 28  1  0
  1 29  1  0
  5 30  1  0
  7 31  1  0
  8 32  1  0
 12 33  1  0
 13 34  1  0
 15 35  1  0
 15 36  1  0
 17 37  1  0
 18 38  1  0
 19 39  1  0
 20 40  1  0
 21 41  1  0
 22 42  1  0
 23 43  1  0
 24 44  1  0
M  CHG  1  15   1
M  END
>  <UniqueID>  (83) 
76

>  <SMILES>  (83) 
CC(=O)c1cc2ccc(Oc3ccc([NH2+]c4ccccc4)cc3)cc2s1

>  <Energy>  (83) 
85.67204840463337

>  <Genealogy>  (83) 
CC(=O)c1cc2ccc(Oc3ccc([NH2+]c4ccccc4)cc3)cc2s1 (protonated)
CC(=O)c1cc2ccc(Oc3ccc([NH2+]c4ccccc4)cc3)cc2s1 (3D coordinates assigned)
CC(=O)c1cc2ccc(Oc3ccc([NH2+]c4ccccc4)cc3)cc2s1 (optimized conformer: 85.67204840463337 kcal/mol)

>  <smiles>  (83) 
CC(=O)c1cc2ccc(Oc3ccc(Nc4ccccc4)cc3)cc2s1

>  <score_type>  (83) 
oracle

>  <origin>  (83) 
adg

>  <m_score__min__energy>  (83) 
-7.7599999999999998

>  <m_primary>  (83) 
energy

$$$$
83:0
     RDKit          3D

 29 31  0  0  0  0  0  0  0  0999 V2000
   60.2810   30.1310   46.2500 O   0  0  0  0  0  0  0  0  0  0  0  0
   59.2930   29.4020   45.9480 C   0  0  0  0  0  0  0  0  0  0  0  0
   59.4250   27.9990   45.9700 C   0  0  0  0  0  0  0  0  0  0  0  0
   60.6360   27.3730   46.3240 C   0  0  0  0  0  0  0  0  0  0  0  0
   60.7330   25.9790   46.3340 C   0  0  0  0  0  0  0  0  0  0  0  0
   59.6280   25.1970   45.9930 C   0  0  0  0  0  0  0  0  0  0  0  0
   58.4200   25.8020   45.6400 C   0  0  0  0  0  0  0  0  0  0  0  0
   58.3110   27.2020   45.6260 C   0  0  0  0  0  0  0  0  0  0  0  0
   57.1060   27.8150   45.2750 C   0  0  0  0  0  0  0  0  0  0  0  0
   57.0130   29.2110   45.2670 C   0  0  0  0  0  0  0  0  0  0  0  0
   55.8040   29.8200   44.9210 O   0  0  0  0  0  0  0  0  0  0  0  0
   58.0990   29.9780   45.5960 N   0  0  0  0  0  0  0  0  0  0  0  0
   57.9750   31.4110   45.5800 C   0  0  0  0  0  0  0  0  0  0  0  0
   58.1670   32.1380   46.7640 C   0  0  0  0  0  0  0  0  0  0  0  0
   58.0460   33.5310   46.7630 C   0  0  0  0  0  0  0  0  0  0  0  0
   57.7370   34.2060   45.5780 C   0  0  0  0  0  0  0  0  0  0  0  0
   57.5490   33.4890   44.3930 C   0  0  0  0  0  0  0  0  0  0  0  0
   57.6670   32.0940   44.3870 C   0  0  0  0  0  0  0  0  0  0  0  0
   57.4430   31.2220   42.8770 Cl  0  0  0  0  0  0  0  0  0  0  0  0
   61.5097   27.9844   46.5939 H   0  0  0  0  0  0  0  0  0  0  0  0
   61.6821   25.4968   46.6112 H   0  0  0  0  0  0  0  0  0  0  0  0
   59.7092   24.1000   46.0024 H   0  0  0  0  0  0  0  0  0  0  0  0
   57.5524   25.1810   45.3725 H   0  0  0  0  0  0  0  0  0  0  0  0
   56.2330   27.2022   45.0058 H   0  0  0  0  0  0  0  0  0  0  0  0
   55.1340   30.1070   45.6240 H   0  0  0  0  0  0  0  0  0  0  0  0
   58.4137   31.6102   47.6970 H   0  0  0  0  0  0  0  0  0  0  0  0
   58.1940   34.0962   47.6950 H   0  0  0  0  0  0  0  0  0  0  0  0
   57.6418   35.3019   45.5784 H   0  0  0  0  0  0  0  0  0  0  0  0
   57.3075   34.0226   43.4619 H   0  0  0  0  0  0  0  0  0  0  0  0
  1  2  2  0
  2  3  1  0
  3  4  2  0
  4  5  1  0
  5  6  2  0
  6  7  1  0
  7  8  2  0
  8  9  1  0
  9 10  2  0
 10 11  1  0
 10 12  1  0
 12 13  1  0
 13 14  2  0
 14 15  1  0
 15 16  2  0
 16 17  1  0
 17 18  2  0
 18 19  1  0
 12  2  1  0
 18 13  1  0
  8  3  1  0
  4 20  1  0
  5 21  1  0
  6 22  1  0
  7 23  1  0
  9 24  1  0
 11 25  1  0
 14 26  1  0
 15 27  1  0
 16 28  1  0
 17 29  1  0
M  END
>  <UniqueID>  (84) 
77

>  <SMILES>  (84) 
O=c1c2ccccc2cc(O)n1-c1ccccc1Cl

>  <Energy>  (84) 
46.43836911463717

>  <Genealogy>  (84) 
O=c1c2ccccc2cc(O)n1-c1ccccc1Cl (3D coordinates assigned)
O=c1c2ccccc2cc(O)n1-c1ccccc1Cl (optimized conformer: 46.43836911463717 kcal/mol)

>  <smiles>  (84) 
O=c1c2ccccc2cc(O)n1-c1ccccc1Cl

>  <score_type>  (84) 
oracle

>  <origin>  (84) 
adg

>  <m_score__min__energy>  (84) 
-7.4299999999999997

>  <m_primary>  (84) 
energy

$$$$
84:0
     RDKit          3D

 42 44  0  0  0  0  0  0  0  0999 V2000
   59.7510   34.0430   49.1100 C   0  0  0  0  0  0  0  0  0  0  0  0
   58.6200   33.4460   48.4850 O   0  0  0  0  0  0  0  0  0  0  0  0
   58.5030   33.2180   47.1040 C   0  0  0  0  0  0  0  0  0  0  0  0
   58.0720   34.2210   46.2130 C   0  0  0  0  0  0  0  0  0  0  0  0
   57.9660   33.9540   44.8460 C   0  0  0  0  0  0  0  0  0  0  0  0
   58.2980   32.6870   44.3430 C   0  0  0  0  0  0  0  0  0  0  0  0
   58.1330   32.3840   42.8770 C   0  0  0  0  0  0  0  0  0  0  0  0
   57.0210   31.3540   42.6390 C   0  0  0  0  0  0  0  0  0  0  0  0
   57.3360   30.0790   43.2820 N   0  0  0  0  0  0  0  0  0  0  0  0
   56.5870   29.5710   44.3970 C   0  0  0  0  0  0  0  0  0  0  0  0
   55.6070   30.2240   44.8460 O   0  0  0  0  0  0  0  0  0  0  0  0
   56.8970   28.2610   44.9970 C   0  0  0  0  0  0  0  0  0  0  0  0
   55.9710   27.5110   45.5660 O   0  0  0  0  0  0  0  0  0  0  0  0
   56.5460   26.4100   45.9860 C   0  0  0  0  0  0  0  0  0  0  0  0
   55.9450   25.3360   46.6370 C   0  0  0  0  0  0  0  0  0  0  0  0
   56.7600   24.2480   47.0010 C   0  0  0  0  0  0  0  0  0  0  0  0
   56.2160   23.1810   47.6350 F   0  0  0  0  0  0  0  0  0  0  0  0
   58.1420   24.2610   46.7080 C   0  0  0  0  0  0  0  0  0  0  0  0
   58.7210   25.3620   46.0490 C   0  0  0  0  0  0  0  0  0  0  0  0
   57.8860   26.4240   45.7020 C   0  0  0  0  0  0  0  0  0  0  0  0
   58.1430   27.6250   45.0720 C   0  0  0  0  0  0  0  0  0  0  0  0
   59.4790   28.1230   44.6100 C   0  0  0  0  0  0  0  0  0  0  0  0
   58.7210   31.6860   45.2300 C   0  0  0  0  0  0  0  0  0  0  0  0
   58.8240   31.9480   46.5990 C   0  0  0  0  0  0  0  0  0  0  0  0
   59.3960   30.5490   47.7740 Br  0  0  0  0  0  0  0  0  0  0  0  0
   59.6396   33.9842   50.2028 H   0  0  0  0  0  0  0  0  0  0  0  0
   60.6630   33.5088   48.8051 H   0  0  0  0  0  0  0  0  0  0  0  0
   59.8244   35.0973   48.8051 H   0  0  0  0  0  0  0  0  0  0  0  0
   57.8175   35.2202   46.5962 H   0  0  0  0  0  0  0  0  0  0  0  0
   57.6203   34.7414   44.1601 H   0  0  0  0  0  0  0  0  0  0  0  0
   57.8794   33.3133   42.3460 H   0  0  0  0  0  0  0  0  0  0  0  0
   59.0784   31.9651   42.5019 H   0  0  0  0  0  0  0  0  0  0  0  0
   56.0783   31.7414   43.0527 H   0  0  0  0  0  0  0  0  0  0  0  0
   56.9283   31.1849   41.5560 H   0  0  0  0  0  0  0  0  0  0  0  0
   58.0710   29.4860   42.8390 H   0  0  0  0  0  0  0  0  0  0  0  0
   54.8678   25.3378   46.8597 H   0  0  0  0  0  0  0  0  0  0  0  0
   58.7698   23.4051   46.9967 H   0  0  0  0  0  0  0  0  0  0  0  0
   59.7957   25.3840   45.8156 H   0  0  0  0  0  0  0  0  0  0  0  0
   60.1054   28.3565   45.4836 H   0  0  0  0  0  0  0  0  0  0  0  0
   59.9698   27.3474   44.0037 H   0  0  0  0  0  0  0  0  0  0  0  0
   59.3424   29.0306   44.0037 H   0  0  0  0  0  0  0  0  0  0  0  0
   58.9736   30.6870   44.8451 H   0  0  0  0  0  0  0  0  0  0  0  0
  1  2  1  0
  2  3  1  0
  3  4  2  0
  4  5  1  0
  5  6  2  0
  6  7  1  0
  7  8  1  0
  8  9  1  0
  9 10  1  0
 10 11  2  0
 10 12  1  0
 12 13  1  0
 13 14  1  0
 14 15  2  0
 15 16  1  0
 16 17  1  0
 16 18  2  0
 18 19  1  0
 19 20  2  0
 20 21  1  0
 21 22  1  0
  6 23  1  0
 23 24  2  0
 24 25  1  0
 24  3  1  0
 21 12  2  0
 20 14  1  0
  1 26  1  0
  1 27  1  0
  1 28  1  0
  4 29  1  0
  5 30  1  0
  7 31  1  0
  7 32  1  0
  8 33  1  0
  8 34  1  0
  9 35  1  0
 15 36  1  0
 18 37  1  0
 19 38  1  0
 22 39  1  0
 22 40  1  0
 22 41  1  0
 23 42  1  0
M  END
>  <UniqueID>  (85) 
78

>  <SMILES>  (85) 
COc1ccc(CCNC(=O)c2oc3cc(F)ccc3c2C)cc1Br

>  <Energy>  (85) 
74.50986747757553

>  <Genealogy>  (85) 
COc1ccc(CCNC(=O)c2oc3cc(F)ccc3c2C)cc1Br (3D coordinates assigned)
COc1ccc(CCNC(=O)c2oc3cc(F)ccc3c2C)cc1Br (optimized conformer: 74.50986747757553 kcal/mol)

>  <smiles>  (85) 
COc1ccc(CCNC(=O)c2oc3cc(F)ccc3c2C)cc1Br

>  <score_type>  (85) 
oracle

>  <origin>  (85) 
adg

>  <m_score__min__energy>  (85) 
-8.4299999999999997

>  <m_primary>  (85) 
energy

$$$$
85:0
     RDKit          3D

 45 47  0  0  0  0  0  0  0  0999 V2000
   59.8681   35.8301   47.5121 H   0  0  0  0  0  0  0  0  0  0  0  0
   59.4320   34.9650   46.9910 C   0  0  0  0  0  0  0  0  0  0  0  0
   59.0030   33.8530   47.7210 C   0  0  0  0  0  0  0  0  0  0  0  0
   59.1050   33.8419   48.8162 H   0  0  0  0  0  0  0  0  0  0  0  0
   58.4440   32.7540   47.0600 C   0  0  0  0  0  0  0  0  0  0  0  0
   58.1169   31.8760   47.6363 H   0  0  0  0  0  0  0  0  0  0  0  0
   58.2990   32.7680   45.6620 C   0  0  0  0  0  0  0  0  0  0  0  0
   57.7390   31.5710   44.9480 C   0  0  0  0  0  0  0  0  0  0  0  0
   57.4869   31.8422   43.9122 H   0  0  0  0  0  0  0  0  0  0  0  0
   56.8286   31.2223   45.4576 H   0  0  0  0  0  0  0  0  0  0  0  0
   58.7440   30.5150   44.9480 N   0  0  0  0  0  0  0  0  0  0  0  0
   59.0460   29.5850   45.8190 C   0  0  0  0  0  0  0  0  0  0  0  0
   60.2360   29.5450   46.6290 C   0  0  0  0  0  0  0  0  0  0  0  0
   61.4850   30.3810   46.4000 C   0  0  0  0  0  0  0  0  0  0  0  0
   61.4059   30.8708   45.4182 H   0  0  0  0  0  0  0  0  0  0  0  0
   62.3515   29.7051   46.4478 H   0  0  0  0  0  0  0  0  0  0  0  0
   61.6800   31.4710   47.4840 C   0  0  0  0  0  0  0  0  0  0  0  0
   61.6759   30.9721   48.4644 H   0  0  0  0  0  0  0  0  0  0  0  0
   60.8567   32.1844   47.3316 H   0  0  0  0  0  0  0  0  0  0  0  0
   62.9750   32.3130   47.3900 C   0  0  0  0  0  0  0  0  0  0  0  0
   63.6321   31.7538   46.7077 H   0  0  0  0  0  0  0  0  0  0  0  0
   63.7160   32.4280   48.7270 C   0  0  0  0  0  0  0  0  0  0  0  0
   62.9994   32.3168   49.5541 H   0  0  0  0  0  0  0  0  0  0  0  0
   64.4779   31.6373   48.7931 H   0  0  0  0  0  0  0  0  0  0  0  0
   64.2024   33.4124   48.7931 H   0  0  0  0  0  0  0  0  0  0  0  0
   62.7390   33.6960   46.7660 C   0  0  0  0  0  0  0  0  0  0  0  0
   62.6117   34.4417   47.5646 H   0  0  0  0  0  0  0  0  0  0  0  0
   63.6034   33.9696   46.1432 H   0  0  0  0  0  0  0  0  0  0  0  0
   61.8327   33.6674   46.1432 H   0  0  0  0  0  0  0  0  0  0  0  0
   60.3080   28.5700   47.6590 C   0  0  0  0  0  0  0  0  0  0  0  0
   61.1750   28.5693   48.3360 H   0  0  0  0  0  0  0  0  0  0  0  0
   59.3070   27.6120   47.8350 C   0  0  0  0  0  0  0  0  0  0  0  0
   59.3742   26.8576   48.6327 H   0  0  0  0  0  0  0  0  0  0  0  0
   58.2280   27.6460   46.9700 C   0  0  0  0  0  0  0  0  0  0  0  0
   57.1740   26.8080   46.9860 N   0  0  0  0  0  0  0  0  0  0  0  0
   57.0020   25.9990   47.6240 H   0  0  0  0  0  0  0  0  0  0  0  0
   56.3800   27.2640   45.9960 C   0  0  0  0  0  0  0  0  0  0  0  0
   55.1610   26.6970   45.6520 O   0  0  0  0  0  0  0  0  0  0  0  0
   56.9540   28.3670   45.3940 C   0  0  0  0  0  0  0  0  0  0  0  0
   56.5330   28.9510   44.5623 H   0  0  0  0  0  0  0  0  0  0  0  0
   58.1290   28.5930   46.0190 N   0  0  0  0  0  0  0  0  0  0  0  0
   58.7490   33.8820   44.9340 C   0  0  0  0  0  0  0  0  0  0  0  0
   58.6621   33.8920   43.8375 H   0  0  0  0  0  0  0  0  0  0  0  0
   59.3070   34.9780   45.5990 C   0  0  0  0  0  0  0  0  0  0  0  0
   59.6484   35.8524   45.0254 H   0  0  0  0  0  0  0  0  0  0  0  0
  1  2  1  0
  2  3  2  0
  3  4  1  0
  3  5  1  0
  5  6  1  0
  5  7  2  0
  7  8  1  0
  8  9  1  0
  8 10  1  0
  8 11  1  0
 11 12  2  0
 12 13  1  0
 13 14  1  0
 14 15  1  0
 14 16  1  0
 14 17  1  0
 17 18  1  0
 17 19  1  0
 17 20  1  0
 20 21  1  0
 20 22  1  0
 22 23  1  0
 22 24  1  0
 22 25  1  0
 20 26  1  0
 26 27  1  0
 26 28  1  0
 26 29  1  0
 13 30  2  0
 30 31  1  0
 30 32  1  0
 32 33  1  0
 32 34  2  0
 34 35  1  0
 35 36  1  0
 35 37  1  0
 37 38  1  0
 37 39  2  0
 39 40  1  0
 39 41  1  0
  7 42  1  0
 42 43  1  0
 42 44  2  0
 44 45  1  0
 44  2  1  0
 41 12  1  0
 41 34  1  0
M  CHG  1  38  -1
M  END
>  <UniqueID>  (86) 
79

>  <SMILES>  (86) 
CC(C)CCc1ccc2[nH]c([O-])cn2/c1=N/Cc1ccccc1

>  <Energy>  (86) 
93.04918930338532

>  <Genealogy>  (86) 
CC(C)CCc1ccc2[nH]c([O-])cn2c1=NCc1ccccc1 (protonated)
CC(C)CCc1ccc2[nH]c([O-])cn2/c1=N/Cc1ccccc1 (cis-trans isomerization)
CC(C)CCc1ccc2[nH]c([O-])cn2/c1=N/Cc1ccccc1 (3D coordinates assigned)
CC(C)CCc1ccc2[nH]c([O-])cn2/c1=N/Cc1ccccc1 (optimized conformer: 93.04918930338532 kcal/mol)

>  <smiles>  (86) 
CC(C)CCc1ccc2[nH]c(O)cn2c1=NCc1ccccc1

>  <score_type>  (86) 
oracle

>  <origin>  (86) 
adg

>  <m_score__min__energy>  (86) 
-10.48

>  <m_primary>  (86) 
energy

$$$$
86:0
     RDKit          3D

 33 35  0  0  0  0  0  0  0  0999 V2000
   60.1360   34.1990   48.8440 O   0  0  0  0  0  0  0  0  0  0  0  0
   60.6220   33.9990   47.6990 C   0  0  0  0  0  0  0  0  0  0  0  0
   62.0430   33.8700   47.5280 N   0  0  0  0  0  0  0  0  0  0  0  0
   62.9560   33.5920   48.6040 C   0  0  0  0  0  0  0  0  0  0  0  0
   62.8410   34.2360   49.8500 C   0  0  0  0  0  0  0  0  0  0  0  0
   63.7290   33.9290   50.8870 C   0  0  0  0  0  0  0  0  0  0  0  0
   64.7270   32.9720   50.6950 C   0  0  0  0  0  0  0  0  0  0  0  0
   64.8360   32.3120   49.4680 C   0  0  0  0  0  0  0  0  0  0  0  0
   63.9510   32.6150   48.4290 C   0  0  0  0  0  0  0  0  0  0  0  0
   59.7130   33.9470   46.5420 C   0  0  0  0  0  0  0  0  0  0  0  0
   59.2650   35.0200   45.7930 C   0  0  0  0  0  0  0  0  0  0  0  0
   58.4480   34.4840   44.8210 C   0  0  0  0  0  0  0  0  0  0  0  0
   58.4470   33.1150   45.0340 C   0  0  0  0  0  0  0  0  0  0  0  0
   57.7180   32.0890   44.2510 C   0  0  0  0  0  0  0  0  0  0  0  0
   57.7120   32.1630   42.8470 C   0  0  0  0  0  0  0  0  0  0  0  0
   57.0320   31.2050   42.0890 C   0  0  0  0  0  0  0  0  0  0  0  0
   56.3510   30.1640   42.7230 C   0  0  0  0  0  0  0  0  0  0  0  0
   56.3480   30.0800   44.1170 C   0  0  0  0  0  0  0  0  0  0  0  0
   55.6860   29.0680   44.7310 F   0  0  0  0  0  0  0  0  0  0  0  0
   57.0280   31.0350   44.8800 C   0  0  0  0  0  0  0  0  0  0  0  0
   59.2100   32.8310   46.0660 O   0  0  0  0  0  0  0  0  0  0  0  0
   62.4490   34.0870   46.5910 H   0  0  0  0  0  0  0  0  0  0  0  0
   62.0500   34.9836   50.0094 H   0  0  0  0  0  0  0  0  0  0  0  0
   63.6404   34.4429   51.8555 H   0  0  0  0  0  0  0  0  0  0  0  0
   65.4278   32.7373   51.5097 H   0  0  0  0  0  0  0  0  0  0  0  0
   65.6187   31.5535   49.3196 H   0  0  0  0  0  0  0  0  0  0  0  0
   64.0340   32.0854   47.4685 H   0  0  0  0  0  0  0  0  0  0  0  0
   59.5101   36.0819   45.9423 H   0  0  0  0  0  0  0  0  0  0  0  0
   57.9067   35.0319   44.0356 H   0  0  0  0  0  0  0  0  0  0  0  0
   58.2463   32.9807   42.3411 H   0  0  0  0  0  0  0  0  0  0  0  0
   57.0335   31.2716   40.9910 H   0  0  0  0  0  0  0  0  0  0  0  0
   55.8173   29.4106   42.1250 H   0  0  0  0  0  0  0  0  0  0  0  0
   57.0237   30.9622   45.9776 H   0  0  0  0  0  0  0  0  0  0  0  0
  1  2  2  0
  2  3  1  0
  3  4  1  0
  4  5  2  0
  5  6  1  0
  6  7  2  0
  7  8  1  0
  8  9  2  0
  2 10  1  0
 10 11  2  0
 11 12  1  0
 12 13  2  0
 13 14  1  0
 14 15  2  0
 15 16  1  0
 16 17  2  0
 17 18  1  0
 18 19  1  0
 18 20  2  0
 13 21  1  0
  9  4  1  0
 21 10  1  0
 20 14  1  0
  3 22  1  0
  5 23  1  0
  6 24  1  0
  7 25  1  0
  8 26  1  0
  9 27  1  0
 11 28  1  0
 12 29  1  0
 15 30  1  0
 16 31  1  0
 17 32  1  0
 20 33  1  0
M  END
>  <UniqueID>  (87) 
80

>  <SMILES>  (87) 
O=C(Nc1ccccc1)c1ccc(-c2cccc(F)c2)o1

>  <Energy>  (87) 
65.99301618261192

>  <Genealogy>  (87) 
O=C(Nc1ccccc1)c1ccc(-c2cccc(F)c2)o1 (3D coordinates assigned)
O=C(Nc1ccccc1)c1ccc(-c2cccc(F)c2)o1 (optimized conformer: 65.99301618261192 kcal/mol)

>  <smiles>  (87) 
O=C(Nc1ccccc1)c1ccc(-c2cccc(F)c2)o1

>  <score_type>  (87) 
oracle

>  <origin>  (87) 
adg

>  <m_score__min__energy>  (87) 
-7.1100000000000003

>  <m_primary>  (87) 
energy

$$$$
87:0
     RDKit          3D

 32 32  0  0  0  0  0  0  0  0999 V2000
   56.6020   22.4960   42.3510 N   0  0  0  0  0  0  0  0  0  0  0  0
   56.7080   21.8800   43.6380 C   0  0  0  0  0  0  0  0  0  0  0  0
   57.3680   20.7660   43.7630 N   0  0  0  0  0  0  0  0  0  0  0  0
   56.0760   22.5090   44.7680 N   0  0  0  0  0  0  0  0  0  0  0  0
   56.1540   21.9830   46.1320 C   0  0  0  0  0  0  0  0  0  0  0  0
   57.0100   22.8810   47.0360 C   0  0  0  0  0  0  0  0  0  0  0  0
   57.8720   23.7830   46.2660 N   0  0  0  0  0  0  0  0  0  0  0  0
   56.9690   25.0310   45.4510 S   0  0  0  0  0  0  0  0  0  0  0  0
   55.5720   25.0540   46.0020 O   0  0  0  0  0  0  0  0  0  0  0  0
   56.8880   24.7140   43.9850 O   0  0  0  0  0  0  0  0  0  0  0  0
   57.6890   26.6240   45.6890 C   0  0  0  0  0  0  0  0  0  0  0  0
   58.9330   26.7570   46.3190 C   0  0  0  0  0  0  0  0  0  0  0  0
   59.4860   28.0220   46.5200 C   0  0  0  0  0  0  0  0  0  0  0  0
   58.8000   29.1630   46.0960 C   0  0  0  0  0  0  0  0  0  0  0  0
   57.5470   29.0490   45.4650 C   0  0  0  0  0  0  0  0  0  0  0  0
   56.8340   30.2210   45.0300 N   0  0  0  0  0  0  0  0  0  0  0  0
   57.3490   31.3550   45.1310 O   0  0  0  0  0  0  0  0  0  0  0  0
   55.5710   30.1140   44.4940 O   0  0  0  0  0  0  0  0  0  0  0  0
   56.9990   27.7690   45.2670 C   0  0  0  0  0  0  0  0  0  0  0  0
   57.0460   22.0660   41.5100 H   0  0  0  0  0  0  0  0  0  0  0  0
   56.0760   23.3900   42.2340 H   0  0  0  0  0  0  0  0  0  0  0  0
   58.2800   20.7110   44.2660 H   0  0  0  0  0  0  0  0  0  0  0  0
   56.9930   19.8790   43.3580 H   0  0  0  0  0  0  0  0  0  0  0  0
   55.5390   23.3890   44.5910 H   0  0  0  0  0  0  0  0  0  0  0  0
   55.1381   21.9211   46.5493 H   0  0  0  0  0  0  0  0  0  0  0  0
   56.6232   20.9889   46.0910 H   0  0  0  0  0  0  0  0  0  0  0  0
   56.3431   23.4839   47.6698 H   0  0  0  0  0  0  0  0  0  0  0  0
   57.6581   22.2302   47.6413 H   0  0  0  0  0  0  0  0  0  0  0  0
   59.4755   25.8615   46.6562 H   0  0  0  0  0  0  0  0  0  0  0  0
   60.4641   28.1213   47.0133 H   0  0  0  0  0  0  0  0  0  0  0  0
   59.2422   30.1573   46.2565 H   0  0  0  0  0  0  0  0  0  0  0  0
   56.0199   27.6653   44.7765 H   0  0  0  0  0  0  0  0  0  0  0  0
  1  2  1  0
  2  3  2  0
  2  4  1  0
  4  5  1  0
  5  6  1  0
  6  7  1  0
  7  8  1  0
  8  9  2  0
  8 10  2  0
  8 11  1  0
 11 12  2  0
 12 13  1  0
 13 14  2  0
 14 15  1  0
 15 16  1  0
 16 17  2  0
 16 18  1  0
 15 19  2  0
 19 11  1  0
  1 20  1  0
  1 21  1  0
  3 22  1  0
  3 23  1  0
  4 24  1  0
  5 25  1  0
  5 26  1  0
  6 27  1  0
  6 28  1  0
 12 29  1  0
 13 30  1  0
 14 31  1  0
 19 32  1  0
M  CHG  4   3   1   7  -1  16   1  18  -1
M  END
>  <UniqueID>  (88) 
81

>  <SMILES>  (88) 
NC(=[NH2+])NCC[N-]S(=O)(=O)c1cccc([N+](=O)[O-])c1

>  <Energy>  (88) 
26.41796449485187

>  <Genealogy>  (88) 
NC(=[NH2+])NCC[N-]S(=O)(=O)c1cccc([N+](=O)[O-])c1 (protonated)
NC(=[NH2+])NCC[N-]S(=O)(=O)c1cccc([N+](=O)[O-])c1 (3D coordinates assigned)
NC(=[NH2+])NCC[N-]S(=O)(=O)c1cccc([N+](=O)[O-])c1 (optimized conformer: 26.41796449485187 kcal/mol)

>  <smiles>  (88) 
N=C(N)NCCNS(=O)(=O)c1cccc([N+](=O)[O-])c1

>  <score_type>  (88) 
oracle

>  <origin>  (88) 
adg

>  <m_score__min__energy>  (88) 
-7.46

>  <m_primary>  (88) 
energy

$$$$
88:0
     RDKit          3D

 25 26  0  0  0  0  0  0  0  0999 V2000
   57.0621   27.7269   42.9085 H   0  0  0  0  0  0  0  0  0  0  0  0
   57.4190   28.2600   43.8020 C   0  0  0  0  0  0  0  0  0  0  0  0
   56.6350   29.4070   44.3030 C   0  0  0  0  0  0  0  0  0  0  0  0
   55.5210   29.1770   44.8440 O   0  0  0  0  0  0  0  0  0  0  0  0
   57.1060   30.8040   44.2270 C   0  0  0  0  0  0  0  0  0  0  0  0
   57.0440   31.6390   45.2400 O   0  0  0  0  0  0  0  0  0  0  0  0
   57.5600   32.7860   44.8640 C   0  0  0  0  0  0  0  0  0  0  0  0
   57.6830   33.9800   45.7490 C   0  0  0  0  0  0  0  0  0  0  0  0
   57.6502   33.6614   46.8013 H   0  0  0  0  0  0  0  0  0  0  0  0
   58.6382   34.4876   45.5492 H   0  0  0  0  0  0  0  0  0  0  0  0
   56.8514   34.6717   45.5492 H   0  0  0  0  0  0  0  0  0  0  0  0
   57.9940   32.7070   43.5560 C   0  0  0  0  0  0  0  0  0  0  0  0
   58.4728   33.5023   42.9659 H   0  0  0  0  0  0  0  0  0  0  0  0
   57.7030   31.4250   43.1430 C   0  0  0  0  0  0  0  0  0  0  0  0
   57.9038   30.9852   42.1549 H   0  0  0  0  0  0  0  0  0  0  0  0
   58.5460   27.8430   44.3910 C   0  0  0  0  0  0  0  0  0  0  0  0
   58.9937   26.8966   44.0535 H   0  0  0  0  0  0  0  0  0  0  0  0
   59.2170   28.5910   45.4710 C   0  0  0  0  0  0  0  0  0  0  0  0
   58.6560   28.6520   47.0540 S   0  0  0  0  0  0  0  0  0  0  0  0
   59.8850   29.6270   47.6580 C   0  0  0  0  0  0  0  0  0  0  0  0
   59.9801   29.9762   48.6967 H   0  0  0  0  0  0  0  0  0  0  0  0
   60.7590   29.9150   46.6190 C   0  0  0  0  0  0  0  0  0  0  0  0
   61.6572   30.5376   46.7441 H   0  0  0  0  0  0  0  0  0  0  0  0
   60.3910   29.3390   45.3960 C   0  0  0  0  0  0  0  0  0  0  0  0
   60.9704   29.4644   44.4694 H   0  0  0  0  0  0  0  0  0  0  0  0
  1  2  1  0
  2  3  1  0
  3  4  2  0
  3  5  1  0
  5  6  1  0
  6  7  1  0
  7  8  1  0
  8  9  1  0
  8 10  1  0
  8 11  1  0
  7 12  2  0
 12 13  1  0
 12 14  1  0
 14 15  1  0
  2 16  2  0
 16 17  1  0
 16 18  1  0
 18 19  1  0
 19 20  1  0
 20 21  1  0
 20 22  2  0
 22 23  1  0
 22 24  1  0
 24 25  1  0
 14  5  2  0
 24 18  2  0
M  END
>  <UniqueID>  (89) 
82

>  <SMILES>  (89) 
Cc1ccc(C(=O)/C=C/c2cccs2)o1

>  <Energy>  (89) 
78.1451430364

>  <Genealogy>  (89) 
Cc1ccc(C(=O)/C=C/c2cccs2)o1 (cis-trans isomerization)
Cc1ccc(C(=O)/C=C/c2cccs2)o1 (3D coordinates assigned)
Cc1ccc(C(=O)/C=C/c2cccs2)o1 (optimized conformer: 78.1451430364 kcal/mol)

>  <smiles>  (89) 
Cc1ccc(C(=O)C=Cc2cccs2)o1

>  <score_type>  (89) 
oracle

>  <origin>  (89) 
adg

>  <m_score__min__energy>  (89) 
-6.6100000000000003

>  <m_primary>  (89) 
energy

$$$$
89:0
     RDKit          3D

 50 53  0  0  1  0  0  0  0  0999 V2000
   61.0120   30.3910   46.4820 C   0  0  0  0  0  0  0  0  0  0  0  0
   61.3110   30.8650   47.8900 C   0  0  2  0  0  0  0  0  0  0  0  0
   60.2030   31.6850   48.4700 C   0  0  0  0  0  0  0  0  0  0  0  0
   60.2960   33.0920   48.2390 N   0  0  0  0  0  0  0  0  0  0  0  0
   59.0150   33.6260   47.8210 C   0  0  0  0  0  0  0  0  0  0  0  0
   58.5650   33.0890   46.5070 C   0  0  0  0  0  0  0  0  0  0  0  0
   57.9300   31.8930   46.3730 C   0  0  0  0  0  0  0  0  0  0  0  0
   57.5400   31.4700   45.0780 C   0  0  0  0  0  0  0  0  0  0  0  0
   57.0030   30.2390   44.8850 N   0  0  0  0  0  0  0  0  0  0  0  0
   57.4930   29.1380   44.6550 C   0  0  0  0  0  0  0  0  0  0  0  0
   57.4030   28.6530   43.3800 N   0  0  0  0  0  0  0  0  0  0  0  0
   57.8940   27.4730   43.0000 C   0  0  0  0  0  0  0  0  0  0  0  0
   58.5100   26.7210   43.9210 N   0  0  0  0  0  0  0  0  0  0  0  0
   58.6190   27.1670   45.1910 C   0  0  0  0  0  0  0  0  0  0  0  0
   59.2550   26.3660   46.0830 C   0  0  0  0  0  0  0  0  0  0  0  0
   59.3750   26.8010   47.3760 C   0  0  0  0  0  0  0  0  0  0  0  0
   58.8980   27.9900   47.8320 C   0  0  0  0  0  0  0  0  0  0  0  0
   58.2440   28.8060   46.8900 C   0  0  0  0  0  0  0  0  0  0  0  0
   58.1120   28.3940   45.5970 C   0  0  0  0  0  0  0  0  0  0  0  0
   57.8160   32.2920   43.9720 C   0  0  0  0  0  0  0  0  0  0  0  0
   58.4590   33.5020   44.1200 C   0  0  0  0  0  0  0  0  0  0  0  0
   58.8270   33.8850   45.4010 C   0  0  0  0  0  0  0  0  0  0  0  0
   59.6440   35.4280   45.5770 Cl  0  0  0  0  0  0  0  0  0  0  0  0
   61.3480   33.4110   47.3030 C   0  0  0  0  0  0  0  0  0  0  0  0
   62.6180   32.7880   47.8020 C   0  0  2  0  0  0  0  0  0  0  0  0
   63.7810   33.0900   46.8640 C   0  0  0  0  0  0  0  0  0  0  0  0
   62.5580   31.4300   47.9910 O   0  0  0  0  0  0  0  0  0  0  0  0
   60.4256   29.4613   46.5249 H   0  0  0  0  0  0  0  0  0  0  0  0
   60.4371   31.1630   45.9496 H   0  0  0  0  0  0  0  0  0  0  0  0
   61.9563   30.2046   45.9496 H   0  0  0  0  0  0  0  0  0  0  0  0
   61.3520   29.9741   48.5339 H   0  0  0  0  0  0  0  0  0  0  0  0
   59.2561   31.3317   48.0357 H   0  0  0  0  0  0  0  0  0  0  0  0
   60.2662   31.5521   49.5601 H   0  0  0  0  0  0  0  0  0  0  0  0
   58.2627   33.3695   48.5814 H   0  0  0  0  0  0  0  0  0  0  0  0
   59.1307   34.7143   47.7110 H   0  0  0  0  0  0  0  0  0  0  0  0
   57.7233   31.2664   47.2532 H   0  0  0  0  0  0  0  0  0  0  0  0
   56.9240   29.2180   42.6320 H   0  0  0  0  0  0  0  0  0  0  0  0
   57.7959   27.1274   41.9603 H   0  0  0  0  0  0  0  0  0  0  0  0
   59.6637   25.3922   45.7753 H   0  0  0  0  0  0  0  0  0  0  0  0
   59.8912   26.1455   48.0928 H   0  0  0  0  0  0  0  0  0  0  0  0
   59.0170   28.2977   48.8814 H   0  0  0  0  0  0  0  0  0  0  0  0
   57.8375   29.7805   47.1983 H   0  0  0  0  0  0  0  0  0  0  0  0
   57.5125   31.9628   42.9673 H   0  0  0  0  0  0  0  0  0  0  0  0
   58.6730   34.1422   43.2515 H   0  0  0  0  0  0  0  0  0  0  0  0
   61.0993   33.0075   46.3104 H   0  0  0  0  0  0  0  0  0  0  0  0
   61.4654   34.5014   47.2176 H   0  0  0  0  0  0  0  0  0  0  0  0
   62.7733   33.2464   48.7898 H   0  0  0  0  0  0  0  0  0  0  0  0
   64.6784   33.3230   47.4559 H   0  0  0  0  0  0  0  0  0  0  0  0
   63.9776   32.2131   46.2296 H   0  0  0  0  0  0  0  0  0  0  0  0
   63.5262   33.9518   46.2296 H   0  0  0  0  0  0  0  0  0  0  0  0
  1  2  1  0
  2  3  1  0
  3  4  1  0
  4  5  1  0
  5  6  1  0
  6  7  2  0
  7  8  1  0
  8  9  1  0
  9 10  2  0
 10 11  1  0
 11 12  1  0
 12 13  2  0
 13 14  1  0
 14 15  2  0
 15 16  1  0
 16 17  2  0
 17 18  1  0
 18 19  2  0
  8 20  2  0
 20 21  1  0
 21 22  2  0
 22 23  1  0
  4 24  1  0
 24 25  1  0
 25 26  1  0
 25 27  1  0
 27  2  1  0
 22  6  1  0
 19 10  1  0
 19 14  1  0
  1 28  1  0
  1 29  1  0
  1 30  1  0
  2 31  1  1
  3 32  1  0
  3 33  1  0
  5 34  1  0
  5 35  1  0
  7 36  1  0
 11 37  1  0
 12 38  1  0
 15 39  1  0
 16 40  1  0
 17 41  1  0
 18 42  1  0
 20 43  1  0
 21 44  1  0
 24 45  1  0
 24 46  1  0
 25 47  1  1
 26 48  1  0
 26 49  1  0
 26 50  1  0
M  END
>  <smiles>  (90) 
CC1CN(Cc2cc(N=c3[nH]cnc4ccccc34)ccc2Cl)CC(C)O1

>  <score_type>  (90) 
oracle

>  <origin>  (90) 
adg

>  <m_score__min__energy>  (90) 
-9.1099999999999994

>  <m_primary>  (90) 
energy

$$$$
90:0
     RDKit          3D

 38 41  0  0  0  0  0  0  0  0999 V2000
   57.4430   31.8340   42.9160 O   0  0  0  0  0  0  0  0  0  0  0  0
   57.3100   31.6640   44.1590 C   0  0  0  0  0  0  0  0  0  0  0  0
   56.0960   31.1070   44.6760 N   0  0  0  0  0  0  0  0  0  0  0  0
   55.5950   29.7860   44.3110 C   0  0  0  0  0  0  0  0  0  0  0  0
   56.4320   28.7240   44.9470 C   0  0  0  0  0  0  0  0  0  0  0  0
   55.8960   27.6710   45.6200 N   0  0  0  0  0  0  0  0  0  0  0  0
   56.9830   26.9700   45.9720 C   0  0  0  0  0  0  0  0  0  0  0  0
   57.0330   25.7770   46.6890 C   0  0  0  0  0  0  0  0  0  0  0  0
   58.3010   25.2170   46.9370 C   0  0  0  0  0  0  0  0  0  0  0  0
   59.4700   25.8580   46.4670 C   0  0  0  0  0  0  0  0  0  0  0  0
   59.3790   27.0630   45.7440 C   0  0  0  0  0  0  0  0  0  0  0  0
   58.1090   27.5870   45.5190 C   0  0  0  0  0  0  0  0  0  0  0  0
   57.7880   28.7070   44.8570 N   0  0  0  0  0  0  0  0  0  0  0  0
   58.4070   32.0410   45.0790 C   0  0  0  0  0  0  0  0  0  0  0  0
   59.0710   31.0780   45.8510 C   0  0  0  0  0  0  0  0  0  0  0  0
   60.0730   31.4460   46.6890 N   0  0  0  0  0  0  0  0  0  0  0  0
   60.4590   32.7460   46.8040 C   0  0  0  0  0  0  0  0  0  0  0  0
   61.5580   33.1230   47.7270 C   0  0  0  0  0  0  0  0  0  0  0  0
   61.2910   33.8630   48.8960 C   0  0  0  0  0  0  0  0  0  0  0  0
   62.3280   34.2170   49.7660 C   0  0  0  0  0  0  0  0  0  0  0  0
   63.6410   33.8390   49.4790 C   0  0  0  0  0  0  0  0  0  0  0  0
   63.9200   33.1050   48.3250 C   0  0  0  0  0  0  0  0  0  0  0  0
   62.8880   32.7490   47.4520 C   0  0  0  0  0  0  0  0  0  0  0  0
   59.8260   33.6960   46.0630 N   0  0  0  0  0  0  0  0  0  0  0  0
   58.8180   33.3750   45.2110 C   0  0  0  0  0  0  0  0  0  0  0  0
   54.5551   29.6838   44.6548 H   0  0  0  0  0  0  0  0  0  0  0  0
   55.6413   29.6735   43.2178 H   0  0  0  0  0  0  0  0  0  0  0  0
   56.1148   25.2896   47.0487 H   0  0  0  0  0  0  0  0  0  0  0  0
   58.3823   24.2753   47.4997 H   0  0  0  0  0  0  0  0  0  0  0  0
   60.4559   25.4132   46.6671 H   0  0  0  0  0  0  0  0  0  0  0  0
   60.2795   27.5722   45.3702 H   0  0  0  0  0  0  0  0  0  0  0  0
   58.7789   30.0200   45.7774 H   0  0  0  0  0  0  0  0  0  0  0  0
   60.2587   34.1649   49.1265 H   0  0  0  0  0  0  0  0  0  0  0  0
   62.1086   34.7935   50.6768 H   0  0  0  0  0  0  0  0  0  0  0  0
   64.4559   34.1197   50.1625 H   0  0  0  0  0  0  0  0  0  0  0  0
   64.9548   32.8059   48.1020 H   0  0  0  0  0  0  0  0  0  0  0  0
   63.1162   32.1725   46.5434 H   0  0  0  0  0  0  0  0  0  0  0  0
   58.3234   34.1627   44.6237 H   0  0  0  0  0  0  0  0  0  0  0  0
  1  2  2  0
  2  3  1  0
  3  4  1  0
  4  5  1  0
  5  6  2  0
  6  7  1  0
  7  8  2  0
  8  9  1  0
  9 10  2  0
 10 11  1  0
 11 12  2  0
 12 13  1  0
  2 14  1  0
 14 15  2  0
 15 16  1  0
 16 17  2  0
 17 18  1  0
 18 19  2  0
 19 20  1  0
 20 21  2  0
 21 22  1  0
 22 23  2  0
 17 24  1  0
 24 25  2  0
 13  5  1  0
 25 14  1  0
 12  7  1  0
 23 18  1  0
  4 26  1  0
  4 27  1  0
  8 28  1  0
  9 29  1  0
 10 30  1  0
 11 31  1  0
 15 32  1  0
 19 33  1  0
 20 34  1  0
 21 35  1  0
 22 36  1  0
 23 37  1  0
 25 38  1  0
M  CHG  2   3  -1  13  -1
M  END
>  <UniqueID>  (91) 
83

>  <SMILES>  (91) 
O=C([N-]Cc1nc2ccccc2[n-]1)c1cnc(-c2ccccc2)nc1

>  <Energy>  (91) 
77.83103329706135

>  <Genealogy>  (91) 
O=C([N-]Cc1nc2ccccc2[n-]1)c1cnc(-c2ccccc2)nc1 (protonated)
O=C([N-]Cc1nc2ccccc2[n-]1)c1cnc(-c2ccccc2)nc1 (3D coordinates assigned)
O=C([N-]Cc1nc2ccccc2[n-]1)c1cnc(-c2ccccc2)nc1 (optimized conformer: 77.83103329706135 kcal/mol)

>  <smiles>  (91) 
O=C(NCc1nc2ccccc2[nH]1)c1cnc(-c2ccccc2)nc1

>  <score_type>  (91) 
oracle

>  <origin>  (91) 
adg

>  <m_score__min__energy>  (91) 
-10.880000000000001

>  <m_primary>  (91) 
energy

$$$$
91:0
     RDKit          3D

 26 25  0  0  0  0  0  0  0  0999 V2000
   59.1900   33.8620   47.8840 C   0  0  0  0  0  0  0  0  0  0  0  0
   59.8230   34.9740   47.0580 C   0  0  0  0  0  0  0  0  0  0  0  0
   59.2170   34.9270   45.3340 S   0  0  0  0  0  0  0  0  0  0  0  0
   58.1010   33.4960   45.5570 C   0  0  0  0  0  0  0  0  0  0  0  0
   57.9950   32.6810   44.2620 C   0  0  0  0  0  0  0  0  0  0  0  0
   57.3920   31.2740   44.4760 C   0  0  0  0  0  0  0  0  0  0  0  0
   56.6450   30.7290   43.2450 C   0  0  0  0  0  0  0  0  0  0  0  0
   55.5160   29.7340   43.5700 C   0  0  0  0  0  0  0  0  0  0  0  0
   55.6950   29.0870   44.8700 N   0  0  0  0  0  0  0  0  0  0  0  0
   59.3159   34.0831   48.9542 H   0  0  0  0  0  0  0  0  0  0  0  0
   58.1179   33.7942   47.6472 H   0  0  0  0  0  0  0  0  0  0  0  0
   59.6790   32.9055   47.6472 H   0  0  0  0  0  0  0  0  0  0  0  0
   59.5658   35.9459   47.5043 H   0  0  0  0  0  0  0  0  0  0  0  0
   60.9138   34.8320   47.0524 H   0  0  0  0  0  0  0  0  0  0  0  0
   58.4955   32.8522   46.3570 H   0  0  0  0  0  0  0  0  0  0  0  0
   57.1003   33.8674   45.8228 H   0  0  0  0  0  0  0  0  0  0  0  0
   57.3573   33.2307   43.5541 H   0  0  0  0  0  0  0  0  0  0  0  0
   59.0164   32.5440   43.8773 H   0  0  0  0  0  0  0  0  0  0  0  0
   58.2087   30.5796   44.7226 H   0  0  0  0  0  0  0  0  0  0  0  0
   56.6552   31.3593   45.2884 H   0  0  0  0  0  0  0  0  0  0  0  0
   56.2067   31.5809   42.7045 H   0  0  0  0  0  0  0  0  0  0  0  0
   57.3864   30.1761   42.6495 H   0  0  0  0  0  0  0  0  0  0  0  0
   54.5589   30.2761   43.5748 H   0  0  0  0  0  0  0  0  0  0  0  0
   55.5323   28.9478   42.8008 H   0  0  0  0  0  0  0  0  0  0  0  0
   54.7650   28.9630   45.3290 H   0  0  0  0  0  0  0  0  0  0  0  0
   56.1190   28.1420   44.7320 H   0  0  0  0  0  0  0  0  0  0  0  0
  1  2  1  0
  2  3  1  0
  3  4  1  0
  4  5  1  0
  5  6  1  0
  6  7  1  0
  7  8  1  0
  8  9  1  0
  1 10  1  0
  1 11  1  0
  1 12  1  0
  2 13  1  0
  2 14  1  0
  4 15  1  0
  4 16  1  0
  5 17  1  0
  5 18  1  0
  6 19  1  0
  6 20  1  0
  7 21  1  0
  7 22  1  0
  8 23  1  0
  8 24  1  0
  9 25  1  0
  9 26  1  0
M  END
>  <UniqueID>  (92) 
84

>  <SMILES>  (92) 
CCSCCCCCN

>  <Energy>  (92) 
11.596854590762195

>  <Genealogy>  (92) 
CCSCCCCCN (3D coordinates assigned)
CCSCCCCCN (optimized conformer: 11.596854590762195 kcal/mol)

>  <smiles>  (92) 
CCSCCCCCN

>  <score_type>  (92) 
oracle

>  <origin>  (92) 
adg

>  <m_score__min__energy>  (92) 
-4.6799999999999997

>  <m_primary>  (92) 
energy

$$$$
92:0
     RDKit          3D

 23 24  0  0  0  0  0  0  0  0999 V2000
   55.3710   29.0530   44.7070 O   0  0  0  0  0  0  0  0  0  0  0  0
   56.1720   30.0120   44.0890 C   0  0  0  0  0  0  0  0  0  0  0  0
   56.2110   30.1160   42.6920 C   0  0  0  0  0  0  0  0  0  0  0  0
   57.0180   31.0810   42.0850 C   0  0  0  0  0  0  0  0  0  0  0  0
   57.7860   31.9470   42.8670 C   0  0  0  0  0  0  0  0  0  0  0  0
   57.7520   31.8560   44.2710 C   0  0  0  0  0  0  0  0  0  0  0  0
   58.5720   32.7680   45.1050 C   0  0  0  0  0  0  0  0  0  0  0  0
   58.5930   34.1470   44.8290 C   0  0  0  0  0  0  0  0  0  0  0  0
   59.3580   35.0160   45.6120 C   0  0  0  0  0  0  0  0  0  0  0  0
   60.1140   34.5190   46.6750 C   0  0  0  0  0  0  0  0  0  0  0  0
   60.1070   33.1510   46.9570 C   0  0  0  0  0  0  0  0  0  0  0  0
   59.3440   32.2740   46.1790 C   0  0  0  0  0  0  0  0  0  0  0  0
   59.3870   30.9460   46.4520 F   0  0  0  0  0  0  0  0  0  0  0  0
   56.9410   30.8790   44.8730 C   0  0  0  0  0  0  0  0  0  0  0  0
   54.3820   28.9750   44.4980 H   0  0  0  0  0  0  0  0  0  0  0  0
   55.6057   29.4373   42.0732 H   0  0  0  0  0  0  0  0  0  0  0  0
   57.0489   31.1592   40.9882 H   0  0  0  0  0  0  0  0  0  0  0  0
   58.4206   32.7039   42.3829 H   0  0  0  0  0  0  0  0  0  0  0  0
   58.0027   34.5447   43.9903 H   0  0  0  0  0  0  0  0  0  0  0  0
   59.3643   36.0934   45.3902 H   0  0  0  0  0  0  0  0  0  0  0  0
   60.7151   35.2045   47.2904 H   0  0  0  0  0  0  0  0  0  0  0  0
   60.7042   32.7616   47.7947 H   0  0  0  0  0  0  0  0  0  0  0  0
   56.9105   30.7952   45.9694 H   0  0  0  0  0  0  0  0  0  0  0  0
  1  2  1  0
  2  3  2  0
  3  4  1  0
  4  5  2  0
  5  6  1  0
  6  7  1  0
  7  8  2  0
  8  9  1  0
  9 10  2  0
 10 11  1  0
 11 12  2  0
 12 13  1  0
  6 14  2  0
 14  2  1  0
 12  7  1  0
  1 15  1  0
  3 16  1  0
  4 17  1  0
  5 18  1  0
  8 19  1  0
  9 20  1  0
 10 21  1  0
 11 22  1  0
 14 23  1  0
M  END
>  <UniqueID>  (93) 
85

>  <SMILES>  (93) 
Oc1cccc(-c2ccccc2F)c1

>  <Energy>  (93) 
29.704972749611535

>  <Genealogy>  (93) 
Oc1cccc(-c2ccccc2F)c1 (3D coordinates assigned)
Oc1cccc(-c2ccccc2F)c1 (optimized conformer: 29.704972749611535 kcal/mol)

>  <smiles>  (93) 
Oc1cccc(-c2ccccc2F)c1

>  <score_type>  (93) 
oracle

>  <origin>  (93) 
adg

>  <m_score__min__energy>  (93) 
-7.0700000000000003

>  <m_primary>  (93) 
energy

$$$$
93:0
     RDKit          3D

 49 51  0  0  0  0  0  0  0  0999 V2000
   56.7788   34.2793   45.2538 H   0  0  0  0  0  0  0  0  0  0  0  0
   57.8110   33.9650   45.0400 C   0  0  0  0  0  0  0  0  0  0  0  0
   58.0000   32.8170   44.1230 C   0  0  0  0  0  0  0  0  0  0  0  0
   58.5170   33.0080   42.9890 O   0  0  0  0  0  0  0  0  0  0  0  0
   57.5280   31.4550   44.4880 C   0  0  0  0  0  0  0  0  0  0  0  0
   56.4970   30.8270   43.7690 C   0  0  0  0  0  0  0  0  0  0  0  0
   56.0337   31.3455   42.9166 H   0  0  0  0  0  0  0  0  0  0  0  0
   56.0550   29.5530   44.1250 C   0  0  0  0  0  0  0  0  0  0  0  0
   55.2499   29.0734   43.5490 H   0  0  0  0  0  0  0  0  0  0  0  0
   56.6320   28.8770   45.2160 C   0  0  0  0  0  0  0  0  0  0  0  0
   56.2140   27.5940   45.6040 O   0  0  0  0  0  0  0  0  0  0  0  0
   57.0520   26.4420   45.6200 C   0  0  0  0  0  0  0  0  0  0  0  0
   57.2608   26.1549   46.6611 H   0  0  0  0  0  0  0  0  0  0  0  0
   56.5448   25.6125   45.1056 H   0  0  0  0  0  0  0  0  0  0  0  0
   57.9974   26.6691   45.1056 H   0  0  0  0  0  0  0  0  0  0  0  0
   57.6550   29.4950   45.9490 C   0  0  0  0  0  0  0  0  0  0  0  0
   58.2090   28.7970   47.0350 O   0  0  0  0  0  0  0  0  0  0  0  0
   59.3210   29.2470   47.8030 C   0  0  0  0  0  0  0  0  0  0  0  0
   59.0889   29.1531   48.8741 H   0  0  0  0  0  0  0  0  0  0  0  0
   60.2033   28.6352   47.5640 H   0  0  0  0  0  0  0  0  0  0  0  0
   59.5295   30.3003   47.5640 H   0  0  0  0  0  0  0  0  0  0  0  0
   58.0960   30.7820   45.5840 C   0  0  0  0  0  0  0  0  0  0  0  0
   58.8951   31.2668   46.1640 H   0  0  0  0  0  0  0  0  0  0  0  0
   58.8020   34.6510   45.6300 C   0  0  0  0  0  0  0  0  0  0  0  0
   58.8486   35.7340   45.4428 H   0  0  0  0  0  0  0  0  0  0  0  0
   59.8370   34.0680   46.5120 C   0  0  0  0  0  0  0  0  0  0  0  0
   61.1320   33.8880   46.0200 C   0  0  0  0  0  0  0  0  0  0  0  0
   61.3600   34.1511   44.9765 H   0  0  0  0  0  0  0  0  0  0  0  0
   62.1400   33.3770   46.8410 C   0  0  0  0  0  0  0  0  0  0  0  0
   63.1479   33.2238   46.4278 H   0  0  0  0  0  0  0  0  0  0  0  0
   61.8870   33.0530   48.1950 C   0  0  0  0  0  0  0  0  0  0  0  0
   62.9390   32.5160   49.0570 N   0  0  0  0  0  0  0  0  0  0  0  0
   62.5890   31.5190   50.0910 C   0  0  0  0  0  0  0  0  0  0  0  0
   61.8954   31.9873   50.8049 H   0  0  0  0  0  0  0  0  0  0  0  0
   62.1385   30.6604   49.5716 H   0  0  0  0  0  0  0  0  0  0  0  0
   63.7980   30.9900   50.8670 C   0  0  0  0  0  0  0  0  0  0  0  0
   63.4567   30.5798   51.8289 H   0  0  0  0  0  0  0  0  0  0  0  0
   64.2855   30.2082   50.2660 H   0  0  0  0  0  0  0  0  0  0  0  0
   64.7300   32.0160   51.1090 O   0  0  0  0  0  0  0  0  0  0  0  0
   65.3150   32.3810   49.8820 C   0  0  0  0  0  0  0  0  0  0  0  0
   66.1586   33.0603   50.0738 H   0  0  0  0  0  0  0  0  0  0  0  0
   65.6621   31.4690   49.3743 H   0  0  0  0  0  0  0  0  0  0  0  0
   64.3000   33.0860   48.9780 C   0  0  0  0  0  0  0  0  0  0  0  0
   64.2507   34.1451   49.2709 H   0  0  0  0  0  0  0  0  0  0  0  0
   64.6449   32.9532   47.9420 H   0  0  0  0  0  0  0  0  0  0  0  0
   60.5760   33.2660   48.6830 C   0  0  0  0  0  0  0  0  0  0  0  0
   60.3432   33.0244   49.7306 H   0  0  0  0  0  0  0  0  0  0  0  0
   59.5720   33.7780   47.8570 C   0  0  0  0  0  0  0  0  0  0  0  0
   58.5661   33.9547   48.2657 H   0  0  0  0  0  0  0  0  0  0  0  0
  1  2  1  0
  2  3  1  0
  3  4  2  0
  3  5  1  0
  5  6  2  0
  6  7  1  0
  6  8  1  0
  8  9  1  0
  8 10  2  0
 10 11  1  0
 11 12  1  0
 12 13  1  0
 12 14  1  0
 12 15  1  0
 10 16  1  0
 16 17  1  0
 17 18  1  0
 18 19  1  0
 18 20  1  0
 18 21  1  0
 16 22  2  0
 22 23  1  0
  2 24  2  0
 24 25  1  0
 24 26  1  0
 26 27  2  0
 27 28  1  0
 27 29  1  0
 29 30  1  0
 29 31  2  0
 31 32  1  0
 32 33  1  0
 33 34  1  0
 33 35  1  0
 33 36  1  0
 36 37  1  0
 36 38  1  0
 36 39  1  0
 39 40  1  0
 40 41  1  0
 40 42  1  0
 40 43  1  0
 43 44  1  0
 43 45  1  0
 31 46  1  0
 46 47  1  0
 46 48  2  0
 48 49  1  0
 22  5  1  0
 48 26  1  0
 43 32  1  0
M  END
>  <UniqueID>  (94) 
86

>  <SMILES>  (94) 
COc1ccc(C(=O)/C=C\c2ccc(N3CCOCC3)cc2)cc1OC

>  <Energy>  (94) 
67.35012438875759

>  <Genealogy>  (94) 
COc1ccc(C(=O)/C=C\c2ccc(N3CCOCC3)cc2)cc1OC (cis-trans isomerization)
COc1ccc(C(=O)/C=C\c2ccc(N3CCOCC3)cc2)cc1OC (3D coordinates assigned)
COc1ccc(C(=O)/C=C\c2ccc(N3CCOCC3)cc2)cc1OC (nonaromatic ring conformer: 67.35012438875759 kcal/mol)

>  <smiles>  (94) 
COc1ccc(C(=O)C=Cc2ccc(N3CCOCC3)cc2)cc1OC

>  <score_type>  (94) 
oracle

>  <origin>  (94) 
adg

>  <m_score__min__energy>  (94) 
-7.6600000000000001

>  <m_primary>  (94) 
energy

$$$$
94:0
     RDKit          3D

 30 31  0  0  0  0  0  0  0  0999 V2000
   56.7360   29.0190   42.7440 O   0  0  0  0  0  0  0  0  0  0  0  0
   57.1580   28.9440   44.1840 S   0  0  0  0  0  0  0  0  0  0  0  0
   56.1720   29.6510   45.0730 O   0  0  0  0  0  0  0  0  0  0  0  0
   57.3930   27.3150   44.6830 C   0  0  0  0  0  0  0  0  0  0  0  0
   58.6860   27.0790   44.8230 C   0  0  0  0  0  0  0  0  0  0  0  0
   59.5870   28.2160   44.3860 C   0  0  2  0  0  0  0  0  0  0  0  0
   60.9100   28.2310   45.1790 C   0  0  0  0  0  0  0  0  0  0  0  0
   61.9020   28.9240   44.4680 O   0  0  0  0  0  0  0  0  0  0  0  0
   58.8010   29.4950   44.3830 N   0  0  2  0  0  0  0  0  0  0  0  0
   58.8960   30.3270   45.6110 C   0  0  0  0  0  0  0  0  0  0  0  0
   58.6160   31.7950   45.3660 C   0  0  0  0  0  0  0  0  0  0  0  0
   57.7200   32.1970   44.3590 C   0  0  0  0  0  0  0  0  0  0  0  0
   57.4440   33.5520   44.1570 C   0  0  0  0  0  0  0  0  0  0  0  0
   58.0420   34.5180   44.9690 C   0  0  0  0  0  0  0  0  0  0  0  0
   58.9070   34.1310   45.9970 C   0  0  0  0  0  0  0  0  0  0  0  0
   59.6410   35.3420   47.0300 Cl  0  0  0  0  0  0  0  0  0  0  0  0
   59.1840   32.7750   46.2030 C   0  0  0  0  0  0  0  0  0  0  0  0
   56.5912   26.5827   44.8585 H   0  0  0  0  0  0  0  0  0  0  0  0
   59.0768   26.1325   45.2248 H   0  0  0  0  0  0  0  0  0  0  0  0
   59.9245   28.0719   43.3490 H   0  0  0  0  0  0  0  0  0  0  0  0
   60.7459   28.7264   46.1473 H   0  0  0  0  0  0  0  0  0  0  0  0
   61.2429   27.1942   45.3348 H   0  0  0  0  0  0  0  0  0  0  0  0
   62.2580   28.2950   43.7870 H   0  0  0  0  0  0  0  0  0  0  0  0
   59.0490   30.0580   43.5370 H   0  0  0  0  0  0  0  0  0  0  0  0
   58.1675   29.9507   46.3443 H   0  0  0  0  0  0  0  0  0  0  0  0
   59.9308   30.2503   45.9760 H   0  0  0  0  0  0  0  0  0  0  0  0
   57.2334   31.4400   43.7264 H   0  0  0  0  0  0  0  0  0  0  0  0
   56.7543   33.8583   43.3567 H   0  0  0  0  0  0  0  0  0  0  0  0
   57.8323   35.5845   44.7997 H   0  0  0  0  0  0  0  0  0  0  0  0
   59.8501   32.4723   47.0244 H   0  0  0  0  0  0  0  0  0  0  0  0
  1  2  2  0
  2  3  2  0
  2  4  1  0
  4  5  2  0
  5  6  1  0
  6  7  1  0
  7  8  1  0
  6  9  1  0
  9 10  1  0
 10 11  1  0
 11 12  2  0
 12 13  1  0
 13 14  2  0
 14 15  1  0
 15 16  1  0
 15 17  2  0
  9  2  1  0
 17 11  1  0
  4 18  1  0
  5 19  1  0
  6 20  1  6
  7 21  1  0
  7 22  1  0
  8 23  1  0
  9 24  1  6
 10 25  1  0
 10 26  1  0
 12 27  1  0
 13 28  1  0
 14 29  1  0
 17 30  1  0
M  CHG  1   9   1
M  END
>  <UniqueID>  (95) 
87

>  <SMILES>  (95) 
O=S1(=O)C=C[C@H](CO)[N@@H+]1Cc1cccc(Cl)c1

>  <Energy>  (95) 
48.0455639282359

>  <Genealogy>  (95) 
O=S1(=O)C=CC(CO)[NH+]1Cc1cccc(Cl)c1 (protonated)
O=S1(=O)C=C[C@H](CO)[N@@H+]1Cc1cccc(Cl)c1 (chirality)
O=S1(=O)C=C[C@H](CO)[N@@H+]1Cc1cccc(Cl)c1 (3D coordinates assigned)
O=S1(=O)C=C[C@H](CO)[N@@H+]1Cc1cccc(Cl)c1 (nonaromatic ring conformer: 48.0455639282359 kcal/mol)

>  <smiles>  (95) 
O=S1(=O)C=CC(CO)N1Cc1cccc(Cl)c1

>  <score_type>  (95) 
oracle

>  <origin>  (95) 
adg

>  <m_score__min__energy>  (95) 
-5.3700000000000001

>  <m_primary>  (95) 
energy

$$$$
