0:0
     RDKit          3D

 36 38  0  0  0  0  0  0  0  0999 V2000
   58.1460   30.4110   44.4690 C   0  0  0  0  0  0  0  0  0  0  0  0
   58.3640   29.9010   45.6910 C   0  0  0  0  0  0  0  0  0  0  0  0
   58.0700   28.6000   46.1110 C   0  0  0  0  0  0  0  0  0  0  0  0
   57.4570   27.6290   45.4040 C   0  0  0  0  0  0  0  0  0  0  0  0
   57.1670   26.2830   45.9470 C   0  0  0  0  0  0  0  0  0  0  0  0
   55.8520   25.8680   46.2250 C   0  0  0  0  0  0  0  0  0  0  0  0
   54.7740   26.7140   45.9950 O   0  0  0  0  0  0  0  0  0  0  0  0
   55.6280   24.6340   46.7450 N   0  0  0  0  0  0  0  0  0  0  0  0
   56.6560   23.7910   47.0210 C   0  0  0  0  0  0  0  0  0  0  0  0
   56.4230   22.6510   47.4990 O   0  0  0  0  0  0  0  0  0  0  0  0
   57.9360   24.1800   46.7880 N   0  0  0  0  0  0  0  0  0  0  0  0
   58.2130   25.4040   46.2670 C   0  0  0  0  0  0  0  0  0  0  0  0
   59.4130   25.7330   46.0680 O   0  0  0  0  0  0  0  0  0  0  0  0
   58.5030   28.5050   47.4270 C   0  0  0  0  0  0  0  0  0  0  0  0
   59.0340   29.7360   47.7570 C   0  0  0  0  0  0  0  0  0  0  0  0
   59.6220   30.0790   49.0920 C   0  0  0  0  0  0  0  0  0  0  0  0
   58.9570   30.5820   46.7040 N   0  0  0  0  0  0  0  0  0  0  0  0
   59.4050   31.9490   46.6920 C   0  0  0  0  0  0  0  0  0  0  0  0
   58.4760   32.9950   46.6010 C   0  0  0  0  0  0  0  0  0  0  0  0
   58.9110   34.3230   46.5770 C   0  0  0  0  0  0  0  0  0  0  0  0
   60.2770   34.6140   46.6420 C   0  0  0  0  0  0  0  0  0  0  0  0
   61.2120   33.5750   46.7300 C   0  0  0  0  0  0  0  0  0  0  0  0
   62.6180   33.8740   46.7940 C   0  0  0  0  0  0  0  0  0  0  0  0
   63.7490   34.1150   46.8450 N   0  0  0  0  0  0  0  0  0  0  0  0
   60.7750   32.2440   46.7530 C   0  0  0  0  0  0  0  0  0  0  0  0
   58.4193   31.4541   44.2516 H   0  0  0  0  0  0  0  0  0  0  0  0
   57.6940   29.7860   43.6848 H   0  0  0  0  0  0  0  0  0  0  0  0
   57.1566   27.8489   44.3689 H   0  0  0  0  0  0  0  0  0  0  0  0
   58.4360   27.6216   48.0791 H   0  0  0  0  0  0  0  0  0  0  0  0
   58.9678   29.6974   49.8898 H   0  0  0  0  0  0  0  0  0  0  0  0
   60.6175   29.6199   49.1831 H   0  0  0  0  0  0  0  0  0  0  0  0
   59.7124   31.1715   49.1831 H   0  0  0  0  0  0  0  0  0  0  0  0
   57.4006   32.7697   46.5483 H   0  0  0  0  0  0  0  0  0  0  0  0
   58.1779   35.1401   46.5069 H   0  0  0  0  0  0  0  0  0  0  0  0
   60.6176   35.6598   46.6240 H   0  0  0  0  0  0  0  0  0  0  0  0
   61.5090   31.4273   46.8191 H   0  0  0  0  0  0  0  0  0  0  0  0
  1  2  2  0
  2  3  1  0
  3  4  2  3
  4  5  1  0
  5  6  2  0
  6  7  1  0
  6  8  1  0
  8  9  1  0
  9 10  2  0
  9 11  1  0
 11 12  1  0
 12 13  2  0
  3 14  1  0
 14 15  2  0
 15 16  1  0
 15 17  1  0
 17 18  1  0
 18 19  2  0
 19 20  1  0
 20 21  2  0
 21 22  1  0
 22 23  1  0
 23 24  3  0
 22 25  2  0
 17  2  1  0
 25 18  1  0
 12  5  1  0
  1 26  1  0
  1 27  1  0
  4 28  1  0
 14 29  1  0
 16 30  1  0
 16 31  1  0
 16 32  1  0
 19 33  1  0
 20 34  1  0
 21 35  1  0
 25 36  1  0
M  CHG  3   7  -1   8  -1  11  -1
M  END
>  <UniqueID>  (1) 
1

>  <SMILES>  (1) 
C=c1c(=Cc2c([O-])[n-]c(=O)[n-]c2=O)cc(C)n1-c1cccc(C#N)c1

>  <Energy>  (1) 
82.96059631256696

>  <Genealogy>  (1) 
C=c1c(=Cc2c([O-])[n-]c(=O)[n-]c2=O)cc(C)n1-c1cccc(C#N)c1 (protonated)
C=c1c(=Cc2c([O-])[n-]c(=O)[n-]c2=O)cc(C)n1-c1cccc(C#N)c1 (3D coordinates assigned)
C=c1c(=Cc2c([O-])[n-]c(=O)[n-]c2=O)cc(C)n1-c1cccc(C#N)c1 (optimized conformer: 82.96059631256696 kcal/mol)

>  <smiles>  (1) 
C=c1c(=Cc2c(O)[nH]c(=O)[nH]c2=O)cc(C)n1-c1cccc(C#N)c1

>  <score_type>  (1) 
oracle

>  <origin>  (1) 
adg

>  <m_score__min__energy>  (1) 
-15.619999999999999

>  <m_primary>  (1) 
energy

$$$$
1:0
     RDKit          3D

 46 47  0  0  0  0  0  0  0  0999 V2000
   56.6600   34.2170   45.2410 C   0  0  0  0  0  0  0  0  0  0  0  0
   58.1480   33.9680   45.0110 C   0  0  0  0  0  0  0  0  0  0  0  0
   58.7740   33.3210   46.2310 C   0  0  0  0  0  0  0  0  0  0  0  0
   59.1250   34.1710   47.2890 C   0  0  0  0  0  0  0  0  0  0  0  0
   59.5900   33.6570   48.4890 C   0  0  0  0  0  0  0  0  0  0  0  0
   59.6470   32.2860   48.6850 C   0  0  0  0  0  0  0  0  0  0  0  0
   59.2690   31.3800   47.6720 C   0  0  0  0  0  0  0  0  0  0  0  0
   59.2090   29.8990   48.0810 C   0  0  0  0  0  0  0  0  0  0  0  0
   58.7870   29.6770   49.5400 C   0  0  0  0  0  0  0  0  0  0  0  0
   60.4550   29.0930   47.6790 C   0  0  0  0  0  0  0  0  0  0  0  0
   58.9090   31.9060   46.3840 C   0  0  0  0  0  0  0  0  0  0  0  0
   58.7160   31.0140   45.1660 C   0  0  0  0  0  0  0  0  0  0  0  0
   57.9210   29.8260   45.4870 N   0  0  0  0  0  0  0  0  0  0  0  0
   58.3790   28.4810   45.2740 C   0  0  0  0  0  0  0  0  0  0  0  0
   59.5040   28.2690   44.7480 O   0  0  0  0  0  0  0  0  0  0  0  0
   57.5330   27.3310   45.6680 C   0  0  0  0  0  0  0  0  0  0  0  0
   58.1010   26.0950   46.0630 C   0  0  0  0  0  0  0  0  0  0  0  0
   59.5930   25.8930   46.1230 C   0  0  0  0  0  0  0  0  0  0  0  0
   57.2550   25.0290   46.4010 C   0  0  0  0  0  0  0  0  0  0  0  0
   55.8710   25.2030   46.3630 C   0  0  0  0  0  0  0  0  0  0  0  0
   55.1060   24.2530   46.6760 O   0  0  0  0  0  0  0  0  0  0  0  0
   55.3460   26.3960   45.9890 N   0  0  0  0  0  0  0  0  0  0  0  0
   56.1290   27.4500   45.6400 C   0  0  0  0  0  0  0  0  0  0  0  0
   55.5220   28.6340   45.2350 O   0  0  0  0  0  0  0  0  0  0  0  0
   56.4567   34.2510   46.3215 H   0  0  0  0  0  0  0  0  0  0  0  0
   56.3736   35.1756   44.7836 H   0  0  0  0  0  0  0  0  0  0  0  0
   56.0772   33.4039   44.7836 H   0  0  0  0  0  0  0  0  0  0  0  0
   58.2737   33.3027   44.1440 H   0  0  0  0  0  0  0  0  0  0  0  0
   58.6450   34.9316   44.8255 H   0  0  0  0  0  0  0  0  0  0  0  0
   59.0301   35.2599   47.1651 H   0  0  0  0  0  0  0  0  0  0  0  0
   59.9149   34.3391   49.2885 H   0  0  0  0  0  0  0  0  0  0  0  0
   59.9950   31.8955   49.6527 H   0  0  0  0  0  0  0  0  0  0  0  0
   58.3902   29.4795   47.4780 H   0  0  0  0  0  0  0  0  0  0  0  0
   59.5586   30.0829   50.2107 H   0  0  0  0  0  0  0  0  0  0  0  0
   57.8318   30.1894   49.7274 H   0  0  0  0  0  0  0  0  0  0  0  0
   58.6681   28.5996   49.7274 H   0  0  0  0  0  0  0  0  0  0  0  0
   60.9798   28.7535   48.5841 H   0  0  0  0  0  0  0  0  0  0  0  0
   60.1505   28.2203   47.0826 H   0  0  0  0  0  0  0  0  0  0  0  0
   61.1261   29.7285   47.0826 H   0  0  0  0  0  0  0  0  0  0  0  0
   58.1999   31.5875   44.3819 H   0  0  0  0  0  0  0  0  0  0  0  0
   59.7069   30.6819   44.8227 H   0  0  0  0  0  0  0  0  0  0  0  0
   57.0200   29.9690   45.9980 H   0  0  0  0  0  0  0  0  0  0  0  0
   59.9151   25.8494   47.1739 H   0  0  0  0  0  0  0  0  0  0  0  0
   59.8560   24.9510   45.6195 H   0  0  0  0  0  0  0  0  0  0  0  0
   60.0970   26.7311   45.6195 H   0  0  0  0  0  0  0  0  0  0  0  0
   57.6811   24.0585   46.6952 H   0  0  0  0  0  0  0  0  0  0  0  0
  1  2  1  0
  2  3  1  0
  3  4  2  0
  4  5  1  0
  5  6  2  0
  6  7  1  0
  7  8  1  0
  8  9  1  0
  8 10  1  0
  7 11  2  0
 11 12  1  0
 12 13  1  0
 13 14  1  0
 14 15  2  0
 14 16  1  0
 16 17  1  0
 17 18  1  0
 17 19  2  0
 19 20  1  0
 20 21  2  0
 20 22  1  0
 22 23  1  0
 23 24  1  0
 11  3  1  0
 23 16  2  0
  1 25  1  0
  1 26  1  0
  1 27  1  0
  2 28  1  0
  2 29  1  0
  4 30  1  0
  5 31  1  0
  6 32  1  0
  8 33  1  0
  9 34  1  0
  9 35  1  0
  9 36  1  0
 10 37  1  0
 10 38  1  0
 10 39  1  0
 12 40  1  0
 12 41  1  0
 13 42  1  0
 18 43  1  0
 18 44  1  0
 18 45  1  0
 19 46  1  0
M  CHG  2  22  -1  24  -1
M  END
>  <UniqueID>  (2) 
2

>  <SMILES>  (2) 
CCc1cccc(C(C)C)c1CNC(=O)c1c(C)cc(=O)[n-]c1[O-]

>  <Energy>  (2) 
58.73437677337893

>  <Genealogy>  (2) 
CCc1cccc(C(C)C)c1CNC(=O)c1c(C)cc(=O)[n-]c1[O-] (protonated)
CCc1cccc(C(C)C)c1CNC(=O)c1c(C)cc(=O)[n-]c1[O-] (3D coordinates assigned)
CCc1cccc(C(C)C)c1CNC(=O)c1c(C)cc(=O)[n-]c1[O-] (optimized conformer: 58.73437677337893 kcal/mol)

>  <smiles>  (2) 
CCc1cccc(C(C)C)c1CNC(=O)c1c(C)cc(=O)[nH]c1O

>  <score_type>  (2) 
oracle

>  <origin>  (2) 
adg

>  <m_score__min__energy>  (2) 
-14.44

>  <m_primary>  (2) 
energy

$$$$
2:0
     RDKit          3D

 58 61  0  0  0  0  0  0  0  0999 V2000
   61.4990   33.6330   52.4850 O   0  0  0  0  0  0  0  0  0  0  0  0
   62.0240   32.8250   51.7290 C   0  0  0  0  0  0  0  0  0  0  0  0
   63.2260   33.3130   50.9310 C   0  0  0  0  0  0  0  0  0  0  0  0
   62.9700   33.3860   49.4380 C   0  0  0  0  0  0  0  0  0  0  0  0
   63.9820   33.0050   48.5370 C   0  0  0  0  0  0  0  0  0  0  0  0
   63.7660   33.0570   47.1580 C   0  0  0  0  0  0  0  0  0  0  0  0
   62.5530   33.5280   46.6570 C   0  0  0  0  0  0  0  0  0  0  0  0
   61.5610   33.9690   47.5330 C   0  0  0  0  0  0  0  0  0  0  0  0
   61.7670   33.9160   48.9170 C   0  0  0  0  0  0  0  0  0  0  0  0
   60.8010   34.4020   49.7330 F   0  0  0  0  0  0  0  0  0  0  0  0
   61.4860   31.4670   51.7010 N   0  0  0  0  0  0  0  0  0  0  0  0
   62.2160   30.4610   50.8910 C   0  0  0  0  0  0  0  0  0  0  0  0
   61.8900   30.5050   49.3870 C   0  0  0  0  0  0  0  0  0  0  0  0
   60.4530   30.6590   49.1510 N   0  0  0  0  0  0  0  0  0  0  0  0
   59.8700   30.1700   47.9280 C   0  0  0  0  0  0  0  0  0  0  0  0
   60.4720   30.4660   46.6960 C   0  0  0  0  0  0  0  0  0  0  0  0
   59.9160   29.9920   45.5040 C   0  0  0  0  0  0  0  0  0  0  0  0
   58.7500   29.2110   45.5280 C   0  0  0  0  0  0  0  0  0  0  0  0
   58.1260   28.7370   44.2450 C   0  0  0  0  0  0  0  0  0  0  0  0
   56.8140   29.8400   43.7420 S   0  0  0  0  0  0  0  0  0  0  0  0
   56.1750   29.3310   42.4810 O   0  0  0  0  0  0  0  0  0  0  0  0
   55.7760   29.8920   44.8270 O   0  0  0  0  0  0  0  0  0  0  0  0
   57.4310   31.4410   43.4790 N   0  0  0  0  0  0  0  0  0  0  0  0
   57.7580   32.2590   44.4320 C   0  0  0  0  0  0  0  0  0  0  0  0
   58.4830   33.4170   44.1270 C   0  0  0  0  0  0  0  0  0  0  0  0
   58.8220   34.3040   45.1520 C   0  0  0  0  0  0  0  0  0  0  0  0
   58.4340   34.0290   46.4650 C   0  0  0  0  0  0  0  0  0  0  0  0
   58.7550   34.8840   47.4670 F   0  0  0  0  0  0  0  0  0  0  0  0
   57.7140   32.8640   46.7340 C   0  0  0  0  0  0  0  0  0  0  0  0
   57.3940   32.0130   45.7230 N   0  0  0  0  0  0  0  0  0  0  0  0
   58.1400   28.9230   46.7580 C   0  0  0  0  0  0  0  0  0  0  0  0
   58.6970   29.3950   47.9500 C   0  0  0  0  0  0  0  0  0  0  0  0
   59.7260   31.6540   49.9410 C   0  0  0  0  0  0  0  0  0  0  0  0
   60.0330   31.4580   51.4250 C   0  0  0  0  0  0  0  0  0  0  0  0
   63.4964   34.3178   51.2877 H   0  0  0  0  0  0  0  0  0  0  0  0
   64.0354   32.5843   51.0858 H   0  0  0  0  0  0  0  0  0  0  0  0
   64.9535   32.6626   48.9230 H   0  0  0  0  0  0  0  0  0  0  0  0
   64.5543   32.7258   46.4660 H   0  0  0  0  0  0  0  0  0  0  0  0
   62.3783   33.5518   45.5712 H   0  0  0  0  0  0  0  0  0  0  0  0
   60.6130   34.3600   47.1349 H   0  0  0  0  0  0  0  0  0  0  0  0
   61.5840   31.1250   52.6880 H   0  0  0  0  0  0  0  0  0  0  0  0
   63.2950   30.6350   51.0154 H   0  0  0  0  0  0  0  0  0  0  0  0
   61.8992   29.4723   51.2544 H   0  0  0  0  0  0  0  0  0  0  0  0
   62.4196   31.3548   48.9317 H   0  0  0  0  0  0  0  0  0  0  0  0
   62.2125   29.5544   48.9372 H   0  0  0  0  0  0  0  0  0  0  0  0
   61.3876   31.0751   46.6676 H   0  0  0  0  0  0  0  0  0  0  0  0
   60.3945   30.2322   44.5431 H   0  0  0  0  0  0  0  0  0  0  0  0
   58.8944   28.7063   43.4585 H   0  0  0  0  0  0  0  0  0  0  0  0
   57.7053   27.7331   44.4038 H   0  0  0  0  0  0  0  0  0  0  0  0
   58.7831   33.6268   43.0897 H   0  0  0  0  0  0  0  0  0  0  0  0
   59.3930   35.2165   44.9253 H   0  0  0  0  0  0  0  0  0  0  0  0
   57.4053   32.6342   47.7645 H   0  0  0  0  0  0  0  0  0  0  0  0
   57.2186   28.3227   46.7846 H   0  0  0  0  0  0  0  0  0  0  0  0
   58.2151   29.1589   48.9103 H   0  0  0  0  0  0  0  0  0  0  0  0
   60.0371   32.6633   49.6335 H   0  0  0  0  0  0  0  0  0  0  0  0
   58.6455   31.5333   49.7736 H   0  0  0  0  0  0  0  0  0  0  0  0
   59.5591   32.2707   51.9951 H   0  0  0  0  0  0  0  0  0  0  0  0
   59.6385   30.4758   51.7245 H   0  0  0  0  0  0  0  0  0  0  0  0
  1  2  2  0
  2  3  1  0
  3  4  1  0
  4  5  2  0
  5  6  1  0
  6  7  2  0
  7  8  1  0
  8  9  2  0
  9 10  1  0
  2 11  1  0
 11 12  1  0
 12 13  1  0
 13 14  1  0
 14 15  1  0
 15 16  2  0
 16 17  1  0
 17 18  2  0
 18 19  1  0
 19 20  1  0
 20 21  2  0
 20 22  2  0
 20 23  1  0
 23 24  2  3
 24 25  1  0
 25 26  2  0
 26 27  1  0
 27 28  1  0
 27 29  2  0
 29 30  1  0
 18 31  1  0
 31 32  2  0
 14 33  1  0
 33 34  1  0
  9  4  1  0
 34 11  1  0
 32 15  1  0
 30 24  1  0
  3 35  1  0
  3 36  1  0
  5 37  1  0
  6 38  1  0
  7 39  1  0
  8 40  1  0
 11 41  1  0
 12 42  1  0
 12 43  1  0
 13 44  1  0
 13 45  1  0
 16 46  1  0
 17 47  1  0
 19 48  1  0
 19 49  1  0
 25 50  1  0
 26 51  1  0
 29 52  1  0
 31 53  1  0
 32 54  1  0
 33 55  1  0
 33 56  1  0
 34 57  1  0
 34 58  1  0
M  CHG  2  11   1  30  -1
M  END
>  <UniqueID>  (3) 
3

>  <SMILES>  (3) 
O=C(Cc1ccccc1F)[NH+]1CCN(c2ccc(CS(=O)(=O)N=c3ccc(F)c[n-]3)cc2)CC1

>  <Energy>  (3) 
73.46604717593706

>  <Genealogy>  (3) 
O=C(Cc1ccccc1F)[NH+]1CCN(c2ccc(CS(=O)(=O)N=c3ccc(F)c[n-]3)cc2)CC1 (protonated)
O=C(Cc1ccccc1F)[NH+]1CCN(c2ccc(CS(=O)(=O)N=c3ccc(F)c[n-]3)cc2)CC1 (3D coordinates assigned)
O=C(Cc1ccccc1F)[NH+]1CCN(c2ccc(CS(=O)(=O)N=c3ccc(F)c[n-]3)cc2)CC1 (nonaromatic ring conformer: 73.46604717593706 kcal/mol)

>  <smiles>  (3) 
O=C(Cc1ccccc1F)N1CCN(c2ccc(CS(=O)(=O)N=c3ccc(F)c[nH]3)cc2)CC1

>  <score_type>  (3) 
oracle

>  <origin>  (3) 
adg

>  <m_score__min__energy>  (3) 
-9.7100000000000009

>  <m_primary>  (3) 
energy

$$$$
3:0
     RDKit          3D

 36 38  0  0  0  0  0  0  0  0999 V2000
   56.3220   27.0010   45.9810 O   0  0  0  0  0  0  0  0  0  0  0  0
   56.6180   28.1300   45.5020 C   0  0  0  0  0  0  0  0  0  0  0  0
   55.5870   29.0540   45.1430 N   0  0  0  0  0  0  0  0  0  0  0  0
   55.5050   29.7060   43.8410 C   0  0  0  0  0  0  0  0  0  0  0  0
   56.4840   30.8370   43.7660 C   0  0  0  0  0  0  0  0  0  0  0  0
   57.0830   31.2500   42.5790 C   0  0  0  0  0  0  0  0  0  0  0  0
   58.1460   32.4990   42.9480 S   0  0  0  0  0  0  0  0  0  0  0  0
   57.7860   32.4690   44.5900 C   0  0  0  0  0  0  0  0  0  0  0  0
   58.4560   33.3080   45.6240 C   0  0  0  0  0  0  0  0  0  0  0  0
   59.1240   32.4570   46.5520 O   0  0  0  0  0  0  0  0  0  0  0  0
   60.4780   32.5740   46.9000 C   0  0  0  0  0  0  0  0  0  0  0  0
   61.2050   33.6570   46.3900 C   0  0  0  0  0  0  0  0  0  0  0  0
   62.5570   33.8170   46.7090 C   0  0  0  0  0  0  0  0  0  0  0  0
   63.1930   32.8970   47.5460 C   0  0  0  0  0  0  0  0  0  0  0  0
   62.4780   31.8110   48.0600 C   0  0  0  0  0  0  0  0  0  0  0  0
   61.1260   31.6460   47.7420 C   0  0  0  0  0  0  0  0  0  0  0  0
   56.8860   31.5070   44.8810 N   0  0  0  0  0  0  0  0  0  0  0  0
   58.0290   28.4960   45.3130 C   0  0  0  0  0  0  0  0  0  0  0  0
   58.9820   27.7270   44.6720 C   0  0  0  0  0  0  0  0  0  0  0  0
   60.1600   28.4480   44.7270 C   0  0  0  0  0  0  0  0  0  0  0  0
   59.8740   29.6220   45.3950 C   0  0  0  0  0  0  0  0  0  0  0  0
   58.5760   29.6480   45.7510 N   0  0  0  0  0  0  0  0  0  0  0  0
   55.7347   28.9738   43.0529 H   0  0  0  0  0  0  0  0  0  0  0  0
   54.4882   30.1017   43.7013 H   0  0  0  0  0  0  0  0  0  0  0  0
   56.8944   30.8335   41.5785 H   0  0  0  0  0  0  0  0  0  0  0  0
   59.1872   33.9734   45.1417 H   0  0  0  0  0  0  0  0  0  0  0  0
   57.7064   33.9163   46.1513 H   0  0  0  0  0  0  0  0  0  0  0  0
   60.7088   34.3871   45.7337 H   0  0  0  0  0  0  0  0  0  0  0  0
   63.1206   34.6686   46.3002 H   0  0  0  0  0  0  0  0  0  0  0  0
   64.2553   33.0268   47.8004 H   0  0  0  0  0  0  0  0  0  0  0  0
   62.9800   31.0846   48.7161 H   0  0  0  0  0  0  0  0  0  0  0  0
   60.5668   30.7908   48.1493 H   0  0  0  0  0  0  0  0  0  0  0  0
   58.8329   26.7396   44.2108 H   0  0  0  0  0  0  0  0  0  0  0  0
   61.1354   28.1454   44.3182 H   0  0  0  0  0  0  0  0  0  0  0  0
   60.6011   30.4201   45.6057 H   0  0  0  0  0  0  0  0  0  0  0  0
   58.0930   30.4180   46.2650 H   0  0  0  0  0  0  0  0  0  0  0  0
  1  2  2  0
  2  3  1  0
  3  4  1  0
  4  5  1  0
  5  6  2  0
  6  7  1  0
  7  8  1  0
  8  9  1  0
  9 10  1  0
 10 11  1  0
 11 12  2  0
 12 13  1  0
 13 14  2  0
 14 15  1  0
 15 16  2  0
  8 17  2  0
  2 18  1  0
 18 19  2  0
 19 20  1  0
 20 21  2  0
 21 22  1  0
 17  5  1  0
 22 18  1  0
 16 11  1  0
  4 23  1  0
  4 24  1  0
  6 25  1  0
  9 26  1  0
  9 27  1  0
 12 28  1  0
 13 29  1  0
 14 30  1  0
 15 31  1  0
 16 32  1  0
 19 33  1  0
 20 34  1  0
 21 35  1  0
 22 36  1  0
M  CHG  1   3  -1
M  END
>  <UniqueID>  (4) 
4

>  <SMILES>  (4) 
O=C([N-]Cc1csc(COc2ccccc2)n1)c1ccc[nH]1

>  <Energy>  (4) 
87.01480864475126

>  <Genealogy>  (4) 
O=C([N-]Cc1csc(COc2ccccc2)n1)c1ccc[nH]1 (protonated)
O=C([N-]Cc1csc(COc2ccccc2)n1)c1ccc[nH]1 (3D coordinates assigned)
O=C([N-]Cc1csc(COc2ccccc2)n1)c1ccc[nH]1 (optimized conformer: 87.01480864475126 kcal/mol)

>  <smiles>  (4) 
O=C(NCc1csc(COc2ccccc2)n1)c1ccc[nH]1

>  <score_type>  (4) 
oracle

>  <origin>  (4) 
adg

>  <m_score__min__energy>  (4) 
-10.15

>  <m_primary>  (4) 
energy

$$$$
4:0
     RDKit          3D

 44 46  0  0  0  0  0  0  0  0999 V2000
   59.6680   28.2090   48.8800 C   0  0  0  0  0  0  0  0  0  0  0  0
   59.2690   29.3150   48.2310 C   0  0  0  0  0  0  0  0  0  0  0  0
   58.7670   29.3690   46.9260 C   0  0  0  0  0  0  0  0  0  0  0  0
   58.5660   28.3390   46.0820 C   0  0  0  0  0  0  0  0  0  0  0  0
   57.4190   27.4200   46.1760 C   0  0  0  0  0  0  0  0  0  0  0  0
   57.4810   26.2260   46.7900 N   0  0  0  0  0  0  0  0  0  0  0  0
   56.2440   25.7140   46.6050 C   0  0  0  0  0  0  0  0  0  0  0  0
   55.9030   24.5890   47.0540 O   0  0  0  0  0  0  0  0  0  0  0  0
   55.4080   26.4970   45.8940 N   0  0  0  0  0  0  0  0  0  0  0  0
   56.1660   27.5700   45.6150 C   0  0  0  0  0  0  0  0  0  0  0  0
   55.7260   28.6310   44.8280 O   0  0  0  0  0  0  0  0  0  0  0  0
   58.4550   30.6990   46.6820 C   0  0  0  0  0  0  0  0  0  0  0  0
   58.7820   31.3980   47.8270 C   0  0  0  0  0  0  0  0  0  0  0  0
   58.5830   32.8740   48.0050 C   0  0  0  0  0  0  0  0  0  0  0  0
   59.2920   30.5650   48.7640 N   0  0  0  0  0  0  0  0  0  0  0  0
   59.6990   30.9530   50.1220 C   0  0  0  0  0  0  0  0  0  0  0  0
   58.7740   30.3120   51.1590 C   0  0  0  0  0  0  0  0  0  0  0  0
   57.6120   31.1600   51.4010 N   0  0  0  0  0  0  0  0  0  0  0  0
   56.5000   30.7550   52.2060 C   0  0  0  0  0  0  0  0  0  0  0  0
   56.6150   30.7650   53.4600 O   0  0  0  0  0  0  0  0  0  0  0  0
   55.2950   30.2920   51.5840 N   0  0  0  0  0  0  0  0  0  0  0  0
   53.9490   30.5540   52.0050 C   0  0  0  0  0  0  0  0  0  0  0  0
   53.4050   29.7740   53.0340 C   0  0  0  0  0  0  0  0  0  0  0  0
   52.0900   29.9790   53.4590 C   0  0  0  0  0  0  0  0  0  0  0  0
   51.3010   30.9570   52.8480 C   0  0  0  0  0  0  0  0  0  0  0  0
   51.8240   31.7240   51.8020 C   0  0  0  0  0  0  0  0  0  0  0  0
   51.0330   32.6820   51.1810 O   0  0  0  0  0  0  0  0  0  0  0  0
   53.1420   31.5210   51.3750 C   0  0  0  0  0  0  0  0  0  0  0  0
   60.0480   28.2824   49.9097 H   0  0  0  0  0  0  0  0  0  0  0  0
   59.6148   27.2297   48.3819 H   0  0  0  0  0  0  0  0  0  0  0  0
   59.2988   28.1751   45.2782 H   0  0  0  0  0  0  0  0  0  0  0  0
   55.8760   28.6480   43.8270 H   0  0  0  0  0  0  0  0  0  0  0  0
   58.0300   31.1153   45.7567 H   0  0  0  0  0  0  0  0  0  0  0  0
   58.5508   33.1128   49.0783 H   0  0  0  0  0  0  0  0  0  0  0  0
   59.4162   33.4158   47.5336 H   0  0  0  0  0  0  0  0  0  0  0  0
   57.6360   33.1758   47.5336 H   0  0  0  0  0  0  0  0  0  0  0  0
   60.7314   30.6180   50.3007 H   0  0  0  0  0  0  0  0  0  0  0  0
   59.6356   32.0472   50.2149 H   0  0  0  0  0  0  0  0  0  0  0  0
   58.4367   29.3332   50.7872 H   0  0  0  0  0  0  0  0  0  0  0  0
   59.3274   30.1895   52.1017 H   0  0  0  0  0  0  0  0  0  0  0  0
   54.0177   28.9946   53.5107 H   0  0  0  0  0  0  0  0  0  0  0  0
   51.6753   29.3698   54.2756 H   0  0  0  0  0  0  0  0  0  0  0  0
   50.2688   31.1236   53.1896 H   0  0  0  0  0  0  0  0  0  0  0  0
   53.5481   32.1184   50.5454 H   0  0  0  0  0  0  0  0  0  0  0  0
  1  2  2  0
  2  3  1  0
  3  4  2  3
  4  5  1  0
  5  6  1  0
  6  7  1  0
  7  8  2  0
  7  9  1  0
  9 10  1  0
 10 11  1  0
  3 12  1  0
 12 13  2  0
 13 14  1  0
 13 15  1  0
 15 16  1  0
 16 17  1  0
 17 18  1  0
 18 19  1  0
 19 20  2  0
 19 21  1  0
 21 22  1  0
 22 23  2  0
 23 24  1  0
 24 25  2  0
 25 26  1  0
 26 27  1  0
 26 28  2  0
 15  2  1  0
 28 22  1  0
 10  5  2  0
  1 29  1  0
  1 30  1  0
  4 31  1  0
 11 32  1  0
 12 33  1  0
 14 34  1  0
 14 35  1  0
 14 36  1  0
 16 37  1  0
 16 38  1  0
 17 39  1  0
 17 40  1  0
 23 41  1  0
 24 42  1  0
 25 43  1  0
 28 44  1  0
M  CHG  5   6  -1   9  -1  18  -1  21  -1  27  -1
M  END
>  <UniqueID>  (5) 
5

>  <SMILES>  (5) 
C=c1c(=Cc2[n-]c(=O)[n-]c2O)cc(C)n1CC[N-]C(=O)[N-]c1cccc([O-])c1

>  <Energy>  (5) 
108.49721197077561

>  <Genealogy>  (5) 
C=c1c(=Cc2[n-]c(=O)[n-]c2O)cc(C)n1CC[N-]C(=O)[N-]c1cccc([O-])c1 (protonated)
C=c1c(=Cc2[n-]c(=O)[n-]c2O)cc(C)n1CC[N-]C(=O)[N-]c1cccc([O-])c1 (3D coordinates assigned)
C=c1c(=Cc2[n-]c(=O)[n-]c2O)cc(C)n1CC[N-]C(=O)[N-]c1cccc([O-])c1 (optimized conformer: 108.49721197077561 kcal/mol)

>  <smiles>  (5) 
C=c1c(=Cc2[nH]c(=O)[nH]c2O)cc(C)n1CCNC(=O)Nc1cccc(O)c1

>  <score_type>  (5) 
oracle

>  <origin>  (5) 
adg

>  <m_score__min__energy>  (5) 
-18.129999999999999

>  <m_primary>  (5) 
energy

$$$$
5:0
     RDKit          3D

 60 62  0  0  0  0  0  0  0  0999 V2000
   58.0790   32.2890   42.7770 C   0  0  0  0  0  0  0  0  0  0  0  0
   57.7240   32.9030   44.1310 C   0  0  0  0  0  0  0  0  0  0  0  0
   58.0410   31.9640   45.2280 N   0  0  0  0  0  0  0  0  0  0  0  0
   58.9560   32.2880   46.2100 C   0  0  0  0  0  0  0  0  0  0  0  0
   59.7000   33.5200   46.1630 N   0  0  0  0  0  0  0  0  0  0  0  0
   59.1840   31.3930   47.2720 C   0  0  0  0  0  0  0  0  0  0  0  0
   60.0920   31.7280   48.3360 N   0  0  0  0  0  0  0  0  0  0  0  0
   61.3990   31.0570   48.3780 C   0  0  0  0  0  0  0  0  0  0  0  0
   62.3970   31.7590   47.4560 C   0  0  0  0  0  0  0  0  0  0  0  0
   62.0710   33.1300   47.3320 O   0  0  0  0  0  0  0  0  0  0  0  0
   63.1260   33.8330   46.7090 C   0  0  0  0  0  0  0  0  0  0  0  0
   59.7260   32.7620   49.2760 C   0  0  0  0  0  0  0  0  0  0  0  0
   59.0420   33.7460   48.8830 O   0  0  0  0  0  0  0  0  0  0  0  0
   60.0820   32.6710   50.7360 C   0  0  0  0  0  0  0  0  0  0  0  0
   58.9240   32.2420   51.5260 N   0  0  0  0  0  0  0  0  0  0  0  0
   58.4450   30.9830   51.5890 C   0  0  0  0  0  0  0  0  0  0  0  0
   57.3350   30.9460   52.4110 C   0  0  0  0  0  0  0  0  0  0  0  0
   56.5060   29.7690   52.7040 C   0  0  0  0  0  0  0  0  0  0  0  0
   56.8700   28.6340   52.2960 O   0  0  0  0  0  0  0  0  0  0  0  0
   55.2550   29.9370   53.3840 N   0  0  0  0  0  0  0  0  0  0  0  0
   54.1090   30.6630   52.9120 C   0  0  0  0  0  0  0  0  0  0  0  0
   53.0070   30.8090   53.7700 C   0  0  0  0  0  0  0  0  0  0  0  0
   51.8610   31.4840   53.3430 C   0  0  0  0  0  0  0  0  0  0  0  0
   51.7960   32.0030   52.0460 C   0  0  0  0  0  0  0  0  0  0  0  0
   50.6560   32.6710   51.6220 O   0  0  0  0  0  0  0  0  0  0  0  0
   52.8810   31.8450   51.1750 C   0  0  0  0  0  0  0  0  0  0  0  0
   54.0310   31.1740   51.6020 C   0  0  0  0  0  0  0  0  0  0  0  0
   57.1350   32.2300   52.8820 C   0  0  0  0  0  0  0  0  0  0  0  0
   58.1400   33.0000   52.3260 C   0  0  0  0  0  0  0  0  0  0  0  0
   58.2760   34.4830   52.5130 C   0  0  0  0  0  0  0  0  0  0  0  0
   58.5250   30.1630   47.2680 C   0  0  0  0  0  0  0  0  0  0  0  0
   58.7260   29.3230   48.1840 O   0  0  0  0  0  0  0  0  0  0  0  0
   57.6650   29.8650   46.2680 N   0  0  0  0  0  0  0  0  0  0  0  0
   57.4160   30.7400   45.2610 C   0  0  0  0  0  0  0  0  0  0  0  0
   56.6050   30.4010   44.3570 O   0  0  0  0  0  0  0  0  0  0  0  0
   58.6240   31.3464   42.9334 H   0  0  0  0  0  0  0  0  0  0  0  0
   57.1567   32.0898   42.2116 H   0  0  0  0  0  0  0  0  0  0  0  0
   58.7118   32.9889   42.2116 H   0  0  0  0  0  0  0  0  0  0  0  0
   58.3008   33.8293   44.2702 H   0  0  0  0  0  0  0  0  0  0  0  0
   56.6456   33.1193   44.1502 H   0  0  0  0  0  0  0  0  0  0  0  0
   59.9640   33.9860   45.2710 H   0  0  0  0  0  0  0  0  0  0  0  0
   60.0830   33.9570   47.0290 H   0  0  0  0  0  0  0  0  0  0  0  0
   61.7829   31.0783   49.4086 H   0  0  0  0  0  0  0  0  0  0  0  0
   61.2742   30.0182   48.0385 H   0  0  0  0  0  0  0  0  0  0  0  0
   63.4089   31.6633   47.8766 H   0  0  0  0  0  0  0  0  0  0  0  0
   62.3561   31.2903   46.4617 H   0  0  0  0  0  0  0  0  0  0  0  0
   63.7805   34.2691   47.4781 H   0  0  0  0  0  0  0  0  0  0  0  0
   63.7076   33.1413   46.0819 H   0  0  0  0  0  0  0  0  0  0  0  0
   62.7115   34.6361   46.0819 H   0  0  0  0  0  0  0  0  0  0  0  0
   60.8964   31.9428   50.8644 H   0  0  0  0  0  0  0  0  0  0  0  0
   60.3998   33.6646   51.0851 H   0  0  0  0  0  0  0  0  0  0  0  0
   58.8735   30.1160   51.0649 H   0  0  0  0  0  0  0  0  0  0  0  0
   53.0465   30.3888   54.7858 H   0  0  0  0  0  0  0  0  0  0  0  0
   51.0089   31.6074   54.0276 H   0  0  0  0  0  0  0  0  0  0  0  0
   52.8285   32.2494   50.1534 H   0  0  0  0  0  0  0  0  0  0  0  0
   54.8780   31.0448   50.9121 H   0  0  0  0  0  0  0  0  0  0  0  0
   56.3388   32.5699   53.5606 H   0  0  0  0  0  0  0  0  0  0  0  0
   58.2974   34.7166   53.5877 H   0  0  0  0  0  0  0  0  0  0  0  0
   59.2095   34.8276   52.0442 H   0  0  0  0  0  0  0  0  0  0  0  0
   57.4207   34.9917   52.0442 H   0  0  0  0  0  0  0  0  0  0  0  0
  1  2  1  0
  2  3  1  0
  3  4  1  0
  4  5  1  0
  4  6  2  0
  6  7  1  0
  7  8  1  0
  8  9  1  0
  9 10  1  0
 10 11  1  0
  7 12  1  0
 12 13  2  0
 12 14  1  0
 14 15  1  0
 15 16  1  0
 16 17  2  0
 17 18  1  0
 18 19  2  0
 18 20  1  0
 20 21  1  0
 21 22  2  0
 22 23  1  0
 23 24  2  0
 24 25  1  0
 24 26  1  0
 26 27  2  0
 17 28  1  0
 28 29  2  0
 29 30  1  0
  6 31  1  0
 31 32  2  0
 31 33  1  0
 33 34  1  0
 34 35  2  0
 34  3  1  0
 29 15  1  0
 27 21  1  0
  1 36  1  0
  1 37  1  0
  1 38  1  0
  2 39  1  0
  2 40  1  0
  5 41  1  0
  5 42  1  0
  8 43  1  0
  8 44  1  0
  9 45  1  0
  9 46  1  0
 11 47  1  0
 11 48  1  0
 11 49  1  0
 14 50  1  0
 14 51  1  0
 16 52  1  0
 22 53  1  0
 23 54  1  0
 26 55  1  0
 27 56  1  0
 28 57  1  0
 30 58  1  0
 30 59  1  0
 30 60  1  0
M  CHG  3  20  -1  25  -1  33  -1
M  END
>  <UniqueID>  (6) 
6

>  <SMILES>  (6) 
CCn1c(N)c(N(CCOC)C(=O)Cn2cc(C(=O)[N-]c3ccc([O-])cc3)cc2C)c(=O)[n-]c1=O

>  <Energy>  (6) 
98.159851838346

>  <Genealogy>  (6) 
CCn1c(N)c(N(CCOC)C(=O)Cn2cc(C(=O)[N-]c3ccc([O-])cc3)cc2C)c(=O)[n-]c1=O (protonated)
CCn1c(N)c(N(CCOC)C(=O)Cn2cc(C(=O)[N-]c3ccc([O-])cc3)cc2C)c(=O)[n-]c1=O (3D coordinates assigned)
CCn1c(N)c(N(CCOC)C(=O)Cn2cc(C(=O)[N-]c3ccc([O-])cc3)cc2C)c(=O)[n-]c1=O (optimized conformer: 98.159851838346 kcal/mol)

>  <smiles>  (6) 
CCn1c(N)c(N(CCOC)C(=O)Cn2cc(C(=O)Nc3ccc(O)cc3)cc2C)c(=O)[nH]c1=O

>  <score_type>  (6) 
oracle

>  <origin>  (6) 
adg

>  <m_score__min__energy>  (6) 
-13.5

>  <m_primary>  (6) 
energy

$$$$
6:0
     RDKit          3D

 66 69  0  0  0  0  0  0  0  0999 V2000
   57.4200   32.3280   41.0940 C   0  0  0  0  0  0  0  0  0  0  0  0
   57.1680   31.7450   42.3680 O   0  0  0  0  0  0  0  0  0  0  0  0
   57.7970   32.1350   43.5620 C   0  0  0  0  0  0  0  0  0  0  0  0
   58.2850   33.4420   43.7510 C   0  0  0  0  0  0  0  0  0  0  0  0
   58.9000   33.7990   44.9520 C   0  0  0  0  0  0  0  0  0  0  0  0
   59.0400   32.8610   45.9860 C   0  0  0  0  0  0  0  0  0  0  0  0
   59.7020   33.2050   47.2140 N   0  0  0  0  0  0  0  0  0  0  0  0
   59.0430   33.2350   48.4870 C   0  0  0  0  0  0  0  0  0  0  0  0
   57.9080   32.7050   48.6260 O   0  0  0  0  0  0  0  0  0  0  0  0
   59.6910   33.9220   49.6230 C   0  0  0  0  0  0  0  0  0  0  0  0
   59.7260   33.4610   50.8820 C   0  0  0  0  0  0  0  0  0  0  0  0
   59.5380   32.0450   51.2680 C   0  0  0  0  0  0  0  0  0  0  0  0
   58.5240   31.6870   52.1710 C   0  0  0  0  0  0  0  0  0  0  0  0
   58.2970   30.3790   52.4640 N   0  0  0  0  0  0  0  0  0  0  0  0
   59.0290   29.3830   51.9040 C   0  0  0  0  0  0  0  0  0  0  0  0
   60.0360   29.6880   50.9890 C   0  0  0  0  0  0  0  0  0  0  0  0
   60.2900   31.0250   50.6560 C   0  0  0  0  0  0  0  0  0  0  0  0
   61.3290   31.3430   49.7160 N   0  0  0  0  0  0  0  0  0  0  0  0
   62.5690   31.9610   50.2000 C   0  0  0  0  0  0  0  0  0  0  0  0
   63.1630   32.9390   49.1630 C   0  0  0  0  0  0  0  0  0  0  0  0
   62.6330   32.7420   47.7940 N   0  0  0  0  0  0  0  0  0  0  0  0
   63.5430   33.3350   46.8020 C   0  0  0  0  0  0  0  0  0  0  0  0
   62.4140   31.3160   47.5000 C   0  0  0  0  0  0  0  0  0  0  0  0
   61.2530   30.8040   48.3540 C   0  0  0  0  0  0  0  0  0  0  0  0
   58.5770   31.5550   45.7930 C   0  0  0  0  0  0  0  0  0  0  0  0
   57.9430   31.1910   44.5950 C   0  0  0  0  0  0  0  0  0  0  0  0
   57.3030   29.5560   44.3950 S   0  0  0  0  0  0  0  0  0  0  0  0
   56.0640   29.3830   45.2290 O   0  0  0  0  0  0  0  0  0  0  0  0
   56.9440   29.3650   42.9470 O   0  0  0  0  0  0  0  0  0  0  0  0
   58.5290   28.4010   44.8820 N   0  0  0  0  0  0  0  0  0  0  0  0
   58.7900   28.4570   46.3370 C   0  0  0  0  0  0  0  0  0  0  0  0
   58.0460   27.3580   47.1160 C   0  0  0  0  0  0  0  0  0  0  0  0
   56.8260   27.0480   46.4810 O   0  0  0  0  0  0  0  0  0  0  0  0
   57.0700   26.3950   45.2470 C   0  0  0  0  0  0  0  0  0  0  0  0
   58.2110   27.0370   44.4240 C   0  0  0  0  0  0  0  0  0  0  0  0
   57.8532   33.3301   41.2286 H   0  0  0  0  0  0  0  0  0  0  0  0
   58.1252   31.6958   40.5345 H   0  0  0  0  0  0  0  0  0  0  0  0
   56.4764   32.4085   40.5345 H   0  0  0  0  0  0  0  0  0  0  0  0
   58.1810   34.1861   42.9476 H   0  0  0  0  0  0  0  0  0  0  0  0
   59.2776   34.8230   45.0888 H   0  0  0  0  0  0  0  0  0  0  0  0
   60.7370   33.3580   47.1910 H   0  0  0  0  0  0  0  0  0  0  0  0
   60.1823   34.8852   49.4209 H   0  0  0  0  0  0  0  0  0  0  0  0
   59.9078   34.1888   51.6865 H   0  0  0  0  0  0  0  0  0  0  0  0
   57.9106   32.4684   52.6434 H   0  0  0  0  0  0  0  0  0  0  0  0
   58.8280   28.3352   52.1718 H   0  0  0  0  0  0  0  0  0  0  0  0
   60.6284   28.8824   50.5306 H   0  0  0  0  0  0  0  0  0  0  0  0
   62.3541   32.5121   51.1274 H   0  0  0  0  0  0  0  0  0  0  0  0
   63.3037   31.1617   50.3773 H   0  0  0  0  0  0  0  0  0  0  0  0
   62.9322   33.9664   49.4812 H   0  0  0  0  0  0  0  0  0  0  0  0
   64.2456   32.7484   49.1214 H   0  0  0  0  0  0  0  0  0  0  0  0
   64.3558   33.8646   47.3205 H   0  0  0  0  0  0  0  0  0  0  0  0
   63.9672   32.5394   46.1718 H   0  0  0  0  0  0  0  0  0  0  0  0
   62.9865   34.0444   46.1718 H   0  0  0  0  0  0  0  0  0  0  0  0
   62.1706   31.1923   46.4344 H   0  0  0  0  0  0  0  0  0  0  0  0
   63.3253   30.7448   47.7309 H   0  0  0  0  0  0  0  0  0  0  0  0
   60.3032   31.1163   47.8954 H   0  0  0  0  0  0  0  0  0  0  0  0
   61.3115   29.7068   48.4060 H   0  0  0  0  0  0  0  0  0  0  0  0
   58.7111   30.8064   46.5877 H   0  0  0  0  0  0  0  0  0  0  0  0
   59.8705   28.3380   46.5057 H   0  0  0  0  0  0  0  0  0  0  0  0
   58.4260   29.4284   46.7029 H   0  0  0  0  0  0  0  0  0  0  0  0
   58.6730   26.4551   47.1577 H   0  0  0  0  0  0  0  0  0  0  0  0
   57.8376   27.7197   48.1337 H   0  0  0  0  0  0  0  0  0  0  0  0
   57.3366   25.3480   45.4539 H   0  0  0  0  0  0  0  0  0  0  0  0
   56.1513   26.4813   44.6483 H   0  0  0  0  0  0  0  0  0  0  0  0
   59.1114   26.4124   44.5196 H   0  0  0  0  0  0  0  0  0  0  0  0
   57.8774   27.1015   43.3778 H   0  0  0  0  0  0  0  0  0  0  0  0
  1  2  1  0
  2  3  1  0
  3  4  2  0
  4  5  1  0
  5  6  2  0
  6  7  1  0
  7  8  1  0
  8  9  2  0
  8 10  1  0
 10 11  2  3
 11 12  1  0
 12 13  2  0
 13 14  1  0
 14 15  2  0
 15 16  1  0
 16 17  2  0
 17 18  1  0
 18 19  1  0
 19 20  1  0
 20 21  1  0
 21 22  1  0
 21 23  1  0
 23 24  1  0
  6 25  1  0
 25 26  2  0
 26 27  1  0
 27 28  2  0
 27 29  2  0
 27 30  1  0
 30 31  1  0
 31 32  1  0
 32 33  1  0
 33 34  1  0
 34 35  1  0
 26  3  1  0
 35 30  1  0
 17 12  1  0
 24 18  1  0
  1 36  1  0
  1 37  1  0
  1 38  1  0
  4 39  1  0
  5 40  1  0
  7 41  1  0
 10 42  1  0
 11 43  1  0
 13 44  1  0
 15 45  1  0
 16 46  1  0
 19 47  1  0
 19 48  1  0
 20 49  1  0
 20 50  1  0
 22 51  1  0
 22 52  1  0
 22 53  1  0
 23 54  1  0
 23 55  1  0
 24 56  1  0
 24 57  1  0
 25 58  1  0
 31 59  1  0
 31 60  1  0
 32 61  1  0
 32 62  1  0
 34 63  1  0
 34 64  1  0
 35 65  1  0
 35 66  1  0
M  END
>  <UniqueID>  (7) 
7

>  <SMILES>  (7) 
COc1ccc(NC(=O)C=Cc2cnccc2N2CCN(C)CC2)cc1S(=O)(=O)N1CCOCC1

>  <Energy>  (7) 
100.06944525045121

>  <Genealogy>  (7) 
COc1ccc(NC(=O)C=Cc2cnccc2N2CCN(C)CC2)cc1S(=O)(=O)N1CCOCC1 (3D coordinates assigned)
COc1ccc(NC(=O)C=Cc2cnccc2N2CCN(C)CC2)cc1S(=O)(=O)N1CCOCC1 (nonaromatic ring conformer: 100.06944525045121 kcal/mol)

>  <smiles>  (7) 
COc1ccc(NC(=O)C=Cc2cnccc2N2CCN(C)CC2)cc1S(=O)(=O)N1CCOCC1

>  <score_type>  (7) 
oracle

>  <origin>  (7) 
adg

>  <m_score__min__energy>  (7) 
-8.8900000000000006

>  <m_primary>  (7) 
energy

$$$$
7:0
     RDKit          3D

 57 61  0  0  0  0  0  0  0  0999 V2000
   54.9340   31.2080   51.9640 C   0  0  0  0  0  0  0  0  0  0  0  0
   54.5650   30.4660   53.0200 C   0  0  0  0  0  0  0  0  0  0  0  0
   53.2700   30.3140   53.5440 C   0  0  0  0  0  0  0  0  0  0  0  0
   52.0710   30.7050   53.0720 C   0  0  0  0  0  0  0  0  0  0  0  0
   51.7640   31.0210   51.6690 C   0  0  0  0  0  0  0  0  0  0  0  0
   51.9510   30.1790   50.6350 N   0  0  0  0  0  0  0  0  0  0  0  0
   51.3860   30.8300   49.5960 C   0  0  0  0  0  0  0  0  0  0  0  0
   51.3710   30.3590   48.4290 O   0  0  0  0  0  0  0  0  0  0  0  0
   50.8270   32.0190   49.9090 N   0  0  0  0  0  0  0  0  0  0  0  0
   51.0630   32.1170   51.2270 C   0  0  0  0  0  0  0  0  0  0  0  0
   50.6420   33.1830   52.0120 O   0  0  0  0  0  0  0  0  0  0  0  0
   53.4130   29.6150   54.7330 C   0  0  0  0  0  0  0  0  0  0  0  0
   54.7530   29.3200   54.8650 C   0  0  0  0  0  0  0  0  0  0  0  0
   55.3500   28.5380   55.9960 C   0  0  0  0  0  0  0  0  0  0  0  0
   55.4510   29.8240   53.8250 N   0  0  0  0  0  0  0  0  0  0  0  0
   56.8810   29.7710   53.6840 C   0  0  0  0  0  0  0  0  0  0  0  0
   57.4600   28.9680   52.6940 C   0  0  0  0  0  0  0  0  0  0  0  0
   58.8510   28.8930   52.5730 C   0  0  0  0  0  0  0  0  0  0  0  0
   59.6800   29.6180   53.4450 C   0  0  0  0  0  0  0  0  0  0  0  0
   61.1130   29.5230   53.3330 N   0  0  0  0  0  0  0  0  0  0  0  0
   61.9870   30.0230   54.4000 C   0  0  0  0  0  0  0  0  0  0  0  0
   63.1060   30.9190   53.8240 C   0  0  0  0  0  0  0  0  0  0  0  0
   63.3310   30.7100   52.3710 N   0  0  0  0  0  0  0  0  0  0  0  0
   64.6530   31.1930   51.9970 C   0  0  0  0  0  0  0  0  0  0  0  0
   65.5010   31.3490   52.8670 O   0  0  0  0  0  0  0  0  0  0  0  0
   65.0590   31.5380   50.5730 C   0  0  0  0  0  0  0  0  0  0  0  0
   64.9510   33.0040   50.1810 C   0  0  0  0  0  0  0  0  0  0  0  0
   66.3220   32.3560   50.3410 C   0  0  0  0  0  0  0  0  0  0  0  0
   63.1800   29.2880   51.9950 C   0  0  0  0  0  0  0  0  0  0  0  0
   61.7200   28.8430   52.1790 C   0  0  0  0  0  0  0  0  0  0  0  0
   59.0940   30.4110   54.4460 C   0  0  0  0  0  0  0  0  0  0  0  0
   57.7040   30.4880   54.5620 C   0  0  0  0  0  0  0  0  0  0  0  0
   55.9896   31.2400   51.6562 H   0  0  0  0  0  0  0  0  0  0  0  0
   54.1808   31.7841   51.4065 H   0  0  0  0  0  0  0  0  0  0  0  0
   51.2503   30.7959   53.7987 H   0  0  0  0  0  0  0  0  0  0  0  0
   52.6107   29.3472   55.4363 H   0  0  0  0  0  0  0  0  0  0  0  0
   55.0212   28.9687   56.9533 H   0  0  0  0  0  0  0  0  0  0  0  0
   55.0195   27.4907   55.9323 H   0  0  0  0  0  0  0  0  0  0  0  0
   56.4473   28.5807   55.9323 H   0  0  0  0  0  0  0  0  0  0  0  0
   56.8185   28.3942   52.0091 H   0  0  0  0  0  0  0  0  0  0  0  0
   59.2987   28.2627   51.7905 H   0  0  0  0  0  0  0  0  0  0  0  0
   61.3870   30.6093   55.1115 H   0  0  0  0  0  0  0  0  0  0  0  0
   62.4513   29.1630   54.9049 H   0  0  0  0  0  0  0  0  0  0  0  0
   62.8307   31.9713   53.9876 H   0  0  0  0  0  0  0  0  0  0  0  0
   64.0389   30.6515   54.3418 H   0  0  0  0  0  0  0  0  0  0  0  0
   62.5920   31.2410   51.8580 H   0  0  0  0  0  0  0  0  0  0  0  0
   64.6896   30.5805   50.1772 H   0  0  0  0  0  0  0  0  0  0  0  0
   64.5866   33.2805   49.1806 H   0  0  0  0  0  0  0  0  0  0  0  0
   64.4541   33.8885   50.6063 H   0  0  0  0  0  0  0  0  0  0  0  0
   66.9468   32.1646   49.4561 H   0  0  0  0  0  0  0  0  0  0  0  0
   67.2243   32.5786   50.9295 H   0  0  0  0  0  0  0  0  0  0  0  0
   63.4697   29.1578   50.9419 H   0  0  0  0  0  0  0  0  0  0  0  0
   63.8264   28.6752   52.6405 H   0  0  0  0  0  0  0  0  0  0  0  0
   61.1494   29.0913   51.2719 H   0  0  0  0  0  0  0  0  0  0  0  0
   61.6998   27.7576   52.3562 H   0  0  0  0  0  0  0  0  0  0  0  0
   59.7331   30.9741   55.1420 H   0  0  0  0  0  0  0  0  0  0  0  0
   57.2538   31.1144   55.3462 H   0  0  0  0  0  0  0  0  0  0  0  0
  1  2  2  0
  2  3  1  0
  3  4  2  3
  4  5  1  0
  5  6  1  0
  6  7  1  0
  7  8  2  0
  7  9  1  0
  9 10  1  0
 10 11  1  0
  3 12  1  0
 12 13  2  0
 13 14  1  0
 13 15  1  0
 15 16  1  0
 16 17  2  0
 17 18  1  0
 18 19  2  0
 19 20  1  0
 20 21  1  0
 21 22  1  0
 22 23  1  0
 23 24  1  0
 24 25  2  0
 24 26  1  0
 26 27  1  0
 27 28  1  0
 23 29  1  0
 29 30  1  0
 19 31  1  0
 31 32  2  0
 15  2  1  0
 32 16  1  0
 10  5  2  0
 30 20  1  0
 28 26  1  0
  1 33  1  0
  1 34  1  0
  4 35  1  0
 12 36  1  0
 14 37  1  0
 14 38  1  0
 14 39  1  0
 17 40  1  0
 18 41  1  0
 21 42  1  0
 21 43  1  0
 22 44  1  0
 22 45  1  0
 23 46  1  0
 26 47  1  0
 27 48  1  0
 27 49  1  0
 28 50  1  0
 28 51  1  0
 29 52  1  0
 29 53  1  0
 30 54  1  0
 30 55  1  0
 31 56  1  0
 32 57  1  0
M  CHG  4   6  -1   9  -1  11  -1  23   1
M  END
>  <UniqueID>  (8) 
8

>  <SMILES>  (8) 
C=c1c(=Cc2[n-]c(=O)[n-]c2[O-])cc(C)n1-c1ccc(N2CC[NH+](C(=O)C3CC3)CC2)cc1

>  <Energy>  (8) 
414.1555636376154

>  <Genealogy>  (8) 
C=c1c(=Cc2[n-]c(=O)[n-]c2[O-])cc(C)n1-c1ccc(N2CC[NH+](C(=O)C3CC3)CC2)cc1 (protonated)
C=c1c(=Cc2[n-]c(=O)[n-]c2[O-])cc(C)n1-c1ccc(N2CC[NH+](C(=O)C3CC3)CC2)cc1 (3D coordinates assigned)
C=c1c(=Cc2[n-]c(=O)[n-]c2[O-])cc(C)n1-c1ccc(N2CC[NH+](C(=O)C3CC3)CC2)cc1 (nonaromatic ring conformer: 414.1555636376154 kcal/mol)

>  <smiles>  (8) 
C=c1c(=Cc2[nH]c(=O)[nH]c2O)cc(C)n1-c1ccc(N2CCN(C(=O)C3CC3)CC2)cc1

>  <score_type>  (8) 
oracle

>  <origin>  (8) 
adg

>  <m_score__min__energy>  (8) 
-15.279999999999999

>  <m_primary>  (8) 
energy

$$$$
8:0
     RDKit          3D

 50 53  0  0  0  0  0  0  0  0999 V2000
   55.1170   29.3780   45.0890 O   0  0  0  0  0  0  0  0  0  0  0  0
   56.3380   29.3370   44.7790 C   0  0  0  0  0  0  0  0  0  0  0  0
   57.0850   28.1170   44.8840 N   0  0  0  0  0  0  0  0  0  0  0  0
   57.7530   27.7080   45.9250 C   0  0  0  0  0  0  0  0  0  0  0  0
   58.5560   28.5060   46.6660 N   0  0  0  0  0  0  0  0  0  0  0  0
   59.0030   27.6770   47.6290 C   0  0  0  0  0  0  0  0  0  0  0  0
   59.8770   28.0670   48.6360 O   0  0  0  0  0  0  0  0  0  0  0  0
   58.4820   26.4160   47.4740 C   0  0  0  0  0  0  0  0  0  0  0  0
   57.6870   26.4370   46.3900 N   0  0  0  0  0  0  0  0  0  0  0  0
   56.9570   25.3250   45.8360 C   0  0  0  0  0  0  0  0  0  0  0  0
   57.6340   24.1450   45.4830 C   0  0  0  0  0  0  0  0  0  0  0  0
   56.9340   23.0560   44.9570 C   0  0  0  0  0  0  0  0  0  0  0  0
   55.5520   23.1310   44.7830 C   0  0  0  0  0  0  0  0  0  0  0  0
   54.8660   24.2970   45.1310 C   0  0  0  0  0  0  0  0  0  0  0  0
   55.5610   25.3970   45.6540 C   0  0  0  0  0  0  0  0  0  0  0  0
   54.8710   26.5660   45.9750 O   0  0  0  0  0  0  0  0  0  0  0  0
   56.9940   30.5010   44.2630 N   0  0  0  0  0  0  0  0  0  0  0  0
   57.7180   31.4830   45.0200 C   0  0  0  0  0  0  0  0  0  0  0  0
   57.2810   32.8130   44.9860 C   0  0  0  0  0  0  0  0  0  0  0  0
   57.9690   33.8040   45.6920 C   0  0  0  0  0  0  0  0  0  0  0  0
   59.1150   33.4780   46.4280 C   0  0  0  0  0  0  0  0  0  0  0  0
   59.9860   34.7320   47.3140 S   0  0  0  0  0  0  0  0  0  0  0  0
   59.9700   36.0040   46.5130 O   0  0  0  0  0  0  0  0  0  0  0  0
   59.2830   34.9960   48.6170 O   0  0  0  0  0  0  0  0  0  0  0  0
   61.6410   34.2740   47.6340 N   0  0  0  0  0  0  0  0  0  0  0  0
   62.2950   33.8050   46.4030 C   0  0  0  0  0  0  0  0  0  0  0  0
   63.7500   33.3860   46.7020 C   0  0  0  0  0  0  0  0  0  0  0  0
   64.0570   33.4800   48.0810 O   0  0  0  0  0  0  0  0  0  0  0  0
   63.1400   32.7060   48.8310 C   0  0  0  0  0  0  0  0  0  0  0  0
   61.6970   33.2280   48.6670 C   0  0  0  0  0  0  0  0  0  0  0  0
   59.5690   32.1530   46.4490 C   0  0  0  0  0  0  0  0  0  0  0  0
   58.8810   31.1610   45.7430 C   0  0  0  0  0  0  0  0  0  0  0  0
   58.6791   25.5471   48.1191 H   0  0  0  0  0  0  0  0  0  0  0  0
   58.7232   24.0782   45.6218 H   0  0  0  0  0  0  0  0  0  0  0  0
   57.4735   22.1383   44.6798 H   0  0  0  0  0  0  0  0  0  0  0  0
   55.0022   22.2717   44.3716 H   0  0  0  0  0  0  0  0  0  0  0  0
   53.7760   24.3526   44.9942 H   0  0  0  0  0  0  0  0  0  0  0  0
   55.1510   27.4670   45.6050 H   0  0  0  0  0  0  0  0  0  0  0  0
   56.3896   33.0799   44.3993 H   0  0  0  0  0  0  0  0  0  0  0  0
   57.6091   34.8432   45.6694 H   0  0  0  0  0  0  0  0  0  0  0  0
   61.7425   32.9417   46.0037 H   0  0  0  0  0  0  0  0  0  0  0  0
   62.2996   34.6204   45.6647 H   0  0  0  0  0  0  0  0  0  0  0  0
   63.8937   32.3452   46.3765 H   0  0  0  0  0  0  0  0  0  0  0  0
   64.4187   34.0694   46.1580 H   0  0  0  0  0  0  0  0  0  0  0  0
   63.1848   31.6629   48.4847 H   0  0  0  0  0  0  0  0  0  0  0  0
   63.4152   32.7765   49.8937 H   0  0  0  0  0  0  0  0  0  0  0  0
   61.0418   32.3945   48.3739 H   0  0  0  0  0  0  0  0  0  0  0  0
   61.3626   33.6552   49.6239 H   0  0  0  0  0  0  0  0  0  0  0  0
   60.4702   31.8917   47.0231 H   0  0  0  0  0  0  0  0  0  0  0  0
   59.2507   30.1250   45.7531 H   0  0  0  0  0  0  0  0  0  0  0  0
  1  2  2  0
  2  3  1  0
  3  4  2  3
  4  5  1  0
  5  6  1  0
  6  7  1  0
  6  8  2  0
  8  9  1  0
  9 10  1  0
 10 11  2  0
 11 12  1  0
 12 13  2  0
 13 14  1  0
 14 15  2  0
 15 16  1  0
  2 17  1  0
 17 18  1  0
 18 19  2  0
 19 20  1  0
 20 21  2  0
 21 22  1  0
 22 23  2  0
 22 24  2  0
 22 25  1  0
 25 26  1  0
 26 27  1  0
 27 28  1  0
 28 29  1  0
 29 30  1  0
 21 31  1  0
 31 32  2  0
  9  4  1  0
 15 10  1  0
 32 18  1  0
 30 25  1  0
  8 33  1  0
 11 34  1  0
 12 35  1  0
 13 36  1  0
 14 37  1  0
 16 38  1  0
 19 39  1  0
 20 40  1  0
 26 41  1  0
 26 42  1  0
 27 43  1  0
 27 44  1  0
 29 45  1  0
 29 46  1  0
 30 47  1  0
 30 48  1  0
 31 49  1  0
 32 50  1  0
M  CHG  3   5  -1   7  -1  17  -1
M  END
>  <UniqueID>  (9) 
9

>  <SMILES>  (9) 
O=C(N=c1[n-]c([O-])cn1-c1ccccc1O)[N-]c1ccc(S(=O)(=O)N2CCOCC2)cc1

>  <Energy>  (9) 
102.78636686978103

>  <Genealogy>  (9) 
O=C(N=c1[n-]c([O-])cn1-c1ccccc1O)[N-]c1ccc(S(=O)(=O)N2CCOCC2)cc1 (protonated)
O=C(N=c1[n-]c([O-])cn1-c1ccccc1O)[N-]c1ccc(S(=O)(=O)N2CCOCC2)cc1 (3D coordinates assigned)
O=C(N=c1[n-]c([O-])cn1-c1ccccc1O)[N-]c1ccc(S(=O)(=O)N2CCOCC2)cc1 (nonaromatic ring conformer: 102.78636686978103 kcal/mol)

>  <smiles>  (9) 
O=C(N=c1[nH]c(O)cn1-c1ccccc1O)Nc1ccc(S(=O)(=O)N2CCOCC2)cc1

>  <score_type>  (9) 
oracle

>  <origin>  (9) 
adg

>  <m_score__min__energy>  (9) 
-14.880000000000001

>  <m_primary>  (9) 
energy

$$$$
9:0
     RDKit          3D

 48 51  0  0  0  0  0  0  0  0999 V2000
   60.3070   27.7980   46.5490 C   0  0  0  0  0  0  0  0  0  0  0  0
   59.3130   28.6660   46.3120 C   0  0  0  0  0  0  0  0  0  0  0  0
   58.1490   28.4460   45.5560 C   0  0  0  0  0  0  0  0  0  0  0  0
   57.6210   27.3120   45.0570 C   0  0  0  0  0  0  0  0  0  0  0  0
   57.1670   26.1570   45.8490 C   0  0  0  0  0  0  0  0  0  0  0  0
   57.9800   25.2400   46.4030 N   0  0  0  0  0  0  0  0  0  0  0  0
   57.1370   24.4780   47.1340 C   0  0  0  0  0  0  0  0  0  0  0  0
   57.5270   23.4850   47.8010 O   0  0  0  0  0  0  0  0  0  0  0  0
   55.8460   24.8720   47.1040 N   0  0  0  0  0  0  0  0  0  0  0  0
   55.8860   25.9450   46.2970 C   0  0  0  0  0  0  0  0  0  0  0  0
   54.7750   26.7160   45.9810 O   0  0  0  0  0  0  0  0  0  0  0  0
   57.5520   29.6860   45.3940 C   0  0  0  0  0  0  0  0  0  0  0  0
   58.3130   30.5930   46.1040 C   0  0  0  0  0  0  0  0  0  0  0  0
   58.0290   32.0600   46.2050 C   0  0  0  0  0  0  0  0  0  0  0  0
   59.3780   29.9760   46.6560 N   0  0  0  0  0  0  0  0  0  0  0  0
   60.4170   30.6230   47.4100 C   0  0  0  0  0  0  0  0  0  0  0  0
   61.3430   31.4350   46.7500 C   0  0  0  0  0  0  0  0  0  0  0  0
   62.3650   32.0660   47.4630 C   0  0  0  0  0  0  0  0  0  0  0  0
   62.4820   31.9010   48.8590 C   0  0  0  0  0  0  0  0  0  0  0  0
   63.5680   32.5480   49.6730 C   0  0  0  0  0  0  0  0  0  0  0  0
   63.2800   33.6000   50.3090 O   0  0  0  0  0  0  0  0  0  0  0  0
   64.9250   32.0390   49.7870 N   0  0  0  0  0  0  0  0  0  0  0  0
   65.1050   31.0100   50.8280 C   0  0  0  0  0  0  0  0  0  0  0  0
   66.3720   31.3480   51.6070 C   0  0  0  0  0  0  0  0  0  0  0  0
   67.0210   32.5020   50.8640 C   0  0  0  0  0  0  0  0  0  0  0  0
   65.9210   33.0980   50.0050 C   0  0  0  0  0  0  0  0  0  0  0  0
   61.5360   31.0830   49.5120 C   0  0  0  0  0  0  0  0  0  0  0  0
   60.5110   30.4520   48.7990 C   0  0  0  0  0  0  0  0  0  0  0  0
   59.3410   29.4690   49.6690 Cl  0  0  0  0  0  0  0  0  0  0  0  0
   61.1678   28.1018   47.1627 H   0  0  0  0  0  0  0  0  0  0  0  0
   60.2617   26.7820   46.1297 H   0  0  0  0  0  0  0  0  0  0  0  0
   57.5203   27.2428   43.9638 H   0  0  0  0  0  0  0  0  0  0  0  0
   56.6453   29.9056   44.8112 H   0  0  0  0  0  0  0  0  0  0  0  0
   57.9728   32.3505   47.2645 H   0  0  0  0  0  0  0  0  0  0  0  0
   58.8346   32.6242   45.7124 H   0  0  0  0  0  0  0  0  0  0  0  0
   57.0710   32.2828   45.7124 H   0  0  0  0  0  0  0  0  0  0  0  0
   61.2667   31.5782   45.6620 H   0  0  0  0  0  0  0  0  0  0  0  0
   63.0881   32.6999   46.9289 H   0  0  0  0  0  0  0  0  0  0  0  0
   65.1710   31.5850   48.8730 H   0  0  0  0  0  0  0  0  0  0  0  0
   64.2387   31.0085   51.5059 H   0  0  0  0  0  0  0  0  0  0  0  0
   65.1907   30.0132   50.3708 H   0  0  0  0  0  0  0  0  0  0  0  0
   66.1207   31.6477   52.6351 H   0  0  0  0  0  0  0  0  0  0  0  0
   67.0466   30.4819   51.6769 H   0  0  0  0  0  0  0  0  0  0  0  0
   67.4031   33.2504   51.5738 H   0  0  0  0  0  0  0  0  0  0  0  0
   67.8773   32.1690   50.2591 H   0  0  0  0  0  0  0  0  0  0  0  0
   65.4581   33.9513   50.5223 H   0  0  0  0  0  0  0  0  0  0  0  0
   66.3235   33.4616   49.0480 H   0  0  0  0  0  0  0  0  0  0  0  0
   61.6055   30.9389   50.6003 H   0  0  0  0  0  0  0  0  0  0  0  0
  1  2  2  0
  2  3  1  0
  3  4  2  3
  4  5  1  0
  5  6  1  0
  6  7  1  0
  7  8  2  0
  7  9  1  0
  9 10  1  0
 10 11  1  0
  3 12  1  0
 12 13  2  0
 13 14  1  0
 13 15  1  0
 15 16  1  0
 16 17  2  0
 17 18  1  0
 18 19  2  0
 19 20  1  0
 20 21  2  0
 20 22  1  0
 22 23  1  0
 23 24  1  0
 24 25  1  0
 25 26  1  0
 19 27  1  0
 27 28  2  0
 28 29  1  0
 15  2  1  0
 28 16  1  0
 10  5  2  0
 26 22  1  0
  1 30  1  0
  1 31  1  0
  4 32  1  0
 12 33  1  0
 14 34  1  0
 14 35  1  0
 14 36  1  0
 17 37  1  0
 18 38  1  0
 22 39  1  0
 23 40  1  0
 23 41  1  0
 24 42  1  0
 24 43  1  0
 25 44  1  0
 25 45  1  0
 26 46  1  0
 26 47  1  0
 27 48  1  0
M  CHG  4   6  -1   9  -1  11  -1  22   1
M  END
>  <UniqueID>  (10) 
10

>  <SMILES>  (10) 
C=c1c(=Cc2[n-]c(=O)[n-]c2[O-])cc(C)n1-c1ccc(C(=O)[NH+]2CCCC2)cc1Cl

>  <Energy>  (10) 
137.26815917941738

>  <Genealogy>  (10) 
C=c1c(=Cc2[n-]c(=O)[n-]c2[O-])cc(C)n1-c1ccc(C(=O)[NH+]2CCCC2)cc1Cl (protonated)
C=c1c(=Cc2[n-]c(=O)[n-]c2[O-])cc(C)n1-c1ccc(C(=O)[NH+]2CCCC2)cc1Cl (3D coordinates assigned)
C=c1c(=Cc2[n-]c(=O)[n-]c2[O-])cc(C)n1-c1ccc(C(=O)[NH+]2CCCC2)cc1Cl (nonaromatic ring conformer: 137.26815917941738 kcal/mol)

>  <smiles>  (10) 
C=c1c(=Cc2[nH]c(=O)[nH]c2O)cc(C)n1-c1ccc(C(=O)N2CCCC2)cc1Cl

>  <score_type>  (10) 
oracle

>  <origin>  (10) 
adg

>  <m_score__min__energy>  (10) 
-14.58

>  <m_primary>  (10) 
energy

$$$$
10:0
     RDKit          3D

 65 68  0  0  0  0  0  0  0  0999 V2000
   55.8970   24.2080   44.4660 C   0  0  0  0  0  0  0  0  0  0  0  0
   54.9620   24.8380   45.8430 S   0  0  0  0  0  0  0  0  0  0  0  0
   53.4990   24.6170   45.5690 O   0  0  0  0  0  0  0  0  0  0  0  0
   55.3650   24.1090   47.0950 O   0  0  0  0  0  0  0  0  0  0  0  0
   55.2840   26.5340   46.0140 N   0  0  0  0  0  0  0  0  0  0  0  0
   56.5360   27.1780   45.7320 C   0  0  0  0  0  0  0  0  0  0  0  0
   57.7610   26.5030   45.8800 C   0  0  0  0  0  0  0  0  0  0  0  0
   58.9680   27.1740   45.6670 C   0  0  0  0  0  0  0  0  0  0  0  0
   58.9680   28.5150   45.2850 C   0  0  0  0  0  0  0  0  0  0  0  0
   57.7570   29.1940   45.0880 C   0  0  0  0  0  0  0  0  0  0  0  0
   57.7830   30.6100   44.6740 C   0  0  0  0  0  0  0  0  0  0  0  0
   57.7330   30.9630   43.3190 C   0  0  0  0  0  0  0  0  0  0  0  0
   57.7700   32.3100   42.9630 C   0  0  0  0  0  0  0  0  0  0  0  0
   57.8390   33.2910   43.9510 C   0  0  0  0  0  0  0  0  0  0  0  0
   57.8820   32.9090   45.3070 C   0  0  0  0  0  0  0  0  0  0  0  0
   57.9070   33.7750   46.2810 N   0  0  0  0  0  0  0  0  0  0  0  0
   58.9050   34.8200   46.5190 C   0  0  0  0  0  0  0  0  0  0  0  0
   59.9580   34.3390   47.4800 C   0  0  0  0  0  0  0  0  0  0  0  0
   61.2790   34.1690   47.0350 C   0  0  0  0  0  0  0  0  0  0  0  0
   62.2690   33.7300   47.9150 C   0  0  0  0  0  0  0  0  0  0  0  0
   61.9500   33.4530   49.2470 C   0  0  0  0  0  0  0  0  0  0  0  0
   60.6300   33.5970   49.7020 C   0  0  0  0  0  0  0  0  0  0  0  0
   60.3120   33.3050   51.1090 C   0  0  0  0  0  0  0  0  0  0  0  0
   61.2580   33.0800   51.9110 O   0  0  0  0  0  0  0  0  0  0  0  0
   58.9630   33.2390   51.5970 N   0  0  0  0  0  0  0  0  0  0  0  0
   57.9310   32.2740   51.2140 C   0  0  0  0  0  0  0  0  0  0  0  0
   58.4410   30.8240   51.2450 C   0  0  0  0  0  0  0  0  0  0  0  0
   59.3880   30.5400   50.1460 N   0  0  0  0  0  0  0  0  0  0  0  0
   59.6800   29.0940   50.0450 C   0  0  0  0  0  0  0  0  0  0  0  0
   60.4580   28.7760   48.7510 C   0  0  0  0  0  0  0  0  0  0  0  0
   60.9280   29.9580   48.1350 O   0  0  0  0  0  0  0  0  0  0  0  0
   59.8240   30.7410   47.7130 C   0  0  0  0  0  0  0  0  0  0  0  0
   58.8440   31.0360   48.8680 C   0  0  0  0  0  0  0  0  0  0  0  0
   59.6380   34.0490   48.8170 C   0  0  0  0  0  0  0  0  0  0  0  0
   57.8680   31.5850   45.6200 N   0  0  0  0  0  0  0  0  0  0  0  0
   56.5370   28.5300   45.3250 C   0  0  0  0  0  0  0  0  0  0  0  0
   55.3370   29.2300   45.1770 O   0  0  0  0  0  0  0  0  0  0  0  0
   56.7551   23.6298   44.8393 H   0  0  0  0  0  0  0  0  0  0  0  0
   55.2550   23.5576   43.8538 H   0  0  0  0  0  0  0  0  0  0  0  0
   56.2588   25.0472   43.8538 H   0  0  0  0  0  0  0  0  0  0  0  0
   57.7689   25.4406   46.1651 H   0  0  0  0  0  0  0  0  0  0  0  0
   59.9216   26.6424   45.8012 H   0  0  0  0  0  0  0  0  0  0  0  0
   59.9219   29.0425   45.1376 H   0  0  0  0  0  0  0  0  0  0  0  0
   57.6653   30.1851   42.5442 H   0  0  0  0  0  0  0  0  0  0  0  0
   57.7447   32.5991   41.9020 H   0  0  0  0  0  0  0  0  0  0  0  0
   57.8597   34.3554   43.6743 H   0  0  0  0  0  0  0  0  0  0  0  0
   59.3820   35.0881   45.5648 H   0  0  0  0  0  0  0  0  0  0  0  0
   58.4029   35.6969   46.9536 H   0  0  0  0  0  0  0  0  0  0  0  0
   61.5348   34.3831   45.9868 H   0  0  0  0  0  0  0  0  0  0  0  0
   63.3021   33.6018   47.5596 H   0  0  0  0  0  0  0  0  0  0  0  0
   62.7360   33.1210   49.9413 H   0  0  0  0  0  0  0  0  0  0  0  0
   57.0857   32.3657   51.9119 H   0  0  0  0  0  0  0  0  0  0  0  0
   57.6285   32.5001   50.1809 H   0  0  0  0  0  0  0  0  0  0  0  0
   58.9492   30.6480   52.2045 H   0  0  0  0  0  0  0  0  0  0  0  0
   57.5734   30.1589   51.1227 H   0  0  0  0  0  0  0  0  0  0  0  0
   60.2835   28.7875   50.9121 H   0  0  0  0  0  0  0  0  0  0  0  0
   58.7272   28.5447   50.0250 H   0  0  0  0  0  0  0  0  0  0  0  0
   61.3164   28.1335   48.9969 H   0  0  0  0  0  0  0  0  0  0  0  0
   59.7792   28.2648   48.0525 H   0  0  0  0  0  0  0  0  0  0  0  0
   60.1983   31.6951   47.3135 H   0  0  0  0  0  0  0  0  0  0  0  0
   59.2798   30.1717   46.9451 H   0  0  0  0  0  0  0  0  0  0  0  0
   58.6850   32.1221   48.9394 H   0  0  0  0  0  0  0  0  0  0  0  0
   57.8908   30.5259   48.6650 H   0  0  0  0  0  0  0  0  0  0  0  0
   58.6048   34.1767   49.1723 H   0  0  0  0  0  0  0  0  0  0  0  0
   55.1400   30.0930   45.6680 H   0  0  0  0  0  0  0  0  0  0  0  0
  1  2  1  0
  2  3  2  0
  2  4  2  0
  2  5  1  0
  5  6  1  0
  6  7  2  0
  7  8  1  0
  8  9  2  0
  9 10  1  0
 10 11  1  0
 11 12  2  0
 12 13  1  0
 13 14  2  0
 14 15  1  0
 15 16  2  3
 16 17  1  0
 17 18  1  0
 18 19  2  0
 19 20  1  0
 20 21  2  0
 21 22  1  0
 22 23  1  0
 23 24  2  0
 23 25  1  0
 25 26  1  0
 26 27  1  0
 27 28  1  0
 28 29  1  0
 29 30  1  0
 30 31  1  0
 31 32  1  0
 32 33  1  0
 22 34  2  0
 15 35  1  0
 10 36  2  0
 36 37  1  0
 36  6  1  0
 35 11  1  0
 34 18  1  0
 33 28  1  0
  1 38  1  0
  1 39  1  0
  1 40  1  0
  7 41  1  0
  8 42  1  0
  9 43  1  0
 12 44  1  0
 13 45  1  0
 14 46  1  0
 17 47  1  0
 17 48  1  0
 19 49  1  0
 20 50  1  0
 21 51  1  0
 26 52  1  0
 26 53  1  0
 27 54  1  0
 27 55  1  0
 29 56  1  0
 29 57  1  0
 30 58  1  0
 30 59  1  0
 32 60  1  0
 32 61  1  0
 33 62  1  0
 33 63  1  0
 34 64  1  0
 37 65  1  0
M  CHG  3   5  -1  25  -1  35  -1
M  END
>  <UniqueID>  (11) 
11

>  <SMILES>  (11) 
CS(=O)(=O)[N-]c1cccc(-c2cccc(=NCc3cccc(C(=O)[N-]CCN4CCOCC4)c3)[n-]2)c1O

>  <Energy>  (11) 
88.39599089681714

>  <Genealogy>  (11) 
CS(=O)(=O)[N-]c1cccc(-c2cccc(=NCc3cccc(C(=O)[N-]CCN4CCOCC4)c3)[n-]2)c1O (protonated)
CS(=O)(=O)[N-]c1cccc(-c2cccc(=NCc3cccc(C(=O)[N-]CCN4CCOCC4)c3)[n-]2)c1O (3D coordinates assigned)
CS(=O)(=O)[N-]c1cccc(-c2cccc(=NCc3cccc(C(=O)[N-]CCN4CCOCC4)c3)[n-]2)c1O (nonaromatic ring conformer: 88.39599089681714 kcal/mol)

>  <smiles>  (11) 
CS(=O)(=O)Nc1cccc(-c2cccc(=NCc3cccc(C(=O)NCCN4CCOCC4)c3)[nH]2)c1O

>  <score_type>  (11) 
oracle

>  <origin>  (11) 
adg

>  <m_score__min__energy>  (11) 
-14.83

>  <m_primary>  (11) 
energy

$$$$
11:0
     RDKit          3D

 42 44  0  0  0  0  0  0  0  0999 V2000
   57.7190   23.2890   44.9310 O   0  0  0  0  0  0  0  0  0  0  0  0
   57.5700   24.2170   45.7710 C   0  0  0  0  0  0  0  0  0  0  0  0
   58.6630   25.2160   45.9640 C   0  0  0  0  0  0  0  0  0  0  0  0
   58.3380   26.4330   45.2320 N   0  0  0  0  0  0  0  0  0  0  0  0
   57.4340   27.4440   45.6940 C   0  0  0  0  0  0  0  0  0  0  0  0
   56.5210   27.1190   46.4980 O   0  0  0  0  0  0  0  0  0  0  0  0
   57.5570   28.8560   45.2770 C   0  0  0  0  0  0  0  0  0  0  0  0
   58.8160   29.4750   45.2530 C   0  0  0  0  0  0  0  0  0  0  0  0
   58.9430   30.8060   44.8450 C   0  0  0  0  0  0  0  0  0  0  0  0
   57.8120   31.5350   44.4500 C   0  0  0  0  0  0  0  0  0  0  0  0
   57.9460   32.9570   43.9790 C   0  0  0  0  0  0  0  0  0  0  0  0
   58.4250   33.8040   45.0680 N   0  0  0  0  0  0  0  0  0  0  0  0
   59.6060   34.6540   45.0310 C   0  0  0  0  0  0  0  0  0  0  0  0
   59.6490   35.3430   46.4170 C   0  0  0  0  0  0  0  0  0  0  0  0
   58.5060   34.8660   47.1210 O   0  0  0  0  0  0  0  0  0  0  0  0
   57.8150   33.9830   46.3270 C   0  0  0  0  0  0  0  0  0  0  0  0
   56.7540   33.4060   46.6850 O   0  0  0  0  0  0  0  0  0  0  0  0
   56.5570   30.9100   44.4480 C   0  0  0  0  0  0  0  0  0  0  0  0
   56.4260   29.5780   44.8570 C   0  0  0  0  0  0  0  0  0  0  0  0
   55.1680   28.9860   44.8540 O   0  0  0  0  0  0  0  0  0  0  0  0
   56.3200   24.3910   46.4540 N   0  0  0  0  0  0  0  0  0  0  0  0
   55.1550   23.8670   46.1870 C   0  0  0  0  0  0  0  0  0  0  0  0
   55.0500   22.5100   46.2320 N   0  0  0  0  0  0  0  0  0  0  0  0
   53.8870   21.8540   45.9840 C   0  0  0  0  0  0  0  0  0  0  0  0
   52.7360   22.5710   45.6650 C   0  0  0  0  0  0  0  0  0  0  0  0
   52.8050   23.9610   45.5790 C   0  0  0  0  0  0  0  0  0  0  0  0
   54.0120   24.6250   45.8180 C   0  0  0  0  0  0  0  0  0  0  0  0
   54.0560   26.0000   45.6280 O   0  0  0  0  0  0  0  0  0  0  0  0
   58.7646   25.4472   47.0346 H   0  0  0  0  0  0  0  0  0  0  0  0
   59.6107   24.8023   45.5888 H   0  0  0  0  0  0  0  0  0  0  0  0
   59.7089   28.9092   45.5572 H   0  0  0  0  0  0  0  0  0  0  0  0
   59.9339   31.2834   44.8337 H   0  0  0  0  0  0  0  0  0  0  0  0
   58.6617   32.9979   43.1447 H   0  0  0  0  0  0  0  0  0  0  0  0
   56.9622   33.3202   43.6468 H   0  0  0  0  0  0  0  0  0  0  0  0
   60.5116   34.0504   44.8713 H   0  0  0  0  0  0  0  0  0  0  0  0
   59.5639   35.3834   44.2087 H   0  0  0  0  0  0  0  0  0  0  0  0
   60.5704   35.0703   46.9523 H   0  0  0  0  0  0  0  0  0  0  0  0
   59.6409   36.4392   46.3256 H   0  0  0  0  0  0  0  0  0  0  0  0
   55.6685   31.4709   44.1225 H   0  0  0  0  0  0  0  0  0  0  0  0
   53.8538   20.7557   46.0351 H   0  0  0  0  0  0  0  0  0  0  0  0
   51.7856   22.0477   45.4834 H   0  0  0  0  0  0  0  0  0  0  0  0
   51.9048   24.5384   45.3217 H   0  0  0  0  0  0  0  0  0  0  0  0
  1  2  2  0
  2  3  1  0
  3  4  1  0
  4  5  1  0
  5  6  2  0
  5  7  1  0
  7  8  2  0
  8  9  1  0
  9 10  2  0
 10 11  1  0
 11 12  1  0
 12 13  1  0
 13 14  1  0
 14 15  1  0
 15 16  1  0
 16 17  2  0
 10 18  1  0
 18 19  2  0
 19 20  1  0
  2 21  1  0
 21 22  2  3
 22 23  1  0
 23 24  1  0
 24 25  2  0
 25 26  1  0
 26 27  2  0
 27 28  1  0
 19  7  1  0
 27 22  1  0
 16 12  1  0
  3 29  1  0
  3 30  1  0
  8 31  1  0
  9 32  1  0
 11 33  1  0
 11 34  1  0
 13 35  1  0
 13 36  1  0
 14 37  1  0
 14 38  1  0
 18 39  1  0
 24 40  1  0
 25 41  1  0
 26 42  1  0
M  CHG  4   4  -1  20  -1  23  -1  28  -1
M  END
>  <UniqueID>  (12) 
12

>  <SMILES>  (12) 
O=C(C[N-]C(=O)c1ccc(CN2CCOC2=O)cc1[O-])N=c1[n-]cccc1[O-]

>  <Energy>  (12) 
71.89608069423143

>  <Genealogy>  (12) 
O=C(C[N-]C(=O)c1ccc(CN2CCOC2=O)cc1[O-])N=c1[n-]cccc1[O-] (protonated)
O=C(C[N-]C(=O)c1ccc(CN2CCOC2=O)cc1[O-])N=c1[n-]cccc1[O-] (3D coordinates assigned)
O=C(C[N-]C(=O)c1ccc(CN2CCOC2=O)cc1[O-])N=c1[n-]cccc1[O-] (nonaromatic ring conformer: 71.89608069423143 kcal/mol)

>  <smiles>  (12) 
O=C(CNC(=O)c1ccc(CN2CCOC2=O)cc1O)N=c1[nH]cccc1O

>  <score_type>  (12) 
oracle

>  <origin>  (12) 
adg

>  <m_score__min__energy>  (12) 
-16.280000000000001

>  <m_primary>  (12) 
energy

$$$$
12:0
     RDKit          3D

 50 53  0  0  0  0  0  0  0  0999 V2000
   54.5000   29.3490   45.3340 H   0  0  0  0  0  0  0  0  0  0  0  0
   55.2940   29.7750   44.8070 N   0  0  0  0  0  0  0  0  0  0  0  0
   56.6240   29.2840   44.9550 C   0  0  0  0  0  0  0  0  0  0  0  0
   57.5840   29.9360   44.4620 O   0  0  0  0  0  0  0  0  0  0  0  0
   56.8930   28.0230   45.6730 C   0  0  0  0  0  0  0  0  0  0  0  0
   56.0110   26.9870   45.6250 N   0  0  0  0  0  0  0  0  0  0  0  0
   56.4350   25.9290   46.3520 C   0  0  0  0  0  0  0  0  0  0  0  0
   55.7990   24.7990   46.4430 N   0  0  0  0  0  0  0  0  0  0  0  0
   55.9520   23.6580   45.5830 C   0  0  0  0  0  0  0  0  0  0  0  0
   56.0550   22.3460   46.0890 C   0  0  0  0  0  0  0  0  0  0  0  0
   55.9936   22.1700   47.1731 H   0  0  0  0  0  0  0  0  0  0  0  0
   56.2350   21.2680   45.2170 C   0  0  0  0  0  0  0  0  0  0  0  0
   56.3020   20.2450   45.6158 H   0  0  0  0  0  0  0  0  0  0  0  0
   56.3300   21.4870   43.8400 C   0  0  0  0  0  0  0  0  0  0  0  0
   56.5070   20.4410   42.9960 F   0  0  0  0  0  0  0  0  0  0  0  0
   56.2590   22.7880   43.3350 C   0  0  0  0  0  0  0  0  0  0  0  0
   56.3441   22.9618   42.2522 H   0  0  0  0  0  0  0  0  0  0  0  0
   56.0800   23.8690   44.2030 C   0  0  0  0  0  0  0  0  0  0  0  0
   56.0393   24.8919   43.8006 H   0  0  0  0  0  0  0  0  0  0  0  0
   57.9260   26.2070   47.0730 S   0  0  0  0  0  0  0  0  0  0  0  0
   58.0320   27.7690   46.4420 C   0  0  0  0  0  0  0  0  0  0  0  0
   59.1070   28.6940   46.6450 N   0  0  0  0  0  0  0  0  0  0  0  0
   59.3940   29.4330   47.8390 C   0  0  0  0  0  0  0  0  0  0  0  0
   59.4920   28.8390   48.9470 O   0  0  0  0  0  0  0  0  0  0  0  0
   59.5810   30.9040   47.7580 C   0  0  0  0  0  0  0  0  0  0  0  0
   58.5380   31.7030   47.4510 C   0  0  0  0  0  0  0  0  0  0  0  0
   57.5546   31.4593   47.8794 H   0  0  0  0  0  0  0  0  0  0  0  0
   58.6410   32.8870   46.5720 C   0  0  0  0  0  0  0  0  0  0  0  0
   59.6370   33.8380   46.8460 C   0  0  0  0  0  0  0  0  0  0  0  0
   60.2922   33.7071   47.7199 H   0  0  0  0  0  0  0  0  0  0  0  0
   59.8010   34.9490   46.0160 C   0  0  0  0  0  0  0  0  0  0  0  0
   60.5903   35.6841   46.2320 H   0  0  0  0  0  0  0  0  0  0  0  0
   58.9660   35.1280   44.9140 C   0  0  0  0  0  0  0  0  0  0  0  0
   59.1058   35.9969   44.2541 H   0  0  0  0  0  0  0  0  0  0  0  0
   57.9520   34.2050   44.6470 C   0  0  0  0  0  0  0  0  0  0  0  0
   57.2937   34.3527   43.7782 H   0  0  0  0  0  0  0  0  0  0  0  0
   57.7680   33.0930   45.4780 C   0  0  0  0  0  0  0  0  0  0  0  0
   56.7050   32.2310   45.2060 O   0  0  0  0  0  0  0  0  0  0  0  0
   56.6380   31.3010   45.6000 H   0  0  0  0  0  0  0  0  0  0  0  0
   60.9250   31.4630   48.0570 C   0  0  0  0  0  0  0  0  0  0  0  0
   61.9730   31.3410   47.1280 C   0  0  0  0  0  0  0  0  0  0  0  0
   61.8021   30.8195   46.1747 H   0  0  0  0  0  0  0  0  0  0  0  0
   63.2320   31.8800   47.4110 C   0  0  0  0  0  0  0  0  0  0  0  0
   64.0498   31.7779   46.6825 H   0  0  0  0  0  0  0  0  0  0  0  0
   63.4520   32.5480   48.6180 C   0  0  0  0  0  0  0  0  0  0  0  0
   64.4439   32.9679   48.8410 H   0  0  0  0  0  0  0  0  0  0  0  0
   62.4130   32.6830   49.5420 C   0  0  0  0  0  0  0  0  0  0  0  0
   62.5866   33.2135   50.4899 H   0  0  0  0  0  0  0  0  0  0  0  0
   61.1530   32.1450   49.2640 C   0  0  0  0  0  0  0  0  0  0  0  0
   60.3369   32.2561   49.9931 H   0  0  0  0  0  0  0  0  0  0  0  0
  1  2  1  0
  2  3  1  0
  3  4  2  0
  3  5  1  0
  5  6  1  0
  6  7  1  0
  7  8  2  0
  8  9  1  0
  9 10  2  0
 10 11  1  0
 10 12  1  0
 12 13  1  0
 12 14  2  0
 14 15  1  0
 14 16  1  0
 16 17  1  0
 16 18  2  0
 18 19  1  0
  7 20  1  0
 20 21  1  0
 21 22  1  0
 22 23  1  0
 23 24  2  0
 23 25  1  0
 25 26  2  3
 26 27  1  0
 26 28  1  0
 28 29  2  0
 29 30  1  0
 29 31  1  0
 31 32  1  0
 31 33  2  0
 33 34  1  0
 33 35  1  0
 35 36  1  0
 35 37  2  0
 37 38  1  0
 38 39  1  0
 25 40  1  0
 40 41  2  0
 41 42  1  0
 41 43  1  0
 43 44  1  0
 43 45  2  0
 45 46  1  0
 45 47  1  0
 47 48  1  0
 47 49  2  0
 49 50  1  0
 21  5  2  0
 37 28  1  0
 49 40  1  0
 18  9  1  0
M  CHG  3   2  -1   6  -1  22  -1
M  END
>  <UniqueID>  (13) 
13

>  <SMILES>  (13) 
[NH-]C(=O)c1[n-]/c(=N\c2ccc(F)cc2)sc1[N-]C(=O)C(=Cc1ccccc1O)c1ccccc1

>  <Energy>  (13) 
104.76581250887169

>  <Genealogy>  (13) 
[NH-]C(=O)c1[n-]c(=Nc2ccc(F)cc2)sc1[N-]C(=O)C(=Cc1ccccc1O)c1ccccc1 (protonated)
[NH-]C(=O)c1[n-]/c(=N\c2ccc(F)cc2)sc1[N-]C(=O)C(=Cc1ccccc1O)c1ccccc1 (cis-trans isomerization)
[NH-]C(=O)c1[n-]/c(=N\c2ccc(F)cc2)sc1[N-]C(=O)C(=Cc1ccccc1O)c1ccccc1 (3D coordinates assigned)
[NH-]C(=O)c1[n-]/c(=N\c2ccc(F)cc2)sc1[N-]C(=O)C(=Cc1ccccc1O)c1ccccc1 (optimized conformer: 104.76581250887169 kcal/mol)

>  <smiles>  (13) 
NC(=O)c1[nH]c(=Nc2ccc(F)cc2)sc1NC(=O)C(=Cc1ccccc1O)c1ccccc1

>  <score_type>  (13) 
oracle

>  <origin>  (13) 
adg

>  <m_score__min__energy>  (13) 
-14.9

>  <m_primary>  (13) 
energy

$$$$
13:0
     RDKit          3D

 45 48  0  0  0  0  0  0  0  0999 V2000
   54.0510   26.3430   46.3810 H   0  0  0  0  0  0  0  0  0  0  0  0
   54.9420   26.2540   45.9070 O   0  0  0  0  0  0  0  0  0  0  0  0
   55.8530   25.2590   46.2510 C   0  0  0  0  0  0  0  0  0  0  0  0
   55.6320   24.3590   47.2220 N   0  0  0  0  0  0  0  0  0  0  0  0
   56.7650   23.6260   47.2150 C   0  0  0  0  0  0  0  0  0  0  0  0
   56.9550   22.6620   48.0020 O   0  0  0  0  0  0  0  0  0  0  0  0
   57.6830   24.0090   46.3010 N   0  0  0  0  0  0  0  0  0  0  0  0
   57.0910   25.0450   45.6820 C   0  0  0  0  0  0  0  0  0  0  0  0
   57.7430   25.8530   44.5970 C   0  0  0  0  0  0  0  0  0  0  0  0
   56.9619   26.2511   43.9326 H   0  0  0  0  0  0  0  0  0  0  0  0
   58.4326   25.1933   44.0500 H   0  0  0  0  0  0  0  0  0  0  0  0
   58.5430   27.0050   45.1530 C   0  0  0  0  0  0  0  0  0  0  0  0
   59.5840   26.7670   45.8280 O   0  0  0  0  0  0  0  0  0  0  0  0
   58.1030   28.3710   44.9820 N   0  0  0  0  0  0  0  0  0  0  0  0
   59.0160   29.4790   45.3020 C   0  0  0  0  0  0  0  0  0  0  0  0
   58.8045   29.8393   46.3196 H   0  0  0  0  0  0  0  0  0  0  0  0
   60.0520   29.1154   45.2346 H   0  0  0  0  0  0  0  0  0  0  0  0
   58.8320   30.6340   44.3100 C   0  0  0  0  0  0  0  0  0  0  0  0
   59.3830   31.5086   44.6863 H   0  0  0  0  0  0  0  0  0  0  0  0
   59.2131   30.2914   43.3367 H   0  0  0  0  0  0  0  0  0  0  0  0
   57.3450   31.0380   44.1060 C   0  0  0  0  0  0  0  0  0  0  0  0
   57.1492   30.8877   43.0340 H   0  0  0  0  0  0  0  0  0  0  0  0
   57.1110   32.4540   44.4170 N   0  0  0  0  0  0  0  0  0  0  0  0
   57.8920   33.2510   45.0890 C   0  0  0  0  0  0  0  0  0  0  0  0
   58.1280   32.9960   46.4030 N   0  0  0  0  0  0  0  0  0  0  0  0
   58.9300   33.7980   47.1530 C   0  0  0  0  0  0  0  0  0  0  0  0
   59.1430   33.4620   48.5730 C   0  0  0  0  0  0  0  0  0  0  0  0
   58.4890   32.5030   49.1900 O   0  0  0  0  0  0  0  0  0  0  0  0
   58.8950   32.4470   50.4380 C   0  0  0  0  0  0  0  0  0  0  0  0
   58.5235   31.7397   51.1941 H   0  0  0  0  0  0  0  0  0  0  0  0
   59.8580   33.4100   50.6560 C   0  0  0  0  0  0  0  0  0  0  0  0
   60.3890   33.6122   51.5979 H   0  0  0  0  0  0  0  0  0  0  0  0
   60.0210   34.0680   49.4560 C   0  0  0  0  0  0  0  0  0  0  0  0
   60.7064   34.9017   49.2436 H   0  0  0  0  0  0  0  0  0  0  0  0
   59.5270   34.9170   46.5550 C   0  0  0  0  0  0  0  0  0  0  0  0
   60.1808   35.5829   47.1374 H   0  0  0  0  0  0  0  0  0  0  0  0
   59.2750   35.1680   45.2080 C   0  0  0  0  0  0  0  0  0  0  0  0
   59.7306   36.0402   44.7164 H   0  0  0  0  0  0  0  0  0  0  0  0
   58.4670   34.3360   44.5020 N   0  0  0  0  0  0  0  0  0  0  0  0
   56.3500   30.1320   44.8570 C   0  0  0  0  0  0  0  0  0  0  0  0
   56.3925   30.3621   45.9318 H   0  0  0  0  0  0  0  0  0  0  0  0
   55.3385   30.3178   44.4665 H   0  0  0  0  0  0  0  0  0  0  0  0
   56.6960   28.6550   44.6450 C   0  0  0  0  0  0  0  0  0  0  0  0
   56.0452   28.0410   45.2848 H   0  0  0  0  0  0  0  0  0  0  0  0
   56.5428   28.4159   43.5823 H   0  0  0  0  0  0  0  0  0  0  0  0
  1  2  1  0
  2  3  1  0
  3  4  1  0
  4  5  1  0
  5  6  2  0
  5  7  1  0
  7  8  1  0
  8  9  1  0
  9 10  1  0
  9 11  1  0
  9 12  1  0
 12 13  2  0
 12 14  1  0
 14 15  1  0
 15 16  1  0
 15 17  1  0
 15 18  1  0
 18 19  1  0
 18 20  1  0
 18 21  1  0
 21 22  1  0
 21 23  1  0
 23 24  2  0
 24 25  1  0
 25 26  2  0
 26 27  1  0
 27 28  1  0
 28 29  1  0
 29 30  1  0
 29 31  2  0
 31 32  1  0
 31 33  1  0
 33 34  1  0
 26 35  1  0
 35 36  1  0
 35 37  2  0
 37 38  1  0
 37 39  1  0
 21 40  1  0
 40 41  1  0
 40 42  1  0
 40 43  1  0
 43 44  1  0
 43 45  1  0
  8  3  2  0
 43 14  1  0
 39 24  1  0
 33 27  2  0
M  CHG  3   4  -1   7  -1  39  -1
M  END
>  <UniqueID>  (14) 
14

>  <SMILES>  (14) 
O=C(Cc1[n-]c(=O)[n-]c1O)N1CCC(/N=c2/nc(-c3ccco3)cc[n-]2)CC1

>  <Energy>  (14) 
107.85900537894895

>  <Genealogy>  (14) 
O=C(Cc1[n-]c(=O)[n-]c1O)N1CCC(N=c2nc(-c3ccco3)cc[n-]2)CC1 (protonated)
O=C(Cc1[n-]c(=O)[n-]c1O)N1CCC(/N=c2/nc(-c3ccco3)cc[n-]2)CC1 (cis-trans isomerization)
O=C(Cc1[n-]c(=O)[n-]c1O)N1CCC(/N=c2/nc(-c3ccco3)cc[n-]2)CC1 (3D coordinates assigned)
O=C(Cc1[n-]c(=O)[n-]c1O)N1CCC(/N=c2/nc(-c3ccco3)cc[n-]2)CC1 (nonaromatic ring conformer: 107.85900537894895 kcal/mol)

>  <smiles>  (14) 
O=C(Cc1[nH]c(=O)[nH]c1O)N1CCC(N=c2nc(-c3ccco3)cc[nH]2)CC1

>  <score_type>  (14) 
oracle

>  <origin>  (14) 
adg

>  <m_score__min__energy>  (14) 
-13.44

>  <m_primary>  (14) 
energy

$$$$
14:0
     RDKit          3D

 56 59  0  0  0  0  0  0  0  0999 V2000
   55.2220   29.3510   45.1060 O   0  0  0  0  0  0  0  0  0  0  0  0
   56.2500   29.7470   44.4940 C   0  0  0  0  0  0  0  0  0  0  0  0
   57.3470   28.7660   44.1560 C   0  0  0  0  0  0  0  0  0  0  0  0
   58.3800   28.6700   45.2670 C   0  0  0  0  0  0  0  0  0  0  0  0
   59.5290   29.4640   45.1340 C   0  0  0  0  0  0  0  0  0  0  0  0
   60.5290   29.3750   46.0910 C   0  0  0  0  0  0  0  0  0  0  0  0
   61.5690   30.0770   45.9900 O   0  0  0  0  0  0  0  0  0  0  0  0
   60.3870   28.5260   47.1320 N   0  0  0  0  0  0  0  0  0  0  0  0
   59.2800   27.7550   47.2730 C   0  0  0  0  0  0  0  0  0  0  0  0
   59.2140   26.9770   48.2640 O   0  0  0  0  0  0  0  0  0  0  0  0
   58.2560   27.8190   46.3530 N   0  0  0  0  0  0  0  0  0  0  0  0
   57.0500   26.9800   46.5490 C   0  0  0  0  0  0  0  0  0  0  0  0
   57.1990   25.6360   45.8820 C   0  0  0  0  0  0  0  0  0  0  0  0
   58.4350   24.9660   45.9040 C   0  0  0  0  0  0  0  0  0  0  0  0
   58.5710   23.7160   45.2900 C   0  0  0  0  0  0  0  0  0  0  0  0
   57.4740   23.1220   44.6610 C   0  0  0  0  0  0  0  0  0  0  0  0
   56.2370   23.7710   44.6510 C   0  0  0  0  0  0  0  0  0  0  0  0
   55.1710   23.1890   44.0480 F   0  0  0  0  0  0  0  0  0  0  0  0
   56.0960   25.0200   45.2660 C   0  0  0  0  0  0  0  0  0  0  0  0
   56.4190   31.1540   44.2820 N   0  0  0  0  0  0  0  0  0  0  0  0
   57.2920   32.0150   45.0230 C   0  0  0  0  0  0  0  0  0  0  0  0
   57.6970   33.2290   44.4560 C   0  0  0  0  0  0  0  0  0  0  0  0
   58.5790   34.0680   45.1430 C   0  0  0  0  0  0  0  0  0  0  0  0
   59.0720   33.6930   46.3960 C   0  0  0  0  0  0  0  0  0  0  0  0
   58.6910   32.4690   46.9630 C   0  0  0  0  0  0  0  0  0  0  0  0
   59.3400   31.9620   48.5200 S   0  0  0  0  0  0  0  0  0  0  0  0
   58.5340   30.8020   49.0340 O   0  0  0  0  0  0  0  0  0  0  0  0
   59.2380   33.0920   49.5070 O   0  0  0  0  0  0  0  0  0  0  0  0
   61.0030   31.4760   48.3190 N   0  0  0  0  0  0  0  0  0  0  0  0
   61.7060   31.4060   49.6010 C   0  0  0  0  0  0  0  0  0  0  0  0
   63.1780   31.6280   49.2970 C   0  0  0  0  0  0  0  0  0  0  0  0
   63.2070   32.3700   47.9690 C   0  0  0  0  0  0  0  0  0  0  0  0
   61.7570   32.4280   47.4990 C   0  0  0  0  0  0  0  0  0  0  0  0
   57.8190   31.6250   46.2650 C   0  0  0  0  0  0  0  0  0  0  0  0
   56.9006   27.7731   43.9980 H   0  0  0  0  0  0  0  0  0  0  0  0
   57.8545   29.1204   43.2467 H   0  0  0  0  0  0  0  0  0  0  0  0
   59.6356   30.1494   44.2803 H   0  0  0  0  0  0  0  0  0  0  0  0
   56.8909   26.8287   47.6269 H   0  0  0  0  0  0  0  0  0  0  0  0
   56.1916   27.4975   46.0959 H   0  0  0  0  0  0  0  0  0  0  0  0
   59.2987   25.4265   46.4060 H   0  0  0  0  0  0  0  0  0  0  0  0
   59.5426   23.2005   45.3026 H   0  0  0  0  0  0  0  0  0  0  0  0
   57.5844   22.1423   44.1731 H   0  0  0  0  0  0  0  0  0  0  0  0
   55.1173   25.5221   45.2674 H   0  0  0  0  0  0  0  0  0  0  0  0
   57.3196   33.5240   43.4658 H   0  0  0  0  0  0  0  0  0  0  0  0
   58.8858   35.0254   44.6966 H   0  0  0  0  0  0  0  0  0  0  0  0
   59.7597   34.3591   46.9377 H   0  0  0  0  0  0  0  0  0  0  0  0
   61.0230   30.5320   47.8630 H   0  0  0  0  0  0  0  0  0  0  0  0
   61.3360   32.1877   50.2807 H   0  0  0  0  0  0  0  0  0  0  0  0
   61.5427   30.4355   50.0924 H   0  0  0  0  0  0  0  0  0  0  0  0
   63.6474   32.2331   50.0866 H   0  0  0  0  0  0  0  0  0  0  0  0
   63.7340   30.6801   49.2490 H   0  0  0  0  0  0  0  0  0  0  0  0
   63.6072   33.3855   48.1053 H   0  0  0  0  0  0  0  0  0  0  0  0
   63.8526   31.8654   47.2351 H   0  0  0  0  0  0  0  0  0  0  0  0
   61.3563   33.4435   47.6342 H   0  0  0  0  0  0  0  0  0  0  0  0
   61.6797   32.1743   46.4315 H   0  0  0  0  0  0  0  0  0  0  0  0
   57.5446   30.6493   46.6925 H   0  0  0  0  0  0  0  0  0  0  0  0
  1  2  2  0
  2  3  1  0
  3  4  1  0
  4  5  2  0
  5  6  1  0
  6  7  2  0
  6  8  1  0
  8  9  1  0
  9 10  2  0
  9 11  1  0
 11 12  1  0
 12 13  1  0
 13 14  2  0
 14 15  1  0
 15 16  2  0
 16 17  1  0
 17 18  1  0
 17 19  2  0
  2 20  1  0
 20 21  1  0
 21 22  2  0
 22 23  1  0
 23 24  2  0
 24 25  1  0
 25 26  1  0
 26 27  2  0
 26 28  2  0
 26 29  1  0
 29 30  1  0
 30 31  1  0
 31 32  1  0
 32 33  1  0
 25 34  2  0
 11  4  1  0
 19 13  1  0
 34 21  1  0
 33 29  1  0
  3 35  1  0
  3 36  1  0
  5 37  1  0
 12 38  1  0
 12 39  1  0
 14 40  1  0
 15 41  1  0
 16 42  1  0
 19 43  1  0
 22 44  1  0
 23 45  1  0
 24 46  1  0
 29 47  1  0
 30 48  1  0
 30 49  1  0
 31 50  1  0
 31 51  1  0
 32 52  1  0
 32 53  1  0
 33 54  1  0
 33 55  1  0
 34 56  1  0
M  CHG  3   8  -1  20  -1  29   1
M  END
>  <UniqueID>  (15) 
15

>  <SMILES>  (15) 
O=C(Cc1cc(=O)[n-]c(=O)n1Cc1cccc(F)c1)[N-]c1cccc(S(=O)(=O)[NH+]2CCCC2)c1

>  <Energy>  (15) 
70.93392302804715

>  <Genealogy>  (15) 
O=C(Cc1cc(=O)[n-]c(=O)n1Cc1cccc(F)c1)[N-]c1cccc(S(=O)(=O)[NH+]2CCCC2)c1 (protonated)
O=C(Cc1cc(=O)[n-]c(=O)n1Cc1cccc(F)c1)[N-]c1cccc(S(=O)(=O)[NH+]2CCCC2)c1 (3D coordinates assigned)
O=C(Cc1cc(=O)[n-]c(=O)n1Cc1cccc(F)c1)[N-]c1cccc(S(=O)(=O)[NH+]2CCCC2)c1 (nonaromatic ring conformer: 70.93392302804715 kcal/mol)

>  <smiles>  (15) 
O=C(Cc1cc(=O)[nH]c(=O)n1Cc1cccc(F)c1)Nc1cccc(S(=O)(=O)N2CCCC2)c1

>  <score_type>  (15) 
oracle

>  <origin>  (15) 
adg

>  <m_score__min__energy>  (15) 
-10.619999999999999

>  <m_primary>  (15) 
energy

$$$$
15:0
     RDKit          3D

 58 61  0  0  0  0  0  0  0  0999 V2000
   55.1330   29.3340   44.8750 N   0  0  0  0  0  0  0  0  0  0  0  0
   56.7500   29.4540   44.2790 S   0  0  0  0  0  0  0  0  0  0  0  0
   57.5850   28.3830   44.9270 O   0  0  0  0  0  0  0  0  0  0  0  0
   56.7490   29.2530   42.7900 O   0  0  0  0  0  0  0  0  0  0  0  0
   57.4190   31.0380   44.6530 C   0  0  0  0  0  0  0  0  0  0  0  0
   57.6230   31.9780   43.6350 C   0  0  0  0  0  0  0  0  0  0  0  0
   58.1580   33.2320   43.9350 C   0  0  0  0  0  0  0  0  0  0  0  0
   58.5050   33.5520   45.2500 C   0  0  0  0  0  0  0  0  0  0  0  0
   58.3290   32.6110   46.2790 C   0  0  0  0  0  0  0  0  0  0  0  0
   58.7070   32.9530   47.6720 C   0  0  0  0  0  0  0  0  0  0  0  0
   58.1410   32.3610   48.6290 O   0  0  0  0  0  0  0  0  0  0  0  0
   59.7360   33.9060   47.9680 N   0  0  0  0  0  0  0  0  0  0  0  0
   61.1450   33.7100   47.7770 C   0  0  0  0  0  0  0  0  0  0  0  0
   61.7470   33.8790   46.5190 C   0  0  0  0  0  0  0  0  0  0  0  0
   63.1220   33.6920   46.3680 C   0  0  0  0  0  0  0  0  0  0  0  0
   63.9100   33.3480   47.4690 C   0  0  0  0  0  0  0  0  0  0  0  0
   63.3270   33.1920   48.7410 C   0  0  0  0  0  0  0  0  0  0  0  0
   64.1630   32.8270   49.9090 C   0  0  0  0  0  0  0  0  0  0  0  0
   65.4180   32.9230   49.8360 O   0  0  0  0  0  0  0  0  0  0  0  0
   63.5500   32.3170   51.1010 N   0  0  0  0  0  0  0  0  0  0  0  0
   63.0850   30.9770   51.3190 C   0  0  0  0  0  0  0  0  0  0  0  0
   63.6730   30.2210   52.3400 C   0  0  0  0  0  0  0  0  0  0  0  0
   63.2570   28.9080   52.5770 C   0  0  0  0  0  0  0  0  0  0  0  0
   62.2620   28.3340   51.7820 C   0  0  0  0  0  0  0  0  0  0  0  0
   61.6860   29.0680   50.7370 C   0  0  0  0  0  0  0  0  0  0  0  0
   60.4470   28.3330   49.7150 S   0  0  0  0  0  0  0  0  0  0  0  0
   59.1090   28.9300   50.0570 O   0  0  0  0  0  0  0  0  0  0  0  0
   60.3840   26.8580   49.9990 O   0  0  0  0  0  0  0  0  0  0  0  0
   60.7710   28.5820   48.0170 N   0  0  0  0  0  0  0  0  0  0  0  0
   60.0290   27.6100   47.2020 C   0  0  0  0  0  0  0  0  0  0  0  0
   60.2540   27.8850   45.7000 C   0  0  0  0  0  0  0  0  0  0  0  0
   61.1380   28.9710   45.4930 O   0  0  0  0  0  0  0  0  0  0  0  0
   60.6130   30.1380   46.1000 C   0  0  0  0  0  0  0  0  0  0  0  0
   60.4140   29.9520   47.6180 C   0  0  0  0  0  0  0  0  0  0  0  0
   62.1030   30.3860   50.5040 C   0  0  0  0  0  0  0  0  0  0  0  0
   61.9410   33.3870   48.8830 C   0  0  0  0  0  0  0  0  0  0  0  0
   57.7700   31.3580   45.9720 C   0  0  0  0  0  0  0  0  0  0  0  0
   55.1440   28.6300   45.6470 H   0  0  0  0  0  0  0  0  0  0  0  0
   57.3610   31.7275   42.5964 H   0  0  0  0  0  0  0  0  0  0  0  0
   58.3068   33.9705   43.1335 H   0  0  0  0  0  0  0  0  0  0  0  0
   58.9179   34.5451   45.4810 H   0  0  0  0  0  0  0  0  0  0  0  0
   61.1330   34.1595   45.6505 H   0  0  0  0  0  0  0  0  0  0  0  0
   63.5867   33.8159   45.3787 H   0  0  0  0  0  0  0  0  0  0  0  0
   64.9922   33.1981   47.3414 H   0  0  0  0  0  0  0  0  0  0  0  0
   64.4673   30.6631   52.9595 H   0  0  0  0  0  0  0  0  0  0  0  0
   63.7138   28.3256   53.3908 H   0  0  0  0  0  0  0  0  0  0  0  0
   61.9301   27.3035   51.9769 H   0  0  0  0  0  0  0  0  0  0  0  0
   60.3784   26.5947   47.4410 H   0  0  0  0  0  0  0  0  0  0  0  0
   58.9558   27.7024   47.4251 H   0  0  0  0  0  0  0  0  0  0  0  0
   60.6797   26.9848   45.2327 H   0  0  0  0  0  0  0  0  0  0  0  0
   59.2839   28.1420   45.2495 H   0  0  0  0  0  0  0  0  0  0  0  0
   61.3104   30.9718   45.9315 H   0  0  0  0  0  0  0  0  0  0  0  0
   59.6318   30.3470   45.6489 H   0  0  0  0  0  0  0  0  0  0  0  0
   61.0542   30.6653   48.1577 H   0  0  0  0  0  0  0  0  0  0  0  0
   59.3571   30.1319   47.8644 H   0  0  0  0  0  0  0  0  0  0  0  0
   61.6592   30.9617   49.6784 H   0  0  0  0  0  0  0  0  0  0  0  0
   61.4768   33.2845   49.8750 H   0  0  0  0  0  0  0  0  0  0  0  0
   57.6067   30.6225   46.7735 H   0  0  0  0  0  0  0  0  0  0  0  0
  1  2  1  0
  2  3  2  0
  2  4  2  0
  2  5  1  0
  5  6  2  0
  6  7  1  0
  7  8  2  0
  8  9  1  0
  9 10  1  0
 10 11  2  0
 10 12  1  0
 12 13  1  0
 13 14  2  0
 14 15  1  0
 15 16  2  0
 16 17  1  0
 17 18  1  0
 18 19  2  0
 18 20  1  0
 20 21  1  0
 21 22  2  0
 22 23  1  0
 23 24  2  0
 24 25  1  0
 25 26  1  0
 26 27  2  0
 26 28  2  0
 26 29  1  0
 29 30  1  0
 30 31  1  0
 31 32  1  0
 32 33  1  0
 33 34  1  0
 25 35  2  0
 17 36  2  0
  9 37  2  0
 37  5  1  0
 36 13  1  0
 35 21  1  0
 34 29  1  0
  1 38  1  0
  6 39  1  0
  7 40  1  0
  8 41  1  0
 14 42  1  0
 15 43  1  0
 16 44  1  0
 22 45  1  0
 23 46  1  0
 24 47  1  0
 30 48  1  0
 30 49  1  0
 31 50  1  0
 31 51  1  0
 33 52  1  0
 33 53  1  0
 34 54  1  0
 34 55  1  0
 35 56  1  0
 36 57  1  0
 37 58  1  0
M  CHG  3   1  -1  12  -1  20  -1
M  END
>  <UniqueID>  (16) 
16

>  <SMILES>  (16) 
[NH-]S(=O)(=O)c1cccc(C(=O)[N-]c2cccc(C(=O)[N-]c3cccc(S(=O)(=O)N4CCOCC4)c3)c2)c1

>  <Energy>  (16) 
79.17439780989713

>  <Genealogy>  (16) 
[NH-]S(=O)(=O)c1cccc(C(=O)[N-]c2cccc(C(=O)[N-]c3cccc(S(=O)(=O)N4CCOCC4)c3)c2)c1 (protonated)
[NH-]S(=O)(=O)c1cccc(C(=O)[N-]c2cccc(C(=O)[N-]c3cccc(S(=O)(=O)N4CCOCC4)c3)c2)c1 (3D coordinates assigned)
[NH-]S(=O)(=O)c1cccc(C(=O)[N-]c2cccc(C(=O)[N-]c3cccc(S(=O)(=O)N4CCOCC4)c3)c2)c1 (nonaromatic ring conformer: 79.17439780989713 kcal/mol)

>  <smiles>  (16) 
NS(=O)(=O)c1cccc(C(=O)Nc2cccc(C(=O)Nc3cccc(S(=O)(=O)N4CCOCC4)c3)c2)c1

>  <score_type>  (16) 
oracle

>  <origin>  (16) 
adg

>  <m_score__min__energy>  (16) 
-16.920000000000002

>  <m_primary>  (16) 
energy

$$$$
16:0
     RDKit          3D

 44 47  0  0  0  0  0  0  0  0999 V2000
   58.7149   34.6025   48.0971 H   0  0  0  0  0  0  0  0  0  0  0  0
   58.7340   34.3360   47.0300 C   0  0  0  0  0  0  0  0  0  0  0  0
   58.0040   33.3980   46.4720 O   0  0  0  0  0  0  0  0  0  0  0  0
   58.2880   33.3570   45.1900 C   0  0  0  0  0  0  0  0  0  0  0  0
   57.6340   32.4270   44.2160 C   0  0  0  0  0  0  0  0  0  0  0  0
   58.4067   31.9560   43.5906 H   0  0  0  0  0  0  0  0  0  0  0  0
   56.9367   33.0017   43.5887 H   0  0  0  0  0  0  0  0  0  0  0  0
   56.8870   31.3870   44.9230 N   0  0  0  0  0  0  0  0  0  0  0  0
   57.4160   30.3190   45.4500 C   0  0  0  0  0  0  0  0  0  0  0  0
   58.2560   30.4170   46.5100 N   0  0  0  0  0  0  0  0  0  0  0  0
   58.8220   29.3240   47.0710 C   0  0  0  0  0  0  0  0  0  0  0  0
   59.6920   29.4820   48.1550 C   0  0  0  0  0  0  0  0  0  0  0  0
   59.8978   30.4872   48.5515 H   0  0  0  0  0  0  0  0  0  0  0  0
   60.2990   28.3680   48.7340 C   0  0  0  0  0  0  0  0  0  0  0  0
   60.9786   28.4948   49.5896 H   0  0  0  0  0  0  0  0  0  0  0  0
   60.0450   27.0940   48.2290 C   0  0  0  0  0  0  0  0  0  0  0  0
   60.5308   26.2183   48.6841 H   0  0  0  0  0  0  0  0  0  0  0  0
   59.1760   26.9230   47.1470 C   0  0  0  0  0  0  0  0  0  0  0  0
   58.9873   25.9129   46.7545 H   0  0  0  0  0  0  0  0  0  0  0  0
   58.5360   28.0380   46.5510 C   0  0  0  0  0  0  0  0  0  0  0  0
   57.6600   27.9190   45.4860 N   0  0  0  0  0  0  0  0  0  0  0  0
   57.3170   26.5980   44.9120 C   0  0  0  0  0  0  0  0  0  0  0  0
   58.1897   25.9328   44.9883 H   0  0  0  0  0  0  0  0  0  0  0  0
   57.0324   26.7318   43.8579 H   0  0  0  0  0  0  0  0  0  0  0  0
   56.1660   25.9870   45.6500 C   0  0  0  0  0  0  0  0  0  0  0  0
   55.1890   26.7060   45.9900 O   0  0  0  0  0  0  0  0  0  0  0  0
   56.2090   24.5950   45.9920 N   0  0  0  0  0  0  0  0  0  0  0  0
   56.7680   23.5340   45.2040 C   0  0  0  0  0  0  0  0  0  0  0  0
   56.0320   22.8860   44.1940 C   0  0  0  0  0  0  0  0  0  0  0  0
   54.9890   23.1784   44.0027 H   0  0  0  0  0  0  0  0  0  0  0  0
   56.6220   21.8720   43.4330 C   0  0  0  0  0  0  0  0  0  0  0  0
   56.0388   21.3616   42.6524 H   0  0  0  0  0  0  0  0  0  0  0  0
   57.9500   21.5060   43.6620 C   0  0  0  0  0  0  0  0  0  0  0  0
   58.4097   20.7027   43.0676 H   0  0  0  0  0  0  0  0  0  0  0  0
   58.6950   22.1610   44.6470 C   0  0  0  0  0  0  0  0  0  0  0  0
   59.7434   21.8777   44.8221 H   0  0  0  0  0  0  0  0  0  0  0  0
   58.1090   23.1760   45.4100 C   0  0  0  0  0  0  0  0  0  0  0  0
   58.8440   23.8060   46.3600 F   0  0  0  0  0  0  0  0  0  0  0  0
   57.1180   29.0530   44.9230 C   0  0  0  0  0  0  0  0  0  0  0  0
   56.3510   28.9730   43.9220 O   0  0  0  0  0  0  0  0  0  0  0  0
   59.2410   34.3060   44.8830 C   0  0  0  0  0  0  0  0  0  0  0  0
   59.6788   34.5153   43.8958 H   0  0  0  0  0  0  0  0  0  0  0  0
   59.5290   34.9370   46.0750 C   0  0  0  0  0  0  0  0  0  0  0  0
   60.2476   35.7547   46.2329 H   0  0  0  0  0  0  0  0  0  0  0  0
  1  2  1  0
  2  3  1  0
  3  4  1  0
  4  5  1  0
  5  6  1  0
  5  7  1  0
  5  8  1  0
  8  9  2  0
  9 10  1  0
 10 11  1  0
 11 12  2  0
 12 13  1  0
 12 14  1  0
 14 15  1  0
 14 16  2  0
 16 17  1  0
 16 18  1  0
 18 19  1  0
 18 20  2  0
 20 21  1  0
 21 22  1  0
 22 23  1  0
 22 24  1  0
 22 25  1  0
 25 26  2  0
 25 27  1  0
 27 28  1  0
 28 29  2  0
 29 30  1  0
 29 31  1  0
 31 32  1  0
 31 33  2  0
 33 34  1  0
 33 35  1  0
 35 36  1  0
 35 37  2  0
 37 38  1  0
 21 39  1  0
 39 40  2  0
  4 41  2  0
 41 42  1  0
 41 43  1  0
 43 44  1  0
 43  2  2  0
 39  9  1  0
 20 11  1  0
 37 28  1  0
M  CHG  2  10  -1  27  -1
M  END
>  <UniqueID>  (17) 
17

>  <SMILES>  (17) 
O=C(Cn1c(=O)/c(=N/Cc2ccco2)[n-]c2ccccc21)[N-]c1ccccc1F

>  <Energy>  (17) 
86.40572869435114

>  <Genealogy>  (17) 
O=C(Cn1c(=O)c(=NCc2ccco2)[n-]c2ccccc21)[N-]c1ccccc1F (protonated)
O=C(Cn1c(=O)/c(=N/Cc2ccco2)[n-]c2ccccc21)[N-]c1ccccc1F (cis-trans isomerization)
O=C(Cn1c(=O)/c(=N/Cc2ccco2)[n-]c2ccccc21)[N-]c1ccccc1F (3D coordinates assigned)
O=C(Cn1c(=O)/c(=N/Cc2ccco2)[n-]c2ccccc21)[N-]c1ccccc1F (optimized conformer: 86.40572869435114 kcal/mol)

>  <smiles>  (17) 
O=C(Cn1c(=O)c(=NCc2ccco2)[nH]c2ccccc21)Nc1ccccc1F

>  <score_type>  (17) 
oracle

>  <origin>  (17) 
adg

>  <m_score__min__energy>  (17) 
-11.16

>  <m_primary>  (17) 
energy

$$$$
17:0
     RDKit          3D

 38 40  0  0  0  0  0  0  0  0999 V2000
   65.0919   33.2062   48.5411 H   0  0  0  0  0  0  0  0  0  0  0  0
   64.0480   33.4300   48.2760 C   0  0  0  0  0  0  0  0  0  0  0  0
   63.3830   33.3680   46.7300 S   0  0  0  0  0  0  0  0  0  0  0  0
   61.8490   33.8460   47.2470 C   0  0  0  0  0  0  0  0  0  0  0  0
   60.7900   34.0060   46.5070 N   0  0  0  0  0  0  0  0  0  0  0  0
   59.5330   33.3140   46.6060 C   0  0  0  0  0  0  0  0  0  0  0  0
   58.4440   33.9480   46.5740 O   0  0  0  0  0  0  0  0  0  0  0  0
   59.5180   31.8380   46.7520 C   0  0  0  0  0  0  0  0  0  0  0  0
   60.3950   31.1970   47.6460 C   0  0  0  0  0  0  0  0  0  0  0  0
   61.0925   31.7954   48.2505 H   0  0  0  0  0  0  0  0  0  0  0  0
   60.3860   29.8070   47.7710 C   0  0  0  0  0  0  0  0  0  0  0  0
   61.0810   29.3153   48.4676 H   0  0  0  0  0  0  0  0  0  0  0  0
   59.4990   29.0380   47.0160 C   0  0  0  0  0  0  0  0  0  0  0  0
   59.4976   27.9427   47.1180 H   0  0  0  0  0  0  0  0  0  0  0  0
   58.6120   29.6580   46.1300 C   0  0  0  0  0  0  0  0  0  0  0  0
   57.4830   28.6790   45.1970 S   0  0  0  0  0  0  0  0  0  0  0  0
   56.1070   29.2840   45.2170 O   0  0  0  0  0  0  0  0  0  0  0  0
   57.9640   28.6010   43.7760 O   0  0  0  0  0  0  0  0  0  0  0  0
   57.4050   27.0760   45.8600 N   0  0  0  0  0  0  0  0  0  0  0  0
   56.3640   26.3040   45.7810 C   0  0  0  0  0  0  0  0  0  0  0  0
   55.1430   26.7170   46.0130 O   0  0  0  0  0  0  0  0  0  0  0  0
   54.2910   25.7440   45.8630 N   0  0  0  0  0  0  0  0  0  0  0  0
   55.0020   24.6550   45.5040 C   0  0  0  0  0  0  0  0  0  0  0  0
   54.4040   23.3030   45.2930 C   0  0  0  0  0  0  0  0  0  0  0  0
   54.1979   22.8370   46.2679 H   0  0  0  0  0  0  0  0  0  0  0  0
   53.4654   23.4013   44.7278 H   0  0  0  0  0  0  0  0  0  0  0  0
   55.1082   22.6747   44.7278 H   0  0  0  0  0  0  0  0  0  0  0  0
   56.3460   24.9620   45.4520 C   0  0  0  0  0  0  0  0  0  0  0  0
   57.1924   24.3028   45.2091 H   0  0  0  0  0  0  0  0  0  0  0  0
   58.6260   31.0530   45.9940 C   0  0  0  0  0  0  0  0  0  0  0  0
   57.9349   31.5392   45.2897 H   0  0  0  0  0  0  0  0  0  0  0  0
   61.8330   34.0530   48.5820 N   0  0  0  0  0  0  0  0  0  0  0  0
   60.9850   34.3650   49.1090 H   0  0  0  0  0  0  0  0  0  0  0  0
   63.0420   33.8150   49.1600 C   0  0  0  0  0  0  0  0  0  0  0  0
   63.2820   34.0230   50.6210 C   0  0  0  0  0  0  0  0  0  0  0  0
   62.5750   33.4103   51.1996 H   0  0  0  0  0  0  0  0  0  0  0  0
   64.3120   33.7271   50.8691 H   0  0  0  0  0  0  0  0  0  0  0  0
   63.1356   35.0846   50.8691 H   0  0  0  0  0  0  0  0  0  0  0  0
  1  2  1  0
  2  3  1  0
  3  4  1  0
  4  5  2  0
  5  6  1  0
  6  7  2  0
  6  8  1  0
  8  9  2  0
  9 10  1  0
  9 11  1  0
 11 12  1  0
 11 13  2  0
 13 14  1  0
 13 15  1  0
 15 16  1  0
 16 17  2  0
 16 18  2  0
 16 19  1  0
 19 20  2  3
 20 21  1  0
 21 22  1  0
 22 23  1  0
 23 24  1  0
 24 25  1  0
 24 26  1  0
 24 27  1  0
 23 28  2  0
 28 29  1  0
 15 30  2  0
 30 31  1  0
  4 32  1  0
 32 33  1  0
 32 34  1  0
 34 35  1  0
 35 36  1  0
 35 37  1  0
 35 38  1  0
 34  2  2  0
 30  8  1  0
 28 20  1  0
M  CHG  1  22  -1
M  END
>  <UniqueID>  (18) 
18

>  <SMILES>  (18) 
Cc1cc(=NS(=O)(=O)c2cccc(C(=O)/N=c3/[nH]c(C)cs3)c2)o[n-]1

>  <Energy>  (18) 
106.0461894023087

>  <Genealogy>  (18) 
Cc1cc(=NS(=O)(=O)c2cccc(C(=O)N=c3[nH]c(C)cs3)c2)o[n-]1 (protonated)
Cc1cc(=NS(=O)(=O)c2cccc(C(=O)/N=c3/[nH]c(C)cs3)c2)o[n-]1 (cis-trans isomerization)
Cc1cc(=NS(=O)(=O)c2cccc(C(=O)/N=c3/[nH]c(C)cs3)c2)o[n-]1 (3D coordinates assigned)
Cc1cc(=NS(=O)(=O)c2cccc(C(=O)/N=c3/[nH]c(C)cs3)c2)o[n-]1 (optimized conformer: 106.0461894023087 kcal/mol)

>  <smiles>  (18) 
Cc1cc(=NS(=O)(=O)c2cccc(C(=O)N=c3[nH]c(C)cs3)c2)o[nH]1

>  <score_type>  (18) 
oracle

>  <origin>  (18) 
adg

>  <m_score__min__energy>  (18) 
-12.220000000000001

>  <m_primary>  (18) 
energy

$$$$
18:0
     RDKit          3D

 24 25  0  0  0  0  0  0  0  0999 V2000
   58.8430   30.3150   46.9780 C   0  0  0  0  0  0  0  0  0  0  0  0
   58.1160   29.7300   46.0230 C   0  0  0  0  0  0  0  0  0  0  0  0
   57.6030   30.3800   44.9150 C   0  0  0  0  0  0  0  0  0  0  0  0
   56.9180   29.4220   44.1940 C   0  0  0  0  0  0  0  0  0  0  0  0
   56.2670   29.6430   42.8680 C   0  0  0  0  0  0  0  0  0  0  0  0
   57.0030   28.2200   44.7960 N   0  0  0  0  0  0  0  0  0  0  0  0
   57.7230   28.3950   45.9270 C   0  0  0  0  0  0  0  0  0  0  0  0
   58.0410   27.4050   46.7850 C   0  0  0  0  0  0  0  0  0  0  0  0
   57.3340   26.1140   46.8350 C   0  0  0  0  0  0  0  0  0  0  0  0
   57.8500   25.0150   47.4100 N   0  0  0  0  0  0  0  0  0  0  0  0
   56.8680   24.0990   47.2750 C   0  0  0  0  0  0  0  0  0  0  0  0
   56.9820   22.9150   47.6880 O   0  0  0  0  0  0  0  0  0  0  0  0
   55.7500   24.5510   46.6690 N   0  0  0  0  0  0  0  0  0  0  0  0
   56.0500   25.8340   46.4070 C   0  0  0  0  0  0  0  0  0  0  0  0
   55.1490   26.7260   45.8310 O   0  0  0  0  0  0  0  0  0  0  0  0
   59.2132   29.7228   47.8279 H   0  0  0  0  0  0  0  0  0  0  0  0
   59.0717   31.3891   46.9149 H   0  0  0  0  0  0  0  0  0  0  0  0
   57.7175   31.4439   44.6600 H   0  0  0  0  0  0  0  0  0  0  0  0
   55.2354   29.9932   43.0198 H   0  0  0  0  0  0  0  0  0  0  0  0
   56.8318   30.3997   42.3038 H   0  0  0  0  0  0  0  0  0  0  0  0
   56.2544   28.6988   42.3038 H   0  0  0  0  0  0  0  0  0  0  0  0
   56.6160   27.3260   44.4190 H   0  0  0  0  0  0  0  0  0  0  0  0
   58.8731   27.5703   47.4852 H   0  0  0  0  0  0  0  0  0  0  0  0
   54.7120   27.4620   46.3720 H   0  0  0  0  0  0  0  0  0  0  0  0
  1  2  2  0
  2  3  1  0
  3  4  2  0
  4  5  1  0
  4  6  1  0
  6  7  1  0
  7  8  2  3
  8  9  1  0
  9 10  1  0
 10 11  1  0
 11 12  2  0
 11 13  1  0
 13 14  1  0
 14 15  1  0
  7  2  1  0
 14  9  2  0
  1 16  1  0
  1 17  1  0
  3 18  1  0
  5 19  1  0
  5 20  1  0
  5 21  1  0
  6 22  1  0
  8 23  1  0
 15 24  1  0
M  CHG  2  10  -1  13  -1
M  END
>  <UniqueID>  (19) 
19

>  <SMILES>  (19) 
C=c1cc(C)[nH]c1=Cc1[n-]c(=O)[n-]c1O

>  <Energy>  (19) 
85.5660495547759

>  <Genealogy>  (19) 
C=c1cc(C)[nH]c1=Cc1[n-]c(=O)[n-]c1O (protonated)
C=c1cc(C)[nH]c1=Cc1[n-]c(=O)[n-]c1O (3D coordinates assigned)
C=c1cc(C)[nH]c1=Cc1[n-]c(=O)[n-]c1O (optimized conformer: 85.5660495547759 kcal/mol)

>  <smiles>  (19) 
C=c1cc(C)[nH]c1=Cc1[nH]c(=O)[nH]c1O

>  <score_type>  (19) 
oracle

>  <origin>  (19) 
adg

>  <m_score__min__energy>  (19) 
-10.84

>  <m_primary>  (19) 
energy

$$$$
19:0
     RDKit          3D

 41 44  0  0  0  0  0  0  0  0999 V2000
   57.6297   34.7081   45.4668 H   0  0  0  0  0  0  0  0  0  0  0  0
   57.8450   33.6450   45.6500 C   0  0  0  0  0  0  0  0  0  0  0  0
   57.5050   32.6650   44.7690 N   0  0  0  0  0  0  0  0  0  0  0  0
   57.8720   31.4440   45.2130 C   0  0  0  0  0  0  0  0  0  0  0  0
   57.6120   30.3590   44.5450 N   0  0  0  0  0  0  0  0  0  0  0  0
   56.3150   29.7680   44.3740 C   0  0  0  0  0  0  0  0  0  0  0  0
   55.5600   30.2060   43.4690 O   0  0  0  0  0  0  0  0  0  0  0  0
   55.8440   28.7050   45.2180 N   0  0  0  0  0  0  0  0  0  0  0  0
   56.6100   27.5720   45.6600 C   0  0  0  0  0  0  0  0  0  0  0  0
   58.0140   27.6160   45.7350 C   0  0  0  0  0  0  0  0  0  0  0  0
   58.5481   28.5399   45.4682 H   0  0  0  0  0  0  0  0  0  0  0  0
   58.7330   26.4910   46.1470 C   0  0  0  0  0  0  0  0  0  0  0  0
   59.8316   26.5266   46.1888 H   0  0  0  0  0  0  0  0  0  0  0  0
   58.0590   25.3210   46.5060 C   0  0  0  0  0  0  0  0  0  0  0  0
   58.6269   24.4368   46.8312 H   0  0  0  0  0  0  0  0  0  0  0  0
   56.6640   25.2740   46.4520 C   0  0  0  0  0  0  0  0  0  0  0  0
   56.1343   24.3533   46.7378 H   0  0  0  0  0  0  0  0  0  0  0  0
   55.9390   26.3960   46.0350 C   0  0  0  0  0  0  0  0  0  0  0  0
   54.5510   26.3350   45.9820 O   0  0  0  0  0  0  0  0  0  0  0  0
   58.6730   31.5290   46.6950 S   0  0  0  0  0  0  0  0  0  0  0  0
   58.4860   33.1970   46.8000 C   0  0  0  0  0  0  0  0  0  0  0  0
   58.9100   34.0430   47.9620 C   0  0  0  0  0  0  0  0  0  0  0  0
   59.2251   35.0309   47.5949 H   0  0  0  0  0  0  0  0  0  0  0  0
   58.0614   34.1491   48.6538 H   0  0  0  0  0  0  0  0  0  0  0  0
   60.0670   33.3910   48.6990 C   0  0  0  0  0  0  0  0  0  0  0  0
   59.8540   32.8820   50.0000 C   0  0  0  0  0  0  0  0  0  0  0  0
   58.5960   32.9390   50.5920 O   0  0  0  0  0  0  0  0  0  0  0  0
   60.9040   32.3150   50.7220 C   0  0  0  0  0  0  0  0  0  0  0  0
   60.7183   31.9138   51.7292 H   0  0  0  0  0  0  0  0  0  0  0  0
   62.1830   32.2520   50.1810 C   0  0  0  0  0  0  0  0  0  0  0  0
   63.0006   31.7977   50.7599 H   0  0  0  0  0  0  0  0  0  0  0  0
   62.4350   32.7640   48.9030 C   0  0  0  0  0  0  0  0  0  0  0  0
   63.7340   32.7090   48.3750 C   0  0  0  0  0  0  0  0  0  0  0  0
   64.5437   32.2498   48.9611 H   0  0  0  0  0  0  0  0  0  0  0  0
   64.0040   33.2330   47.1120 C   0  0  0  0  0  0  0  0  0  0  0  0
   65.0242   33.1849   46.7036 H   0  0  0  0  0  0  0  0  0  0  0  0
   62.9820   33.8180   46.3660 C   0  0  0  0  0  0  0  0  0  0  0  0
   63.2011   34.2372   45.3729 H   0  0  0  0  0  0  0  0  0  0  0  0
   61.6820   33.8750   46.8720 C   0  0  0  0  0  0  0  0  0  0  0  0
   60.8837   34.3353   46.2713 H   0  0  0  0  0  0  0  0  0  0  0  0
   61.3810   33.3470   48.1490 C   0  0  0  0  0  0  0  0  0  0  0  0
  1  2  1  0
  2  3  1  0
  3  4  1  0
  4  5  2  0
  5  6  1  0
  6  7  2  0
  6  8  1  0
  8  9  1  0
  9 10  2  0
 10 11  1  0
 10 12  1  0
 12 13  1  0
 12 14  2  0
 14 15  1  0
 14 16  1  0
 16 17  1  0
 16 18  2  0
 18 19  1  0
  4 20  1  0
 20 21  1  0
 21 22  1  0
 22 23  1  0
 22 24  1  0
 22 25  1  0
 25 26  2  0
 26 27  1  0
 26 28  1  0
 28 29  1  0
 28 30  2  0
 30 31  1  0
 30 32  1  0
 32 33  2  0
 33 34  1  0
 33 35  1  0
 35 36  1  0
 35 37  2  0
 37 38  1  0
 37 39  1  0
 39 40  1  0
 39 41  2  0
 21  2  2  0
 41 25  1  0
 18  9  1  0
 41 32  1  0
M  CHG  4   3  -1   8  -1  19  -1  27  -1
M  END
>  <UniqueID>  (20) 
20

>  <SMILES>  (20) 
O=C(/N=c1/[n-]cc(Cc2c([O-])ccc3ccccc23)s1)[N-]c1ccccc1[O-]

>  <Energy>  (20) 
87.00259742145647

>  <Genealogy>  (20) 
O=C(N=c1[n-]cc(Cc2c([O-])ccc3ccccc23)s1)[N-]c1ccccc1[O-] (protonated)
O=C(/N=c1/[n-]cc(Cc2c([O-])ccc3ccccc23)s1)[N-]c1ccccc1[O-] (cis-trans isomerization)
O=C(/N=c1/[n-]cc(Cc2c([O-])ccc3ccccc23)s1)[N-]c1ccccc1[O-] (3D coordinates assigned)
O=C(/N=c1/[n-]cc(Cc2c([O-])ccc3ccccc23)s1)[N-]c1ccccc1[O-] (optimized conformer: 87.00259742145647 kcal/mol)

>  <smiles>  (20) 
O=C(N=c1[nH]cc(Cc2c(O)ccc3ccccc23)s1)Nc1ccccc1O

>  <score_type>  (20) 
oracle

>  <origin>  (20) 
adg

>  <m_score__min__energy>  (20) 
-16.199999999999999

>  <m_primary>  (20) 
energy

$$$$
20:0
     RDKit          3D

 61 64  0  0  0  0  0  0  0  0999 V2000
   57.1360   32.1800   41.3200 C   0  0  0  0  0  0  0  0  0  0  0  0
   58.2250   32.0070   42.3760 C   0  0  0  0  0  0  0  0  0  0  0  0
   57.6280   31.8370   43.7100 N   0  0  0  0  0  0  0  0  0  0  0  0
   56.6190   30.8380   43.9720 C   0  0  0  0  0  0  0  0  0  0  0  0
   55.5180   31.1940   44.4790 O   0  0  0  0  0  0  0  0  0  0  0  0
   56.8200   29.3860   43.6040 C   0  0  0  0  0  0  0  0  0  0  0  0
   57.1550   28.5610   44.8100 C   0  0  0  0  0  0  0  0  0  0  0  0
   58.3160   28.6650   45.5500 C   0  0  0  0  0  0  0  0  0  0  0  0
   58.2310   27.6970   46.5270 C   0  0  0  0  0  0  0  0  0  0  0  0
   59.2000   27.4290   47.6080 C   0  0  0  0  0  0  0  0  0  0  0  0
   59.9230   26.4000   47.5080 O   0  0  0  0  0  0  0  0  0  0  0  0
   59.3660   28.3240   48.7370 N   0  0  0  0  0  0  0  0  0  0  0  0
   60.4570   28.1050   49.7050 C   0  0  0  0  0  0  0  0  0  0  0  0
   61.3050   29.3760   49.8170 C   0  0  0  0  0  0  0  0  0  0  0  0
   60.4580   30.5670   49.9910 N   0  0  0  0  0  0  0  0  0  0  0  0
   61.0640   31.8070   50.3890 C   0  0  0  0  0  0  0  0  0  0  0  0
   60.6060   32.4250   51.3890 O   0  0  0  0  0  0  0  0  0  0  0  0
   62.2030   32.3770   49.6350 C   0  0  0  0  0  0  0  0  0  0  0  0
   63.2880   32.9480   50.3240 C   0  0  0  0  0  0  0  0  0  0  0  0
   64.3770   33.4710   49.6230 C   0  0  0  0  0  0  0  0  0  0  0  0
   64.3980   33.4250   48.2280 C   0  0  0  0  0  0  0  0  0  0  0  0
   63.3310   32.8530   47.5320 C   0  0  0  0  0  0  0  0  0  0  0  0
   62.2380   32.3260   48.2270 C   0  0  0  0  0  0  0  0  0  0  0  0
   61.2080   31.7900   47.5250 F   0  0  0  0  0  0  0  0  0  0  0  0
   58.9970   30.4370   50.0190 C   0  0  0  0  0  0  0  0  0  0  0  0
   58.5250   29.5270   48.8770 C   0  0  0  0  0  0  0  0  0  0  0  0
   57.0150   27.0700   46.3360 C   0  0  0  0  0  0  0  0  0  0  0  0
   56.5110   26.0240   47.1000 O   0  0  0  0  0  0  0  0  0  0  0  0
   56.3540   27.5850   45.2820 N   0  0  0  0  0  0  0  0  0  0  0  0
   58.1360   32.6210   44.8060 C   0  0  0  0  0  0  0  0  0  0  0  0
   58.7170   33.8770   44.5600 C   0  0  0  0  0  0  0  0  0  0  0  0
   59.1920   34.6530   45.6220 C   0  0  0  0  0  0  0  0  0  0  0  0
   59.0950   34.1800   46.9340 C   0  0  0  0  0  0  0  0  0  0  0  0
   58.5260   32.9280   47.1860 C   0  0  0  0  0  0  0  0  0  0  0  0
   58.0440   32.1500   46.1270 C   0  0  0  0  0  0  0  0  0  0  0  0
   56.1660   32.3341   41.8154 H   0  0  0  0  0  0  0  0  0  0  0  0
   57.3696   33.0523   40.6919 H   0  0  0  0  0  0  0  0  0  0  0  0
   57.0878   31.2783   40.6919 H   0  0  0  0  0  0  0  0  0  0  0  0
   58.8268   31.1188   42.1330 H   0  0  0  0  0  0  0  0  0  0  0  0
   58.8597   32.9054   42.3825 H   0  0  0  0  0  0  0  0  0  0  0  0
   55.8951   28.9996   43.1509 H   0  0  0  0  0  0  0  0  0  0  0  0
   57.6576   29.3200   42.8940 H   0  0  0  0  0  0  0  0  0  0  0  0
   59.1406   29.3756   45.3919 H   0  0  0  0  0  0  0  0  0  0  0  0
   60.0303   27.8613   50.6891 H   0  0  0  0  0  0  0  0  0  0  0  0
   61.0889   27.2724   49.3623 H   0  0  0  0  0  0  0  0  0  0  0  0
   61.9770   29.2839   50.6830 H   0  0  0  0  0  0  0  0  0  0  0  0
   61.8830   29.4922   48.8884 H   0  0  0  0  0  0  0  0  0  0  0  0
   63.2789   32.9830   51.4234 H   0  0  0  0  0  0  0  0  0  0  0  0
   65.2189   33.9196   50.1707 H   0  0  0  0  0  0  0  0  0  0  0  0
   65.2551   33.8394   47.6769 H   0  0  0  0  0  0  0  0  0  0  0  0
   63.3504   32.8168   46.4328 H   0  0  0  0  0  0  0  0  0  0  0  0
   58.6891   30.0021   50.9813 H   0  0  0  0  0  0  0  0  0  0  0  0
   58.5452   31.4323   49.8955 H   0  0  0  0  0  0  0  0  0  0  0  0
   57.4901   29.2137   49.0788 H   0  0  0  0  0  0  0  0  0  0  0  0
   58.5958   30.0984   47.9397 H   0  0  0  0  0  0  0  0  0  0  0  0
   55.5200   25.8140   47.1290 H   0  0  0  0  0  0  0  0  0  0  0  0
   58.7983   34.2508   43.5287 H   0  0  0  0  0  0  0  0  0  0  0  0
   59.6426   35.6369   45.4248 H   0  0  0  0  0  0  0  0  0  0  0  0
   59.4665   34.7931   47.7683 H   0  0  0  0  0  0  0  0  0  0  0  0
   58.4570   32.5538   48.2181 H   0  0  0  0  0  0  0  0  0  0  0  0
   57.5921   31.1677   46.3291 H   0  0  0  0  0  0  0  0  0  0  0  0
  1  2  1  0
  2  3  1  0
  3  4  1  0
  4  5  2  0
  4  6  1  0
  6  7  1  0
  7  8  2  0
  8  9  1  0
  9 10  1  0
 10 11  2  0
 10 12  1  0
 12 13  1  0
 13 14  1  0
 14 15  1  0
 15 16  1  0
 16 17  2  0
 16 18  1  0
 18 19  2  0
 19 20  1  0
 20 21  2  0
 21 22  1  0
 22 23  2  0
 23 24  1  0
 15 25  1  0
 25 26  1  0
  9 27  2  0
 27 28  1  0
 27 29  1  0
  3 30  1  0
 30 31  2  0
 31 32  1  0
 32 33  2  0
 33 34  1  0
 34 35  2  0
 29  7  1  0
 35 30  1  0
 26 12  1  0
 23 18  1  0
  1 36  1  0
  1 37  1  0
  1 38  1  0
  2 39  1  0
  2 40  1  0
  6 41  1  0
  6 42  1  0
  8 43  1  0
 13 44  1  0
 13 45  1  0
 14 46  1  0
 14 47  1  0
 19 48  1  0
 20 49  1  0
 21 50  1  0
 22 51  1  0
 25 52  1  0
 25 53  1  0
 26 54  1  0
 26 55  1  0
 28 56  1  0
 31 57  1  0
 32 58  1  0
 33 59  1  0
 34 60  1  0
 35 61  1  0
M  CHG  1  29  -1
M  END
>  <UniqueID>  (21) 
21

>  <SMILES>  (21) 
CCN(C(=O)Cc1cc(C(=O)N2CCN(C(=O)c3ccccc3F)CC2)c(O)[n-]1)c1ccccc1

>  <Energy>  (21) 
104.82610329622352

>  <Genealogy>  (21) 
CCN(C(=O)Cc1cc(C(=O)N2CCN(C(=O)c3ccccc3F)CC2)c(O)[n-]1)c1ccccc1 (protonated)
CCN(C(=O)Cc1cc(C(=O)N2CCN(C(=O)c3ccccc3F)CC2)c(O)[n-]1)c1ccccc1 (3D coordinates assigned)
CCN(C(=O)Cc1cc(C(=O)N2CCN(C(=O)c3ccccc3F)CC2)c(O)[n-]1)c1ccccc1 (nonaromatic ring conformer: 104.82610329622352 kcal/mol)

>  <smiles>  (21) 
CCN(C(=O)Cc1cc(C(=O)N2CCN(C(=O)c3ccccc3F)CC2)c(O)[nH]1)c1ccccc1

>  <score_type>  (21) 
oracle

>  <origin>  (21) 
adg

>  <m_score__min__energy>  (21) 
-11.43

>  <m_primary>  (21) 
energy

$$$$
21:0
     RDKit          3D

 59 62  0  0  0  0  0  0  0  0999 V2000
   58.6310   30.9390   47.0980 C   0  0  0  0  0  0  0  0  0  0  0  0
   58.6770   31.8580   46.1150 C   0  0  0  0  0  0  0  0  0  0  0  0
   58.2250   31.6900   44.7950 C   0  0  0  0  0  0  0  0  0  0  0  0
   57.8080   30.5950   44.1250 C   0  0  0  0  0  0  0  0  0  0  0  0
   57.4890   29.2820   44.7180 C   0  0  0  0  0  0  0  0  0  0  0  0
   56.1710   28.9190   45.0660 C   0  0  0  0  0  0  0  0  0  0  0  0
   55.0930   29.7780   44.8650 O   0  0  0  0  0  0  0  0  0  0  0  0
   55.9380   27.7000   45.6220 N   0  0  0  0  0  0  0  0  0  0  0  0
   56.9500   26.8310   45.8670 C   0  0  0  0  0  0  0  0  0  0  0  0
   56.6310   25.3770   46.5370 S   0  0  0  0  0  0  0  0  0  0  0  0
   58.2280   27.1700   45.5620 N   0  0  0  0  0  0  0  0  0  0  0  0
   58.5200   28.3710   45.0000 C   0  0  0  0  0  0  0  0  0  0  0  0
   59.7180   28.6530   44.7320 O   0  0  0  0  0  0  0  0  0  0  0  0
   58.2750   32.9380   44.2080 C   0  0  0  0  0  0  0  0  0  0  0  0
   58.7780   33.8070   45.1480 C   0  0  0  0  0  0  0  0  0  0  0  0
   58.9420   35.2780   44.9060 C   0  0  0  0  0  0  0  0  0  0  0  0
   59.0810   33.1500   46.2980 N   0  0  0  0  0  0  0  0  0  0  0  0
   59.5910   33.7680   47.5410 C   0  0  0  0  0  0  0  0  0  0  0  0
   60.9920   33.3030   47.9000 C   0  0  0  0  0  0  0  0  0  0  0  0
   61.9380   33.2290   46.8590 C   0  0  0  0  0  0  0  0  0  0  0  0
   63.2270   32.7560   47.0950 C   0  0  0  0  0  0  0  0  0  0  0  0
   63.5960   32.3560   48.3750 C   0  0  0  0  0  0  0  0  0  0  0  0
   62.6870   32.4520   49.4280 C   0  0  0  0  0  0  0  0  0  0  0  0
   61.3870   32.9520   49.2260 C   0  0  0  0  0  0  0  0  0  0  0  0
   60.2760   33.0980   50.6200 S   0  0  0  0  0  0  0  0  0  0  0  0
   59.4670   34.3490   50.4390 O   0  0  0  0  0  0  0  0  0  0  0  0
   61.0850   33.2240   51.8790 O   0  0  0  0  0  0  0  0  0  0  0  0
   59.1790   31.7550   50.8730 N   0  0  0  0  0  0  0  0  0  0  0  0
   59.5790   30.9110   52.0110 C   0  0  0  0  0  0  0  0  0  0  0  0
   58.6700   29.6760   52.1210 C   0  0  0  0  0  0  0  0  0  0  0  0
   57.2430   29.9530   51.8150 N   0  0  0  0  0  0  0  0  0  0  0  0
   56.3620   29.1910   52.7160 C   0  0  0  0  0  0  0  0  0  0  0  0
   56.9120   31.3850   51.8790 C   0  0  0  0  0  0  0  0  0  0  0  0
   57.7570   32.1620   50.8610 C   0  0  0  0  0  0  0  0  0  0  0  0
   59.0168   31.1841   48.0986 H   0  0  0  0  0  0  0  0  0  0  0  0
   58.2077   29.9431   46.9005 H   0  0  0  0  0  0  0  0  0  0  0  0
   57.6954   30.6903   43.0349 H   0  0  0  0  0  0  0  0  0  0  0  0
   54.7900   30.4480   45.5590 H   0  0  0  0  0  0  0  0  0  0  0  0
   57.9700   33.1902   43.1817 H   0  0  0  0  0  0  0  0  0  0  0  0
   59.0006   35.8039   45.8703 H   0  0  0  0  0  0  0  0  0  0  0  0
   59.8654   35.4550   44.3351 H   0  0  0  0  0  0  0  0  0  0  0  0
   58.0802   35.6540   44.3351 H   0  0  0  0  0  0  0  0  0  0  0  0
   59.6064   34.8600   47.4095 H   0  0  0  0  0  0  0  0  0  0  0  0
   58.9221   33.4640   48.3596 H   0  0  0  0  0  0  0  0  0  0  0  0
   61.6550   33.5492   45.8454 H   0  0  0  0  0  0  0  0  0  0  0  0
   63.9522   32.6989   46.2699 H   0  0  0  0  0  0  0  0  0  0  0  0
   64.6072   31.9630   48.5570 H   0  0  0  0  0  0  0  0  0  0  0  0
   62.9916   32.1310   50.4351 H   0  0  0  0  0  0  0  0  0  0  0  0
   60.6188   30.5818   51.8679 H   0  0  0  0  0  0  0  0  0  0  0  0
   59.4875   31.4996   52.9358 H   0  0  0  0  0  0  0  0  0  0  0  0
   59.0341   28.9135   51.4167 H   0  0  0  0  0  0  0  0  0  0  0  0
   58.7137   29.3380   53.1669 H   0  0  0  0  0  0  0  0  0  0  0  0
   56.6226   29.4164   53.7607 H   0  0  0  0  0  0  0  0  0  0  0  0
   55.3151   29.4730   52.5302 H   0  0  0  0  0  0  0  0  0  0  0  0
   56.4902   28.1144   52.5302 H   0  0  0  0  0  0  0  0  0  0  0  0
   55.8453   31.5235   51.6490 H   0  0  0  0  0  0  0  0  0  0  0  0
   57.1262   31.7615   52.8901 H   0  0  0  0  0  0  0  0  0  0  0  0
   57.3483   31.9844   49.8553 H   0  0  0  0  0  0  0  0  0  0  0  0
   57.7129   33.2264   51.1349 H   0  0  0  0  0  0  0  0  0  0  0  0
  1  2  2  0
  2  3  1  0
  3  4  2  3
  4  5  1  0
  5  6  2  0
  6  7  1  0
  6  8  1  0
  8  9  1  0
  9 10  2  0
  9 11  1  0
 11 12  1  0
 12 13  2  0
  3 14  1  0
 14 15  2  0
 15 16  1  0
 15 17  1  0
 17 18  1  0
 18 19  1  0
 19 20  2  0
 20 21  1  0
 21 22  2  0
 22 23  1  0
 23 24  2  0
 24 25  1  0
 25 26  2  0
 25 27  2  0
 25 28  1  0
 28 29  1  0
 29 30  1  0
 30 31  1  0
 31 32  1  0
 31 33  1  0
 33 34  1  0
 17  2  1  0
 24 19  1  0
 34 28  1  0
 12  5  1  0
  1 35  1  0
  1 36  1  0
  4 37  1  0
  7 38  1  0
 14 39  1  0
 16 40  1  0
 16 41  1  0
 16 42  1  0
 18 43  1  0
 18 44  1  0
 20 45  1  0
 21 46  1  0
 22 47  1  0
 23 48  1  0
 29 49  1  0
 29 50  1  0
 30 51  1  0
 30 52  1  0
 32 53  1  0
 32 54  1  0
 32 55  1  0
 33 56  1  0
 33 57  1  0
 34 58  1  0
 34 59  1  0
M  CHG  2   8  -1  11  -1
M  END
>  <UniqueID>  (22) 
22

>  <SMILES>  (22) 
C=c1c(=Cc2c(O)[n-]c(=S)[n-]c2=O)cc(C)n1Cc1ccccc1S(=O)(=O)N1CCN(C)CC1

>  <Energy>  (22) 
123.05991406737168

>  <Genealogy>  (22) 
C=c1c(=Cc2c(O)[n-]c(=S)[n-]c2=O)cc(C)n1Cc1ccccc1S(=O)(=O)N1CCN(C)CC1 (protonated)
C=c1c(=Cc2c(O)[n-]c(=S)[n-]c2=O)cc(C)n1Cc1ccccc1S(=O)(=O)N1CCN(C)CC1 (3D coordinates assigned)
C=c1c(=Cc2c(O)[n-]c(=S)[n-]c2=O)cc(C)n1Cc1ccccc1S(=O)(=O)N1CCN(C)CC1 (nonaromatic ring conformer: 123.05991406737168 kcal/mol)

>  <smiles>  (22) 
C=c1c(=Cc2c(O)[nH]c(=S)[nH]c2=O)cc(C)n1Cc1ccccc1S(=O)(=O)N1CCN(C)CC1

>  <score_type>  (22) 
oracle

>  <origin>  (22) 
adg

>  <m_score__min__energy>  (22) 
-14.390000000000001

>  <m_primary>  (22) 
energy

$$$$
22:0
     RDKit          3D

 46 48  0  0  0  0  0  0  0  0999 V2000
   51.6110   30.3950   48.3090 H   0  0  0  0  0  0  0  0  0  0  0  0
   51.8680   29.8780   49.1420 O   0  0  0  0  0  0  0  0  0  0  0  0
   51.8480   30.4680   50.4040 C   0  0  0  0  0  0  0  0  0  0  0  0
   52.4440   29.8240   51.4990 C   0  0  0  0  0  0  0  0  0  0  0  0
   52.9318   28.8480   51.3593 H   0  0  0  0  0  0  0  0  0  0  0  0
   52.4220   30.4190   52.7770 C   0  0  0  0  0  0  0  0  0  0  0  0
   53.0440   29.7830   53.9640 C   0  0  0  0  0  0  0  0  0  0  0  0
   52.6335   30.0232   54.9559 H   0  0  0  0  0  0  0  0  0  0  0  0
   54.0780   28.9320   53.8970 C   0  0  0  0  0  0  0  0  0  0  0  0
   54.0031   27.9640   54.4141 H   0  0  0  0  0  0  0  0  0  0  0  0
   55.3110   29.2480   53.1550 C   0  0  0  0  0  0  0  0  0  0  0  0
   55.3250   29.2220   51.8940 O   0  0  0  0  0  0  0  0  0  0  0  0
   56.4770   29.6370   53.8890 N   0  0  0  0  0  0  0  0  0  0  0  0
   57.3800   30.7050   53.5640 C   0  0  0  0  0  0  0  0  0  0  0  0
   57.6830   31.7240   54.4840 C   0  0  0  0  0  0  0  0  0  0  0  0
   57.2323   31.7077   55.4873 H   0  0  0  0  0  0  0  0  0  0  0  0
   58.5530   32.7560   54.1300 C   0  0  0  0  0  0  0  0  0  0  0  0
   58.7934   33.5445   54.8584 H   0  0  0  0  0  0  0  0  0  0  0  0
   59.1190   32.7910   52.8550 C   0  0  0  0  0  0  0  0  0  0  0  0
   59.8084   33.6045   52.5849 H   0  0  0  0  0  0  0  0  0  0  0  0
   58.8140   31.7950   51.9160 C   0  0  0  0  0  0  0  0  0  0  0  0
   59.5500   31.8680   50.3090 S   0  0  0  0  0  0  0  0  0  0  0  0
   58.5980   31.2670   49.3120 O   0  0  0  0  0  0  0  0  0  0  0  0
   60.8020   31.0330   50.2950 O   0  0  0  0  0  0  0  0  0  0  0  0
   59.9360   33.5030   49.8090 N   0  0  0  0  0  0  0  0  0  0  0  0
   59.3720   33.8570   48.4900 C   0  0  0  0  0  0  0  0  0  0  0  0
   58.5366   33.1755   48.2717 H   0  0  0  0  0  0  0  0  0  0  0  0
   59.0436   34.9055   48.5433 H   0  0  0  0  0  0  0  0  0  0  0  0
   60.4000   33.7540   47.3490 C   0  0  0  0  0  0  0  0  0  0  0  0
   59.8896   33.4245   46.4320 H   0  0  0  0  0  0  0  0  0  0  0  0
   60.8591   34.7420   47.1967 H   0  0  0  0  0  0  0  0  0  0  0  0
   61.4120   32.8300   47.6720 O   0  0  0  0  0  0  0  0  0  0  0  0
   62.2060   33.3450   48.7210 C   0  0  0  0  0  0  0  0  0  0  0  0
   62.9006   32.5593   49.0529 H   0  0  0  0  0  0  0  0  0  0  0  0
   62.7376   34.2249   48.3295 H   0  0  0  0  0  0  0  0  0  0  0  0
   61.3720   33.8120   49.9380 C   0  0  0  0  0  0  0  0  0  0  0  0
   61.7578   33.3126   50.8390 H   0  0  0  0  0  0  0  0  0  0  0  0
   61.4674   34.9061   50.0002 H   0  0  0  0  0  0  0  0  0  0  0  0
   57.9300   30.7580   52.2720 C   0  0  0  0  0  0  0  0  0  0  0  0
   57.5970   29.7680   51.3530 O   0  0  0  0  0  0  0  0  0  0  0  0
   51.8160   31.6780   52.9290 C   0  0  0  0  0  0  0  0  0  0  0  0
   51.8097   32.1638   53.9159 H   0  0  0  0  0  0  0  0  0  0  0  0
   51.2210   32.3190   51.8380 C   0  0  0  0  0  0  0  0  0  0  0  0
   50.6160   33.5570   52.0110 O   0  0  0  0  0  0  0  0  0  0  0  0
   51.2340   31.7140   50.5760 C   0  0  0  0  0  0  0  0  0  0  0  0
   50.6430   32.3530   49.4930 O   0  0  0  0  0  0  0  0  0  0  0  0
  1  2  1  0
  2  3  1  0
  3  4  2  0
  4  5  1  0
  4  6  1  0
  6  7  1  0
  7  8  1  0
  7  9  2  0
  9 10  1  0
  9 11  1  0
 11 12  2  0
 11 13  1  0
 13 14  1  0
 14 15  2  0
 15 16  1  0
 15 17  1  0
 17 18  1  0
 17 19  2  0
 19 20  1  0
 19 21  1  0
 21 22  1  0
 22 23  2  0
 22 24  2  0
 22 25  1  0
 25 26  1  0
 26 27  1  0
 26 28  1  0
 26 29  1  0
 29 30  1  0
 29 31  1  0
 29 32  1  0
 32 33  1  0
 33 34  1  0
 33 35  1  0
 33 36  1  0
 36 37  1  0
 36 38  1  0
 21 39  2  0
 39 40  1  0
  6 41  2  0
 41 42  1  0
 41 43  1  0
 43 44  1  0
 43 45  2  0
 45 46  1  0
 45  3  1  0
 39 14  1  0
 36 25  1  0
M  CHG  4  13  -1  40  -1  44  -1  46  -1
M  END
>  <UniqueID>  (23) 
23

>  <SMILES>  (23) 
O=C(/C=C/c1cc([O-])c([O-])c(O)c1)[N-]c1cccc(S(=O)(=O)N2CCOCC2)c1[O-]

>  <Energy>  (23) 
65.11421233235309

>  <Genealogy>  (23) 
O=C(C=Cc1cc([O-])c([O-])c(O)c1)[N-]c1cccc(S(=O)(=O)N2CCOCC2)c1[O-] (protonated)
O=C(/C=C/c1cc([O-])c([O-])c(O)c1)[N-]c1cccc(S(=O)(=O)N2CCOCC2)c1[O-] (cis-trans isomerization)
O=C(/C=C/c1cc([O-])c([O-])c(O)c1)[N-]c1cccc(S(=O)(=O)N2CCOCC2)c1[O-] (3D coordinates assigned)
O=C(/C=C/c1cc([O-])c([O-])c(O)c1)[N-]c1cccc(S(=O)(=O)N2CCOCC2)c1[O-] (nonaromatic ring conformer: 65.11421233235309 kcal/mol)

>  <smiles>  (23) 
O=C(C=Cc1cc(O)c(O)c(O)c1)Nc1cccc(S(=O)(=O)N2CCOCC2)c1O

>  <score_type>  (23) 
oracle

>  <origin>  (23) 
adg

>  <m_score__min__energy>  (23) 
-19.420000000000002

>  <m_primary>  (23) 
energy

$$$$
23:0
     RDKit          3D

 48 50  0  0  0  0  0  0  0  0999 V2000
   59.0440   28.3720   52.4720 O   0  0  0  0  0  0  0  0  0  0  0  0
   58.3920   29.4430   52.5860 C   0  0  0  0  0  0  0  0  0  0  0  0
   56.8850   29.3840   52.6100 C   0  0  0  0  0  0  0  0  0  0  0  0
   56.2630   30.7610   52.8850 C   0  0  0  0  0  0  0  0  0  0  0  0
   55.1810   31.0650   51.9470 N   0  0  0  0  0  0  0  0  0  0  0  0
   54.0540   30.1920   51.7980 C   0  0  0  0  0  0  0  0  0  0  0  0
   53.9780   29.1290   52.4750 O   0  0  0  0  0  0  0  0  0  0  0  0
   52.9310   30.5610   50.8790 C   0  0  0  0  0  0  0  0  0  0  0  0
   51.9020   31.3520   51.6220 C   0  0  0  0  0  0  0  0  0  0  0  0
   51.6190   31.1900   52.9260 N   0  0  0  0  0  0  0  0  0  0  0  0
   50.6040   32.0590   53.1320 C   0  0  0  0  0  0  0  0  0  0  0  0
   50.0600   32.2110   54.2560 O   0  0  0  0  0  0  0  0  0  0  0  0
   50.2180   32.7510   52.0390 N   0  0  0  0  0  0  0  0  0  0  0  0
   51.0460   32.2860   51.0910 C   0  0  0  0  0  0  0  0  0  0  0  0
   51.0210   32.7080   49.7680 O   0  0  0  0  0  0  0  0  0  0  0  0
   59.1080   30.6860   52.5590 N   0  0  0  0  0  0  0  0  0  0  0  0
   59.1630   31.6320   51.4830 C   0  0  0  0  0  0  0  0  0  0  0  0
   58.8840   31.1950   50.1830 C   0  0  0  0  0  0  0  0  0  0  0  0
   58.9520   32.0850   49.1080 C   0  0  0  0  0  0  0  0  0  0  0  0
   59.3150   33.4210   49.3120 C   0  0  0  0  0  0  0  0  0  0  0  0
   59.3500   34.2780   48.2000 O   0  0  0  0  0  0  0  0  0  0  0  0
   60.3520   34.2640   47.1810 C   0  0  0  0  0  0  0  0  0  0  0  0
   61.6160   33.6270   47.6890 C   0  0  0  0  0  0  0  0  0  0  0  0
   62.0980   32.4340   47.1240 C   0  0  0  0  0  0  0  0  0  0  0  0
   63.2730   31.8490   47.6070 C   0  0  0  0  0  0  0  0  0  0  0  0
   63.9800   32.4560   48.6490 C   0  0  0  0  0  0  0  0  0  0  0  0
   63.5130   33.6470   49.2120 C   0  0  0  0  0  0  0  0  0  0  0  0
   62.3380   34.2330   48.7310 C   0  0  0  0  0  0  0  0  0  0  0  0
   59.6370   33.8530   50.6140 C   0  0  0  0  0  0  0  0  0  0  0  0
   59.5710   32.9600   51.6890 C   0  0  0  0  0  0  0  0  0  0  0  0
   56.5276   29.0205   51.6353 H   0  0  0  0  0  0  0  0  0  0  0  0
   56.5830   28.7050   53.4210 H   0  0  0  0  0  0  0  0  0  0  0  0
   55.8606   30.7721   53.9087 H   0  0  0  0  0  0  0  0  0  0  0  0
   57.0476   31.5219   52.7608 H   0  0  0  0  0  0  0  0  0  0  0  0
   55.1940   31.9570   51.4020 H   0  0  0  0  0  0  0  0  0  0  0  0
   53.3239   31.1643   50.0474 H   0  0  0  0  0  0  0  0  0  0  0  0
   52.4680   29.6432   50.4874 H   0  0  0  0  0  0  0  0  0  0  0  0
   58.6095   30.1445   50.0065 H   0  0  0  0  0  0  0  0  0  0  0  0
   58.7182   31.7324   48.0926 H   0  0  0  0  0  0  0  0  0  0  0  0
   59.9811   33.6925   46.3174 H   0  0  0  0  0  0  0  0  0  0  0  0
   60.5716   35.3007   46.8859 H   0  0  0  0  0  0  0  0  0  0  0  0
   61.5487   31.9582   46.2982 H   0  0  0  0  0  0  0  0  0  0  0  0
   63.6410   30.9106   47.1666 H   0  0  0  0  0  0  0  0  0  0  0  0
   64.9051   31.9957   49.0264 H   0  0  0  0  0  0  0  0  0  0  0  0
   64.0694   34.1230   50.0329 H   0  0  0  0  0  0  0  0  0  0  0  0
   61.9767   35.1742   49.1711 H   0  0  0  0  0  0  0  0  0  0  0  0
   59.9413   34.8960   50.7858 H   0  0  0  0  0  0  0  0  0  0  0  0
   59.8399   33.2996   52.7001 H   0  0  0  0  0  0  0  0  0  0  0  0
  1  2  2  0
  2  3  1  0
  3  4  1  0
  4  5  1  0
  5  6  1  0
  6  7  2  0
  6  8  1  0
  8  9  1  0
  9 10  1  0
 10 11  1  0
 11 12  2  0
 11 13  1  0
 13 14  1  0
 14 15  1  0
  2 16  1  0
 16 17  1  0
 17 18  2  0
 18 19  1  0
 19 20  2  0
 20 21  1  0
 21 22  1  0
 22 23  1  0
 23 24  2  0
 24 25  1  0
 25 26  2  0
 26 27  1  0
 27 28  2  0
 20 29  1  0
 29 30  2  0
 14  9  2  0
 30 17  1  0
 28 23  1  0
  3 31  1  0
  3 32  1  0
  4 33  1  0
  4 34  1  0
  5 35  1  0
  8 36  1  0
  8 37  1  0
 18 38  1  0
 19 39  1  0
 22 40  1  0
 22 41  1  0
 24 42  1  0
 25 43  1  0
 26 44  1  0
 27 45  1  0
 28 46  1  0
 29 47  1  0
 30 48  1  0
M  CHG  4  10  -1  13  -1  15  -1  16  -1
M  END
>  <UniqueID>  (24) 
24

>  <SMILES>  (24) 
O=C(CCNC(=O)Cc1[n-]c(=O)[n-]c1[O-])[N-]c1ccc(OCc2ccccc2)cc1

>  <Energy>  (24) 
78.04698086979741

>  <Genealogy>  (24) 
O=C(CCNC(=O)Cc1[n-]c(=O)[n-]c1[O-])[N-]c1ccc(OCc2ccccc2)cc1 (protonated)
O=C(CCNC(=O)Cc1[n-]c(=O)[n-]c1[O-])[N-]c1ccc(OCc2ccccc2)cc1 (3D coordinates assigned)
O=C(CCNC(=O)Cc1[n-]c(=O)[n-]c1[O-])[N-]c1ccc(OCc2ccccc2)cc1 (optimized conformer: 78.04698086979741 kcal/mol)

>  <smiles>  (24) 
O=C(Cc1[nH]c(=O)[nH]c1O)NCCC(=O)Nc1ccc(OCc2ccccc2)cc1

>  <score_type>  (24) 
oracle

>  <origin>  (24) 
adg

>  <m_score__min__energy>  (24) 
-18.440000000000001

>  <m_primary>  (24) 
energy

$$$$
24:0
     RDKit          3D

 38 40  0  0  0  0  0  0  0  0999 V2000
   60.3460   29.6450   48.6550 C   0  0  0  0  0  0  0  0  0  0  0  0
   60.0800   30.9840   48.0350 C   0  0  0  0  0  0  0  0  0  0  0  0
   58.8580   31.6370   48.2600 C   0  0  0  0  0  0  0  0  0  0  0  0
   58.6220   32.9010   47.7110 C   0  0  0  0  0  0  0  0  0  0  0  0
   59.6140   33.5380   46.9480 C   0  0  0  0  0  0  0  0  0  0  0  0
   59.3480   34.8830   46.3290 C   0  0  0  0  0  0  0  0  0  0  0  0
   58.5210   34.7330   45.0500 C   0  0  0  0  0  0  0  0  0  0  0  0
   58.6770   33.3900   44.4950 N   0  0  0  0  0  0  0  0  0  0  0  0
   57.6420   32.3970   44.5780 C   0  0  0  0  0  0  0  0  0  0  0  0
   56.6120   32.6140   45.2720 O   0  0  0  0  0  0  0  0  0  0  0  0
   57.7850   31.1280   43.9300 N   0  0  0  0  0  0  0  0  0  0  0  0
   57.7430   29.8470   44.5720 C   0  0  0  0  0  0  0  0  0  0  0  0
   58.9370   29.3190   45.1200 C   0  0  0  0  0  0  0  0  0  0  0  0
   58.9370   28.0790   45.7850 C   0  0  0  0  0  0  0  0  0  0  0  0
   57.7240   27.4060   45.8990 C   0  0  0  0  0  0  0  0  0  0  0  0
   57.4920   26.2280   46.4960 N   0  0  0  0  0  0  0  0  0  0  0  0
   56.1560   26.0780   46.3170 C   0  0  0  0  0  0  0  0  0  0  0  0
   55.5270   25.0740   46.7410 O   0  0  0  0  0  0  0  0  0  0  0  0
   55.5430   27.0890   45.6480 N   0  0  0  0  0  0  0  0  0  0  0  0
   56.5670   27.9160   45.3940 C   0  0  0  0  0  0  0  0  0  0  0  0
   56.5260   29.1400   44.7300 C   0  0  0  0  0  0  0  0  0  0  0  0
   60.8370   32.8860   46.7270 C   0  0  0  0  0  0  0  0  0  0  0  0
   61.0730   31.6220   47.2760 C   0  0  0  0  0  0  0  0  0  0  0  0
   60.3275   29.7382   49.7509 H   0  0  0  0  0  0  0  0  0  0  0  0
   59.5719   28.9322   48.3345 H   0  0  0  0  0  0  0  0  0  0  0  0
   61.3338   29.2822   48.3345 H   0  0  0  0  0  0  0  0  0  0  0  0
   58.0825   31.1520   48.8711 H   0  0  0  0  0  0  0  0  0  0  0  0
   57.6552   33.3986   47.8774 H   0  0  0  0  0  0  0  0  0  0  0  0
   58.7952   35.5079   47.0458 H   0  0  0  0  0  0  0  0  0  0  0  0
   60.3096   35.3537   46.0765 H   0  0  0  0  0  0  0  0  0  0  0  0
   57.4601   34.9079   45.2821 H   0  0  0  0  0  0  0  0  0  0  0  0
   58.8730   35.4671   44.3102 H   0  0  0  0  0  0  0  0  0  0  0  0
   59.5800   33.1540   44.0270 H   0  0  0  0  0  0  0  0  0  0  0  0
   59.8755   29.8848   45.0248 H   0  0  0  0  0  0  0  0  0  0  0  0
   59.8636   27.6561   46.2004 H   0  0  0  0  0  0  0  0  0  0  0  0
   55.5796   29.5440   44.3412 H   0  0  0  0  0  0  0  0  0  0  0  0
   61.6140   33.3720   46.1186 H   0  0  0  0  0  0  0  0  0  0  0  0
   62.0409   31.1257   47.1123 H   0  0  0  0  0  0  0  0  0  0  0  0
  1  2  1  0
  2  3  2  0
  3  4  1  0
  4  5  2  0
  5  6  1  0
  6  7  1  0
  7  8  1  0
  8  9  1  0
  9 10  2  0
  9 11  1  0
 11 12  1  0
 12 13  2  0
 13 14  1  0
 14 15  2  0
 15 16  1  0
 16 17  1  0
 17 18  2  0
 17 19  1  0
 19 20  1  0
 20 21  2  0
  5 22  1  0
 22 23  2  0
 23  2  1  0
 21 12  1  0
 20 15  1  0
  1 24  1  0
  1 25  1  0
  1 26  1  0
  3 27  1  0
  4 28  1  0
  6 29  1  0
  6 30  1  0
  7 31  1  0
  7 32  1  0
  8 33  1  0
 13 34  1  0
 14 35  1  0
 21 36  1  0
 22 37  1  0
 23 38  1  0
M  CHG  3  11  -1  16  -1  19  -1
M  END
>  <UniqueID>  (25) 
25

>  <SMILES>  (25) 
Cc1ccc(CCNC(=O)[N-]c2ccc3[n-]c(=O)[n-]c3c2)cc1

>  <Energy>  (25) 
74.18293064075267

>  <Genealogy>  (25) 
Cc1ccc(CCNC(=O)[N-]c2ccc3[n-]c(=O)[n-]c3c2)cc1 (protonated)
Cc1ccc(CCNC(=O)[N-]c2ccc3[n-]c(=O)[n-]c3c2)cc1 (3D coordinates assigned)
Cc1ccc(CCNC(=O)[N-]c2ccc3[n-]c(=O)[n-]c3c2)cc1 (optimized conformer: 74.18293064075267 kcal/mol)

>  <smiles>  (25) 
Cc1ccc(CCNC(=O)Nc2ccc3[nH]c(=O)[nH]c3c2)cc1

>  <score_type>  (25) 
oracle

>  <origin>  (25) 
adg

>  <m_score__min__energy>  (25) 
-12.91

>  <m_primary>  (25) 
energy

$$$$
25:0
     RDKit          3D

 46 49  0  0  0  0  0  0  0  0999 V2000
   55.1560   29.8220   52.9100 C   0  0  0  0  0  0  0  0  0  0  0  0
   55.9290   30.0980   51.7440 O   0  0  0  0  0  0  0  0  0  0  0  0
   57.1800   30.7360   51.7580 C   0  0  0  0  0  0  0  0  0  0  0  0
   57.3230   32.1190   51.9900 C   0  0  0  0  0  0  0  0  0  0  0  0
   58.5930   32.7100   51.9760 C   0  0  0  0  0  0  0  0  0  0  0  0
   59.7320   31.9270   51.7410 C   0  0  0  0  0  0  0  0  0  0  0  0
   61.3300   32.6590   51.6360 S   0  0  0  0  0  0  0  0  0  0  0  0
   62.0590   32.4280   52.9290 O   0  0  0  0  0  0  0  0  0  0  0  0
   61.2380   34.1390   51.3860 O   0  0  0  0  0  0  0  0  0  0  0  0
   62.1930   31.8870   50.3490 N   0  0  0  0  0  0  0  0  0  0  0  0
   62.3660   32.5040   49.0710 C   0  0  0  0  0  0  0  0  0  0  0  0
   63.6490   32.7410   48.5480 C   0  0  0  0  0  0  0  0  0  0  0  0
   63.7960   33.3560   47.3020 C   0  0  0  0  0  0  0  0  0  0  0  0
   62.6700   33.7640   46.5840 C   0  0  0  0  0  0  0  0  0  0  0  0
   61.3830   33.5610   47.1100 C   0  0  0  0  0  0  0  0  0  0  0  0
   60.2040   34.0700   46.3790 C   0  0  0  0  0  0  0  0  0  0  0  0
   60.0650   35.3170   46.2430 O   0  0  0  0  0  0  0  0  0  0  0  0
   59.1670   33.1540   45.8430 C   0  0  0  0  0  0  0  0  0  0  0  0
   58.2230   33.6260   44.8900 C   0  0  0  0  0  0  0  0  0  0  0  0
   57.2180   32.7760   44.3870 C   0  0  0  0  0  0  0  0  0  0  0  0
   57.1700   31.4650   44.8600 C   0  0  0  0  0  0  0  0  0  0  0  0
   56.2760   30.5170   44.5150 N   0  0  0  0  0  0  0  0  0  0  0  0
   56.6450   29.4420   45.2560 C   0  0  0  0  0  0  0  0  0  0  0  0
   55.9780   28.2220   45.2130 O   0  0  0  0  0  0  0  0  0  0  0  0
   57.7490   29.6960   46.0570 C   0  0  0  0  0  0  0  0  0  0  0  0
   58.0700   31.0050   45.7850 C   0  0  0  0  0  0  0  0  0  0  0  0
   59.0800   31.8150   46.3020 C   0  0  0  0  0  0  0  0  0  0  0  0
   61.2350   32.8960   48.3420 C   0  0  0  0  0  0  0  0  0  0  0  0
   59.9960   32.6540   48.8490 F   0  0  0  0  0  0  0  0  0  0  0  0
   59.5890   30.5530   51.5060 C   0  0  0  0  0  0  0  0  0  0  0  0
   58.3230   29.9620   51.5210 C   0  0  0  0  0  0  0  0  0  0  0  0
   55.7559   30.0362   53.8068 H   0  0  0  0  0  0  0  0  0  0  0  0
   54.2559   30.4543   52.9113 H   0  0  0  0  0  0  0  0  0  0  0  0
   54.8599   28.7626   52.9113 H   0  0  0  0  0  0  0  0  0  0  0  0
   56.4336   32.7368   52.1829 H   0  0  0  0  0  0  0  0  0  0  0  0
   58.6969   33.7912   52.1498 H   0  0  0  0  0  0  0  0  0  0  0  0
   64.5391   32.4417   49.1208 H   0  0  0  0  0  0  0  0  0  0  0  0
   64.8010   33.5191   46.8857 H   0  0  0  0  0  0  0  0  0  0  0  0
   62.7910   34.2462   45.6028 H   0  0  0  0  0  0  0  0  0  0  0  0
   58.2780   34.6677   44.5411 H   0  0  0  0  0  0  0  0  0  0  0  0
   56.4924   33.1361   43.6428 H   0  0  0  0  0  0  0  0  0  0  0  0
   56.2300   27.5210   44.5270 H   0  0  0  0  0  0  0  0  0  0  0  0
   58.2526   29.0073   46.7513 H   0  0  0  0  0  0  0  0  0  0  0  0
   59.7905   31.4259   47.0461 H   0  0  0  0  0  0  0  0  0  0  0  0
   60.4783   29.9363   51.3086 H   0  0  0  0  0  0  0  0  0  0  0  0
   58.2233   28.8807   51.3454 H   0  0  0  0  0  0  0  0  0  0  0  0
  1  2  1  0
  2  3  1  0
  3  4  2  0
  4  5  1  0
  5  6  2  0
  6  7  1  0
  7  8  2  0
  7  9  2  0
  7 10  1  0
 10 11  1  0
 11 12  2  0
 12 13  1  0
 13 14  2  0
 14 15  1  0
 15 16  1  0
 16 17  2  0
 16 18  1  0
 18 19  2  0
 19 20  1  0
 20 21  2  0
 21 22  1  0
 22 23  1  0
 23 24  1  0
 23 25  2  0
 25 26  1  0
 26 27  2  0
 15 28  2  0
 28 29  1  0
  6 30  1  0
 30 31  2  0
 31  3  1  0
 28 11  1  0
 27 18  1  0
 26 21  1  0
  1 32  1  0
  1 33  1  0
  1 34  1  0
  4 35  1  0
  5 36  1  0
 12 37  1  0
 13 38  1  0
 14 39  1  0
 19 40  1  0
 20 41  1  0
 24 42  1  0
 25 43  1  0
 27 44  1  0
 30 45  1  0
 31 46  1  0
M  CHG  2  10  -1  22  -1
M  END
>  <UniqueID>  (26) 
26

>  <SMILES>  (26) 
COc1ccc(S(=O)(=O)[N-]c2cccc(C(=O)c3ccc4[n-]c(O)cc4c3)c2F)cc1

>  <Energy>  (26) 
93.48100214408532

>  <Genealogy>  (26) 
COc1ccc(S(=O)(=O)[N-]c2cccc(C(=O)c3ccc4[n-]c(O)cc4c3)c2F)cc1 (protonated)
COc1ccc(S(=O)(=O)[N-]c2cccc(C(=O)c3ccc4[n-]c(O)cc4c3)c2F)cc1 (3D coordinates assigned)
COc1ccc(S(=O)(=O)[N-]c2cccc(C(=O)c3ccc4[n-]c(O)cc4c3)c2F)cc1 (optimized conformer: 93.48100214408532 kcal/mol)

>  <smiles>  (26) 
COc1ccc(S(=O)(=O)Nc2cccc(C(=O)c3ccc4[nH]c(O)cc4c3)c2F)cc1

>  <score_type>  (26) 
oracle

>  <origin>  (26) 
adg

>  <m_score__min__energy>  (26) 
-11.49

>  <m_primary>  (26) 
energy

$$$$
26:0
     RDKit          3D

 61 65  0  0  0  0  0  0  0  0999 V2000
   58.7390   34.5070   45.0560 C   0  0  0  0  0  0  0  0  0  0  0  0
   57.4840   33.7170   45.2270 C   0  0  0  0  0  0  0  0  0  0  0  0
   57.7340   32.2690   45.4940 C   0  0  0  0  0  0  0  0  0  0  0  0
   58.2770   31.7010   46.6320 C   0  0  0  0  0  0  0  0  0  0  0  0
   58.6860   32.5200   47.8000 C   0  0  0  0  0  0  0  0  0  0  0  0
   60.1200   32.3650   48.0680 N   0  0  0  0  0  0  0  0  0  0  0  0
   60.7900   33.2690   48.9050 C   0  0  0  0  0  0  0  0  0  0  0  0
   60.0670   34.2080   49.3950 O   0  0  0  0  0  0  0  0  0  0  0  0
   62.1920   33.2370   49.2540 C   0  0  0  0  0  0  0  0  0  0  0  0
   62.5900   33.8430   50.4490 C   0  0  0  0  0  0  0  0  0  0  0  0
   63.9020   33.8690   50.8630 C   0  0  0  0  0  0  0  0  0  0  0  0
   64.8980   33.2950   50.1190 C   0  0  0  0  0  0  0  0  0  0  0  0
   64.5110   32.6890   48.9260 C   0  0  0  0  0  0  0  0  0  0  0  0
   63.1920   32.6640   48.5150 C   0  0  0  0  0  0  0  0  0  0  0  0
   62.9150   32.0590   47.3600 F   0  0  0  0  0  0  0  0  0  0  0  0
   58.3440   30.3500   46.4880 N   0  0  0  0  0  0  0  0  0  0  0  0
   58.8410   29.3610   47.4180 C   0  0  0  0  0  0  0  0  0  0  0  0
   58.7430   27.9690   46.9650 C   0  0  0  0  0  0  0  0  0  0  0  0
   57.5540   27.2410   47.0860 C   0  0  0  0  0  0  0  0  0  0  0  0
   57.4500   25.9300   46.6760 C   0  0  0  0  0  0  0  0  0  0  0  0
   58.5160   25.2560   46.1190 C   0  0  0  0  0  0  0  0  0  0  0  0
   58.3920   23.8710   45.6900 C   0  0  0  0  0  0  0  0  0  0  0  0
   59.4000   23.1040   45.5730 O   0  0  0  0  0  0  0  0  0  0  0  0
   57.1310   23.2770   45.3720 N   0  0  0  0  0  0  0  0  0  0  0  0
   56.9940   22.4500   44.3910 C   0  0  0  0  0  0  0  0  0  0  0  0
   56.0190   22.4310   43.4590 N   0  0  0  0  0  0  0  0  0  0  0  0
   56.2800   21.4250   42.6660 N   0  0  0  0  0  0  0  0  0  0  0  0
   57.3750   20.8230   43.0710 N   0  0  0  0  0  0  0  0  0  0  0  0
   57.8530   21.4310   44.1470 N   0  0  0  0  0  0  0  0  0  0  0  0
   59.6950   25.9540   45.9920 C   0  0  0  0  0  0  0  0  0  0  0  0
   59.8010   27.2790   46.4070 C   0  0  0  0  0  0  0  0  0  0  0  0
   57.8380   30.0650   45.2510 C   0  0  0  0  0  0  0  0  0  0  0  0
   57.6310   28.9100   44.5340 C   0  0  0  0  0  0  0  0  0  0  0  0
   57.0760   28.9050   43.2570 C   0  0  0  0  0  0  0  0  0  0  0  0
   56.7110   30.1160   42.6700 C   0  0  0  0  0  0  0  0  0  0  0  0
   56.9080   31.2840   43.3680 C   0  0  0  0  0  0  0  0  0  0  0  0
   57.4590   31.2470   44.6290 C   0  0  0  0  0  0  0  0  0  0  0  0
   59.1478   34.7643   46.0443 H   0  0  0  0  0  0  0  0  0  0  0  0
   59.4755   33.9093   44.4989 H   0  0  0  0  0  0  0  0  0  0  0  0
   58.5185   35.4295   44.4989 H   0  0  0  0  0  0  0  0  0  0  0  0
   56.9191   34.1363   46.0726 H   0  0  0  0  0  0  0  0  0  0  0  0
   56.9235   33.7840   44.2829 H   0  0  0  0  0  0  0  0  0  0  0  0
   58.4703   33.5783   47.5917 H   0  0  0  0  0  0  0  0  0  0  0  0
   58.1236   32.1813   48.6826 H   0  0  0  0  0  0  0  0  0  0  0  0
   60.6030   31.5880   47.6280 H   0  0  0  0  0  0  0  0  0  0  0  0
   61.8256   34.3170   51.0823 H   0  0  0  0  0  0  0  0  0  0  0  0
   64.1564   34.3619   51.8129 H   0  0  0  0  0  0  0  0  0  0  0  0
   65.9481   33.3116   50.4461 H   0  0  0  0  0  0  0  0  0  0  0  0
   65.2770   32.2170   48.2932 H   0  0  0  0  0  0  0  0  0  0  0  0
   59.9009   29.5809   47.6136 H   0  0  0  0  0  0  0  0  0  0  0  0
   58.2032   29.4358   48.3111 H   0  0  0  0  0  0  0  0  0  0  0  0
   56.6724   27.7324   47.5234 H   0  0  0  0  0  0  0  0  0  0  0  0
   56.4901   25.4065   46.7963 H   0  0  0  0  0  0  0  0  0  0  0  0
   57.7850   19.9830   42.5880 H   0  0  0  0  0  0  0  0  0  0  0  0
   58.7210   21.1810   44.7040 H   0  0  0  0  0  0  0  0  0  0  0  0
   60.5718   25.4550   45.5536 H   0  0  0  0  0  0  0  0  0  0  0  0
   60.7644   27.7958   46.2857 H   0  0  0  0  0  0  0  0  0  0  0  0
   57.9159   27.9496   44.9884 H   0  0  0  0  0  0  0  0  0  0  0  0
   56.9274   27.9577   42.7180 H   0  0  0  0  0  0  0  0  0  0  0  0
   56.2713   30.1366   41.6619 H   0  0  0  0  0  0  0  0  0  0  0  0
   56.6255   32.2476   42.9190 H   0  0  0  0  0  0  0  0  0  0  0  0
  1  2  1  0
  2  3  1  0
  3  4  2  0
  4  5  1  0
  5  6  1  0
  6  7  1  0
  7  8  2  0
  7  9  1  0
  9 10  2  0
 10 11  1  0
 11 12  2  0
 12 13  1  0
 13 14  2  0
 14 15  1  0
  4 16  1  0
 16 17  1  0
 17 18  1  0
 18 19  2  0
 19 20  1  0
 20 21  2  0
 21 22  1  0
 22 23  2  0
 22 24  1  0
 24 25  2  3
 25 26  1  0
 26 27  2  0
 27 28  1  0
 28 29  1  0
 21 30  1  0
 30 31  2  0
 16 32  1  0
 32 33  2  0
 33 34  1  0
 34 35  2  0
 35 36  1  0
 36 37  2  0
 37  3  1  0
 14  9  1  0
 31 18  1  0
 37 32  1  0
 29 25  1  0
  1 38  1  0
  1 39  1  0
  1 40  1  0
  2 41  1  0
  2 42  1  0
  5 43  1  0
  5 44  1  0
  6 45  1  0
 10 46  1  0
 11 47  1  0
 12 48  1  0
 13 49  1  0
 17 50  1  0
 17 51  1  0
 19 52  1  0
 20 53  1  0
 28 54  1  0
 29 55  1  0
 30 56  1  0
 31 57  1  0
 33 58  1  0
 34 59  1  0
 35 60  1  0
 36 61  1  0
M  END
>  <smiles>  (27) 
CCc1c(CNC(=O)c2ccccc2F)n(Cc2ccc(C(=O)N=c3nn[nH][nH]3)cc2)c2ccccc12

>  <score_type>  (27) 
oracle

>  <origin>  (27) 
adg

>  <m_score__min__energy>  (27) 
-10.98

>  <m_primary>  (27) 
energy

$$$$
27:0
     RDKit          3D

 48 50  0  0  0  0  0  0  0  0999 V2000
   63.8090   32.9420   48.2290 C   0  0  0  0  0  0  0  0  0  0  0  0
   63.0340   33.5540   47.1000 C   0  0  0  0  0  0  0  0  0  0  0  0
   63.6490   33.8430   46.0390 O   0  0  0  0  0  0  0  0  0  0  0  0
   61.5730   33.8230   47.2040 C   0  0  0  0  0  0  0  0  0  0  0  0
   60.9980   34.1070   48.4570 C   0  0  0  0  0  0  0  0  0  0  0  0
   59.6280   34.3490   48.5710 C   0  0  0  0  0  0  0  0  0  0  0  0
   58.8120   34.3230   47.4380 C   0  0  0  0  0  0  0  0  0  0  0  0
   59.3690   34.0660   46.1740 C   0  0  0  0  0  0  0  0  0  0  0  0
   58.5650   34.0100   44.9860 N   0  0  0  0  0  0  0  0  0  0  0  0
   58.0420   32.8290   44.3650 C   0  0  0  0  0  0  0  0  0  0  0  0
   58.1880   32.6300   43.1290 O   0  0  0  0  0  0  0  0  0  0  0  0
   57.3970   31.7780   45.2100 C   0  0  0  0  0  0  0  0  0  0  0  0
   56.2760   30.7410   44.2100 S   0  0  0  0  0  0  0  0  0  0  0  0
   56.8060   29.2000   44.9520 C   0  0  0  0  0  0  0  0  0  0  0  0
   55.8950   28.2420   45.2480 N   0  0  0  0  0  0  0  0  0  0  0  0
   56.2670   27.0750   45.8310 C   0  0  0  0  0  0  0  0  0  0  0  0
   55.3830   26.2180   46.1000 O   0  0  0  0  0  0  0  0  0  0  0  0
   57.6230   26.8370   46.1360 C   0  0  0  0  0  0  0  0  0  0  0  0
   58.0480   25.5590   46.8210 C   0  0  0  0  0  0  0  0  0  0  0  0
   58.5550   27.8540   45.8190 C   0  0  0  0  0  0  0  0  0  0  0  0
   60.0210   27.7570   46.1570 C   0  0  0  0  0  0  0  0  0  0  0  0
   60.3660   28.6500   47.3210 C   0  0  0  0  0  0  0  0  0  0  0  0
   60.7510   29.9850   47.1080 C   0  0  0  0  0  0  0  0  0  0  0  0
   61.0730   30.8080   48.1920 C   0  0  0  0  0  0  0  0  0  0  0  0
   61.0090   30.3070   49.4940 C   0  0  0  0  0  0  0  0  0  0  0  0
   60.6200   28.9830   49.7160 C   0  0  0  0  0  0  0  0  0  0  0  0
   60.2970   28.1580   48.6350 C   0  0  0  0  0  0  0  0  0  0  0  0
   58.1160   29.0020   45.2370 N   0  0  0  0  0  0  0  0  0  0  0  0
   60.7390   33.7980   46.0680 C   0  0  0  0  0  0  0  0  0  0  0  0
   63.3858   33.2762   49.1878 H   0  0  0  0  0  0  0  0  0  0  0  0
   63.7481   31.8456   48.1636 H   0  0  0  0  0  0  0  0  0  0  0  0
   64.8614   33.2554   48.1636 H   0  0  0  0  0  0  0  0  0  0  0  0
   61.6338   34.1385   49.3541 H   0  0  0  0  0  0  0  0  0  0  0  0
   59.1894   34.5610   49.5572 H   0  0  0  0  0  0  0  0  0  0  0  0
   57.7314   34.5040   47.5353 H   0  0  0  0  0  0  0  0  0  0  0  0
   58.1776   31.1420   45.6530 H   0  0  0  0  0  0  0  0  0  0  0  0
   56.8111   32.2708   45.9999 H   0  0  0  0  0  0  0  0  0  0  0  0
   58.0028   25.6950   47.9116 H   0  0  0  0  0  0  0  0  0  0  0  0
   57.3731   24.7424   46.5250 H   0  0  0  0  0  0  0  0  0  0  0  0
   59.0776   25.3092   46.5250 H   0  0  0  0  0  0  0  0  0  0  0  0
   60.2620   26.7160   46.4182 H   0  0  0  0  0  0  0  0  0  0  0  0
   60.6049   28.0794   45.2823 H   0  0  0  0  0  0  0  0  0  0  0  0
   60.7992   30.3842   46.0841 H   0  0  0  0  0  0  0  0  0  0  0  0
   61.3770   31.8509   48.0189 H   0  0  0  0  0  0  0  0  0  0  0  0
   61.2649   30.9548   50.3454 H   0  0  0  0  0  0  0  0  0  0  0  0
   60.5680   28.5901   50.7421 H   0  0  0  0  0  0  0  0  0  0  0  0
   59.9871   27.1179   48.8141 H   0  0  0  0  0  0  0  0  0  0  0  0
   61.1709   33.5645   45.0837 H   0  0  0  0  0  0  0  0  0  0  0  0
  1  2  1  0
  2  3  2  0
  2  4  1  0
  4  5  2  0
  5  6  1  0
  6  7  2  0
  7  8  1  0
  8  9  1  0
  9 10  1  0
 10 11  2  0
 10 12  1  0
 12 13  1  0
 13 14  1  0
 14 15  2  0
 15 16  1  0
 16 17  2  0
 16 18  1  0
 18 19  1  0
 18 20  2  0
 20 21  1  0
 21 22  1  0
 22 23  2  0
 23 24  1  0
 24 25  2  0
 25 26  1  0
 26 27  2  0
 20 28  1  0
  8 29  2  0
 29  4  1  0
 28 14  1  0
 27 22  1  0
  1 30  1  0
  1 31  1  0
  1 32  1  0
  5 33  1  0
  6 34  1  0
  7 35  1  0
 12 36  1  0
 12 37  1  0
 19 38  1  0
 19 39  1  0
 19 40  1  0
 21 41  1  0
 21 42  1  0
 23 43  1  0
 24 44  1  0
 25 45  1  0
 26 46  1  0
 27 47  1  0
 29 48  1  0
M  CHG  2   9  -1  28  -1
M  END
>  <UniqueID>  (28) 
27

>  <SMILES>  (28) 
CC(=O)c1cccc([N-]C(=O)CSc2nc(=O)c(C)c(Cc3ccccc3)[n-]2)c1

>  <Energy>  (28) 
50.52112713837974

>  <Genealogy>  (28) 
CC(=O)c1cccc([N-]C(=O)CSc2nc(=O)c(C)c(Cc3ccccc3)[n-]2)c1 (protonated)
CC(=O)c1cccc([N-]C(=O)CSc2nc(=O)c(C)c(Cc3ccccc3)[n-]2)c1 (3D coordinates assigned)
CC(=O)c1cccc([N-]C(=O)CSc2nc(=O)c(C)c(Cc3ccccc3)[n-]2)c1 (optimized conformer: 50.52112713837974 kcal/mol)

>  <smiles>  (28) 
CC(=O)c1cccc(NC(=O)CSc2nc(=O)c(C)c(Cc3ccccc3)[nH]2)c1

>  <score_type>  (28) 
oracle

>  <origin>  (28) 
adg

>  <m_score__min__energy>  (28) 
-12.619999999999999

>  <m_primary>  (28) 
energy

$$$$
28:0
     RDKit          3D

 38 40  0  0  0  0  0  0  0  0999 V2000
   64.0900   32.5120   46.8730 N   0  0  0  0  0  0  0  0  0  0  0  0
   62.9010   32.7060   48.1140 S   0  0  0  0  0  0  0  0  0  0  0  0
   63.3670   33.7620   49.0760 O   0  0  0  0  0  0  0  0  0  0  0  0
   62.7310   31.4110   48.8590 O   0  0  0  0  0  0  0  0  0  0  0  0
   61.3630   33.1710   47.3910 C   0  0  0  0  0  0  0  0  0  0  0  0
   60.1790   32.5700   47.8350 C   0  0  0  0  0  0  0  0  0  0  0  0
   58.9540   32.9180   47.2590 C   0  0  0  0  0  0  0  0  0  0  0  0
   58.8980   33.8750   46.2350 C   0  0  0  0  0  0  0  0  0  0  0  0
   57.5810   34.2190   45.5970 C   0  0  0  0  0  0  0  0  0  0  0  0
   56.8580   33.0030   45.2440 N   0  0  0  0  0  0  0  0  0  0  0  0
   57.4660   31.8800   44.5970 C   0  0  0  0  0  0  0  0  0  0  0  0
   58.4560   32.0420   43.8340 O   0  0  0  0  0  0  0  0  0  0  0  0
   56.9310   30.5320   44.8260 C   0  0  0  0  0  0  0  0  0  0  0  0
   57.6180   29.4670   45.3730 C   0  0  0  0  0  0  0  0  0  0  0  0
   56.6860   28.4440   45.3890 C   0  0  0  0  0  0  0  0  0  0  0  0
   56.8870   27.0620   45.8890 C   0  0  0  0  0  0  0  0  0  0  0  0
   58.1850   26.5430   46.0300 C   0  0  0  0  0  0  0  0  0  0  0  0
   58.3750   25.2410   46.4970 C   0  0  0  0  0  0  0  0  0  0  0  0
   57.2640   24.4600   46.8200 C   0  0  0  0  0  0  0  0  0  0  0  0
   57.4170   23.2830   47.2390 O   0  0  0  0  0  0  0  0  0  0  0  0
   56.0130   24.9710   46.6810 N   0  0  0  0  0  0  0  0  0  0  0  0
   55.8000   26.2370   46.2310 C   0  0  0  0  0  0  0  0  0  0  0  0
   55.5210   28.8930   44.8760 N   0  0  0  0  0  0  0  0  0  0  0  0
   55.6700   30.1640   44.5360 N   0  0  0  0  0  0  0  0  0  0  0  0
   60.0880   34.4710   45.7860 C   0  0  0  0  0  0  0  0  0  0  0  0
   61.3130   34.1220   46.3620 C   0  0  0  0  0  0  0  0  0  0  0  0
   64.4050   31.5150   46.9050 H   0  0  0  0  0  0  0  0  0  0  0  0
   64.9130   33.0960   47.1400 H   0  0  0  0  0  0  0  0  0  0  0  0
   60.2130   31.8212   48.6401 H   0  0  0  0  0  0  0  0  0  0  0  0
   58.0285   32.4387   47.6107 H   0  0  0  0  0  0  0  0  0  0  0  0
   56.9779   34.8077   46.3039 H   0  0  0  0  0  0  0  0  0  0  0  0
   57.7671   34.8031   44.6837 H   0  0  0  0  0  0  0  0  0  0  0  0
   58.6627   29.4381   45.7162 H   0  0  0  0  0  0  0  0  0  0  0  0
   59.0548   27.1648   45.7715 H   0  0  0  0  0  0  0  0  0  0  0  0
   59.3909   24.8344   46.6094 H   0  0  0  0  0  0  0  0  0  0  0  0
   54.7725   26.6176   46.1340 H   0  0  0  0  0  0  0  0  0  0  0  0
   60.0559   35.2159   44.9773 H   0  0  0  0  0  0  0  0  0  0  0  0
   62.2405   34.5949   46.0069 H   0  0  0  0  0  0  0  0  0  0  0  0
  1  2  1  0
  2  3  2  0
  2  4  2  0
  2  5  1  0
  5  6  2  0
  6  7  1  0
  7  8  2  0
  8  9  1  0
  9 10  1  0
 10 11  1  0
 11 12  2  0
 11 13  1  0
 13 14  1  0
 14 15  2  0
 15 16  1  0
 16 17  1  0
 17 18  2  0
 18 19  1  0
 19 20  2  0
 19 21  1  0
 21 22  1  0
 15 23  1  0
 23 24  1  0
  8 25  1  0
 25 26  2  0
 26  5  1  0
 24 13  2  0
 22 16  2  0
  1 27  1  0
  1 28  1  0
  6 29  1  0
  7 30  1  0
  9 31  1  0
  9 32  1  0
 14 33  1  0
 17 34  1  0
 18 35  1  0
 22 36  1  0
 25 37  1  0
 26 38  1  0
M  CHG  3  10  -1  21  -1  23  -1
M  END
>  <UniqueID>  (29) 
28

>  <SMILES>  (29) 
NS(=O)(=O)c1ccc(C[N-]C(=O)c2cc(-c3ccc(=O)[n-]c3)[n-]n2)cc1

>  <Energy>  (29) 
67.66225198522218

>  <Genealogy>  (29) 
NS(=O)(=O)c1ccc(C[N-]C(=O)c2cc(-c3ccc(=O)[n-]c3)[n-]n2)cc1 (protonated)
NS(=O)(=O)c1ccc(C[N-]C(=O)c2cc(-c3ccc(=O)[n-]c3)[n-]n2)cc1 (3D coordinates assigned)
NS(=O)(=O)c1ccc(C[N-]C(=O)c2cc(-c3ccc(=O)[n-]c3)[n-]n2)cc1 (optimized conformer: 67.66225198522218 kcal/mol)

>  <smiles>  (29) 
NS(=O)(=O)c1ccc(CNC(=O)c2cc(-c3ccc(=O)[nH]c3)[nH]n2)cc1

>  <score_type>  (29) 
oracle

>  <origin>  (29) 
adg

>  <m_score__min__energy>  (29) 
-14.27

>  <m_primary>  (29) 
energy

$$$$
29:0
     RDKit          3D

 60 63  0  0  0  0  0  0  0  0999 V2000
   63.1230   33.4660   47.0140 C   0  0  0  0  0  0  0  0  0  0  0  0
   61.9720   33.6230   48.0030 C   0  0  0  0  0  0  0  0  0  0  0  0
   60.7790   32.9150   47.5200 N   0  0  0  0  0  0  0  0  0  0  0  0
   60.4040   31.6410   47.7970 C   0  0  0  0  0  0  0  0  0  0  0  0
   61.1000   30.7130   48.7200 C   0  0  0  0  0  0  0  0  0  0  0  0
   62.3470   30.8160   48.8740 O   0  0  0  0  0  0  0  0  0  0  0  0
   60.3690   29.7520   49.5070 N   0  0  0  0  0  0  0  0  0  0  0  0
   59.6850   28.6510   48.8250 C   0  0  0  0  0  0  0  0  0  0  0  0
   60.2360   29.8950   50.9670 C   0  0  0  0  0  0  0  0  0  0  0  0
   59.2870   31.0190   51.3240 C   0  0  0  0  0  0  0  0  0  0  0  0
   59.7770   32.3320   51.4420 C   0  0  0  0  0  0  0  0  0  0  0  0
   58.9310   33.3720   51.8340 C   0  0  0  0  0  0  0  0  0  0  0  0
   57.5920   33.1110   52.1330 C   0  0  0  0  0  0  0  0  0  0  0  0
   57.0950   31.8090   52.0460 C   0  0  0  0  0  0  0  0  0  0  0  0
   55.7640   31.5620   52.3740 O   0  0  0  0  0  0  0  0  0  0  0  0
   57.9360   30.7550   51.6460 C   0  0  0  0  0  0  0  0  0  0  0  0
   57.4440   29.4500   51.5750 O   0  0  0  0  0  0  0  0  0  0  0  0
   59.2420   31.3160   47.1080 C   0  0  0  0  0  0  0  0  0  0  0  0
   58.8960   32.4360   46.3800 C   0  0  0  0  0  0  0  0  0  0  0  0
   57.8610   32.6790   45.4470 C   0  0  0  0  0  0  0  0  0  0  0  0
   56.8580   31.7600   45.0910 O   0  0  0  0  0  0  0  0  0  0  0  0
   56.9580   30.7450   44.0910 C   0  0  0  0  0  0  0  0  0  0  0  0
   57.5060   29.4530   44.6460 C   0  0  0  0  0  0  0  0  0  0  0  0
   58.8840   29.1740   44.6430 C   0  0  0  0  0  0  0  0  0  0  0  0
   59.3570   27.9680   45.1680 C   0  0  0  0  0  0  0  0  0  0  0  0
   58.4650   27.0250   45.6870 C   0  0  0  0  0  0  0  0  0  0  0  0
   57.0810   27.2790   45.6820 C   0  0  0  0  0  0  0  0  0  0  0  0
   56.1340   26.3010   46.2660 C   0  0  0  0  0  0  0  0  0  0  0  0
   54.7750   26.2480   45.8280 N   0  0  0  0  0  0  0  0  0  0  0  0
   56.5240   25.4870   47.1470 O   0  0  0  0  0  0  0  0  0  0  0  0
   56.6120   28.4880   45.1410 C   0  0  0  0  0  0  0  0  0  0  0  0
   57.8490   33.9350   44.8130 C   0  0  0  0  0  0  0  0  0  0  0  0
   58.8180   34.9120   45.1110 C   0  0  0  0  0  0  0  0  0  0  0  0
   59.8300   34.6470   46.0450 C   0  0  0  0  0  0  0  0  0  0  0  0
   59.8550   33.3890   46.6540 C   0  0  0  0  0  0  0  0  0  0  0  0
   64.0658   33.3374   47.5660 H   0  0  0  0  0  0  0  0  0  0  0  0
   62.9452   32.5838   46.3815 H   0  0  0  0  0  0  0  0  0  0  0  0
   63.1880   34.3636   46.3815 H   0  0  0  0  0  0  0  0  0  0  0  0
   62.2713   33.2062   48.9760 H   0  0  0  0  0  0  0  0  0  0  0  0
   61.7342   34.6921   48.1056 H   0  0  0  0  0  0  0  0  0  0  0  0
   59.2589   27.9652   49.5721 H   0  0  0  0  0  0  0  0  0  0  0  0
   58.8783   29.0544   48.1954 H   0  0  0  0  0  0  0  0  0  0  0  0
   60.4041   28.1065   48.1954 H   0  0  0  0  0  0  0  0  0  0  0  0
   59.8506   28.9537   51.3859 H   0  0  0  0  0  0  0  0  0  0  0  0
   61.2260   30.1297   51.3851 H   0  0  0  0  0  0  0  0  0  0  0  0
   60.8346   32.5415   51.2239 H   0  0  0  0  0  0  0  0  0  0  0  0
   59.3200   34.3983   51.9073 H   0  0  0  0  0  0  0  0  0  0  0  0
   56.9274   33.9329   52.4377 H   0  0  0  0  0  0  0  0  0  0  0  0
   56.4540   29.2390   51.6440 H   0  0  0  0  0  0  0  0  0  0  0  0
   58.7047   30.3566   47.1371 H   0  0  0  0  0  0  0  0  0  0  0  0
   55.9570   30.5563   43.6758 H   0  0  0  0  0  0  0  0  0  0  0  0
   57.6514   31.1013   43.3150 H   0  0  0  0  0  0  0  0  0  0  0  0
   59.5914   29.9063   44.2266 H   0  0  0  0  0  0  0  0  0  0  0  0
   60.4371   27.7598   45.1728 H   0  0  0  0  0  0  0  0  0  0  0  0
   58.8468   26.0802   46.1012 H   0  0  0  0  0  0  0  0  0  0  0  0
   54.0190   26.7180   46.3710 H   0  0  0  0  0  0  0  0  0  0  0  0
   55.5299   28.6820   45.1044 H   0  0  0  0  0  0  0  0  0  0  0  0
   57.0682   34.1577   44.0709 H   0  0  0  0  0  0  0  0  0  0  0  0
   58.7810   35.8895   44.6079 H   0  0  0  0  0  0  0  0  0  0  0  0
   60.5841   35.4088   46.2918 H   0  0  0  0  0  0  0  0  0  0  0  0
  1  2  1  0
  2  3  1  0
  3  4  1  0
  4  5  1  0
  5  6  2  0
  5  7  1  0
  7  8  1  0
  7  9  1  0
  9 10  1  0
 10 11  2  0
 11 12  1  0
 12 13  2  0
 13 14  1  0
 14 15  1  0
 14 16  2  0
 16 17  1  0
  4 18  2  0
 18 19  1  0
 19 20  2  0
 20 21  1  0
 21 22  1  0
 22 23  1  0
 23 24  2  0
 24 25  1  0
 25 26  2  0
 26 27  1  0
 27 28  1  0
 28 29  1  0
 28 30  2  0
 27 31  2  0
 20 32  1  0
 32 33  2  0
 33 34  1  0
 34 35  2  0
 35  3  1  0
 16 10  1  0
 35 19  1  0
 31 23  1  0
  1 36  1  0
  1 37  1  0
  1 38  1  0
  2 39  1  0
  2 40  1  0
  8 41  1  0
  8 42  1  0
  8 43  1  0
  9 44  1  0
  9 45  1  0
 11 46  1  0
 12 47  1  0
 13 48  1  0
 17 49  1  0
 18 50  1  0
 22 51  1  0
 22 52  1  0
 24 53  1  0
 25 54  1  0
 26 55  1  0
 29 56  1  0
 31 57  1  0
 32 58  1  0
 33 59  1  0
 34 60  1  0
M  CHG  2  15  -1  29  -1
M  END
>  <UniqueID>  (30) 
29

>  <SMILES>  (30) 
CCn1c(C(=O)N(C)Cc2cccc([O-])c2O)cc2c(OCc3cccc(C([NH-])=O)c3)cccc21

>  <Energy>  (30) 
101.84802995931142

>  <Genealogy>  (30) 
CCn1c(C(=O)N(C)Cc2cccc([O-])c2O)cc2c(OCc3cccc(C([NH-])=O)c3)cccc21 (protonated)
CCn1c(C(=O)N(C)Cc2cccc([O-])c2O)cc2c(OCc3cccc(C([NH-])=O)c3)cccc21 (3D coordinates assigned)
CCn1c(C(=O)N(C)Cc2cccc([O-])c2O)cc2c(OCc3cccc(C([NH-])=O)c3)cccc21 (optimized conformer: 101.84802995931142 kcal/mol)

>  <smiles>  (30) 
CCn1c(C(=O)N(C)Cc2cccc(O)c2O)cc2c(OCc3cccc(C(N)=O)c3)cccc21

>  <score_type>  (30) 
oracle

>  <origin>  (30) 
adg

>  <m_score__min__energy>  (30) 
-17.75

>  <m_primary>  (30) 
energy

$$$$
30:0
     RDKit          3D

 43 45  0  0  0  0  0  0  0  0999 V2000
   64.7040   33.1000   49.4060 C   0  0  0  0  0  0  0  0  0  0  0  0
   63.6950   33.2950   48.3210 C   0  0  0  0  0  0  0  0  0  0  0  0
   63.9020   32.9520   47.0350 N   0  0  0  0  0  0  0  0  0  0  0  0
   62.8240   33.2740   46.3770 O   0  0  0  0  0  0  0  0  0  0  0  0
   61.9250   33.8110   47.1690 C   0  0  0  0  0  0  0  0  0  0  0  0
   60.5840   34.2850   46.7170 C   0  0  0  0  0  0  0  0  0  0  0  0
   62.4290   33.8310   48.4560 C   0  0  0  0  0  0  0  0  0  0  0  0
   61.7940   34.4010   49.6950 C   0  0  0  0  0  0  0  0  0  0  0  0
   60.3780   34.2180   49.6760 O   0  0  0  0  0  0  0  0  0  0  0  0
   59.6910   33.1430   50.2630 C   0  0  0  0  0  0  0  0  0  0  0  0
   58.9310   33.2790   51.4390 C   0  0  0  0  0  0  0  0  0  0  0  0
   58.2720   32.1740   51.9860 C   0  0  0  0  0  0  0  0  0  0  0  0
   58.3580   30.9120   51.3700 C   0  0  0  0  0  0  0  0  0  0  0  0
   57.6590   29.7420   51.9500 C   0  0  0  0  0  0  0  0  0  0  0  0
   58.3250   28.7690   52.4020 O   0  0  0  0  0  0  0  0  0  0  0  0
   56.2280   29.7080   51.9980 N   0  0  0  0  0  0  0  0  0  0  0  0
   55.4380   30.4090   53.0040 C   0  0  0  0  0  0  0  0  0  0  0  0
   54.0100   30.4970   52.5690 C   0  0  0  0  0  0  0  0  0  0  0  0
   53.1020   29.4560   52.5670 C   0  0  0  0  0  0  0  0  0  0  0  0
   51.9310   29.9830   52.0650 C   0  0  0  0  0  0  0  0  0  0  0  0
   52.2040   31.3100   51.7930 C   0  0  0  0  0  0  0  0  0  0  0  0
   51.2600   32.2860   51.2380 C   0  0  0  0  0  0  0  0  0  0  0  0
   50.6490   33.0760   52.0040 O   0  0  0  0  0  0  0  0  0  0  0  0
   51.0370   32.3450   49.8690 O   0  0  0  0  0  0  0  0  0  0  0  0
   53.4500   31.5890   52.1010 O   0  0  0  0  0  0  0  0  0  0  0  0
   59.1170   30.7840   50.1930 C   0  0  0  0  0  0  0  0  0  0  0  0
   59.7750   31.8900   49.6480 C   0  0  0  0  0  0  0  0  0  0  0  0
   64.2123   33.1950   50.3854 H   0  0  0  0  0  0  0  0  0  0  0  0
   65.1508   32.0989   49.3156 H   0  0  0  0  0  0  0  0  0  0  0  0
   65.4916   33.8625   49.3156 H   0  0  0  0  0  0  0  0  0  0  0  0
   59.9584   34.5061   47.5943 H   0  0  0  0  0  0  0  0  0  0  0  0
   60.7019   35.1959   46.1118 H   0  0  0  0  0  0  0  0  0  0  0  0
   60.1033   33.5023   46.1118 H   0  0  0  0  0  0  0  0  0  0  0  0
   62.2102   33.8941   50.5781 H   0  0  0  0  0  0  0  0  0  0  0  0
   62.0070   35.4795   49.7330 H   0  0  0  0  0  0  0  0  0  0  0  0
   58.8548   34.2600   51.9308 H   0  0  0  0  0  0  0  0  0  0  0  0
   57.6810   32.2923   52.9062 H   0  0  0  0  0  0  0  0  0  0  0  0
   55.4947   29.8620   53.9567 H   0  0  0  0  0  0  0  0  0  0  0  0
   55.8382   31.4257   53.1307 H   0  0  0  0  0  0  0  0  0  0  0  0
   53.2769   28.4214   52.8973 H   0  0  0  0  0  0  0  0  0  0  0  0
   50.9773   29.4564   51.9126 H   0  0  0  0  0  0  0  0  0  0  0  0
   59.1934   29.8051   49.6971 H   0  0  0  0  0  0  0  0  0  0  0  0
   60.3645   31.7737   48.7266 H   0  0  0  0  0  0  0  0  0  0  0  0
  1  2  1  0
  2  3  2  0
  3  4  1  0
  4  5  1  0
  5  6  1  0
  5  7  2  0
  7  8  1  0
  8  9  1  0
  9 10  1  0
 10 11  2  0
 11 12  1  0
 12 13  2  0
 13 14  1  0
 14 15  2  0
 14 16  1  0
 16 17  1  0
 17 18  1  0
 18 19  2  0
 19 20  1  0
 20 21  2  0
 21 22  1  0
 22 23  2  0
 22 24  1  0
 21 25  1  0
 13 26  1  0
 26 27  2  0
  7  2  1  0
 27 10  1  0
 25 18  1  0
  1 28  1  0
  1 29  1  0
  1 30  1  0
  6 31  1  0
  6 32  1  0
  6 33  1  0
  8 34  1  0
  8 35  1  0
 11 36  1  0
 12 37  1  0
 17 38  1  0
 17 39  1  0
 19 40  1  0
 20 41  1  0
 26 42  1  0
 27 43  1  0
M  CHG  2  16  -1  24  -1
M  END
>  <UniqueID>  (31) 
30

>  <SMILES>  (31) 
Cc1noc(C)c1COc1ccc(C(=O)[N-]Cc2ccc(C(=O)[O-])o2)cc1

>  <Energy>  (31) 
95.03687304577387

>  <Genealogy>  (31) 
Cc1noc(C)c1COc1ccc(C(=O)[N-]Cc2ccc(C(=O)[O-])o2)cc1 (protonated)
Cc1noc(C)c1COc1ccc(C(=O)[N-]Cc2ccc(C(=O)[O-])o2)cc1 (3D coordinates assigned)
Cc1noc(C)c1COc1ccc(C(=O)[N-]Cc2ccc(C(=O)[O-])o2)cc1 (optimized conformer: 95.03687304577387 kcal/mol)

>  <smiles>  (31) 
Cc1noc(C)c1COc1ccc(C(=O)NCc2ccc(C(=O)O)o2)cc1

>  <score_type>  (31) 
oracle

>  <origin>  (31) 
adg

>  <m_score__min__energy>  (31) 
-13.630000000000001

>  <m_primary>  (31) 
energy

$$$$
31:0
     RDKit          3D

 40 42  0  0  0  0  0  0  0  0999 V2000
   58.6690   30.5900   48.4150 H   0  0  0  0  0  0  0  0  0  0  0  0
   58.5500   30.1530   49.3180 O   0  0  0  0  0  0  0  0  0  0  0  0
   58.0980   30.8360   50.4480 C   0  0  0  0  0  0  0  0  0  0  0  0
   57.1890   30.2190   51.2470 N   0  0  0  0  0  0  0  0  0  0  0  0
   56.7390   30.7960   52.3880 C   0  0  0  0  0  0  0  0  0  0  0  0
   55.8990   30.1970   53.1070 O   0  0  0  0  0  0  0  0  0  0  0  0
   57.1990   32.0170   52.7580 N   0  0  0  0  0  0  0  0  0  0  0  0
   58.1000   32.6880   51.9980 C   0  0  0  0  0  0  0  0  0  0  0  0
   58.4860   33.8290   52.3690 O   0  0  0  0  0  0  0  0  0  0  0  0
   58.5760   32.1200   50.7990 C   0  0  0  0  0  0  0  0  0  0  0  0
   59.5200   32.8660   49.9360 C   0  0  0  0  0  0  0  0  0  0  0  0
   60.2480   33.7660   50.4330 O   0  0  0  0  0  0  0  0  0  0  0  0
   59.6610   32.5000   48.5560 N   0  0  0  0  0  0  0  0  0  0  0  0
   59.3970   33.3340   47.4180 C   0  0  0  0  0  0  0  0  0  0  0  0
   59.9790   34.6090   47.2890 C   0  0  0  0  0  0  0  0  0  0  0  0
   60.6688   34.9765   48.0630 H   0  0  0  0  0  0  0  0  0  0  0  0
   59.6850   35.4100   46.1830 C   0  0  0  0  0  0  0  0  0  0  0  0
   60.1521   36.4008   46.0826 H   0  0  0  0  0  0  0  0  0  0  0  0
   58.8000   34.9550   45.2060 C   0  0  0  0  0  0  0  0  0  0  0  0
   58.5762   35.5840   44.3318 H   0  0  0  0  0  0  0  0  0  0  0  0
   58.1970   33.7010   45.3360 C   0  0  0  0  0  0  0  0  0  0  0  0
   57.4934   33.3497   44.5669 H   0  0  0  0  0  0  0  0  0  0  0  0
   58.4860   32.8840   46.4480 C   0  0  0  0  0  0  0  0  0  0  0  0
   57.8970   31.6190   46.6200 O   0  0  0  0  0  0  0  0  0  0  0  0
   58.1720   30.4630   45.8260 C   0  0  0  0  0  0  0  0  0  0  0  0
   58.5135   29.6498   46.4833 H   0  0  0  0  0  0  0  0  0  0  0  0
   58.9493   30.7227   45.0922 H   0  0  0  0  0  0  0  0  0  0  0  0
   56.9460   30.0080   45.0790 C   0  0  0  0  0  0  0  0  0  0  0  0
   56.4150   30.7880   44.2440 O   0  0  0  0  0  0  0  0  0  0  0  0
   56.3560   28.7100   45.2700 N   0  0  0  0  0  0  0  0  0  0  0  0
   56.9460   27.5980   45.6110 C   0  0  0  0  0  0  0  0  0  0  0  0
   58.3050   27.4920   45.6350 N   0  0  0  0  0  0  0  0  0  0  0  0
   58.9350   26.3460   46.0060 C   0  0  0  0  0  0  0  0  0  0  0  0
   60.0340   26.2987   46.0089 H   0  0  0  0  0  0  0  0  0  0  0  0
   58.1880   25.2300   46.3830 C   0  0  0  0  0  0  0  0  0  0  0  0
   58.6912   24.2985   46.6815 H   0  0  0  0  0  0  0  0  0  0  0  0
   56.7950   25.3090   46.3770 C   0  0  0  0  0  0  0  0  0  0  0  0
   56.1930   24.4376   46.6743 H   0  0  0  0  0  0  0  0  0  0  0  0
   56.1650   26.4960   45.9930 C   0  0  0  0  0  0  0  0  0  0  0  0
   54.7770   26.5720   45.9920 O   0  0  0  0  0  0  0  0  0  0  0  0
  1  2  1  0
  2  3  1  0
  3  4  1  0
  4  5  1  0
  5  6  2  0
  5  7  1  0
  7  8  1  0
  8  9  2  0
  8 10  1  0
 10 11  1  0
 11 12  2  0
 11 13  1  0
 13 14  1  0
 14 15  2  0
 15 16  1  0
 15 17  1  0
 17 18  1  0
 17 19  2  0
 19 20  1  0
 19 21  1  0
 21 22  1  0
 21 23  2  0
 23 24  1  0
 24 25  1  0
 25 26  1  0
 25 27  1  0
 25 28  1  0
 28 29  2  0
 28 30  1  0
 30 31  2  0
 31 32  1  0
 32 33  1  0
 33 34  1  0
 33 35  2  0
 35 36  1  0
 35 37  1  0
 37 38  1  0
 37 39  2  0
 39 40  1  0
 10  3  2  0
 23 14  1  0
 39 31  1  0
M  CHG  5   4  -1   7  -1  13  -1  32  -1  40  -1
M  END
>  <UniqueID>  (32) 
31

>  <SMILES>  (32) 
O=C(COc1ccccc1[N-]C(=O)c1c(O)[n-]c(=O)[n-]c1=O)/N=c1\[n-]cccc1[O-]

>  <Energy>  (32) 
60.660748206898184

>  <Genealogy>  (32) 
O=C(COc1ccccc1[N-]C(=O)c1c(O)[n-]c(=O)[n-]c1=O)N=c1[n-]cccc1[O-] (protonated)
O=C(COc1ccccc1[N-]C(=O)c1c(O)[n-]c(=O)[n-]c1=O)/N=c1\[n-]cccc1[O-] (cis-trans isomerization)
O=C(COc1ccccc1[N-]C(=O)c1c(O)[n-]c(=O)[n-]c1=O)/N=c1\[n-]cccc1[O-] (3D coordinates assigned)
O=C(COc1ccccc1[N-]C(=O)c1c(O)[n-]c(=O)[n-]c1=O)/N=c1\[n-]cccc1[O-] (optimized conformer: 60.660748206898184 kcal/mol)

>  <smiles>  (32) 
O=C(COc1ccccc1NC(=O)c1c(O)[nH]c(=O)[nH]c1=O)N=c1[nH]cccc1O

>  <score_type>  (32) 
oracle

>  <origin>  (32) 
adg

>  <m_score__min__energy>  (32) 
-17.219999999999999

>  <m_primary>  (32) 
energy

$$$$
32:0
     RDKit          3D

 64 66  0  0  0  0  0  0  0  0999 V2000
   60.5135   29.6004   48.3298 H   0  0  0  0  0  0  0  0  0  0  0  0
   60.5090   30.5150   48.9410 C   0  0  0  0  0  0  0  0  0  0  0  0
   61.5450   30.7520   49.8490 C   0  0  0  0  0  0  0  0  0  0  0  0
   62.3643   30.0249   49.9489 H   0  0  0  0  0  0  0  0  0  0  0  0
   61.5420   31.9120   50.6310 C   0  0  0  0  0  0  0  0  0  0  0  0
   62.8950   32.2300   51.7680 S   0  0  0  0  0  0  0  0  0  0  0  0
   64.1160   31.3320   50.7640 C   0  0  0  0  0  0  0  0  0  0  0  0
   64.8236   30.8116   51.4261 H   0  0  0  0  0  0  0  0  0  0  0  0
   63.5994   30.5970   50.1292 H   0  0  0  0  0  0  0  0  0  0  0  0
   64.6637   32.0441   50.1292 H   0  0  0  0  0  0  0  0  0  0  0  0
   60.5050   32.8420   50.4960 C   0  0  0  0  0  0  0  0  0  0  0  0
   60.5053   33.7581   51.1049 H   0  0  0  0  0  0  0  0  0  0  0  0
   59.4680   32.6070   49.5870 C   0  0  0  0  0  0  0  0  0  0  0  0
   58.6542   33.3399   49.4843 H   0  0  0  0  0  0  0  0  0  0  0  0
   59.4600   31.4440   48.8070 C   0  0  0  0  0  0  0  0  0  0  0  0
   58.4230   31.2590   47.8830 O   0  0  0  0  0  0  0  0  0  0  0  0
   58.5400   30.5620   46.6730 C   0  0  0  0  0  0  0  0  0  0  0  0
   59.4550   29.5640   46.5790 N   0  0  0  0  0  0  0  0  0  0  0  0
   59.6290   28.8680   45.4280 C   0  0  0  0  0  0  0  0  0  0  0  0
   60.5140   27.9190   45.3860 N   0  0  0  0  0  0  0  0  0  0  0  0
   60.4040   26.6820   46.1540 C   0  0  0  0  0  0  0  0  0  0  0  0
   61.0000   26.0402   45.4886 H   0  0  0  0  0  0  0  0  0  0  0  0
   60.3410   26.8940   47.6550 C   0  0  0  0  0  0  0  0  0  0  0  0
   60.7813   26.1499   48.3350 H   0  0  0  0  0  0  0  0  0  0  0  0
   60.6431   27.6989   48.3412 H   0  0  0  0  0  0  0  0  0  0  0  0
   59.0770   26.5600   46.8760 C   0  0  0  0  0  0  0  0  0  0  0  0
   58.6029   25.5743   46.9930 H   0  0  0  0  0  0  0  0  0  0  0  0
   58.0855   27.0235   46.7657 H   0  0  0  0  0  0  0  0  0  0  0  0
   58.8750   29.1690   44.3380 N   0  0  0  0  0  0  0  0  0  0  0  0
   57.9450   30.1620   44.3630 C   0  0  0  0  0  0  0  0  0  0  0  0
   57.1580   30.4200   43.1840 N   0  0  0  0  0  0  0  0  0  0  0  0
   56.2820   29.3850   42.6280 C   0  0  0  0  0  0  0  0  0  0  0  0
   55.8086   28.8257   43.4484 H   0  0  0  0  0  0  0  0  0  0  0  0
   55.5044   29.8564   42.0091 H   0  0  0  0  0  0  0  0  0  0  0  0
   56.8755   28.6960   42.0091 H   0  0  0  0  0  0  0  0  0  0  0  0
   57.4400   31.6090   42.3780 C   0  0  0  0  0  0  0  0  0  0  0  0
   57.6424   32.4624   43.0418 H   0  0  0  0  0  0  0  0  0  0  0  0
   58.3186   31.4218   41.7432 H   0  0  0  0  0  0  0  0  0  0  0  0
   56.5708   31.8363   41.7432 H   0  0  0  0  0  0  0  0  0  0  0  0
   57.7810   30.9130   45.5430 C   0  0  0  0  0  0  0  0  0  0  0  0
   56.9270   32.0180   45.5980 O   0  0  0  0  0  0  0  0  0  0  0  0
   57.3960   33.3310   45.6970 C   0  0  0  0  0  0  0  0  0  0  0  0
   57.0940   34.1870   44.8200 O   0  0  0  0  0  0  0  0  0  0  0  0
   58.2470   33.6860   46.7880 N   0  0  0  0  0  0  0  0  0  0  0  0
   58.4040   32.9760   47.5380 H   0  0  0  0  0  0  0  0  0  0  0  0
   58.9180   34.9850   46.8440 C   0  0  0  0  0  0  0  0  0  0  0  0
   58.8982   35.3516   47.8809 H   0  0  0  0  0  0  0  0  0  0  0  0
   58.3864   35.6738   46.1710 H   0  0  0  0  0  0  0  0  0  0  0  0
   60.3810   34.8930   46.3760 C   0  0  0  0  0  0  0  0  0  0  0  0
   60.7827   35.9129   46.2841 H   0  0  0  0  0  0  0  0  0  0  0  0
   60.3818   34.3582   45.4148 H   0  0  0  0  0  0  0  0  0  0  0  0
   61.2810   34.0990   47.3390 C   0  0  0  0  0  0  0  0  0  0  0  0
   60.7079   33.8769   48.2513 H   0  0  0  0  0  0  0  0  0  0  0  0
   62.1648   34.7192   47.5494 H   0  0  0  0  0  0  0  0  0  0  0  0
   61.7820   32.7730   46.7400 C   0  0  0  0  0  0  0  0  0  0  0  0
   61.8458   32.8803   45.6471 H   0  0  0  0  0  0  0  0  0  0  0  0
   61.0700   31.9846   47.0255 H   0  0  0  0  0  0  0  0  0  0  0  0
   63.1650   32.3750   47.2790 C   0  0  0  0  0  0  0  0  0  0  0  0
   63.8133   32.1140   46.4296 H   0  0  0  0  0  0  0  0  0  0  0  0
   63.0268   31.5210   47.9583 H   0  0  0  0  0  0  0  0  0  0  0  0
   63.8270   33.5000   48.0740 C   0  0  0  0  0  0  0  0  0  0  0  0
   63.7122   33.3050   49.1505 H   0  0  0  0  0  0  0  0  0  0  0  0
   64.8967   33.5469   47.8219 H   0  0  0  0  0  0  0  0  0  0  0  0
   63.3485   34.4579   47.8219 H   0  0  0  0  0  0  0  0  0  0  0  0
  1  2  1  0
  2  3  2  0
  3  4  1  0
  3  5  1  0
  5  6  1  0
  6  7  1  0
  7  8  1  0
  7  9  1  0
  7 10  1  0
  5 11  2  0
 11 12  1  0
 11 13  1  0
 13 14  1  0
 13 15  2  0
 15 16  1  0
 16 17  1  0
 17 18  1  0
 18 19  1  0
 19 20  2  0
 20 21  1  0
 21 22  1  0
 21 23  1  0
 23 24  1  0
 23 25  1  0
 23 26  1  0
 26 27  1  0
 26 28  1  0
 19 29  1  0
 29 30  2  0
 30 31  1  0
 31 32  1  0
 32 33  1  0
 32 34  1  0
 32 35  1  0
 31 36  1  0
 36 37  1  0
 36 38  1  0
 36 39  1  0
 30 40  1  0
 40 41  1  0
 41 42  1  0
 42 43  2  0
 42 44  1  0
 44 45  1  0
 44 46  1  0
 46 47  1  0
 46 48  1  0
 46 49  1  0
 49 50  1  0
 49 51  1  0
 49 52  1  0
 52 53  1  0
 52 54  1  0
 52 55  1  0
 55 56  1  0
 55 57  1  0
 55 58  1  0
 58 59  1  0
 58 60  1  0
 58 61  1  0
 61 62  1  0
 61 63  1  0
 61 64  1  0
 15  2  1  0
 40 17  2  0
 26 21  1  0
M  CHG  1  18  -1
M  END
>  <UniqueID>  (33) 
32

>  <SMILES>  (33) 
CCCCCCNC(=O)Oc1c(N(C)C)n/c(=N\C2CC2)[n-]c1Oc1ccc(SC)cc1

>  <Energy>  (33) 
326.84382057816714

>  <Genealogy>  (33) 
CCCCCCNC(=O)Oc1c(N(C)C)nc(=NC2CC2)[n-]c1Oc1ccc(SC)cc1 (protonated)
CCCCCCNC(=O)Oc1c(N(C)C)n/c(=N\C2CC2)[n-]c1Oc1ccc(SC)cc1 (cis-trans isomerization)
CCCCCCNC(=O)Oc1c(N(C)C)n/c(=N\C2CC2)[n-]c1Oc1ccc(SC)cc1 (3D coordinates assigned)
CCCCCCNC(=O)Oc1c(N(C)C)n/c(=N\C2CC2)[n-]c1Oc1ccc(SC)cc1 (nonaromatic ring conformer: 326.84382057816714 kcal/mol)

>  <smiles>  (33) 
CCCCCCNC(=O)Oc1c(N(C)C)nc(=NC2CC2)[nH]c1Oc1ccc(SC)cc1

>  <score_type>  (33) 
oracle

>  <origin>  (33) 
adg

>  <m_score__min__energy>  (33) 
-8.6999999999999993

>  <m_primary>  (33) 
energy

$$$$
33:0
     RDKit          3D

 66 70  0  0  0  0  0  0  0  0999 V2000
   58.8400   33.5430   44.9670 C   0  0  0  0  0  0  0  0  0  0  0  0
   59.5440   33.0000   46.1420 N   0  0  1  0  0  0  0  0  0  0  0  0
   60.0480   34.0620   47.0460 C   0  0  0  0  0  0  0  0  0  0  0  0
   61.4210   33.7830   47.6230 C   0  0  0  0  0  0  0  0  0  0  0  0
   61.6630   33.9400   48.9980 C   0  0  0  0  0  0  0  0  0  0  0  0
   62.9320   33.6840   49.5250 C   0  0  0  0  0  0  0  0  0  0  0  0
   63.9720   33.2780   48.6840 C   0  0  0  0  0  0  0  0  0  0  0  0
   65.2020   33.0300   49.1970 F   0  0  0  0  0  0  0  0  0  0  0  0
   63.7430   33.1270   47.3140 C   0  0  0  0  0  0  0  0  0  0  0  0
   62.4750   33.3810   46.7830 C   0  0  0  0  0  0  0  0  0  0  0  0
   58.7260   32.0360   46.8530 C   0  0  0  0  0  0  0  0  0  0  0  0
   57.7840   31.4420   46.2590 O   0  0  0  0  0  0  0  0  0  0  0  0
   58.8690   31.8280   48.3060 C   0  0  0  0  0  0  0  0  0  0  0  0
   58.0170   32.3610   49.1990 N   0  0  0  0  0  0  0  0  0  0  0  0
   58.4780   31.9260   50.3910 C   0  0  0  0  0  0  0  0  0  0  0  0
   57.8110   32.2480   51.6900 C   0  0  0  0  0  0  0  0  0  0  0  0
   56.9460   31.0970   52.1240 C   0  0  0  0  0  0  0  0  0  0  0  0
   55.5480   31.1720   52.0000 C   0  0  0  0  0  0  0  0  0  0  0  0
   54.7450   30.1140   52.4400 C   0  0  0  0  0  0  0  0  0  0  0  0
   55.3280   28.9820   53.0140 C   0  0  0  0  0  0  0  0  0  0  0  0
   54.5470   27.9610   53.4440 F   0  0  0  0  0  0  0  0  0  0  0  0
   56.7180   28.9060   53.1520 C   0  0  0  0  0  0  0  0  0  0  0  0
   57.5250   29.9610   52.7120 C   0  0  0  0  0  0  0  0  0  0  0  0
   59.5590   31.1230   50.2990 N   0  0  0  0  0  0  0  0  0  0  0  0
   59.8030   31.0570   48.9780 C   0  0  0  0  0  0  0  0  0  0  0  0
   60.8870   30.1960   48.3930 C   0  0  0  0  0  0  0  0  0  0  0  0
   60.5950   29.7850   46.9690 C   0  0  0  0  0  0  0  0  0  0  0  0
   61.0570   30.4760   46.0180 O   0  0  0  0  0  0  0  0  0  0  0  0
   59.8070   28.5610   46.6590 C   0  0  0  0  0  0  0  0  0  0  0  0
   60.4200   27.2960   46.7210 C   0  0  0  0  0  0  0  0  0  0  0  0
   59.6950   26.1380   46.4340 C   0  0  0  0  0  0  0  0  0  0  0  0
   58.3480   26.2220   46.0820 C   0  0  0  0  0  0  0  0  0  0  0  0
   57.7080   27.4700   46.0270 C   0  0  0  0  0  0  0  0  0  0  0  0
   56.2840   27.5680   45.6290 C   0  0  0  0  0  0  0  0  0  0  0  0
   55.9200   28.5240   44.8950 O   0  0  0  0  0  0  0  0  0  0  0  0
   55.3120   26.5770   45.9970 N   0  0  0  0  0  0  0  0  0  0  0  0
   55.4950   25.2900   45.9960 C   0  0  0  0  0  0  0  0  0  0  0  0
   55.2550   24.5340   44.9060 N   0  0  0  0  0  0  0  0  0  0  0  0
   55.5310   23.2860   45.3190 C   0  0  0  0  0  0  0  0  0  0  0  0
   55.9180   23.3170   46.6380 C   0  0  0  0  0  0  0  0  0  0  0  0
   55.8930   24.5870   47.0780 N   0  0  0  0  0  0  0  0  0  0  0  0
   58.4430   28.6340   46.3050 C   0  0  0  0  0  0  0  0  0  0  0  0
   58.0100   34.1832   45.3004 H   0  0  0  0  0  0  0  0  0  0  0  0
   59.5408   34.1368   44.3617 H   0  0  0  0  0  0  0  0  0  0  0  0
   58.4437   32.7144   44.3617 H   0  0  0  0  0  0  0  0  0  0  0  0
   60.3910   32.5150   45.7720 H   0  0  0  0  0  0  0  0  0  0  0  0
   60.0962   35.0037   46.4795 H   0  0  0  0  0  0  0  0  0  0  0  0
   59.3511   34.1125   47.8956 H   0  0  0  0  0  0  0  0  0  0  0  0
   60.8498   34.2660   49.6631 H   0  0  0  0  0  0  0  0  0  0  0  0
   63.1126   33.8023   50.6036 H   0  0  0  0  0  0  0  0  0  0  0  0
   64.5617   32.8078   46.6523 H   0  0  0  0  0  0  0  0  0  0  0  0
   62.3008   33.2659   45.7030 H   0  0  0  0  0  0  0  0  0  0  0  0
   58.5776   32.4365   52.4561 H   0  0  0  0  0  0  0  0  0  0  0  0
   57.1836   33.1424   51.5615 H   0  0  0  0  0  0  0  0  0  0  0  0
   55.0839   32.0649   51.5558 H   0  0  0  0  0  0  0  0  0  0  0  0
   53.6518   30.1739   52.3336 H   0  0  0  0  0  0  0  0  0  0  0  0
   57.1771   28.0159   53.6069 H   0  0  0  0  0  0  0  0  0  0  0  0
   58.6173   29.9002   52.8272 H   0  0  0  0  0  0  0  0  0  0  0  0
   61.8322   30.7583   48.4110 H   0  0  0  0  0  0  0  0  0  0  0  0
   60.9494   29.2800   48.9988 H   0  0  0  0  0  0  0  0  0  0  0  0
   61.4816   27.2187   46.9985 H   0  0  0  0  0  0  0  0  0  0  0  0
   60.1878   25.1559   46.4856 H   0  0  0  0  0  0  0  0  0  0  0  0
   57.7851   25.3067   45.8466 H   0  0  0  0  0  0  0  0  0  0  0  0
   55.4587   22.3804   44.6987 H   0  0  0  0  0  0  0  0  0  0  0  0
   56.2031   22.4406   47.2386 H   0  0  0  0  0  0  0  0  0  0  0  0
   57.9491   29.6151   46.2460 H   0  0  0  0  0  0  0  0  0  0  0  0
  1  2  1  0
  2  3  1  0
  3  4  1  0
  4  5  2  0
  5  6  1  0
  6  7  2  0
  7  8  1  0
  7  9  1  0
  9 10  2  0
  2 11  1  0
 11 12  2  0
 11 13  1  0
 13 14  1  0
 14 15  1  0
 15 16  1  0
 16 17  1  0
 17 18  2  0
 18 19  1  0
 19 20  2  0
 20 21  1  0
 20 22  1  0
 22 23  2  0
 15 24  2  0
 24 25  1  0
 25 26  1  0
 26 27  1  0
 27 28  2  0
 27 29  1  0
 29 30  2  0
 30 31  1  0
 31 32  2  0
 32 33  1  0
 33 34  1  0
 34 35  2  0
 34 36  1  0
 36 37  2  3
 37 38  1  0
 38 39  1  0
 39 40  2  0
 40 41  1  0
 33 42  2  0
 10  4  1  0
 25 13  2  0
 42 29  1  0
 23 17  1  0
 41 37  1  0
  1 43  1  0
  1 44  1  0
  1 45  1  0
  2 46  1  6
  3 47  1  0
  3 48  1  0
  5 49  1  0
  6 50  1  0
  9 51  1  0
 10 52  1  0
 16 53  1  0
 16 54  1  0
 18 55  1  0
 19 56  1  0
 22 57  1  0
 23 58  1  0
 26 59  1  0
 26 60  1  0
 30 61  1  0
 31 62  1  0
 32 63  1  0
 39 64  1  0
 40 65  1  0
 42 66  1  0
M  CHG  4   2   1  14  -1  38  -1  41  -1
M  END
>  <UniqueID>  (34) 
33

>  <SMILES>  (34) 
C[N@@H+](Cc1ccc(F)cc1)C(=O)c1[n-]c(Cc2ccc(F)cc2)nc1CC(=O)c1cccc(C(=O)N=c2[n-]cc[n-]2)c1

>  <Energy>  (34) 
142.69354606786825

>  <Genealogy>  (34) 
C[NH+](Cc1ccc(F)cc1)C(=O)c1[n-]c(Cc2ccc(F)cc2)nc1CC(=O)c1cccc(C(=O)N=c2[n-]cc[n-]2)c1 (protonated)
C[N@@H+](Cc1ccc(F)cc1)C(=O)c1[n-]c(Cc2ccc(F)cc2)nc1CC(=O)c1cccc(C(=O)N=c2[n-]cc[n-]2)c1 (chirality)
C[N@@H+](Cc1ccc(F)cc1)C(=O)c1[n-]c(Cc2ccc(F)cc2)nc1CC(=O)c1cccc(C(=O)N=c2[n-]cc[n-]2)c1 (3D coordinates assigned)
C[N@@H+](Cc1ccc(F)cc1)C(=O)c1[n-]c(Cc2ccc(F)cc2)nc1CC(=O)c1cccc(C(=O)N=c2[n-]cc[n-]2)c1 (optimized conformer: 142.69354606786825 kcal/mol)

>  <smiles>  (34) 
CN(Cc1ccc(F)cc1)C(=O)c1[nH]c(Cc2ccc(F)cc2)nc1CC(=O)c1cccc(C(=O)N=c2[nH]cc[nH]2)c1

>  <score_type>  (34) 
oracle

>  <origin>  (34) 
adg

>  <m_score__min__energy>  (34) 
-15.9

>  <m_primary>  (34) 
energy

$$$$
34:0
     RDKit          3D

 37 39  0  0  0  0  0  0  0  0999 V2000
   57.0920   30.1790   43.0540 O   0  0  0  0  0  0  0  0  0  0  0  0
   56.8840   30.2500   44.2940 C   0  0  0  0  0  0  0  0  0  0  0  0
   56.5040   31.5150   44.8570 N   0  0  0  0  0  0  0  0  0  0  0  0
   57.3830   32.4730   45.4640 C   0  0  0  0  0  0  0  0  0  0  0  0
   57.7490   33.6130   44.7370 C   0  0  0  0  0  0  0  0  0  0  0  0
   58.6050   34.5640   45.2980 C   0  0  0  0  0  0  0  0  0  0  0  0
   59.1150   34.3750   46.5850 C   0  0  0  0  0  0  0  0  0  0  0  0
   58.7800   33.2260   47.3130 C   0  0  0  0  0  0  0  0  0  0  0  0
   59.4240   32.9960   48.9350 S   0  0  0  0  0  0  0  0  0  0  0  0
   58.3450   32.4720   49.8410 O   0  0  0  0  0  0  0  0  0  0  0  0
   59.9300   34.3140   49.4500 O   0  0  0  0  0  0  0  0  0  0  0  0
   60.7200   31.8460   48.8730 N   0  0  0  0  0  0  0  0  0  0  0  0
   62.1000   32.1410   49.1230 C   0  0  0  0  0  0  0  0  0  0  0  0
   62.7740   32.9950   48.2390 C   0  0  0  0  0  0  0  0  0  0  0  0
   64.1210   33.3120   48.4460 C   0  0  0  0  0  0  0  0  0  0  0  0
   64.8040   32.7750   49.5420 C   0  0  0  0  0  0  0  0  0  0  0  0
   66.1430   33.0900   49.7480 O   0  0  0  0  0  0  0  0  0  0  0  0
   64.1410   31.9210   50.4300 C   0  0  0  0  0  0  0  0  0  0  0  0
   62.7940   31.6050   50.2250 C   0  0  0  0  0  0  0  0  0  0  0  0
   57.9200   32.2720   46.7490 C   0  0  0  0  0  0  0  0  0  0  0  0
   56.9970   29.0220   45.1100 C   0  0  0  0  0  0  0  0  0  0  0  0
   58.1850   28.6900   45.7780 C   0  0  0  0  0  0  0  0  0  0  0  0
   58.2190   27.5200   46.5400 C   0  0  0  0  0  0  0  0  0  0  0  0
   59.2720   27.1900   47.1480 O   0  0  0  0  0  0  0  0  0  0  0  0
   57.1110   26.7380   46.6330 N   0  0  0  0  0  0  0  0  0  0  0  0
   55.9620   27.0800   45.9940 C   0  0  0  0  0  0  0  0  0  0  0  0
   54.9440   26.3470   46.0960 O   0  0  0  0  0  0  0  0  0  0  0  0
   55.9090   28.2140   45.2460 N   0  0  0  0  0  0  0  0  0  0  0  0
   57.3602   33.7603   43.7186 H   0  0  0  0  0  0  0  0  0  0  0  0
   58.8778   35.4629   44.7256 H   0  0  0  0  0  0  0  0  0  0  0  0
   59.7811   35.1302   47.0276 H   0  0  0  0  0  0  0  0  0  0  0  0
   62.2398   33.4192   47.3760 H   0  0  0  0  0  0  0  0  0  0  0  0
   64.6423   33.9829   47.7474 H   0  0  0  0  0  0  0  0  0  0  0  0
   64.6798   31.4975   51.2905 H   0  0  0  0  0  0  0  0  0  0  0  0
   62.2750   30.9356   50.9268 H   0  0  0  0  0  0  0  0  0  0  0  0
   57.6644   31.3632   47.3135 H   0  0  0  0  0  0  0  0  0  0  0  0
   59.0711   29.3375   45.7033 H   0  0  0  0  0  0  0  0  0  0  0  0
  1  2  2  0
  2  3  1  0
  3  4  1  0
  4  5  2  0
  5  6  1  0
  6  7  2  0
  7  8  1  0
  8  9  1  0
  9 10  2  0
  9 11  2  0
  9 12  1  0
 12 13  1  0
 13 14  2  0
 14 15  1  0
 15 16  2  0
 16 17  1  0
 16 18  1  0
 18 19  2  0
  8 20  2  0
  2 21  1  0
 21 22  2  0
 22 23  1  0
 23 24  2  0
 23 25  1  0
 25 26  1  0
 26 27  2  0
 26 28  1  0
 20  4  1  0
 28 21  1  0
 19 13  1  0
  5 29  1  0
  6 30  1  0
  7 31  1  0
 14 32  1  0
 15 33  1  0
 18 34  1  0
 19 35  1  0
 20 36  1  0
 22 37  1  0
M  CHG  5   3  -1  12  -1  17  -1  25  -1  28  -1
M  END
>  <UniqueID>  (35) 
34

>  <SMILES>  (35) 
O=C([N-]c1cccc(S(=O)(=O)[N-]c2ccc([O-])cc2)c1)c1cc(=O)[n-]c(=O)[n-]1

>  <Energy>  (35) 
51.369768450141954

>  <Genealogy>  (35) 
O=C([N-]c1cccc(S(=O)(=O)[N-]c2ccc([O-])cc2)c1)c1cc(=O)[n-]c(=O)[n-]1 (protonated)
O=C([N-]c1cccc(S(=O)(=O)[N-]c2ccc([O-])cc2)c1)c1cc(=O)[n-]c(=O)[n-]1 (3D coordinates assigned)
O=C([N-]c1cccc(S(=O)(=O)[N-]c2ccc([O-])cc2)c1)c1cc(=O)[n-]c(=O)[n-]1 (optimized conformer: 51.369768450141954 kcal/mol)

>  <smiles>  (35) 
O=C(Nc1cccc(S(=O)(=O)Nc2ccc(O)cc2)c1)c1cc(=O)[nH]c(=O)[nH]1

>  <score_type>  (35) 
oracle

>  <origin>  (35) 
adg

>  <m_score__min__energy>  (35) 
-17.25

>  <m_primary>  (35) 
energy

$$$$
35:0
     RDKit          3D

 33 35  0  0  0  0  0  0  0  0999 V2000
   60.1540   26.0840   47.0420 O   0  0  0  0  0  0  0  0  0  0  0  0
   58.9910   26.0810   46.5620 C   0  0  0  0  0  0  0  0  0  0  0  0
   58.2150   24.8790   46.6490 N   0  0  0  0  0  0  0  0  0  0  0  0
   58.1430   23.8140   45.6500 C   0  0  0  0  0  0  0  0  0  0  0  0
   57.1550   24.1620   44.5310 C   0  0  0  0  0  0  0  0  0  0  0  0
   55.7260   23.9890   44.9550 C   0  0  0  0  0  0  0  0  0  0  0  0
   54.8210   23.0840   44.4420 C   0  0  0  0  0  0  0  0  0  0  0  0
   53.6540   23.2960   45.1450 C   0  0  0  0  0  0  0  0  0  0  0  0
   52.4740   22.5930   44.9410 O   0  0  0  0  0  0  0  0  0  0  0  0
   53.7780   24.2770   46.0610 N   0  0  0  0  0  0  0  0  0  0  0  0
   55.0530   24.6950   45.9340 C   0  0  0  0  0  0  0  0  0  0  0  0
   55.6040   25.7150   46.7000 O   0  0  0  0  0  0  0  0  0  0  0  0
   58.4820   27.3090   45.9260 C   0  0  0  0  0  0  0  0  0  0  0  0
   57.1570   27.5090   45.5470 C   0  0  0  0  0  0  0  0  0  0  0  0
   57.1280   28.7740   45.0040 C   0  0  0  0  0  0  0  0  0  0  0  0
   56.0710   29.5200   44.4830 C   0  0  0  0  0  0  0  0  0  0  0  0
   54.7790   29.0100   44.4500 O   0  0  0  0  0  0  0  0  0  0  0  0
   56.3520   30.8080   43.9920 C   0  0  0  0  0  0  0  0  0  0  0  0
   57.6700   31.3150   44.0310 C   0  0  0  0  0  0  0  0  0  0  0  0
   58.7160   30.5390   44.5650 C   0  0  0  0  0  0  0  0  0  0  0  0
   58.4060   29.2690   45.0480 C   0  0  0  0  0  0  0  0  0  0  0  0
   59.2470   28.3790   45.5980 N   0  0  0  0  0  0  0  0  0  0  0  0
   59.1413   23.6657   45.2125 H   0  0  0  0  0  0  0  0  0  0  0  0
   57.7940   22.8967   46.1468 H   0  0  0  0  0  0  0  0  0  0  0  0
   57.3112   25.2099   44.2351 H   0  0  0  0  0  0  0  0  0  0  0  0
   57.3417   23.4743   43.6930 H   0  0  0  0  0  0  0  0  0  0  0  0
   54.9934   22.3491   43.6419 H   0  0  0  0  0  0  0  0  0  0  0  0
   56.5740   25.6750   46.9900 H   0  0  0  0  0  0  0  0  0  0  0  0
   56.3161   26.8085   45.6574 H   0  0  0  0  0  0  0  0  0  0  0  0
   55.5411   31.4236   43.5755 H   0  0  0  0  0  0  0  0  0  0  0  0
   57.8801   32.3221   43.6418 H   0  0  0  0  0  0  0  0  0  0  0  0
   59.7462   30.9231   44.6000 H   0  0  0  0  0  0  0  0  0  0  0  0
   60.2800   28.4810   45.7040 H   0  0  0  0  0  0  0  0  0  0  0  0
  1  2  2  0
  2  3  1  0
  3  4  1  0
  4  5  1  0
  5  6  1  0
  6  7  1  0
  7  8  2  0
  8  9  1  0
  8 10  1  0
 10 11  1  0
 11 12  1  0
  2 13  1  0
 13 14  2  0
 14 15  1  0
 15 16  2  0
 16 17  1  0
 16 18  1  0
 18 19  2  0
 19 20  1  0
 20 21  2  0
 21 22  1  0
 11  6  2  0
 22 13  1  0
 21 15  1  0
  4 23  1  0
  4 24  1  0
  5 25  1  0
  5 26  1  0
  7 27  1  0
 12 28  1  0
 14 29  1  0
 18 30  1  0
 19 31  1  0
 20 32  1  0
 22 33  1  0
M  CHG  4   3  -1   9  -1  10  -1  17  -1
M  END
>  <UniqueID>  (36) 
35

>  <SMILES>  (36) 
O=C([N-]CCc1cc([O-])[n-]c1O)c1cc2c([O-])cccc2[nH]1

>  <Energy>  (36) 
91.25538830835353

>  <Genealogy>  (36) 
O=C([N-]CCc1cc([O-])[n-]c1O)c1cc2c([O-])cccc2[nH]1 (protonated)
O=C([N-]CCc1cc([O-])[n-]c1O)c1cc2c([O-])cccc2[nH]1 (3D coordinates assigned)
O=C([N-]CCc1cc([O-])[n-]c1O)c1cc2c([O-])cccc2[nH]1 (optimized conformer: 91.25538830835353 kcal/mol)

>  <smiles>  (36) 
O=C(NCCc1cc(O)[nH]c1O)c1cc2c(O)cccc2[nH]1

>  <score_type>  (36) 
oracle

>  <origin>  (36) 
adg

>  <m_score__min__energy>  (36) 
-16.48

>  <m_primary>  (36) 
energy

$$$$
36:0
     RDKit          3D

 81 86  0  0  0  0  0  0  0  0999 V2000
   66.0980   32.8630   50.0070 C   0  0  0  0  0  0  0  0  0  0  0  0
   64.8600   32.1180   49.7460 N   0  0  0  0  0  0  0  0  0  0  0  0
   64.0380   32.0170   50.9790 C   0  0  0  0  0  0  0  0  0  0  0  0
   62.5200   31.9550   50.7080 C   0  0  0  0  0  0  0  0  0  0  0  0
   62.2420   31.3300   49.4110 N   0  0  0  0  0  0  0  0  0  0  0  0
   61.2510   30.2830   49.3200 C   0  0  0  0  0  0  0  0  0  0  0  0
   61.1380   29.4580   50.2670 O   0  0  0  0  0  0  0  0  0  0  0  0
   60.2970   30.1660   48.1530 C   0  0  1  0  0  0  0  0  0  0  0  0
   60.0510   28.6910   47.7770 C   0  0  0  0  0  0  0  0  0  0  0  0
   59.5600   28.5450   46.3670 C   0  0  0  0  0  0  0  0  0  0  0  0
   59.5650   29.5260   45.3800 C   0  0  0  0  0  0  0  0  0  0  0  0
   59.0190   29.0490   44.2380 N   0  0  0  0  0  0  0  0  0  0  0  0
   58.6670   27.7780   44.4990 C   0  0  0  0  0  0  0  0  0  0  0  0
   58.0600   26.8740   43.6260 C   0  0  0  0  0  0  0  0  0  0  0  0
   57.7710   25.5860   44.1140 C   0  0  0  0  0  0  0  0  0  0  0  0
   58.0870   25.2360   45.4460 C   0  0  0  0  0  0  0  0  0  0  0  0
   58.7030   26.1670   46.3020 C   0  0  0  0  0  0  0  0  0  0  0  0
   58.9790   27.4350   45.7890 C   0  0  0  0  0  0  0  0  0  0  0  0
   59.0340   30.8210   48.4750 N   0  0  0  0  0  0  0  0  0  0  0  0
   58.8370   32.2390   48.4420 C   0  0  0  0  0  0  0  0  0  0  0  0
   57.7570   32.7170   48.0030 O   0  0  0  0  0  0  0  0  0  0  0  0
   59.8900   33.1410   49.0290 C   0  0  2  0  0  0  0  0  0  0  0  0
   59.3470   34.0000   50.1880 C   0  0  0  0  0  0  0  0  0  0  0  0
   59.3460   33.2320   51.4810 C   0  0  0  0  0  0  0  0  0  0  0  0
   60.2140   33.4150   52.5520 C   0  0  0  0  0  0  0  0  0  0  0  0
   59.8580   32.6240   53.5890 N   0  0  0  0  0  0  0  0  0  0  0  0
   58.7690   31.9480   53.1840 C   0  0  0  0  0  0  0  0  0  0  0  0
   58.0330   31.0130   53.9120 C   0  0  0  0  0  0  0  0  0  0  0  0
   56.9160   30.4250   53.2890 C   0  0  0  0  0  0  0  0  0  0  0  0
   56.5580   30.7870   51.9740 C   0  0  0  0  0  0  0  0  0  0  0  0
   57.3140   31.7410   51.2650 C   0  0  0  0  0  0  0  0  0  0  0  0
   58.4220   32.2960   51.9050 C   0  0  0  0  0  0  0  0  0  0  0  0
   60.5150   33.9690   47.9960 N   0  0  0  0  0  0  0  0  0  0  0  0
   59.8950   34.4940   46.8140 C   0  0  0  0  0  0  0  0  0  0  0  0
   59.6220   35.7220   46.7320 O   0  0  0  0  0  0  0  0  0  0  0  0
   59.6370   33.5920   45.6250 C   0  0  1  0  0  0  0  0  0  0  0  0
   59.7540   32.1770   45.9840 N   0  0  0  0  0  0  0  0  0  0  0  0
   58.2450   33.8640   45.0190 C   0  0  0  0  0  0  0  0  0  0  0  0
   57.6500   32.6130   44.4390 C   0  0  0  0  0  0  0  0  0  0  0  0
   57.8550   32.1270   43.1700 C   0  0  0  0  0  0  0  0  0  0  0  0
   57.2430   30.9360   43.0530 N   0  0  0  0  0  0  0  0  0  0  0  0
   56.6840   30.7350   44.2640 C   0  0  0  0  0  0  0  0  0  0  0  0
   56.9180   31.7340   45.1430 N   0  0  0  0  0  0  0  0  0  0  0  0
   62.9710   31.8010   48.2240 C   0  0  0  0  0  0  0  0  0  0  0  0
   64.1260   32.7220   48.6210 C   0  0  0  0  0  0  0  0  0  0  0  0
   66.2492   32.9540   51.0928 H   0  0  0  0  0  0  0  0  0  0  0  0
   66.9492   32.3270   49.5619 H   0  0  0  0  0  0  0  0  0  0  0  0
   66.0230   33.8661   49.5619 H   0  0  0  0  0  0  0  0  0  0  0  0
   64.3321   31.1049   51.5189 H   0  0  0  0  0  0  0  0  0  0  0  0
   64.2234   32.9292   51.5651 H   0  0  0  0  0  0  0  0  0  0  0  0
   62.0368   31.3663   51.5017 H   0  0  0  0  0  0  0  0  0  0  0  0
   62.1247   32.9814   50.6939 H   0  0  0  0  0  0  0  0  0  0  0  0
   60.7539   30.6645   47.2854 H   0  0  0  0  0  0  0  0  0  0  0  0
   60.9942   28.1351   47.8840 H   0  0  0  0  0  0  0  0  0  0  0  0
   59.2765   28.2935   48.4494 H   0  0  0  0  0  0  0  0  0  0  0  0
   59.9575   30.5453   45.5101 H   0  0  0  0  0  0  0  0  0  0  0  0
   58.8940   29.5660   43.3390 H   0  0  0  0  0  0  0  0  0  0  0  0
   57.8158   27.1585   42.5919 H   0  0  0  0  0  0  0  0  0  0  0  0
   57.2955   24.8461   43.4534 H   0  0  0  0  0  0  0  0  0  0  0  0
   57.8495   24.2278   45.8164 H   0  0  0  0  0  0  0  0  0  0  0  0
   58.9581   25.9046   47.3393 H   0  0  0  0  0  0  0  0  0  0  0  0
   60.6668   32.4897   49.4562 H   0  0  0  0  0  0  0  0  0  0  0  0
   59.9809   34.8918   50.3010 H   0  0  0  0  0  0  0  0  0  0  0  0
   58.3115   34.2870   49.9529 H   0  0  0  0  0  0  0  0  0  0  0  0
   61.0698   34.1061   52.5550 H   0  0  0  0  0  0  0  0  0  0  0  0
   60.3200   32.5790   54.5240 H   0  0  0  0  0  0  0  0  0  0  0  0
   58.3165   30.7438   54.9402 H   0  0  0  0  0  0  0  0  0  0  0  0
   56.3183   29.6779   53.8318 H   0  0  0  0  0  0  0  0  0  0  0  0
   55.6823   30.3212   51.4985 H   0  0  0  0  0  0  0  0  0  0  0  0
   57.0400   32.0380   50.2419 H   0  0  0  0  0  0  0  0  0  0  0  0
   60.4065   33.8212   44.8732 H   0  0  0  0  0  0  0  0  0  0  0  0
   60.3840   32.0820   46.8150 H   0  0  0  0  0  0  0  0  0  0  0  0
   58.8090   31.8030   46.2450 H   0  0  0  0  0  0  0  0  0  0  0  0
   57.5792   34.2458   45.8070 H   0  0  0  0  0  0  0  0  0  0  0  0
   58.3554   34.6032   44.2119 H   0  0  0  0  0  0  0  0  0  0  0  0
   58.4276   32.6314   42.3777 H   0  0  0  0  0  0  0  0  0  0  0  0
   56.0929   29.8413   44.5127 H   0  0  0  0  0  0  0  0  0  0  0  0
   63.3731   30.9331   47.6807 H   0  0  0  0  0  0  0  0  0  0  0  0
   62.2752   32.3657   47.5861 H   0  0  0  0  0  0  0  0  0  0  0  0
   64.8050   32.8510   47.7652 H   0  0  0  0  0  0  0  0  0  0  0  0
   63.7305   33.7036   48.9212 H   0  0  0  0  0  0  0  0  0  0  0  0
  1  2  1  0
  2  3  1  0
  3  4  1  0
  4  5  1  0
  5  6  1  0
  6  7  2  0
  6  8  1  0
  8  9  1  0
  9 10  1  0
 10 11  2  0
 11 12  1  0
 12 13  1  0
 13 14  2  0
 14 15  1  0
 15 16  2  0
 16 17  1  0
 17 18  2  0
  8 19  1  0
 19 20  1  0
 20 21  2  0
 20 22  1  0
 22 23  1  0
 23 24  1  0
 24 25  2  0
 25 26  1  0
 26 27  1  0
 27 28  2  0
 28 29  1  0
 29 30  2  0
 30 31  1  0
 31 32  2  0
 22 33  1  0
 33 34  1  0
 34 35  2  0
 34 36  1  0
 36 37  1  0
 36 38  1  0
 38 39  1  0
 39 40  2  0
 40 41  1  0
 41 42  1  0
 42 43  2  0
  5 44  1  0
 44 45  1  0
 45  2  1  0
 18 10  1  0
 32 24  1  0
 43 39  1  0
 18 13  1  0
 32 27  1  0
  1 46  1  0
  1 47  1  0
  1 48  1  0
  3 49  1  0
  3 50  1  0
  4 51  1  0
  4 52  1  0
  8 53  1  6
  9 54  1  0
  9 55  1  0
 11 56  1  0
 12 57  1  0
 14 58  1  0
 15 59  1  0
 16 60  1  0
 17 61  1  0
 22 62  1  1
 23 63  1  0
 23 64  1  0
 25 65  1  0
 26 66  1  0
 28 67  1  0
 29 68  1  0
 30 69  1  0
 31 70  1  0
 36 71  1  6
 37 72  1  0
 37 73  1  0
 38 74  1  0
 38 75  1  0
 40 76  1  0
 42 77  1  0
 44 78  1  0
 44 79  1  0
 45 80  1  0
 45 81  1  0
M  CHG  3  19  -1  33  -1  41  -1
M  END
>  <UniqueID>  (37) 
36

>  <SMILES>  (37) 
CN1CCN(C(=O)[C@@H](Cc2c[nH]c3ccccc23)[N-]C(=O)[C@H](Cc2c[nH]c3ccccc23)[N-]C(=O)C(N)Cc2c[n-]cn2)CC1

>  <Energy>  (37) 
175.19268497124844

>  <Genealogy>  (37) 
CN1CCN(C(=O)C(Cc2c[nH]c3ccccc23)[N-]C(=O)C(Cc2c[nH]c3ccccc23)[N-]C(=O)C(N)Cc2c[n-]cn2)CC1 (protonated)
CN1CCN(C(=O)[C@@H](Cc2c[nH]c3ccccc23)[N-]C(=O)[C@H](Cc2c[nH]c3ccccc23)[N-]C(=O)C(N)Cc2c[n-]cn2)CC1 (chirality)
CN1CCN(C(=O)[C@@H](Cc2c[nH]c3ccccc23)[N-]C(=O)[C@H](Cc2c[nH]c3ccccc23)[N-]C(=O)C(N)Cc2c[n-]cn2)CC1 (3D coordinates assigned)
CN1CCN(C(=O)[C@@H](Cc2c[nH]c3ccccc23)[N-]C(=O)[C@H](Cc2c[nH]c3ccccc23)[N-]C(=O)C(N)Cc2c[n-]cn2)CC1 (nonaromatic ring conformer: 175.19268497124844 kcal/mol)

>  <smiles>  (37) 
CN1CCN(C(=O)C(Cc2c[nH]c3ccccc23)NC(=O)C(Cc2c[nH]c3ccccc23)NC(=O)C(N)Cc2c[nH]cn2)CC1

>  <score_type>  (37) 
oracle

>  <origin>  (37) 
adg

>  <m_score__min__energy>  (37) 
-15.07

>  <m_primary>  (37) 
energy

$$$$
37:0
     RDKit          3D

 39 41  0  0  0  0  0  0  0  0999 V2000
   54.7690   27.4730   46.3510 H   0  0  0  0  0  0  0  0  0  0  0  0
   55.0780   26.7090   45.7620 O   0  0  0  0  0  0  0  0  0  0  0  0
   56.0050   25.7770   46.2260 C   0  0  0  0  0  0  0  0  0  0  0  0
   55.6130   24.8250   47.1140 N   0  0  0  0  0  0  0  0  0  0  0  0
   56.4910   23.9050   47.5880 C   0  0  0  0  0  0  0  0  0  0  0  0
   56.1050   23.0300   48.4050 O   0  0  0  0  0  0  0  0  0  0  0  0
   57.7880   23.9330   47.1880 N   0  0  0  0  0  0  0  0  0  0  0  0
   58.2300   24.8650   46.3030 C   0  0  0  0  0  0  0  0  0  0  0  0
   59.4490   24.8820   45.9820 O   0  0  0  0  0  0  0  0  0  0  0  0
   57.3320   25.8110   45.7750 C   0  0  0  0  0  0  0  0  0  0  0  0
   57.7660   26.8640   44.8290 C   0  0  0  0  0  0  0  0  0  0  0  0
   57.6638   26.6711   43.7509 H   0  0  0  0  0  0  0  0  0  0  0  0
   58.2800   28.0470   45.2210 C   0  0  0  0  0  0  0  0  0  0  0  0
   59.5070   28.2440   45.8400 C   0  0  0  0  0  0  0  0  0  0  0  0
   60.2304   27.4669   46.1277 H   0  0  0  0  0  0  0  0  0  0  0  0
   59.6420   29.6060   46.0240 C   0  0  0  0  0  0  0  0  0  0  0  0
   60.8210   30.2670   46.6690 C   0  0  0  0  0  0  0  0  0  0  0  0
   60.7201   30.2104   47.7629 H   0  0  0  0  0  0  0  0  0  0  0  0
   61.7437   29.7546   46.3589 H   0  0  0  0  0  0  0  0  0  0  0  0
   60.8652   31.3215   46.3589 H   0  0  0  0  0  0  0  0  0  0  0  0
   58.5540   30.2560   45.5530 N   0  0  0  0  0  0  0  0  0  0  0  0
   58.3530   31.6800   45.5790 C   0  0  0  0  0  0  0  0  0  0  0  0
   58.1120   32.3930   44.3920 C   0  0  0  0  0  0  0  0  0  0  0  0
   58.0740   31.7120   43.1700 O   0  0  0  0  0  0  0  0  0  0  0  0
   58.0550   32.3820   41.9160 C   0  0  0  0  0  0  0  0  0  0  0  0
   58.0242   33.4690   42.0815 H   0  0  0  0  0  0  0  0  0  0  0  0
   58.9608   32.1231   41.3482 H   0  0  0  0  0  0  0  0  0  0  0  0
   57.1653   32.0722   41.3482 H   0  0  0  0  0  0  0  0  0  0  0  0
   57.9290   33.7420   44.4410 N   0  0  0  0  0  0  0  0  0  0  0  0
   57.9740   34.4320   45.6110 C   0  0  0  0  0  0  0  0  0  0  0  0
   57.8173   35.5208   45.6133 H   0  0  0  0  0  0  0  0  0  0  0  0
   58.2190   33.7600   46.8100 C   0  0  0  0  0  0  0  0  0  0  0  0
   58.2610   34.3141   47.7593 H   0  0  0  0  0  0  0  0  0  0  0  0
   58.4100   32.3780   46.7910 C   0  0  0  0  0  0  0  0  0  0  0  0
   58.6054   31.8369   47.7286 H   0  0  0  0  0  0  0  0  0  0  0  0
   57.7130   29.3150   45.0550 C   0  0  0  0  0  0  0  0  0  0  0  0
   56.5100   29.5880   44.5270 C   0  0  0  0  0  0  0  0  0  0  0  0
   56.1681   30.6305   44.4471 H   0  0  0  0  0  0  0  0  0  0  0  0
   55.8657   28.7693   44.1740 H   0  0  0  0  0  0  0  0  0  0  0  0
  1  2  1  0
  2  3  1  0
  3  4  1  0
  4  5  1  0
  5  6  2  0
  5  7  1  0
  7  8  1  0
  8  9  2  0
  8 10  1  0
 10 11  1  0
 11 12  1  0
 11 13  2  0
 13 14  1  0
 14 15  1  0
 14 16  2  0
 16 17  1  0
 17 18  1  0
 17 19  1  0
 17 20  1  0
 16 21  1  0
 21 22  1  0
 22 23  2  0
 23 24  1  0
 24 25  1  0
 25 26  1  0
 25 27  1  0
 25 28  1  0
 23 29  1  0
 29 30  2  0
 30 31  1  0
 30 32  1  0
 32 33  1  0
 32 34  2  0
 34 35  1  0
 21 36  1  0
 36 37  2  0
 37 38  1  0
 37 39  1  0
 10  3  2  0
 36 13  1  0
 34 22  1  0
M  CHG  2   4  -1   7  -1
M  END
>  <UniqueID>  (38) 
37

>  <SMILES>  (38) 
C=c1/c(=C/c2c(O)[n-]c(=O)[n-]c2=O)cc(C)n1-c1cccnc1OC

>  <Energy>  (38) 
84.33791611466494

>  <Genealogy>  (38) 
C=c1c(=Cc2c(O)[n-]c(=O)[n-]c2=O)cc(C)n1-c1cccnc1OC (protonated)
C=c1/c(=C/c2c(O)[n-]c(=O)[n-]c2=O)cc(C)n1-c1cccnc1OC (cis-trans isomerization)
C=c1/c(=C/c2c(O)[n-]c(=O)[n-]c2=O)cc(C)n1-c1cccnc1OC (3D coordinates assigned)
C=c1/c(=C/c2c(O)[n-]c(=O)[n-]c2=O)cc(C)n1-c1cccnc1OC (optimized conformer: 84.33791611466494 kcal/mol)

>  <smiles>  (38) 
C=c1c(=Cc2c(O)[nH]c(=O)[nH]c2=O)cc(C)n1-c1cccnc1OC

>  <score_type>  (38) 
oracle

>  <origin>  (38) 
adg

>  <m_score__min__energy>  (38) 
-12.42

>  <m_primary>  (38) 
energy

$$$$
38:0
     RDKit          3D

 63 67  0  0  0  0  0  0  0  0999 V2000
   58.8850   34.9350   53.6020 C   0  0  0  0  0  0  0  0  0  0  0  0
   58.8230   33.4100   52.6840 S   0  0  0  0  0  0  0  0  0  0  0  0
   57.4570   33.2550   52.0800 O   0  0  0  0  0  0  0  0  0  0  0  0
   59.0850   32.2600   53.6140 O   0  0  0  0  0  0  0  0  0  0  0  0
   60.0410   33.4170   51.3780 C   0  0  0  0  0  0  0  0  0  0  0  0
   60.1740   32.0470   50.7770 C   0  0  0  0  0  0  0  0  0  0  0  0
   61.3230   31.2760   51.0210 C   0  0  0  0  0  0  0  0  0  0  0  0
   61.4110   29.9680   50.5360 C   0  0  0  0  0  0  0  0  0  0  0  0
   60.3460   29.4120   49.8180 C   0  0  0  0  0  0  0  0  0  0  0  0
   60.4130   28.0390   49.4110 N   0  0  0  0  0  0  0  0  0  0  0  0
   60.1580   27.6380   48.2010 C   0  0  0  0  0  0  0  0  0  0  0  0
   60.0860   26.3120   47.9070 N   0  0  0  0  0  0  0  0  0  0  0  0
   59.8610   25.8720   46.6420 C   0  0  0  0  0  0  0  0  0  0  0  0
   59.8250   24.5000   46.3580 O   0  0  0  0  0  0  0  0  0  0  0  0
   58.7030   23.8350   45.8380 C   0  0  0  0  0  0  0  0  0  0  0  0
   58.8170   22.9460   44.7560 C   0  0  0  0  0  0  0  0  0  0  0  0
   57.6890   22.3140   44.2360 C   0  0  0  0  0  0  0  0  0  0  0  0
   56.4390   22.5310   44.8160 C   0  0  0  0  0  0  0  0  0  0  0  0
   56.3070   23.3900   45.9210 C   0  0  0  0  0  0  0  0  0  0  0  0
   54.9470   23.6250   46.5220 C   0  0  0  0  0  0  0  0  0  0  0  0
   54.2410   24.7200   45.7850 C   0  0  0  0  0  0  0  0  0  0  0  0
   54.6140   26.0800   45.9970 N   0  0  0  0  0  0  0  0  0  0  0  0
   53.3300   24.4390   44.9620 O   0  0  0  0  0  0  0  0  0  0  0  0
   57.4480   24.0430   46.4280 C   0  0  0  0  0  0  0  0  0  0  0  0
   57.3400   24.8910   47.4810 F   0  0  0  0  0  0  0  0  0  0  0  0
   59.7010   26.8000   45.6180 C   0  0  0  0  0  0  0  0  0  0  0  0
   59.7570   28.1680   45.9290 C   0  0  0  0  0  0  0  0  0  0  0  0
   59.5690   29.1570   44.9510 O   0  0  0  0  0  0  0  0  0  0  0  0
   58.4830   30.0440   44.9170 C   0  0  0  0  0  0  0  0  0  0  0  0
   57.3060   29.6270   44.2900 C   0  0  0  0  0  0  0  0  0  0  0  0
   56.1940   30.4700   44.2690 C   0  0  0  0  0  0  0  0  0  0  0  0
   55.1310   30.0980   43.7090 O   0  0  0  0  0  0  0  0  0  0  0  0
   56.2550   31.6970   44.8490 N   0  0  0  0  0  0  0  0  0  0  0  0
   57.3880   32.1510   45.4490 C   0  0  0  0  0  0  0  0  0  0  0  0
   57.4130   33.4320   46.0090 C   0  0  0  0  0  0  0  0  0  0  0  0
   58.5840   33.9220   46.5940 C   0  0  0  0  0  0  0  0  0  0  0  0
   58.5940   35.1660   47.1340 F   0  0  0  0  0  0  0  0  0  0  0  0
   59.7420   33.1350   46.6120 C   0  0  0  0  0  0  0  0  0  0  0  0
   61.2200   33.7510   47.3300 Cl  0  0  0  0  0  0  0  0  0  0  0  0
   59.7290   31.8530   46.0510 C   0  0  0  0  0  0  0  0  0  0  0  0
   58.5480   31.3370   45.4840 C   0  0  0  0  0  0  0  0  0  0  0  0
   60.0020   28.5540   47.2080 N   0  0  0  0  0  0  0  0  0  0  0  0
   59.2060   30.1890   49.5480 C   0  0  0  0  0  0  0  0  0  0  0  0
   58.1860   29.6780   48.8180 F   0  0  0  0  0  0  0  0  0  0  0  0
   59.1190   31.4950   50.0360 C   0  0  0  0  0  0  0  0  0  0  0  0
   58.8760   34.7148   54.6797 H   0  0  0  0  0  0  0  0  0  0  0  0
   59.8060   35.4795   53.3466 H   0  0  0  0  0  0  0  0  0  0  0  0
   58.0112   35.5525   53.3466 H   0  0  0  0  0  0  0  0  0  0  0  0
   59.7305   34.1266   50.5969 H   0  0  0  0  0  0  0  0  0  0  0  0
   61.0122   33.7175   51.7982 H   0  0  0  0  0  0  0  0  0  0  0  0
   62.1572   31.7037   51.5964 H   0  0  0  0  0  0  0  0  0  0  0  0
   62.3189   29.3746   50.7190 H   0  0  0  0  0  0  0  0  0  0  0  0
   59.8051   22.7471   44.3155 H   0  0  0  0  0  0  0  0  0  0  0  0
   57.7843   21.6443   43.3686 H   0  0  0  0  0  0  0  0  0  0  0  0
   55.5513   22.0269   44.4063 H   0  0  0  0  0  0  0  0  0  0  0  0
   54.3548   22.7005   46.4546 H   0  0  0  0  0  0  0  0  0  0  0  0
   55.0648   23.9181   47.5757 H   0  0  0  0  0  0  0  0  0  0  0  0
   54.7860   26.7190   45.1910 H   0  0  0  0  0  0  0  0  0  0  0  0
   59.5335   26.4678   44.5828 H   0  0  0  0  0  0  0  0  0  0  0  0
   57.2560   28.6366   43.8141 H   0  0  0  0  0  0  0  0  0  0  0  0
   56.5077   34.0565   45.9891 H   0  0  0  0  0  0  0  0  0  0  0  0
   60.6460   31.2454   46.0530 H   0  0  0  0  0  0  0  0  0  0  0  0
   58.2178   32.0939   49.8379 H   0  0  0  0  0  0  0  0  0  0  0  0
  1  2  1  0
  2  3  2  0
  2  4  2  0
  2  5  1  0
  5  6  1  0
  6  7  2  0
  7  8  1  0
  8  9  2  0
  9 10  1  0
 10 11  2  3
 11 12  1  0
 12 13  2  0
 13 14  1  0
 14 15  1  0
 15 16  2  0
 16 17  1  0
 17 18  2  0
 18 19  1  0
 19 20  1  0
 20 21  1  0
 21 22  1  0
 21 23  2  0
 19 24  2  0
 24 25  1  0
 13 26  1  0
 26 27  2  0
 27 28  1  0
 28 29  1  0
 29 30  2  0
 30 31  1  0
 31 32  2  0
 31 33  1  0
 33 34  1  0
 34 35  2  0
 35 36  1  0
 36 37  1  0
 36 38  2  0
 38 39  1  0
 38 40  1  0
 40 41  2  0
 27 42  1  0
  9 43  1  0
 43 44  1  0
 43 45  2  0
 45  6  1  0
 42 11  1  0
 24 15  1  0
 41 29  1  0
 41 34  1  0
  1 46  1  0
  1 47  1  0
  1 48  1  0
  5 49  1  0
  5 50  1  0
  7 51  1  0
  8 52  1  0
 16 53  1  0
 17 54  1  0
 18 55  1  0
 20 56  1  0
 20 57  1  0
 22 58  1  0
 26 59  1  0
 30 60  1  0
 35 61  1  0
 40 62  1  0
 45 63  1  0
M  CHG  3  22  -1  33  -1  42  -1
M  END
>  <UniqueID>  (39) 
38

>  <SMILES>  (39) 
CS(=O)(=O)Cc1ccc(N=c2nc(Oc3cccc(CC([NH-])=O)c3F)cc(Oc3cc(=O)[n-]c4cc(F)c(Cl)cc34)[n-]2)c(F)c1

>  <Energy>  (39) 
82.44930545142176

>  <Genealogy>  (39) 
CS(=O)(=O)Cc1ccc(N=c2nc(Oc3cccc(CC([NH-])=O)c3F)cc(Oc3cc(=O)[n-]c4cc(F)c(Cl)cc34)[n-]2)c(F)c1 (protonated)
CS(=O)(=O)Cc1ccc(N=c2nc(Oc3cccc(CC([NH-])=O)c3F)cc(Oc3cc(=O)[n-]c4cc(F)c(Cl)cc34)[n-]2)c(F)c1 (3D coordinates assigned)
CS(=O)(=O)Cc1ccc(N=c2nc(Oc3cccc(CC([NH-])=O)c3F)cc(Oc3cc(=O)[n-]c4cc(F)c(Cl)cc34)[n-]2)c(F)c1 (optimized conformer: 82.44930545142176 kcal/mol)

>  <smiles>  (39) 
CS(=O)(=O)Cc1ccc(N=c2nc(Oc3cccc(CC(N)=O)c3F)cc(Oc3cc(=O)[nH]c4cc(F)c(Cl)cc34)[nH]2)c(F)c1

>  <score_type>  (39) 
oracle

>  <origin>  (39) 
adg

>  <m_score__min__energy>  (39) 
-15.050000000000001

>  <m_primary>  (39) 
energy

$$$$
39:0
     RDKit          3D

 30 31  0  0  0  0  0  0  0  0999 V2000
   56.9910   30.8780   42.8740 C   0  0  0  0  0  0  0  0  0  0  0  0
   56.5560   30.5710   44.2660 C   0  0  0  0  0  0  0  0  0  0  0  0
   55.3310   30.4070   44.5140 O   0  0  0  0  0  0  0  0  0  0  0  0
   57.5180   30.4170   45.2710 O   0  0  0  0  0  0  0  0  0  0  0  0
   58.3940   29.2960   45.3500 C   0  0  0  0  0  0  0  0  0  0  0  0
   57.6440   28.0810   45.7930 C   0  0  0  0  0  0  0  0  0  0  0  0
   56.3110   27.9270   45.6220 N   0  0  0  0  0  0  0  0  0  0  0  0
   55.8860   26.7160   46.0690 C   0  0  0  0  0  0  0  0  0  0  0  0
   54.5520   26.3380   45.9880 O   0  0  0  0  0  0  0  0  0  0  0  0
   56.8770   25.8970   46.6000 C   0  0  0  0  0  0  0  0  0  0  0  0
   56.7110   24.4920   47.0940 C   0  0  0  0  0  0  0  0  0  0  0  0
   56.9480   23.5150   45.9710 C   0  0  0  0  0  0  0  0  0  0  0  0
   56.8090   23.9410   44.6380 C   0  0  0  0  0  0  0  0  0  0  0  0
   56.9890   23.0400   43.5850 C   0  0  0  0  0  0  0  0  0  0  0  0
   57.3020   21.7060   43.8510 C   0  0  0  0  0  0  0  0  0  0  0  0
   57.4330   21.2680   45.1710 C   0  0  0  0  0  0  0  0  0  0  0  0
   57.2540   22.1640   46.2320 C   0  0  0  0  0  0  0  0  0  0  0  0
   57.3820   21.7030   47.5380 O   0  0  0  0  0  0  0  0  0  0  0  0
   58.3440   26.7160   46.4880 S   0  0  0  0  0  0  0  0  0  0  0  0
   57.8894   31.5121   42.9020 H   0  0  0  0  0  0  0  0  0  0  0  0
   57.2202   29.9405   42.3463 H   0  0  0  0  0  0  0  0  0  0  0  0
   56.1844   31.4081   42.3463 H   0  0  0  0  0  0  0  0  0  0  0  0
   58.8345   29.1093   44.3595 H   0  0  0  0  0  0  0  0  0  0  0  0
   59.1872   29.5128   46.0807 H   0  0  0  0  0  0  0  0  0  0  0  0
   57.4351   24.3021   47.9000 H   0  0  0  0  0  0  0  0  0  0  0  0
   55.6862   24.3629   47.4724 H   0  0  0  0  0  0  0  0  0  0  0  0
   56.5570   24.9899   44.4228 H   0  0  0  0  0  0  0  0  0  0  0  0
   56.8839   23.3826   42.5450 H   0  0  0  0  0  0  0  0  0  0  0  0
   57.4456   20.9991   43.0206 H   0  0  0  0  0  0  0  0  0  0  0  0
   57.6776   20.2156   45.3776 H   0  0  0  0  0  0  0  0  0  0  0  0
  1  2  1  0
  2  3  2  0
  2  4  1  0
  4  5  1  0
  5  6  1  0
  6  7  2  0
  7  8  1  0
  8  9  1  0
  8 10  2  0
 10 11  1  0
 11 12  1  0
 12 13  2  0
 13 14  1  0
 14 15  2  0
 15 16  1  0
 16 17  2  0
 17 18  1  0
 10 19  1  0
 19  6  1  0
 17 12  1  0
  1 20  1  0
  1 21  1  0
  1 22  1  0
  5 23  1  0
  5 24  1  0
 11 25  1  0
 11 26  1  0
 13 27  1  0
 14 28  1  0
 15 29  1  0
 16 30  1  0
M  CHG  2   9  -1  18  -1
M  END
>  <UniqueID>  (40) 
39

>  <SMILES>  (40) 
CC(=O)OCc1nc([O-])c(Cc2ccccc2[O-])s1

>  <Energy>  (40) 
54.89740767583198

>  <Genealogy>  (40) 
CC(=O)OCc1nc([O-])c(Cc2ccccc2[O-])s1 (protonated)
CC(=O)OCc1nc([O-])c(Cc2ccccc2[O-])s1 (3D coordinates assigned)
CC(=O)OCc1nc([O-])c(Cc2ccccc2[O-])s1 (optimized conformer: 54.89740767583198 kcal/mol)

>  <smiles>  (40) 
CC(=O)OCc1nc(O)c(Cc2ccccc2O)s1

>  <score_type>  (40) 
oracle

>  <origin>  (40) 
adg

>  <m_score__min__energy>  (40) 
-13.77

>  <m_primary>  (40) 
energy

$$$$
40:0
     RDKit          3D

 44 46  0  0  0  0  0  0  0  0999 V2000
   60.2662   36.1704   46.8774 H   0  0  0  0  0  0  0  0  0  0  0  0
   59.9810   35.2000   46.4450 C   0  0  0  0  0  0  0  0  0  0  0  0
   58.9160   34.9650   45.1640 S   0  0  0  0  0  0  0  0  0  0  0  0
   59.0600   33.2950   45.2040 C   0  0  0  0  0  0  0  0  0  0  0  0
   58.4370   32.5130   44.3690 N   0  0  0  0  0  0  0  0  0  0  0  0
   57.4920   31.4720   44.6570 C   0  0  0  0  0  0  0  0  0  0  0  0
   56.2800   31.7400   44.8720 O   0  0  0  0  0  0  0  0  0  0  0  0
   57.9260   30.0580   44.6220 C   0  0  0  0  0  0  0  0  0  0  0  0
   58.7880   29.4260   45.5100 C   0  0  0  0  0  0  0  0  0  0  0  0
   59.5630   30.0200   46.5620 N   0  0  0  0  0  0  0  0  0  0  0  0
   59.0020   30.5490   47.5420 O   0  0  0  0  0  0  0  0  0  0  0  0
   60.9310   30.1150   46.4490 O   0  0  0  0  0  0  0  0  0  0  0  0
   58.8210   28.1020   45.1010 C   0  0  0  0  0  0  0  0  0  0  0  0
   59.6240   26.9930   45.6980 C   0  0  0  0  0  0  0  0  0  0  0  0
   59.5780   27.0565   46.7952 H   0  0  0  0  0  0  0  0  0  0  0  0
   59.2152   26.0262   45.3692 H   0  0  0  0  0  0  0  0  0  0  0  0
   60.6701   27.0796   45.3692 H   0  0  0  0  0  0  0  0  0  0  0  0
   58.0210   27.9460   44.0290 N   0  0  0  0  0  0  0  0  0  0  0  0
   57.4830   29.1240   43.7450 N   0  0  0  0  0  0  0  0  0  0  0  0
   56.5380   29.3150   42.6500 C   0  0  0  0  0  0  0  0  0  0  0  0
   55.5376   29.5172   43.0601 H   0  0  0  0  0  0  0  0  0  0  0  0
   56.8599   30.1662   42.0321 H   0  0  0  0  0  0  0  0  0  0  0  0
   56.5040   28.4056   42.0321 H   0  0  0  0  0  0  0  0  0  0  0  0
   59.9190   32.8960   46.1730 N   0  0  0  0  0  0  0  0  0  0  0  0
   60.2050   31.9120   46.3600 H   0  0  0  0  0  0  0  0  0  0  0  0
   60.4400   33.9500   46.8640 C   0  0  0  0  0  0  0  0  0  0  0  0
   61.3780   33.7550   47.9900 C   0  0  0  0  0  0  0  0  0  0  0  0
   61.0340   33.8440   49.3270 C   0  0  0  0  0  0  0  0  0  0  0  0
   60.0350   34.0543   49.7366 H   0  0  0  0  0  0  0  0  0  0  0  0
   62.1910   33.6170   50.0470 C   0  0  0  0  0  0  0  0  0  0  0  0
   62.2830   33.6290   51.5420 C   0  0  0  0  0  0  0  0  0  0  0  0
   61.2791   33.4980   51.9722 H   0  0  0  0  0  0  0  0  0  0  0  0
   62.9349   32.8083   51.8758 H   0  0  0  0  0  0  0  0  0  0  0  0
   62.7025   34.5895   51.8758 H   0  0  0  0  0  0  0  0  0  0  0  0
   63.2320   33.4050   49.2080 N   0  0  0  0  0  0  0  0  0  0  0  0
   64.6080   33.0880   49.5910 C   0  0  0  0  0  0  0  0  0  0  0  0
   64.6883   33.0695   50.6879 H   0  0  0  0  0  0  0  0  0  0  0  0
   64.8835   32.1029   49.1865 H   0  0  0  0  0  0  0  0  0  0  0  0
   65.2868   33.8533   49.1865 H   0  0  0  0  0  0  0  0  0  0  0  0
   62.7360   33.4500   47.9490 C   0  0  0  0  0  0  0  0  0  0  0  0
   63.5470   33.1820   46.7130 C   0  0  0  0  0  0  0  0  0  0  0  0
   64.5550   32.8489   47.0010 H   0  0  0  0  0  0  0  0  0  0  0  0
   63.0581   32.3977   46.1166 H   0  0  0  0  0  0  0  0  0  0  0  0
   63.6217   34.1032   46.1166 H   0  0  0  0  0  0  0  0  0  0  0  0
  1  2  1  0
  2  3  1  0
  3  4  1  0
  4  5  2  0
  5  6  1  0
  6  7  2  0
  6  8  1  0
  8  9  2  0
  9 10  1  0
 10 11  2  0
 10 12  1  0
  9 13  1  0
 13 14  1  0
 14 15  1  0
 14 16  1  0
 14 17  1  0
 13 18  2  0
 18 19  1  0
 19 20  1  0
 20 21  1  0
 20 22  1  0
 20 23  1  0
  4 24  1  0
 24 25  1  0
 24 26  1  0
 26 27  1  0
 27 28  1  0
 28 29  1  0
 28 30  2  0
 30 31  1  0
 31 32  1  0
 31 33  1  0
 31 34  1  0
 30 35  1  0
 35 36  1  0
 36 37  1  0
 36 38  1  0
 36 39  1  0
 35 40  1  0
 40 41  1  0
 41 42  1  0
 41 43  1  0
 41 44  1  0
 26  2  2  0
 40 27  2  0
 19  8  1  0
M  CHG  2  10   1  12  -1
M  END
>  <UniqueID>  (41) 
40

>  <SMILES>  (41) 
Cc1nn(C)c(C(=O)/N=c2\[nH]c(-c3cc(C)n(C)c3C)cs2)c1[N+](=O)[O-]

>  <Energy>  (41) 
143.3455574542969

>  <Genealogy>  (41) 
Cc1nn(C)c(C(=O)/N=c2\[nH]c(-c3cc(C)n(C)c3C)cs2)c1[N+](=O)[O-] (cis-trans isomerization)
Cc1nn(C)c(C(=O)/N=c2\[nH]c(-c3cc(C)n(C)c3C)cs2)c1[N+](=O)[O-] (3D coordinates assigned)
Cc1nn(C)c(C(=O)/N=c2\[nH]c(-c3cc(C)n(C)c3C)cs2)c1[N+](=O)[O-] (optimized conformer: 143.3455574542969 kcal/mol)

>  <smiles>  (41) 
Cc1nn(C)c(C(=O)N=c2[nH]c(-c3cc(C)n(C)c3C)cs2)c1[N+](=O)[O-]

>  <score_type>  (41) 
oracle

>  <origin>  (41) 
adg

>  <m_score__min__energy>  (41) 
-8.3900000000000006

>  <m_primary>  (41) 
energy

$$$$
41:0
     RDKit          3D

 50 53  0  0  0  0  0  0  0  0999 V2000
   55.4150   29.1320   44.8810 O   0  0  0  0  0  0  0  0  0  0  0  0
   56.3860   29.7820   44.4030 C   0  0  0  0  0  0  0  0  0  0  0  0
   57.4930   29.0430   43.7280 C   0  0  0  0  0  0  0  0  0  0  0  0
   57.7980   27.4760   44.6160 S   0  0  0  0  0  0  0  0  0  0  0  0
   58.6860   28.2330   45.9730 C   0  0  0  0  0  0  0  0  0  0  0  0
   59.6740   29.1290   45.7190 N   0  0  0  0  0  0  0  0  0  0  0  0
   60.3860   29.6930   46.7270 C   0  0  0  0  0  0  0  0  0  0  0  0
   61.3130   30.5020   46.4550 O   0  0  0  0  0  0  0  0  0  0  0  0
   60.0940   29.3590   48.0590 C   0  0  0  0  0  0  0  0  0  0  0  0
   61.0180   30.0320   49.4030 S   0  0  0  0  0  0  0  0  0  0  0  0
   61.5180   28.9200   50.2850 O   0  0  0  0  0  0  0  0  0  0  0  0
   62.2080   30.7920   48.8890 O   0  0  0  0  0  0  0  0  0  0  0  0
   59.9780   31.1170   50.3200 C   0  0  0  0  0  0  0  0  0  0  0  0
   60.5410   32.0170   51.2360 C   0  0  0  0  0  0  0  0  0  0  0  0
   59.7200   32.8950   51.9510 C   0  0  0  0  0  0  0  0  0  0  0  0
   58.3370   32.8810   51.7500 C   0  0  0  0  0  0  0  0  0  0  0  0
   57.7720   31.9920   50.8320 C   0  0  0  0  0  0  0  0  0  0  0  0
   58.5900   31.1120   50.1160 C   0  0  0  0  0  0  0  0  0  0  0  0
   59.0740   28.4310   48.2950 C   0  0  0  0  0  0  0  0  0  0  0  0
   58.3940   27.8870   47.2530 N   0  0  0  0  0  0  0  0  0  0  0  0
   56.4440   31.2150   44.4910 N   0  0  0  0  0  0  0  0  0  0  0  0
   57.2530   31.9320   45.2150 C   0  0  0  0  0  0  0  0  0  0  0  0
   57.7860   31.4630   46.3640 N   0  0  0  0  0  0  0  0  0  0  0  0
   58.5990   32.3770   46.9570 C   0  0  0  0  0  0  0  0  0  0  0  0
   58.7260   33.5790   46.2670 C   0  0  0  0  0  0  0  0  0  0  0  0
   59.5060   34.7740   46.7170 C   0  0  0  0  0  0  0  0  0  0  0  0
   60.7640   34.3380   47.4170 C   0  0  0  0  0  0  0  0  0  0  0  0
   60.9090   34.5320   48.8000 C   0  0  0  0  0  0  0  0  0  0  0  0
   62.0930   34.1600   49.4440 C   0  0  0  0  0  0  0  0  0  0  0  0
   63.1430   33.5990   48.7110 C   0  0  0  0  0  0  0  0  0  0  0  0
   63.0170   33.4170   47.3290 C   0  0  0  0  0  0  0  0  0  0  0  0
   64.0740   32.8690   46.6080 O   0  0  0  0  0  0  0  0  0  0  0  0
   61.8300   33.7900   46.6830 C   0  0  0  0  0  0  0  0  0  0  0  0
   57.7750   33.5060   44.8810 S   0  0  0  0  0  0  0  0  0  0  0  0
   57.2102   28.8270   42.6872 H   0  0  0  0  0  0  0  0  0  0  0  0
   58.4060   29.6564   43.7366 H   0  0  0  0  0  0  0  0  0  0  0  0
   61.6297   32.0325   51.3925 H   0  0  0  0  0  0  0  0  0  0  0  0
   60.1633   33.5973   52.6723 H   0  0  0  0  0  0  0  0  0  0  0  0
   57.6926   33.5706   52.3151 H   0  0  0  0  0  0  0  0  0  0  0  0
   56.6837   31.9842   50.6724 H   0  0  0  0  0  0  0  0  0  0  0  0
   58.1442   30.4146   49.3915 H   0  0  0  0  0  0  0  0  0  0  0  0
   58.8225   28.1416   49.3260 H   0  0  0  0  0  0  0  0  0  0  0  0
   59.1161   32.1818   47.9080 H   0  0  0  0  0  0  0  0  0  0  0  0
   59.7702   35.3863   45.8422 H   0  0  0  0  0  0  0  0  0  0  0  0
   58.8918   35.3623   47.4146 H   0  0  0  0  0  0  0  0  0  0  0  0
   60.0875   34.9786   49.3794 H   0  0  0  0  0  0  0  0  0  0  0  0
   62.1985   34.3089   50.5288 H   0  0  0  0  0  0  0  0  0  0  0  0
   64.0703   33.3000   49.2216 H   0  0  0  0  0  0  0  0  0  0  0  0
   64.8690   32.4500   47.0780 H   0  0  0  0  0  0  0  0  0  0  0  0
   61.7324   33.6531   45.5959 H   0  0  0  0  0  0  0  0  0  0  0  0
  1  2  2  0
  2  3  1  0
  3  4  1  0
  4  5  1  0
  5  6  2  0
  6  7  1  0
  7  8  2  0
  7  9  1  0
  9 10  1  0
 10 11  2  0
 10 12  2  0
 10 13  1  0
 13 14  2  0
 14 15  1  0
 15 16  2  0
 16 17  1  0
 17 18  2  0
  9 19  2  0
 19 20  1  0
  2 21  1  0
 21 22  2  3
 22 23  1  0
 23 24  1  0
 24 25  2  0
 25 26  1  0
 26 27  1  0
 27 28  2  0
 28 29  1  0
 29 30  2  0
 30 31  1  0
 31 32  1  0
 31 33  2  0
 25 34  1  0
 20  5  1  0
 34 22  1  0
 18 13  1  0
 33 27  1  0
  3 35  1  0
  3 36  1  0
 14 37  1  0
 15 38  1  0
 16 39  1  0
 17 40  1  0
 18 41  1  0
 19 42  1  0
 24 43  1  0
 26 44  1  0
 26 45  1  0
 28 46  1  0
 29 47  1  0
 30 48  1  0
 32 49  1  0
 33 50  1  0
M  CHG  2  20  -1  23  -1
M  END
>  <UniqueID>  (42) 
41

>  <SMILES>  (42) 
O=C(CSc1nc(=O)c(S(=O)(=O)c2ccccc2)c[n-]1)N=c1[n-]cc(Cc2cccc(O)c2)s1

>  <Energy>  (42) 
86.93486552578075

>  <Genealogy>  (42) 
O=C(CSc1nc(=O)c(S(=O)(=O)c2ccccc2)c[n-]1)N=c1[n-]cc(Cc2cccc(O)c2)s1 (protonated)
O=C(CSc1nc(=O)c(S(=O)(=O)c2ccccc2)c[n-]1)N=c1[n-]cc(Cc2cccc(O)c2)s1 (3D coordinates assigned)
O=C(CSc1nc(=O)c(S(=O)(=O)c2ccccc2)c[n-]1)N=c1[n-]cc(Cc2cccc(O)c2)s1 (optimized conformer: 86.93486552578075 kcal/mol)

>  <smiles>  (42) 
O=C(CSc1nc(=O)c(S(=O)(=O)c2ccccc2)c[nH]1)N=c1[nH]cc(Cc2cccc(O)c2)s1

>  <score_type>  (42) 
oracle

>  <origin>  (42) 
adg

>  <m_score__min__energy>  (42) 
-12.26

>  <m_primary>  (42) 
energy

$$$$
42:0
     RDKit          3D

 40 42  0  0  0  0  0  0  0  0999 V2000
   59.1630   29.7710   44.6410 C   0  0  0  0  0  0  0  0  0  0  0  0
   59.1490   29.2610   45.8830 C   0  0  0  0  0  0  0  0  0  0  0  0
   58.5160   28.0840   46.3150 C   0  0  0  0  0  0  0  0  0  0  0  0
   57.9440   27.0820   45.6190 C   0  0  0  0  0  0  0  0  0  0  0  0
   57.2540   25.9210   46.2020 C   0  0  0  0  0  0  0  0  0  0  0  0
   57.8580   24.8740   46.7900 N   0  0  0  0  0  0  0  0  0  0  0  0
   56.8490   24.1440   47.3030 C   0  0  0  0  0  0  0  0  0  0  0  0
   57.0300   23.0680   47.9310 O   0  0  0  0  0  0  0  0  0  0  0  0
   55.6240   24.6750   47.0990 N   0  0  0  0  0  0  0  0  0  0  0  0
   55.8990   25.8040   46.4160 C   0  0  0  0  0  0  0  0  0  0  0  0
   54.9320   26.7120   46.0040 O   0  0  0  0  0  0  0  0  0  0  0  0
   58.5780   28.0950   47.6990 C   0  0  0  0  0  0  0  0  0  0  0  0
   59.2980   29.2160   48.0590 C   0  0  0  0  0  0  0  0  0  0  0  0
   59.6010   29.6170   49.4710 C   0  0  0  0  0  0  0  0  0  0  0  0
   59.6350   29.9270   46.9610 N   0  0  0  0  0  0  0  0  0  0  0  0
   60.3560   31.1730   46.9540 C   0  0  0  0  0  0  0  0  0  0  0  0
   61.7440   31.1480   47.1420 C   0  0  0  0  0  0  0  0  0  0  0  0
   62.4720   32.3350   47.1910 C   0  0  0  0  0  0  0  0  0  0  0  0
   61.8210   33.5590   47.0500 C   0  0  0  0  0  0  0  0  0  0  0  0
   60.4360   33.6090   46.8540 C   0  0  0  0  0  0  0  0  0  0  0  0
   59.6480   35.3390   46.5810 Br  0  0  0  0  0  0  0  0  0  0  0  0
   59.6850   32.4120   46.8030 C   0  0  0  0  0  0  0  0  0  0  0  0
   58.2220   32.4450   46.5780 C   0  0  0  0  0  0  0  0  0  0  0  0
   57.4400   32.6500   47.5470 O   0  0  0  0  0  0  0  0  0  0  0  0
   57.7120   32.2770   45.2870 O   0  0  0  0  0  0  0  0  0  0  0  0
   58.3470   32.8170   44.1350 C   0  0  0  0  0  0  0  0  0  0  0  0
   59.7017   30.7082   44.4373 H   0  0  0  0  0  0  0  0  0  0  0  0
   58.6358   29.2516   43.8272 H   0  0  0  0  0  0  0  0  0  0  0  0
   57.9976   27.1368   44.5217 H   0  0  0  0  0  0  0  0  0  0  0  0
   58.8830   24.6850   46.8670 H   0  0  0  0  0  0  0  0  0  0  0  0
   58.1376   27.3523   48.3805 H   0  0  0  0  0  0  0  0  0  0  0  0
   59.0861   28.9356   50.1642 H   0  0  0  0  0  0  0  0  0  0  0  0
   60.6862   29.5634   49.6425 H   0  0  0  0  0  0  0  0  0  0  0  0
   59.2531   30.6463   49.6425 H   0  0  0  0  0  0  0  0  0  0  0  0
   62.2629   30.1843   47.2517 H   0  0  0  0  0  0  0  0  0  0  0  0
   63.5613   32.3059   47.3411 H   0  0  0  0  0  0  0  0  0  0  0  0
   62.4001   34.4932   47.0931 H   0  0  0  0  0  0  0  0  0  0  0  0
   59.1508   33.5006   44.4459 H   0  0  0  0  0  0  0  0  0  0  0  0
   58.7726   31.9999   43.5340 H   0  0  0  0  0  0  0  0  0  0  0  0
   57.6089   33.3683   43.5340 H   0  0  0  0  0  0  0  0  0  0  0  0
  1  2  2  0
  2  3  1  0
  3  4  2  3
  4  5  1  0
  5  6  1  0
  6  7  1  0
  7  8  2  0
  7  9  1  0
  9 10  1  0
 10 11  1  0
  3 12  1  0
 12 13  2  0
 13 14  1  0
 13 15  1  0
 15 16  1  0
 16 17  2  0
 17 18  1  0
 18 19  2  0
 19 20  1  0
 20 21  1  0
 20 22  2  0
 22 23  1  0
 23 24  2  0
 23 25  1  0
 25 26  1  0
 15  2  1  0
 22 16  1  0
 10  5  2  0
  1 27  1  0
  1 28  1  0
  4 29  1  0
  6 30  1  0
 12 31  1  0
 14 32  1  0
 14 33  1  0
 14 34  1  0
 17 35  1  0
 18 36  1  0
 19 37  1  0
 26 38  1  0
 26 39  1  0
 26 40  1  0
M  CHG  2   9  -1  11  -1
M  END
>  <UniqueID>  (43) 
42

>  <SMILES>  (43) 
C=c1c(=Cc2[nH]c(=O)[n-]c2[O-])cc(C)n1-c1cccc(Br)c1C(=O)OC

>  <Energy>  (43) 
121.98990959844393

>  <Genealogy>  (43) 
C=c1c(=Cc2[nH]c(=O)[n-]c2[O-])cc(C)n1-c1cccc(Br)c1C(=O)OC (protonated)
C=c1c(=Cc2[nH]c(=O)[n-]c2[O-])cc(C)n1-c1cccc(Br)c1C(=O)OC (3D coordinates assigned)
C=c1c(=Cc2[nH]c(=O)[n-]c2[O-])cc(C)n1-c1cccc(Br)c1C(=O)OC (optimized conformer: 121.98990959844393 kcal/mol)

>  <smiles>  (43) 
C=c1c(=Cc2[nH]c(=O)[nH]c2O)cc(C)n1-c1cccc(Br)c1C(=O)OC

>  <score_type>  (43) 
oracle

>  <origin>  (43) 
adg

>  <m_score__min__energy>  (43) 
-13.98

>  <m_primary>  (43) 
energy

$$$$
43:0
     RDKit          3D

 47 49  0  0  0  0  0  0  0  0999 V2000
   62.0362   26.1495   47.0788 H   0  0  0  0  0  0  0  0  0  0  0  0
   61.0910   26.7030   47.1800 C   0  0  0  0  0  0  0  0  0  0  0  0
   60.5980   27.0300   48.5290 C   0  0  0  0  0  0  0  0  0  0  0  0
   61.1160   26.4640   49.5300 O   0  0  0  0  0  0  0  0  0  0  0  0
   59.5330   27.9720   48.7040 N   0  0  0  0  0  0  0  0  0  0  0  0
   59.6410   29.3280   49.7800 S   0  0  0  0  0  0  0  0  0  0  0  0
   58.2610   29.8760   50.0220 O   0  0  0  0  0  0  0  0  0  0  0  0
   60.2590   28.8870   51.0780 O   0  0  0  0  0  0  0  0  0  0  0  0
   60.6410   30.5840   49.0570 C   0  0  0  0  0  0  0  0  0  0  0  0
   61.0380   30.4990   47.7130 C   0  0  0  0  0  0  0  0  0  0  0  0
   60.7291   29.6373   47.1031 H   0  0  0  0  0  0  0  0  0  0  0  0
   61.8250   31.5070   47.1480 C   0  0  0  0  0  0  0  0  0  0  0  0
   62.1376   31.4356   46.0958 H   0  0  0  0  0  0  0  0  0  0  0  0
   62.2150   32.6060   47.9200 C   0  0  0  0  0  0  0  0  0  0  0  0
   62.8283   33.4015   47.4717 H   0  0  0  0  0  0  0  0  0  0  0  0
   61.8270   32.6960   49.2610 C   0  0  0  0  0  0  0  0  0  0  0  0
   62.1388   33.5586   49.8681 H   0  0  0  0  0  0  0  0  0  0  0  0
   61.0410   31.6860   49.8290 C   0  0  0  0  0  0  0  0  0  0  0  0
   60.7360   31.7563   50.8835 H   0  0  0  0  0  0  0  0  0  0  0  0
   60.4270   27.0570   46.0740 C   0  0  0  0  0  0  0  0  0  0  0  0
   60.9956   27.4318   45.2102 H   0  0  0  0  0  0  0  0  0  0  0  0
   58.9590   26.9620   45.9730 C   0  0  0  0  0  0  0  0  0  0  0  0
   58.3570   25.7690   46.3990 C   0  0  0  0  0  0  0  0  0  0  0  0
   58.9866   24.9347   46.7418 H   0  0  0  0  0  0  0  0  0  0  0  0
   56.9680   25.6280   46.3930 C   0  0  0  0  0  0  0  0  0  0  0  0
   56.5110   24.6811   46.7163 H   0  0  0  0  0  0  0  0  0  0  0  0
   56.1590   26.6850   45.9780 C   0  0  0  0  0  0  0  0  0  0  0  0
   54.7750   26.5500   46.0000 O   0  0  0  0  0  0  0  0  0  0  0  0
   56.7390   27.8840   45.5590 C   0  0  0  0  0  0  0  0  0  0  0  0
   56.0952   28.7125   45.2287 H   0  0  0  0  0  0  0  0  0  0  0  0
   58.1400   28.0460   45.5540 C   0  0  0  0  0  0  0  0  0  0  0  0
   58.7040   29.4120   45.2270 C   0  0  0  0  0  0  0  0  0  0  0  0
   59.0690   29.4159   44.1893 H   0  0  0  0  0  0  0  0  0  0  0  0
   59.5321   29.6336   45.9163 H   0  0  0  0  0  0  0  0  0  0  0  0
   57.6430   30.4590   45.3830 C   0  0  0  0  0  0  0  0  0  0  0  0
   56.6640   30.4820   44.5870 O   0  0  0  0  0  0  0  0  0  0  0  0
   57.7700   31.4560   46.4070 N   0  0  0  0  0  0  0  0  0  0  0  0
   58.3400   32.6290   46.3240 C   0  0  0  0  0  0  0  0  0  0  0  0
   58.6570   33.0930   45.0810 N   0  0  0  0  0  0  0  0  0  0  0  0
   59.2500   34.3010   44.8780 C   0  0  0  0  0  0  0  0  0  0  0  0
   59.4802   34.6357   43.8557 H   0  0  0  0  0  0  0  0  0  0  0  0
   59.5660   35.1150   45.9660 C   0  0  0  0  0  0  0  0  0  0  0  0
   60.0308   36.0993   45.8074 H   0  0  0  0  0  0  0  0  0  0  0  0
   59.2860   34.6670   47.2580 C   0  0  0  0  0  0  0  0  0  0  0  0
   59.5419   35.2957   48.1236 H   0  0  0  0  0  0  0  0  0  0  0  0
   58.6810   33.4210   47.4560 C   0  0  0  0  0  0  0  0  0  0  0  0
   58.4770   32.9840   48.7640 O   0  0  0  0  0  0  0  0  0  0  0  0
  1  2  1  0
  2  3  1  0
  3  4  2  0
  3  5  1  0
  5  6  1  0
  6  7  2  0
  6  8  2  0
  6  9  1  0
  9 10  2  0
 10 11  1  0
 10 12  1  0
 12 13  1  0
 12 14  2  0
 14 15  1  0
 14 16  1  0
 16 17  1  0
 16 18  2  0
 18 19  1  0
  2 20  2  0
 20 21  1  0
 20 22  1  0
 22 23  2  0
 23 24  1  0
 23 25  1  0
 25 26  1  0
 25 27  2  0
 27 28  1  0
 27 29  1  0
 29 30  1  0
 29 31  2  0
 31 32  1  0
 32 33  1  0
 32 34  1  0
 32 35  1  0
 35 36  2  0
 35 37  1  0
 37 38  2  3
 38 39  1  0
 39 40  1  0
 40 41  1  0
 40 42  2  0
 42 43  1  0
 42 44  1  0
 44 45  1  0
 44 46  2  0
 46 47  1  0
 18  9  1  0
 31 22  1  0
 46 38  1  0
M  CHG  4   5  -1  28  -1  39  -1  47  -1
M  END
>  <UniqueID>  (44) 
43

>  <SMILES>  (44) 
O=C(Cc1cc([O-])ccc1/C=C/C(=O)[N-]S(=O)(=O)c1ccccc1)N=c1[n-]cccc1[O-]

>  <Energy>  (44) 
64.89129943717535

>  <Genealogy>  (44) 
O=C(Cc1cc([O-])ccc1C=CC(=O)[N-]S(=O)(=O)c1ccccc1)N=c1[n-]cccc1[O-] (protonated)
O=C(Cc1cc([O-])ccc1/C=C/C(=O)[N-]S(=O)(=O)c1ccccc1)N=c1[n-]cccc1[O-] (cis-trans isomerization)
O=C(Cc1cc([O-])ccc1/C=C/C(=O)[N-]S(=O)(=O)c1ccccc1)N=c1[n-]cccc1[O-] (3D coordinates assigned)
O=C(Cc1cc([O-])ccc1/C=C/C(=O)[N-]S(=O)(=O)c1ccccc1)N=c1[n-]cccc1[O-] (optimized conformer: 64.89129943717535 kcal/mol)

>  <smiles>  (44) 
O=C(Cc1cc(O)ccc1C=CC(=O)NS(=O)(=O)c1ccccc1)N=c1[nH]cccc1O

>  <score_type>  (44) 
oracle

>  <origin>  (44) 
adg

>  <m_score__min__energy>  (44) 
-18.210000000000001

>  <m_primary>  (44) 
energy

$$$$
44:0
     RDKit          3D

 44 46  0  0  0  0  0  0  0  0999 V2000
   51.8780   22.8800   50.7990 C   0  0  0  0  0  0  0  0  0  0  0  0
   52.1730   22.5800   49.4390 O   0  0  0  0  0  0  0  0  0  0  0  0
   53.4630   22.5850   48.8870 C   0  0  0  0  0  0  0  0  0  0  0  0
   54.5300   22.1680   49.6890 C   0  0  0  0  0  0  0  0  0  0  0  0
   55.8320   22.1570   49.1870 C   0  0  0  0  0  0  0  0  0  0  0  0
   56.0860   22.5630   47.8740 C   0  0  0  0  0  0  0  0  0  0  0  0
   57.3930   22.5440   47.4000 O   0  0  0  0  0  0  0  0  0  0  0  0
   55.0250   22.9780   47.0470 C   0  0  0  0  0  0  0  0  0  0  0  0
   55.2770   23.4570   45.6390 C   0  0  0  0  0  0  0  0  0  0  0  0
   56.1340   24.6430   45.6520 N   0  0  0  0  0  0  0  0  0  0  0  0
   57.4810   24.6750   45.5610 C   0  0  0  0  0  0  0  0  0  0  0  0
   58.2740   23.5440   45.3840 O   0  0  0  0  0  0  0  0  0  0  0  0
   57.9600   25.9700   45.6650 C   0  0  0  0  0  0  0  0  0  0  0  0
   56.8330   26.7620   45.8300 C   0  0  0  0  0  0  0  0  0  0  0  0
   56.7660   28.1830   46.0020 N   0  0  0  0  0  0  0  0  0  0  0  0
   56.3790   29.1520   45.0200 C   0  0  0  0  0  0  0  0  0  0  0  0
   55.1740   29.4890   44.8780 O   0  0  0  0  0  0  0  0  0  0  0  0
   57.4330   29.8170   44.1940 C   0  0  0  0  0  0  0  0  0  0  0  0
   57.7740   31.1590   44.7780 C   0  0  0  0  0  0  0  0  0  0  0  0
   58.1760   31.2670   46.1200 C   0  0  0  0  0  0  0  0  0  0  0  0
   58.5270   32.5120   46.6510 C   0  0  0  0  0  0  0  0  0  0  0  0
   58.4870   33.6550   45.8470 C   0  0  0  0  0  0  0  0  0  0  0  0
   58.8360   34.8910   46.3780 O   0  0  0  0  0  0  0  0  0  0  0  0
   58.0990   33.5530   44.5080 C   0  0  0  0  0  0  0  0  0  0  0  0
   57.7490   32.3100   43.9710 C   0  0  0  0  0  0  0  0  0  0  0  0
   55.7430   25.9210   45.8220 C   0  0  0  0  0  0  0  0  0  0  0  0
   54.4200   26.3230   45.9680 O   0  0  0  0  0  0  0  0  0  0  0  0
   53.7160   22.9920   47.5630 C   0  0  0  0  0  0  0  0  0  0  0  0
   52.4967   22.2508   51.4558 H   0  0  0  0  0  0  0  0  0  0  0  0
   52.0951   23.9402   50.9960 H   0  0  0  0  0  0  0  0  0  0  0  0
   50.8143   22.6808   50.9960 H   0  0  0  0  0  0  0  0  0  0  0  0
   54.3415   21.8461   50.7238 H   0  0  0  0  0  0  0  0  0  0  0  0
   56.6628   21.8271   49.8281 H   0  0  0  0  0  0  0  0  0  0  0  0
   55.7716   22.6581   45.0669 H   0  0  0  0  0  0  0  0  0  0  0  0
   54.3155   23.7154   45.1714 H   0  0  0  0  0  0  0  0  0  0  0  0
   58.1640   22.7330   45.9820 H   0  0  0  0  0  0  0  0  0  0  0  0
   59.0086   26.2999   45.6253 H   0  0  0  0  0  0  0  0  0  0  0  0
   58.3346   29.1870   44.1782 H   0  0  0  0  0  0  0  0  0  0  0  0
   57.0555   29.9545   43.1700 H   0  0  0  0  0  0  0  0  0  0  0  0
   58.2147   30.3695   46.7548 H   0  0  0  0  0  0  0  0  0  0  0  0
   58.8353   32.5923   47.7038 H   0  0  0  0  0  0  0  0  0  0  0  0
   58.0689   34.4523   43.8753 H   0  0  0  0  0  0  0  0  0  0  0  0
   57.4533   32.2327   42.9143 H   0  0  0  0  0  0  0  0  0  0  0  0
   52.8827   23.3239   46.9262 H   0  0  0  0  0  0  0  0  0  0  0  0
  1  2  1  0
  2  3  1  0
  3  4  2  0
  4  5  1  0
  5  6  2  0
  6  7  1  0
  6  8  1  0
  8  9  1  0
  9 10  1  0
 10 11  1  0
 11 12  1  0
 11 13  2  0
 13 14  1  0
 14 15  1  0
 15 16  1  0
 16 17  2  0
 16 18  1  0
 18 19  1  0
 19 20  2  0
 20 21  1  0
 21 22  2  0
 22 23  1  0
 22 24  1  0
 24 25  2  0
 14 26  2  0
 26 27  1  0
  8 28  2  0
 28  3  1  0
 26 10  1  0
 25 19  1  0
  1 29  1  0
  1 30  1  0
  1 31  1  0
  4 32  1  0
  5 33  1  0
  9 34  1  0
  9 35  1  0
 12 36  1  0
 13 37  1  0
 18 38  1  0
 18 39  1  0
 20 40  1  0
 21 41  1  0
 24 42  1  0
 25 43  1  0
 28 44  1  0
M  CHG  4   7  -1  15  -1  23  -1  27  -1
M  END
>  <UniqueID>  (45) 
44

>  <SMILES>  (45) 
COc1ccc([O-])c(Cn2c(O)cc([N-]C(=O)Cc3ccc([O-])cc3)c2[O-])c1

>  <Energy>  (45) 
73.37612900058723

>  <Genealogy>  (45) 
COc1ccc([O-])c(Cn2c(O)cc([N-]C(=O)Cc3ccc([O-])cc3)c2[O-])c1 (protonated)
COc1ccc([O-])c(Cn2c(O)cc([N-]C(=O)Cc3ccc([O-])cc3)c2[O-])c1 (3D coordinates assigned)
COc1ccc([O-])c(Cn2c(O)cc([N-]C(=O)Cc3ccc([O-])cc3)c2[O-])c1 (optimized conformer: 73.37612900058723 kcal/mol)

>  <smiles>  (45) 
COc1ccc(O)c(Cn2c(O)cc(NC(=O)Cc3ccc(O)cc3)c2O)c1

>  <score_type>  (45) 
oracle

>  <origin>  (45) 
adg

>  <m_score__min__energy>  (45) 
-16.300000000000001

>  <m_primary>  (45) 
energy

$$$$
45:0
     RDKit          3D

 49 51  0  0  0  0  0  0  0  0999 V2000
   60.1020   31.0500   45.3260 H   0  0  0  0  0  0  0  0  0  0  0  0
   60.0710   30.0350   45.3590 O   0  0  0  0  0  0  0  0  0  0  0  0
   58.8580   29.3640   45.4410 C   0  0  0  0  0  0  0  0  0  0  0  0
   58.7470   28.1410   46.0230 N   0  0  0  0  0  0  0  0  0  0  0  0
   57.4750   27.6890   45.9890 C   0  0  0  0  0  0  0  0  0  0  0  0
   57.1290   26.5610   46.5380 N   0  0  0  0  0  0  0  0  0  0  0  0
   56.6240   25.4020   45.8590 C   0  0  0  0  0  0  0  0  0  0  0  0
   57.4670   24.3320   45.5080 C   0  0  0  0  0  0  0  0  0  0  0  0
   58.5438   24.3902   45.7253 H   0  0  0  0  0  0  0  0  0  0  0  0
   56.9430   23.1920   44.8830 C   0  0  0  0  0  0  0  0  0  0  0  0
   57.6108   22.3665   44.5956 H   0  0  0  0  0  0  0  0  0  0  0  0
   55.5730   23.1040   44.6250 C   0  0  0  0  0  0  0  0  0  0  0  0
   55.1625   22.2126   44.1281 H   0  0  0  0  0  0  0  0  0  0  0  0
   54.7240   24.1500   44.9990 C   0  0  0  0  0  0  0  0  0  0  0  0
   53.6440   24.0757   44.8041 H   0  0  0  0  0  0  0  0  0  0  0  0
   55.2440   25.2920   45.6210 C   0  0  0  0  0  0  0  0  0  0  0  0
   54.3880   26.3220   45.9920 O   0  0  0  0  0  0  0  0  0  0  0  0
   56.4320   28.8000   45.2540 S   0  0  0  0  0  0  0  0  0  0  0  0
   57.6740   29.8920   44.9470 C   0  0  0  0  0  0  0  0  0  0  0  0
   57.4740   31.4650   44.1930 S   0  0  0  0  0  0  0  0  0  0  0  0
   58.8300   32.0560   43.9340 O   0  0  0  0  0  0  0  0  0  0  0  0
   56.7560   31.3090   42.8820 O   0  0  0  0  0  0  0  0  0  0  0  0
   56.5750   32.5270   45.2380 N   0  0  0  0  0  0  0  0  0  0  0  0
   57.4510   33.2030   46.1980 C   0  0  0  0  0  0  0  0  0  0  0  0
   56.8422   33.8355   46.8608 H   0  0  0  0  0  0  0  0  0  0  0  0
   58.1754   33.8200   45.6461 H   0  0  0  0  0  0  0  0  0  0  0  0
   58.2140   32.1770   47.0410 C   0  0  0  0  0  0  0  0  0  0  0  0
   59.1555   31.9201   46.5335 H   0  0  0  0  0  0  0  0  0  0  0  0
   57.5893   31.2793   47.1594 H   0  0  0  0  0  0  0  0  0  0  0  0
   58.5230   32.7380   48.4040 C   0  0  0  0  0  0  0  0  0  0  0  0
   57.8340   32.3670   49.3900 O   0  0  0  0  0  0  0  0  0  0  0  0
   59.6120   33.6420   48.6260 N   0  0  0  0  0  0  0  0  0  0  0  0
   60.9430   33.4690   48.1180 C   0  0  0  0  0  0  0  0  0  0  0  0
   61.9190   32.7590   48.8600 C   0  0  0  0  0  0  0  0  0  0  0  0
   61.6020   32.1410   50.1950 C   0  0  0  0  0  0  0  0  0  0  0  0
   61.9447   32.8090   50.9989 H   0  0  0  0  0  0  0  0  0  0  0  0
   60.5157   31.9910   50.2809 H   0  0  0  0  0  0  0  0  0  0  0  0
   62.1140   31.1712   50.2809 H   0  0  0  0  0  0  0  0  0  0  0  0
   63.2220   32.6410   48.3490 C   0  0  0  0  0  0  0  0  0  0  0  0
   63.9947   32.1240   48.9369 H   0  0  0  0  0  0  0  0  0  0  0  0
   63.5430   33.1760   47.0990 C   0  0  0  0  0  0  0  0  0  0  0  0
   64.5649   33.0723   46.7052 H   0  0  0  0  0  0  0  0  0  0  0  0
   62.5740   33.8410   46.3480 C   0  0  0  0  0  0  0  0  0  0  0  0
   62.8321   34.2491   45.3596 H   0  0  0  0  0  0  0  0  0  0  0  0
   61.2700   33.9920   46.8480 C   0  0  0  0  0  0  0  0  0  0  0  0
   60.2390   34.7350   46.0400 C   0  0  0  0  0  0  0  0  0  0  0  0
   59.5365   35.2412   46.7184 H   0  0  0  0  0  0  0  0  0  0  0  0
   60.7388   35.4819   45.4057 H   0  0  0  0  0  0  0  0  0  0  0  0
   59.6886   34.0246   45.4057 H   0  0  0  0  0  0  0  0  0  0  0  0
  1  2  1  0
  2  3  1  0
  3  4  1  0
  4  5  1  0
  5  6  2  0
  6  7  1  0
  7  8  2  0
  8  9  1  0
  8 10  1  0
 10 11  1  0
 10 12  2  0
 12 13  1  0
 12 14  1  0
 14 15  1  0
 14 16  2  0
 16 17  1  0
  5 18  1  0
 18 19  1  0
 19 20  1  0
 20 21  2  0
 20 22  2  0
 20 23  1  0
 23 24  1  0
 24 25  1  0
 24 26  1  0
 24 27  1  0
 27 28  1  0
 27 29  1  0
 27 30  1  0
 30 31  2  0
 30 32  1  0
 32 33  1  0
 33 34  2  0
 34 35  1  0
 35 36  1  0
 35 37  1  0
 35 38  1  0
 34 39  1  0
 39 40  1  0
 39 41  2  0
 41 42  1  0
 41 43  1  0
 43 44  1  0
 43 45  2  0
 45 46  1  0
 46 47  1  0
 46 48  1  0
 46 49  1  0
 19  3  2  0
 45 33  1  0
 16  7  1  0
M  CHG  4   4  -1  17  -1  23  -1  32  -1
M  END
>  <UniqueID>  (46) 
45

>  <SMILES>  (46) 
Cc1cccc(C)c1[N-]C(=O)CC[N-]S(=O)(=O)c1s/c(=N\c2ccccc2[O-])[n-]c1O

>  <Energy>  (46) 
92.987583644206

>  <Genealogy>  (46) 
Cc1cccc(C)c1[N-]C(=O)CC[N-]S(=O)(=O)c1sc(=Nc2ccccc2[O-])[n-]c1O (protonated)
Cc1cccc(C)c1[N-]C(=O)CC[N-]S(=O)(=O)c1s/c(=N\c2ccccc2[O-])[n-]c1O (cis-trans isomerization)
Cc1cccc(C)c1[N-]C(=O)CC[N-]S(=O)(=O)c1s/c(=N\c2ccccc2[O-])[n-]c1O (3D coordinates assigned)
Cc1cccc(C)c1[N-]C(=O)CC[N-]S(=O)(=O)c1s/c(=N\c2ccccc2[O-])[n-]c1O (optimized conformer: 92.987583644206 kcal/mol)

>  <smiles>  (46) 
Cc1cccc(C)c1NC(=O)CCNS(=O)(=O)c1sc(=Nc2ccccc2O)[nH]c1O

>  <score_type>  (46) 
oracle

>  <origin>  (46) 
adg

>  <m_score__min__energy>  (46) 
-14.890000000000001

>  <m_primary>  (46) 
energy

$$$$
46:0
     RDKit          3D

 36 37  0  0  1  0  0  0  0  0999 V2000
   60.3820   28.8470   47.9770 C   0  0  0  0  0  0  0  0  0  0  0  0
   59.7670   27.5010   48.3700 C   0  0  0  0  0  0  0  0  0  0  0  0
   59.3930   26.7640   47.1720 N   0  0  0  0  0  0  0  0  0  0  0  0
   58.2900   27.0880   46.5980 C   0  0  0  0  0  0  0  0  0  0  0  0
   57.1790   26.2970   46.5980 C   0  0  0  0  0  0  0  0  0  0  0  0
   56.0250   26.7070   45.9620 C   0  0  0  0  0  0  0  0  0  0  0  0
   54.8730   25.9210   45.9430 O   0  0  0  0  0  0  0  0  0  0  0  0
   56.0240   27.9110   45.3380 N   0  0  0  0  0  0  0  0  0  0  0  0
   57.1140   28.7070   45.3290 C   0  0  0  0  0  0  0  0  0  0  0  0
   57.0260   29.8210   44.7200 N   0  0  0  0  0  0  0  0  0  0  0  0
   57.9110   30.8780   45.0800 C   0  0  0  0  0  0  0  0  0  0  0  0
   59.1650   30.7670   45.0540 O   0  0  0  0  0  0  0  0  0  0  0  0
   57.3380   32.1140   45.4870 N   0  0  0  0  0  0  0  0  0  0  0  0
   58.1310   33.2420   45.8690 C   0  0  0  0  0  0  0  0  0  0  0  0
   58.5570   34.0930   44.8540 C   0  0  0  0  0  0  0  0  0  0  0  0
   59.3290   35.1960   45.2060 C   0  0  0  0  0  0  0  0  0  0  0  0
   59.6730   35.4540   46.5170 C   0  0  0  0  0  0  0  0  0  0  0  0
   59.2250   34.5760   47.5040 C   0  0  0  0  0  0  0  0  0  0  0  0
   59.5930   34.8680   48.8310 O   0  0  0  0  0  0  0  0  0  0  0  0
   58.4550   33.4670   47.1980 C   0  0  0  0  0  0  0  0  0  0  0  0
   58.2210   28.2710   45.9610 N   0  0  0  0  0  0  0  0  0  0  0  0
   60.6399   29.4114   48.8852 H   0  0  0  0  0  0  0  0  0  0  0  0
   61.2909   28.6750   47.3817 H   0  0  0  0  0  0  0  0  0  0  0  0
   59.6571   29.4215   47.3817 H   0  0  0  0  0  0  0  0  0  0  0  0
   60.5015   26.9171   48.9441 H   0  0  0  0  0  0  0  0  0  0  0  0
   58.8717   27.6753   48.9848 H   0  0  0  0  0  0  0  0  0  0  0  0
   57.2030   25.3235   47.1095 H   0  0  0  0  0  0  0  0  0  0  0  0
   54.0880   26.3090   46.4770 H   0  0  0  0  0  0  0  0  0  0  0  0
   55.1420   28.2010   44.8640 H   0  0  0  0  0  0  0  0  0  0  0  0
   56.3030   32.2570   45.5250 H   0  0  0  0  0  0  0  0  0  0  0  0
   58.2914   33.8996   43.8042 H   0  0  0  0  0  0  0  0  0  0  0  0
   59.6744   35.8809   44.4175 H   0  0  0  0  0  0  0  0  0  0  0  0
   60.2852   36.3301   46.7773 H   0  0  0  0  0  0  0  0  0  0  0  0
   58.9840   35.5630   49.2900 H   0  0  0  0  0  0  0  0  0  0  0  0
   58.1098   32.7833   47.9875 H   0  0  0  0  0  0  0  0  0  0  0  0
   59.0660   28.8790   45.9580 H   0  0  0  0  0  0  0  0  0  0  0  0
  1  2  1  0
  2  3  1  0
  3  4  2  0
  4  5  1  0
  5  6  2  0
  6  7  1  0
  6  8  1  0
  8  9  1  0
  9 10  2  0
 10 11  1  0
 11 12  2  0
 11 13  1  0
 13 14  1  0
 14 15  2  0
 15 16  1  0
 16 17  2  0
 17 18  1  0
 18 19  1  0
 18 20  2  0
  9 21  1  0
 21  4  1  0
 20 14  1  0
  1 22  1  0
  1 23  1  0
  1 24  1  0
  2 25  1  0
  2 26  1  0
  5 27  1  0
  7 28  1  0
  8 29  1  0
 13 30  1  0
 15 31  1  0
 16 32  1  0
 17 33  1  0
 19 34  1  0
 20 35  1  0
 21 36  1  0
M  END
>  <smiles>  (47) 
CCN=c1cc(O)[nH]c(=NC(=O)Nc2cccc(O)c2)[nH]1

>  <score_type>  (47) 
oracle

>  <origin>  (47) 
adg

>  <m_score__min__energy>  (47) 
-7.1399999999999997

>  <m_primary>  (47) 
energy

$$$$
47:0
     RDKit          3D

 52 55  0  0  0  0  0  0  0  0999 V2000
   54.8290   29.3400   44.2010 N   0  0  0  0  0  0  0  0  0  0  0  0
   56.3160   30.1920   43.9760 S   0  0  0  0  0  0  0  0  0  0  0  0
   56.6100   30.3080   42.5070 O   0  0  0  0  0  0  0  0  0  0  0  0
   56.1930   31.5730   44.5550 O   0  0  0  0  0  0  0  0  0  0  0  0
   57.6170   29.3220   44.7830 C   0  0  0  0  0  0  0  0  0  0  0  0
   58.1670   28.1720   44.2010 C   0  0  0  0  0  0  0  0  0  0  0  0
   59.1940   27.4780   44.8470 C   0  0  0  0  0  0  0  0  0  0  0  0
   59.6730   27.9200   46.0910 C   0  0  0  0  0  0  0  0  0  0  0  0
   60.8020   27.1890   46.7710 C   0  0  0  0  0  0  0  0  0  0  0  0
   60.3130   26.4380   48.0100 C   0  0  0  0  0  0  0  0  0  0  0  0
   58.8530   26.4660   48.0730 N   0  0  0  0  0  0  0  0  0  0  0  0
   58.0760   25.8360   47.2460 C   0  0  0  0  0  0  0  0  0  0  0  0
   56.8120   26.3140   47.0210 N   0  0  0  0  0  0  0  0  0  0  0  0
   55.9530   25.6920   46.1610 C   0  0  0  0  0  0  0  0  0  0  0  0
   54.8010   26.1600   45.9760 O   0  0  0  0  0  0  0  0  0  0  0  0
   56.3980   24.5390   45.5070 C   0  0  0  0  0  0  0  0  0  0  0  0
   57.6570   24.0850   45.7490 C   0  0  0  0  0  0  0  0  0  0  0  0
   57.8700   22.9560   45.0010 C   0  0  0  0  0  0  0  0  0  0  0  0
   56.6780   22.7650   44.2980 C   0  0  0  0  0  0  0  0  0  0  0  0
   56.4730   21.6700   43.3220 C   0  0  0  0  0  0  0  0  0  0  0  0
   56.9560   20.3530   43.5960 N   0  0  0  0  0  0  0  0  0  0  0  0
   55.8980   21.8910   42.2230 O   0  0  0  0  0  0  0  0  0  0  0  0
   55.7690   23.7370   44.6160 N   0  0  0  0  0  0  0  0  0  0  0  0
   54.3860   23.8770   44.1370 C   0  0  0  0  0  0  0  0  0  0  0  0
   53.3960   23.3730   45.1590 C   0  0  0  0  0  0  0  0  0  0  0  0
   53.8280   22.6720   46.3010 C   0  0  0  0  0  0  0  0  0  0  0  0
   52.9030   22.2380   47.2540 C   0  0  0  0  0  0  0  0  0  0  0  0
   51.5420   22.5090   47.0870 C   0  0  0  0  0  0  0  0  0  0  0  0
   50.6240   22.0760   48.0360 O   0  0  0  0  0  0  0  0  0  0  0  0
   51.1060   23.2200   45.9660 C   0  0  0  0  0  0  0  0  0  0  0  0
   52.0280   23.6570   45.0090 C   0  0  0  0  0  0  0  0  0  0  0  0
   58.5060   24.7070   46.6010 N   0  0  0  0  0  0  0  0  0  0  0  0
   59.1230   29.0740   46.6700 C   0  0  0  0  0  0  0  0  0  0  0  0
   58.0970   29.7680   46.0220 C   0  0  0  0  0  0  0  0  0  0  0  0
   54.6090   29.3750   45.2220 H   0  0  0  0  0  0  0  0  0  0  0  0
   57.7890   27.8141   43.2320 H   0  0  0  0  0  0  0  0  0  0  0  0
   59.6287   26.5823   44.3793 H   0  0  0  0  0  0  0  0  0  0  0  0
   61.2387   26.4679   46.0644 H   0  0  0  0  0  0  0  0  0  0  0  0
   61.5526   27.9282   47.0875 H   0  0  0  0  0  0  0  0  0  0  0  0
   60.6547   25.3936   47.9604 H   0  0  0  0  0  0  0  0  0  0  0  0
   60.7207   26.9239   48.9087 H   0  0  0  0  0  0  0  0  0  0  0  0
   58.7787   22.3373   44.9628 H   0  0  0  0  0  0  0  0  0  0  0  0
   57.3850   20.1120   44.5170 H   0  0  0  0  0  0  0  0  0  0  0  0
   56.8470   19.5970   42.8840 H   0  0  0  0  0  0  0  0  0  0  0  0
   54.1828   24.9391   43.9352 H   0  0  0  0  0  0  0  0  0  0  0  0
   54.2742   23.2776   43.2214 H   0  0  0  0  0  0  0  0  0  0  0  0
   54.8989   22.4650   46.4436 H   0  0  0  0  0  0  0  0  0  0  0  0
   53.2469   21.6814   48.1383 H   0  0  0  0  0  0  0  0  0  0  0  0
   50.0354   23.4366   45.8357 H   0  0  0  0  0  0  0  0  0  0  0  0
   51.6802   24.2261   44.1342 H   0  0  0  0  0  0  0  0  0  0  0  0
   59.5010   29.4341   47.6382 H   0  0  0  0  0  0  0  0  0  0  0  0
   57.6650   30.6670   46.4860 H   0  0  0  0  0  0  0  0  0  0  0  0
  1  2  1  0
  2  3  2  0
  2  4  2  0
  2  5  1  0
  5  6  2  0
  6  7  1  0
  7  8  2  0
  8  9  1  0
  9 10  1  0
 10 11  1  0
 11 12  2  3
 12 13  1  0
 13 14  1  0
 14 15  2  0
 14 16  1  0
 16 17  2  0
 17 18  1  0
 18 19  2  0
 19 20  1  0
 20 21  1  0
 20 22  2  0
 19 23  1  0
 23 24  1  0
 24 25  1  0
 25 26  2  0
 26 27  1  0
 27 28  2  0
 28 29  1  0
 28 30  1  0
 30 31  2  0
 17 32  1  0
  8 33  1  0
 33 34  2  0
 34  5  1  0
 32 12  1  0
 23 16  1  0
 31 25  1  0
  1 35  1  0
  6 36  1  0
  7 37  1  0
  9 38  1  0
  9 39  1  0
 10 40  1  0
 10 41  1  0
 18 42  1  0
 21 43  1  0
 21 44  1  0
 24 45  1  0
 24 46  1  0
 26 47  1  0
 27 48  1  0
 30 49  1  0
 31 50  1  0
 33 51  1  0
 34 52  1  0
M  CHG  4   1  -1  13  -1  29  -1  32  -1
M  END
>  <UniqueID>  (48) 
46

>  <SMILES>  (48) 
[NH-]S(=O)(=O)c1ccc(CCN=c2[n-]c(=O)c3c(cc(C(N)=O)n3Cc3ccc([O-])cc3)[n-]2)cc1

>  <Energy>  (48) 
92.51352988249273

>  <Genealogy>  (48) 
[NH-]S(=O)(=O)c1ccc(CCN=c2[n-]c(=O)c3c(cc(C(N)=O)n3Cc3ccc([O-])cc3)[n-]2)cc1 (protonated)
[NH-]S(=O)(=O)c1ccc(CCN=c2[n-]c(=O)c3c(cc(C(N)=O)n3Cc3ccc([O-])cc3)[n-]2)cc1 (3D coordinates assigned)
[NH-]S(=O)(=O)c1ccc(CCN=c2[n-]c(=O)c3c(cc(C(N)=O)n3Cc3ccc([O-])cc3)[n-]2)cc1 (optimized conformer: 92.51352988249273 kcal/mol)

>  <smiles>  (48) 
NC(=O)c1cc2[nH]c(=NCCc3ccc(S(N)(=O)=O)cc3)[nH]c(=O)c2n1Cc1ccc(O)cc1

>  <score_type>  (48) 
oracle

>  <origin>  (48) 
adg

>  <m_score__min__energy>  (48) 
-16.850000000000001

>  <m_primary>  (48) 
energy

$$$$
48:0
     RDKit          3D

 61 64  0  0  0  0  0  0  0  0999 V2000
   59.7080   30.5220   49.0630 N   0  0  0  0  0  0  0  0  0  0  0  0
   60.5410   29.7780   50.0140 C   0  0  2  0  0  0  0  0  0  0  0  0
   60.7040   28.3160   49.5530 C   0  0  0  0  0  0  0  0  0  0  0  0
   59.6090   27.9430   48.7180 O   0  0  0  0  0  0  0  0  0  0  0  0
   59.6780   27.8440   47.3250 C   0  0  0  0  0  0  0  0  0  0  0  0
   60.4480   28.5870   46.6550 O   0  0  0  0  0  0  0  0  0  0  0  0
   58.7730   26.8880   46.6220 C   0  0  0  0  0  0  0  0  0  0  0  0
   57.5860   27.6330   46.0830 C   0  0  0  0  0  0  0  0  0  0  0  0
   57.5490   28.8140   45.3480 C   0  0  0  0  0  0  0  0  0  0  0  0
   58.6220   29.7270   45.0680 N   0  0  0  0  0  0  0  0  0  0  0  0
   58.5160   31.1530   45.1770 C   0  0  0  0  0  0  0  0  0  0  0  0
   57.4820   31.8060   44.4920 C   0  0  0  0  0  0  0  0  0  0  0  0
   57.3780   33.1960   44.5270 C   0  0  0  0  0  0  0  0  0  0  0  0
   58.2950   33.9490   45.2610 C   0  0  0  0  0  0  0  0  0  0  0  0
   59.3110   33.3130   45.9900 C   0  0  0  0  0  0  0  0  0  0  0  0
   60.4330   34.2710   46.9580 S   0  0  0  0  0  0  0  0  0  0  0  0
   61.7940   34.2250   46.3200 O   0  0  0  0  0  0  0  0  0  0  0  0
   59.9890   35.7060   47.0360 O   0  0  0  0  0  0  0  0  0  0  0  0
   60.5280   33.6090   48.5610 N   0  0  0  0  0  0  0  0  0  0  0  0
   61.6430   33.2740   49.1350 C   0  0  0  0  0  0  0  0  0  0  0  0
   62.2390   34.1000   50.0440 N   0  0  0  0  0  0  0  0  0  0  0  0
   63.4070   33.7530   50.6430 C   0  0  0  0  0  0  0  0  0  0  0  0
   64.0160   32.5380   50.3300 C   0  0  0  0  0  0  0  0  0  0  0  0
   63.3940   31.7060   49.3990 C   0  0  0  0  0  0  0  0  0  0  0  0
   62.2250   32.0870   48.8210 N   0  0  0  0  0  0  0  0  0  0  0  0
   59.4080   31.9090   45.9760 C   0  0  0  0  0  0  0  0  0  0  0  0
   60.3740   31.2910   46.7760 O   0  0  0  0  0  0  0  0  0  0  0  0
   56.2660   28.9400   44.8520 C   0  0  0  0  0  0  0  0  0  0  0  0
   55.5440   27.9180   45.2500 O   0  0  0  0  0  0  0  0  0  0  0  0
   56.3060   27.1250   45.9700 C   0  0  0  0  0  0  0  0  0  0  0  0
   55.8670   25.9240   46.5130 O   0  0  0  0  0  0  0  0  0  0  0  0
   59.9780   29.8910   51.4550 C   0  0  0  0  0  0  0  0  0  0  0  0
   59.3700   31.2440   51.7660 C   0  0  0  0  0  0  0  0  0  0  0  0
   57.9730   31.4160   51.7430 C   0  0  0  0  0  0  0  0  0  0  0  0
   57.4050   32.6600   52.0420 C   0  0  0  0  0  0  0  0  0  0  0  0
   58.2250   33.7440   52.3630 C   0  0  0  0  0  0  0  0  0  0  0  0
   59.6140   33.5860   52.3790 C   0  0  0  0  0  0  0  0  0  0  0  0
   60.1860   32.3430   52.0800 C   0  0  0  0  0  0  0  0  0  0  0  0
   60.1530   31.4560   48.9050 H   0  0  0  0  0  0  0  0  0  0  0  0
   59.7480   30.0380   48.1350 H   0  0  0  0  0  0  0  0  0  0  0  0
   61.5452   30.2263   50.0364 H   0  0  0  0  0  0  0  0  0  0  0  0
   61.6431   28.2143   48.9894 H   0  0  0  0  0  0  0  0  0  0  0  0
   60.7255   27.6593   50.4352 H   0  0  0  0  0  0  0  0  0  0  0  0
   59.3153   26.4113   45.7922 H   0  0  0  0  0  0  0  0  0  0  0  0
   58.4336   26.1153   47.3276 H   0  0  0  0  0  0  0  0  0  0  0  0
   59.5470   29.3240   44.7980 H   0  0  0  0  0  0  0  0  0  0  0  0
   56.7473   31.2176   43.9227 H   0  0  0  0  0  0  0  0  0  0  0  0
   56.5712   33.7000   43.9747 H   0  0  0  0  0  0  0  0  0  0  0  0
   58.2210   35.0465   45.2681 H   0  0  0  0  0  0  0  0  0  0  0  0
   63.8726   34.4297   51.3746 H   0  0  0  0  0  0  0  0  0  0  0  0
   64.9631   32.2432   50.8054 H   0  0  0  0  0  0  0  0  0  0  0  0
   63.8502   30.7411   49.1327 H   0  0  0  0  0  0  0  0  0  0  0  0
   60.7780   31.7310   47.5920 H   0  0  0  0  0  0  0  0  0  0  0  0
   55.9056   29.7668   44.2223 H   0  0  0  0  0  0  0  0  0  0  0  0
   59.2017   29.1228   51.5860 H   0  0  0  0  0  0  0  0  0  0  0  0
   60.8248   29.7527   52.1433 H   0  0  0  0  0  0  0  0  0  0  0  0
   57.3227   30.5662   51.4881 H   0  0  0  0  0  0  0  0  0  0  0  0
   56.3121   32.7838   52.0241 H   0  0  0  0  0  0  0  0  0  0  0  0
   57.7788   34.7204   52.6028 H   0  0  0  0  0  0  0  0  0  0  0  0
   60.2600   34.4410   52.6273 H   0  0  0  0  0  0  0  0  0  0  0  0
   61.2798   32.2270   52.0912 H   0  0  0  0  0  0  0  0  0  0  0  0
  1  2  1  0
  2  3  1  0
  3  4  1  0
  4  5  1  0
  5  6  2  0
  5  7  1  0
  7  8  1  0
  8  9  1  0
  9 10  1  0
 10 11  1  0
 11 12  2  0
 12 13  1  0
 13 14  2  0
 14 15  1  0
 15 16  1  0
 16 17  2  0
 16 18  2  0
 16 19  1  0
 19 20  2  3
 20 21  1  0
 21 22  2  0
 22 23  1  0
 23 24  2  0
 24 25  1  0
 15 26  2  0
 26 27  1  0
  9 28  2  0
 28 29  1  0
 29 30  1  0
 30 31  1  0
  2 32  1  0
 32 33  1  0
 33 34  2  0
 34 35  1  0
 35 36  2  0
 36 37  1  0
 37 38  2  0
 30  8  2  0
 38 33  1  0
 26 11  1  0
 25 20  1  0
  1 39  1  0
  1 40  1  0
  2 41  1  1
  3 42  1  0
  3 43  1  0
  7 44  1  0
  7 45  1  0
 10 46  1  0
 12 47  1  0
 13 48  1  0
 14 49  1  0
 22 50  1  0
 23 51  1  0
 24 52  1  0
 27 53  1  0
 28 54  1  0
 32 55  1  0
 32 56  1  0
 34 57  1  0
 35 58  1  0
 36 59  1  0
 37 60  1  0
 38 61  1  0
M  CHG  2  25  -1  31  -1
M  END
>  <UniqueID>  (49) 
47

>  <SMILES>  (49) 
N[C@H](COC(=O)Cc1c(Nc2cccc(S(=O)(=O)N=c3nccc[n-]3)c2O)coc1[O-])Cc1ccccc1

>  <Energy>  (49) 
100.52273801311688

>  <Genealogy>  (49) 
NC(COC(=O)Cc1c(Nc2cccc(S(=O)(=O)N=c3nccc[n-]3)c2O)coc1[O-])Cc1ccccc1 (protonated)
N[C@H](COC(=O)Cc1c(Nc2cccc(S(=O)(=O)N=c3nccc[n-]3)c2O)coc1[O-])Cc1ccccc1 (chirality)
N[C@H](COC(=O)Cc1c(Nc2cccc(S(=O)(=O)N=c3nccc[n-]3)c2O)coc1[O-])Cc1ccccc1 (3D coordinates assigned)
N[C@H](COC(=O)Cc1c(Nc2cccc(S(=O)(=O)N=c3nccc[n-]3)c2O)coc1[O-])Cc1ccccc1 (optimized conformer: 100.52273801311688 kcal/mol)

>  <smiles>  (49) 
NC(COC(=O)Cc1c(Nc2cccc(S(=O)(=O)N=c3nccc[nH]3)c2O)coc1O)Cc1ccccc1

>  <score_type>  (49) 
oracle

>  <origin>  (49) 
adg

>  <m_score__min__energy>  (49) 
-11.779999999999999

>  <m_primary>  (49) 
energy

$$$$
49:0
     RDKit          3D

 58 61  0  0  0  0  0  0  0  0999 V2000
   65.4330   31.4480   50.8820 C   0  0  0  0  0  0  0  0  0  0  0  0
   65.2880   32.6510   49.9960 C   0  0  0  0  0  0  0  0  0  0  0  0
   66.2890   33.4000   49.8370 O   0  0  0  0  0  0  0  0  0  0  0  0
   64.0080   32.9740   49.3110 C   0  0  0  0  0  0  0  0  0  0  0  0
   63.0570   33.7960   49.9440 C   0  0  0  0  0  0  0  0  0  0  0  0
   61.8510   34.1090   49.3130 C   0  0  0  0  0  0  0  0  0  0  0  0
   61.5680   33.6130   48.0300 C   0  0  0  0  0  0  0  0  0  0  0  0
   60.3180   33.9240   47.3840 N   0  0  0  0  0  0  0  0  0  0  0  0
   60.2770   34.7740   46.1880 C   0  0  0  0  0  0  0  0  0  0  0  0
   59.4240   34.1240   45.0770 C   0  0  0  0  0  0  0  0  0  0  0  0
   58.4850   33.0880   45.5830 N   0  0  0  0  0  0  0  0  0  0  0  0
   57.4030   32.8660   44.5960 C   0  0  0  0  0  0  0  0  0  0  0  0
   57.1620   31.4040   44.3510 C   0  0  0  0  0  0  0  0  0  0  0  0
   56.7200   30.8460   43.1670 C   0  0  0  0  0  0  0  0  0  0  0  0
   56.6610   29.4870   43.3940 C   0  0  0  0  0  0  0  0  0  0  0  0
   57.0700   29.3080   44.7020 C   0  0  0  0  0  0  0  0  0  0  0  0
   57.1580   27.9960   45.4280 C   0  0  0  0  0  0  0  0  0  0  0  0
   58.4290   27.8190   46.1640 N   0  0  0  0  0  0  0  0  0  0  0  0
   59.6260   27.7060   45.3030 C   0  0  0  0  0  0  0  0  0  0  0  0
   60.2820   29.0750   44.9980 C   0  0  0  0  0  0  0  0  0  0  0  0
   59.7380   30.1390   45.7540 O   0  0  0  0  0  0  0  0  0  0  0  0
   59.6830   29.7750   47.1130 C   0  0  0  0  0  0  0  0  0  0  0  0
   58.5980   28.7100   47.3340 C   0  0  0  0  0  0  0  0  0  0  0  0
   57.3650   30.4660   45.2460 O   0  0  0  0  0  0  0  0  0  0  0  0
   57.9360   33.4680   46.9050 C   0  0  0  0  0  0  0  0  0  0  0  0
   59.0520   33.4600   47.9620 C   0  0  0  0  0  0  0  0  0  0  0  0
   62.5090   32.7840   47.3990 C   0  0  0  0  0  0  0  0  0  0  0  0
   63.7160   32.4700   48.0290 C   0  0  0  0  0  0  0  0  0  0  0  0
   65.3952   31.7619   51.9356 H   0  0  0  0  0  0  0  0  0  0  0  0
   64.6134   30.7428   50.6798 H   0  0  0  0  0  0  0  0  0  0  0  0
   66.3967   30.9577   50.6798 H   0  0  0  0  0  0  0  0  0  0  0  0
   63.2659   34.1964   50.9470 H   0  0  0  0  0  0  0  0  0  0  0  0
   61.1172   34.7489   49.8249 H   0  0  0  0  0  0  0  0  0  0  0  0
   59.8403   35.7480   46.4536 H   0  0  0  0  0  0  0  0  0  0  0  0
   61.3032   34.9015   45.8130 H   0  0  0  0  0  0  0  0  0  0  0  0
   58.8390   34.9122   44.5805 H   0  0  0  0  0  0  0  0  0  0  0  0
   60.1180   33.6233   44.3859 H   0  0  0  0  0  0  0  0  0  0  0  0
   59.0230   32.1930   45.6870 H   0  0  0  0  0  0  0  0  0  0  0  0
   56.4761   33.3208   44.9756 H   0  0  0  0  0  0  0  0  0  0  0  0
   57.7087   33.3260   43.6447 H   0  0  0  0  0  0  0  0  0  0  0  0
   56.4676   31.3756   42.2365 H   0  0  0  0  0  0  0  0  0  0  0  0
   56.3525   28.7074   42.6819 H   0  0  0  0  0  0  0  0  0  0  0  0
   56.3273   27.9382   46.1467 H   0  0  0  0  0  0  0  0  0  0  0  0
   57.1065   27.2001   44.6704 H   0  0  0  0  0  0  0  0  0  0  0  0
   60.3646   27.0686   45.8111 H   0  0  0  0  0  0  0  0  0  0  0  0
   59.3026   27.2747   44.3442 H   0  0  0  0  0  0  0  0  0  0  0  0
   61.3571   29.0037   45.2197 H   0  0  0  0  0  0  0  0  0  0  0  0
   60.0901   29.2982   43.9381 H   0  0  0  0  0  0  0  0  0  0  0  0
   60.6582   29.3692   47.4201 H   0  0  0  0  0  0  0  0  0  0  0  0
   59.4402   30.6644   47.7130 H   0  0  0  0  0  0  0  0  0  0  0  0
   58.8764   28.0988   48.2051 H   0  0  0  0  0  0  0  0  0  0  0  0
   57.6443   29.2340   47.4946 H   0  0  0  0  0  0  0  0  0  0  0  0
   57.5014   34.4766   46.8423 H   0  0  0  0  0  0  0  0  0  0  0  0
   57.1604   32.7438   47.1946 H   0  0  0  0  0  0  0  0  0  0  0  0
   58.7686   34.1250   48.7912 H   0  0  0  0  0  0  0  0  0  0  0  0
   59.1861   32.4308   48.3264 H   0  0  0  0  0  0  0  0  0  0  0  0
   62.2941   32.3779   46.3995 H   0  0  0  0  0  0  0  0  0  0  0  0
   64.4448   31.8231   47.5188 H   0  0  0  0  0  0  0  0  0  0  0  0
  1  2  1  0
  2  3  2  0
  2  4  1  0
  4  5  2  0
  5  6  1  0
  6  7  2  0
  7  8  1  0
  8  9  1  0
  9 10  1  0
 10 11  1  0
 11 12  1  0
 12 13  1  0
 13 14  2  0
 14 15  1  0
 15 16  2  0
 16 17  1  0
 17 18  1  0
 18 19  1  0
 19 20  1  0
 20 21  1  0
 21 22  1  0
 22 23  1  0
 16 24  1  0
 11 25  1  0
 25 26  1  0
  7 27  1  0
 27 28  2  0
 28  4  1  0
 26  8  1  0
 24 13  1  0
 23 18  1  0
  1 29  1  0
  1 30  1  0
  1 31  1  0
  5 32  1  0
  6 33  1  0
  9 34  1  0
  9 35  1  0
 10 36  1  0
 10 37  1  0
 11 38  1  0
 12 39  1  0
 12 40  1  0
 14 41  1  0
 15 42  1  0
 17 43  1  0
 17 44  1  0
 19 45  1  0
 19 46  1  0
 20 47  1  0
 20 48  1  0
 22 49  1  0
 22 50  1  0
 23 51  1  0
 23 52  1  0
 25 53  1  0
 25 54  1  0
 26 55  1  0
 26 56  1  0
 27 57  1  0
 28 58  1  0
M  CHG  1  11   1
M  END
>  <UniqueID>  (50) 
48

>  <SMILES>  (50) 
CC(=O)c1ccc(N2CC[NH+](Cc3ccc(CN4CCOCC4)o3)CC2)cc1

>  <Energy>  (50) 
109.78969495734611

>  <Genealogy>  (50) 
CC(=O)c1ccc(N2CC[NH+](Cc3ccc(CN4CCOCC4)o3)CC2)cc1 (protonated)
CC(=O)c1ccc(N2CC[NH+](Cc3ccc(CN4CCOCC4)o3)CC2)cc1 (3D coordinates assigned)
CC(=O)c1ccc(N2CC[NH+](Cc3ccc(CN4CCOCC4)o3)CC2)cc1 (nonaromatic ring conformer: 109.78969495734611 kcal/mol)

>  <smiles>  (50) 
CC(=O)c1ccc(N2CCN(Cc3ccc(CN4CCOCC4)o3)CC2)cc1

>  <score_type>  (50) 
oracle

>  <origin>  (50) 
adg

>  <m_score__min__energy>  (50) 
-6.7800000000000002

>  <m_primary>  (50) 
energy

$$$$
50:0
     RDKit          3D

 35 37  0  0  0  0  0  0  0  0999 V2000
   57.5830   30.1980   44.7950 C   0  0  0  0  0  0  0  0  0  0  0  0
   58.1630   29.7100   45.9040 C   0  0  0  0  0  0  0  0  0  0  0  0
   58.2240   28.3640   46.3000 C   0  0  0  0  0  0  0  0  0  0  0  0
   57.9720   27.2320   45.6170 C   0  0  0  0  0  0  0  0  0  0  0  0
   57.3500   26.0190   46.1750 C   0  0  0  0  0  0  0  0  0  0  0  0
   58.0330   25.0030   46.7360 N   0  0  0  0  0  0  0  0  0  0  0  0
   57.0600   24.1990   47.2160 C   0  0  0  0  0  0  0  0  0  0  0  0
   57.3060   23.1170   47.8080 O   0  0  0  0  0  0  0  0  0  0  0  0
   55.8040   24.6500   47.0170 N   0  0  0  0  0  0  0  0  0  0  0  0
   56.0040   25.8090   46.3690 C   0  0  0  0  0  0  0  0  0  0  0  0
   54.9690   26.6500   45.9660 O   0  0  0  0  0  0  0  0  0  0  0  0
   58.6360   28.3680   47.6220 C   0  0  0  0  0  0  0  0  0  0  0  0
   58.8830   29.6820   47.9600 C   0  0  0  0  0  0  0  0  0  0  0  0
   59.3660   30.1400   49.3030 C   0  0  0  0  0  0  0  0  0  0  0  0
   58.6110   30.4970   46.9180 N   0  0  0  0  0  0  0  0  0  0  0  0
   58.7210   31.9330   46.9310 C   0  0  0  0  0  0  0  0  0  0  0  0
   57.7150   32.6320   46.6360 O   0  0  0  0  0  0  0  0  0  0  0  0
   59.9860   32.5860   47.3270 C   0  0  0  0  0  0  0  0  0  0  0  0
   59.9990   33.6430   48.2540 C   0  0  0  0  0  0  0  0  0  0  0  0
   61.2160   34.2310   48.6060 C   0  0  0  0  0  0  0  0  0  0  0  0
   62.4030   33.7660   48.0400 C   0  0  0  0  0  0  0  0  0  0  0  0
   62.3570   32.7120   47.1270 C   0  0  0  0  0  0  0  0  0  0  0  0
   61.1630   32.1510   46.7960 N   0  0  0  0  0  0  0  0  0  0  0  0
   57.6021   31.2794   44.5947 H   0  0  0  0  0  0  0  0  0  0  0  0
   57.0890   29.5162   44.0872 H   0  0  0  0  0  0  0  0  0  0  0  0
   58.2539   27.2109   44.5539 H   0  0  0  0  0  0  0  0  0  0  0  0
   55.1500   27.4870   45.4240 H   0  0  0  0  0  0  0  0  0  0  0  0
   58.7453   27.4911   48.2771 H   0  0  0  0  0  0  0  0  0  0  0  0
   58.8099   29.6127   50.0921 H   0  0  0  0  0  0  0  0  0  0  0  0
   60.4393   29.9200   49.4013 H   0  0  0  0  0  0  0  0  0  0  0  0
   59.2033   31.2235   49.4013 H   0  0  0  0  0  0  0  0  0  0  0  0
   59.0594   34.0036   48.6979 H   0  0  0  0  0  0  0  0  0  0  0  0
   61.2384   35.0599   49.3288 H   0  0  0  0  0  0  0  0  0  0  0  0
   63.3652   34.2254   48.3106 H   0  0  0  0  0  0  0  0  0  0  0  0
   63.2862   32.3348   46.6750 H   0  0  0  0  0  0  0  0  0  0  0  0
  1  2  2  0
  2  3  1  0
  3  4  2  3
  4  5  1  0
  5  6  1  0
  6  7  1  0
  7  8  2  0
  7  9  1  0
  9 10  1  0
 10 11  1  0
  3 12  1  0
 12 13  2  0
 13 14  1  0
 13 15  1  0
 15 16  1  0
 16 17  2  0
 16 18  1  0
 18 19  2  0
 19 20  1  0
 20 21  2  0
 21 22  1  0
 22 23  2  0
 15  2  1  0
 23 18  1  0
 10  5  2  0
  1 24  1  0
  1 25  1  0
  4 26  1  0
 11 27  1  0
 12 28  1  0
 14 29  1  0
 14 30  1  0
 14 31  1  0
 19 32  1  0
 20 33  1  0
 21 34  1  0
 22 35  1  0
M  CHG  2   6  -1   9  -1
M  END
>  <UniqueID>  (51) 
49

>  <SMILES>  (51) 
C=c1c(=Cc2[n-]c(=O)[n-]c2O)cc(C)n1C(=O)c1ccccn1

>  <Energy>  (51) 
111.56690569457433

>  <Genealogy>  (51) 
C=c1c(=Cc2[n-]c(=O)[n-]c2O)cc(C)n1C(=O)c1ccccn1 (protonated)
C=c1c(=Cc2[n-]c(=O)[n-]c2O)cc(C)n1C(=O)c1ccccn1 (3D coordinates assigned)
C=c1c(=Cc2[n-]c(=O)[n-]c2O)cc(C)n1C(=O)c1ccccn1 (optimized conformer: 111.56690569457433 kcal/mol)

>  <smiles>  (51) 
C=c1c(=Cc2[nH]c(=O)[nH]c2O)cc(C)n1C(=O)c1ccccn1

>  <score_type>  (51) 
oracle

>  <origin>  (51) 
adg

>  <m_score__min__energy>  (51) 
-12.359999999999999

>  <m_primary>  (51) 
energy

$$$$
51:0
     RDKit          3D

 68 72  0  0  0  0  0  0  0  0999 V2000
   57.1630   30.4250   45.2450 O   0  0  0  0  0  0  0  0  0  0  0  0
   56.5240   29.5560   44.5940 C   0  0  0  0  0  0  0  0  0  0  0  0
   55.1830   29.3310   44.8810 O   0  0  0  0  0  0  0  0  0  0  0  0
   57.2130   28.7440   43.5420 C   0  0  0  0  0  0  0  0  0  0  0  0
   58.6120   28.2890   43.9920 C   0  0  0  0  0  0  0  0  0  0  0  0
   58.5580   27.4240   45.2300 C   0  0  0  0  0  0  0  0  0  0  0  0
   57.8940   26.1920   45.3320 C   0  0  0  0  0  0  0  0  0  0  0  0
   57.1140   25.4840   44.2570 C   0  0  0  0  0  0  0  0  0  0  0  0
   55.9320   24.7840   44.8500 C   0  0  0  0  0  0  0  0  0  0  0  0
   55.5400   23.1640   44.6020 S   0  0  0  0  0  0  0  0  0  0  0  0
   54.1300   23.2810   45.5120 C   0  0  0  0  0  0  0  0  0  0  0  0
   53.3390   22.3250   45.7210 O   0  0  0  0  0  0  0  0  0  0  0  0
   53.9280   24.5220   46.0010 N   0  0  0  0  0  0  0  0  0  0  0  0
   54.9300   25.3610   45.6280 C   0  0  0  0  0  0  0  0  0  0  0  0
   54.9340   26.6990   46.0000 O   0  0  0  0  0  0  0  0  0  0  0  0
   58.1080   25.6380   46.5410 N   0  0  0  0  0  0  0  0  0  0  0  0
   58.9070   26.4820   47.2090 C   0  0  0  0  0  0  0  0  0  0  0  0
   59.4600   26.2440   48.4620 C   0  0  0  0  0  0  0  0  0  0  0  0
   60.3700   27.1740   48.9670 C   0  0  0  0  0  0  0  0  0  0  0  0
   60.6800   28.3360   48.2400 C   0  0  0  0  0  0  0  0  0  0  0  0
   60.0510   28.6240   46.9990 C   0  0  0  0  0  0  0  0  0  0  0  0
   60.3530   29.9160   46.2540 C   0  0  0  0  0  0  0  0  0  0  0  0
   61.5630   30.7670   46.7360 C   0  0  0  0  0  0  0  0  0  0  0  0
   61.2620   31.9160   47.6330 N   0  0  1  0  0  0  0  0  0  0  0  0
   61.0700   31.5320   49.0450 C   0  0  0  0  0  0  0  0  0  0  0  0
   60.3060   32.6310   49.8030 C   0  0  0  0  0  0  0  0  0  0  0  0
   60.7610   34.0700   49.4270 C   0  0  2  0  0  0  0  0  0  0  0  0
   59.6330   34.9620   48.8320 C   0  0  0  0  0  0  0  0  0  0  0  0
   59.1690   34.5850   47.4430 C   0  0  0  0  0  0  0  0  0  0  0  0
   59.6640   35.2770   46.3210 C   0  0  0  0  0  0  0  0  0  0  0  0
   59.1880   34.9850   45.0410 C   0  0  0  0  0  0  0  0  0  0  0  0
   58.2310   33.9840   44.8630 C   0  0  0  0  0  0  0  0  0  0  0  0
   57.7640   33.2590   45.9620 C   0  0  0  0  0  0  0  0  0  0  0  0
   58.2370   33.5470   47.2460 C   0  0  0  0  0  0  0  0  0  0  0  0
   57.7780   32.8130   48.2940 F   0  0  0  0  0  0  0  0  0  0  0  0
   62.0820   34.1070   48.6200 C   0  0  0  0  0  0  0  0  0  0  0  0
   62.2210   33.0360   47.5060 C   0  0  0  0  0  0  0  0  0  0  0  0
   59.2000   27.6120   46.4680 C   0  0  0  0  0  0  0  0  0  0  0  0
   56.6034   27.8549   43.3231 H   0  0  0  0  0  0  0  0  0  0  0  0
   57.3310   29.3743   42.6482 H   0  0  0  0  0  0  0  0  0  0  0  0
   59.0769   27.7140   43.1776 H   0  0  0  0  0  0  0  0  0  0  0  0
   59.1993   29.1876   44.2322 H   0  0  0  0  0  0  0  0  0  0  0  0
   56.7665   26.2194   43.5165 H   0  0  0  0  0  0  0  0  0  0  0  0
   57.7646   24.7409   43.7728 H   0  0  0  0  0  0  0  0  0  0  0  0
   57.7640   24.7100   46.8730 H   0  0  0  0  0  0  0  0  0  0  0  0
   59.1881   25.3480   49.0392 H   0  0  0  0  0  0  0  0  0  0  0  0
   60.8482   26.9960   49.9415 H   0  0  0  0  0  0  0  0  0  0  0  0
   61.4261   29.0381   48.6406 H   0  0  0  0  0  0  0  0  0  0  0  0
   60.5359   29.6526   45.2018 H   0  0  0  0  0  0  0  0  0  0  0  0
   59.4757   30.5533   46.4390 H   0  0  0  0  0  0  0  0  0  0  0  0
   62.2484   30.0957   47.2741 H   0  0  0  0  0  0  0  0  0  0  0  0
   61.9797   31.2169   45.8228 H   0  0  0  0  0  0  0  0  0  0  0  0
   60.3420   32.2630   47.2850 H   0  0  0  0  0  0  0  0  0  0  0  0
   62.0526   31.3832   49.5165 H   0  0  0  0  0  0  0  0  0  0  0  0
   60.4857   30.6008   49.0842 H   0  0  0  0  0  0  0  0  0  0  0  0
   60.4648   32.4856   50.8817 H   0  0  0  0  0  0  0  0  0  0  0  0
   59.2458   32.5418   49.5235 H   0  0  0  0  0  0  0  0  0  0  0  0
   60.9997   34.5470   50.3890 H   0  0  0  0  0  0  0  0  0  0  0  0
   58.7655   34.9057   49.5060 H   0  0  0  0  0  0  0  0  0  0  0  0
   60.0613   35.9713   48.7436 H   0  0  0  0  0  0  0  0  0  0  0  0
   60.4316   36.0536   46.4538 H   0  0  0  0  0  0  0  0  0  0  0  0
   59.5671   35.5438   44.1727 H   0  0  0  0  0  0  0  0  0  0  0  0
   57.8444   33.7661   43.8565 H   0  0  0  0  0  0  0  0  0  0  0  0
   57.0224   32.4596   45.8170 H   0  0  0  0  0  0  0  0  0  0  0  0
   62.9136   33.9692   49.3267 H   0  0  0  0  0  0  0  0  0  0  0  0
   62.0907   35.0785   48.1042 H   0  0  0  0  0  0  0  0  0  0  0  0
   63.2409   32.6257   47.5444 H   0  0  0  0  0  0  0  0  0  0  0  0
   62.0051   33.5367   46.5507 H   0  0  0  0  0  0  0  0  0  0  0  0
  1  2  2  0
  2  3  1  0
  2  4  1  0
  4  5  1  0
  5  6  1  0
  6  7  2  0
  7  8  1  0
  8  9  1  0
  9 10  1  0
 10 11  1  0
 11 12  2  0
 11 13  1  0
 13 14  1  0
 14 15  1  0
  7 16  1  0
 16 17  1  0
 17 18  2  0
 18 19  1  0
 19 20  2  0
 20 21  1  0
 21 22  1  0
 22 23  1  0
 23 24  1  0
 24 25  1  0
 25 26  1  0
 26 27  1  0
 27 28  1  0
 28 29  1  0
 29 30  2  0
 30 31  1  0
 31 32  2  0
 32 33  1  0
 33 34  2  0
 34 35  1  0
 27 36  1  0
 36 37  1  0
 21 38  2  0
 38  6  1  0
 14  9  2  0
 38 17  1  0
 37 24  1  0
 34 29  1  0
  4 39  1  0
  4 40  1  0
  5 41  1  0
  5 42  1  0
  8 43  1  0
  8 44  1  0
 16 45  1  0
 18 46  1  0
 19 47  1  0
 20 48  1  0
 22 49  1  0
 22 50  1  0
 23 51  1  0
 23 52  1  0
 24 53  1  6
 25 54  1  0
 25 55  1  0
 26 56  1  0
 26 57  1  0
 27 58  1  1
 28 59  1  0
 28 60  1  0
 30 61  1  0
 31 62  1  0
 32 63  1  0
 33 64  1  0
 36 65  1  0
 36 66  1  0
 37 67  1  0
 37 68  1  0
M  CHG  4   3  -1  13  -1  15  -1  24   1
M  END
>  <UniqueID>  (52) 
50

>  <SMILES>  (52) 
O=C([O-])CCc1c(Cc2sc(=O)[n-]c2[O-])[nH]c2cccc(CC[NH+]3CCC(Cc4ccccc4F)CC3)c12

>  <Energy>  (52) 
154.8419551662005

>  <Genealogy>  (52) 
O=C([O-])CCc1c(Cc2sc(=O)[n-]c2[O-])[nH]c2cccc(CC[NH+]3CCC(Cc4ccccc4F)CC3)c12 (protonated)
O=C([O-])CCc1c(Cc2sc(=O)[n-]c2[O-])[nH]c2cccc(CC[NH+]3CCC(Cc4ccccc4F)CC3)c12 (3D coordinates assigned)
O=C([O-])CCc1c(Cc2sc(=O)[n-]c2[O-])[nH]c2cccc(CC[NH+]3CCC(Cc4ccccc4F)CC3)c12 (nonaromatic ring conformer: 154.8419551662005 kcal/mol)

>  <smiles>  (52) 
O=C(O)CCc1c(Cc2sc(=O)[nH]c2O)[nH]c2cccc(CCN3CCC(Cc4ccccc4F)CC3)c12

>  <score_type>  (52) 
oracle

>  <origin>  (52) 
adg

>  <m_score__min__energy>  (52) 
-18.02

>  <m_primary>  (52) 
energy

$$$$
52:0
     RDKit          3D

 42 44  0  0  0  0  0  0  0  0999 V2000
   58.2240   29.6190   53.1120 C   0  0  0  0  0  0  0  0  0  0  0  0
   56.9490   30.0130   52.9640 C   0  0  0  0  0  0  0  0  0  0  0  0
   55.9410   29.3180   53.6510 C   0  0  0  0  0  0  0  0  0  0  0  0
   54.6000   29.6710   53.5020 C   0  0  0  0  0  0  0  0  0  0  0  0
   54.2200   30.7450   52.6800 C   0  0  0  0  0  0  0  0  0  0  0  0
   52.9050   31.0410   52.5650 C   0  0  0  0  0  0  0  0  0  0  0  0
   52.1240   31.0900   51.3100 C   0  0  0  0  0  0  0  0  0  0  0  0
   52.1870   30.1890   50.3120 N   0  0  0  0  0  0  0  0  0  0  0  0
   51.3890   30.7170   49.3600 C   0  0  0  0  0  0  0  0  0  0  0  0
   51.1800   30.1470   48.2580 O   0  0  0  0  0  0  0  0  0  0  0  0
   50.8390   31.9080   49.6780 N   0  0  0  0  0  0  0  0  0  0  0  0
   51.3230   32.1340   50.9100 C   0  0  0  0  0  0  0  0  0  0  0  0
   51.0410   33.2730   51.6530 O   0  0  0  0  0  0  0  0  0  0  0  0
   55.2300   31.4450   51.9850 C   0  0  0  0  0  0  0  0  0  0  0  0
   56.5830   31.0860   52.1100 C   0  0  0  0  0  0  0  0  0  0  0  0
   57.5850   31.8540   51.3330 C   0  0  0  0  0  0  0  0  0  0  0  0
   57.5930   31.7580   50.0790 O   0  0  0  0  0  0  0  0  0  0  0  0
   58.5510   32.6990   51.9730 N   0  0  0  0  0  0  0  0  0  0  0  0
   59.9910   32.4520   52.0100 C   0  0  0  0  0  0  0  0  0  0  0  0
   60.7670   33.6760   51.5170 C   0  0  0  0  0  0  0  0  0  0  0  0
   61.1280   33.5210   50.0650 C   0  0  0  0  0  0  0  0  0  0  0  0
   60.1170   33.4260   49.0950 C   0  0  0  0  0  0  0  0  0  0  0  0
   60.4470   33.3210   47.7420 C   0  0  0  0  0  0  0  0  0  0  0  0
   61.7880   33.3180   47.3450 C   0  0  0  0  0  0  0  0  0  0  0  0
   62.8040   33.4260   48.3010 C   0  0  0  0  0  0  0  0  0  0  0  0
   64.1350   33.4300   47.8910 O   0  0  0  0  0  0  0  0  0  0  0  0
   62.4730   33.5320   49.6600 C   0  0  0  0  0  0  0  0  0  0  0  0
   59.0288   30.1501   52.5825 H   0  0  0  0  0  0  0  0  0  0  0  0
   58.4638   28.7651   53.7627 H   0  0  0  0  0  0  0  0  0  0  0  0
   56.2124   28.4843   54.3153 H   0  0  0  0  0  0  0  0  0  0  0  0
   53.8273   29.0992   54.0368 H   0  0  0  0  0  0  0  0  0  0  0  0
   52.3639   31.2673   53.4956 H   0  0  0  0  0  0  0  0  0  0  0  0
   54.9528   32.2869   51.3336 H   0  0  0  0  0  0  0  0  0  0  0  0
   60.2916   32.2272   53.0440 H   0  0  0  0  0  0  0  0  0  0  0  0
   60.2192   31.6016   51.3506 H   0  0  0  0  0  0  0  0  0  0  0  0
   60.1438   34.5739   51.6412 H   0  0  0  0  0  0  0  0  0  0  0  0
   61.6915   33.7718   52.1052 H   0  0  0  0  0  0  0  0  0  0  0  0
   59.0608   33.4343   49.4021 H   0  0  0  0  0  0  0  0  0  0  0  0
   59.6508   33.2405   46.9873 H   0  0  0  0  0  0  0  0  0  0  0  0
   62.0446   33.2306   46.2789 H   0  0  0  0  0  0  0  0  0  0  0  0
   64.5160   32.6820   47.3230 H   0  0  0  0  0  0  0  0  0  0  0  0
   63.2704   33.6242   50.4121 H   0  0  0  0  0  0  0  0  0  0  0  0
  1  2  2  0
  2  3  1  0
  3  4  2  0
  4  5  1  0
  5  6  2  3
  6  7  1  0
  7  8  1  0
  8  9  1  0
  9 10  2  0
  9 11  1  0
 11 12  1  0
 12 13  1  0
  5 14  1  0
 14 15  2  0
 15 16  1  0
 16 17  2  0
 16 18  1  0
 18 19  1  0
 19 20  1  0
 20 21  1  0
 21 22  2  0
 22 23  1  0
 23 24  2  0
 24 25  1  0
 25 26  1  0
 25 27  2  0
 15  2  1  0
 27 21  1  0
 12  7  2  0
  1 28  1  0
  1 29  1  0
  3 30  1  0
  4 31  1  0
  6 32  1  0
 14 33  1  0
 19 34  1  0
 19 35  1  0
 20 36  1  0
 20 37  1  0
 22 38  1  0
 23 39  1  0
 24 40  1  0
 26 41  1  0
 27 42  1  0
M  CHG  4   8  -1  11  -1  13  -1  18  -1
M  END
>  <UniqueID>  (53) 
51

>  <SMILES>  (53) 
C=c1ccc(=Cc2[n-]c(=O)[n-]c2[O-])cc1C(=O)[N-]CCc1cccc(O)c1

>  <Energy>  (53) 
84.70348571381861

>  <Genealogy>  (53) 
C=c1ccc(=Cc2[n-]c(=O)[n-]c2[O-])cc1C(=O)[N-]CCc1cccc(O)c1 (protonated)
C=c1ccc(=Cc2[n-]c(=O)[n-]c2[O-])cc1C(=O)[N-]CCc1cccc(O)c1 (3D coordinates assigned)
C=c1ccc(=Cc2[n-]c(=O)[n-]c2[O-])cc1C(=O)[N-]CCc1cccc(O)c1 (optimized conformer: 84.70348571381861 kcal/mol)

>  <smiles>  (53) 
C=c1ccc(=Cc2[nH]c(=O)[nH]c2O)cc1C(=O)NCCc1cccc(O)c1

>  <score_type>  (53) 
oracle

>  <origin>  (53) 
adg

>  <m_score__min__energy>  (53) 
-18.059999999999999

>  <m_primary>  (53) 
energy

$$$$
53:0
     RDKit          3D

 53 56  0  0  0  0  0  0  0  0999 V2000
   55.3630   29.0830   44.5770 O   0  0  0  0  0  0  0  0  0  0  0  0
   56.4800   29.6430   44.7340 C   0  0  0  0  0  0  0  0  0  0  0  0
   56.7000   30.9930   44.1210 C   0  0  0  0  0  0  0  0  0  0  0  0
   56.6000   32.0180   45.1600 N   0  0  0  0  0  0  0  0  0  0  0  0
   57.6810   33.3350   44.8130 S   0  0  0  0  0  0  0  0  0  0  0  0
   58.3900   33.0880   43.5090 O   0  0  0  0  0  0  0  0  0  0  0  0
   56.8740   34.5970   44.7030 O   0  0  0  0  0  0  0  0  0  0  0  0
   58.8670   33.5210   46.1130 C   0  0  0  0  0  0  0  0  0  0  0  0
   59.0640   34.7790   46.7040 C   0  0  0  0  0  0  0  0  0  0  0  0
   60.0070   34.9470   47.7200 C   0  0  0  0  0  0  0  0  0  0  0  0
   60.7710   33.8630   48.1570 C   0  0  0  0  0  0  0  0  0  0  0  0
   60.5950   32.6010   47.5760 C   0  0  0  0  0  0  0  0  0  0  0  0
   61.3530   31.4990   47.9940 C   0  0  0  0  0  0  0  0  0  0  0  0
   61.1570   30.2530   47.3950 C   0  0  0  0  0  0  0  0  0  0  0  0
   60.2080   30.1200   46.3830 C   0  0  0  0  0  0  0  0  0  0  0  0
   59.4790   31.1950   45.9840 N   0  0  0  0  0  0  0  0  0  0  0  0
   59.6390   32.4260   46.5470 C   0  0  0  0  0  0  0  0  0  0  0  0
   57.4640   28.9950   45.5550 N   0  0  0  0  0  0  0  0  0  0  0  0
   57.5560   27.6060   45.9100 C   0  0  0  0  0  0  0  0  0  0  0  0
   58.7480   27.1350   46.4750 C   0  0  0  0  0  0  0  0  0  0  0  0
   58.8650   25.8000   46.8770 C   0  0  0  0  0  0  0  0  0  0  0  0
   57.7870   24.9250   46.7230 C   0  0  0  0  0  0  0  0  0  0  0  0
   56.5820   25.3870   46.1780 C   0  0  0  0  0  0  0  0  0  0  0  0
   55.1980   24.3030   46.0330 S   0  0  0  0  0  0  0  0  0  0  0  0
   54.9330   23.6470   47.3620 O   0  0  0  0  0  0  0  0  0  0  0  0
   53.9840   25.1040   45.6470 O   0  0  0  0  0  0  0  0  0  0  0  0
   55.5200   23.0980   44.8120 N   0  0  0  0  0  0  0  0  0  0  0  0
   56.0320   23.7420   43.5870 C   0  0  0  0  0  0  0  0  0  0  0  0
   56.6340   22.7000   42.6240 C   0  0  0  0  0  0  0  0  0  0  0  0
   56.2270   21.3940   42.9780 O   0  0  0  0  0  0  0  0  0  0  0  0
   56.7630   21.0450   44.2430 C   0  0  0  0  0  0  0  0  0  0  0  0
   56.4950   22.1200   45.3180 C   0  0  0  0  0  0  0  0  0  0  0  0
   56.4630   26.7300   45.7940 C   0  0  0  0  0  0  0  0  0  0  0  0
   57.6995   31.0302   43.6632 H   0  0  0  0  0  0  0  0  0  0  0  0
   55.9382   31.1756   43.3488 H   0  0  0  0  0  0  0  0  0  0  0  0
   58.4702   35.6401   46.3637 H   0  0  0  0  0  0  0  0  0  0  0  0
   60.1486   35.9371   48.1779 H   0  0  0  0  0  0  0  0  0  0  0  0
   61.5118   34.0005   48.9584 H   0  0  0  0  0  0  0  0  0  0  0  0
   62.1008   31.6153   48.7923 H   0  0  0  0  0  0  0  0  0  0  0  0
   61.7470   29.3831   47.7193 H   0  0  0  0  0  0  0  0  0  0  0  0
   60.0487   29.1418   45.9058 H   0  0  0  0  0  0  0  0  0  0  0  0
   59.5989   27.8202   46.6037 H   0  0  0  0  0  0  0  0  0  0  0  0
   59.8072   25.4389   47.3150 H   0  0  0  0  0  0  0  0  0  0  0  0
   57.8843   23.8731   47.0297 H   0  0  0  0  0  0  0  0  0  0  0  0
   55.2050   24.2627   43.0820 H   0  0  0  0  0  0  0  0  0  0  0  0
   56.8212   24.4542   43.8697 H   0  0  0  0  0  0  0  0  0  0  0  0
   56.2959   22.9178   41.6001 H   0  0  0  0  0  0  0  0  0  0  0  0
   57.7308   22.7559   42.6857 H   0  0  0  0  0  0  0  0  0  0  0  0
   56.3074   20.0986   44.5698 H   0  0  0  0  0  0  0  0  0  0  0  0
   57.8531   20.9522   44.1290 H   0  0  0  0  0  0  0  0  0  0  0  0
   56.0945   21.6397   46.2229 H   0  0  0  0  0  0  0  0  0  0  0  0
   57.4362   22.6362   45.5581 H   0  0  0  0  0  0  0  0  0  0  0  0
   55.5061   27.1014   45.3985 H   0  0  0  0  0  0  0  0  0  0  0  0
  1  2  2  0
  2  3  1  0
  3  4  1  0
  4  5  1  0
  5  6  2  0
  5  7  2  0
  5  8  1  0
  8  9  2  0
  9 10  1  0
 10 11  2  0
 11 12  1  0
 12 13  2  0
 13 14  1  0
 14 15  2  0
 15 16  1  0
 16 17  2  0
  2 18  1  0
 18 19  1  0
 19 20  2  0
 20 21  1  0
 21 22  2  0
 22 23  1  0
 23 24  1  0
 24 25  2  0
 24 26  2  0
 24 27  1  0
 27 28  1  0
 28 29  1  0
 29 30  1  0
 30 31  1  0
 31 32  1  0
 23 33  2  0
 17  8  1  0
 33 19  1  0
 17 12  1  0
 32 27  1  0
  3 34  1  0
  3 35  1  0
  9 36  1  0
 10 37  1  0
 11 38  1  0
 13 39  1  0
 14 40  1  0
 15 41  1  0
 20 42  1  0
 21 43  1  0
 22 44  1  0
 28 45  1  0
 28 46  1  0
 29 47  1  0
 29 48  1  0
 31 49  1  0
 31 50  1  0
 32 51  1  0
 32 52  1  0
 33 53  1  0
M  CHG  2   4  -1  18  -1
M  END
>  <UniqueID>  (54) 
52

>  <SMILES>  (54) 
O=C(C[N-]S(=O)(=O)c1cccc2cccnc12)[N-]c1cccc(S(=O)(=O)N2CCOCC2)c1

>  <Energy>  (54) 
69.80650090918284

>  <Genealogy>  (54) 
O=C(C[N-]S(=O)(=O)c1cccc2cccnc12)[N-]c1cccc(S(=O)(=O)N2CCOCC2)c1 (protonated)
O=C(C[N-]S(=O)(=O)c1cccc2cccnc12)[N-]c1cccc(S(=O)(=O)N2CCOCC2)c1 (3D coordinates assigned)
O=C(C[N-]S(=O)(=O)c1cccc2cccnc12)[N-]c1cccc(S(=O)(=O)N2CCOCC2)c1 (nonaromatic ring conformer: 69.80650090918284 kcal/mol)

>  <smiles>  (54) 
O=C(CNS(=O)(=O)c1cccc2cccnc12)Nc1cccc(S(=O)(=O)N2CCOCC2)c1

>  <score_type>  (54) 
oracle

>  <origin>  (54) 
adg

>  <m_score__min__energy>  (54) 
-13.32

>  <m_primary>  (54) 
energy

$$$$
54:0
     RDKit          3D

 45 47  0  0  0  0  0  0  0  0999 V2000
   57.7580   31.9280   50.1800 N   0  0  0  0  0  0  0  0  0  0  0  0
   58.8890   32.5130   49.9980 C   0  0  0  0  0  0  0  0  0  0  0  0
   59.4930   32.5010   48.8050 N   0  0  0  0  0  0  0  0  0  0  0  0
   60.6790   33.1050   48.5830 C   0  0  0  0  0  0  0  0  0  0  0  0
   61.2530   33.0200   47.1950 C   0  0  0  0  0  0  0  0  0  0  0  0
   60.7590   34.2110   46.4030 C   0  0  0  0  0  0  0  0  0  0  0  0
   59.2860   34.2250   46.3400 C   0  0  0  0  0  0  0  0  0  0  0  0
   58.5920   34.9760   47.0600 O   0  0  0  0  0  0  0  0  0  0  0  0
   58.6430   33.3230   45.3990 C   0  0  0  0  0  0  0  0  0  0  0  0
   58.4280   33.3790   44.0600 C   0  0  0  0  0  0  0  0  0  0  0  0
   57.7810   32.3380   43.4950 C   0  0  0  0  0  0  0  0  0  0  0  0
   57.3920   31.3250   44.2620 C   0  0  0  0  0  0  0  0  0  0  0  0
   56.5340   29.8420   43.8110 S   0  0  0  0  0  0  0  0  0  0  0  0
   55.9170   30.0850   42.4890 O   0  0  0  0  0  0  0  0  0  0  0  0
   55.5160   29.6350   44.8720 O   0  0  0  0  0  0  0  0  0  0  0  0
   57.6840   28.6170   43.6950 N   0  0  0  0  0  0  0  0  0  0  0  0
   57.8620   27.7770   44.7930 C   0  0  0  0  0  0  0  0  0  0  0  0
   58.7800   28.4580   45.7740 C   0  0  0  0  0  0  0  0  0  0  0  0
   58.4190   28.4190   47.1210 C   0  0  0  0  0  0  0  0  0  0  0  0
   59.2100   29.0220   48.0820 C   0  0  0  0  0  0  0  0  0  0  0  0
   60.3650   29.6620   47.6670 C   0  0  0  0  0  0  0  0  0  0  0  0
   60.7330   29.7070   46.3330 C   0  0  0  0  0  0  0  0  0  0  0  0
   59.9330   29.0980   45.3630 C   0  0  0  0  0  0  0  0  0  0  0  0
   57.8960   31.7130   45.9120 S   0  0  0  0  0  0  0  0  0  0  0  0
   61.3290   33.7720   49.6010 C   0  0  0  0  0  0  0  0  0  0  0  0
   60.6860   33.7760   50.8420 C   0  0  0  0  0  0  0  0  0  0  0  0
   59.4920   33.1510   51.0100 N   0  0  0  0  0  0  0  0  0  0  0  0
   56.8620   32.4570   50.1130 H   0  0  0  0  0  0  0  0  0  0  0  0
   62.3517   33.0365   47.2452 H   0  0  0  0  0  0  0  0  0  0  0  0
   60.9362   32.0847   46.7104 H   0  0  0  0  0  0  0  0  0  0  0  0
   61.1078   35.1353   46.8868 H   0  0  0  0  0  0  0  0  0  0  0  0
   61.1545   34.1413   45.3789 H   0  0  0  0  0  0  0  0  0  0  0  0
   58.7669   34.2368   43.4605 H   0  0  0  0  0  0  0  0  0  0  0  0
   57.5784   32.3282   42.4139 H   0  0  0  0  0  0  0  0  0  0  0  0
   58.2700   28.5640   42.8750 H   0  0  0  0  0  0  0  0  0  0  0  0
   56.8907   27.5793   45.2699 H   0  0  0  0  0  0  0  0  0  0  0  0
   58.3001   26.8216   44.4686 H   0  0  0  0  0  0  0  0  0  0  0  0
   57.4953   27.9031   47.4220 H   0  0  0  0  0  0  0  0  0  0  0  0
   58.9294   28.9938   49.1452 H   0  0  0  0  0  0  0  0  0  0  0  0
   61.0072   30.1475   48.4165 H   0  0  0  0  0  0  0  0  0  0  0  0
   61.6577   30.2236   46.0361 H   0  0  0  0  0  0  0  0  0  0  0  0
   60.2139   29.1274   44.2999 H   0  0  0  0  0  0  0  0  0  0  0  0
   62.2966   34.2714   49.4450 H   0  0  0  0  0  0  0  0  0  0  0  0
   61.1531   34.2921   51.6937 H   0  0  0  0  0  0  0  0  0  0  0  0
   59.0370   33.1740   51.9610 H   0  0  0  0  0  0  0  0  0  0  0  0
  1  2  2  3
  2  3  1  0
  3  4  2  0
  4  5  1  0
  5  6  1  0
  6  7  1  0
  7  8  2  0
  7  9  1  0
  9 10  2  0
 10 11  1  0
 11 12  2  0
 12 13  1  0
 13 14  2  0
 13 15  2  0
 13 16  1  0
 16 17  1  0
 17 18  1  0
 18 19  2  0
 19 20  1  0
 20 21  2  0
 21 22  1  0
 22 23  2  0
 12 24  1  0
  4 25  1  0
 25 26  2  0
 26 27  1  0
 27  2  1  0
 24  9  1  0
 23 18  1  0
  1 28  1  0
  5 29  1  0
  5 30  1  0
  6 31  1  0
  6 32  1  0
 10 33  1  0
 11 34  1  0
 16 35  1  0
 17 36  1  0
 17 37  1  0
 19 38  1  0
 20 39  1  0
 21 40  1  0
 22 41  1  0
 23 42  1  0
 25 43  1  0
 26 44  1  0
 27 45  1  0
M  END
>  <smiles>  (55) 
N=c1nc(CCC(=O)c2ccc(S(=O)(=O)NCc3ccccc3)s2)cc[nH]1

>  <score_type>  (55) 
oracle

>  <origin>  (55) 
adg

>  <m_score__min__energy>  (55) 
-9.7300000000000004

>  <m_primary>  (55) 
energy

$$$$
55:0
     RDKit          3D

 44 46  0  0  0  0  0  0  0  0999 V2000
   56.3370   30.6420   44.5040 O   0  0  0  0  0  0  0  0  0  0  0  0
   57.5640   30.8230   44.7330 C   0  0  0  0  0  0  0  0  0  0  0  0
   58.5240   29.6970   44.4490 C   0  0  0  0  0  0  0  0  0  0  0  0
   58.0620   28.4030   45.0660 C   0  0  0  0  0  0  0  0  0  0  0  0
   59.0000   27.4530   45.5050 C   0  0  0  0  0  0  0  0  0  0  0  0
   58.5740   26.2610   46.0990 C   0  0  0  0  0  0  0  0  0  0  0  0
   57.2100   26.0080   46.2620 C   0  0  0  0  0  0  0  0  0  0  0  0
   56.2690   26.9520   45.8380 C   0  0  0  0  0  0  0  0  0  0  0  0
   54.9120   26.7030   46.0070 O   0  0  0  0  0  0  0  0  0  0  0  0
   56.6910   28.1460   45.2460 C   0  0  0  0  0  0  0  0  0  0  0  0
   58.0220   32.1420   45.2300 C   0  0  0  0  0  0  0  0  0  0  0  0
   57.4090   33.3140   44.7550 C   0  0  0  0  0  0  0  0  0  0  0  0
   57.8570   34.5670   45.1780 C   0  0  0  0  0  0  0  0  0  0  0  0
   58.9040   34.6630   46.0950 C   0  0  0  0  0  0  0  0  0  0  0  0
   59.4980   33.5090   46.6170 C   0  0  0  0  0  0  0  0  0  0  0  0
   60.5240   33.6640   47.6080 N   0  0  0  0  0  0  0  0  0  0  0  0
   62.2220   33.3610   47.3960 S   0  0  0  0  0  0  0  0  0  0  0  0
   62.6890   33.8370   46.0500 O   0  0  0  0  0  0  0  0  0  0  0  0
   62.9700   34.1290   48.4490 O   0  0  0  0  0  0  0  0  0  0  0  0
   62.5890   31.6240   47.6150 C   0  0  0  0  0  0  0  0  0  0  0  0
   61.4250   30.8910   48.2200 C   0  0  0  0  0  0  0  0  0  0  0  0
   61.0030   31.1860   49.5260 C   0  0  0  0  0  0  0  0  0  0  0  0
   59.9480   30.4730   50.1030 C   0  0  0  0  0  0  0  0  0  0  0  0
   59.3140   29.4540   49.3870 C   0  0  0  0  0  0  0  0  0  0  0  0
   59.7270   29.1560   48.0850 C   0  0  0  0  0  0  0  0  0  0  0  0
   60.7730   29.8740   47.5000 C   0  0  0  0  0  0  0  0  0  0  0  0
   59.0620   32.2490   46.1700 C   0  0  0  0  0  0  0  0  0  0  0  0
   58.6054   29.5638   43.3601 H   0  0  0  0  0  0  0  0  0  0  0  0
   59.4984   29.9578   44.8878 H   0  0  0  0  0  0  0  0  0  0  0  0
   60.0754   27.6482   45.3806 H   0  0  0  0  0  0  0  0  0  0  0  0
   59.3141   25.5214   46.4384 H   0  0  0  0  0  0  0  0  0  0  0  0
   56.8761   25.0670   46.7235 H   0  0  0  0  0  0  0  0  0  0  0  0
   55.9474   28.8879   44.9195 H   0  0  0  0  0  0  0  0  0  0  0  0
   56.5712   33.2438   44.0457 H   0  0  0  0  0  0  0  0  0  0  0  0
   57.3836   35.4799   44.7876 H   0  0  0  0  0  0  0  0  0  0  0  0
   59.2651   35.6532   46.4098 H   0  0  0  0  0  0  0  0  0  0  0  0
   62.8213   31.1808   46.6354 H   0  0  0  0  0  0  0  0  0  0  0  0
   63.4475   31.5343   48.2968 H   0  0  0  0  0  0  0  0  0  0  0  0
   61.5043   31.9811   50.0974 H   0  0  0  0  0  0  0  0  0  0  0  0
   59.6160   30.7147   51.1235 H   0  0  0  0  0  0  0  0  0  0  0  0
   58.4912   28.8872   49.8472 H   0  0  0  0  0  0  0  0  0  0  0  0
   59.2276   28.3549   47.5203 H   0  0  0  0  0  0  0  0  0  0  0  0
   61.0880   29.6428   46.4717 H   0  0  0  0  0  0  0  0  0  0  0  0
   59.5395   31.3379   46.5597 H   0  0  0  0  0  0  0  0  0  0  0  0
  1  2  2  0
  2  3  1  0
  3  4  1  0
  4  5  2  0
  5  6  1  0
  6  7  2  0
  7  8  1  0
  8  9  1  0
  8 10  2  0
  2 11  1  0
 11 12  2  0
 12 13  1  0
 13 14  2  0
 14 15  1  0
 15 16  1  0
 16 17  1  0
 17 18  2  0
 17 19  2  0
 17 20  1  0
 20 21  1  0
 21 22  2  0
 22 23  1  0
 23 24  2  0
 24 25  1  0
 25 26  2  0
 15 27  2  0
 10  4  1  0
 27 11  1  0
 26 21  1  0
  3 28  1  0
  3 29  1  0
  5 30  1  0
  6 31  1  0
  7 32  1  0
 10 33  1  0
 12 34  1  0
 13 35  1  0
 14 36  1  0
 20 37  1  0
 20 38  1  0
 22 39  1  0
 23 40  1  0
 24 41  1  0
 25 42  1  0
 26 43  1  0
 27 44  1  0
M  CHG  2   9  -1  16  -1
M  END
>  <UniqueID>  (56) 
53

>  <SMILES>  (56) 
O=C(Cc1cccc([O-])c1)c1cccc([N-]S(=O)(=O)Cc2ccccc2)c1

>  <Energy>  (56) 
41.68338133142774

>  <Genealogy>  (56) 
O=C(Cc1cccc([O-])c1)c1cccc([N-]S(=O)(=O)Cc2ccccc2)c1 (protonated)
O=C(Cc1cccc([O-])c1)c1cccc([N-]S(=O)(=O)Cc2ccccc2)c1 (3D coordinates assigned)
O=C(Cc1cccc([O-])c1)c1cccc([N-]S(=O)(=O)Cc2ccccc2)c1 (optimized conformer: 41.68338133142774 kcal/mol)

>  <smiles>  (56) 
O=C(Cc1cccc(O)c1)c1cccc(NS(=O)(=O)Cc2ccccc2)c1

>  <score_type>  (56) 
oracle

>  <origin>  (56) 
adg

>  <m_score__min__energy>  (56) 
-13.93

>  <m_primary>  (56) 
energy

$$$$
56:0
     RDKit          3D

 65 68  0  0  0  0  0  0  0  0999 V2000
   61.3815   26.1662   48.7088 H   0  0  0  0  0  0  0  0  0  0  0  0
   60.7330   26.7430   48.0330 C   0  0  0  0  0  0  0  0  0  0  0  0
   59.6700   27.4860   48.5510 C   0  0  0  0  0  0  0  0  0  0  0  0
   59.4776   27.4873   49.6340 H   0  0  0  0  0  0  0  0  0  0  0  0
   58.8500   28.2280   47.6960 C   0  0  0  0  0  0  0  0  0  0  0  0
   58.0078   28.8034   48.1078 H   0  0  0  0  0  0  0  0  0  0  0  0
   59.0970   28.2420   46.3120 C   0  0  0  0  0  0  0  0  0  0  0  0
   58.1930   28.9900   45.4170 C   0  0  0  0  0  0  0  0  0  0  0  0
   57.7920   30.2530   45.7320 N   0  0  0  0  0  0  0  0  0  0  0  0
   56.9960   30.7820   44.7780 C   0  0  0  0  0  0  0  0  0  0  0  0
   56.4840   31.9760   44.8280 N   0  0  0  0  0  0  0  0  0  0  0  0
   57.2220   33.2070   44.8650 C   0  0  0  0  0  0  0  0  0  0  0  0
   56.6470   34.3080   45.0870 O   0  0  0  0  0  0  0  0  0  0  0  0
   58.7040   33.1810   44.6690 C   0  0  0  0  0  0  0  0  0  0  0  0
   59.0190   32.1552   44.4272 H   0  0  0  0  0  0  0  0  0  0  0  0
   58.9655   33.8625   43.8461 H   0  0  0  0  0  0  0  0  0  0  0  0
   59.4100   33.6340   45.9180 C   0  0  0  0  0  0  0  0  0  0  0  0
   58.6870   34.1700   46.9940 C   0  0  0  0  0  0  0  0  0  0  0  0
   57.5920   34.2537   46.9303 H   0  0  0  0  0  0  0  0  0  0  0  0
   59.3510   34.5980   48.1460 C   0  0  0  0  0  0  0  0  0  0  0  0
   58.7781   35.0211   48.9843 H   0  0  0  0  0  0  0  0  0  0  0  0
   60.7410   34.4900   48.2360 C   0  0  0  0  0  0  0  0  0  0  0  0
   61.2595   34.8363   49.1423 H   0  0  0  0  0  0  0  0  0  0  0  0
   61.4800   33.9410   47.1740 C   0  0  0  0  0  0  0  0  0  0  0  0
   62.9770   33.8010   47.2820 C   0  0  0  0  0  0  0  0  0  0  0  0
   63.4051   33.7394   46.2706 H   0  0  0  0  0  0  0  0  0  0  0  0
   63.3701   34.6774   47.8180 H   0  0  0  0  0  0  0  0  0  0  0  0
   63.3570   32.5610   48.0530 C   0  0  0  0  0  0  0  0  0  0  0  0
   64.1290   32.6720   49.0430 O   0  0  0  0  0  0  0  0  0  0  0  0
   62.9400   31.2460   47.6630 N   0  0  0  0  0  0  0  0  0  0  0  0
   61.5700   30.7760   47.4890 C   0  0  0  0  0  0  0  0  0  0  0  0
   61.1557   31.1985   46.5617 H   0  0  0  0  0  0  0  0  0  0  0  0
   61.5713   29.6774   47.4327 H   0  0  0  0  0  0  0  0  0  0  0  0
   60.7230   31.2070   48.6530 C   0  0  0  0  0  0  0  0  0  0  0  0
   59.3240   31.1390   48.5860 C   0  0  0  0  0  0  0  0  0  0  0  0
   58.8301   30.7659   47.6767 H   0  0  0  0  0  0  0  0  0  0  0  0
   58.5640   31.5480   49.6810 C   0  0  0  0  0  0  0  0  0  0  0  0
   57.4657   31.5086   49.6346 H   0  0  0  0  0  0  0  0  0  0  0  0
   59.1980   32.0070   50.8350 C   0  0  0  0  0  0  0  0  0  0  0  0
   58.6043   32.3395   51.6993 H   0  0  0  0  0  0  0  0  0  0  0  0
   60.5970   32.0410   50.8840 C   0  0  0  0  0  0  0  0  0  0  0  0
   61.3030   32.5230   52.1130 C   0  0  0  0  0  0  0  0  0  0  0  0
   60.7728   32.1610   53.0062 H   0  0  0  0  0  0  0  0  0  0  0  0
   62.3339   32.1393   52.1179 H   0  0  0  0  0  0  0  0  0  0  0  0
   61.3211   33.6228   52.1179 H   0  0  0  0  0  0  0  0  0  0  0  0
   61.3230   31.6550   49.7950 N   0  0  0  0  0  0  0  0  0  0  0  0
   62.3670   31.6980   49.8390 H   0  0  0  0  0  0  0  0  0  0  0  0
   60.8050   33.5090   46.0200 C   0  0  0  0  0  0  0  0  0  0  0  0
   61.3747   33.0686   45.1884 H   0  0  0  0  0  0  0  0  0  0  0  0
   56.7630   29.7300   43.4950 S   0  0  0  0  0  0  0  0  0  0  0  0
   57.7090   28.5170   44.1860 C   0  0  0  0  0  0  0  0  0  0  0  0
   58.1370   27.2820   43.4460 C   0  0  0  0  0  0  0  0  0  0  0  0
   59.2295   27.2967   43.3184 H   0  0  0  0  0  0  0  0  0  0  0  0
   57.6409   27.2655   42.4644 H   0  0  0  0  0  0  0  0  0  0  0  0
   57.7370   26.0240   44.2250 C   0  0  0  0  0  0  0  0  0  0  0  0
   56.8673   26.2551   44.8576 H   0  0  0  0  0  0  0  0  0  0  0  0
   58.5922   25.7093   44.8411 H   0  0  0  0  0  0  0  0  0  0  0  0
   57.3760   24.8820   43.2810 C   0  0  0  0  0  0  0  0  0  0  0  0
   57.0957   23.9953   43.8685 H   0  0  0  0  0  0  0  0  0  0  0  0
   56.5296   25.1842   42.6468 H   0  0  0  0  0  0  0  0  0  0  0  0
   58.2423   24.6428   42.6468 H   0  0  0  0  0  0  0  0  0  0  0  0
   60.1550   27.4730   45.7970 C   0  0  0  0  0  0  0  0  0  0  0  0
   60.3407   27.4537   44.7130 H   0  0  0  0  0  0  0  0  0  0  0  0
   60.9730   26.7320   46.6570 C   0  0  0  0  0  0  0  0  0  0  0  0
   61.8058   26.1403   46.2491 H   0  0  0  0  0  0  0  0  0  0  0  0
  1  2  1  0
  2  3  2  0
  3  4  1  0
  3  5  1  0
  5  6  1  0
  5  7  2  0
  7  8  1  0
  8  9  1  0
  9 10  1  0
 10 11  2  0
 11 12  1  0
 12 13  2  0
 12 14  1  0
 14 15  1  0
 14 16  1  0
 14 17  1  0
 17 18  2  0
 18 19  1  0
 18 20  1  0
 20 21  1  0
 20 22  2  0
 22 23  1  0
 22 24  1  0
 24 25  1  0
 25 26  1  0
 25 27  1  0
 25 28  1  0
 28 29  2  0
 28 30  1  0
 30 31  1  0
 31 32  1  0
 31 33  1  0
 31 34  1  0
 34 35  2  0
 35 36  1  0
 35 37  1  0
 37 38  1  0
 37 39  2  0
 39 40  1  0
 39 41  1  0
 41 42  1  0
 42 43  1  0
 42 44  1  0
 42 45  1  0
 41 46  2  0
 46 47  1  0
 24 48  2  0
 48 49  1  0
 10 50  1  0
 50 51  1  0
 51 52  1  0
 52 53  1  0
 52 54  1  0
 52 55  1  0
 55 56  1  0
 55 57  1  0
 55 58  1  0
 58 59  1  0
 58 60  1  0
 58 61  1  0
  7 62  1  0
 62 63  1  0
 62 64  2  0
 64 65  1  0
 64  2  1  0
 51  8  2  0
 48 17  1  0
 46 34  1  0
M  CHG  3   9  -1  30  -1  46   1
M  END
>  <UniqueID>  (57) 
54

>  <SMILES>  (57) 
CCCc1s/c(=N/C(=O)Cc2cccc(CC(=O)[N-]Cc3cccc(C)[nH+]3)c2)[n-]c1-c1ccccc1

>  <Energy>  (57) 
90.16585121942207

>  <Genealogy>  (57) 
CCCc1sc(=NC(=O)Cc2cccc(CC(=O)[N-]Cc3cccc(C)[nH+]3)c2)[n-]c1-c1ccccc1 (protonated)
CCCc1s/c(=N/C(=O)Cc2cccc(CC(=O)[N-]Cc3cccc(C)[nH+]3)c2)[n-]c1-c1ccccc1 (cis-trans isomerization)
CCCc1s/c(=N/C(=O)Cc2cccc(CC(=O)[N-]Cc3cccc(C)[nH+]3)c2)[n-]c1-c1ccccc1 (3D coordinates assigned)
CCCc1s/c(=N/C(=O)Cc2cccc(CC(=O)[N-]Cc3cccc(C)[nH+]3)c2)[n-]c1-c1ccccc1 (optimized conformer: 90.16585121942207 kcal/mol)

>  <smiles>  (57) 
CCCc1sc(=NC(=O)Cc2cccc(CC(=O)NCc3cccc(C)n3)c2)[nH]c1-c1ccccc1

>  <score_type>  (57) 
oracle

>  <origin>  (57) 
adg

>  <m_score__min__energy>  (57) 
-12.539999999999999

>  <m_primary>  (57) 
energy

$$$$
57:0
     RDKit          3D

 48 51  0  0  1  0  0  0  0  0999 V2000
   60.0850   29.3990   46.0710 O   0  0  0  0  0  0  0  0  0  0  0  0
   58.9760   29.8490   46.5440 C   0  0  0  0  0  0  0  0  0  0  0  0
   58.9810   30.2140   47.8880 N   0  0  0  0  0  0  0  0  0  0  0  0
   60.0230   30.5230   48.5710 C   0  0  0  0  0  0  0  0  0  0  0  0
   60.1920   31.4810   49.4950 N   0  0  0  0  0  0  0  0  0  0  0  0
   61.4370   31.4750   49.9750 C   0  0  0  0  0  0  0  0  0  0  0  0
   62.0550   32.5950   51.2160 S   0  0  0  0  0  0  0  0  0  0  0  0
   62.4680   34.1860   50.4930 C   0  0  0  0  0  0  0  0  0  0  0  0
   62.3070   34.0750   49.0160 C   0  0  0  0  0  0  0  0  0  0  0  0
   63.3590   33.7790   48.1790 C   0  0  0  0  0  0  0  0  0  0  0  0
   63.0870   33.7010   46.8300 C   0  0  0  0  0  0  0  0  0  0  0  0
   61.8040   33.9120   46.3410 C   0  0  0  0  0  0  0  0  0  0  0  0
   60.7480   34.2070   47.1750 C   0  0  0  0  0  0  0  0  0  0  0  0
   61.0300   34.2830   48.5270 C   0  0  0  0  0  0  0  0  0  0  0  0
   59.9890   34.5770   49.3640 F   0  0  0  0  0  0  0  0  0  0  0  0
   62.0760   30.4750   49.3310 N   0  0  0  0  0  0  0  0  0  0  0  0
   61.2180   29.9040   48.4850 N   0  0  0  0  0  0  0  0  0  0  0  0
   57.8790   29.9180   45.6220 C   0  0  0  0  0  0  0  0  0  0  0  0
   57.6890   30.9150   44.6860 C   0  0  0  0  0  0  0  0  0  0  0  0
   56.5840   30.8820   43.8270 C   0  0  0  0  0  0  0  0  0  0  0  0
   55.6660   29.8520   43.9020 C   0  0  0  0  0  0  0  0  0  0  0  0
   55.8700   28.8860   44.8250 N   0  0  0  0  0  0  0  0  0  0  0  0
   56.9330   28.9120   45.6560 C   0  0  0  0  0  0  0  0  0  0  0  0
   57.0570   27.9620   46.5090 N   0  0  0  0  0  0  0  0  0  0  0  0
   57.2220   26.5880   46.1920 C   0  0  0  0  0  0  0  0  0  0  0  0
   58.4680   25.9990   46.0710 C   0  0  0  0  0  0  0  0  0  0  0  0
   58.4900   24.6590   45.7520 C   0  0  0  0  0  0  0  0  0  0  0  0
   57.3910   23.8770   45.5480 C   0  0  0  0  0  0  0  0  0  0  0  0
   56.1480   24.4790   45.6720 C   0  0  0  0  0  0  0  0  0  0  0  0
   56.0630   25.8320   45.9940 C   0  0  0  0  0  0  0  0  0  0  0  0
   54.8250   26.4680   46.1270 O   0  0  0  0  0  0  0  0  0  0  0  0
   61.7929   34.9610   50.8851 H   0  0  0  0  0  0  0  0  0  0  0  0
   63.5019   34.4641   50.7453 H   0  0  0  0  0  0  0  0  0  0  0  0
   64.3735   33.6118   48.5701 H   0  0  0  0  0  0  0  0  0  0  0  0
   63.9008   33.4674   46.1278 H   0  0  0  0  0  0  0  0  0  0  0  0
   61.6263   33.8416   45.2577 H   0  0  0  0  0  0  0  0  0  0  0  0
   59.7327   34.3736   46.7858 H   0  0  0  0  0  0  0  0  0  0  0  0
   63.0790   30.2150   49.4890 H   0  0  0  0  0  0  0  0  0  0  0  0
   61.4090   29.0970   47.8360 H   0  0  0  0  0  0  0  0  0  0  0  0
   58.4113   31.7415   44.6147 H   0  0  0  0  0  0  0  0  0  0  0  0
   56.4454   31.6830   43.0859 H   0  0  0  0  0  0  0  0  0  0  0  0
   54.7953   29.8192   43.2306 H   0  0  0  0  0  0  0  0  0  0  0  0
   55.1570   28.1220   44.8490 H   0  0  0  0  0  0  0  0  0  0  0  0
   59.3948   26.5720   46.2220 H   0  0  0  0  0  0  0  0  0  0  0  0
   59.4753   24.1800   45.6536 H   0  0  0  0  0  0  0  0  0  0  0  0
   57.4871   22.8108   45.2951 H   0  0  0  0  0  0  0  0  0  0  0  0
   55.2319   23.8903   45.5166 H   0  0  0  0  0  0  0  0  0  0  0  0
   54.7330   27.4640   46.3560 H   0  0  0  0  0  0  0  0  0  0  0  0
  1  2  2  0
  2  3  1  0
  3  4  2  0
  4  5  1  0
  5  6  2  0
  6  7  1  0
  7  8  1  0
  8  9  1  0
  9 10  2  0
 10 11  1  0
 11 12  2  0
 12 13  1  0
 13 14  2  0
 14 15  1  0
  6 16  1  0
 16 17  1  0
  2 18  1  0
 18 19  2  0
 19 20  1  0
 20 21  2  0
 21 22  1  0
 22 23  1  0
 23 24  2  0
 24 25  1  0
 25 26  2  0
 26 27  1  0
 27 28  2  0
 28 29  1  0
 29 30  2  0
 30 31  1  0
 17  4  1  0
 23 18  1  0
 30 25  1  0
 14  9  1  0
  8 32  1  0
  8 33  1  0
 10 34  1  0
 11 35  1  0
 12 36  1  0
 13 37  1  0
 16 38  1  0
 17 39  1  0
 19 40  1  0
 20 41  1  0
 21 42  1  0
 22 43  1  0
 26 44  1  0
 27 45  1  0
 28 46  1  0
 29 47  1  0
 31 48  1  0
M  END
>  <smiles>  (58) 
O=C(N=c1nc(SCc2ccccc2F)[nH][nH]1)c1ccc[nH]c1=Nc1ccccc1O

>  <score_type>  (58) 
oracle

>  <origin>  (58) 
adg

>  <m_score__min__energy>  (58) 
-10.73

>  <m_primary>  (58) 
energy

$$$$
58:0
     RDKit          3D

 51 52  0  0  0  0  0  0  0  0999 V2000
   59.9470   34.2890   48.1630 O   0  0  0  0  0  0  0  0  0  0  0  0
   59.1320   33.3870   48.4920 C   0  0  0  0  0  0  0  0  0  0  0  0
   58.3460   32.6840   47.4510 C   0  0  0  0  0  0  0  0  0  0  0  0
   58.8310   31.7480   46.6230 C   0  0  0  0  0  0  0  0  0  0  0  0
   58.1030   31.1640   45.4750 C   0  0  0  0  0  0  0  0  0  0  0  0
   58.2550   31.6790   44.1750 C   0  0  0  0  0  0  0  0  0  0  0  0
   57.5260   31.1370   43.1130 C   0  0  0  0  0  0  0  0  0  0  0  0
   56.6210   30.0900   43.3400 C   0  0  0  0  0  0  0  0  0  0  0  0
   55.8950   29.5420   42.2840 O   0  0  0  0  0  0  0  0  0  0  0  0
   56.4440   29.5960   44.6380 C   0  0  0  0  0  0  0  0  0  0  0  0
   55.5410   28.5660   44.8750 O   0  0  0  0  0  0  0  0  0  0  0  0
   57.1740   30.1380   45.7020 C   0  0  0  0  0  0  0  0  0  0  0  0
   59.0360   33.0240   49.8750 N   0  0  0  0  0  0  0  0  0  0  0  0
   58.7660   31.6820   50.3840 C   0  0  0  0  0  0  0  0  0  0  0  0
   57.5440   31.6930   51.3130 C   0  0  0  0  0  0  0  0  0  0  0  0
   57.9320   31.6970   52.8000 C   0  0  0  0  0  0  0  0  0  0  0  0
   57.1300   30.6770   53.6230 C   0  0  0  0  0  0  0  0  0  0  0  0
   57.1200   29.2920   52.9630 C   0  0  0  0  0  0  0  0  0  0  0  0
   55.8340   29.0220   52.3260 N   0  0  0  0  0  0  0  0  0  0  0  0
   54.5820   28.8140   52.9930 C   0  0  0  0  0  0  0  0  0  0  0  0
   54.1270   27.6430   53.0680 O   0  0  0  0  0  0  0  0  0  0  0  0
   53.7630   29.9440   53.5560 C   0  0  0  0  0  0  0  0  0  0  0  0
   52.9250   30.5690   52.4740 C   0  0  0  0  0  0  0  0  0  0  0  0
   52.9430   30.0410   51.1720 C   0  0  0  0  0  0  0  0  0  0  0  0
   52.1880   30.6380   50.1580 C   0  0  0  0  0  0  0  0  0  0  0  0
   51.4150   31.7700   50.4320 C   0  0  0  0  0  0  0  0  0  0  0  0
   50.6670   32.3590   49.4190 O   0  0  0  0  0  0  0  0  0  0  0  0
   51.3980   32.3090   51.7240 C   0  0  0  0  0  0  0  0  0  0  0  0
   50.6350   33.4370   52.0010 O   0  0  0  0  0  0  0  0  0  0  0  0
   52.1530   31.7130   52.7410 C   0  0  0  0  0  0  0  0  0  0  0  0
   57.2836   32.9505   47.3500 H   0  0  0  0  0  0  0  0  0  0  0  0
   59.8520   31.3851   46.8122 H   0  0  0  0  0  0  0  0  0  0  0  0
   58.9505   32.5117   43.9935 H   0  0  0  0  0  0  0  0  0  0  0  0
   57.6625   31.5329   42.0958 H   0  0  0  0  0  0  0  0  0  0  0  0
   55.2400   28.7830   42.4290 H   0  0  0  0  0  0  0  0  0  0  0  0
   57.0183   29.7572   46.7221 H   0  0  0  0  0  0  0  0  0  0  0  0
   58.5709   31.0068   49.5378 H   0  0  0  0  0  0  0  0  0  0  0  0
   59.6413   31.3354   50.9530 H   0  0  0  0  0  0  0  0  0  0  0  0
   56.9490   32.5937   51.1018 H   0  0  0  0  0  0  0  0  0  0  0  0
   56.9711   30.7739   51.1207 H   0  0  0  0  0  0  0  0  0  0  0  0
   59.0018   31.4555   52.8856 H   0  0  0  0  0  0  0  0  0  0  0  0
   57.7084   32.6971   53.1998 H   0  0  0  0  0  0  0  0  0  0  0  0
   57.5821   30.5917   54.6222 H   0  0  0  0  0  0  0  0  0  0  0  0
   56.0908   31.0319   53.6875 H   0  0  0  0  0  0  0  0  0  0  0  0
   57.9134   29.2510   52.2021 H   0  0  0  0  0  0  0  0  0  0  0  0
   57.2905   28.5332   53.7410 H   0  0  0  0  0  0  0  0  0  0  0  0
   53.1044   29.5561   54.3471 H   0  0  0  0  0  0  0  0  0  0  0  0
   54.4400   30.7057   53.9702 H   0  0  0  0  0  0  0  0  0  0  0  0
   53.5540   29.1538   50.9495 H   0  0  0  0  0  0  0  0  0  0  0  0
   52.2023   30.2160   49.1423 H   0  0  0  0  0  0  0  0  0  0  0  0
   52.1421   32.1419   53.7539 H   0  0  0  0  0  0  0  0  0  0  0  0
  1  2  2  0
  2  3  1  0
  3  4  2  3
  4  5  1  0
  5  6  2  0
  6  7  1  0
  7  8  2  0
  8  9  1  0
  8 10  1  0
 10 11  1  0
 10 12  2  0
  2 13  1  0
 13 14  1  0
 14 15  1  0
 15 16  1  0
 16 17  1  0
 17 18  1  0
 18 19  1  0
 19 20  1  0
 20 21  2  0
 20 22  1  0
 22 23  1  0
 23 24  2  0
 24 25  1  0
 25 26  2  0
 26 27  1  0
 26 28  1  0
 28 29  1  0
 28 30  2  0
 12  5  1  0
 30 23  1  0
  3 31  1  0
  4 32  1  0
  6 33  1  0
  7 34  1  0
  9 35  1  0
 12 36  1  0
 14 37  1  0
 14 38  1  0
 15 39  1  0
 15 40  1  0
 16 41  1  0
 16 42  1  0
 17 43  1  0
 17 44  1  0
 18 45  1  0
 18 46  1  0
 22 47  1  0
 22 48  1  0
 24 49  1  0
 25 50  1  0
 30 51  1  0
M  CHG  5  11  -1  13  -1  19  -1  27  -1  29  -1
M  END
>  <UniqueID>  (59) 
55

>  <SMILES>  (59) 
O=C(C=Cc1ccc(O)c([O-])c1)[N-]CCCCC[N-]C(=O)Cc1ccc([O-])c([O-])c1

>  <Energy>  (59) 
48.824854966818144

>  <Genealogy>  (59) 
O=C(C=Cc1ccc(O)c([O-])c1)[N-]CCCCC[N-]C(=O)Cc1ccc([O-])c([O-])c1 (protonated)
O=C(C=Cc1ccc(O)c([O-])c1)[N-]CCCCC[N-]C(=O)Cc1ccc([O-])c([O-])c1 (3D coordinates assigned)
O=C(C=Cc1ccc(O)c([O-])c1)[N-]CCCCC[N-]C(=O)Cc1ccc([O-])c([O-])c1 (optimized conformer: 48.824854966818144 kcal/mol)

>  <smiles>  (59) 
O=C(C=Cc1ccc(O)c(O)c1)NCCCCCNC(=O)Cc1ccc(O)c(O)c1

>  <score_type>  (59) 
oracle

>  <origin>  (59) 
adg

>  <m_score__min__energy>  (59) 
-23.289999999999999

>  <m_primary>  (59) 
energy

$$$$
59:0
     RDKit          3D

 37 39  0  0  0  0  0  0  0  0999 V2000
   58.6718   29.2857   47.1786 H   0  0  0  0  0  0  0  0  0  0  0  0
   57.9860   29.5430   46.3580 C   0  0  0  0  0  0  0  0  0  0  0  0
   58.0010   30.7950   45.8270 N   0  0  0  0  0  0  0  0  0  0  0  0
   57.1820   31.1570   44.8000 C   0  0  0  0  0  0  0  0  0  0  0  0
   57.1970   32.3670   44.3190 N   0  0  0  0  0  0  0  0  0  0  0  0
   57.4120   33.5750   45.0680 C   0  0  0  0  0  0  0  0  0  0  0  0
   56.6680   34.5640   44.8370 O   0  0  0  0  0  0  0  0  0  0  0  0
   58.5210   33.7140   46.0440 C   0  0  0  0  0  0  0  0  0  0  0  0
   59.7990   34.1110   45.6110 C   0  0  0  0  0  0  0  0  0  0  0  0
   59.9768   34.3103   44.5439 H   0  0  0  0  0  0  0  0  0  0  0  0
   60.8450   34.2540   46.5280 C   0  0  0  0  0  0  0  0  0  0  0  0
   61.8434   34.5567   46.1794 H   0  0  0  0  0  0  0  0  0  0  0  0
   60.6240   34.0130   47.8860 C   0  0  0  0  0  0  0  0  0  0  0  0
   61.9380   34.1940   49.0340 Cl  0  0  0  0  0  0  0  0  0  0  0  0
   59.3540   33.6310   48.3290 C   0  0  0  0  0  0  0  0  0  0  0  0
   59.1802   33.4438   49.3989 H   0  0  0  0  0  0  0  0  0  0  0  0
   58.3040   33.4860   47.4170 C   0  0  0  0  0  0  0  0  0  0  0  0
   57.0850   33.0990   47.8720 F   0  0  0  0  0  0  0  0  0  0  0  0
   56.2880   30.2200   44.2710 C   0  0  0  0  0  0  0  0  0  0  0  0
   55.6138   30.5003   43.4483 H   0  0  0  0  0  0  0  0  0  0  0  0
   56.2580   28.9270   44.7950 C   0  0  0  0  0  0  0  0  0  0  0  0
   55.5729   28.1792   44.3691 H   0  0  0  0  0  0  0  0  0  0  0  0
   57.0950   28.5780   45.8590 C   0  0  0  0  0  0  0  0  0  0  0  0
   57.0560   27.2340   46.3620 N   0  0  0  0  0  0  0  0  0  0  0  0
   56.1880   26.1800   45.9240 C   0  0  0  0  0  0  0  0  0  0  0  0
   54.9380   26.3310   45.9860 O   0  0  0  0  0  0  0  0  0  0  0  0
   56.7510   24.9320   45.3440 C   0  0  0  0  0  0  0  0  0  0  0  0
   56.0670   24.2780   44.2990 C   0  0  0  0  0  0  0  0  0  0  0  0
   55.1225   24.6960   43.9206 H   0  0  0  0  0  0  0  0  0  0  0  0
   56.5780   23.1030   43.7390 C   0  0  0  0  0  0  0  0  0  0  0  0
   56.0357   22.6032   42.9228 H   0  0  0  0  0  0  0  0  0  0  0  0
   57.7740   22.5630   44.2130 C   0  0  0  0  0  0  0  0  0  0  0  0
   58.1736   21.6384   43.7708 H   0  0  0  0  0  0  0  0  0  0  0  0
   58.4630   23.1960   45.2480 C   0  0  0  0  0  0  0  0  0  0  0  0
   59.4054   22.7679   45.6202 H   0  0  0  0  0  0  0  0  0  0  0  0
   57.9610   24.3730   45.8150 C   0  0  0  0  0  0  0  0  0  0  0  0
   58.6630   24.9520   46.8220 F   0  0  0  0  0  0  0  0  0  0  0  0
  1  2  1  0
  2  3  1  0
  3  4  1  0
  4  5  2  0
  5  6  1  0
  6  7  2  0
  6  8  1  0
  8  9  2  0
  9 10  1  0
  9 11  1  0
 11 12  1  0
 11 13  2  0
 13 14  1  0
 13 15  1  0
 15 16  1  0
 15 17  2  0
 17 18  1  0
  4 19  1  0
 19 20  1  0
 19 21  2  0
 21 22  1  0
 21 23  1  0
 23 24  1  0
 24 25  1  0
 25 26  2  0
 25 27  1  0
 27 28  2  0
 28 29  1  0
 28 30  1  0
 30 31  1  0
 30 32  2  0
 32 33  1  0
 32 34  1  0
 34 35  1  0
 34 36  2  0
 36 37  1  0
 23  2  2  0
 36 27  1  0
 17  8  1  0
M  CHG  2   3  -1  24  -1
M  END
>  <UniqueID>  (60) 
56

>  <SMILES>  (60) 
O=C(/N=c1/ccc([N-]C(=O)c2ccccc2F)c[n-]1)c1ccc(Cl)cc1F

>  <Energy>  (60) 
55.146260831570025

>  <Genealogy>  (60) 
O=C(N=c1ccc([N-]C(=O)c2ccccc2F)c[n-]1)c1ccc(Cl)cc1F (protonated)
O=C(/N=c1/ccc([N-]C(=O)c2ccccc2F)c[n-]1)c1ccc(Cl)cc1F (cis-trans isomerization)
O=C(/N=c1/ccc([N-]C(=O)c2ccccc2F)c[n-]1)c1ccc(Cl)cc1F (3D coordinates assigned)
O=C(/N=c1/ccc([N-]C(=O)c2ccccc2F)c[n-]1)c1ccc(Cl)cc1F (optimized conformer: 55.146260831570025 kcal/mol)

>  <smiles>  (60) 
O=C(N=c1ccc(NC(=O)c2ccccc2F)c[nH]1)c1ccc(Cl)cc1F

>  <score_type>  (60) 
oracle

>  <origin>  (60) 
adg

>  <m_score__min__energy>  (60) 
-11.82

>  <m_primary>  (60) 
energy

$$$$
60:0
     RDKit          3D

 77 81  0  0  0  0  0  0  0  0999 V2000
   60.1670   34.5850   48.7410 C   0  0  0  0  0  0  0  0  0  0  0  0
   59.4830   33.8300   47.6310 C   0  0  0  0  0  0  0  0  0  0  0  0
   59.5360   34.3270   46.3190 C   0  0  0  0  0  0  0  0  0  0  0  0
   58.9270   33.6310   45.2720 C   0  0  0  0  0  0  0  0  0  0  0  0
   58.2480   32.4320   45.5200 C   0  0  0  0  0  0  0  0  0  0  0  0
   57.4790   31.5590   44.1920 S   0  0  0  0  0  0  0  0  0  0  0  0
   57.6160   32.3580   42.9260 O   0  0  0  0  0  0  0  0  0  0  0  0
   56.0130   31.4060   44.4890 O   0  0  0  0  0  0  0  0  0  0  0  0
   58.1890   29.9770   43.9640 N   0  0  0  0  0  0  0  0  0  0  0  0
   59.4900   29.8910   44.6680 C   0  0  0  0  0  0  0  0  0  0  0  0
   59.9580   28.4370   44.9040 C   0  0  0  0  0  0  0  0  0  0  0  0
   59.2980   27.4630   43.9250 C   0  0  0  0  0  0  0  0  0  0  0  0
   57.7640   27.5240   44.0260 C   0  0  0  0  0  0  0  0  0  0  0  0
   57.2530   28.9270   44.4110 C   0  0  0  0  0  0  0  0  0  0  0  0
   58.1890   31.9310   46.8240 C   0  0  0  0  0  0  0  0  0  0  0  0
   58.8090   32.6150   47.8810 C   0  0  0  0  0  0  0  0  0  0  0  0
   58.7270   32.0420   49.2350 C   0  0  0  0  0  0  0  0  0  0  0  0
   57.6470   32.1620   49.8750 O   0  0  0  0  0  0  0  0  0  0  0  0
   59.8410   31.3210   49.8120 N   0  0  0  0  0  0  0  0  0  0  0  0
   60.7590   30.5680   48.9420 C   0  0  0  0  0  0  0  0  0  0  0  0
   60.2060   29.2130   48.6180 C   0  0  0  0  0  0  0  0  0  0  0  0
   60.7920   27.9910   48.9320 C   0  0  0  0  0  0  0  0  0  0  0  0
   60.0440   26.8920   48.4980 C   0  0  0  0  0  0  0  0  0  0  0  0
   58.8810   27.2510   47.8320 C   0  0  0  0  0  0  0  0  0  0  0  0
   57.5940   26.0480   47.1010 Br  0  0  0  0  0  0  0  0  0  0  0  0
   58.7720   28.9270   47.7810 S   0  0  0  0  0  0  0  0  0  0  0  0
   60.1340   31.4050   51.2590 C   0  0  2  0  0  0  0  0  0  0  0  0
   61.4740   30.7670   51.5560 C   0  0  0  0  0  0  0  0  0  0  0  0
   61.5890   29.5170   51.6800 O   0  0  0  0  0  0  0  0  0  0  0  0
   62.6260   31.6070   51.6750 N   0  0  0  0  0  0  0  0  0  0  0  0
   63.8160   31.4780   50.8440 C   0  0  0  0  0  0  0  0  0  0  0  0
   63.6310   32.2390   49.5620 C   0  0  0  0  0  0  0  0  0  0  0  0
   63.5430   31.5500   48.3420 C   0  0  0  0  0  0  0  0  0  0  0  0
   63.3540   32.2530   47.1470 C   0  0  0  0  0  0  0  0  0  0  0  0
   63.2540   33.6470   47.1640 C   0  0  0  0  0  0  0  0  0  0  0  0
   63.3250   34.3380   48.3780 C   0  0  0  0  0  0  0  0  0  0  0  0
   63.5080   33.6380   49.5750 C   0  0  0  0  0  0  0  0  0  0  0  0
   58.9950   30.8640   52.1210 C   0  0  0  0  0  0  0  0  0  0  0  0
   58.3300   31.6500   53.0870 C   0  0  0  0  0  0  0  0  0  0  0  0
   57.3010   31.1070   53.8620 C   0  0  0  0  0  0  0  0  0  0  0  0
   56.9270   29.7740   53.6950 C   0  0  0  0  0  0  0  0  0  0  0  0
   57.5950   28.9720   52.7670 C   0  0  0  0  0  0  0  0  0  0  0  0
   58.6290   29.5100   51.9940 C   0  0  0  0  0  0  0  0  0  0  0  0
   59.8205   34.2025   49.7124 H   0  0  0  0  0  0  0  0  0  0  0  0
   61.2556   34.4488   48.6605 H   0  0  0  0  0  0  0  0  0  0  0  0
   59.9244   35.6549   48.6605 H   0  0  0  0  0  0  0  0  0  0  0  0
   60.0610   35.2716   46.1139 H   0  0  0  0  0  0  0  0  0  0  0  0
   58.9812   34.0271   44.2472 H   0  0  0  0  0  0  0  0  0  0  0  0
   58.3510   29.8680   42.9360 H   0  0  0  0  0  0  0  0  0  0  0  0
   60.2495   30.4094   44.0642 H   0  0  0  0  0  0  0  0  0  0  0  0
   59.3594   30.3574   45.6556 H   0  0  0  0  0  0  0  0  0  0  0  0
   61.0492   28.3883   44.7739 H   0  0  0  0  0  0  0  0  0  0  0  0
   59.6689   28.1455   45.9245 H   0  0  0  0  0  0  0  0  0  0  0  0
   59.6005   27.7246   42.9003 H   0  0  0  0  0  0  0  0  0  0  0  0
   59.6227   26.4428   44.1776 H   0  0  0  0  0  0  0  0  0  0  0  0
   57.3350   27.2474   43.0516 H   0  0  0  0  0  0  0  0  0  0  0  0
   57.4531   26.8262   44.8175 H   0  0  0  0  0  0  0  0  0  0  0  0
   56.2738   29.0944   43.9386 H   0  0  0  0  0  0  0  0  0  0  0  0
   57.1689   28.9786   45.5066 H   0  0  0  0  0  0  0  0  0  0  0  0
   57.6517   30.9921   47.0232 H   0  0  0  0  0  0  0  0  0  0  0  0
   60.9083   31.1280   48.0071 H   0  0  0  0  0  0  0  0  0  0  0  0
   61.7143   30.4379   49.4716 H   0  0  0  0  0  0  0  0  0  0  0  0
   61.7481   27.8985   49.4680 H   0  0  0  0  0  0  0  0  0  0  0  0
   60.3471   25.8483   48.6675 H   0  0  0  0  0  0  0  0  0  0  0  0
   60.2086   32.4667   51.5369 H   0  0  0  0  0  0  0  0  0  0  0  0
   64.6842   31.8817   51.3855 H   0  0  0  0  0  0  0  0  0  0  0  0
   63.9822   30.4155   50.6130 H   0  0  0  0  0  0  0  0  0  0  0  0
   63.6229   30.4530   48.3254 H   0  0  0  0  0  0  0  0  0  0  0  0
   63.2841   31.7084   46.1939 H   0  0  0  0  0  0  0  0  0  0  0  0
   63.1195   34.2005   46.2229 H   0  0  0  0  0  0  0  0  0  0  0  0
   63.2367   35.4344   48.3914 H   0  0  0  0  0  0  0  0  0  0  0  0
   63.5557   34.1843   50.5285 H   0  0  0  0  0  0  0  0  0  0  0  0
   58.6244   32.7000   53.2313 H   0  0  0  0  0  0  0  0  0  0  0  0
   56.7851   31.7327   54.6053 H   0  0  0  0  0  0  0  0  0  0  0  0
   56.1057   29.3541   54.2943 H   0  0  0  0  0  0  0  0  0  0  0  0
   57.3079   27.9173   52.6441 H   0  0  0  0  0  0  0  0  0  0  0  0
   59.1629   28.8677   51.2781 H   0  0  0  0  0  0  0  0  0  0  0  0
  1  2  1  0
  2  3  2  0
  3  4  1  0
  4  5  2  0
  5  6  1  0
  6  7  2  0
  6  8  2  0
  6  9  1  0
  9 10  1  0
 10 11  1  0
 11 12  1  0
 12 13  1  0
 13 14  1  0
  5 15  1  0
 15 16  2  0
 16 17  1  0
 17 18  2  0
 17 19  1  0
 19 20  1  0
 20 21  1  0
 21 22  2  0
 22 23  1  0
 23 24  2  0
 24 25  1  0
 24 26  1  0
 19 27  1  0
 27 28  1  0
 28 29  2  0
 28 30  1  0
 30 31  1  0
 31 32  1  0
 32 33  2  0
 33 34  1  0
 34 35  2  0
 35 36  1  0
 36 37  2  0
 27 38  1  0
 38 39  2  0
 39 40  1  0
 40 41  2  0
 41 42  1  0
 42 43  2  0
 16  2  1  0
 26 21  1  0
 37 32  1  0
 43 38  1  0
 14  9  1  0
  1 44  1  0
  1 45  1  0
  1 46  1  0
  3 47  1  0
  4 48  1  0
  9 49  1  0
 10 50  1  0
 10 51  1  0
 11 52  1  0
 11 53  1  0
 12 54  1  0
 12 55  1  0
 13 56  1  0
 13 57  1  0
 14 58  1  0
 14 59  1  0
 15 60  1  0
 20 61  1  0
 20 62  1  0
 22 63  1  0
 23 64  1  0
 27 65  1  1
 31 66  1  0
 31 67  1  0
 33 68  1  0
 34 69  1  0
 35 70  1  0
 36 71  1  0
 37 72  1  0
 39 73  1  0
 40 74  1  0
 41 75  1  0
 42 76  1  0
 43 77  1  0
M  CHG  2   9   1  30  -1
M  END
>  <UniqueID>  (61) 
57

>  <SMILES>  (61) 
Cc1ccc(S(=O)(=O)[NH+]2CCCCC2)cc1C(=O)N(Cc1ccc(Br)s1)[C@H](C(=O)[N-]Cc1ccccc1)c1ccccc1

>  <Energy>  (61) 
112.57356009931232

>  <Genealogy>  (61) 
Cc1ccc(S(=O)(=O)[NH+]2CCCCC2)cc1C(=O)N(Cc1ccc(Br)s1)C(C(=O)[N-]Cc1ccccc1)c1ccccc1 (protonated)
Cc1ccc(S(=O)(=O)[NH+]2CCCCC2)cc1C(=O)N(Cc1ccc(Br)s1)[C@H](C(=O)[N-]Cc1ccccc1)c1ccccc1 (chirality)
Cc1ccc(S(=O)(=O)[NH+]2CCCCC2)cc1C(=O)N(Cc1ccc(Br)s1)[C@H](C(=O)[N-]Cc1ccccc1)c1ccccc1 (3D coordinates assigned)
Cc1ccc(S(=O)(=O)[NH+]2CCCCC2)cc1C(=O)N(Cc1ccc(Br)s1)[C@H](C(=O)[N-]Cc1ccccc1)c1ccccc1 (nonaromatic ring conformer: 112.57356009931232 kcal/mol)

>  <smiles>  (61) 
Cc1ccc(S(=O)(=O)N2CCCCC2)cc1C(=O)N(Cc1ccc(Br)s1)C(C(=O)NCc1ccccc1)c1ccccc1

>  <score_type>  (61) 
oracle

>  <origin>  (61) 
adg

>  <m_score__min__energy>  (61) 
-10.19

>  <m_primary>  (61) 
energy

$$$$
61:0
     RDKit          3D

 41 42  0  0  0  0  0  0  0  0999 V2000
   59.6400   33.1920   50.4860 C   0  0  0  0  0  0  0  0  0  0  0  0
   59.9620   34.2020   49.4050 C   0  0  0  0  0  0  0  0  0  0  0  0
   59.4600   33.7760   48.1150 N   0  0  0  0  0  0  0  0  0  0  0  0
   58.3770   32.8130   48.0080 C   0  0  0  0  0  0  0  0  0  0  0  0
   57.9730   32.6390   46.5860 C   0  0  0  0  0  0  0  0  0  0  0  0
   57.0430   33.3510   46.0930 O   0  0  0  0  0  0  0  0  0  0  0  0
   58.5700   31.7020   45.7080 N   0  0  0  0  0  0  0  0  0  0  0  0
   58.0570   31.6730   44.3660 C   0  0  0  0  0  0  0  0  0  0  0  0
   58.2790   32.7240   43.4910 C   0  0  0  0  0  0  0  0  0  0  0  0
   57.7710   32.6760   42.1950 C   0  0  0  0  0  0  0  0  0  0  0  0
   57.0370   31.5710   41.7680 C   0  0  0  0  0  0  0  0  0  0  0  0
   56.8320   30.5290   42.6750 C   0  0  0  0  0  0  0  0  0  0  0  0
   57.3260   30.5580   43.9600 C   0  0  0  0  0  0  0  0  0  0  0  0
   57.0310   29.1210   45.1820 Br  0  0  0  0  0  0  0  0  0  0  0  0
   60.0630   34.3420   46.9650 C   0  0  0  0  0  0  0  0  0  0  0  0
   59.4930   35.3670   46.4730 O   0  0  0  0  0  0  0  0  0  0  0  0
   61.2710   33.8530   46.3040 C   0  0  0  0  0  0  0  0  0  0  0  0
   62.2840   33.3130   47.2640 C   0  0  0  0  0  0  0  0  0  0  0  0
   63.3410   34.0320   47.6850 N   0  0  0  0  0  0  0  0  0  0  0  0
   64.1840   33.4440   48.5250 N   0  0  0  0  0  0  0  0  0  0  0  0
   63.9860   32.1650   48.9400 C   0  0  0  0  0  0  0  0  0  0  0  0
   64.8210   31.6350   49.7470 O   0  0  0  0  0  0  0  0  0  0  0  0
   62.9380   31.4280   48.5330 N   0  0  0  0  0  0  0  0  0  0  0  0
   62.0700   32.0030   47.6820 C   0  0  0  0  0  0  0  0  0  0  0  0
   61.0570   31.3460   47.2650 O   0  0  0  0  0  0  0  0  0  0  0  0
   59.7869   33.6529   51.4739 H   0  0  0  0  0  0  0  0  0  0  0  0
   58.5939   32.8675   50.3847 H   0  0  0  0  0  0  0  0  0  0  0  0
   60.3053   32.3219   50.3847 H   0  0  0  0  0  0  0  0  0  0  0  0
   59.5013   35.1658   49.6674 H   0  0  0  0  0  0  0  0  0  0  0  0
   61.0557   34.2971   49.3358 H   0  0  0  0  0  0  0  0  0  0  0  0
   58.7118   31.8455   48.4102 H   0  0  0  0  0  0  0  0  0  0  0  0
   57.5137   33.1833   48.5804 H   0  0  0  0  0  0  0  0  0  0  0  0
   59.3330   31.0840   46.0390 H   0  0  0  0  0  0  0  0  0  0  0  0
   58.8582   33.5990   43.8208 H   0  0  0  0  0  0  0  0  0  0  0  0
   57.9500   33.5141   41.5054 H   0  0  0  0  0  0  0  0  0  0  0  0
   56.6311   31.5210   40.7468 H   0  0  0  0  0  0  0  0  0  0  0  0
   56.2537   29.6514   42.3504 H   0  0  0  0  0  0  0  0  0  0  0  0
   60.9885   33.0521   45.6049 H   0  0  0  0  0  0  0  0  0  0  0  0
   61.7312   34.7068   45.7852 H   0  0  0  0  0  0  0  0  0  0  0  0
   65.0250   33.9670   48.8800 H   0  0  0  0  0  0  0  0  0  0  0  0
   62.8070   30.4430   48.8680 H   0  0  0  0  0  0  0  0  0  0  0  0
  1  2  1  0
  2  3  1  0
  3  4  1  0
  4  5  1  0
  5  6  2  0
  5  7  1  0
  7  8  1  0
  8  9  2  0
  9 10  1  0
 10 11  2  0
 11 12  1  0
 12 13  2  0
 13 14  1  0
  3 15  1  0
 15 16  2  0
 15 17  1  0
 17 18  1  0
 18 19  2  0
 19 20  1  0
 20 21  1  0
 21 22  2  0
 21 23  1  0
 23 24  1  0
 24 25  2  0
 13  8  1  0
 24 18  1  0
  1 26  1  0
  1 27  1  0
  1 28  1  0
  2 29  1  0
  2 30  1  0
  4 31  1  0
  4 32  1  0
  7 33  1  0
  9 34  1  0
 10 35  1  0
 11 36  1  0
 12 37  1  0
 17 38  1  0
 17 39  1  0
 20 40  1  0
 23 41  1  0
M  END
>  <smiles>  (62) 
CCN(CC(=O)Nc1ccccc1Br)C(=O)Cc1n[nH]c(=O)[nH]c1=O

>  <score_type>  (62) 
oracle

>  <origin>  (62) 
adg

>  <m_score__min__energy>  (62) 
-9.1600000000000001

>  <m_primary>  (62) 
energy

$$$$
62:0
     RDKit          3D

 41 43  0  0  0  0  0  0  0  0999 V2000
   59.6772   28.6905   48.1307 H   0  0  0  0  0  0  0  0  0  0  0  0
   59.1100   28.1610   47.3510 C   0  0  0  0  0  0  0  0  0  0  0  0
   58.9812   27.0701   47.4096 H   0  0  0  0  0  0  0  0  0  0  0  0
   58.5750   28.8460   46.3280 C   0  0  0  0  0  0  0  0  0  0  0  0
   57.8280   28.3260   45.2580 C   0  0  0  0  0  0  0  0  0  0  0  0
   57.6220   27.0550   44.8590 C   0  0  0  0  0  0  0  0  0  0  0  0
   57.8557   26.8135   43.8116 H   0  0  0  0  0  0  0  0  0  0  0  0
   57.1120   25.9630   45.7020 C   0  0  0  0  0  0  0  0  0  0  0  0
   57.8920   24.9940   46.2130 N   0  0  0  0  0  0  0  0  0  0  0  0
   57.0480   24.3010   47.0070 C   0  0  0  0  0  0  0  0  0  0  0  0
   57.4100   23.2880   47.6600 O   0  0  0  0  0  0  0  0  0  0  0  0
   55.7880   24.7860   47.0570 N   0  0  0  0  0  0  0  0  0  0  0  0
   55.8500   25.8470   46.2370 C   0  0  0  0  0  0  0  0  0  0  0  0
   54.7820   26.7060   46.0050 O   0  0  0  0  0  0  0  0  0  0  0  0
   57.2850   29.4160   44.5990 C   0  0  0  0  0  0  0  0  0  0  0  0
   56.6016   29.3865   43.7376 H   0  0  0  0  0  0  0  0  0  0  0  0
   57.7640   30.5450   45.2280 C   0  0  0  0  0  0  0  0  0  0  0  0
   57.4350   31.9500   44.8200 C   0  0  0  0  0  0  0  0  0  0  0  0
   57.2902   32.5683   45.7182 H   0  0  0  0  0  0  0  0  0  0  0  0
   58.2612   32.3609   44.2213 H   0  0  0  0  0  0  0  0  0  0  0  0
   56.5122   31.9514   44.2213 H   0  0  0  0  0  0  0  0  0  0  0  0
   58.5460   30.2030   46.2770 N   0  0  0  0  0  0  0  0  0  0  0  0
   59.1910   31.1210   47.1780 C   0  0  0  0  0  0  0  0  0  0  0  0
   58.8490   31.1300   48.5380 C   0  0  0  0  0  0  0  0  0  0  0  0
   58.0728   30.4468   48.9131 H   0  0  0  0  0  0  0  0  0  0  0  0
   59.4920   32.0050   49.4180 C   0  0  0  0  0  0  0  0  0  0  0  0
   59.2206   32.0083   50.4840 H   0  0  0  0  0  0  0  0  0  0  0  0
   60.4780   32.8750   48.9480 C   0  0  0  0  0  0  0  0  0  0  0  0
   60.9861   33.5563   49.6463 H   0  0  0  0  0  0  0  0  0  0  0  0
   60.8230   32.8830   47.5870 C   0  0  0  0  0  0  0  0  0  0  0  0
   61.9100   33.7960   47.0790 C   0  0  0  0  0  0  0  0  0  0  0  0
   61.9763   33.6970   45.9855 H   0  0  0  0  0  0  0  0  0  0  0  0
   61.6544   34.8263   47.3672 H   0  0  0  0  0  0  0  0  0  0  0  0
   63.2720   33.4530   47.6920 C   0  0  0  0  0  0  0  0  0  0  0  0
   63.7896   34.3847   47.9641 H   0  0  0  0  0  0  0  0  0  0  0  0
   63.1097   32.8298   48.5838 H   0  0  0  0  0  0  0  0  0  0  0  0
   64.0960   32.7070   46.7440 N   0  0  0  0  0  0  0  0  0  0  0  0
   65.0620   33.1100   46.7600 H   0  0  0  0  0  0  0  0  0  0  0  0
   64.1830   31.7280   47.1010 H   0  0  0  0  0  0  0  0  0  0  0  0
   60.1780   32.0000   46.7060 C   0  0  0  0  0  0  0  0  0  0  0  0
   60.4479   31.9972   45.6396 H   0  0  0  0  0  0  0  0  0  0  0  0
  1  2  1  0
  2  3  1  0
  2  4  2  0
  4  5  1  0
  5  6  2  0
  6  7  1  0
  6  8  1  0
  8  9  1  0
  9 10  1  0
 10 11  2  0
 10 12  1  0
 12 13  1  0
 13 14  1  0
  5 15  1  0
 15 16  1  0
 15 17  2  0
 17 18  1  0
 18 19  1  0
 18 20  1  0
 18 21  1  0
 17 22  1  0
 22 23  1  0
 23 24  2  0
 24 25  1  0
 24 26  1  0
 26 27  1  0
 26 28  2  0
 28 29  1  0
 28 30  1  0
 30 31  1  0
 31 32  1  0
 31 33  1  0
 31 34  1  0
 34 35  1  0
 34 36  1  0
 34 37  1  0
 37 38  1  0
 37 39  1  0
 30 40  2  0
 40 41  1  0
 22  4  1  0
 40 23  1  0
 13  8  2  0
M  CHG  3   9  -1  12  -1  14  -1
M  END
>  <UniqueID>  (63) 
58

>  <SMILES>  (63) 
C=c1/c(=C\c2[n-]c(=O)[n-]c2[O-])cc(C)n1-c1cccc(CCN)c1

>  <Energy>  (63) 
114.48398491920908

>  <Genealogy>  (63) 
C=c1c(=Cc2[n-]c(=O)[n-]c2[O-])cc(C)n1-c1cccc(CCN)c1 (protonated)
C=c1/c(=C\c2[n-]c(=O)[n-]c2[O-])cc(C)n1-c1cccc(CCN)c1 (cis-trans isomerization)
C=c1/c(=C\c2[n-]c(=O)[n-]c2[O-])cc(C)n1-c1cccc(CCN)c1 (3D coordinates assigned)
C=c1/c(=C\c2[n-]c(=O)[n-]c2[O-])cc(C)n1-c1cccc(CCN)c1 (optimized conformer: 114.48398491920908 kcal/mol)

>  <smiles>  (63) 
C=c1c(=Cc2[nH]c(=O)[nH]c2O)cc(C)n1-c1cccc(CCN)c1

>  <score_type>  (63) 
oracle

>  <origin>  (63) 
adg

>  <m_score__min__energy>  (63) 
-16.109999999999999

>  <m_primary>  (63) 
energy

$$$$
63:0
     RDKit          3D

 37 39  0  0  0  0  0  0  0  0999 V2000
   56.3523   28.5807   45.0796 H   0  0  0  0  0  0  0  0  0  0  0  0
   57.3580   28.4690   45.5110 C   0  0  0  0  0  0  0  0  0  0  0  0
   58.4340   29.3790   45.0620 C   0  0  0  0  0  0  0  0  0  0  0  0
   59.3140   28.9650   44.2580 O   0  0  0  0  0  0  0  0  0  0  0  0
   58.4740   30.7900   45.5150 C   0  0  0  0  0  0  0  0  0  0  0  0
   57.4040   31.6530   45.2380 C   0  0  0  0  0  0  0  0  0  0  0  0
   56.2830   31.2020   44.5500 O   0  0  0  0  0  0  0  0  0  0  0  0
   57.4470   32.9420   45.6550 N   0  0  0  0  0  0  0  0  0  0  0  0
   58.5080   33.4320   46.3400 C   0  0  0  0  0  0  0  0  0  0  0  0
   58.4990   34.6420   46.6960 O   0  0  0  0  0  0  0  0  0  0  0  0
   59.5790   32.6260   46.6250 N   0  0  0  0  0  0  0  0  0  0  0  0
   60.7080   33.1580   47.3480 C   0  0  0  0  0  0  0  0  0  0  0  0
   61.9640   33.2600   46.7260 C   0  0  0  0  0  0  0  0  0  0  0  0
   62.0879   32.9323   45.6833 H   0  0  0  0  0  0  0  0  0  0  0  0
   63.0570   33.7770   47.4290 C   0  0  0  0  0  0  0  0  0  0  0  0
   64.0380   33.8562   46.9378 H   0  0  0  0  0  0  0  0  0  0  0  0
   62.9050   34.1930   48.7540 C   0  0  0  0  0  0  0  0  0  0  0  0
   63.7660   34.5994   49.3049 H   0  0  0  0  0  0  0  0  0  0  0  0
   61.6590   34.0930   49.3800 C   0  0  0  0  0  0  0  0  0  0  0  0
   61.5407   34.4198   50.4236 H   0  0  0  0  0  0  0  0  0  0  0  0
   60.5630   33.5780   48.6810 C   0  0  0  0  0  0  0  0  0  0  0  0
   59.5838   33.5014   49.1764 H   0  0  0  0  0  0  0  0  0  0  0  0
   59.5780   31.3160   46.2160 C   0  0  0  0  0  0  0  0  0  0  0  0
   60.5750   30.5800   46.4570 O   0  0  0  0  0  0  0  0  0  0  0  0
   57.5680   27.5130   46.4260 C   0  0  0  0  0  0  0  0  0  0  0  0
   58.0769   27.7840   47.3628 H   0  0  0  0  0  0  0  0  0  0  0  0
   57.1450   26.1080   46.2310 C   0  0  0  0  0  0  0  0  0  0  0  0
   58.1380   25.1140   46.1840 C   0  0  0  0  0  0  0  0  0  0  0  0
   59.1963   25.3945   46.2904 H   0  0  0  0  0  0  0  0  0  0  0  0
   57.7910   23.7710   46.0030 C   0  0  0  0  0  0  0  0  0  0  0  0
   58.7810   22.7970   45.9720 O   0  0  0  0  0  0  0  0  0  0  0  0
   56.4510   23.4100   45.8530 C   0  0  0  0  0  0  0  0  0  0  0  0
   56.1784   22.3525   45.7213 H   0  0  0  0  0  0  0  0  0  0  0  0
   55.4560   24.3900   45.8700 C   0  0  0  0  0  0  0  0  0  0  0  0
   54.4017   24.1020   45.7452 H   0  0  0  0  0  0  0  0  0  0  0  0
   55.7940   25.7360   46.0450 C   0  0  0  0  0  0  0  0  0  0  0  0
   54.7850   26.6920   45.9990 O   0  0  0  0  0  0  0  0  0  0  0  0
  1  2  1  0
  2  3  1  0
  3  4  2  0
  3  5  1  0
  5  6  2  0
  6  7  1  0
  6  8  1  0
  8  9  1  0
  9 10  2  0
  9 11  1  0
 11 12  1  0
 12 13  2  0
 13 14  1  0
 13 15  1  0
 15 16  1  0
 15 17  2  0
 17 18  1  0
 17 19  1  0
 19 20  1  0
 19 21  2  0
 21 22  1  0
 11 23  1  0
 23 24  2  0
  2 25  2  0
 25 26  1  0
 25 27  1  0
 27 28  2  0
 28 29  1  0
 28 30  1  0
 30 31  1  0
 30 32  2  0
 32 33  1  0
 32 34  1  0
 34 35  1  0
 34 36  2  0
 36 37  1  0
 23  5  1  0
 36 27  1  0
 21 12  1  0
M  CHG  4   7  -1   8  -1  31  -1  37  -1
M  END
>  <UniqueID>  (64) 
59

>  <SMILES>  (64) 
O=C(/C=C/c1cc([O-])ccc1[O-])c1c([O-])[n-]c(=O)n(-c2ccccc2)c1=O

>  <Energy>  (64) 
61.72913955115778

>  <Genealogy>  (64) 
O=C(C=Cc1cc([O-])ccc1[O-])c1c([O-])[n-]c(=O)n(-c2ccccc2)c1=O (protonated)
O=C(/C=C/c1cc([O-])ccc1[O-])c1c([O-])[n-]c(=O)n(-c2ccccc2)c1=O (cis-trans isomerization)
O=C(/C=C/c1cc([O-])ccc1[O-])c1c([O-])[n-]c(=O)n(-c2ccccc2)c1=O (3D coordinates assigned)
O=C(/C=C/c1cc([O-])ccc1[O-])c1c([O-])[n-]c(=O)n(-c2ccccc2)c1=O (optimized conformer: 61.72913955115778 kcal/mol)

>  <smiles>  (64) 
O=C(C=Cc1cc(O)ccc1O)c1c(O)[nH]c(=O)n(-c2ccccc2)c1=O

>  <score_type>  (64) 
oracle

>  <origin>  (64) 
adg

>  <m_score__min__energy>  (64) 
-17.34

>  <m_primary>  (64) 
energy

$$$$
64:0
     RDKit          3D

 71 75  0  0  0  0  0  0  0  0999 V2000
   56.9580   31.2540   42.9020 O   0  0  0  0  0  0  0  0  0  0  0  0
   56.8000   30.7320   44.0390 C   0  0  0  0  0  0  0  0  0  0  0  0
   56.2870   29.3570   44.1820 C   0  0  0  0  0  0  0  0  0  0  0  0
   56.7480   28.4230   45.0310 C   0  0  0  0  0  0  0  0  0  0  0  0
   58.1720   28.0960   45.2790 C   0  0  0  0  0  0  0  0  0  0  0  0
   59.1390   28.7470   44.4970 C   0  0  0  0  0  0  0  0  0  0  0  0
   60.4970   28.4690   44.6700 C   0  0  0  0  0  0  0  0  0  0  0  0
   60.9040   27.5440   45.6330 C   0  0  0  0  0  0  0  0  0  0  0  0
   59.9560   26.9110   46.4380 C   0  0  0  0  0  0  0  0  0  0  0  0
   58.5940   27.1980   46.2910 C   0  0  0  0  0  0  0  0  0  0  0  0
   57.6910   26.5580   47.1410 O   0  0  0  0  0  0  0  0  0  0  0  0
   57.8090   25.1850   47.5000 C   0  0  0  0  0  0  0  0  0  0  0  0
   57.6720   24.3440   46.2580 C   0  0  0  0  0  0  0  0  0  0  0  0
   58.7910   23.6520   45.7780 C   0  0  0  0  0  0  0  0  0  0  0  0
   58.6680   22.8460   44.6450 C   0  0  0  0  0  0  0  0  0  0  0  0
   59.6700   22.2200   44.2080 O   0  0  0  0  0  0  0  0  0  0  0  0
   57.5010   22.7320   44.0230 O   0  0  0  0  0  0  0  0  0  0  0  0
   56.4030   23.3560   44.4360 C   0  0  0  0  0  0  0  0  0  0  0  0
   55.2090   23.1860   43.7270 C   0  0  0  0  0  0  0  0  0  0  0  0
   54.0390   23.8330   44.1470 C   0  0  0  0  0  0  0  0  0  0  0  0
   52.8520   23.6870   43.4320 O   0  0  0  0  0  0  0  0  0  0  0  0
   54.0610   24.6340   45.2900 C   0  0  0  0  0  0  0  0  0  0  0  0
   55.2480   24.8140   46.0060 C   0  0  0  0  0  0  0  0  0  0  0  0
   56.4380   24.1880   45.5830 C   0  0  0  0  0  0  0  0  0  0  0  0
   57.1940   31.4460   45.2150 N   0  0  0  0  0  0  0  0  0  0  0  0
   58.5340   31.9780   45.4650 C   0  0  0  0  0  0  0  0  0  0  0  0
   59.2440   31.2410   46.5680 C   0  0  0  0  0  0  0  0  0  0  0  0
   58.5170   30.7300   47.6530 C   0  0  0  0  0  0  0  0  0  0  0  0
   59.1740   30.0850   48.7020 C   0  0  0  0  0  0  0  0  0  0  0  0
   60.5740   29.9390   48.6860 C   0  0  0  0  0  0  0  0  0  0  0  0
   61.2660   29.2440   49.7940 C   0  0  0  0  0  0  0  0  0  0  0  0
   60.9500   28.0620   50.1020 O   0  0  0  0  0  0  0  0  0  0  0  0
   62.2910   29.9190   50.5270 N   0  0  0  0  0  0  0  0  0  0  0  0
   62.1480   31.2630   51.0700 C   0  0  0  0  0  0  0  0  0  0  0  0
   63.3010   32.1450   50.5870 C   0  0  0  0  0  0  0  0  0  0  0  0
   62.9790   32.7820   49.2590 C   0  0  0  0  0  0  0  0  0  0  0  0
   63.8570   32.6400   48.1710 C   0  0  0  0  0  0  0  0  0  0  0  0
   63.5250   33.1710   46.9220 C   0  0  0  0  0  0  0  0  0  0  0  0
   62.3180   33.8550   46.7500 C   0  0  0  0  0  0  0  0  0  0  0  0
   61.4380   33.9990   47.8260 C   0  0  0  0  0  0  0  0  0  0  0  0
   61.7610   33.4600   49.0740 C   0  0  0  0  0  0  0  0  0  0  0  0
   61.2990   30.4580   47.5970 C   0  0  0  0  0  0  0  0  0  0  0  0
   60.6390   31.1060   46.5480 C   0  0  0  0  0  0  0  0  0  0  0  0
   55.4476   29.0686   43.5323 H   0  0  0  0  0  0  0  0  0  0  0  0
   55.9986   27.8476   45.5943 H   0  0  0  0  0  0  0  0  0  0  0  0
   58.8248   29.4823   43.7416 H   0  0  0  0  0  0  0  0  0  0  0  0
   61.2462   28.9794   44.0469 H   0  0  0  0  0  0  0  0  0  0  0  0
   61.9725   27.3140   45.7574 H   0  0  0  0  0  0  0  0  0  0  0  0
   60.2816   26.1810   47.1937 H   0  0  0  0  0  0  0  0  0  0  0  0
   58.7919   25.0066   47.9605 H   0  0  0  0  0  0  0  0  0  0  0  0
   57.0214   24.9184   48.2201 H   0  0  0  0  0  0  0  0  0  0  0  0
   59.7601   23.7430   46.2903 H   0  0  0  0  0  0  0  0  0  0  0  0
   55.1885   22.5415   42.8358 H   0  0  0  0  0  0  0  0  0  0  0  0
   52.3530   24.4880   43.0630 H   0  0  0  0  0  0  0  0  0  0  0  0
   53.1381   25.1269   45.6296 H   0  0  0  0  0  0  0  0  0  0  0  0
   55.2535   25.4480   46.9049 H   0  0  0  0  0  0  0  0  0  0  0  0
   59.1270   31.8911   44.5426 H   0  0  0  0  0  0  0  0  0  0  0  0
   58.4269   33.0276   45.7761 H   0  0  0  0  0  0  0  0  0  0  0  0
   57.4226   30.8382   47.6774 H   0  0  0  0  0  0  0  0  0  0  0  0
   58.5934   29.6877   49.5476 H   0  0  0  0  0  0  0  0  0  0  0  0
   61.1935   31.6932   50.7324 H   0  0  0  0  0  0  0  0  0  0  0  0
   62.1655   31.2135   52.1687 H   0  0  0  0  0  0  0  0  0  0  0  0
   63.4837   32.9357   51.3296 H   0  0  0  0  0  0  0  0  0  0  0  0
   64.1944   31.5151   50.4644 H   0  0  0  0  0  0  0  0  0  0  0  0
   64.8107   32.1080   48.3034 H   0  0  0  0  0  0  0  0  0  0  0  0
   64.2141   33.0507   46.0731 H   0  0  0  0  0  0  0  0  0  0  0  0
   62.0611   34.2796   45.7683 H   0  0  0  0  0  0  0  0  0  0  0  0
   60.4888   34.5380   47.6901 H   0  0  0  0  0  0  0  0  0  0  0  0
   61.0599   33.5664   49.9149 H   0  0  0  0  0  0  0  0  0  0  0  0
   62.3937   30.3531   47.5707 H   0  0  0  0  0  0  0  0  0  0  0  0
   61.2167   31.5112   45.7042 H   0  0  0  0  0  0  0  0  0  0  0  0
  1  2  2  0
  2  3  1  0
  3  4  2  3
  4  5  1  0
  5  6  2  0
  6  7  1  0
  7  8  2  0
  8  9  1  0
  9 10  2  0
 10 11  1  0
 11 12  1  0
 12 13  1  0
 13 14  2  0
 14 15  1  0
 15 16  2  0
 15 17  1  0
 17 18  1  0
 18 19  2  0
 19 20  1  0
 20 21  1  0
 20 22  2  0
 22 23  1  0
 23 24  2  0
  2 25  1  0
 25 26  1  0
 26 27  1  0
 27 28  2  0
 28 29  1  0
 29 30  2  0
 30 31  1  0
 31 32  2  0
 31 33  1  0
 33 34  1  0
 34 35  1  0
 35 36  1  0
 36 37  2  0
 37 38  1  0
 38 39  2  0
 39 40  1  0
 40 41  2  0
 30 42  1  0
 42 43  2  0
 10  5  1  0
 24 13  1  0
 43 27  1  0
 24 18  1  0
 41 36  1  0
  3 44  1  0
  4 45  1  0
  6 46  1  0
  7 47  1  0
  8 48  1  0
  9 49  1  0
 12 50  1  0
 12 51  1  0
 14 52  1  0
 19 53  1  0
 21 54  1  0
 22 55  1  0
 23 56  1  0
 26 57  1  0
 26 58  1  0
 28 59  1  0
 29 60  1  0
 34 61  1  0
 34 62  1  0
 35 63  1  0
 35 64  1  0
 37 65  1  0
 38 66  1  0
 39 67  1  0
 40 68  1  0
 41 69  1  0
 42 70  1  0
 43 71  1  0
M  CHG  2  25  -1  33  -1
M  END
>  <UniqueID>  (65) 
60

>  <SMILES>  (65) 
O=C(C=Cc1ccccc1OCc1cc(=O)oc2cc(O)ccc12)[N-]Cc1ccc(C(=O)[N-]CCc2ccccc2)cc1

>  <Energy>  (65) 
89.62940430438468

>  <Genealogy>  (65) 
O=C(C=Cc1ccccc1OCc1cc(=O)oc2cc(O)ccc12)[N-]Cc1ccc(C(=O)[N-]CCc2ccccc2)cc1 (protonated)
O=C(C=Cc1ccccc1OCc1cc(=O)oc2cc(O)ccc12)[N-]Cc1ccc(C(=O)[N-]CCc2ccccc2)cc1 (3D coordinates assigned)
O=C(C=Cc1ccccc1OCc1cc(=O)oc2cc(O)ccc12)[N-]Cc1ccc(C(=O)[N-]CCc2ccccc2)cc1 (optimized conformer: 89.62940430438468 kcal/mol)

>  <smiles>  (65) 
O=C(C=Cc1ccccc1OCc1cc(=O)oc2cc(O)ccc12)NCc1ccc(C(=O)NCCc2ccccc2)cc1

>  <score_type>  (65) 
oracle

>  <origin>  (65) 
adg

>  <m_score__min__energy>  (65) 
-11.82

>  <m_primary>  (65) 
energy

$$$$
65:0
     RDKit          3D

 43 44  0  0  0  0  0  0  0  0999 V2000
   58.0030   32.3220   42.8570 C   0  0  0  0  0  0  0  0  0  0  0  0
   57.5350   32.6160   44.2050 N   0  0  0  0  0  0  0  0  0  0  0  0
   58.2760   33.4500   45.0980 C   0  0  0  0  0  0  0  0  0  0  0  0
   59.3740   33.9540   44.7340 O   0  0  0  0  0  0  0  0  0  0  0  0
   57.7690   33.7020   46.3780 O   0  0  0  0  0  0  0  0  0  0  0  0
   58.1270   32.9350   47.5250 C   0  0  0  0  0  0  0  0  0  0  0  0
   59.3580   32.0980   47.2400 C   0  0  0  0  0  0  0  0  0  0  0  0
   59.3060   30.7450   46.7890 C   0  0  0  0  0  0  0  0  0  0  0  0
   57.9750   30.0330   46.6160 C   0  0  0  0  0  0  0  0  0  0  0  0
   57.3800   30.3780   45.3650 O   0  0  0  0  0  0  0  0  0  0  0  0
   56.2130   29.7840   44.8720 C   0  0  0  0  0  0  0  0  0  0  0  0
   55.4480   30.4150   44.0950 O   0  0  0  0  0  0  0  0  0  0  0  0
   55.8840   28.4420   45.2390 N   0  0  0  0  0  0  0  0  0  0  0  0
   56.8860   27.4470   45.6090 C   0  0  0  0  0  0  0  0  0  0  0  0
   57.8180   27.2090   44.4210 C   0  0  0  0  0  0  0  0  0  0  0  0
   56.2030   26.1400   46.0270 C   0  0  0  0  0  0  0  0  0  0  0  0
   60.5470   30.0810   46.5160 C   0  0  0  0  0  0  0  0  0  0  0  0
   60.6090   28.6770   45.9880 C   0  0  0  0  0  0  0  0  0  0  0  0
   61.7310   30.7280   46.7260 N   0  0  0  0  0  0  0  0  0  0  0  0
   61.7230   31.9960   47.1860 C   0  0  0  0  0  0  0  0  0  0  0  0
   62.8120   32.7410   47.4420 N   0  0  0  0  0  0  0  0  0  0  0  0
   62.2390   33.8990   47.8650 C   0  0  0  0  0  0  0  0  0  0  0  0
   60.8850   33.8540   47.8620 N   0  0  0  0  0  0  0  0  0  0  0  0
   60.5880   32.6440   47.4290 N   0  0  0  0  0  0  0  0  0  0  0  0
   58.9333   31.7376   42.9112 H   0  0  0  0  0  0  0  0  0  0  0  0
   57.2367   31.7427   42.3210 H   0  0  0  0  0  0  0  0  0  0  0  0
   58.1923   33.2638   42.3210 H   0  0  0  0  0  0  0  0  0  0  0  0
   56.6290   32.2090   44.5280 H   0  0  0  0  0  0  0  0  0  0  0  0
   58.3375   33.6147   48.3638 H   0  0  0  0  0  0  0  0  0  0  0  0
   57.2924   32.2654   47.7802 H   0  0  0  0  0  0  0  0  0  0  0  0
   58.1393   28.9459   46.6507 H   0  0  0  0  0  0  0  0  0  0  0  0
   57.2994   30.3416   47.4274 H   0  0  0  0  0  0  0  0  0  0  0  0
   57.4742   27.8150   46.4626 H   0  0  0  0  0  0  0  0  0  0  0  0
   58.8225   26.9525   44.7887 H   0  0  0  0  0  0  0  0  0  0  0  0
   57.4289   26.3814   43.8097 H   0  0  0  0  0  0  0  0  0  0  0  0
   57.8733   28.1218   43.8097 H   0  0  0  0  0  0  0  0  0  0  0  0
   56.1706   26.0780   47.1248 H   0  0  0  0  0  0  0  0  0  0  0  0
   55.1781   26.1180   45.6281 H   0  0  0  0  0  0  0  0  0  0  0  0
   56.7701   25.2860   45.6281 H   0  0  0  0  0  0  0  0  0  0  0  0
   60.6402   27.9697   46.8299 H   0  0  0  0  0  0  0  0  0  0  0  0
   59.7188   28.4767   45.3736 H   0  0  0  0  0  0  0  0  0  0  0  0
   61.5134   28.5559   45.3736 H   0  0  0  0  0  0  0  0  0  0  0  0
   62.8157   34.7820   48.1777 H   0  0  0  0  0  0  0  0  0  0  0  0
  1  2  1  0
  2  3  1  0
  3  4  2  0
  3  5  1  0
  5  6  1  0
  6  7  1  0
  7  8  2  0
  8  9  1  0
  9 10  1  0
 10 11  1  0
 11 12  2  0
 11 13  1  0
 13 14  1  0
 14 15  1  0
 14 16  1  0
  8 17  1  0
 17 18  1  0
 17 19  2  0
 19 20  1  0
 20 21  2  0
 21 22  1  0
 22 23  2  0
 23 24  1  0
 24  7  1  0
 24 20  1  0
  1 25  1  0
  1 26  1  0
  1 27  1  0
  2 28  1  0
  6 29  1  0
  6 30  1  0
  9 31  1  0
  9 32  1  0
 14 33  1  0
 15 34  1  0
 15 35  1  0
 15 36  1  0
 16 37  1  0
 16 38  1  0
 16 39  1  0
 18 40  1  0
 18 41  1  0
 18 42  1  0
 22 43  1  0
M  CHG  1  13  -1
M  END
>  <UniqueID>  (66) 
61

>  <SMILES>  (66) 
CNC(=O)OCc1c(COC(=O)[N-]C(C)C)c(C)nc2ncnn12

>  <Energy>  (66) 
71.09861870486641

>  <Genealogy>  (66) 
CNC(=O)OCc1c(COC(=O)[N-]C(C)C)c(C)nc2ncnn12 (protonated)
CNC(=O)OCc1c(COC(=O)[N-]C(C)C)c(C)nc2ncnn12 (3D coordinates assigned)
CNC(=O)OCc1c(COC(=O)[N-]C(C)C)c(C)nc2ncnn12 (optimized conformer: 71.09861870486641 kcal/mol)

>  <smiles>  (66) 
CNC(=O)OCc1c(COC(=O)NC(C)C)c(C)nc2ncnn12

>  <score_type>  (66) 
oracle

>  <origin>  (66) 
adg

>  <m_score__min__energy>  (66) 
-8.0700000000000003

>  <m_primary>  (66) 
energy

$$$$
66:0
     RDKit          3D

 38 40  0  0  0  0  0  0  0  0999 V2000
   54.8680   21.7860   46.3460 C   0  0  0  0  0  0  0  0  0  0  0  0
   54.2410   23.1010   45.3230 S   0  0  0  0  0  0  0  0  0  0  0  0
   52.7540   22.9710   45.1540 O   0  0  0  0  0  0  0  0  0  0  0  0
   54.8900   23.0110   43.9710 O   0  0  0  0  0  0  0  0  0  0  0  0
   54.6280   24.6400   46.0250 N   0  0  0  0  0  0  0  0  0  0  0  0
   55.8880   25.3160   45.9240 C   0  0  0  0  0  0  0  0  0  0  0  0
   57.1010   24.6240   45.7440 C   0  0  0  0  0  0  0  0  0  0  0  0
   58.3050   25.3260   45.6510 C   0  0  0  0  0  0  0  0  0  0  0  0
   58.3180   26.7280   45.7270 C   0  0  0  0  0  0  0  0  0  0  0  0
   59.6190   27.4790   45.6670 C   0  0  0  0  0  0  0  0  0  0  0  0
   59.3570   28.9340   45.4450 C   0  0  0  0  0  0  0  0  0  0  0  0
   59.8710   29.9020   46.2490 N   0  0  0  0  0  0  0  0  0  0  0  0
   59.3410   31.0190   45.7300 C   0  0  0  0  0  0  0  0  0  0  0  0
   59.5330   32.3300   46.1590 C   0  0  0  0  0  0  0  0  0  0  0  0
   58.8640   33.3650   45.4600 C   0  0  0  0  0  0  0  0  0  0  0  0
   59.0260   34.7850   45.8560 C   0  0  0  0  0  0  0  0  0  0  0  0
   58.9090   35.2000   47.2200 N   0  0  0  0  0  0  0  0  0  0  0  0
   59.2590   35.6550   44.9740 O   0  0  0  0  0  0  0  0  0  0  0  0
   58.0410   33.0320   44.3480 C   0  0  0  0  0  0  0  0  0  0  0  0
   57.8730   31.6930   43.9500 C   0  0  0  0  0  0  0  0  0  0  0  0
   58.5450   30.7140   44.6710 C   0  0  0  0  0  0  0  0  0  0  0  0
   58.5280   29.3890   44.4680 N   0  0  0  0  0  0  0  0  0  0  0  0
   57.1110   27.4160   45.9220 C   0  0  0  0  0  0  0  0  0  0  0  0
   55.9070   26.7120   46.0150 C   0  0  0  0  0  0  0  0  0  0  0  0
   54.7406   22.0531   47.4054 H   0  0  0  0  0  0  0  0  0  0  0  0
   54.3147   20.8596   46.1323 H   0  0  0  0  0  0  0  0  0  0  0  0
   55.9361   21.6327   46.1323 H   0  0  0  0  0  0  0  0  0  0  0  0
   57.1005   23.5261   45.6763 H   0  0  0  0  0  0  0  0  0  0  0  0
   59.2488   24.7771   45.5174 H   0  0  0  0  0  0  0  0  0  0  0  0
   60.1607   27.3465   46.6152 H   0  0  0  0  0  0  0  0  0  0  0  0
   60.2242   27.0890   44.8353 H   0  0  0  0  0  0  0  0  0  0  0  0
   60.1851   32.5554   47.0157 H   0  0  0  0  0  0  0  0  0  0  0  0
   58.5650   34.5540   47.9640 H   0  0  0  0  0  0  0  0  0  0  0  0
   59.0870   36.1960   47.4770 H   0  0  0  0  0  0  0  0  0  0  0  0
   57.5295   33.8318   43.7924 H   0  0  0  0  0  0  0  0  0  0  0  0
   57.2310   31.4301   43.0964 H   0  0  0  0  0  0  0  0  0  0  0  0
   57.1121   28.5131   46.0020 H   0  0  0  0  0  0  0  0  0  0  0  0
   54.9651   27.2610   46.1612 H   0  0  0  0  0  0  0  0  0  0  0  0
  1  2  1  0
  2  3  2  0
  2  4  2  0
  2  5  1  0
  5  6  1  0
  6  7  2  0
  7  8  1  0
  8  9  2  0
  9 10  1  0
 10 11  1  0
 11 12  2  0
 12 13  1  0
 13 14  2  0
 14 15  1  0
 15 16  1  0
 16 17  1  0
 16 18  2  0
 15 19  2  0
 19 20  1  0
 20 21  2  0
 21 22  1  0
  9 23  1  0
 23 24  2  0
 24  6  1  0
 22 11  1  0
 21 13  1  0
  1 25  1  0
  1 26  1  0
  1 27  1  0
  7 28  1  0
  8 29  1  0
 10 30  1  0
 10 31  1  0
 14 32  1  0
 17 33  1  0
 17 34  1  0
 19 35  1  0
 20 36  1  0
 23 37  1  0
 24 38  1  0
M  CHG  2   5  -1  22  -1
M  END
>  <UniqueID>  (67) 
62

>  <SMILES>  (67) 
CS(=O)(=O)[N-]c1ccc(Cc2nc3cc(C(N)=O)ccc3[n-]2)cc1

>  <Energy>  (67) 
73.12362543159213

>  <Genealogy>  (67) 
CS(=O)(=O)[N-]c1ccc(Cc2nc3cc(C(N)=O)ccc3[n-]2)cc1 (protonated)
CS(=O)(=O)[N-]c1ccc(Cc2nc3cc(C(N)=O)ccc3[n-]2)cc1 (3D coordinates assigned)
CS(=O)(=O)[N-]c1ccc(Cc2nc3cc(C(N)=O)ccc3[n-]2)cc1 (optimized conformer: 73.12362543159213 kcal/mol)

>  <smiles>  (67) 
CS(=O)(=O)Nc1ccc(Cc2nc3cc(C(N)=O)ccc3[nH]2)cc1

>  <score_type>  (67) 
oracle

>  <origin>  (67) 
adg

>  <m_score__min__energy>  (67) 
-10.58

>  <m_primary>  (67) 
energy

$$$$
67:0
     RDKit          3D

 55 58  0  0  0  0  0  0  0  0999 V2000
   59.2058   28.5766   47.6060 H   0  0  0  0  0  0  0  0  0  0  0  0
   59.4600   28.7090   48.6680 C   0  0  0  0  0  0  0  0  0  0  0  0
   58.5190   29.1560   49.5410 N   0  0  0  0  0  0  0  0  0  0  0  0
   58.7820   29.3330   50.8690 C   0  0  0  0  0  0  0  0  0  0  0  0
   57.8650   29.7920   51.6760 N   0  0  0  0  0  0  0  0  0  0  0  0
   57.1020   31.0000   51.5130 C   0  0  0  0  0  0  0  0  0  0  0  0
   55.8610   30.9640   51.2990 O   0  0  0  0  0  0  0  0  0  0  0  0
   57.7900   32.3270   51.6260 C   0  0  0  0  0  0  0  0  0  0  0  0
   57.0303   33.1224   51.6125 H   0  0  0  0  0  0  0  0  0  0  0  0
   58.3592   32.3335   52.5673 H   0  0  0  0  0  0  0  0  0  0  0  0
   58.7570   32.5620   50.5000 C   0  0  0  0  0  0  0  0  0  0  0  0
   59.6330   33.9810   50.2940 S   0  0  0  0  0  0  0  0  0  0  0  0
   60.3380   33.4870   48.8470 C   0  0  0  0  0  0  0  0  0  0  0  0
   61.0531   34.0647   48.2429 H   0  0  0  0  0  0  0  0  0  0  0  0
   59.8530   32.2160   48.5530 C   0  0  0  0  0  0  0  0  0  0  0  0
   60.2330   31.4630   47.3150 C   0  0  0  0  0  0  0  0  0  0  0  0
   61.1546   31.8931   46.8958 H   0  0  0  0  0  0  0  0  0  0  0  0
   60.3970   30.4061   47.5720 H   0  0  0  0  0  0  0  0  0  0  0  0
   59.1320   31.5570   46.2960 C   0  0  0  0  0  0  0  0  0  0  0  0
   58.8510   32.7790   45.6660 C   0  0  0  0  0  0  0  0  0  0  0  0
   59.4621   33.6654   45.8913 H   0  0  0  0  0  0  0  0  0  0  0  0
   57.7980   32.8730   44.7540 C   0  0  0  0  0  0  0  0  0  0  0  0
   57.5918   33.8296   44.2517 H   0  0  0  0  0  0  0  0  0  0  0  0
   57.0050   31.7560   44.4770 C   0  0  0  0  0  0  0  0  0  0  0  0
   56.1758   31.8393   43.7591 H   0  0  0  0  0  0  0  0  0  0  0  0
   57.2600   30.5260   45.1100 C   0  0  0  0  0  0  0  0  0  0  0  0
   56.4000   29.3500   44.8490 C   0  0  0  0  0  0  0  0  0  0  0  0
   55.1470   29.4510   44.9570 O   0  0  0  0  0  0  0  0  0  0  0  0
   56.9960   28.0820   44.5380 N   0  0  0  0  0  0  0  0  0  0  0  0
   57.9620   27.3630   45.3200 C   0  0  0  0  0  0  0  0  0  0  0  0
   59.3270   27.7130   45.2620 C   0  0  0  0  0  0  0  0  0  0  0  0
   59.6505   28.5408   44.6138 H   0  0  0  0  0  0  0  0  0  0  0  0
   60.2700   27.0190   46.0190 C   0  0  0  0  0  0  0  0  0  0  0  0
   61.3336   27.2926   45.9571 H   0  0  0  0  0  0  0  0  0  0  0  0
   59.8660   25.9790   46.8540 C   0  0  0  0  0  0  0  0  0  0  0  0
   60.6143   25.4215   47.4364 H   0  0  0  0  0  0  0  0  0  0  0  0
   58.5140   25.6420   46.9540 C   0  0  0  0  0  0  0  0  0  0  0  0
   58.2050   24.8309   47.6298 H   0  0  0  0  0  0  0  0  0  0  0  0
   57.5410   26.3280   46.2000 C   0  0  0  0  0  0  0  0  0  0  0  0
   56.1100   25.9270   46.3300 C   0  0  0  0  0  0  0  0  0  0  0  0
   55.1940   26.7300   46.0050 O   0  0  0  0  0  0  0  0  0  0  0  0
   55.7480   24.6730   46.8110 O   0  0  0  0  0  0  0  0  0  0  0  0
   58.3330   30.4370   46.0160 C   0  0  0  0  0  0  0  0  0  0  0  0
   58.5484   29.4785   46.5108 H   0  0  0  0  0  0  0  0  0  0  0  0
   58.9640   31.7230   49.4580 N   0  0  0  0  0  0  0  0  0  0  0  0
   58.5060   30.7910   49.3590 H   0  0  0  0  0  0  0  0  0  0  0  0
   60.0710   29.0440   51.3640 C   0  0  0  0  0  0  0  0  0  0  0  0
   60.4100   29.2470   52.8180 C   0  0  0  0  0  0  0  0  0  0  0  0
   59.6339   28.7822   53.4438 H   0  0  0  0  0  0  0  0  0  0  0  0
   61.3832   28.7829   53.0359 H   0  0  0  0  0  0  0  0  0  0  0  0
   60.4604   30.3240   53.0359 H   0  0  0  0  0  0  0  0  0  0  0  0
   61.0530   28.5890   50.4680 C   0  0  0  0  0  0  0  0  0  0  0  0
   62.0666   28.3667   50.8329 H   0  0  0  0  0  0  0  0  0  0  0  0
   60.7480   28.4180   49.1180 C   0  0  0  0  0  0  0  0  0  0  0  0
   61.5143   28.0577   48.4159 H   0  0  0  0  0  0  0  0  0  0  0  0
  1  2  1  0
  2  3  1  0
  3  4  1  0
  4  5  2  0
  5  6  1  0
  6  7  2  0
  6  8  1  0
  8  9  1  0
  8 10  1  0
  8 11  1  0
 11 12  1  0
 12 13  1  0
 13 14  1  0
 13 15  2  0
 15 16  1  0
 16 17  1  0
 16 18  1  0
 16 19  1  0
 19 20  2  0
 20 21  1  0
 20 22  1  0
 22 23  1  0
 22 24  2  0
 24 25  1  0
 24 26  1  0
 26 27  1  0
 27 28  2  0
 27 29  1  0
 29 30  1  0
 30 31  2  0
 31 32  1  0
 31 33  1  0
 33 34  1  0
 33 35  2  0
 35 36  1  0
 35 37  1  0
 37 38  1  0
 37 39  2  0
 39 40  1  0
 40 41  2  0
 40 42  1  0
 26 43  2  0
 43 44  1  0
 15 45  1  0
 45 46  1  0
  4 47  1  0
 47 48  1  0
 48 49  1  0
 48 50  1  0
 48 51  1  0
 47 52  2  0
 52 53  1  0
 52 54  1  0
 54 55  1  0
 54  2  2  0
 45 11  2  0
 43 19  1  0
 39 30  1  0
M  CHG  4   3  -1  29  -1  42  -1  45   1
M  END
>  <UniqueID>  (68) 
63

>  <SMILES>  (68) 
Cc1ccc[n-]/c1=N\C(=O)Cc1[nH+]c(Cc2cccc(C(=O)[N-]c3ccccc3C(=O)[O-])c2)cs1

>  <Energy>  (68) 
94.0604700373184

>  <Genealogy>  (68) 
Cc1ccc[n-]c1=NC(=O)Cc1[nH+]c(Cc2cccc(C(=O)[N-]c3ccccc3C(=O)[O-])c2)cs1 (protonated)
Cc1ccc[n-]/c1=N\C(=O)Cc1[nH+]c(Cc2cccc(C(=O)[N-]c3ccccc3C(=O)[O-])c2)cs1 (cis-trans isomerization)
Cc1ccc[n-]/c1=N\C(=O)Cc1[nH+]c(Cc2cccc(C(=O)[N-]c3ccccc3C(=O)[O-])c2)cs1 (3D coordinates assigned)
Cc1ccc[n-]/c1=N\C(=O)Cc1[nH+]c(Cc2cccc(C(=O)[N-]c3ccccc3C(=O)[O-])c2)cs1 (optimized conformer: 94.0604700373184 kcal/mol)

>  <smiles>  (68) 
Cc1ccc[nH]c1=NC(=O)Cc1nc(Cc2cccc(C(=O)Nc3ccccc3C(=O)O)c2)cs1

>  <score_type>  (68) 
oracle

>  <origin>  (68) 
adg

>  <m_score__min__energy>  (68) 
-13.9

>  <m_primary>  (68) 
energy

$$$$
68:0
     RDKit          3D

 44 47  0  0  0  0  0  0  0  0999 V2000
   59.2730   35.5560   49.1660 H   0  0  0  0  0  0  0  0  0  0  0  0
   59.3490   34.5750   48.9350 O   0  0  0  0  0  0  0  0  0  0  0  0
   60.4670   34.0540   48.2870 C   0  0  0  0  0  0  0  0  0  0  0  0
   60.5630   33.5870   46.9760 C   0  0  0  0  0  0  0  0  0  0  0  0
   59.4390   33.5250   46.0090 C   0  0  0  0  0  0  0  0  0  0  0  0
   59.0817   34.4746   45.5840 H   0  0  0  0  0  0  0  0  0  0  0  0
   58.8200   32.3900   45.6100 C   0  0  0  0  0  0  0  0  0  0  0  0
   58.7000   30.9840   46.5190 S   0  0  0  0  0  0  0  0  0  0  0  0
   57.8770   30.0230   45.4110 C   0  0  0  0  0  0  0  0  0  0  0  0
   57.6340   28.6930   45.5910 C   0  0  0  0  0  0  0  0  0  0  0  0
   58.7060   27.7690   45.7140 C   0  0  0  0  0  0  0  0  0  0  0  0
   60.0330   28.1900   45.7280 O   0  0  0  0  0  0  0  0  0  0  0  0
   58.4570   26.4060   45.8950 C   0  0  0  0  0  0  0  0  0  0  0  0
   59.3024   25.7083   45.9870 H   0  0  0  0  0  0  0  0  0  0  0  0
   57.1470   25.9150   45.9610 C   0  0  0  0  0  0  0  0  0  0  0  0
   56.9370   24.6070   46.1650 C   0  0  0  0  0  0  0  0  0  0  0  0
   55.9100   24.2165   46.2176 H   0  0  0  0  0  0  0  0  0  0  0  0
   57.7917   23.9241   46.2798 H   0  0  0  0  0  0  0  0  0  0  0  0
   56.0740   26.8080   45.7940 C   0  0  0  0  0  0  0  0  0  0  0  0
   54.7590   26.3470   45.8110 O   0  0  0  0  0  0  0  0  0  0  0  0
   56.3120   28.1710   45.5770 C   0  0  0  0  0  0  0  0  0  0  0  0
   55.2230   28.9760   45.2500 O   0  0  0  0  0  0  0  0  0  0  0  0
   57.5960   30.8410   44.2870 C   0  0  0  0  0  0  0  0  0  0  0  0
   56.7000   30.4890   43.3430 C   0  0  0  0  0  0  0  0  0  0  0  0
   56.2857   29.4701   43.3306 H   0  0  0  0  0  0  0  0  0  0  0  0
   56.3833   31.2207   42.5852 H   0  0  0  0  0  0  0  0  0  0  0  0
   58.1820   32.1480   44.3710 C   0  0  0  0  0  0  0  0  0  0  0  0
   58.1270   33.0570   43.3760 C   0  0  0  0  0  0  0  0  0  0  0  0
   57.6159   32.8106   42.4336 H   0  0  0  0  0  0  0  0  0  0  0  0
   58.5932   34.0447   43.5069 H   0  0  0  0  0  0  0  0  0  0  0  0
   61.8240   33.1550   46.7180 N   0  0  0  0  0  0  0  0  0  0  0  0
   62.5060   33.3620   47.8620 C   0  0  0  0  0  0  0  0  0  0  0  0
   63.8480   33.0720   48.0950 C   0  0  0  0  0  0  0  0  0  0  0  0
   64.4776   32.6326   47.3072 H   0  0  0  0  0  0  0  0  0  0  0  0
   64.3750   33.3580   49.3690 C   0  0  0  0  0  0  0  0  0  0  0  0
   65.4289   33.1300   49.5864 H   0  0  0  0  0  0  0  0  0  0  0  0
   63.5600   33.9370   50.3740 C   0  0  0  0  0  0  0  0  0  0  0  0
   64.1240   34.2000   51.7380 C   0  0  0  0  0  0  0  0  0  0  0  0
   63.4068   33.8656   52.5021 H   0  0  0  0  0  0  0  0  0  0  0  0
   65.0691   33.6497   51.8564 H   0  0  0  0  0  0  0  0  0  0  0  0
   64.3099   35.2777   51.8564 H   0  0  0  0  0  0  0  0  0  0  0  0
   62.1990   34.2030   50.1090 C   0  0  0  0  0  0  0  0  0  0  0  0
   61.5430   34.6307   50.8815 H   0  0  0  0  0  0  0  0  0  0  0  0
   61.7140   33.9060   48.8370 C   0  0  0  0  0  0  0  0  0  0  0  0
  1  2  1  0
  2  3  1  0
  3  4  2  0
  4  5  1  0
  5  6  1  0
  5  7  2  0
  7  8  1  0
  8  9  1  0
  9 10  2  3
 10 11  1  0
 11 12  1  0
 11 13  2  0
 13 14  1  0
 13 15  1  0
 15 16  2  0
 16 17  1  0
 16 18  1  0
 15 19  1  0
 19 20  1  0
 19 21  2  0
 21 22  1  0
  9 23  1  0
 23 24  2  0
 24 25  1  0
 24 26  1  0
 23 27  1  0
 27 28  2  0
 28 29  1  0
 28 30  1  0
  4 31  1  0
 31 32  1  0
 32 33  2  0
 33 34  1  0
 33 35  1  0
 35 36  1  0
 35 37  2  0
 37 38  1  0
 38 39  1  0
 38 40  1  0
 38 41  1  0
 37 42  1  0
 42 43  1  0
 42 44  2  0
 44  3  1  0
 27  7  1  0
 44 32  1  0
 21 10  1  0
M  CHG  4  12  -1  20  -1  22  -1  31  -1
M  END
>  <UniqueID>  (69) 
64

>  <SMILES>  (69) 
C=c1cc([O-])c(=c2s/c(=C\c3[n-]c4ccc(C)cc4c3O)c(=C)c2=C)c([O-])c1[O-]

>  <Energy>  (69) 
147.4046084929371

>  <Genealogy>  (69) 
C=c1cc([O-])c(=c2sc(=Cc3[n-]c4ccc(C)cc4c3O)c(=C)c2=C)c([O-])c1[O-] (protonated)
C=c1cc([O-])c(=c2s/c(=C\c3[n-]c4ccc(C)cc4c3O)c(=C)c2=C)c([O-])c1[O-] (cis-trans isomerization)
C=c1cc([O-])c(=c2s/c(=C\c3[n-]c4ccc(C)cc4c3O)c(=C)c2=C)c([O-])c1[O-] (3D coordinates assigned)
C=c1cc([O-])c(=c2s/c(=C\c3[n-]c4ccc(C)cc4c3O)c(=C)c2=C)c([O-])c1[O-] (optimized conformer: 147.4046084929371 kcal/mol)

>  <smiles>  (69) 
C=c1cc(O)c(=c2sc(=Cc3[nH]c4ccc(C)cc4c3O)c(=C)c2=C)c(O)c1O

>  <score_type>  (69) 
oracle

>  <origin>  (69) 
adg

>  <m_score__min__energy>  (69) 
-18

>  <m_primary>  (69) 
energy

$$$$
69:0
     RDKit          3D

 55 57  0  0  0  0  0  0  0  0999 V2000
   52.2040   29.8970   50.2180 C   0  0  0  0  0  0  0  0  0  0  0  0
   52.3220   31.0230   50.9310 C   0  0  0  0  0  0  0  0  0  0  0  0
   53.3800   31.1060   52.0090 C   0  0  0  0  0  0  0  0  0  0  0  0
   54.6470   30.6570   51.5240 O   0  0  0  0  0  0  0  0  0  0  0  0
   55.8750   30.8280   52.1820 C   0  0  0  0  0  0  0  0  0  0  0  0
   56.3750   29.8950   53.1100 C   0  0  0  0  0  0  0  0  0  0  0  0
   57.6010   30.1200   53.7400 C   0  0  0  0  0  0  0  0  0  0  0  0
   58.3410   31.2690   53.4520 C   0  0  0  0  0  0  0  0  0  0  0  0
   57.8580   32.2070   52.5190 C   0  0  0  0  0  0  0  0  0  0  0  0
   58.5570   33.3790   52.1870 O   0  0  0  0  0  0  0  0  0  0  0  0
   59.5660   33.4880   51.1840 C   0  0  0  0  0  0  0  0  0  0  0  0
   60.2490   32.1220   50.9620 C   0  0  0  0  0  0  0  0  0  0  0  0
   59.8510   31.4330   49.7140 N   0  0  0  0  0  0  0  0  0  0  0  0
   59.4930   30.0110   49.9180 C   0  0  0  0  0  0  0  0  0  0  0  0
   58.9150   29.3670   48.6360 C   0  0  0  0  0  0  0  0  0  0  0  0
   59.3070   30.1680   47.3800 C   0  0  0  0  0  0  0  0  0  0  0  0
   58.8100   29.4990   46.1110 C   0  0  0  0  0  0  0  0  0  0  0  0
   59.0960   28.1420   45.8720 C   0  0  0  0  0  0  0  0  0  0  0  0
   58.6450   27.5160   44.7060 C   0  0  0  0  0  0  0  0  0  0  0  0
   57.9050   28.2340   43.7620 C   0  0  0  0  0  0  0  0  0  0  0  0
   57.4620   27.5970   42.6050 O   0  0  0  0  0  0  0  0  0  0  0  0
   57.6180   29.5870   43.9880 C   0  0  0  0  0  0  0  0  0  0  0  0
   58.0670   30.2150   45.1530 C   0  0  0  0  0  0  0  0  0  0  0  0
   58.8200   31.6330   47.4780 C   0  0  0  0  0  0  0  0  0  0  0  0
   58.8400   32.1580   48.9260 C   0  0  0  0  0  0  0  0  0  0  0  0
   56.6260   31.9740   51.8950 C   0  0  0  0  0  0  0  0  0  0  0  0
   51.3860   32.1490   50.7080 C   0  0  0  0  0  0  0  0  0  0  0  0
   50.8390   32.3120   49.5850 O   0  0  0  0  0  0  0  0  0  0  0  0
   51.1000   33.0450   51.7310 O   0  0  0  0  0  0  0  0  0  0  0  0
   51.4393   29.8220   49.4309 H   0  0  0  0  0  0  0  0  0  0  0  0
   52.8717   29.0462   50.4189 H   0  0  0  0  0  0  0  0  0  0  0  0
   53.4725   32.1505   52.3415 H   0  0  0  0  0  0  0  0  0  0  0  0
   53.0774   30.4586   52.8452 H   0  0  0  0  0  0  0  0  0  0  0  0
   55.7987   28.9866   53.3395 H   0  0  0  0  0  0  0  0  0  0  0  0
   57.9856   29.3889   54.4664 H   0  0  0  0  0  0  0  0  0  0  0  0
   59.3037   31.4418   53.9553 H   0  0  0  0  0  0  0  0  0  0  0  0
   59.1067   33.8217   50.2418 H   0  0  0  0  0  0  0  0  0  0  0  0
   60.3212   34.2168   51.5134 H   0  0  0  0  0  0  0  0  0  0  0  0
   61.3369   32.2822   50.9342 H   0  0  0  0  0  0  0  0  0  0  0  0
   59.9310   31.4743   51.7923 H   0  0  0  0  0  0  0  0  0  0  0  0
   60.3953   29.4575   50.2172 H   0  0  0  0  0  0  0  0  0  0  0  0
   58.7194   29.9650   50.6986 H   0  0  0  0  0  0  0  0  0  0  0  0
   59.3043   28.3424   48.5432 H   0  0  0  0  0  0  0  0  0  0  0  0
   57.8179   29.3615   48.7152 H   0  0  0  0  0  0  0  0  0  0  0  0
   60.4056   30.1847   47.3275 H   0  0  0  0  0  0  0  0  0  0  0  0
   59.6790   27.5693   46.6083 H   0  0  0  0  0  0  0  0  0  0  0  0
   58.8734   26.4543   44.5308 H   0  0  0  0  0  0  0  0  0  0  0  0
   56.6630   26.9750   42.6160 H   0  0  0  0  0  0  0  0  0  0  0  0
   57.0379   30.1561   43.2466 H   0  0  0  0  0  0  0  0  0  0  0  0
   57.8380   31.2774   45.3229 H   0  0  0  0  0  0  0  0  0  0  0  0
   59.4761   32.2662   46.8627 H   0  0  0  0  0  0  0  0  0  0  0  0
   57.7801   31.6674   47.1210 H   0  0  0  0  0  0  0  0  0  0  0  0
   59.0837   33.2307   48.9206 H   0  0  0  0  0  0  0  0  0  0  0  0
   57.8501   32.0009   49.3793 H   0  0  0  0  0  0  0  0  0  0  0  0
   56.2420   32.7038   51.1671 H   0  0  0  0  0  0  0  0  0  0  0  0
  1  2  2  0
  2  3  1  0
  3  4  1  0
  4  5  1  0
  5  6  2  0
  6  7  1  0
  7  8  2  0
  8  9  1  0
  9 10  1  0
 10 11  1  0
 11 12  1  0
 12 13  1  0
 13 14  1  0
 14 15  1  0
 15 16  1  0
 16 17  1  0
 17 18  2  0
 18 19  1  0
 19 20  2  0
 20 21  1  0
 20 22  1  0
 22 23  2  0
 16 24  1  0
 24 25  1  0
  9 26  2  0
  2 27  1  0
 27 28  2  0
 27 29  1  0
 26  5  1  0
 25 13  1  0
 23 17  1  0
  1 30  1  0
  1 31  1  0
  3 32  1  0
  3 33  1  0
  6 34  1  0
  7 35  1  0
  8 36  1  0
 11 37  1  0
 11 38  1  0
 12 39  1  0
 12 40  1  0
 14 41  1  0
 14 42  1  0
 15 43  1  0
 15 44  1  0
 16 45  1  0
 18 46  1  0
 19 47  1  0
 21 48  1  0
 22 49  1  0
 23 50  1  0
 24 51  1  0
 24 52  1  0
 25 53  1  0
 25 54  1  0
 26 55  1  0
M  CHG  1  29  -1
M  END
>  <UniqueID>  (70) 
65

>  <SMILES>  (70) 
C=C(COc1cccc(OCCN2CCC(c3ccc(O)cc3)CC2)c1)C(=O)[O-]

>  <Energy>  (70) 
64.13014119215153

>  <Genealogy>  (70) 
C=C(COc1cccc(OCCN2CCC(c3ccc(O)cc3)CC2)c1)C(=O)[O-] (protonated)
C=C(COc1cccc(OCCN2CCC(c3ccc(O)cc3)CC2)c1)C(=O)[O-] (3D coordinates assigned)
C=C(COc1cccc(OCCN2CCC(c3ccc(O)cc3)CC2)c1)C(=O)[O-] (nonaromatic ring conformer: 64.13014119215153 kcal/mol)

>  <smiles>  (70) 
C=C(COc1cccc(OCCN2CCC(c3ccc(O)cc3)CC2)c1)C(=O)O

>  <score_type>  (70) 
oracle

>  <origin>  (70) 
adg

>  <m_score__min__energy>  (70) 
-11.300000000000001

>  <m_primary>  (70) 
energy

$$$$
70:0
     RDKit          3D

 46 49  0  0  0  0  0  0  0  0999 V2000
   59.5250   28.1630   46.8510 C   0  0  0  0  0  0  0  0  0  0  0  0
   58.7870   28.9590   46.0600 C   0  0  0  0  0  0  0  0  0  0  0  0
   57.8760   28.5640   45.0640 C   0  0  0  0  0  0  0  0  0  0  0  0
   57.3780   27.3510   44.7480 C   0  0  0  0  0  0  0  0  0  0  0  0
   57.2420   26.2100   45.6740 C   0  0  0  0  0  0  0  0  0  0  0  0
   56.0090   25.9400   46.2840 C   0  0  0  0  0  0  0  0  0  0  0  0
   54.8890   26.7070   45.9870 O   0  0  0  0  0  0  0  0  0  0  0  0
   55.9000   24.9150   47.1680 N   0  0  0  0  0  0  0  0  0  0  0  0
   56.9740   24.1490   47.4890 C   0  0  0  0  0  0  0  0  0  0  0  0
   56.8480   23.2010   48.3070 O   0  0  0  0  0  0  0  0  0  0  0  0
   58.1850   24.4070   46.9320 N   0  0  0  0  0  0  0  0  0  0  0  0
   58.3460   25.4220   46.0440 C   0  0  0  0  0  0  0  0  0  0  0  0
   59.4890   25.6470   45.5650 O   0  0  0  0  0  0  0  0  0  0  0  0
   57.5140   29.7190   44.3900 C   0  0  0  0  0  0  0  0  0  0  0  0
   58.1530   30.7670   45.0180 C   0  0  0  0  0  0  0  0  0  0  0  0
   58.0260   32.2050   44.6140 C   0  0  0  0  0  0  0  0  0  0  0  0
   58.9260   30.3100   46.0280 N   0  0  0  0  0  0  0  0  0  0  0  0
   59.7500   31.1190   46.8870 C   0  0  0  0  0  0  0  0  0  0  0  0
   59.1600   31.9800   47.8220 C   0  0  0  0  0  0  0  0  0  0  0  0
   59.9580   32.7730   48.6510 C   0  0  0  0  0  0  0  0  0  0  0  0
   61.3600   32.7090   48.5650 C   0  0  0  0  0  0  0  0  0  0  0  0
   62.1910   33.5540   49.4480 C   0  0  0  0  0  0  0  0  0  0  0  0
   61.6900   34.5870   49.9680 O   0  0  0  0  0  0  0  0  0  0  0  0
   63.5400   33.2040   49.7700 N   0  0  0  0  0  0  0  0  0  0  0  0
   64.4670   32.0670   49.6110 C   0  0  0  0  0  0  0  0  0  0  0  0
   65.5480   32.6200   50.4780 C   0  0  0  0  0  0  0  0  0  0  0  0
   64.6030   33.7660   50.6220 C   0  0  0  0  0  0  0  0  0  0  0  0
   61.9460   31.8570   47.6140 C   0  0  0  0  0  0  0  0  0  0  0  0
   61.1470   31.0660   46.7840 C   0  0  0  0  0  0  0  0  0  0  0  0
   60.2040   28.6043   47.5955 H   0  0  0  0  0  0  0  0  0  0  0  0
   59.4504   27.0698   46.7544 H   0  0  0  0  0  0  0  0  0  0  0  0
   57.0445   27.1992   43.7108 H   0  0  0  0  0  0  0  0  0  0  0  0
   56.8445   29.7870   43.5198 H   0  0  0  0  0  0  0  0  0  0  0  0
   57.9703   32.8351   45.5139 H   0  0  0  0  0  0  0  0  0  0  0  0
   58.9019   32.4965   44.0158 H   0  0  0  0  0  0  0  0  0  0  0  0
   57.1126   32.3385   44.0158 H   0  0  0  0  0  0  0  0  0  0  0  0
   58.0643   32.0319   47.9037 H   0  0  0  0  0  0  0  0  0  0  0  0
   59.4859   33.4522   49.3761 H   0  0  0  0  0  0  0  0  0  0  0  0
   64.0528   31.1244   49.9983 H   0  0  0  0  0  0  0  0  0  0  0  0
   64.7435   31.7865   48.5839 H   0  0  0  0  0  0  0  0  0  0  0  0
   65.7534   32.0552   51.3993 H   0  0  0  0  0  0  0  0  0  0  0  0
   66.5965   32.7240   50.1620 H   0  0  0  0  0  0  0  0  0  0  0  0
   64.2770   33.9189   51.6614 H   0  0  0  0  0  0  0  0  0  0  0  0
   64.9825   34.7634   50.3552 H   0  0  0  0  0  0  0  0  0  0  0  0
   63.0412   31.8122   47.5221 H   0  0  0  0  0  0  0  0  0  0  0  0
   61.6166   30.3986   46.0464 H   0  0  0  0  0  0  0  0  0  0  0  0
  1  2  2  0
  2  3  1  0
  3  4  2  3
  4  5  1  0
  5  6  2  0
  6  7  1  0
  6  8  1  0
  8  9  1  0
  9 10  2  0
  9 11  1  0
 11 12  1  0
 12 13  2  0
  3 14  1  0
 14 15  2  0
 15 16  1  0
 15 17  1  0
 17 18  1  0
 18 19  2  0
 19 20  1  0
 20 21  2  0
 21 22  1  0
 22 23  2  0
 22 24  1  0
 24 25  1  0
 25 26  1  0
 26 27  1  0
 21 28  1  0
 28 29  2  0
 17  2  1  0
 29 18  1  0
 12  5  1  0
 27 24  1  0
  1 30  1  0
  1 31  1  0
  4 32  1  0
 14 33  1  0
 16 34  1  0
 16 35  1  0
 16 36  1  0
 19 37  1  0
 20 38  1  0
 25 39  1  0
 25 40  1  0
 26 41  1  0
 26 42  1  0
 27 43  1  0
 27 44  1  0
 28 45  1  0
 29 46  1  0
M  CHG  3   7  -1   8  -1  11  -1
M  END
>  <UniqueID>  (71) 
66

>  <SMILES>  (71) 
C=c1c(=Cc2c([O-])[n-]c(=O)[n-]c2=O)cc(C)n1-c1ccc(C(=O)N2CCC2)cc1

>  <Energy>  (71) 
144.80737775380442

>  <Genealogy>  (71) 
C=c1c(=Cc2c([O-])[n-]c(=O)[n-]c2=O)cc(C)n1-c1ccc(C(=O)N2CCC2)cc1 (protonated)
C=c1c(=Cc2c([O-])[n-]c(=O)[n-]c2=O)cc(C)n1-c1ccc(C(=O)N2CCC2)cc1 (3D coordinates assigned)
C=c1c(=Cc2c([O-])[n-]c(=O)[n-]c2=O)cc(C)n1-c1ccc(C(=O)N2CCC2)cc1 (nonaromatic ring conformer: 144.80737775380442 kcal/mol)

>  <smiles>  (71) 
C=c1c(=Cc2c(O)[nH]c(=O)[nH]c2=O)cc(C)n1-c1ccc(C(=O)N2CCC2)cc1

>  <score_type>  (71) 
oracle

>  <origin>  (71) 
adg

>  <m_score__min__energy>  (71) 
-15.98

>  <m_primary>  (71) 
energy

$$$$
71:0
     RDKit          3D

 56 59  0  0  0  0  0  0  0  0999 V2000
   55.1530   26.0620   46.2390 N   0  0  0  0  0  0  0  0  0  0  0  0
   56.8720   25.9250   46.1350 S   0  0  0  0  0  0  0  0  0  0  0  0
   57.4390   25.7000   47.5080 O   0  0  0  0  0  0  0  0  0  0  0  0
   57.2310   24.7510   45.2670 O   0  0  0  0  0  0  0  0  0  0  0  0
   57.5400   27.4020   45.4490 C   0  0  0  0  0  0  0  0  0  0  0  0
   58.8930   27.4600   45.0870 C   0  0  0  0  0  0  0  0  0  0  0  0
   59.4190   28.6260   44.5280 C   0  0  0  0  0  0  0  0  0  0  0  0
   58.6010   29.7410   44.3270 C   0  0  0  0  0  0  0  0  0  0  0  0
   57.2440   29.7010   44.6930 C   0  0  0  0  0  0  0  0  0  0  0  0
   56.3660   30.8770   44.4800 C   0  0  0  0  0  0  0  0  0  0  0  0
   55.1310   30.7010   44.3010 O   0  0  0  0  0  0  0  0  0  0  0  0
   56.8840   32.2120   44.4200 N   0  0  0  0  0  0  0  0  0  0  0  0
   57.9890   32.7260   45.1790 C   0  0  0  0  0  0  0  0  0  0  0  0
   58.1630   32.2940   46.4980 C   0  0  0  0  0  0  0  0  0  0  0  0
   59.2380   32.7600   47.2590 C   0  0  0  0  0  0  0  0  0  0  0  0
   60.1660   33.6610   46.7100 C   0  0  0  0  0  0  0  0  0  0  0  0
   61.3000   34.1060   47.4860 N   0  0  0  0  0  0  0  0  0  0  0  0
   62.6420   34.2030   46.9090 C   0  0  0  0  0  0  0  0  0  0  0  0
   63.5700   33.2160   47.6240 C   0  0  0  0  0  0  0  0  0  0  0  0
   63.3430   33.1590   49.0890 N   0  0  0  0  0  0  0  0  0  0  0  0
   63.1640   31.8010   49.6530 C   0  0  0  0  0  0  0  0  0  0  0  0
   61.9570   31.0700   49.1070 C   0  0  0  0  0  0  0  0  0  0  0  0
   60.8870   30.7400   49.9570 C   0  0  0  0  0  0  0  0  0  0  0  0
   59.7570   30.0910   49.4520 C   0  0  0  0  0  0  0  0  0  0  0  0
   59.6910   29.7500   48.0980 C   0  0  0  0  0  0  0  0  0  0  0  0
   60.7620   30.0450   47.2530 C   0  0  0  0  0  0  0  0  0  0  0  0
   61.8950   30.6930   47.7540 C   0  0  0  0  0  0  0  0  0  0  0  0
   62.4860   34.2180   49.6700 C   0  0  0  0  0  0  0  0  0  0  0  0
   61.1500   34.3850   48.9180 C   0  0  0  0  0  0  0  0  0  0  0  0
   60.0020   34.0740   45.3750 C   0  0  0  0  0  0  0  0  0  0  0  0
   58.9290   33.6040   44.6140 C   0  0  0  0  0  0  0  0  0  0  0  0
   56.7170   28.5170   45.2400 C   0  0  0  0  0  0  0  0  0  0  0  0
   54.9350   27.0760   46.3690 H   0  0  0  0  0  0  0  0  0  0  0  0
   59.5413   26.5853   45.2437 H   0  0  0  0  0  0  0  0  0  0  0  0
   60.4811   28.6672   44.2447 H   0  0  0  0  0  0  0  0  0  0  0  0
   59.0207   30.6544   43.8803 H   0  0  0  0  0  0  0  0  0  0  0  0
   57.4489   31.5829   46.9389 H   0  0  0  0  0  0  0  0  0  0  0  0
   59.3590   32.4184   48.2976 H   0  0  0  0  0  0  0  0  0  0  0  0
   62.6003   33.9585   45.8373 H   0  0  0  0  0  0  0  0  0  0  0  0
   63.0248   35.2267   47.0334 H   0  0  0  0  0  0  0  0  0  0  0  0
   63.4034   32.2127   47.2048 H   0  0  0  0  0  0  0  0  0  0  0  0
   64.6017   33.5630   47.4657 H   0  0  0  0  0  0  0  0  0  0  0  0
   64.0620   31.2085   49.4236 H   0  0  0  0  0  0  0  0  0  0  0  0
   63.0052   31.9205   50.7349 H   0  0  0  0  0  0  0  0  0  0  0  0
   60.9395   30.9941   51.0260 H   0  0  0  0  0  0  0  0  0  0  0  0
   58.9183   29.8482   50.1210 H   0  0  0  0  0  0  0  0  0  0  0  0
   58.7962   29.2498   47.6990 H   0  0  0  0  0  0  0  0  0  0  0  0
   60.7145   29.7668   46.1898 H   0  0  0  0  0  0  0  0  0  0  0  0
   62.7421   30.9089   47.0863 H   0  0  0  0  0  0  0  0  0  0  0  0
   62.2700   33.9602   50.7173 H   0  0  0  0  0  0  0  0  0  0  0  0
   63.0331   35.1688   49.5884 H   0  0  0  0  0  0  0  0  0  0  0  0
   60.4117   33.6887   49.3423 H   0  0  0  0  0  0  0  0  0  0  0  0
   60.8173   35.4271   49.0333 H   0  0  0  0  0  0  0  0  0  0  0  0
   60.7243   34.7724   44.9271 H   0  0  0  0  0  0  0  0  0  0  0  0
   58.8195   33.9230   43.5670 H   0  0  0  0  0  0  0  0  0  0  0  0
   55.6508   28.4659   45.5057 H   0  0  0  0  0  0  0  0  0  0  0  0
  1  2  1  0
  2  3  2  0
  2  4  2  0
  2  5  1  0
  5  6  2  0
  6  7  1  0
  7  8  2  0
  8  9  1  0
  9 10  1  0
 10 11  2  0
 10 12  1  0
 12 13  1  0
 13 14  2  0
 14 15  1  0
 15 16  2  0
 16 17  1  0
 17 18  1  0
 18 19  1  0
 19 20  1  0
 20 21  1  0
 21 22  1  0
 22 23  2  0
 23 24  1  0
 24 25  2  0
 25 26  1  0
 26 27  2  0
 20 28  1  0
 28 29  1  0
 16 30  1  0
 30 31  2  0
  9 32  2  0
 32  5  1  0
 31 13  1  0
 29 17  1  0
 27 22  1  0
  1 33  1  0
  6 34  1  0
  7 35  1  0
  8 36  1  0
 14 37  1  0
 15 38  1  0
 18 39  1  0
 18 40  1  0
 19 41  1  0
 19 42  1  0
 21 43  1  0
 21 44  1  0
 23 45  1  0
 24 46  1  0
 25 47  1  0
 26 48  1  0
 27 49  1  0
 28 50  1  0
 28 51  1  0
 29 52  1  0
 29 53  1  0
 30 54  1  0
 31 55  1  0
 32 56  1  0
M  CHG  2   1  -1  12  -1
M  END
>  <UniqueID>  (72) 
67

>  <SMILES>  (72) 
[NH-]S(=O)(=O)c1cccc(C(=O)[N-]c2ccc(N3CCN(Cc4ccccc4)CC3)cc2)c1

>  <Energy>  (72) 
79.64344402290962

>  <Genealogy>  (72) 
[NH-]S(=O)(=O)c1cccc(C(=O)[N-]c2ccc(N3CCN(Cc4ccccc4)CC3)cc2)c1 (protonated)
[NH-]S(=O)(=O)c1cccc(C(=O)[N-]c2ccc(N3CCN(Cc4ccccc4)CC3)cc2)c1 (3D coordinates assigned)
[NH-]S(=O)(=O)c1cccc(C(=O)[N-]c2ccc(N3CCN(Cc4ccccc4)CC3)cc2)c1 (nonaromatic ring conformer: 79.64344402290962 kcal/mol)

>  <smiles>  (72) 
NS(=O)(=O)c1cccc(C(=O)Nc2ccc(N3CCN(Cc4ccccc4)CC3)cc2)c1

>  <score_type>  (72) 
oracle

>  <origin>  (72) 
adg

>  <m_score__min__energy>  (72) 
-13.710000000000001

>  <m_primary>  (72) 
energy

$$$$
72:0
     RDKit          3D

 45 47  0  0  0  0  0  0  0  0999 V2000
   57.7440   31.7510   43.9650 C   0  0  0  0  0  0  0  0  0  0  0  0
   57.0290   32.8600   45.2180 S   0  0  0  0  0  0  0  0  0  0  0  0
   58.6010   33.1530   46.0200 C   0  0  0  0  0  0  0  0  0  0  0  0
   58.9120   34.3740   46.5360 N   0  0  0  0  0  0  0  0  0  0  0  0
   60.4360   34.1900   47.1710 S   0  0  0  0  0  0  0  0  0  0  0  0
   60.6370   32.5920   46.7760 C   0  0  0  0  0  0  0  0  0  0  0  0
   62.0850   31.5930   47.1130 S   0  0  0  0  0  0  0  0  0  0  0  0
   61.4600   30.9500   48.7020 C   0  0  0  0  0  0  0  0  0  0  0  0
   60.2910   30.0400   48.4830 C   0  0  0  0  0  0  0  0  0  0  0  0
   59.5910   29.6840   49.4700 O   0  0  0  0  0  0  0  0  0  0  0  0
   59.9540   29.6130   47.1550 N   0  0  0  0  0  0  0  0  0  0  0  0
   58.9970   28.5810   46.8580 C   0  0  0  0  0  0  0  0  0  0  0  0
   57.9430   28.7970   45.9510 C   0  0  0  0  0  0  0  0  0  0  0  0
   57.0140   27.7840   45.6960 C   0  0  0  0  0  0  0  0  0  0  0  0
   57.1160   26.5500   46.3500 C   0  0  0  0  0  0  0  0  0  0  0  0
   55.9660   25.2600   46.0080 S   0  0  0  0  0  0  0  0  0  0  0  0
   55.7780   24.4350   47.2520 O   0  0  0  0  0  0  0  0  0  0  0  0
   54.6380   25.8520   45.6240 O   0  0  0  0  0  0  0  0  0  0  0  0
   56.5760   24.2510   44.7210 N   0  0  0  0  0  0  0  0  0  0  0  0
   55.4930   23.9460   43.7720 C   0  0  0  0  0  0  0  0  0  0  0  0
   56.0040   22.9760   42.6980 C   0  0  0  0  0  0  0  0  0  0  0  0
   56.4840   21.7830   43.2880 O   0  0  0  0  0  0  0  0  0  0  0  0
   57.5670   22.0780   44.1500 C   0  0  0  0  0  0  0  0  0  0  0  0
   57.1180   23.0050   45.2850 C   0  0  0  0  0  0  0  0  0  0  0  0
   58.1560   26.3370   47.2640 C   0  0  0  0  0  0  0  0  0  0  0  0
   59.0830   27.3500   47.5230 C   0  0  0  0  0  0  0  0  0  0  0  0
   59.5330   32.1570   46.1380 N   0  0  0  0  0  0  0  0  0  0  0  0
   58.2750   30.9273   44.4646 H   0  0  0  0  0  0  0  0  0  0  0  0
   56.9397   31.3410   43.3365 H   0  0  0  0  0  0  0  0  0  0  0  0
   58.4495   32.3143   43.3365 H   0  0  0  0  0  0  0  0  0  0  0  0
   62.2626   30.3916   49.2061 H   0  0  0  0  0  0  0  0  0  0  0  0
   61.1359   31.7980   49.3232 H   0  0  0  0  0  0  0  0  0  0  0  0
   60.3700   30.1400   46.3540 H   0  0  0  0  0  0  0  0  0  0  0  0
   57.8497   29.7669   45.4406 H   0  0  0  0  0  0  0  0  0  0  0  0
   56.1988   27.9571   44.9780 H   0  0  0  0  0  0  0  0  0  0  0  0
   54.6531   23.4843   44.3118 H   0  0  0  0  0  0  0  0  0  0  0  0
   55.1567   24.8767   43.2918 H   0  0  0  0  0  0  0  0  0  0  0  0
   55.1807   22.7327   42.0103 H   0  0  0  0  0  0  0  0  0  0  0  0
   56.8289   23.4566   42.1516 H   0  0  0  0  0  0  0  0  0  0  0  0
   57.9523   21.1415   44.5795 H   0  0  0  0  0  0  0  0  0  0  0  0
   58.3534   22.5834   43.5702 H   0  0  0  0  0  0  0  0  0  0  0  0
   56.3403   22.5043   45.8804 H   0  0  0  0  0  0  0  0  0  0  0  0
   57.9799   23.2398   45.9268 H   0  0  0  0  0  0  0  0  0  0  0  0
   58.2432   25.3692   47.7795 H   0  0  0  0  0  0  0  0  0  0  0  0
   59.8867   27.1801   48.2546 H   0  0  0  0  0  0  0  0  0  0  0  0
  1  2  1  0
  2  3  1  0
  3  4  2  0
  4  5  1  0
  5  6  1  0
  6  7  1  0
  7  8  1  0
  8  9  1  0
  9 10  2  0
  9 11  1  0
 11 12  1  0
 12 13  2  0
 13 14  1  0
 14 15  2  0
 15 16  1  0
 16 17  2  0
 16 18  2  0
 16 19  1  0
 19 20  1  0
 20 21  1  0
 21 22  1  0
 22 23  1  0
 23 24  1  0
 15 25  1  0
 25 26  2  0
  6 27  2  0
 27  3  1  0
 26 12  1  0
 24 19  1  0
  1 28  1  0
  1 29  1  0
  1 30  1  0
  8 31  1  0
  8 32  1  0
 11 33  1  0
 13 34  1  0
 14 35  1  0
 20 36  1  0
 20 37  1  0
 21 38  1  0
 21 39  1  0
 23 40  1  0
 23 41  1  0
 24 42  1  0
 24 43  1  0
 25 44  1  0
 26 45  1  0
M  END
>  <UniqueID>  (73) 
68

>  <SMILES>  (73) 
CSc1nsc(SCC(=O)Nc2ccc(S(=O)(=O)N3CCOCC3)cc2)n1

>  <Energy>  (73) 
76.89290970065503

>  <Genealogy>  (73) 
CSc1nsc(SCC(=O)Nc2ccc(S(=O)(=O)N3CCOCC3)cc2)n1 (3D coordinates assigned)
CSc1nsc(SCC(=O)Nc2ccc(S(=O)(=O)N3CCOCC3)cc2)n1 (nonaromatic ring conformer: 76.89290970065503 kcal/mol)

>  <smiles>  (73) 
CSc1nsc(SCC(=O)Nc2ccc(S(=O)(=O)N3CCOCC3)cc2)n1

>  <score_type>  (73) 
oracle

>  <origin>  (73) 
adg

>  <m_score__min__energy>  (73) 
-10.199999999999999

>  <m_primary>  (73) 
energy

$$$$
73:0
     RDKit          3D

 47 50  0  0  0  0  0  0  0  0999 V2000
   56.1426   18.8885   46.7851 H   0  0  0  0  0  0  0  0  0  0  0  0
   56.4110   19.7650   46.1770 C   0  0  0  0  0  0  0  0  0  0  0  0
   56.2560   19.7290   44.7920 C   0  0  0  0  0  0  0  0  0  0  0  0
   55.8551   18.8301   44.3008 H   0  0  0  0  0  0  0  0  0  0  0  0
   56.6150   20.8460   44.0350 C   0  0  0  0  0  0  0  0  0  0  0  0
   56.5074   20.8239   42.9405 H   0  0  0  0  0  0  0  0  0  0  0  0
   57.0980   21.9630   44.6470 N   0  0  0  0  0  0  0  0  0  0  0  0
   57.4030   22.7570   44.0430 H   0  0  0  0  0  0  0  0  0  0  0  0
   57.2280   22.0320   46.0070 C   0  0  0  0  0  0  0  0  0  0  0  0
   57.7590   23.2010   46.6530 N   0  0  0  0  0  0  0  0  0  0  0  0
   57.7080   24.4170   46.1990 C   0  0  0  0  0  0  0  0  0  0  0  0
   58.0210   24.7660   44.9250 N   0  0  0  0  0  0  0  0  0  0  0  0
   57.8280   26.0970   44.7350 C   0  0  0  0  0  0  0  0  0  0  0  0
   58.0700   26.7630   43.5350 C   0  0  0  0  0  0  0  0  0  0  0  0
   58.4459   26.2169   42.6572 H   0  0  0  0  0  0  0  0  0  0  0  0
   57.8250   28.1450   43.4670 C   0  0  0  0  0  0  0  0  0  0  0  0
   58.0222   28.6862   42.5299 H   0  0  0  0  0  0  0  0  0  0  0  0
   57.3270   28.8500   44.5910 C   0  0  0  0  0  0  0  0  0  0  0  0
   57.0540   30.3040   44.5190 C   0  0  0  0  0  0  0  0  0  0  0  0
   55.8610   30.7070   44.5020 O   0  0  0  0  0  0  0  0  0  0  0  0
   58.1060   31.2790   44.4860 N   0  0  0  0  0  0  0  0  0  0  0  0
   58.6180   32.0030   45.6180 C   0  0  0  0  0  0  0  0  0  0  0  0
   58.2130   33.3400   45.8100 C   0  0  0  0  0  0  0  0  0  0  0  0
   57.2640   33.9960   44.8430 C   0  0  0  0  0  0  0  0  0  0  0  0
   56.4848   34.5346   45.4023 H   0  0  0  0  0  0  0  0  0  0  0  0
   57.8176   34.7052   44.2101 H   0  0  0  0  0  0  0  0  0  0  0  0
   56.7961   33.2276   44.2101 H   0  0  0  0  0  0  0  0  0  0  0  0
   58.6470   34.0450   46.9420 C   0  0  0  0  0  0  0  0  0  0  0  0
   58.3190   35.0836   47.0960 H   0  0  0  0  0  0  0  0  0  0  0  0
   59.4940   33.4390   47.8780 C   0  0  0  0  0  0  0  0  0  0  0  0
   59.9760   34.2110   49.0700 C   0  0  0  0  0  0  0  0  0  0  0  0
   59.6573   33.7005   49.9908 H   0  0  0  0  0  0  0  0  0  0  0  0
   61.0740   34.2737   49.0468 H   0  0  0  0  0  0  0  0  0  0  0  0
   59.5503   35.2250   49.0468 H   0  0  0  0  0  0  0  0  0  0  0  0
   59.9520   32.1360   47.6510 C   0  0  0  0  0  0  0  0  0  0  0  0
   60.6425   31.6704   48.3697 H   0  0  0  0  0  0  0  0  0  0  0  0
   59.5420   31.4160   46.5190 C   0  0  0  0  0  0  0  0  0  0  0  0
   60.1070   30.0380   46.3020 C   0  0  0  0  0  0  0  0  0  0  0  0
   60.3014   29.5639   47.2754 H   0  0  0  0  0  0  0  0  0  0  0  0
   59.3853   29.4307   45.7360 H   0  0  0  0  0  0  0  0  0  0  0  0
   61.0473   30.1122   45.7360 H   0  0  0  0  0  0  0  0  0  0  0  0
   57.1070   28.1580   45.8000 C   0  0  0  0  0  0  0  0  0  0  0  0
   56.7430   28.6875   46.6929 H   0  0  0  0  0  0  0  0  0  0  0  0
   57.3610   26.7890   45.8380 C   0  0  0  0  0  0  0  0  0  0  0  0
   57.1650   25.7250   47.1230 S   0  0  0  0  0  0  0  0  0  0  0  0
   56.9080   20.9170   46.7900 C   0  0  0  0  0  0  0  0  0  0  0  0
   57.0470   20.9479   47.8807 H   0  0  0  0  0  0  0  0  0  0  0  0
  1  2  1  0
  2  3  2  0
  3  4  1  0
  3  5  1  0
  5  6  1  0
  5  7  2  0
  7  8  1  0
  7  9  1  0
  9 10  1  0
 10 11  2  0
 11 12  1  0
 12 13  1  0
 13 14  2  0
 14 15  1  0
 14 16  1  0
 16 17  1  0
 16 18  2  0
 18 19  1  0
 19 20  2  0
 19 21  1  0
 21 22  1  0
 22 23  2  0
 23 24  1  0
 24 25  1  0
 24 26  1  0
 24 27  1  0
 23 28  1  0
 28 29  1  0
 28 30  2  0
 30 31  1  0
 31 32  1  0
 31 33  1  0
 31 34  1  0
 30 35  1  0
 35 36  1  0
 35 37  2  0
 37 38  1  0
 38 39  1  0
 38 40  1  0
 38 41  1  0
 18 42  1  0
 42 43  1  0
 42 44  2  0
 44 45  1  0
  9 46  2  0
 46 47  1  0
 46  2  1  0
 45 11  1  0
 44 13  1  0
 37 22  1  0
M  CHG  3   7   1  12  -1  21  -1
M  END
>  <UniqueID>  (74) 
69

>  <SMILES>  (74) 
Cc1cc(C)c([N-]C(=O)c2ccc3[n-]/c(=N\c4cccc[nH+]4)sc3c2)c(C)c1

>  <Energy>  (74) 
99.80528765177877

>  <Genealogy>  (74) 
Cc1cc(C)c([N-]C(=O)c2ccc3[n-]c(=Nc4cccc[nH+]4)sc3c2)c(C)c1 (protonated)
Cc1cc(C)c([N-]C(=O)c2ccc3[n-]/c(=N\c4cccc[nH+]4)sc3c2)c(C)c1 (cis-trans isomerization)
Cc1cc(C)c([N-]C(=O)c2ccc3[n-]/c(=N\c4cccc[nH+]4)sc3c2)c(C)c1 (3D coordinates assigned)
Cc1cc(C)c([N-]C(=O)c2ccc3[n-]/c(=N\c4cccc[nH+]4)sc3c2)c(C)c1 (optimized conformer: 99.80528765177877 kcal/mol)

>  <smiles>  (74) 
Cc1cc(C)c(NC(=O)c2ccc3[nH]c(=Nc4ccccn4)sc3c2)c(C)c1

>  <score_type>  (74) 
oracle

>  <origin>  (74) 
adg

>  <m_score__min__energy>  (74) 
-10.06

>  <m_primary>  (74) 
energy

$$$$
74:0
     RDKit          3D

 72 76  0  0  0  0  0  0  0  0999 V2000
   56.3190   29.7870   44.8550 O   0  0  0  0  0  0  0  0  0  0  0  0
   57.2340   30.6350   45.0420 C   0  0  0  0  0  0  0  0  0  0  0  0
   56.9570   32.0930   44.8350 C   0  0  0  0  0  0  0  0  0  0  0  0
   58.1530   32.9090   45.0590 N   0  0  0  0  0  0  0  0  0  0  0  0
   58.1150   34.3370   44.9300 C   0  0  0  0  0  0  0  0  0  0  0  0
   57.0610   34.9060   44.5320 O   0  0  0  0  0  0  0  0  0  0  0  0
   59.2950   35.1640   45.3560 C   0  0  0  0  0  0  0  0  0  0  0  0
   60.0570   34.5110   46.4810 C   0  0  0  0  0  0  0  0  0  0  0  0
   61.2780   33.8670   46.2340 C   0  0  0  0  0  0  0  0  0  0  0  0
   61.9820   33.2640   47.2820 C   0  0  0  0  0  0  0  0  0  0  0  0
   61.4900   33.3200   48.5950 C   0  0  0  0  0  0  0  0  0  0  0  0
   62.2050   32.6800   49.6680 N   0  0  0  0  0  0  0  0  0  0  0  0
   63.4600   31.9620   49.5070 C   0  0  0  0  0  0  0  0  0  0  0  0
   63.7100   31.2290   50.8390 C   0  0  0  0  0  0  0  0  0  0  0  0
   62.6270   31.6880   51.8270 C   0  0  0  0  0  0  0  0  0  0  0  0
   61.7530   32.5460   51.0040 C   0  0  0  0  0  0  0  0  0  0  0  0
   60.7460   33.1550   51.4580 O   0  0  0  0  0  0  0  0  0  0  0  0
   60.2740   33.9790   48.8420 C   0  0  0  0  0  0  0  0  0  0  0  0
   59.5640   34.5710   47.7930 C   0  0  0  0  0  0  0  0  0  0  0  0
   58.5750   30.2130   45.3110 N   0  0  0  0  0  0  0  0  0  0  0  0
   59.0940   29.8080   46.5880 C   0  0  0  0  0  0  0  0  0  0  0  0
   59.5330   30.7490   47.5270 C   0  0  0  0  0  0  0  0  0  0  0  0
   59.9970   30.3390   48.7790 C   0  0  0  0  0  0  0  0  0  0  0  0
   60.0430   28.9710   49.1320 C   0  0  0  0  0  0  0  0  0  0  0  0
   60.4960   28.5430   50.4550 N   0  0  0  0  0  0  0  0  0  0  0  0
   60.1450   29.3590   51.6370 C   0  0  0  0  0  0  0  0  0  0  0  0
   60.7250   28.8200   52.9490 C   0  0  0  0  0  0  0  0  0  0  0  0
   60.6930   27.4140   52.9740 O   0  0  0  0  0  0  0  0  0  0  0  0
   61.6200   26.9340   52.0300 C   0  0  0  0  0  0  0  0  0  0  0  0
   61.1520   27.2290   50.6030 C   0  0  0  0  0  0  0  0  0  0  0  0
   59.6230   28.0330   48.1610 C   0  0  0  0  0  0  0  0  0  0  0  0
   59.1710   28.4400   46.8990 C   0  0  0  0  0  0  0  0  0  0  0  0
   58.7470   27.4450   45.9550 N   0  0  0  0  0  0  0  0  0  0  0  0
   58.1020   26.2120   46.4120 C   0  0  0  0  0  0  0  0  0  0  0  0
   57.1220   25.7250   45.3400 C   0  0  0  0  0  0  0  0  0  0  0  0
   57.7600   25.6330   44.0790 O   0  0  0  0  0  0  0  0  0  0  0  0
   58.1520   26.9230   43.6430 C   0  0  0  0  0  0  0  0  0  0  0  0
   59.2170   27.5130   44.5720 C   0  0  0  0  0  0  0  0  0  0  0  0
   56.6088   32.2467   43.8029 H   0  0  0  0  0  0  0  0  0  0  0  0
   56.1899   32.4026   45.5601 H   0  0  0  0  0  0  0  0  0  0  0  0
   59.0490   32.4560   45.3530 H   0  0  0  0  0  0  0  0  0  0  0  0
   59.9692   35.2925   44.4963 H   0  0  0  0  0  0  0  0  0  0  0  0
   58.9218   36.1352   45.7132 H   0  0  0  0  0  0  0  0  0  0  0  0
   61.6839   33.8358   45.2121 H   0  0  0  0  0  0  0  0  0  0  0  0
   62.9280   32.7422   47.0752 H   0  0  0  0  0  0  0  0  0  0  0  0
   63.3821   31.2383   48.6823 H   0  0  0  0  0  0  0  0  0  0  0  0
   64.2858   32.6474   49.2656 H   0  0  0  0  0  0  0  0  0  0  0  0
   63.6441   30.1415   50.6877 H   0  0  0  0  0  0  0  0  0  0  0  0
   64.7128   31.4606   51.2272 H   0  0  0  0  0  0  0  0  0  0  0  0
   62.0700   30.8282   52.2275 H   0  0  0  0  0  0  0  0  0  0  0  0
   63.0391   32.2103   52.7030 H   0  0  0  0  0  0  0  0  0  0  0  0
   59.8781   34.0295   49.8670 H   0  0  0  0  0  0  0  0  0  0  0  0
   58.6140   35.0864   47.9975 H   0  0  0  0  0  0  0  0  0  0  0  0
   59.5123   31.8200   47.2768 H   0  0  0  0  0  0  0  0  0  0  0  0
   60.3330   31.0950   49.5040 H   0  0  0  0  0  0  0  0  0  0  0  0
   60.5266   30.3789   51.4812 H   0  0  0  0  0  0  0  0  0  0  0  0
   59.0496   29.3322   51.7336 H   0  0  0  0  0  0  0  0  0  0  0  0
   61.7672   29.1579   53.0473 H   0  0  0  0  0  0  0  0  0  0  0  0
   60.1166   29.1994   53.7833 H   0  0  0  0  0  0  0  0  0  0  0  0
   62.5909   27.4228   52.1985 H   0  0  0  0  0  0  0  0  0  0  0  0
   61.7111   25.8445   52.1508 H   0  0  0  0  0  0  0  0  0  0  0  0
   62.0272   27.2005   49.9373 H   0  0  0  0  0  0  0  0  0  0  0  0
   60.4042   26.4647   50.3447 H   0  0  0  0  0  0  0  0  0  0  0  0
   59.6518   26.9601   48.4018 H   0  0  0  0  0  0  0  0  0  0  0  0
   58.8666   25.4410   46.5882 H   0  0  0  0  0  0  0  0  0  0  0  0
   57.5573   26.4064   47.3477 H   0  0  0  0  0  0  0  0  0  0  0  0
   56.7405   24.7332   45.6242 H   0  0  0  0  0  0  0  0  0  0  0  0
   56.2951   26.4466   45.2647 H   0  0  0  0  0  0  0  0  0  0  0  0
   58.5624   26.8500   42.6250 H   0  0  0  0  0  0  0  0  0  0  0  0
   57.2708   27.5813   43.6554 H   0  0  0  0  0  0  0  0  0  0  0  0
   60.1497   26.9383   44.4727 H   0  0  0  0  0  0  0  0  0  0  0  0
   59.4028   28.5621   44.2983 H   0  0  0  0  0  0  0  0  0  0  0  0
  1  2  2  0
  2  3  1  0
  3  4  1  0
  4  5  1  0
  5  6  2  0
  5  7  1  0
  7  8  1  0
  8  9  2  0
  9 10  1  0
 10 11  2  0
 11 12  1  0
 12 13  1  0
 13 14  1  0
 14 15  1  0
 15 16  1  0
 16 17  2  0
 11 18  1  0
 18 19  2  0
  2 20  1  0
 20 21  1  0
 21 22  2  0
 22 23  1  0
 23 24  2  0
 24 25  1  0
 25 26  1  0
 26 27  1  0
 27 28  1  0
 28 29  1  0
 29 30  1  0
 24 31  1  0
 31 32  2  0
 32 33  1  0
 33 34  1  0
 34 35  1  0
 35 36  1  0
 36 37  1  0
 37 38  1  0
 19  8  1  0
 32 21  1  0
 38 33  1  0
 16 12  1  0
 30 25  1  0
  3 39  1  0
  3 40  1  0
  4 41  1  0
  7 42  1  0
  7 43  1  0
  9 44  1  0
 10 45  1  0
 13 46  1  0
 13 47  1  0
 14 48  1  0
 14 49  1  0
 15 50  1  0
 15 51  1  0
 18 52  1  0
 19 53  1  0
 22 54  1  0
 23 55  1  0
 26 56  1  0
 26 57  1  0
 27 58  1  0
 27 59  1  0
 29 60  1  0
 29 61  1  0
 30 62  1  0
 30 63  1  0
 31 64  1  0
 34 65  1  0
 34 66  1  0
 35 67  1  0
 35 68  1  0
 37 69  1  0
 37 70  1  0
 38 71  1  0
 38 72  1  0
M  CHG  1  20  -1
M  END
>  <UniqueID>  (75) 
70

>  <SMILES>  (75) 
O=C(CNC(=O)Cc1ccc(N2CCCC2=O)cc1)[N-]c1ccc(N2CCOCC2)cc1N1CCOCC1

>  <Energy>  (75) 
100.64346314560545

>  <Genealogy>  (75) 
O=C(CNC(=O)Cc1ccc(N2CCCC2=O)cc1)[N-]c1ccc(N2CCOCC2)cc1N1CCOCC1 (protonated)
O=C(CNC(=O)Cc1ccc(N2CCCC2=O)cc1)[N-]c1ccc(N2CCOCC2)cc1N1CCOCC1 (3D coordinates assigned)
O=C(CNC(=O)Cc1ccc(N2CCCC2=O)cc1)[N-]c1ccc(N2CCOCC2)cc1N1CCOCC1 (nonaromatic ring conformer: 100.64346314560545 kcal/mol)

>  <smiles>  (75) 
O=C(Cc1ccc(N2CCCC2=O)cc1)NCC(=O)Nc1ccc(N2CCOCC2)cc1N1CCOCC1

>  <score_type>  (75) 
oracle

>  <origin>  (75) 
adg

>  <m_score__min__energy>  (75) 
-10.76

>  <m_primary>  (75) 
energy

$$$$
75:0
     RDKit          3D

 45 47  0  0  0  0  0  0  0  0999 V2000
   60.7060   29.8440   46.3050 C   0  0  0  0  0  0  0  0  0  0  0  0
   60.2790   28.7490   45.5010 O   0  0  0  0  0  0  0  0  0  0  0  0
   59.3190   27.8060   45.9030 C   0  0  0  0  0  0  0  0  0  0  0  0
   59.4590   27.0100   47.0670 C   0  0  0  0  0  0  0  0  0  0  0  0
   60.6090   27.1880   48.0190 C   0  0  0  0  0  0  0  0  0  0  0  0
   58.4880   26.0370   47.3580 C   0  0  0  0  0  0  0  0  0  0  0  0
   57.3700   25.8700   46.5310 C   0  0  0  0  0  0  0  0  0  0  0  0
   56.3180   24.8560   46.8760 C   0  0  0  0  0  0  0  0  0  0  0  0
   57.2020   26.7060   45.4220 C   0  0  0  0  0  0  0  0  0  0  0  0
   58.1710   27.6630   45.1060 C   0  0  0  0  0  0  0  0  0  0  0  0
   58.0170   28.4700   43.9400 N   0  0  0  0  0  0  0  0  0  0  0  0
   56.8090   29.7050   43.8720 S   0  0  0  0  0  0  0  0  0  0  0  0
   56.1760   29.7270   42.5090 O   0  0  0  0  0  0  0  0  0  0  0  0
   55.7320   29.3870   44.8700 O   0  0  0  0  0  0  0  0  0  0  0  0
   57.5700   31.2580   44.3000 C   0  0  0  0  0  0  0  0  0  0  0  0
   57.8920   32.2530   43.3360 C   0  0  0  0  0  0  0  0  0  0  0  0
   57.5640   32.0890   41.8760 C   0  0  0  0  0  0  0  0  0  0  0  0
   58.5120   33.4010   43.7350 N   0  0  0  0  0  0  0  0  0  0  0  0
   58.8460   33.5790   45.0350 C   0  0  0  0  0  0  0  0  0  0  0  0
   59.6360   34.9210   45.6570 S   0  0  0  0  0  0  0  0  0  0  0  0
   59.6530   34.2980   47.2220 C   0  0  0  0  0  0  0  0  0  0  0  0
   59.0350   33.0440   47.2140 C   0  0  0  0  0  0  0  0  0  0  0  0
   58.9030   32.2270   48.4680 C   0  0  0  0  0  0  0  0  0  0  0  0
   58.5830   32.6480   45.9780 N   0  0  0  0  0  0  0  0  0  0  0  0
   57.9520   31.4820   45.6420 C   0  0  0  0  0  0  0  0  0  0  0  0
   57.7250   30.6010   46.5140 O   0  0  0  0  0  0  0  0  0  0  0  0
   60.6032   29.5804   47.3680 H   0  0  0  0  0  0  0  0  0  0  0  0
   61.7591   30.0724   46.0840 H   0  0  0  0  0  0  0  0  0  0  0  0
   60.0855   30.7250   46.0840 H   0  0  0  0  0  0  0  0  0  0  0  0
   60.2405   27.1310   49.0539 H   0  0  0  0  0  0  0  0  0  0  0  0
   61.3513   26.3941   47.8498 H   0  0  0  0  0  0  0  0  0  0  0  0
   61.0766   28.1692   47.8498 H   0  0  0  0  0  0  0  0  0  0  0  0
   58.6073   25.3988   48.2459 H   0  0  0  0  0  0  0  0  0  0  0  0
   56.2327   24.7737   47.9696 H   0  0  0  0  0  0  0  0  0  0  0  0
   55.3520   25.1723   46.4556 H   0  0  0  0  0  0  0  0  0  0  0  0
   56.5986   23.8790   46.4556 H   0  0  0  0  0  0  0  0  0  0  0  0
   56.3030   26.6099   44.7955 H   0  0  0  0  0  0  0  0  0  0  0  0
   56.5844   31.5992   41.7730 H   0  0  0  0  0  0  0  0  0  0  0  0
   57.5323   33.0773   41.3941 H   0  0  0  0  0  0  0  0  0  0  0  0
   58.3356   31.4706   41.3941 H   0  0  0  0  0  0  0  0  0  0  0  0
   58.7470   34.1500   43.0450 H   0  0  0  0  0  0  0  0  0  0  0  0
   60.0801   34.7959   48.1050 H   0  0  0  0  0  0  0  0  0  0  0  0
   59.0088   32.8821   49.3453 H   0  0  0  0  0  0  0  0  0  0  0  0
   57.9151   31.7436   48.4884 H   0  0  0  0  0  0  0  0  0  0  0  0
   59.6884   31.4571   48.4884 H   0  0  0  0  0  0  0  0  0  0  0  0
  1  2  1  0
  2  3  1  0
  3  4  2  0
  4  5  1  0
  4  6  1  0
  6  7  2  0
  7  8  1  0
  7  9  1  0
  9 10  2  0
 10 11  1  0
 11 12  1  0
 12 13  2  0
 12 14  2  0
 12 15  1  0
 15 16  2  0
 16 17  1  0
 16 18  1  0
 18 19  2  0
 19 20  1  0
 20 21  1  0
 21 22  2  0
 22 23  1  0
 22 24  1  0
 24 25  1  0
 25 26  2  0
 10  3  1  0
 25 15  1  0
 24 19  1  0
  1 27  1  0
  1 28  1  0
  1 29  1  0
  5 30  1  0
  5 31  1  0
  5 32  1  0
  6 33  1  0
  8 34  1  0
  8 35  1  0
  8 36  1  0
  9 37  1  0
 17 38  1  0
 17 39  1  0
 17 40  1  0
 18 41  1  0
 21 42  1  0
 23 43  1  0
 23 44  1  0
 23 45  1  0
M  CHG  2  11  -1  18   1
M  END
>  <UniqueID>  (76) 
71

>  <SMILES>  (76) 
COc1c(C)cc(C)cc1[N-]S(=O)(=O)c1c(C)[nH+]c2scc(C)n2c1=O

>  <Energy>  (76) 
97.30712172950719

>  <Genealogy>  (76) 
COc1c(C)cc(C)cc1[N-]S(=O)(=O)c1c(C)[nH+]c2scc(C)n2c1=O (protonated)
COc1c(C)cc(C)cc1[N-]S(=O)(=O)c1c(C)[nH+]c2scc(C)n2c1=O (3D coordinates assigned)
COc1c(C)cc(C)cc1[N-]S(=O)(=O)c1c(C)[nH+]c2scc(C)n2c1=O (optimized conformer: 97.30712172950719 kcal/mol)

>  <smiles>  (76) 
COc1c(C)cc(C)cc1NS(=O)(=O)c1c(C)nc2scc(C)n2c1=O

>  <score_type>  (76) 
oracle

>  <origin>  (76) 
adg

>  <m_score__min__energy>  (76) 
-9.9700000000000006

>  <m_primary>  (76) 
energy

$$$$
76:0
     RDKit          3D

 58 62  0  0  1  0  0  0  0  0999 V2000
   57.7500   27.0870   45.3630 O   0  0  0  0  0  0  0  0  0  0  0  0
   58.3120   27.1370   44.1890 C   0  0  0  0  0  0  0  0  0  0  0  0
   57.7980   26.1940   43.2680 C   0  0  0  0  0  0  0  0  0  0  0  0
   57.0980   25.1240   43.3740 C   0  0  0  0  0  0  0  0  0  0  0  0
   57.3940   23.8680   43.9820 C   0  0  0  0  0  0  0  0  0  0  0  0
   58.0580   23.5860   45.1320 C   0  0  0  0  0  0  0  0  0  0  0  0
   58.1830   22.3680   45.7320 C   0  0  0  0  0  0  0  0  0  0  0  0
   57.5810   21.2870   45.1240 C   0  0  0  0  0  0  0  0  0  0  0  0
   57.6860   20.0310   45.7050 O   0  0  0  0  0  0  0  0  0  0  0  0
   56.9010   21.5330   43.9550 C   0  0  0  0  0  0  0  0  0  0  0  0
   56.2800   20.4400   43.3190 O   0  0  0  0  0  0  0  0  0  0  0  0
   56.7800   22.7590   43.3600 C   0  0  0  0  0  0  0  0  0  0  0  0
   59.3040   28.1120   44.1290 N   0  0  0  0  0  0  0  0  0  0  0  0
   59.5360   28.9060   45.2940 C   0  0  0  0  0  0  0  0  0  0  0  0
   59.2150   30.2440   45.3560 C   0  0  0  0  0  0  0  0  0  0  0  0
   59.4780   30.9260   46.5290 C   0  0  0  0  0  0  0  0  0  0  0  0
   59.1640   32.2990   46.6350 N   0  0  0  0  0  0  0  0  0  0  0  0
   59.5370   33.2760   45.6160 C   0  0  0  0  0  0  0  0  0  0  0  0
   59.3220   34.6310   46.2610 C   0  0  0  0  0  0  0  0  0  0  0  0
   59.2940   34.2910   47.7570 C   0  0  0  0  0  0  0  0  0  0  0  0
   58.4520   33.0100   47.6980 C   0  0  0  0  0  0  0  0  0  0  0  0
   60.0450   30.3010   47.6120 C   0  0  0  0  0  0  0  0  0  0  0  0
   60.3140   31.0020   48.8160 N   0  0  0  0  0  0  0  0  0  0  0  0
   61.4900   31.3290   49.2250 C   0  0  0  0  0  0  0  0  0  0  0  0
   61.8960   31.0040   50.4600 N   0  0  0  0  0  0  0  0  0  0  0  0
   63.1160   31.3260   50.9250 C   0  0  0  0  0  0  0  0  0  0  0  0
   63.9360   32.0000   50.0920 N   0  0  0  0  0  0  0  0  0  0  0  0
   63.5760   32.3540   48.8300 C   0  0  0  0  0  0  0  0  0  0  0  0
   64.1910   33.0070   47.8340 N   0  0  0  0  0  0  0  0  0  0  0  0
   63.3300   33.0600   46.8030 C   0  0  0  0  0  0  0  0  0  0  0  0
   62.1710   32.4510   47.1200 N   0  0  0  0  0  0  0  0  0  0  0  0
   62.3140   32.0070   48.3810 C   0  0  0  0  0  0  0  0  0  0  0  0
   60.3580   28.9710   47.5350 C   0  0  0  0  0  0  0  0  0  0  0  0
   60.1080   28.2550   46.3740 C   0  0  0  0  0  0  0  0  0  0  0  0
   60.4320   26.8870   46.2990 O   0  0  0  0  0  0  0  0  0  0  0  0
   58.0570   26.4319   42.2257 H   0  0  0  0  0  0  0  0  0  0  0  0
   56.0988   25.1857   42.9181 H   0  0  0  0  0  0  0  0  0  0  0  0
   58.5487   24.4325   45.6346 H   0  0  0  0  0  0  0  0  0  0  0  0
   58.7455   22.2518   46.6701 H   0  0  0  0  0  0  0  0  0  0  0  0
   57.7960   19.1820   45.1730 H   0  0  0  0  0  0  0  0  0  0  0  0
   56.6470   19.5260   43.5600 H   0  0  0  0  0  0  0  0  0  0  0  0
   56.2189   22.8777   42.4213 H   0  0  0  0  0  0  0  0  0  0  0  0
   59.8960   28.2660   43.3300 H   0  0  0  0  0  0  0  0  0  0  0  0
   58.7613   30.7562   44.4947 H   0  0  0  0  0  0  0  0  0  0  0  0
   60.5912   33.1493   45.3287 H   0  0  0  0  0  0  0  0  0  0  0  0
   58.9403   33.1596   44.6992 H   0  0  0  0  0  0  0  0  0  0  0  0
   60.1482   35.3180   46.0256 H   0  0  0  0  0  0  0  0  0  0  0  0
   58.4123   35.1415   45.9120 H   0  0  0  0  0  0  0  0  0  0  0  0
   60.3018   34.1038   48.1561 H   0  0  0  0  0  0  0  0  0  0  0  0
   58.9045   35.0825   48.4142 H   0  0  0  0  0  0  0  0  0  0  0  0
   58.4781   32.4581   48.6492 H   0  0  0  0  0  0  0  0  0  0  0  0
   57.3778   33.1647   47.5186 H   0  0  0  0  0  0  0  0  0  0  0  0
   61.2630   30.4790   51.1150 H   0  0  0  0  0  0  0  0  0  0  0  0
   63.4323   31.0514   51.9421 H   0  0  0  0  0  0  0  0  0  0  0  0
   65.1600   33.3840   47.8970 H   0  0  0  0  0  0  0  0  0  0  0  0
   63.5426   33.5352   45.8340 H   0  0  0  0  0  0  0  0  0  0  0  0
   60.8114   28.4660   48.4007 H   0  0  0  0  0  0  0  0  0  0  0  0
   59.7170   26.2430   45.9600 H   0  0  0  0  0  0  0  0  0  0  0  0
  1  2  2  0
  2  3  1  0
  3  4  2  0
  4  5  1  0
  5  6  2  0
  6  7  1  0
  7  8  2  0
  8  9  1  0
  8 10  1  0
 10 11  1  0
 10 12  2  0
  2 13  1  0
 13 14  1  0
 14 15  2  0
 15 16  1  0
 16 17  1  0
 17 18  1  0
 18 19  1  0
 19 20  1  0
 20 21  1  0
 16 22  2  0
 22 23  1  0
 23 24  2  0
 24 25  1  0
 25 26  1  0
 26 27  2  0
 27 28  1  0
 28 29  1  0
 29 30  1  0
 30 31  2  0
 31 32  1  0
 22 33  1  0
 33 34  2  0
 34 35  1  0
 12  5  1  0
 34 14  1  0
 21 17  1  0
 32 24  1  0
 32 28  2  0
  3 36  1  0
  4 37  1  0
  6 38  1  0
  7 39  1  0
  9 40  1  0
 11 41  1  0
 12 42  1  0
 13 43  1  0
 15 44  1  0
 18 45  1  0
 18 46  1  0
 19 47  1  0
 19 48  1  0
 20 49  1  0
 20 50  1  0
 21 51  1  0
 21 52  1  0
 25 53  1  0
 26 54  1  0
 29 55  1  0
 30 56  1  0
 33 57  1  0
 35 58  1  0
M  END
>  <smiles>  (77) 
O=C(C=Cc1ccc(O)c(O)c1)Nc1cc(N2CCCC2)c(N=c2[nH]cnc3[nH]cnc23)cc1O

>  <score_type>  (77) 
oracle

>  <origin>  (77) 
adg

>  <m_score__min__energy>  (77) 
-9.3900000000000006

>  <m_primary>  (77) 
energy

$$$$
77:0
     RDKit          3D

 44 45  0  0  0  0  0  0  0  0999 V2000
   57.1400   34.1260   45.5020 C   0  0  0  0  0  0  0  0  0  0  0  0
   58.4620   34.0540   46.2080 C   0  0  0  0  0  0  0  0  0  0  0  0
   59.6560   34.1640   45.4840 C   0  0  0  0  0  0  0  0  0  0  0  0
   60.8880   34.0720   46.1390 C   0  0  0  0  0  0  0  0  0  0  0  0
   60.9430   33.8550   47.5250 C   0  0  0  0  0  0  0  0  0  0  0  0
   62.2770   33.7920   48.2180 C   0  0  0  0  0  0  0  0  0  0  0  0
   59.7410   33.7540   48.2540 C   0  0  0  0  0  0  0  0  0  0  0  0
   59.7570   33.5630   49.6720 N   0  0  0  0  0  0  0  0  0  0  0  0
   59.2140   32.4090   50.3230 C   0  0  0  0  0  0  0  0  0  0  0  0
   59.2980   32.3210   51.5760 O   0  0  0  0  0  0  0  0  0  0  0  0
   58.5630   31.2940   49.5490 C   0  0  0  0  0  0  0  0  0  0  0  0
   59.5740   30.3780   48.9950 N   0  0  0  0  0  0  0  0  0  0  0  0
   60.9070   30.3400   49.6070 C   0  0  0  0  0  0  0  0  0  0  0  0
   59.2920   29.4580   47.9140 C   0  0  0  0  0  0  0  0  0  0  0  0
   58.5770   28.4420   48.1380 O   0  0  0  0  0  0  0  0  0  0  0  0
   59.7920   29.6740   46.5080 C   0  0  0  0  0  0  0  0  0  0  0  0
   58.6610   29.9930   45.5640 C   0  0  0  0  0  0  0  0  0  0  0  0
   58.8210   30.9770   44.5740 C   0  0  0  0  0  0  0  0  0  0  0  0
   57.7700   31.2790   43.7040 C   0  0  0  0  0  0  0  0  0  0  0  0
   56.5480   30.6090   43.8200 C   0  0  0  0  0  0  0  0  0  0  0  0
   56.3750   29.6390   44.8120 C   0  0  0  0  0  0  0  0  0  0  0  0
   55.1590   28.9770   44.9300 O   0  0  0  0  0  0  0  0  0  0  0  0
   57.4250   29.3340   45.6850 C   0  0  0  0  0  0  0  0  0  0  0  0
   58.5110   33.8240   47.5900 C   0  0  0  0  0  0  0  0  0  0  0  0
   56.3297   34.1701   46.2446 H   0  0  0  0  0  0  0  0  0  0  0  0
   57.1094   35.0271   44.8719 H   0  0  0  0  0  0  0  0  0  0  0  0
   57.0117   33.2335   44.8719 H   0  0  0  0  0  0  0  0  0  0  0  0
   59.6244   34.3234   44.3961 H   0  0  0  0  0  0  0  0  0  0  0  0
   61.8207   34.1703   45.5642 H   0  0  0  0  0  0  0  0  0  0  0  0
   62.1249   33.7992   49.3074 H   0  0  0  0  0  0  0  0  0  0  0  0
   62.7983   32.8682   47.9266 H   0  0  0  0  0  0  0  0  0  0  0  0
   62.8830   34.6625   47.9266 H   0  0  0  0  0  0  0  0  0  0  0  0
   57.8965   30.7316   50.2195 H   0  0  0  0  0  0  0  0  0  0  0  0
   57.9917   31.7312   48.7169 H   0  0  0  0  0  0  0  0  0  0  0  0
   60.8077   30.3428   50.7025 H   0  0  0  0  0  0  0  0  0  0  0  0
   61.4307   29.4266   49.2887 H   0  0  0  0  0  0  0  0  0  0  0  0
   61.4819   31.2221   49.2887 H   0  0  0  0  0  0  0  0  0  0  0  0
   60.5058   30.5109   46.5068 H   0  0  0  0  0  0  0  0  0  0  0  0
   60.2761   28.7470   46.1669 H   0  0  0  0  0  0  0  0  0  0  0  0
   59.7778   31.5120   44.4833 H   0  0  0  0  0  0  0  0  0  0  0  0
   57.9042   32.0453   42.9263 H   0  0  0  0  0  0  0  0  0  0  0  0
   55.7234   30.8450   43.1312 H   0  0  0  0  0  0  0  0  0  0  0  0
   57.2829   28.5757   46.4691 H   0  0  0  0  0  0  0  0  0  0  0  0
   57.5765   33.6977   48.1563 H   0  0  0  0  0  0  0  0  0  0  0  0
  1  2  1  0
  2  3  2  0
  3  4  1  0
  4  5  2  0
  5  6  1  0
  5  7  1  0
  7  8  1  0
  8  9  1  0
  9 10  2  0
  9 11  1  0
 11 12  1  0
 12 13  1  0
 12 14  1  0
 14 15  2  0
 14 16  1  0
 16 17  1  0
 17 18  2  0
 18 19  1  0
 19 20  2  0
 20 21  1  0
 21 22  1  0
 21 23  2  0
  7 24  2  0
 24  2  1  0
 23 17  1  0
  1 25  1  0
  1 26  1  0
  1 27  1  0
  3 28  1  0
  4 29  1  0
  6 30  1  0
  6 31  1  0
  6 32  1  0
 11 33  1  0
 11 34  1  0
 13 35  1  0
 13 36  1  0
 13 37  1  0
 16 38  1  0
 16 39  1  0
 18 40  1  0
 19 41  1  0
 20 42  1  0
 23 43  1  0
 24 44  1  0
M  CHG  2   8  -1  22  -1
M  END
>  <UniqueID>  (78) 
72

>  <SMILES>  (78) 
Cc1ccc(C)c([N-]C(=O)CN(C)C(=O)Cc2cccc([O-])c2)c1

>  <Energy>  (78) 
45.10585647800498

>  <Genealogy>  (78) 
Cc1ccc(C)c([N-]C(=O)CN(C)C(=O)Cc2cccc([O-])c2)c1 (protonated)
Cc1ccc(C)c([N-]C(=O)CN(C)C(=O)Cc2cccc([O-])c2)c1 (3D coordinates assigned)
Cc1ccc(C)c([N-]C(=O)CN(C)C(=O)Cc2cccc([O-])c2)c1 (optimized conformer: 45.10585647800498 kcal/mol)

>  <smiles>  (78) 
Cc1ccc(C)c(NC(=O)CN(C)C(=O)Cc2cccc(O)c2)c1

>  <score_type>  (78) 
oracle

>  <origin>  (78) 
adg

>  <m_score__min__energy>  (78) 
-13.24

>  <m_primary>  (78) 
energy

$$$$
78:0
     RDKit          3D

 51 53  0  0  0  0  0  0  0  0999 V2000
   56.6390   29.1020   42.7700 O   0  0  0  0  0  0  0  0  0  0  0  0
   56.8470   29.7730   44.0990 S   0  0  0  0  0  0  0  0  0  0  0  0
   55.5580   29.7260   44.8710 O   0  0  0  0  0  0  0  0  0  0  0  0
   57.3290   31.4790   43.8780 C   0  0  0  0  0  0  0  0  0  0  0  0
   56.7130   32.3620   44.9640 C   0  0  0  0  0  0  0  0  0  0  0  0
   57.7570   33.2640   45.5670 C   0  0  0  0  0  0  0  0  0  0  0  0
   58.5310   34.1020   44.7470 C   0  0  0  0  0  0  0  0  0  0  0  0
   59.4800   34.9600   45.3110 C   0  0  0  0  0  0  0  0  0  0  0  0
   59.6570   34.9940   46.6970 C   0  0  0  0  0  0  0  0  0  0  0  0
   58.8810   34.1740   47.5210 C   0  0  0  0  0  0  0  0  0  0  0  0
   57.9300   33.3160   46.9610 C   0  0  0  0  0  0  0  0  0  0  0  0
   58.0620   28.9260   45.0000 N   0  0  0  0  0  0  0  0  0  0  0  0
   58.7660   29.4350   46.1420 C   0  0  0  0  0  0  0  0  0  0  0  0
   59.7090   30.4750   46.0420 C   0  0  0  0  0  0  0  0  0  0  0  0
   60.3630   30.9440   47.1850 C   0  0  0  0  0  0  0  0  0  0  0  0
   60.0900   30.3810   48.4370 C   0  0  0  0  0  0  0  0  0  0  0  0
   60.9030   31.0040   49.8700 S   0  0  0  0  0  0  0  0  0  0  0  0
   60.1820   30.5650   51.1140 O   0  0  0  0  0  0  0  0  0  0  0  0
   62.3030   30.4580   49.9110 O   0  0  0  0  0  0  0  0  0  0  0  0
   60.9670   32.7400   49.8120 N   0  0  0  0  0  0  0  0  0  0  0  0
   62.2770   33.2040   50.2790 C   0  0  0  0  0  0  0  0  0  0  0  0
   63.0170   33.9370   49.1480 C   0  0  1  0  0  0  0  0  0  0  0  0
   64.1980   33.1260   48.6290 C   0  0  0  0  0  0  0  0  0  0  0  0
   63.6500   32.4690   47.4030 C   0  0  0  0  0  0  0  0  0  0  0  0
   62.5450   33.4120   46.9730 C   0  0  0  0  0  0  0  0  0  0  0  0
   62.1260   34.1810   48.0790 O   0  0  0  0  0  0  0  0  0  0  0  0
   59.1520   29.3440   48.5390 C   0  0  0  0  0  0  0  0  0  0  0  0
   58.4980   28.8760   47.3970 C   0  0  0  0  0  0  0  0  0  0  0  0
   58.4252   31.5539   43.9310 H   0  0  0  0  0  0  0  0  0  0  0  0
   56.9688   31.8231   42.8972 H   0  0  0  0  0  0  0  0  0  0  0  0
   55.9157   32.9770   44.5212 H   0  0  0  0  0  0  0  0  0  0  0  0
   56.3009   31.7175   45.7545 H   0  0  0  0  0  0  0  0  0  0  0  0
   58.3898   34.0830   43.6563 H   0  0  0  0  0  0  0  0  0  0  0  0
   60.0879   35.6089   44.6633 H   0  0  0  0  0  0  0  0  0  0  0  0
   60.4071   35.6661   47.1393 H   0  0  0  0  0  0  0  0  0  0  0  0
   59.0188   34.2038   48.6119 H   0  0  0  0  0  0  0  0  0  0  0  0
   57.3148   32.6792   47.6136 H   0  0  0  0  0  0  0  0  0  0  0  0
   59.9321   30.9202   45.0612 H   0  0  0  0  0  0  0  0  0  0  0  0
   61.0960   31.7598   47.1000 H   0  0  0  0  0  0  0  0  0  0  0  0
   60.8630   33.0060   48.8060 H   0  0  0  0  0  0  0  0  0  0  0  0
   62.1377   33.8911   51.1266 H   0  0  0  0  0  0  0  0  0  0  0  0
   62.8737   32.3349   50.5930 H   0  0  0  0  0  0  0  0  0  0  0  0
   63.3985   34.8840   49.5575 H   0  0  0  0  0  0  0  0  0  0  0  0
   65.0465   33.7802   48.3799 H   0  0  0  0  0  0  0  0  0  0  0  0
   64.5849   32.4075   49.3667 H   0  0  0  0  0  0  0  0  0  0  0  0
   64.4210   32.3824   46.6232 H   0  0  0  0  0  0  0  0  0  0  0  0
   63.2971   31.4428   47.5832 H   0  0  0  0  0  0  0  0  0  0  0  0
   62.9195   34.0796   46.1830 H   0  0  0  0  0  0  0  0  0  0  0  0
   61.6949   32.8294   46.5884 H   0  0  0  0  0  0  0  0  0  0  0  0
   58.9308   28.8982   49.5200 H   0  0  0  0  0  0  0  0  0  0  0  0
   57.7653   28.0603   47.4847 H   0  0  0  0  0  0  0  0  0  0  0  0
  1  2  2  0
  2  3  2  0
  2  4  1  0
  4  5  1  0
  5  6  1  0
  6  7  2  0
  7  8  1  0
  8  9  2  0
  9 10  1  0
 10 11  2  0
  2 12  1  0
 12 13  1  0
 13 14  2  0
 14 15  1  0
 15 16  2  0
 16 17  1  0
 17 18  2  0
 17 19  2  0
 17 20  1  0
 20 21  1  0
 21 22  1  0
 22 23  1  0
 23 24  1  0
 24 25  1  0
 25 26  1  0
 16 27  1  0
 27 28  2  0
 11  6  1  0
 28 13  1  0
 26 22  1  0
  4 29  1  0
  4 30  1  0
  5 31  1  0
  5 32  1  0
  7 33  1  0
  8 34  1  0
  9 35  1  0
 10 36  1  0
 11 37  1  0
 14 38  1  0
 15 39  1  0
 20 40  1  0
 21 41  1  0
 21 42  1  0
 22 43  1  1
 23 44  1  0
 23 45  1  0
 24 46  1  0
 24 47  1  0
 25 48  1  0
 25 49  1  0
 27 50  1  0
 28 51  1  0
M  CHG  1  12  -1
M  END
>  <UniqueID>  (79) 
73

>  <SMILES>  (79) 
O=S(=O)(CCc1ccccc1)[N-]c1ccc(S(=O)(=O)NC[C@H]2CCCO2)cc1

>  <Energy>  (79) 
44.240501811725814

>  <Genealogy>  (79) 
O=S(=O)(CCc1ccccc1)[N-]c1ccc(S(=O)(=O)NCC2CCCO2)cc1 (protonated)
O=S(=O)(CCc1ccccc1)[N-]c1ccc(S(=O)(=O)NC[C@H]2CCCO2)cc1 (chirality)
O=S(=O)(CCc1ccccc1)[N-]c1ccc(S(=O)(=O)NC[C@H]2CCCO2)cc1 (3D coordinates assigned)
O=S(=O)(CCc1ccccc1)[N-]c1ccc(S(=O)(=O)NC[C@H]2CCCO2)cc1 (nonaromatic ring conformer: 44.240501811725814 kcal/mol)

>  <smiles>  (79) 
O=S(=O)(CCc1ccccc1)Nc1ccc(S(=O)(=O)NCC2CCCO2)cc1

>  <score_type>  (79) 
oracle

>  <origin>  (79) 
adg

>  <m_score__min__energy>  (79) 
-10.98

>  <m_primary>  (79) 
energy

$$$$
79:0
     RDKit          3D

 57 60  0  0  0  0  0  0  0  0999 V2000
   57.5930   27.4000   44.5490 O   0  0  0  0  0  0  0  0  0  0  0  0
   57.1340   28.1470   45.4540 C   0  0  0  0  0  0  0  0  0  0  0  0
   57.9550   28.3720   46.6990 C   0  0  0  0  0  0  0  0  0  0  0  0
   59.4610   28.2630   46.4230 C   0  0  0  0  0  0  0  0  0  0  0  0
   60.2570   29.1600   47.3350 C   0  0  0  0  0  0  0  0  0  0  0  0
   60.0760   29.0990   48.7340 C   0  0  0  0  0  0  0  0  0  0  0  0
   60.8030   29.9480   49.5800 C   0  0  0  0  0  0  0  0  0  0  0  0
   61.7020   30.8540   49.0140 C   0  0  0  0  0  0  0  0  0  0  0  0
   61.8720   30.9290   47.6560 C   0  0  0  0  0  0  0  0  0  0  0  0
   61.1600   30.0950   46.7910 C   0  0  0  0  0  0  0  0  0  0  0  0
   62.8610   31.9600   47.2720 C   0  0  0  0  0  0  0  0  0  0  0  0
   63.3500   32.5270   48.6200 C   0  0  0  0  0  0  0  0  0  0  0  0
   62.5560   31.8230   49.7370 C   0  0  0  0  0  0  0  0  0  0  0  0
   55.8560   28.7640   45.2460 N   0  0  0  0  0  0  0  0  0  0  0  0
   55.5590   29.8830   44.3560 C   0  0  0  0  0  0  0  0  0  0  0  0
   56.7840   30.2770   43.5230 C   0  0  0  0  0  0  0  0  0  0  0  0
   57.4910   31.4640   44.1070 C   0  0  0  0  0  0  0  0  0  0  0  0
   57.4190   32.7690   43.6320 C   0  0  0  0  0  0  0  0  0  0  0  0
   58.1290   33.6680   44.3620 N   0  0  0  0  0  0  0  0  0  0  0  0
   58.7620   33.0990   45.4110 C   0  0  0  0  0  0  0  0  0  0  0  0
   59.8370   33.9750   46.4850 S   0  0  0  0  0  0  0  0  0  0  0  0
   61.2460   33.8400   45.9800 O   0  0  0  0  0  0  0  0  0  0  0  0
   59.4570   35.4300   46.5000 O   0  0  0  0  0  0  0  0  0  0  0  0
   59.7150   33.3060   48.0910 N   0  0  0  0  0  0  0  0  0  0  0  0
   58.3880   32.7000   48.2840 C   0  0  0  0  0  0  0  0  0  0  0  0
   58.1890   32.2790   49.7550 C   0  0  0  0  0  0  0  0  0  0  0  0
   59.3870   32.4210   50.4950 O   0  0  0  0  0  0  0  0  0  0  0  0
   59.7790   33.7820   50.5150 C   0  0  0  0  0  0  0  0  0  0  0  0
   59.9400   34.3580   49.0930 C   0  0  0  0  0  0  0  0  0  0  0  0
   58.4640   31.4440   45.4860 S   0  0  0  0  0  0  0  0  0  0  0  0
   57.7377   29.3766   47.0908 H   0  0  0  0  0  0  0  0  0  0  0  0
   57.6863   27.5934   47.4281 H   0  0  0  0  0  0  0  0  0  0  0  0
   59.7785   27.2216   46.5800 H   0  0  0  0  0  0  0  0  0  0  0  0
   59.6447   28.5767   45.3848 H   0  0  0  0  0  0  0  0  0  0  0  0
   59.3607   28.3814   49.1623 H   0  0  0  0  0  0  0  0  0  0  0  0
   60.6676   29.9012   50.6706 H   0  0  0  0  0  0  0  0  0  0  0  0
   61.3019   30.1669   45.7026 H   0  0  0  0  0  0  0  0  0  0  0  0
   63.6944   31.5127   46.7104 H   0  0  0  0  0  0  0  0  0  0  0  0
   62.4340   32.7336   46.6168 H   0  0  0  0  0  0  0  0  0  0  0  0
   64.4251   32.3292   48.7422 H   0  0  0  0  0  0  0  0  0  0  0  0
   63.1930   33.6150   48.6612 H   0  0  0  0  0  0  0  0  0  0  0  0
   63.2338   31.3047   50.4313 H   0  0  0  0  0  0  0  0  0  0  0  0
   61.9728   32.5264   50.3494 H   0  0  0  0  0  0  0  0  0  0  0  0
   54.7431   29.5935   43.6774 H   0  0  0  0  0  0  0  0  0  0  0  0
   55.2674   30.7466   44.9718 H   0  0  0  0  0  0  0  0  0  0  0  0
   57.4814   29.4270   43.4898 H   0  0  0  0  0  0  0  0  0  0  0  0
   56.4412   30.5439   42.5124 H   0  0  0  0  0  0  0  0  0  0  0  0
   56.8371   33.0492   42.7416 H   0  0  0  0  0  0  0  0  0  0  0  0
   58.1910   34.6840   44.1250 H   0  0  0  0  0  0  0  0  0  0  0  0
   57.6137   33.4317   48.0100 H   0  0  0  0  0  0  0  0  0  0  0  0
   58.3115   31.8064   47.6471 H   0  0  0  0  0  0  0  0  0  0  0  0
   57.4110   32.9117   50.2071 H   0  0  0  0  0  0  0  0  0  0  0  0
   57.8897   31.2207   49.7768 H   0  0  0  0  0  0  0  0  0  0  0  0
   59.0138   34.3641   51.0494 H   0  0  0  0  0  0  0  0  0  0  0  0
   60.7538   33.8474   51.0204 H   0  0  0  0  0  0  0  0  0  0  0  0
   59.2081   35.1654   48.9429 H   0  0  0  0  0  0  0  0  0  0  0  0
   60.9610   34.7508   48.9782 H   0  0  0  0  0  0  0  0  0  0  0  0
  1  2  2  0
  2  3  1  0
  3  4  1  0
  4  5  1  0
  5  6  2  0
  6  7  1  0
  7  8  2  0
  8  9  1  0
  9 10  2  0
  9 11  1  0
 11 12  1  0
 12 13  1  0
  2 14  1  0
 14 15  1  0
 15 16  1  0
 16 17  1  0
 17 18  2  0
 18 19  1  0
 19 20  2  0
 20 21  1  0
 21 22  2  0
 21 23  2  0
 21 24  1  0
 24 25  1  0
 25 26  1  0
 26 27  1  0
 27 28  1  0
 28 29  1  0
 20 30  1  0
 10  5  1  0
 30 17  1  0
 13  8  1  0
 29 24  1  0
  3 31  1  0
  3 32  1  0
  4 33  1  0
  4 34  1  0
  6 35  1  0
  7 36  1  0
 10 37  1  0
 11 38  1  0
 11 39  1  0
 12 40  1  0
 12 41  1  0
 13 42  1  0
 13 43  1  0
 15 44  1  0
 15 45  1  0
 16 46  1  0
 16 47  1  0
 18 48  1  0
 19 49  1  0
 25 50  1  0
 25 51  1  0
 26 52  1  0
 26 53  1  0
 28 54  1  0
 28 55  1  0
 29 56  1  0
 29 57  1  0
M  CHG  2  14  -1  19   1
M  END
>  <UniqueID>  (80) 
74

>  <SMILES>  (80) 
O=C(CCc1ccc2c(c1)CCC2)[N-]CCc1c[nH+]c(S(=O)(=O)N2CCOCC2)s1

>  <Energy>  (80) 
95.24726863378379

>  <Genealogy>  (80) 
O=C(CCc1ccc2c(c1)CCC2)[N-]CCc1c[nH+]c(S(=O)(=O)N2CCOCC2)s1 (protonated)
O=C(CCc1ccc2c(c1)CCC2)[N-]CCc1c[nH+]c(S(=O)(=O)N2CCOCC2)s1 (3D coordinates assigned)
O=C(CCc1ccc2c(c1)CCC2)[N-]CCc1c[nH+]c(S(=O)(=O)N2CCOCC2)s1 (nonaromatic ring conformer: 95.24726863378379 kcal/mol)

>  <smiles>  (80) 
O=C(CCc1ccc2c(c1)CCC2)NCCc1cnc(S(=O)(=O)N2CCOCC2)s1

>  <score_type>  (80) 
oracle

>  <origin>  (80) 
adg

>  <m_score__min__energy>  (80) 
-10.859999999999999

>  <m_primary>  (80) 
energy

$$$$
80:0
     RDKit          3D

 44 47  0  0  0  0  0  0  0  0999 V2000
   53.8590   21.2190   47.5640 C   0  0  0  0  0  0  0  0  0  0  0  0
   55.1360   21.9910   47.4270 C   0  0  0  0  0  0  0  0  0  0  0  0
   56.3770   21.6550   47.9530 C   0  0  0  0  0  0  0  0  0  0  0  0
   57.2580   22.5970   47.6600 O   0  0  0  0  0  0  0  0  0  0  0  0
   56.6430   23.5280   46.9670 C   0  0  0  0  0  0  0  0  0  0  0  0
   57.1840   24.7130   46.4520 C   0  0  0  0  0  0  0  0  0  0  0  0
   58.6270   25.0610   46.6990 C   0  0  0  0  0  0  0  0  0  0  0  0
   56.3090   25.5970   45.7660 C   0  0  0  0  0  0  0  0  0  0  0  0
   56.8300   26.8540   45.3030 N   0  0  0  0  0  0  0  0  0  0  0  0
   57.8120   27.7100   45.8990 C   0  0  0  0  0  0  0  0  0  0  0  0
   57.5110   28.4920   46.8380 O   0  0  0  0  0  0  0  0  0  0  0  0
   59.1990   27.7370   45.3400 C   0  0  0  0  0  0  0  0  0  0  0  0
   59.5470   29.3200   44.5020 S   0  0  0  0  0  0  0  0  0  0  0  0
   57.8250   29.7780   44.2940 C   0  0  0  0  0  0  0  0  0  0  0  0
   56.8880   28.9440   43.8070 N   0  0  0  0  0  0  0  0  0  0  0  0
   55.7220   29.5760   43.9060 N   0  0  0  0  0  0  0  0  0  0  0  0
   55.9300   30.7750   44.4360 N   0  0  0  0  0  0  0  0  0  0  0  0
   57.2320   30.9320   44.6760 N   0  0  0  0  0  0  0  0  0  0  0  0
   57.7940   32.0810   45.3420 C   0  0  0  0  0  0  0  0  0  0  0  0
   57.9940   33.2800   44.6200 C   0  0  0  0  0  0  0  0  0  0  0  0
   58.5130   34.4060   45.2540 C   0  0  0  0  0  0  0  0  0  0  0  0
   58.8320   34.3650   46.6130 C   0  0  0  0  0  0  0  0  0  0  0  0
   58.6820   33.1690   47.3310 C   0  0  0  0  0  0  0  0  0  0  0  0
   58.1980   32.0230   46.6910 C   0  0  0  0  0  0  0  0  0  0  0  0
   54.9360   25.2450   45.6110 C   0  0  0  0  0  0  0  0  0  0  0  0
   54.4410   24.0340   46.1220 C   0  0  0  0  0  0  0  0  0  0  0  0
   55.3240   23.2020   46.7970 C   0  0  0  0  0  0  0  0  0  0  0  0
   53.6277   21.0792   48.6303 H   0  0  0  0  0  0  0  0  0  0  0  0
   53.0413   21.7742   47.0811 H   0  0  0  0  0  0  0  0  0  0  0  0
   53.9706   20.2370   47.0811 H   0  0  0  0  0  0  0  0  0  0  0  0
   56.5944   20.7423   48.5272 H   0  0  0  0  0  0  0  0  0  0  0  0
   58.8131   25.1059   47.7822 H   0  0  0  0  0  0  0  0  0  0  0  0
   59.2719   24.2926   46.2477 H   0  0  0  0  0  0  0  0  0  0  0  0
   58.8508   26.0389   46.2477 H   0  0  0  0  0  0  0  0  0  0  0  0
   59.9186   27.6006   46.1607 H   0  0  0  0  0  0  0  0  0  0  0  0
   59.2911   26.9265   44.6020 H   0  0  0  0  0  0  0  0  0  0  0  0
   57.0190   27.9790   43.4410 H   0  0  0  0  0  0  0  0  0  0  0  0
   57.7381   33.3237   43.5511 H   0  0  0  0  0  0  0  0  0  0  0  0
   58.6724   35.3319   44.6818 H   0  0  0  0  0  0  0  0  0  0  0  0
   59.2004   35.2691   47.1198 H   0  0  0  0  0  0  0  0  0  0  0  0
   58.9453   33.1323   48.3984 H   0  0  0  0  0  0  0  0  0  0  0  0
   58.1325   31.0735   47.2425 H   0  0  0  0  0  0  0  0  0  0  0  0
   54.2558   25.9306   45.0845 H   0  0  0  0  0  0  0  0  0  0  0  0
   53.3855   23.7532   45.9913 H   0  0  0  0  0  0  0  0  0  0  0  0
  1  2  1  0
  2  3  2  0
  3  4  1  0
  4  5  1  0
  5  6  2  0
  6  7  1  0
  6  8  1  0
  8  9  1  0
  9 10  1  0
 10 11  2  0
 10 12  1  0
 12 13  1  0
 13 14  1  0
 14 15  2  0
 15 16  1  0
 16 17  2  0
 17 18  1  0
 18 19  1  0
 19 20  2  0
 20 21  1  0
 21 22  2  0
 22 23  1  0
 23 24  2  0
  8 25  2  0
 25 26  1  0
 26 27  2  0
 27  2  1  0
 27  5  1  0
 18 14  1  0
 24 19  1  0
  1 28  1  0
  1 29  1  0
  1 30  1  0
  3 31  1  0
  7 32  1  0
  7 33  1  0
  7 34  1  0
 12 35  1  0
 12 36  1  0
 15 37  1  0
 20 38  1  0
 21 39  1  0
 22 40  1  0
 23 41  1  0
 24 42  1  0
 25 43  1  0
 26 44  1  0
M  CHG  2   9  -1  15   1
M  END
>  <UniqueID>  (81) 
75

>  <SMILES>  (81) 
Cc1coc2c(C)c([N-]C(=O)CSc3[nH+]nnn3-c3ccccc3)ccc12

>  <Energy>  (81) 
121.63712024271754

>  <Genealogy>  (81) 
Cc1coc2c(C)c([N-]C(=O)CSc3[nH+]nnn3-c3ccccc3)ccc12 (protonated)
Cc1coc2c(C)c([N-]C(=O)CSc3[nH+]nnn3-c3ccccc3)ccc12 (3D coordinates assigned)
Cc1coc2c(C)c([N-]C(=O)CSc3[nH+]nnn3-c3ccccc3)ccc12 (optimized conformer: 121.63712024271754 kcal/mol)

>  <smiles>  (81) 
Cc1coc2c(C)c(NC(=O)CSc3nnnn3-c3ccccc3)ccc12

>  <score_type>  (81) 
oracle

>  <origin>  (81) 
adg

>  <m_score__min__energy>  (81) 
-8.5800000000000001

>  <m_primary>  (81) 
energy

$$$$
81:0
     RDKit          3D

 43 46  0  0  0  0  0  0  0  0999 V2000
   55.6820   30.0210   44.8240 O   0  0  0  0  0  0  0  0  0  0  0  0
   56.7130   29.6700   43.7790 S   0  0  0  0  0  0  0  0  0  0  0  0
   55.9110   29.3610   42.5190 O   0  0  0  0  0  0  0  0  0  0  0  0
   57.5850   28.2060   44.1870 C   0  0  0  0  0  0  0  0  0  0  0  0
   58.5750   28.4570   45.2990 C   0  0  0  0  0  0  0  0  0  0  0  0
   58.1660   28.3210   46.5910 C   0  0  0  0  0  0  0  0  0  0  0  0
   59.0590   28.5470   47.6260 C   0  0  0  0  0  0  0  0  0  0  0  0
   60.3600   28.9070   47.3590 C   0  0  0  0  0  0  0  0  0  0  0  0
   60.7370   29.0340   46.0400 C   0  0  0  0  0  0  0  0  0  0  0  0
   59.8680   28.8160   44.9900 C   0  0  0  0  0  0  0  0  0  0  0  0
   57.7230   30.9970   43.5130 N   0  0  0  0  0  0  0  0  0  0  0  0
   58.0020   32.0740   44.3680 C   0  0  0  0  0  0  0  0  0  0  0  0
   57.7800   33.3980   44.1330 C   0  0  0  0  0  0  0  0  0  0  0  0
   58.0750   34.4030   45.0550 C   0  0  0  0  0  0  0  0  0  0  0  0
   58.6210   34.0460   46.2700 C   0  0  0  0  0  0  0  0  0  0  0  0
   59.0110   34.7680   47.3540 N   0  0  0  0  0  0  0  0  0  0  0  0
   59.4810   33.9250   48.2840 C   0  0  0  0  0  0  0  0  0  0  0  0
   60.0260   34.2220   49.6440 C   0  0  0  0  0  0  0  0  0  0  0  0
   61.4660   33.7730   49.8310 C   0  0  0  0  0  0  0  0  0  0  0  0
   61.0510   33.3850   51.2550 C   0  0  0  0  0  0  0  0  0  0  0  0
   59.6580   33.1670   50.6670 C   0  0  0  0  0  0  0  0  0  0  0  0
   59.3860   32.6780   47.7840 N   0  0  0  0  0  0  0  0  0  0  0  0
   58.8610   32.7170   46.5490 C   0  0  0  0  0  0  0  0  0  0  0  0
   58.5570   31.7500   45.6140 C   0  0  0  0  0  0  0  0  0  0  0  0
   56.8670   27.4384   44.5113 H   0  0  0  0  0  0  0  0  0  0  0  0
   58.1362   27.8674   43.2973 H   0  0  0  0  0  0  0  0  0  0  0  0
   57.1280   28.0321   46.8125 H   0  0  0  0  0  0  0  0  0  0  0  0
   58.7256   28.4379   48.6686 H   0  0  0  0  0  0  0  0  0  0  0  0
   61.0768   29.0878   48.1735 H   0  0  0  0  0  0  0  0  0  0  0  0
   61.7745   29.3213   45.8141 H   0  0  0  0  0  0  0  0  0  0  0  0
   60.1960   28.9249   43.9457 H   0  0  0  0  0  0  0  0  0  0  0  0
   58.2310   31.0400   42.5650 H   0  0  0  0  0  0  0  0  0  0  0  0
   57.3454   33.6897   43.1655 H   0  0  0  0  0  0  0  0  0  0  0  0
   57.8761   35.4585   44.8175 H   0  0  0  0  0  0  0  0  0  0  0  0
   58.9590   35.8050   47.4620 H   0  0  0  0  0  0  0  0  0  0  0  0
   59.7252   35.2755   49.7426 H   0  0  0  0  0  0  0  0  0  0  0  0
   61.7765   32.9325   49.1929 H   0  0  0  0  0  0  0  0  0  0  0  0
   62.3216   34.4329   49.6246 H   0  0  0  0  0  0  0  0  0  0  0  0
   61.5359   32.4805   51.6511 H   0  0  0  0  0  0  0  0  0  0  0  0
   61.2336   34.0339   52.1243 H   0  0  0  0  0  0  0  0  0  0  0  0
   59.4824   32.1630   50.2534 H   0  0  0  0  0  0  0  0  0  0  0  0
   58.7457   33.2345   51.2779 H   0  0  0  0  0  0  0  0  0  0  0  0
   58.7556   30.6947   45.8525 H   0  0  0  0  0  0  0  0  0  0  0  0
  1  2  2  0
  2  3  2  0
  2  4  1  0
  4  5  1  0
  5  6  2  0
  6  7  1  0
  7  8  2  0
  8  9  1  0
  9 10  2  0
  2 11  1  0
 11 12  1  0
 12 13  2  0
 13 14  1  0
 14 15  2  0
 15 16  1  0
 16 17  1  0
 17 18  1  0
 18 19  1  0
 19 20  1  0
 20 21  1  0
 17 22  2  0
 22 23  1  0
 23 24  2  0
 10  5  1  0
 24 12  1  0
 23 15  1  0
 21 18  1  0
  4 25  1  0
  4 26  1  0
  6 27  1  0
  7 28  1  0
  8 29  1  0
  9 30  1  0
 10 31  1  0
 11 32  1  0
 13 33  1  0
 14 34  1  0
 16 35  1  0
 18 36  1  0
 19 37  1  0
 19 38  1  0
 20 39  1  0
 20 40  1  0
 21 41  1  0
 21 42  1  0
 24 43  1  0
M  END
>  <smiles>  (82) 
O=S(=O)(Cc1ccccc1)Nc1ccc2[nH]c(C3CCC3)nc2c1

>  <score_type>  (82) 
oracle

>  <origin>  (82) 
adg

>  <m_score__min__energy>  (82) 
-8.6300000000000008

>  <m_primary>  (82) 
energy

$$$$
82:0
     RDKit          3D

 43 44  0  0  0  0  0  0  0  0999 V2000
   58.1000   34.2160   45.2330 C   0  0  0  0  0  0  0  0  0  0  0  0
   57.7200   33.4970   46.8630 S   0  0  0  0  0  0  0  0  0  0  0  0
   59.4390   33.4980   47.3980 C   0  0  0  0  0  0  0  0  0  0  0  0
   60.4380   33.8210   46.4690 C   0  0  0  0  0  0  0  0  0  0  0  0
   61.7780   33.8510   46.8590 C   0  0  0  0  0  0  0  0  0  0  0  0
   62.1310   33.5560   48.1760 C   0  0  0  0  0  0  0  0  0  0  0  0
   61.1420   33.2280   49.1090 C   0  0  0  0  0  0  0  0  0  0  0  0
   59.7880   33.2020   48.7310 C   0  0  0  0  0  0  0  0  0  0  0  0
   58.7780   32.8280   49.6820 N   0  0  0  0  0  0  0  0  0  0  0  0
   58.8400   33.1790   51.0730 C   0  0  0  0  0  0  0  0  0  0  0  0
   59.7780   33.9020   51.5080 O   0  0  0  0  0  0  0  0  0  0  0  0
   57.7550   32.7280   52.0200 C   0  0  0  0  0  0  0  0  0  0  0  0
   56.8630   31.6930   51.4470 N   0  0  0  0  0  0  0  0  0  0  0  0
   57.6100   30.4880   51.0410 C   0  0  0  0  0  0  0  0  0  0  0  0
   55.7390   31.3660   52.3480 C   0  0  0  0  0  0  0  0  0  0  0  0
   55.3150   29.9410   52.1690 C   0  0  0  0  0  0  0  0  0  0  0  0
   56.0750   29.0190   52.5670 O   0  0  0  0  0  0  0  0  0  0  0  0
   54.0030   29.6600   51.6560 N   0  0  0  0  0  0  0  0  0  0  0  0
   53.0380   30.4860   51.3570 C   0  0  0  0  0  0  0  0  0  0  0  0
   52.3360   30.4510   50.1340 C   0  0  0  0  0  0  0  0  0  0  0  0
   51.3170   31.3790   49.8960 C   0  0  0  0  0  0  0  0  0  0  0  0
   51.0120   32.3140   50.8330 N   0  0  0  0  0  0  0  0  0  0  0  0
   51.6810   32.3830   52.0120 C   0  0  0  0  0  0  0  0  0  0  0  0
   52.7070   31.4780   52.2890 C   0  0  0  0  0  0  0  0  0  0  0  0
   58.6101   35.1812   45.3679 H   0  0  0  0  0  0  0  0  0  0  0  0
   58.7537   33.5308   44.6734 H   0  0  0  0  0  0  0  0  0  0  0  0
   57.1656   34.3702   44.6734 H   0  0  0  0  0  0  0  0  0  0  0  0
   60.1649   34.0517   45.4287 H   0  0  0  0  0  0  0  0  0  0  0  0
   62.5572   34.1078   46.1263 H   0  0  0  0  0  0  0  0  0  0  0  0
   63.1876   33.5814   48.4808 H   0  0  0  0  0  0  0  0  0  0  0  0
   61.4252   32.9890   50.1447 H   0  0  0  0  0  0  0  0  0  0  0  0
   57.9150   32.3580   49.3280 H   0  0  0  0  0  0  0  0  0  0  0  0
   58.2298   32.3172   52.9232 H   0  0  0  0  0  0  0  0  0  0  0  0
   57.1313   33.6071   52.2396 H   0  0  0  0  0  0  0  0  0  0  0  0
   57.9462   29.9457   51.9371 H   0  0  0  0  0  0  0  0  0  0  0  0
   56.9571   29.8365   50.4415 H   0  0  0  0  0  0  0  0  0  0  0  0
   58.4839   30.7830   50.4415 H   0  0  0  0  0  0  0  0  0  0  0  0
   56.0548   31.5206   53.3903 H   0  0  0  0  0  0  0  0  0  0  0  0
   54.8892   32.0211   52.1058 H   0  0  0  0  0  0  0  0  0  0  0  0
   52.5884   29.6986   49.3723 H   0  0  0  0  0  0  0  0  0  0  0  0
   50.7609   31.3516   48.9473 H   0  0  0  0  0  0  0  0  0  0  0  0
   51.4142   33.1534   52.7504 H   0  0  0  0  0  0  0  0  0  0  0  0
   53.2560   31.5439   53.2399 H   0  0  0  0  0  0  0  0  0  0  0  0
  1  2  1  0
  2  3  1  0
  3  4  2  0
  4  5  1  0
  5  6  2  0
  6  7  1  0
  7  8  2  0
  8  9  1  0
  9 10  1  0
 10 11  2  0
 10 12  1  0
 12 13  1  0
 13 14  1  0
 13 15  1  0
 15 16  1  0
 16 17  2  0
 16 18  1  0
 18 19  2  3
 19 20  1  0
 20 21  2  0
 21 22  1  0
 22 23  1  0
 23 24  2  0
  8  3  1  0
 24 19  1  0
  1 25  1  0
  1 26  1  0
  1 27  1  0
  4 28  1  0
  5 29  1  0
  6 30  1  0
  7 31  1  0
  9 32  1  0
 12 33  1  0
 12 34  1  0
 14 35  1  0
 14 36  1  0
 14 37  1  0
 15 38  1  0
 15 39  1  0
 20 40  1  0
 21 41  1  0
 23 42  1  0
 24 43  1  0
M  CHG  1  22  -1
M  END
>  <UniqueID>  (83) 
76

>  <SMILES>  (83) 
CSc1ccccc1NC(=O)CN(C)CC(=O)N=c1cc[n-]cc1

>  <Energy>  (83) 
51.27499570661608

>  <Genealogy>  (83) 
CSc1ccccc1NC(=O)CN(C)CC(=O)N=c1cc[n-]cc1 (protonated)
CSc1ccccc1NC(=O)CN(C)CC(=O)N=c1cc[n-]cc1 (3D coordinates assigned)
CSc1ccccc1NC(=O)CN(C)CC(=O)N=c1cc[n-]cc1 (optimized conformer: 51.27499570661608 kcal/mol)

>  <smiles>  (83) 
CSc1ccccc1NC(=O)CN(C)CC(=O)N=c1cc[nH]cc1

>  <score_type>  (83) 
oracle

>  <origin>  (83) 
adg

>  <m_score__min__energy>  (83) 
-9.8000000000000007

>  <m_primary>  (83) 
energy

$$$$
83:0
     RDKit          3D

 68 71  0  0  0  0  0  0  0  0999 V2000
   56.4660   21.5150   48.9960 C   0  0  0  0  0  0  0  0  0  0  0  0
   57.3130   21.3360   47.8660 O   0  0  0  0  0  0  0  0  0  0  0  0
   57.2310   22.0860   46.6820 C   0  0  0  0  0  0  0  0  0  0  0  0
   57.6660   23.4260   46.6130 C   0  0  0  0  0  0  0  0  0  0  0  0
   57.5590   24.1500   45.4130 C   0  0  0  0  0  0  0  0  0  0  0  0
   58.0130   25.5120   45.3180 N   0  0  0  0  0  0  0  0  0  0  0  0
   57.3430   26.6190   45.9490 C   0  0  0  0  0  0  0  0  0  0  0  0
   56.1530   26.4850   46.3510 O   0  0  0  0  0  0  0  0  0  0  0  0
   58.0140   27.9360   46.0880 C   0  0  0  0  0  0  0  0  0  0  0  0
   58.5040   28.6040   44.9510 C   0  0  0  0  0  0  0  0  0  0  0  0
   59.1430   29.8400   45.0740 C   0  0  0  0  0  0  0  0  0  0  0  0
   59.2920   30.4370   46.3320 C   0  0  0  0  0  0  0  0  0  0  0  0
   59.9810   31.7350   46.4600 C   0  0  0  0  0  0  0  0  0  0  0  0
   61.2250   31.7700   47.1110 C   0  0  0  0  0  0  0  0  0  0  0  0
   61.9220   32.9720   47.2430 C   0  0  0  0  0  0  0  0  0  0  0  0
   61.3840   34.1510   46.7260 C   0  0  0  0  0  0  0  0  0  0  0  0
   60.1450   34.1340   46.0830 C   0  0  0  0  0  0  0  0  0  0  0  0
   59.4260   32.9340   45.9480 C   0  0  0  0  0  0  0  0  0  0  0  0
   57.8390   32.9690   45.1630 S   0  0  0  0  0  0  0  0  0  0  0  0
   58.0450   33.0280   43.4460 N   0  0  0  0  0  0  0  0  0  0  0  0
   57.0520   31.7460   45.5450 O   0  0  0  0  0  0  0  0  0  0  0  0
   57.0730   34.1840   45.6040 O   0  0  0  0  0  0  0  0  0  0  0  0
   58.8040   29.7790   47.4720 C   0  0  0  0  0  0  0  0  0  0  0  0
   58.9350   30.3420   48.7000 F   0  0  0  0  0  0  0  0  0  0  0  0
   58.1620   28.5430   47.3500 C   0  0  0  0  0  0  0  0  0  0  0  0
   57.0470   23.5160   44.2750 C   0  0  0  0  0  0  0  0  0  0  0  0
   56.6130   22.1910   44.3350 C   0  0  0  0  0  0  0  0  0  0  0  0
   56.6980   21.4690   45.5400 C   0  0  0  0  0  0  0  0  0  0  0  0
   56.2660   20.1390   45.6430 O   0  0  0  0  0  0  0  0  0  0  0  0
   55.1400   19.7060   46.4020 C   0  0  0  0  0  0  0  0  0  0  0  0
   53.8990   20.5080   45.9980 C   0  0  0  0  0  0  0  0  0  0  0  0
   53.5280   21.5240   47.0150 N   0  0  0  0  0  0  0  0  0  0  0  0
   52.0590   21.5940   47.2220 C   0  0  0  0  0  0  0  0  0  0  0  0
   51.3740   22.6960   46.3860 C   0  0  0  0  0  0  0  0  0  0  0  0
   52.1500   22.9630   45.1650 N   0  0  0  0  0  0  0  0  0  0  0  0
   51.4140   23.8720   44.2730 C   0  0  0  0  0  0  0  0  0  0  0  0
   53.4770   23.5270   45.4970 C   0  0  0  0  0  0  0  0  0  0  0  0
   54.0910   22.8660   46.7500 C   0  0  0  0  0  0  0  0  0  0  0  0
   57.0533   21.3909   49.9178 H   0  0  0  0  0  0  0  0  0  0  0  0
   56.0308   22.5250   48.9717 H   0  0  0  0  0  0  0  0  0  0  0  0
   55.6594   20.7675   48.9717 H   0  0  0  0  0  0  0  0  0  0  0  0
   58.0922   23.9081   47.5051 H   0  0  0  0  0  0  0  0  0  0  0  0
   58.7640   25.7250   44.6240 H   0  0  0  0  0  0  0  0  0  0  0  0
   58.3829   28.1492   43.9568 H   0  0  0  0  0  0  0  0  0  0  0  0
   59.5311   30.3469   44.1783 H   0  0  0  0  0  0  0  0  0  0  0  0
   61.6533   30.8430   47.5200 H   0  0  0  0  0  0  0  0  0  0  0  0
   62.8956   32.9898   47.7547 H   0  0  0  0  0  0  0  0  0  0  0  0
   61.9376   35.0964   46.8253 H   0  0  0  0  0  0  0  0  0  0  0  0
   59.7278   35.0680   45.6785 H   0  0  0  0  0  0  0  0  0  0  0  0
   58.8900   32.4620   43.2110 H   0  0  0  0  0  0  0  0  0  0  0  0
   57.7695   28.0409   48.2466 H   0  0  0  0  0  0  0  0  0  0  0  0
   56.9862   24.0670   43.3249 H   0  0  0  0  0  0  0  0  0  0  0  0
   56.2024   21.7085   43.4358 H   0  0  0  0  0  0  0  0  0  0  0  0
   54.9613   18.6373   46.2121 H   0  0  0  0  0  0  0  0  0  0  0  0
   55.3415   19.8651   47.4716 H   0  0  0  0  0  0  0  0  0  0  0  0
   54.1030   21.0192   45.0456 H   0  0  0  0  0  0  0  0  0  0  0  0
   53.0593   19.8036   45.9046 H   0  0  0  0  0  0  0  0  0  0  0  0
   51.6212   20.6235   46.9453 H   0  0  0  0  0  0  0  0  0  0  0  0
   51.8916   21.8387   48.2813 H   0  0  0  0  0  0  0  0  0  0  0  0
   50.3621   22.3656   46.1086 H   0  0  0  0  0  0  0  0  0  0  0  0
   51.3172   23.6174   46.9841 H   0  0  0  0  0  0  0  0  0  0  0  0
   50.8348   24.5874   44.8753 H   0  0  0  0  0  0  0  0  0  0  0  0
   52.1264   24.4194   43.6383 H   0  0  0  0  0  0  0  0  0  0  0  0
   50.7304   23.2890   43.6383 H   0  0  0  0  0  0  0  0  0  0  0  0
   54.1536   23.3681   44.6443 H   0  0  0  0  0  0  0  0  0  0  0  0
   53.3468   24.5987   45.7082 H   0  0  0  0  0  0  0  0  0  0  0  0
   55.1768   22.7703   46.6023 H   0  0  0  0  0  0  0  0  0  0  0  0
   53.8555   23.5043   47.6144 H   0  0  0  0  0  0  0  0  0  0  0  0
  1  2  1  0
  2  3  1  0
  3  4  2  0
  4  5  1  0
  5  6  1  0
  6  7  1  0
  7  8  2  0
  7  9  1  0
  9 10  2  0
 10 11  1  0
 11 12  2  0
 12 13  1  0
 13 14  2  0
 14 15  1  0
 15 16  2  0
 16 17  1  0
 17 18  2  0
 18 19  1  0
 19 20  1  0
 19 21  2  0
 19 22  2  0
 12 23  1  0
 23 24  1  0
 23 25  2  0
  5 26  2  0
 26 27  1  0
 27 28  2  0
 28 29  1  0
 29 30  1  0
 30 31  1  0
 31 32  1  0
 32 33  1  0
 33 34  1  0
 34 35  1  0
 35 36  1  0
 35 37  1  0
 37 38  1  0
 28  3  1  0
 38 32  1  0
 25  9  1  0
 18 13  1  0
  1 39  1  0
  1 40  1  0
  1 41  1  0
  4 42  1  0
  6 43  1  0
 10 44  1  0
 11 45  1  0
 14 46  1  0
 15 47  1  0
 16 48  1  0
 17 49  1  0
 20 50  1  0
 25 51  1  0
 26 52  1  0
 27 53  1  0
 30 54  1  0
 30 55  1  0
 31 56  1  0
 31 57  1  0
 33 58  1  0
 33 59  1  0
 34 60  1  0
 34 61  1  0
 36 62  1  0
 36 63  1  0
 36 64  1  0
 37 65  1  0
 37 66  1  0
 38 67  1  0
 38 68  1  0
M  CHG  1  20  -1
M  END
>  <UniqueID>  (84) 
77

>  <SMILES>  (84) 
COc1cc(NC(=O)c2ccc(-c3ccccc3S([NH-])(=O)=O)c(F)c2)ccc1OCCN1CCN(C)CC1

>  <Energy>  (84) 
95.52017721775724

>  <Genealogy>  (84) 
COc1cc(NC(=O)c2ccc(-c3ccccc3S([NH-])(=O)=O)c(F)c2)ccc1OCCN1CCN(C)CC1 (protonated)
COc1cc(NC(=O)c2ccc(-c3ccccc3S([NH-])(=O)=O)c(F)c2)ccc1OCCN1CCN(C)CC1 (3D coordinates assigned)
COc1cc(NC(=O)c2ccc(-c3ccccc3S([NH-])(=O)=O)c(F)c2)ccc1OCCN1CCN(C)CC1 (nonaromatic ring conformer: 95.52017721775724 kcal/mol)

>  <smiles>  (84) 
COc1cc(NC(=O)c2ccc(-c3ccccc3S(N)(=O)=O)c(F)c2)ccc1OCCN1CCN(C)CC1

>  <score_type>  (84) 
oracle

>  <origin>  (84) 
adg

>  <m_score__min__energy>  (84) 
-10.15

>  <m_primary>  (84) 
energy

$$$$
84:0
     RDKit          3D

 59 62  0  0  0  0  0  0  0  0999 V2000
   55.2630   23.4210   48.4220 H   0  0  0  0  0  0  0  0  0  0  0  0
   55.2040   24.0350   47.6230 O   0  0  0  0  0  0  0  0  0  0  0  0
   56.2730   24.8380   47.2250 C   0  0  0  0  0  0  0  0  0  0  0  0
   57.4630   24.8030   47.9560 C   0  0  0  0  0  0  0  0  0  0  0  0
   57.5720   23.9760   49.0700 O   0  0  0  0  0  0  0  0  0  0  0  0
   58.5510   25.5910   47.5680 C   0  0  0  0  0  0  0  0  0  0  0  0
   59.4869   25.5451   48.1441 H   0  0  0  0  0  0  0  0  0  0  0  0
   58.4650   26.4400   46.4530 C   0  0  0  0  0  0  0  0  0  0  0  0
   59.6880   27.1810   46.0520 C   0  0  0  0  0  0  0  0  0  0  0  0
   60.1313   26.9496   45.0722 H   0  0  0  0  0  0  0  0  0  0  0  0
   60.2860   28.1120   46.8050 C   0  0  0  0  0  0  0  0  0  0  0  0
   61.3837   28.1816   46.7918 H   0  0  0  0  0  0  0  0  0  0  0  0
   59.5220   29.0490   47.6530 C   0  0  0  0  0  0  0  0  0  0  0  0
   58.3040   29.2340   47.4220 O   0  0  0  0  0  0  0  0  0  0  0  0
   60.1740   29.7610   48.7820 C   0  0  0  0  0  0  0  0  0  0  0  0
   61.4970   30.2240   48.6540 C   0  0  0  0  0  0  0  0  0  0  0  0
   62.0367   30.0767   47.7069 H   0  0  0  0  0  0  0  0  0  0  0  0
   62.1310   30.8690   49.7190 C   0  0  0  0  0  0  0  0  0  0  0  0
   63.1610   31.2373   49.6029 H   0  0  0  0  0  0  0  0  0  0  0  0
   61.4600   31.0470   50.9300 C   0  0  0  0  0  0  0  0  0  0  0  0
   62.0980   31.6670   51.9950 O   0  0  0  0  0  0  0  0  0  0  0  0
   60.1480   30.5940   51.0750 C   0  0  0  0  0  0  0  0  0  0  0  0
   59.6209   30.7377   52.0297 H   0  0  0  0  0  0  0  0  0  0  0  0
   59.5000   29.9570   50.0090 C   0  0  0  0  0  0  0  0  0  0  0  0
   58.1890   29.5360   50.1770 O   0  0  0  0  0  0  0  0  0  0  0  0
   57.2620   26.4660   45.7040 C   0  0  0  0  0  0  0  0  0  0  0  0
   57.1360   27.2700   44.5680 O   0  0  0  0  0  0  0  0  0  0  0  0
   57.2070   28.6700   44.5580 C   0  0  0  0  0  0  0  0  0  0  0  0
   58.4780   29.2550   44.5620 C   0  0  0  0  0  0  0  0  0  0  0  0
   59.3709   28.6140   44.6050 H   0  0  0  0  0  0  0  0  0  0  0  0
   58.6270   30.6430   44.5120 C   0  0  0  0  0  0  0  0  0  0  0  0
   59.6321   31.0884   44.5490 H   0  0  0  0  0  0  0  0  0  0  0  0
   57.5020   31.4680   44.4150 C   0  0  0  0  0  0  0  0  0  0  0  0
   57.6890   32.9320   44.3220 C   0  0  0  0  0  0  0  0  0  0  0  0
   57.7931   33.3694   43.3181 H   0  0  0  0  0  0  0  0  0  0  0  0
   57.7410   33.7650   45.3700 C   0  0  0  0  0  0  0  0  0  0  0  0
   56.8043   33.9671   45.9101 H   0  0  0  0  0  0  0  0  0  0  0  0
   58.9670   34.4300   45.8500 C   0  0  0  0  0  0  0  0  0  0  0  0
   59.3230   35.4980   45.2850 O   0  0  0  0  0  0  0  0  0  0  0  0
   59.7340   33.9260   46.9630 N   0  0  0  0  0  0  0  0  0  0  0  0
   61.1730   34.2120   47.0410 C   0  0  0  0  0  0  0  0  0  0  0  0
   61.6938   33.6858   46.2275 H   0  0  0  0  0  0  0  0  0  0  0  0
   61.3318   35.2963   46.9451 H   0  0  0  0  0  0  0  0  0  0  0  0
   61.7270   33.7400   48.3860 C   0  0  0  0  0  0  0  0  0  0  0  0
   61.7556   32.6406   48.4074 H   0  0  0  0  0  0  0  0  0  0  0  0
   62.7456   34.1311   48.5256 H   0  0  0  0  0  0  0  0  0  0  0  0
   60.8910   34.2110   49.4190 O   0  0  0  0  0  0  0  0  0  0  0  0
   59.6310   33.5600   49.4170 C   0  0  0  0  0  0  0  0  0  0  0  0
   59.7147   32.6580   50.0409 H   0  0  0  0  0  0  0  0  0  0  0  0
   58.9096   34.2978   49.7981 H   0  0  0  0  0  0  0  0  0  0  0  0
   59.1050   33.1310   48.0280 C   0  0  0  0  0  0  0  0  0  0  0  0
   59.3353   32.0674   47.8679 H   0  0  0  0  0  0  0  0  0  0  0  0
   58.0180   33.2964   47.9962 H   0  0  0  0  0  0  0  0  0  0  0  0
   56.2220   30.8900   44.4510 C   0  0  0  0  0  0  0  0  0  0  0  0
   55.3321   31.5363   44.4326 H   0  0  0  0  0  0  0  0  0  0  0  0
   56.0680   29.5020   44.5100 C   0  0  0  0  0  0  0  0  0  0  0  0
   54.7840   28.9720   44.4970 O   0  0  0  0  0  0  0  0  0  0  0  0
   56.1730   25.6720   46.0980 C   0  0  0  0  0  0  0  0  0  0  0  0
   54.9920   25.7110   45.3590 O   0  0  0  0  0  0  0  0  0  0  0  0
  1  2  1  0
  2  3  1  0
  3  4  2  0
  4  5  1  0
  4  6  1  0
  6  7  1  0
  6  8  2  0
  8  9  1  0
  9 10  1  0
  9 11  2  0
 11 12  1  0
 11 13  1  0
 13 14  2  0
 13 15  1  0
 15 16  2  0
 16 17  1  0
 16 18  1  0
 18 19  1  0
 18 20  2  0
 20 21  1  0
 20 22  1  0
 22 23  1  0
 22 24  2  0
 24 25  1  0
  8 26  1  0
 26 27  1  0
 27 28  1  0
 28 29  2  0
 29 30  1  0
 29 31  1  0
 31 32  1  0
 31 33  2  0
 33 34  1  0
 34 35  1  0
 34 36  2  3
 36 37  1  0
 36 38  1  0
 38 39  2  0
 38 40  1  0
 40 41  1  0
 41 42  1  0
 41 43  1  0
 41 44  1  0
 44 45  1  0
 44 46  1  0
 44 47  1  0
 47 48  1  0
 48 49  1  0
 48 50  1  0
 48 51  1  0
 51 52  1  0
 51 53  1  0
 33 54  1  0
 54 55  1  0
 54 56  2  0
 56 57  1  0
 26 58  2  0
 58 59  1  0
 58  3  1  0
 24 15  1  0
 56 28  1  0
 51 40  1  0
M  CHG  5   5  -1  21  -1  25  -1  57  -1  59  -1
M  END
>  <UniqueID>  (85) 
78

>  <SMILES>  (85) 
O=C(/C=C/c1cc([O-])c(O)c([O-])c1Oc1ccc(C=CC(=O)N2CCOCC2)cc1[O-])c1ccc([O-])cc1[O-]

>  <Energy>  (85) 
93.95006970672044

>  <Genealogy>  (85) 
O=C(C=Cc1cc([O-])c(O)c([O-])c1Oc1ccc(C=CC(=O)N2CCOCC2)cc1[O-])c1ccc([O-])cc1[O-] (protonated)
O=C(/C=C/c1cc([O-])c(O)c([O-])c1Oc1ccc(C=CC(=O)N2CCOCC2)cc1[O-])c1ccc([O-])cc1[O-] (cis-trans isomerization)
O=C(/C=C/c1cc([O-])c(O)c([O-])c1Oc1ccc(C=CC(=O)N2CCOCC2)cc1[O-])c1ccc([O-])cc1[O-] (3D coordinates assigned)
O=C(/C=C/c1cc([O-])c(O)c([O-])c1Oc1ccc(C=CC(=O)N2CCOCC2)cc1[O-])c1ccc([O-])cc1[O-] (nonaromatic ring conformer: 93.95006970672044 kcal/mol)

>  <smiles>  (85) 
O=C(C=Cc1cc(O)c(O)c(O)c1Oc1ccc(C=CC(=O)N2CCOCC2)cc1O)c1ccc(O)cc1O

>  <score_type>  (85) 
oracle

>  <origin>  (85) 
adg

>  <m_score__min__energy>  (85) 
-18.800000000000001

>  <m_primary>  (85) 
energy

$$$$
85:0
     RDKit          3D

 77 82  0  0  0  0  0  0  0  0999 V2000
   62.6280   34.6720   50.8750 O   0  0  0  0  0  0  0  0  0  0  0  0
   62.3160   33.4490   50.9350 C   0  0  0  0  0  0  0  0  0  0  0  0
   62.0700   32.8210   52.2850 C   0  0  0  0  0  0  0  0  0  0  0  0
   60.6020   32.6480   52.5770 C   0  0  0  0  0  0  0  0  0  0  0  0
   60.1030   31.4220   53.0410 C   0  0  0  0  0  0  0  0  0  0  0  0
   58.7350   31.2650   53.2660 C   0  0  0  0  0  0  0  0  0  0  0  0
   57.8780   32.3460   53.0320 C   0  0  0  0  0  0  0  0  0  0  0  0
   58.3690   33.5360   52.5830 N   0  0  0  0  0  0  0  0  0  0  0  0
   57.5200   34.6030   52.3650 O   0  0  0  0  0  0  0  0  0  0  0  0
   59.7050   33.7040   52.3450 C   0  0  0  0  0  0  0  0  0  0  0  0
   62.1320   32.7040   49.7100 N   0  0  0  0  0  0  0  0  0  0  0  0
   62.3810   33.3700   48.4250 C   0  0  0  0  0  0  0  0  0  0  0  0
   62.4300   32.3510   47.2760 C   0  0  0  0  0  0  0  0  0  0  0  0
   61.1250   31.4770   47.1430 C   0  0  0  0  0  0  0  0  0  0  0  0
   61.5800   30.1830   46.3680 C   0  0  0  0  0  0  0  0  0  0  0  0
   60.5390   29.4510   45.5050 C   0  0  0  0  0  0  0  0  0  0  0  0
   59.3110   29.0080   46.3170 C   0  0  2  0  0  0  0  0  0  0  0  0
   58.6560   27.8280   45.6950 N   0  0  0  0  0  0  0  0  0  0  0  0
   58.0190   28.0590   44.3760 C   0  0  0  0  0  0  0  0  0  0  0  0
   57.8470   26.7000   43.6870 C   0  0  0  0  0  0  0  0  0  0  0  0
   57.3740   25.6930   44.6440 N   0  0  0  0  0  0  0  0  0  0  0  0
   57.2980   24.3140   44.2520 C   0  0  0  0  0  0  0  0  0  0  0  0
   58.1240   23.3620   44.8660 C   0  0  0  0  0  0  0  0  0  0  0  0
   58.0440   22.0170   44.4930 C   0  0  0  0  0  0  0  0  0  0  0  0
   57.1550   21.6190   43.4900 C   0  0  0  0  0  0  0  0  0  0  0  0
   56.3320   22.5640   42.8710 C   0  0  0  0  0  0  0  0  0  0  0  0
   56.3960   23.9110   43.2550 C   0  0  0  0  0  0  0  0  0  0  0  0
   56.8220   26.1170   45.9370 C   0  0  0  0  0  0  0  0  0  0  0  0
   57.8100   27.0560   46.6490 C   0  0  0  0  0  0  0  0  0  0  0  0
   58.3230   30.1700   46.6350 C   0  0  0  0  0  0  0  0  0  0  0  0
   58.6890   31.5740   46.1520 C   0  0  0  0  0  0  0  0  0  0  0  0
   57.6370   32.3270   45.5810 C   0  0  0  0  0  0  0  0  0  0  0  0
   57.7950   33.6690   45.2870 C   0  0  0  0  0  0  0  0  0  0  0  0
   59.0290   34.2730   45.4460 C   0  0  0  0  0  0  0  0  0  0  0  0
   59.1850   35.6190   45.1290 O   0  0  0  0  0  0  0  0  0  0  0  0
   60.1060   33.5550   45.9490 C   0  0  0  0  0  0  0  0  0  0  0  0
   59.9650   32.2020   46.3720 C   0  0  0  0  0  0  0  0  0  0  0  0
   60.6130   31.1360   48.5960 C   0  0  0  0  0  0  0  0  0  0  0  0
   61.6530   31.3140   49.7030 C   0  0  0  0  0  0  0  0  0  0  0  0
   62.5541   31.8336   52.3092 H   0  0  0  0  0  0  0  0  0  0  0  0
   62.4880   33.4925   53.0494 H   0  0  0  0  0  0  0  0  0  0  0  0
   60.7905   30.5839   53.2276 H   0  0  0  0  0  0  0  0  0  0  0  0
   58.3355   30.3041   53.6226 H   0  0  0  0  0  0  0  0  0  0  0  0
   56.7985   32.2347   53.2119 H   0  0  0  0  0  0  0  0  0  0  0  0
   57.8640   35.4890   52.0100 H   0  0  0  0  0  0  0  0  0  0  0  0
   60.0784   34.6687   51.9709 H   0  0  0  0  0  0  0  0  0  0  0  0
   61.5735   34.0915   48.2315 H   0  0  0  0  0  0  0  0  0  0  0  0
   63.3523   33.8834   48.4792 H   0  0  0  0  0  0  0  0  0  0  0  0
   62.5781   32.8984   46.3334 H   0  0  0  0  0  0  0  0  0  0  0  0
   63.2568   31.6598   47.4966 H   0  0  0  0  0  0  0  0  0  0  0  0
   62.4077   30.4740   45.7044 H   0  0  0  0  0  0  0  0  0  0  0  0
   61.8317   29.4637   47.1613 H   0  0  0  0  0  0  0  0  0  0  0  0
   60.2071   30.1267   44.7030 H   0  0  0  0  0  0  0  0  0  0  0  0
   61.0163   28.5469   45.0989 H   0  0  0  0  0  0  0  0  0  0  0  0
   59.6779   28.6892   47.3038 H   0  0  0  0  0  0  0  0  0  0  0  0
   57.0366   28.5342   44.5142 H   0  0  0  0  0  0  0  0  0  0  0  0
   58.6449   28.7223   43.7609 H   0  0  0  0  0  0  0  0  0  0  0  0
   57.1140   26.7975   42.8727 H   0  0  0  0  0  0  0  0  0  0  0  0
   58.8199   26.3795   43.2861 H   0  0  0  0  0  0  0  0  0  0  0  0
   58.8370   23.6742   45.6433 H   0  0  0  0  0  0  0  0  0  0  0  0
   58.6815   21.2706   44.9895 H   0  0  0  0  0  0  0  0  0  0  0  0
   57.1033   20.5625   43.1881 H   0  0  0  0  0  0  0  0  0  0  0  0
   55.6331   22.2506   42.0815 H   0  0  0  0  0  0  0  0  0  0  0  0
   55.7395   24.6517   42.7750 H   0  0  0  0  0  0  0  0  0  0  0  0
   55.8718   26.6459   45.7715 H   0  0  0  0  0  0  0  0  0  0  0  0
   56.6512   25.2300   46.5647 H   0  0  0  0  0  0  0  0  0  0  0  0
   57.2393   27.7648   47.2670 H   0  0  0  0  0  0  0  0  0  0  0  0
   58.4801   26.4333   47.2599 H   0  0  0  0  0  0  0  0  0  0  0  0
   57.3550   29.9099   46.1819 H   0  0  0  0  0  0  0  0  0  0  0  0
   58.3307   30.2455   47.7324 H   0  0  0  0  0  0  0  0  0  0  0  0
   56.6760   31.8365   45.3669 H   0  0  0  0  0  0  0  0  0  0  0  0
   56.9381   34.2569   44.9262 H   0  0  0  0  0  0  0  0  0  0  0  0
   61.0897   34.0417   46.0224 H   0  0  0  0  0  0  0  0  0  0  0  0
   59.7593   31.7924   48.8204 H   0  0  0  0  0  0  0  0  0  0  0  0
   60.3504   30.0678   48.5880 H   0  0  0  0  0  0  0  0  0  0  0  0
   61.1963   31.0792   50.6757 H   0  0  0  0  0  0  0  0  0  0  0  0
   62.5001   30.6363   49.5211 H   0  0  0  0  0  0  0  0  0  0  0  0
  1  2  2  0
  2  3  1  0
  3  4  1  0
  4  5  2  0
  5  6  1  0
  6  7  2  0
  7  8  1  0
  8  9  1  0
  8 10  2  0
  2 11  1  0
 11 12  1  0
 12 13  1  0
 13 14  1  0
 14 15  1  0
 15 16  1  0
 16 17  1  0
 17 18  1  0
 18 19  1  0
 19 20  1  0
 20 21  1  0
 21 22  1  0
 22 23  2  0
 23 24  1  0
 24 25  2  0
 25 26  1  0
 26 27  2  0
 21 28  1  0
 28 29  1  0
 17 30  1  0
 30 31  1  0
 31 32  2  0
 32 33  1  0
 33 34  2  0
 34 35  1  0
 34 36  1  0
 36 37  2  0
 14 38  1  0
 38 39  1  0
 10  4  1  0
 39 11  1  0
 37 14  1  0
 29 18  1  0
 37 31  1  0
 27 22  1  0
  3 40  1  0
  3 41  1  0
  5 42  1  0
  6 43  1  0
  7 44  1  0
  9 45  1  0
 10 46  1  0
 12 47  1  0
 12 48  1  0
 13 49  1  0
 13 50  1  0
 15 51  1  0
 15 52  1  0
 16 53  1  0
 16 54  1  0
 17 55  1  1
 19 56  1  0
 19 57  1  0
 20 58  1  0
 20 59  1  0
 23 60  1  0
 24 61  1  0
 25 62  1  0
 26 63  1  0
 27 64  1  0
 28 65  1  0
 28 66  1  0
 29 67  1  0
 29 68  1  0
 30 69  1  0
 30 70  1  0
 32 71  1  0
 33 72  1  0
 36 73  1  0
 38 74  1  0
 38 75  1  0
 39 76  1  0
 39 77  1  0
M  CHG  2   8   1  35  -1
M  END
>  <UniqueID>  (86) 
79

>  <SMILES>  (86) 
O=C(Cc1ccc[n+](O)c1)N1CCC2(CC[C@H](N3CCN(c4ccccc4)CC3)Cc3ccc([O-])cc32)CC1

>  <Energy>  (86) 
133.56534523877963

>  <Genealogy>  (86) 
O=C(Cc1ccc[n+](O)c1)N1CCC2(CCC(N3CCN(c4ccccc4)CC3)Cc3ccc([O-])cc32)CC1 (protonated)
O=C(Cc1ccc[n+](O)c1)N1CCC2(CC[C@H](N3CCN(c4ccccc4)CC3)Cc3ccc([O-])cc32)CC1 (chirality)
O=C(Cc1ccc[n+](O)c1)N1CCC2(CC[C@H](N3CCN(c4ccccc4)CC3)Cc3ccc([O-])cc32)CC1 (3D coordinates assigned)
O=C(Cc1ccc[n+](O)c1)N1CCC2(CC[C@H](N3CCN(c4ccccc4)CC3)Cc3ccc([O-])cc32)CC1 (nonaromatic ring conformer: 133.56534523877963 kcal/mol)

>  <smiles>  (86) 
O=C(Cc1ccc[n+]([O-])c1)N1CCC2(CCC(N3CCN(c4ccccc4)CC3)Cc3ccc(O)cc32)CC1

>  <score_type>  (86) 
oracle

>  <origin>  (86) 
adg

>  <m_score__min__energy>  (86) 
-8.1699999999999999

>  <m_primary>  (86) 
energy

$$$$
86:0
     RDKit          3D

 59 62  0  0  0  0  0  0  0  0999 V2000
   55.4700   25.3230   46.0040 O   0  0  0  0  0  0  0  0  0  0  0  0
   56.5650   24.9590   45.4920 C   0  0  0  0  0  0  0  0  0  0  0  0
   56.6080   23.6960   44.7150 C   0  0  0  0  0  0  0  0  0  0  0  0
   56.9850   22.4840   45.3240 C   0  0  0  0  0  0  0  0  0  0  0  0
   57.0070   21.2980   44.5840 C   0  0  0  0  0  0  0  0  0  0  0  0
   56.6440   21.3050   43.2350 C   0  0  0  0  0  0  0  0  0  0  0  0
   56.2530   22.4990   42.6250 C   0  0  0  0  0  0  0  0  0  0  0  0
   56.2280   23.6890   43.3600 C   0  0  0  0  0  0  0  0  0  0  0  0
   57.7630   25.8100   45.6870 C   0  0  0  0  0  0  0  0  0  0  0  0
   58.9610   25.2400   46.1490 C   0  0  0  0  0  0  0  0  0  0  0  0
   60.0880   26.0370   46.3570 C   0  0  0  0  0  0  0  0  0  0  0  0
   60.0340   27.4100   46.1090 C   0  0  0  0  0  0  0  0  0  0  0  0
   58.8460   27.9980   45.6420 C   0  0  0  0  0  0  0  0  0  0  0  0
   58.7530   29.4150   45.4100 N   0  0  0  0  0  0  0  0  0  0  0  0
   59.5170   30.3970   46.1300 C   0  0  0  0  0  0  0  0  0  0  0  0
   60.4860   30.0440   46.8540 O   0  0  0  0  0  0  0  0  0  0  0  0
   59.2190   31.8670   45.9760 C   0  0  1  0  0  0  0  0  0  0  0  0
   58.1440   32.1120   44.8920 C   0  0  0  0  0  0  0  0  0  0  0  0
   57.3770   33.4320   45.1050 C   0  0  0  0  0  0  0  0  0  0  0  0
   58.2400   34.4580   45.8490 C   0  0  0  0  0  0  0  0  0  0  0  0
   58.6110   33.9720   47.1990 N   0  0  0  0  0  0  0  0  0  0  0  0
   59.6620   34.7850   47.8530 C   0  0  0  0  0  0  0  0  0  0  0  0
   61.0540   34.1950   47.7370 C   0  0  0  0  0  0  0  0  0  0  0  0
   61.6620   34.0400   46.4800 C   0  0  0  0  0  0  0  0  0  0  0  0
   62.9410   33.4930   46.3780 C   0  0  0  0  0  0  0  0  0  0  0  0
   63.6290   33.0910   47.5260 C   0  0  0  0  0  0  0  0  0  0  0  0
   63.0410   33.2380   48.7930 C   0  0  0  0  0  0  0  0  0  0  0  0
   63.7550   32.7510   50.0290 C   0  0  0  0  0  0  0  0  0  0  0  0
   63.2580   31.5120   50.3830 F   0  0  0  0  0  0  0  0  0  0  0  0
   65.1160   32.6410   49.7980 F   0  0  0  0  0  0  0  0  0  0  0  0
   63.5650   33.6310   51.0800 F   0  0  0  0  0  0  0  0  0  0  0  0
   61.7390   33.7610   48.8850 C   0  0  0  0  0  0  0  0  0  0  0  0
   58.8030   32.5050   47.3170 C   0  0  0  0  0  0  0  0  0  0  0  0
   57.7100   27.1960   45.4590 C   0  0  0  0  0  0  0  0  0  0  0  0
   57.2638   22.4700   46.3880 H   0  0  0  0  0  0  0  0  0  0  0  0
   57.3110   20.3568   45.0653 H   0  0  0  0  0  0  0  0  0  0  0  0
   56.6661   20.3713   42.6539 H   0  0  0  0  0  0  0  0  0  0  0  0
   55.9639   22.5037   41.5637 H   0  0  0  0  0  0  0  0  0  0  0  0
   55.9096   24.6242   42.8763 H   0  0  0  0  0  0  0  0  0  0  0  0
   59.0113   24.1593   46.3480 H   0  0  0  0  0  0  0  0  0  0  0  0
   61.0221   25.5817   46.7176 H   0  0  0  0  0  0  0  0  0  0  0  0
   60.9241   28.0334   46.2797 H   0  0  0  0  0  0  0  0  0  0  0  0
   58.1660   29.7370   44.6090 H   0  0  0  0  0  0  0  0  0  0  0  0
   60.1487   32.3550   45.6482 H   0  0  0  0  0  0  0  0  0  0  0  0
   58.6363   32.1454   43.9089 H   0  0  0  0  0  0  0  0  0  0  0  0
   57.4157   31.2900   44.9535 H   0  0  0  0  0  0  0  0  0  0  0  0
   57.0927   33.8444   44.1256 H   0  0  0  0  0  0  0  0  0  0  0  0
   56.4829   33.2227   45.7106 H   0  0  0  0  0  0  0  0  0  0  0  0
   59.1570   34.6420   45.2699 H   0  0  0  0  0  0  0  0  0  0  0  0
   57.6581   35.3847   45.9615 H   0  0  0  0  0  0  0  0  0  0  0  0
   59.6683   35.7821   47.3884 H   0  0  0  0  0  0  0  0  0  0  0  0
   59.4180   34.8211   48.9250 H   0  0  0  0  0  0  0  0  0  0  0  0
   61.1264   34.3518   45.5712 H   0  0  0  0  0  0  0  0  0  0  0  0
   63.4101   33.3776   45.3898 H   0  0  0  0  0  0  0  0  0  0  0  0
   64.6360   32.6573   47.4369 H   0  0  0  0  0  0  0  0  0  0  0  0
   61.2503   33.8314   49.8680 H   0  0  0  0  0  0  0  0  0  0  0  0
   59.5877   32.3084   48.0624 H   0  0  0  0  0  0  0  0  0  0  0  0
   57.8442   32.0603   47.6218 H   0  0  0  0  0  0  0  0  0  0  0  0
   56.7661   27.6573   45.1331 H   0  0  0  0  0  0  0  0  0  0  0  0
  1  2  2  0
  2  3  1  0
  3  4  2  0
  4  5  1  0
  5  6  2  0
  6  7  1  0
  7  8  2  0
  2  9  1  0
  9 10  2  0
 10 11  1  0
 11 12  2  0
 12 13  1  0
 13 14  1  0
 14 15  1  0
 15 16  2  0
 15 17  1  0
 17 18  1  0
 18 19  1  0
 19 20  1  0
 20 21  1  0
 21 22  1  0
 22 23  1  0
 23 24  2  0
 24 25  1  0
 25 26  2  0
 26 27  1  0
 27 28  1  0
 28 29  1  0
 28 30  1  0
 28 31  1  0
 27 32  2  0
 21 33  1  0
 13 34  2  0
  8  3  1  0
 34  9  1  0
 33 17  1  0
 32 23  1  0
  4 35  1  0
  5 36  1  0
  6 37  1  0
  7 38  1  0
  8 39  1  0
 10 40  1  0
 11 41  1  0
 12 42  1  0
 14 43  1  0
 17 44  1  6
 18 45  1  0
 18 46  1  0
 19 47  1  0
 19 48  1  0
 20 49  1  0
 20 50  1  0
 22 51  1  0
 22 52  1  0
 24 53  1  0
 25 54  1  0
 26 55  1  0
 32 56  1  0
 33 57  1  0
 33 58  1  0
 34 59  1  0
M  END
>  <UniqueID>  (87) 
80

>  <SMILES>  (87) 
O=C(c1ccccc1)c1cccc(NC(=O)[C@H]2CCCN(Cc3cccc(C(F)(F)F)c3)C2)c1

>  <Energy>  (87) 
81.74148825156561

>  <Genealogy>  (87) 
O=C(c1ccccc1)c1cccc(NC(=O)[C@H]2CCCN(Cc3cccc(C(F)(F)F)c3)C2)c1 (chirality)
O=C(c1ccccc1)c1cccc(NC(=O)[C@H]2CCCN(Cc3cccc(C(F)(F)F)c3)C2)c1 (3D coordinates assigned)
O=C(c1ccccc1)c1cccc(NC(=O)[C@H]2CCCN(Cc3cccc(C(F)(F)F)c3)C2)c1 (nonaromatic ring conformer: 81.74148825156561 kcal/mol)

>  <smiles>  (87) 
O=C(c1ccccc1)c1cccc(NC(=O)C2CCCN(Cc3cccc(C(F)(F)F)c3)C2)c1

>  <score_type>  (87) 
oracle

>  <origin>  (87) 
adg

>  <m_score__min__energy>  (87) 
-10.09

>  <m_primary>  (87) 
energy

$$$$
87:0
     RDKit          3D

 39 41  0  0  0  0  0  0  0  0999 V2000
   60.4626   33.9698   50.8164 H   0  0  0  0  0  0  0  0  0  0  0  0
   60.5170   33.8990   49.7200 C   0  0  0  0  0  0  0  0  0  0  0  0
   59.3770   33.8400   48.9870 N   0  0  0  0  0  0  0  0  0  0  0  0
   59.4170   33.7630   47.6280 C   0  0  0  0  0  0  0  0  0  0  0  0
   58.3280   33.6910   46.9210 N   0  0  0  0  0  0  0  0  0  0  0  0
   58.1580   33.0290   45.6570 C   0  0  0  0  0  0  0  0  0  0  0  0
   58.5760   33.6860   44.4920 C   0  0  0  0  0  0  0  0  0  0  0  0
   59.0511   34.6755   44.5640 H   0  0  0  0  0  0  0  0  0  0  0  0
   58.3940   33.0940   43.2400 C   0  0  0  0  0  0  0  0  0  0  0  0
   58.7377   33.6118   42.3324 H   0  0  0  0  0  0  0  0  0  0  0  0
   57.7760   31.8450   43.1390 C   0  0  0  0  0  0  0  0  0  0  0  0
   57.6443   31.3761   42.1527 H   0  0  0  0  0  0  0  0  0  0  0  0
   57.3240   31.1890   44.2900 C   0  0  0  0  0  0  0  0  0  0  0  0
   56.5130   29.6340   44.1410 S   0  0  0  0  0  0  0  0  0  0  0  0
   57.1150   28.8150   43.0340 O   0  0  0  0  0  0  0  0  0  0  0  0
   55.0620   29.8720   43.8300 O   0  0  0  0  0  0  0  0  0  0  0  0
   56.6370   28.7590   45.6340 N   0  0  0  0  0  0  0  0  0  0  0  0
   57.0920   27.4050   45.7680 C   0  0  0  0  0  0  0  0  0  0  0  0
   58.4600   27.0700   45.7170 C   0  0  0  0  0  0  0  0  0  0  0  0
   59.2123   27.8588   45.5696 H   0  0  0  0  0  0  0  0  0  0  0  0
   58.8640   25.7390   45.8530 C   0  0  0  0  0  0  0  0  0  0  0  0
   59.9334   25.4840   45.8166 H   0  0  0  0  0  0  0  0  0  0  0  0
   57.9140   24.7320   46.0350 C   0  0  0  0  0  0  0  0  0  0  0  0
   58.2349   23.6855   46.1436 H   0  0  0  0  0  0  0  0  0  0  0  0
   56.5550   25.0550   46.0790 C   0  0  0  0  0  0  0  0  0  0  0  0
   55.8066   24.2610   46.2185 H   0  0  0  0  0  0  0  0  0  0  0  0
   56.1440   26.3860   45.9460 C   0  0  0  0  0  0  0  0  0  0  0  0
   54.7890   26.6930   45.9950 O   0  0  0  0  0  0  0  0  0  0  0  0
   57.5060   31.7850   45.5470 C   0  0  0  0  0  0  0  0  0  0  0  0
   57.1377   31.2784   46.4513 H   0  0  0  0  0  0  0  0  0  0  0  0
   60.6200   33.7210   46.9960 N   0  0  0  0  0  0  0  0  0  0  0  0
   61.7920   33.7740   47.6860 C   0  0  0  0  0  0  0  0  0  0  0  0
   63.0770   33.7350   46.9560 C   0  0  0  0  0  0  0  0  0  0  0  0
   63.3090   34.5690   46.0400 O   0  0  0  0  0  0  0  0  0  0  0  0
   64.0700   32.7570   47.2740 N   0  0  0  0  0  0  0  0  0  0  0  0
   63.9310   32.0730   48.0500 H   0  0  0  0  0  0  0  0  0  0  0  0
   64.9680   32.7300   46.7410 H   0  0  0  0  0  0  0  0  0  0  0  0
   61.7560   33.8700   49.0850 C   0  0  0  0  0  0  0  0  0  0  0  0
   62.6872   33.9213   49.6684 H   0  0  0  0  0  0  0  0  0  0  0  0
  1  2  1  0
  2  3  1  0
  3  4  1  0
  4  5  2  0
  5  6  1  0
  6  7  2  0
  7  8  1  0
  7  9  1  0
  9 10  1  0
  9 11  2  0
 11 12  1  0
 11 13  1  0
 13 14  1  0
 14 15  2  0
 14 16  2  0
 14 17  1  0
 17 18  1  0
 18 19  2  0
 19 20  1  0
 19 21  1  0
 21 22  1  0
 21 23  2  0
 23 24  1  0
 23 25  1  0
 25 26  1  0
 25 27  2  0
 27 28  1  0
 13 29  2  0
 29 30  1  0
  4 31  1  0
 31 32  2  0
 32 33  1  0
 33 34  2  0
 33 35  1  0
 35 36  1  0
 35 37  1  0
 32 38  1  0
 38 39  1  0
 38  2  2  0
 29  6  1  0
 27 18  1  0
M  CHG  3   3  -1  17  -1  28  -1
M  END
>  <UniqueID>  (88) 
81

>  <SMILES>  (88) 
NC(=O)c1cc[n-]/c(=N\c2cccc(S(=O)(=O)[N-]c3ccccc3[O-])c2)n1

>  <Energy>  (88) 
51.45296019806338

>  <Genealogy>  (88) 
NC(=O)c1cc[n-]c(=Nc2cccc(S(=O)(=O)[N-]c3ccccc3[O-])c2)n1 (protonated)
NC(=O)c1cc[n-]/c(=N\c2cccc(S(=O)(=O)[N-]c3ccccc3[O-])c2)n1 (cis-trans isomerization)
NC(=O)c1cc[n-]/c(=N\c2cccc(S(=O)(=O)[N-]c3ccccc3[O-])c2)n1 (3D coordinates assigned)
NC(=O)c1cc[n-]/c(=N\c2cccc(S(=O)(=O)[N-]c3ccccc3[O-])c2)n1 (optimized conformer: 51.45296019806338 kcal/mol)

>  <smiles>  (88) 
NC(=O)c1cc[nH]c(=Nc2cccc(S(=O)(=O)Nc3ccccc3O)c2)n1

>  <score_type>  (88) 
oracle

>  <origin>  (88) 
adg

>  <m_score__min__energy>  (88) 
-15.960000000000001

>  <m_primary>  (88) 
energy

$$$$
88:0
     RDKit          3D

 49 51  0  0  0  0  0  0  0  0999 V2000
   56.6780   26.2890   42.9900 H   0  0  0  0  0  0  0  0  0  0  0  0
   57.5170   25.7780   43.1370 O   0  0  0  0  0  0  0  0  0  0  0  0
   58.1450   26.3190   44.2770 C   0  0  1  0  0  0  0  0  0  0  0  0
   59.2352   26.3015   44.1316 H   0  0  0  0  0  0  0  0  0  0  0  0
   57.7450   27.7770   44.4770 C   0  0  0  0  0  0  0  0  0  0  0  0
   57.3900   28.5850   43.3860 C   0  0  0  0  0  0  0  0  0  0  0  0
   57.3407   28.1450   42.3790 H   0  0  0  0  0  0  0  0  0  0  0  0
   57.0970   29.9460   43.5610 C   0  0  0  0  0  0  0  0  0  0  0  0
   56.7090   30.7840   42.3730 C   0  0  0  0  0  0  0  0  0  0  0  0
   56.2704   31.7312   42.7200 H   0  0  0  0  0  0  0  0  0  0  0  0
   57.6015   30.9941   41.7653 H   0  0  0  0  0  0  0  0  0  0  0  0
   55.9714   30.2393   41.7653 H   0  0  0  0  0  0  0  0  0  0  0  0
   57.2160   30.5320   44.8360 C   0  0  0  0  0  0  0  0  0  0  0  0
   56.9130   31.9310   44.9900 N   0  0  0  0  0  0  0  0  0  0  0  0
   57.7630   32.9140   44.9590 C   0  0  0  0  0  0  0  0  0  0  0  0
   57.8800   33.5041   44.0381 H   0  0  0  0  0  0  0  0  0  0  0  0
   58.5510   33.2370   46.1160 N   0  0  0  0  0  0  0  0  0  0  0  0
   58.4640   32.4330   47.3430 C   0  0  0  0  0  0  0  0  0  0  0  0
   57.5867   32.7526   47.9246 H   0  0  0  0  0  0  0  0  0  0  0  0
   58.3689   31.3719   47.0690 H   0  0  0  0  0  0  0  0  0  0  0  0
   59.7280   32.6170   48.1920 C   0  0  0  0  0  0  0  0  0  0  0  0
   59.6081   32.0580   49.1317 H   0  0  0  0  0  0  0  0  0  0  0  0
   60.5832   32.2428   47.6101 H   0  0  0  0  0  0  0  0  0  0  0  0
   59.9840   34.0410   48.5130 N   0  0  0  0  0  0  0  0  0  0  0  0
   61.3780   34.2150   48.9540 C   0  0  0  0  0  0  0  0  0  0  0  0
   61.4169   34.2199   50.0533 H   0  0  0  0  0  0  0  0  0  0  0  0
   61.9905   33.3863   48.5691 H   0  0  0  0  0  0  0  0  0  0  0  0
   61.7680   35.1688   48.5691 H   0  0  0  0  0  0  0  0  0  0  0  0
   59.6410   34.9980   47.4270 C   0  0  0  0  0  0  0  0  0  0  0  0
   58.6801   35.4740   47.6723 H   0  0  0  0  0  0  0  0  0  0  0  0
   60.4623   35.7272   47.3652 H   0  0  0  0  0  0  0  0  0  0  0  0
   59.5180   34.3360   46.0480 C   0  0  0  0  0  0  0  0  0  0  0  0
   59.1758   35.0801   45.3137 H   0  0  0  0  0  0  0  0  0  0  0  0
   60.4986   33.9420   45.7426 H   0  0  0  0  0  0  0  0  0  0  0  0
   57.5830   29.7270   45.9300 C   0  0  0  0  0  0  0  0  0  0  0  0
   57.6567   30.1729   46.9329 H   0  0  0  0  0  0  0  0  0  0  0  0
   57.8560   28.3620   45.7560 C   0  0  0  0  0  0  0  0  0  0  0  0
   58.2500   27.5160   46.8990 C   0  0  0  0  0  0  0  0  0  0  0  0
   58.5390   28.0230   48.0160 O   0  0  0  0  0  0  0  0  0  0  0  0
   58.3270   26.1000   46.7280 N   0  0  0  0  0  0  0  0  0  0  0  0
   57.8050   25.4500   45.5260 C   0  0  0  0  0  0  0  0  0  0  0  0
   58.4680   24.0680   45.4010 C   0  0  0  0  0  0  0  0  0  0  0  0
   58.6625   23.6625   46.4049 H   0  0  0  0  0  0  0  0  0  0  0  0
   57.7981   23.3880   44.8544 H   0  0  0  0  0  0  0  0  0  0  0  0
   59.4176   24.1650   44.8544 H   0  0  0  0  0  0  0  0  0  0  0  0
   56.2800   25.2690   45.6840 C   0  0  0  0  0  0  0  0  0  0  0  0
   56.0232   25.2385   46.7532 H   0  0  0  0  0  0  0  0  0  0  0  0
   55.7592   26.1116   45.2057 H   0  0  0  0  0  0  0  0  0  0  0  0
   55.9710   24.3279   45.2057 H   0  0  0  0  0  0  0  0  0  0  0  0
  1  2  1  0
  2  3  1  0
  3  4  1  6
  3  5  1  0
  5  6  2  0
  6  7  1  0
  6  8  1  0
  8  9  1  0
  9 10  1  0
  9 11  1  0
  9 12  1  0
  8 13  2  0
 13 14  1  0
 14 15  2  0
 15 16  1  0
 15 17  1  0
 17 18  1  0
 18 19  1  0
 18 20  1  0
 18 21  1  0
 21 22  1  0
 21 23  1  0
 21 24  1  0
 24 25  1  0
 25 26  1  0
 25 27  1  0
 25 28  1  0
 24 29  1  0
 29 30  1  0
 29 31  1  0
 29 32  1  0
 32 33  1  0
 32 34  1  0
 13 35  1  0
 35 36  1  0
 35 37  2  0
 37 38  1  0
 38 39  2  0
 38 40  1  0
 40 41  1  0
 41 42  1  0
 42 43  1  0
 42 44  1  0
 42 45  1  0
 41 46  1  0
 46 47  1  0
 46 48  1  0
 46 49  1  0
 41  3  1  0
 37  5  1  0
 32 17  1  0
M  CHG  1  40  -1
M  END
>  <UniqueID>  (89) 
82

>  <SMILES>  (89) 
Cc1cc2c(cc1/N=C/N1CCN(C)CC1)C(=O)[N-]C(C)(C)[C@H]2O

>  <Energy>  (89) 
58.75844494755693

>  <Genealogy>  (89) 
Cc1cc2c(cc1N=CN1CCN(C)CC1)C(=O)[N-]C(C)(C)C2O (protonated)
Cc1cc2c(cc1N=CN1CCN(C)CC1)C(=O)[N-]C(C)(C)[C@H]2O (chirality)
Cc1cc2c(cc1/N=C/N1CCN(C)CC1)C(=O)[N-]C(C)(C)[C@H]2O (cis-trans isomerization)
Cc1cc2c(cc1/N=C/N1CCN(C)CC1)C(=O)[N-]C(C)(C)[C@H]2O (3D coordinates assigned)
Cc1cc2c(cc1/N=C/N1CCN(C)CC1)C(=O)[N-]C(C)(C)[C@H]2O (nonaromatic ring conformer: 58.75844494755693 kcal/mol)

>  <smiles>  (89) 
Cc1cc2c(cc1N=CN1CCN(C)CC1)C(=O)NC(C)(C)C2O

>  <score_type>  (89) 
oracle

>  <origin>  (89) 
adg

>  <m_score__min__energy>  (89) 
-9.2899999999999991

>  <m_primary>  (89) 
energy

$$$$
89:0
     RDKit          3D

 51 54  0  0  0  0  0  0  0  0999 V2000
   57.7690   27.8260   43.4490 C   0  0  0  0  0  0  0  0  0  0  0  0
   57.7880   29.1410   44.1530 C   0  0  0  0  0  0  0  0  0  0  0  0
   56.7110   29.9710   44.4000 C   0  0  0  0  0  0  0  0  0  0  0  0
   57.1520   31.1040   44.9820 N   0  0  0  0  0  0  0  0  0  0  0  0
   58.4690   31.0100   45.0920 N   0  0  0  0  0  0  0  0  0  0  0  0
   59.3140   32.0490   45.6770 C   0  0  0  0  0  0  0  0  0  0  0  0
   58.4610   33.1090   46.4030 C   0  0  2  0  0  0  0  0  0  0  0  0
   58.3770   34.4190   45.6150 C   0  0  0  0  0  0  0  0  0  0  0  0
   59.4300   35.3290   46.2300 C   0  0  0  0  0  0  0  0  0  0  0  0
   59.6310   34.8170   47.6500 C   0  0  0  0  0  0  0  0  0  0  0  0
   59.0850   33.4690   47.6750 N   0  0  0  0  0  0  0  0  0  0  0  0
   59.0300   32.6000   48.8310 C   0  0  0  0  0  0  0  0  0  0  0  0
   58.7730   33.1070   49.9560 O   0  0  0  0  0  0  0  0  0  0  0  0
   59.2430   31.1300   48.7740 C   0  0  0  0  0  0  0  0  0  0  0  0
   60.1380   30.4350   49.5870 C   0  0  0  0  0  0  0  0  0  0  0  0
   60.2000   29.0560   49.3300 C   0  0  0  0  0  0  0  0  0  0  0  0
   61.1390   28.1520   50.0740 C   0  0  0  0  0  0  0  0  0  0  0  0
   59.3200   28.6440   48.3220 C   0  0  0  0  0  0  0  0  0  0  0  0
   59.1130   27.2860   47.7910 C   0  0  0  0  0  0  0  0  0  0  0  0
   60.1070   26.5210   47.6640 O   0  0  0  0  0  0  0  0  0  0  0  0
   57.8140   26.8410   47.3790 N   0  0  0  0  0  0  0  0  0  0  0  0
   57.5170   25.4350   47.1180 C   0  0  0  0  0  0  0  0  0  0  0  0
   56.1780   25.3080   46.4660 C   0  0  0  0  0  0  0  0  0  0  0  0
   55.5770   24.1300   46.2180 N   0  0  0  0  0  0  0  0  0  0  0  0
   54.4030   24.5240   45.6920 C   0  0  0  0  0  0  0  0  0  0  0  0
   54.2920   25.8630   45.6360 N   0  0  0  0  0  0  0  0  0  0  0  0
   55.4120   26.3600   46.1280 N   0  0  0  0  0  0  0  0  0  0  0  0
   58.5310   30.0080   47.7390 S   0  0  0  0  0  0  0  0  0  0  0  0
   58.8940   29.8350   44.5900 C   0  0  0  0  0  0  0  0  0  0  0  0
   57.7573   27.0134   44.1903 H   0  0  0  0  0  0  0  0  0  0  0  0
   56.8698   27.7604   42.8188 H   0  0  0  0  0  0  0  0  0  0  0  0
   58.6659   27.7345   42.8188 H   0  0  0  0  0  0  0  0  0  0  0  0
   55.6619   29.7435   44.1601 H   0  0  0  0  0  0  0  0  0  0  0  0
   60.0050   31.5876   46.3978 H   0  0  0  0  0  0  0  0  0  0  0  0
   59.8742   32.5423   44.8690 H   0  0  0  0  0  0  0  0  0  0  0  0
   57.4636   32.6621   46.5273 H   0  0  0  0  0  0  0  0  0  0  0  0
   58.5945   34.2428   44.5512 H   0  0  0  0  0  0  0  0  0  0  0  0
   57.3721   34.8634   45.6663 H   0  0  0  0  0  0  0  0  0  0  0  0
   60.3702   35.2674   45.6624 H   0  0  0  0  0  0  0  0  0  0  0  0
   59.1163   36.3832   46.2169 H   0  0  0  0  0  0  0  0  0  0  0  0
   60.7018   34.7997   47.9014 H   0  0  0  0  0  0  0  0  0  0  0  0
   59.1322   35.4658   48.3850 H   0  0  0  0  0  0  0  0  0  0  0  0
   60.7437   30.9253   50.3634 H   0  0  0  0  0  0  0  0  0  0  0  0
   60.9980   28.2877   51.1565 H   0  0  0  0  0  0  0  0  0  0  0  0
   60.9307   27.1058   49.8054 H   0  0  0  0  0  0  0  0  0  0  0  0
   62.1765   28.3999   49.8054 H   0  0  0  0  0  0  0  0  0  0  0  0
   57.0620   27.5450   47.2010 H   0  0  0  0  0  0  0  0  0  0  0  0
   58.2872   25.0174   46.4528 H   0  0  0  0  0  0  0  0  0  0  0  0
   57.5085   24.8848   48.0705 H   0  0  0  0  0  0  0  0  0  0  0  0
   53.6226   23.8297   45.3470 H   0  0  0  0  0  0  0  0  0  0  0  0
   59.9376   29.4912   44.5383 H   0  0  0  0  0  0  0  0  0  0  0  0
  1  2  1  0
  2  3  1  0
  3  4  2  0
  4  5  1  0
  5  6  1  0
  6  7  1  0
  7  8  1  0
  8  9  1  0
  9 10  1  0
 10 11  1  0
 11 12  1  0
 12 13  2  0
 12 14  1  0
 14 15  2  0
 15 16  1  0
 16 17  1  0
 16 18  2  0
 18 19  1  0
 19 20  2  0
 19 21  1  0
 21 22  1  0
 22 23  1  0
 23 24  1  0
 24 25  2  0
 25 26  1  0
 26 27  1  0
 18 28  1  0
  5 29  1  0
 29  2  2  0
 11  7  1  0
 28 14  1  0
 27 23  2  0
  1 30  1  0
  1 31  1  0
  1 32  1  0
  3 33  1  0
  6 34  1  0
  6 35  1  0
  7 36  1  1
  8 37  1  0
  8 38  1  0
  9 39  1  0
  9 40  1  0
 10 41  1  0
 10 42  1  0
 15 43  1  0
 17 44  1  0
 17 45  1  0
 17 46  1  0
 21 47  1  0
 22 48  1  0
 22 49  1  0
 25 50  1  0
 29 51  1  0
M  CHG  1  26  -1
M  END
>  <UniqueID>  (90) 
83

>  <SMILES>  (90) 
Cc1cnn(C[C@@H]2CCCN2C(=O)c2cc(C)c(C(=O)NCc3nc[n-]n3)s2)c1

>  <Energy>  (90) 
139.5689867243701

>  <Genealogy>  (90) 
Cc1cnn(CC2CCCN2C(=O)c2cc(C)c(C(=O)NCc3nc[n-]n3)s2)c1 (protonated)
Cc1cnn(C[C@@H]2CCCN2C(=O)c2cc(C)c(C(=O)NCc3nc[n-]n3)s2)c1 (chirality)
Cc1cnn(C[C@@H]2CCCN2C(=O)c2cc(C)c(C(=O)NCc3nc[n-]n3)s2)c1 (3D coordinates assigned)
Cc1cnn(C[C@@H]2CCCN2C(=O)c2cc(C)c(C(=O)NCc3nc[n-]n3)s2)c1 (nonaromatic ring conformer: 139.5689867243701 kcal/mol)

>  <smiles>  (90) 
Cc1cnn(CC2CCCN2C(=O)c2cc(C)c(C(=O)NCc3nc[nH]n3)s2)c1

>  <score_type>  (90) 
oracle

>  <origin>  (90) 
adg

>  <m_score__min__energy>  (90) 
-10.92

>  <m_primary>  (90) 
energy

$$$$
