0:0
     RDKit          3D

 49 51  0  0  0  0  0  0  0  0999 V2000
   58.6140   30.8640   53.7870 O   0  0  0  0  0  0  0  0  0  0  0  0
   58.5400   31.7690   52.9140 C   0  0  0  0  0  0  0  0  0  0  0  0
   57.1990   32.2080   52.4150 C   0  0  0  0  0  0  0  0  0  0  0  0
   56.3620   31.0190   52.0310 C   0  0  0  0  0  0  0  0  0  0  0  0
   56.8480   30.1420   51.2670 O   0  0  0  0  0  0  0  0  0  0  0  0
   55.0340   30.8330   52.5370 N   0  0  0  0  0  0  0  0  0  0  0  0
   53.8220   30.8250   51.7710 C   0  0  0  0  0  0  0  0  0  0  0  0
   53.5710   29.8420   50.7970 C   0  0  0  0  0  0  0  0  0  0  0  0
   52.3640   29.8440   50.0900 C   0  0  0  0  0  0  0  0  0  0  0  0
   51.3950   30.8140   50.3610 C   0  0  0  0  0  0  0  0  0  0  0  0
   51.6260   31.7770   51.3480 C   0  0  0  0  0  0  0  0  0  0  0  0
   50.6580   32.7330   51.6270 O   0  0  0  0  0  0  0  0  0  0  0  0
   52.8330   31.7770   52.0570 C   0  0  0  0  0  0  0  0  0  0  0  0
   59.7230   32.3930   52.4000 N   0  0  0  0  0  0  0  0  0  0  0  0
   59.9520   32.8010   51.0420 C   0  0  0  0  0  0  0  0  0  0  0  0
   59.4010   33.9820   50.5160 C   0  0  0  0  0  0  0  0  0  0  0  0
   59.6680   34.3550   49.1950 C   0  0  0  0  0  0  0  0  0  0  0  0
   60.4990   33.5640   48.3820 C   0  0  0  0  0  0  0  0  0  0  0  0
   60.7810   33.9540   46.9830 C   0  0  0  0  0  0  0  0  0  0  0  0
   61.8250   33.5400   46.4090 O   0  0  0  0  0  0  0  0  0  0  0  0
   59.8850   34.7850   46.2970 O   0  0  0  0  0  0  0  0  0  0  0  0
   59.3710   34.4800   45.0010 C   0  0  0  0  0  0  0  0  0  0  0  0
   58.0340   33.7930   45.0910 C   0  0  0  0  0  0  0  0  0  0  0  0
   56.9920   34.4980   45.1980 O   0  0  0  0  0  0  0  0  0  0  0  0
   57.9150   32.3110   45.1000 C   0  0  0  0  0  0  0  0  0  0  0  0
   57.3230   31.6160   44.0260 C   0  0  0  0  0  0  0  0  0  0  0  0
   57.2220   30.2210   44.0520 C   0  0  0  0  0  0  0  0  0  0  0  0
   57.7110   29.5030   45.1460 C   0  0  0  0  0  0  0  0  0  0  0  0
   58.3040   30.1780   46.2150 C   0  0  0  0  0  0  0  0  0  0  0  0
   58.4070   31.5720   46.1930 C   0  0  0  0  0  0  0  0  0  0  0  0
   61.0670   32.3970   48.9230 C   0  0  0  0  0  0  0  0  0  0  0  0
   60.8000   32.0260   50.2430 C   0  0  0  0  0  0  0  0  0  0  0  0
   56.6849   32.7712   53.2078 H   0  0  0  0  0  0  0  0  0  0  0  0
   57.3411   32.8430   51.5281 H   0  0  0  0  0  0  0  0  0  0  0  0
   54.3261   29.0692   50.5905 H   0  0  0  0  0  0  0  0  0  0  0  0
   52.1773   29.0812   49.3198 H   0  0  0  0  0  0  0  0  0  0  0  0
   50.4503   30.8198   49.7976 H   0  0  0  0  0  0  0  0  0  0  0  0
   53.0065   32.5275   52.8423 H   0  0  0  0  0  0  0  0  0  0  0  0
   58.7579   34.6148   51.1452 H   0  0  0  0  0  0  0  0  0  0  0  0
   59.2239   35.2755   48.7882 H   0  0  0  0  0  0  0  0  0  0  0  0
   59.2563   35.4143   44.4319 H   0  0  0  0  0  0  0  0  0  0  0  0
   60.0766   33.8024   44.4980 H   0  0  0  0  0  0  0  0  0  0  0  0
   56.9374   32.1750   43.1606 H   0  0  0  0  0  0  0  0  0  0  0  0
   56.7567   29.6885   43.2095 H   0  0  0  0  0  0  0  0  0  0  0  0
   57.6290   28.4062   45.1654 H   0  0  0  0  0  0  0  0  0  0  0  0
   58.6906   29.6121   47.0754 H   0  0  0  0  0  0  0  0  0  0  0  0
   58.8770   32.0967   47.0378 H   0  0  0  0  0  0  0  0  0  0  0  0
   61.7261   31.7720   48.3026 H   0  0  0  0  0  0  0  0  0  0  0  0
   61.2602   31.1171   50.6578 H   0  0  0  0  0  0  0  0  0  0  0  0
  1  2  2  0
  2  3  1  0
  3  4  1  0
  4  5  2  0
  4  6  1  0
  6  7  1  0
  7  8  2  0
  8  9  1  0
  9 10  2  0
 10 11  1  0
 11 12  1  0
 11 13  2  0
  2 14  1  0
 14 15  1  0
 15 16  2  0
 16 17  1  0
 17 18  2  0
 18 19  1  0
 19 20  2  0
 19 21  1  0
 21 22  1  0
 22 23  1  0
 23 24  2  0
 23 25  1  0
 25 26  2  0
 26 27  1  0
 27 28  2  0
 28 29  1  0
 29 30  2  0
 18 31  1  0
 31 32  2  0
 13  7  1  0
 32 15  1  0
 30 25  1  0
  3 33  1  0
  3 34  1  0
  8 35  1  0
  9 36  1  0
 10 37  1  0
 13 38  1  0
 16 39  1  0
 17 40  1  0
 22 41  1  0
 22 42  1  0
 26 43  1  0
 27 44  1  0
 28 45  1  0
 29 46  1  0
 30 47  1  0
 31 48  1  0
 32 49  1  0
M  CHG  3   6  -1  12  -1  14  -1
M  END
>  <UniqueID>  (1) 
1

>  <SMILES>  (1) 
O=C(CC(=O)[N-]c1cccc([O-])c1)[N-]c1ccc(C(=O)OCC(=O)c2ccccc2)cc1

>  <Energy>  (1) 
59.490550568109924

>  <Genealogy>  (1) 
O=C(CC(=O)[N-]c1cccc([O-])c1)[N-]c1ccc(C(=O)OCC(=O)c2ccccc2)cc1 (protonated)
O=C(CC(=O)[N-]c1cccc([O-])c1)[N-]c1ccc(C(=O)OCC(=O)c2ccccc2)cc1 (3D coordinates assigned)
O=C(CC(=O)[N-]c1cccc([O-])c1)[N-]c1ccc(C(=O)OCC(=O)c2ccccc2)cc1 (optimized conformer: 59.490550568109924 kcal/mol)

>  <smiles>  (1) 
O=C(CC(=O)Nc1cccc(O)c1)Nc1ccc(C(=O)OCC(=O)c2ccccc2)cc1

>  <score_type>  (1) 
oracle

>  <origin>  (1) 
adg

>  <m_score__min__energy>  (1) 
-14.380000000000001

>  <m_primary>  (1) 
energy

$$$$
1:0
     RDKit          3D

 47 50  0  0  0  0  0  0  0  0999 V2000
   61.5220   30.1490   48.6210 C   0  0  0  0  0  0  0  0  0  0  0  0
   60.4770   30.1520   49.7000 C   0  0  0  0  0  0  0  0  0  0  0  0
   60.8100   29.6490   50.9690 C   0  0  0  0  0  0  0  0  0  0  0  0
   59.8550   29.6050   51.9870 C   0  0  0  0  0  0  0  0  0  0  0  0
   58.5550   30.0520   51.7480 C   0  0  0  0  0  0  0  0  0  0  0  0
   58.2050   30.5400   50.4880 C   0  0  0  0  0  0  0  0  0  0  0  0
   59.1540   30.5850   49.4540 C   0  0  0  0  0  0  0  0  0  0  0  0
   58.7550   31.0860   48.1620 N   0  0  0  0  0  0  0  0  0  0  0  0
   58.6780   32.4400   47.9270 C   0  0  0  0  0  0  0  0  0  0  0  0
   58.9590   33.4170   49.0150 C   0  0  0  0  0  0  0  0  0  0  0  0
   60.1210   34.0670   49.1860 C   0  0  0  0  0  0  0  0  0  0  0  0
   61.3580   33.8030   48.4140 C   0  0  0  0  0  0  0  0  0  0  0  0
   62.4610   33.2410   49.0810 C   0  0  0  0  0  0  0  0  0  0  0  0
   63.6580   33.0060   48.4070 C   0  0  0  0  0  0  0  0  0  0  0  0
   63.7720   33.3250   47.0570 C   0  0  0  0  0  0  0  0  0  0  0  0
   62.6880   33.8760   46.3740 C   0  0  0  0  0  0  0  0  0  0  0  0
   61.4660   34.1170   47.0310 C   0  0  0  0  0  0  0  0  0  0  0  0
   60.3900   34.7280   46.2860 N   0  0  0  0  0  0  0  0  0  0  0  0
   59.6930   35.6370   46.7810 O   0  0  0  0  0  0  0  0  0  0  0  0
   60.0420   34.2360   45.0500 O   0  0  0  0  0  0  0  0  0  0  0  0
   58.3880   32.8930   46.6710 N   0  0  0  0  0  0  0  0  0  0  0  0
   58.0900   32.0370   45.6580 C   0  0  0  0  0  0  0  0  0  0  0  0
   57.7580   32.5290   44.3860 C   0  0  0  0  0  0  0  0  0  0  0  0
   57.4500   31.6450   43.3480 C   0  0  0  0  0  0  0  0  0  0  0  0
   57.4750   30.2660   43.5710 C   0  0  0  0  0  0  0  0  0  0  0  0
   57.8090   29.7650   44.8320 C   0  0  0  0  0  0  0  0  0  0  0  0
   58.1190   30.6480   45.8850 C   0  0  0  0  0  0  0  0  0  0  0  0
   58.4730   30.1900   47.1630 C   0  0  0  0  0  0  0  0  0  0  0  0
   58.5320   28.9490   47.3920 O   0  0  0  0  0  0  0  0  0  0  0  0
   62.5221   30.1461   49.0791 H   0  0  0  0  0  0  0  0  0  0  0  0
   61.4020   29.2512   47.9969 H   0  0  0  0  0  0  0  0  0  0  0  0
   61.4072   31.0475   47.9969 H   0  0  0  0  0  0  0  0  0  0  0  0
   61.8307   29.2871   51.1621 H   0  0  0  0  0  0  0  0  0  0  0  0
   60.1282   29.2171   52.9794 H   0  0  0  0  0  0  0  0  0  0  0  0
   57.8058   30.0198   52.5528 H   0  0  0  0  0  0  0  0  0  0  0  0
   57.1791   30.8916   50.3038 H   0  0  0  0  0  0  0  0  0  0  0  0
   58.1522   33.6219   49.7341 H   0  0  0  0  0  0  0  0  0  0  0  0
   60.1576   34.8527   49.9550 H   0  0  0  0  0  0  0  0  0  0  0  0
   62.3781   32.9838   50.1473 H   0  0  0  0  0  0  0  0  0  0  0  0
   64.5133   32.5681   48.9424 H   0  0  0  0  0  0  0  0  0  0  0  0
   64.7188   33.1422   46.5278 H   0  0  0  0  0  0  0  0  0  0  0  0
   62.7890   34.1257   45.3075 H   0  0  0  0  0  0  0  0  0  0  0  0
   58.4160   33.9180   46.4710 H   0  0  0  0  0  0  0  0  0  0  0  0
   57.7401   33.6139   44.2054 H   0  0  0  0  0  0  0  0  0  0  0  0
   57.1875   32.0357   42.3538 H   0  0  0  0  0  0  0  0  0  0  0  0
   57.2312   29.5731   42.7521 H   0  0  0  0  0  0  0  0  0  0  0  0
   57.8299   28.6785   45.0028 H   0  0  0  0  0  0  0  0  0  0  0  0
  1  2  1  0
  2  3  2  0
  3  4  1  0
  4  5  2  0
  5  6  1  0
  6  7  2  0
  7  8  1  0
  8  9  1  0
  9 10  1  0
 10 11  2  3
 11 12  1  0
 12 13  2  0
 13 14  1  0
 14 15  2  0
 15 16  1  0
 16 17  2  0
 17 18  1  0
 18 19  2  0
 18 20  1  0
  9 21  2  0
 21 22  1  0
 22 23  2  0
 23 24  1  0
 24 25  2  0
 25 26  1  0
 26 27  2  0
 27 28  1  0
 28 29  2  0
  7  2  1  0
 28  8  1  0
 17 12  1  0
 27 22  1  0
  1 30  1  0
  1 31  1  0
  1 32  1  0
  3 33  1  0
  4 34  1  0
  5 35  1  0
  6 36  1  0
 10 37  1  0
 11 38  1  0
 13 39  1  0
 14 40  1  0
 15 41  1  0
 16 42  1  0
 21 43  1  0
 23 44  1  0
 24 45  1  0
 25 46  1  0
 26 47  1  0
M  CHG  3  18   1  20  -1  21   1
M  END
>  <UniqueID>  (2) 
2

>  <SMILES>  (2) 
Cc1ccccc1-n1c(C=Cc2ccccc2[N+](=O)[O-])[nH+]c2ccccc2c1=O

>  <Energy>  (2) 
81.0077171077383

>  <Genealogy>  (2) 
Cc1ccccc1-n1c(C=Cc2ccccc2[N+](=O)[O-])[nH+]c2ccccc2c1=O (protonated)
Cc1ccccc1-n1c(C=Cc2ccccc2[N+](=O)[O-])[nH+]c2ccccc2c1=O (3D coordinates assigned)
Cc1ccccc1-n1c(C=Cc2ccccc2[N+](=O)[O-])[nH+]c2ccccc2c1=O (optimized conformer: 81.0077171077383 kcal/mol)

>  <smiles>  (2) 
Cc1ccccc1-n1c(C=Cc2ccccc2[N+](=O)[O-])nc2ccccc2c1=O

>  <score_type>  (2) 
oracle

>  <origin>  (2) 
adg

>  <m_score__min__energy>  (2) 
-7.5499999999999998

>  <m_primary>  (2) 
energy

$$$$
2:0
     RDKit          3D

 44 46  0  0  0  0  0  0  0  0999 V2000
   61.1780   28.2490   44.8300 C   0  0  0  0  0  0  0  0  0  0  0  0
   59.7100   28.3860   45.0940 C   0  0  0  0  0  0  0  0  0  0  0  0
   58.8570   29.2640   44.4550 C   0  0  0  0  0  0  0  0  0  0  0  0
   57.6390   29.0680   45.0830 C   0  0  0  0  0  0  0  0  0  0  0  0
   56.3870   29.7720   44.7820 C   0  0  0  0  0  0  0  0  0  0  0  0
   55.1480   29.0680   44.8200 N   0  0  0  0  0  0  0  0  0  0  0  0
   56.4010   30.9970   44.4880 O   0  0  0  0  0  0  0  0  0  0  0  0
   57.7600   28.1350   46.0480 N   0  0  0  0  0  0  0  0  0  0  0  0
   59.0180   27.7200   46.0450 N   0  0  0  0  0  0  0  0  0  0  0  0
   59.5450   26.7510   47.0030 C   0  0  0  0  0  0  0  0  0  0  0  0
   59.7580   27.4050   48.3340 C   0  0  0  0  0  0  0  0  0  0  0  0
   60.1030   26.6960   49.3180 O   0  0  0  0  0  0  0  0  0  0  0  0
   59.5620   28.8190   48.4830 N   0  0  0  0  0  0  0  0  0  0  0  0
   59.5640   29.4990   49.7520 C   0  0  0  0  0  0  0  0  0  0  0  0
   59.6080   28.8360   50.8240 O   0  0  0  0  0  0  0  0  0  0  0  0
   59.5050   30.9770   49.8060 C   0  0  0  0  0  0  0  0  0  0  0  0
   59.6140   31.6640   51.0270 C   0  0  0  0  0  0  0  0  0  0  0  0
   59.5660   33.0570   51.0340 C   0  0  0  0  0  0  0  0  0  0  0  0
   59.4160   33.7590   49.8380 C   0  0  0  0  0  0  0  0  0  0  0  0
   59.3090   33.0500   48.6290 C   0  0  0  0  0  0  0  0  0  0  0  0
   59.1530   33.7550   47.3280 C   0  0  0  0  0  0  0  0  0  0  0  0
   59.9040   34.9180   47.0530 C   0  0  0  0  0  0  0  0  0  0  0  0
   59.7550   35.5900   45.8380 C   0  0  0  0  0  0  0  0  0  0  0  0
   58.8550   35.1170   44.8810 C   0  0  0  0  0  0  0  0  0  0  0  0
   58.0930   33.9800   45.1420 C   0  0  0  0  0  0  0  0  0  0  0  0
   58.2320   33.2940   46.3590 C   0  0  0  0  0  0  0  0  0  0  0  0
   57.4630   32.1520   46.5970 O   0  0  0  0  0  0  0  0  0  0  0  0
   59.3570   31.6900   48.6560 N   0  0  0  0  0  0  0  0  0  0  0  0
   61.7194   28.1985   45.7862 H   0  0  0  0  0  0  0  0  0  0  0  0
   61.3629   27.3297   44.2549 H   0  0  0  0  0  0  0  0  0  0  0  0
   61.5298   29.1182   44.2549 H   0  0  0  0  0  0  0  0  0  0  0  0
   59.0914   29.9593   43.6354 H   0  0  0  0  0  0  0  0  0  0  0  0
   54.3940   29.3430   45.4890 H   0  0  0  0  0  0  0  0  0  0  0  0
   58.8287   25.9237   47.1148 H   0  0  0  0  0  0  0  0  0  0  0  0
   60.5070   26.3664   46.6332 H   0  0  0  0  0  0  0  0  0  0  0  0
   59.3920   29.3780   47.6160 H   0  0  0  0  0  0  0  0  0  0  0  0
   59.7360   31.1078   51.9682 H   0  0  0  0  0  0  0  0  0  0  0  0
   59.6466   33.6040   51.9849 H   0  0  0  0  0  0  0  0  0  0  0  0
   59.3817   34.8585   49.8409 H   0  0  0  0  0  0  0  0  0  0  0  0
   60.6133   35.2986   47.8028 H   0  0  0  0  0  0  0  0  0  0  0  0
   60.3479   36.4939   45.6344 H   0  0  0  0  0  0  0  0  0  0  0  0
   58.7475   35.6422   43.9205 H   0  0  0  0  0  0  0  0  0  0  0  0
   57.3775   33.6174   44.3893 H   0  0  0  0  0  0  0  0  0  0  0  0
   56.6400   31.9380   46.0440 H   0  0  0  0  0  0  0  0  0  0  0  0
  1  2  1  0
  2  3  2  0
  3  4  1  0
  4  5  1  0
  5  6  1  0
  5  7  2  0
  4  8  2  0
  8  9  1  0
  9 10  1  0
 10 11  1  0
 11 12  2  0
 11 13  1  0
 13 14  1  0
 14 15  2  0
 14 16  1  0
 16 17  2  0
 17 18  1  0
 18 19  2  0
 19 20  1  0
 20 21  1  0
 21 22  2  0
 22 23  1  0
 23 24  2  0
 24 25  1  0
 25 26  2  0
 26 27  1  0
 20 28  2  0
  9  2  1  0
 28 16  1  0
 26 21  1  0
  1 29  1  0
  1 30  1  0
  1 31  1  0
  3 32  1  0
  6 33  1  0
 10 34  1  0
 10 35  1  0
 13 36  1  0
 17 37  1  0
 18 38  1  0
 19 39  1  0
 22 40  1  0
 23 41  1  0
 24 42  1  0
 25 43  1  0
 27 44  1  0
M  CHG  1   6  -1
M  END
>  <UniqueID>  (3) 
3

>  <SMILES>  (3) 
Cc1cc(C([NH-])=O)nn1CC(=O)NC(=O)c1cccc(-c2ccccc2O)n1

>  <Energy>  (3) 
77.11904632389313

>  <Genealogy>  (3) 
Cc1cc(C([NH-])=O)nn1CC(=O)NC(=O)c1cccc(-c2ccccc2O)n1 (protonated)
Cc1cc(C([NH-])=O)nn1CC(=O)NC(=O)c1cccc(-c2ccccc2O)n1 (3D coordinates assigned)
Cc1cc(C([NH-])=O)nn1CC(=O)NC(=O)c1cccc(-c2ccccc2O)n1 (optimized conformer: 77.11904632389313 kcal/mol)

>  <smiles>  (3) 
Cc1cc(C(N)=O)nn1CC(=O)NC(=O)c1cccc(-c2ccccc2O)n1

>  <score_type>  (3) 
oracle

>  <origin>  (3) 
adg

>  <m_score__min__energy>  (3) 
-13.289999999999999

>  <m_primary>  (3) 
energy

$$$$
3:0
     RDKit          3D

 25 26  0  0  0  0  0  0  0  0999 V2000
   55.1540   27.8920   44.8980 H   0  0  0  0  0  0  0  0  0  0  0  0
   55.5870   28.7580   45.1980 O   0  0  0  0  0  0  0  0  0  0  0  0
   56.9730   28.9210   45.2450 C   0  0  0  0  0  0  0  0  0  0  0  0
   57.4990   30.1830   45.5370 C   0  0  0  0  0  0  0  0  0  0  0  0
   56.8222   31.0287   45.7285 H   0  0  0  0  0  0  0  0  0  0  0  0
   58.8800   30.3720   45.5860 C   0  0  0  0  0  0  0  0  0  0  0  0
   59.2980   31.3624   45.8192 H   0  0  0  0  0  0  0  0  0  0  0  0
   59.7250   29.2910   45.3360 C   0  0  0  0  0  0  0  0  0  0  0  0
   60.8160   29.4273   45.3688 H   0  0  0  0  0  0  0  0  0  0  0  0
   59.2020   28.0700   45.0520 N   0  0  0  0  0  0  0  0  0  0  0  0
   57.8560   27.8500   45.0080 C   0  0  0  0  0  0  0  0  0  0  0  0
   57.3830   26.6700   44.7190 N   0  0  0  0  0  0  0  0  0  0  0  0
   56.5240   25.8760   45.5510 C   0  0  0  0  0  0  0  0  0  0  0  0
   55.7390   26.4670   46.3400 O   0  0  0  0  0  0  0  0  0  0  0  0
   56.5770   24.3940   45.5560 C   0  0  0  0  0  0  0  0  0  0  0  0
   56.9370   23.6910   46.7190 C   0  0  0  0  0  0  0  0  0  0  0  0
   57.1926   24.2438   47.6350 H   0  0  0  0  0  0  0  0  0  0  0  0
   56.9720   22.2920   46.7180 C   0  0  0  0  0  0  0  0  0  0  0  0
   57.3370   21.6060   47.8710 O   0  0  0  0  0  0  0  0  0  0  0  0
   56.6400   21.5850   45.5600 C   0  0  0  0  0  0  0  0  0  0  0  0
   56.6748   20.4856   45.5587 H   0  0  0  0  0  0  0  0  0  0  0  0
   56.2640   22.2720   44.4040 C   0  0  0  0  0  0  0  0  0  0  0  0
   55.9270   21.5670   43.2550 O   0  0  0  0  0  0  0  0  0  0  0  0
   56.2270   23.6720   44.4010 C   0  0  0  0  0  0  0  0  0  0  0  0
   55.9227   24.2095   43.4908 H   0  0  0  0  0  0  0  0  0  0  0  0
  1  2  1  0
  2  3  1  0
  3  4  2  0
  4  5  1  0
  4  6  1  0
  6  7  1  0
  6  8  2  0
  8  9  1  0
  8 10  1  0
 10 11  1  0
 11 12  2  0
 12 13  1  0
 13 14  2  0
 13 15  1  0
 15 16  2  0
 16 17  1  0
 16 18  1  0
 18 19  1  0
 18 20  2  0
 20 21  1  0
 20 22  1  0
 22 23  1  0
 22 24  2  0
 24 25  1  0
 11  3  1  0
 24 15  1  0
M  CHG  3  10  -1  19  -1  23  -1
M  END
>  <UniqueID>  (4) 
4

>  <SMILES>  (4) 
O=C(/N=c1\[n-]cccc1O)c1cc([O-])cc([O-])c1

>  <Energy>  (4) 
35.273322714204696

>  <Genealogy>  (4) 
O=C(N=c1[n-]cccc1O)c1cc([O-])cc([O-])c1 (protonated)
O=C(/N=c1\[n-]cccc1O)c1cc([O-])cc([O-])c1 (cis-trans isomerization)
O=C(/N=c1\[n-]cccc1O)c1cc([O-])cc([O-])c1 (3D coordinates assigned)
O=C(/N=c1\[n-]cccc1O)c1cc([O-])cc([O-])c1 (optimized conformer: 35.273322714204696 kcal/mol)

>  <smiles>  (4) 
O=C(N=c1[nH]cccc1O)c1cc(O)cc(O)c1

>  <score_type>  (4) 
oracle

>  <origin>  (4) 
adg

>  <m_score__min__energy>  (4) 
-12.67

>  <m_primary>  (4) 
energy

$$$$
4:0
     RDKit          3D

 35 37  0  0  0  0  0  0  0  0999 V2000
   56.6360   20.2600   44.9980 C   0  0  0  0  0  0  0  0  0  0  0  0
   57.1680   21.1170   46.0030 O   0  0  0  0  0  0  0  0  0  0  0  0
   57.3660   22.4990   45.8510 C   0  0  0  0  0  0  0  0  0  0  0  0
   56.2990   23.4170   45.9120 C   0  0  0  0  0  0  0  0  0  0  0  0
   56.5300   24.7950   45.7570 C   0  0  0  0  0  0  0  0  0  0  0  0
   55.4830   25.7340   45.8060 C   0  0  0  0  0  0  0  0  0  0  0  0
   54.2910   25.3670   45.9910 O   0  0  0  0  0  0  0  0  0  0  0  0
   55.7500   27.0570   45.6520 N   0  0  0  0  0  0  0  0  0  0  0  0
   57.0100   27.5360   45.4530 C   0  0  0  0  0  0  0  0  0  0  0  0
   57.2110   28.9990   45.2910 C   0  0  0  0  0  0  0  0  0  0  0  0
   56.5230   29.6900   44.2800 C   0  0  0  0  0  0  0  0  0  0  0  0
   56.6910   31.0670   44.1200 C   0  0  0  0  0  0  0  0  0  0  0  0
   57.5440   31.7760   44.9690 C   0  0  0  0  0  0  0  0  0  0  0  0
   57.6900   33.1490   44.7970 O   0  0  0  0  0  0  0  0  0  0  0  0
   58.2420   31.1050   45.9860 C   0  0  0  0  0  0  0  0  0  0  0  0
   59.1350   31.8680   46.9250 C   0  0  0  0  0  0  0  0  0  0  0  0
   58.0610   29.7210   46.1520 C   0  0  0  0  0  0  0  0  0  0  0  0
   58.0820   26.6310   45.3850 C   0  0  0  0  0  0  0  0  0  0  0  0
   57.8460   25.2590   45.5410 C   0  0  0  0  0  0  0  0  0  0  0  0
   58.9060   24.3440   45.4790 C   0  0  0  0  0  0  0  0  0  0  0  0
   58.6720   22.9740   45.6330 C   0  0  0  0  0  0  0  0  0  0  0  0
   59.7550   22.0970   45.5670 O   0  0  0  0  0  0  0  0  0  0  0  0
   56.1130   19.4174   45.4739 H   0  0  0  0  0  0  0  0  0  0  0  0
   55.9290   20.8240   44.3719 H   0  0  0  0  0  0  0  0  0  0  0  0
   57.4551   19.8766   44.3719 H   0  0  0  0  0  0  0  0  0  0  0  0
   55.2754   23.0520   46.0825 H   0  0  0  0  0  0  0  0  0  0  0  0
   55.8460   29.1417   43.6085 H   0  0  0  0  0  0  0  0  0  0  0  0
   56.1492   31.5957   43.3219 H   0  0  0  0  0  0  0  0  0  0  0  0
   58.8604   31.6334   47.9640 H   0  0  0  0  0  0  0  0  0  0  0  0
   60.1823   31.5815   46.7489 H   0  0  0  0  0  0  0  0  0  0  0  0
   59.0155   32.9472   46.7489 H   0  0  0  0  0  0  0  0  0  0  0  0
   58.5883   29.1963   46.9623 H   0  0  0  0  0  0  0  0  0  0  0  0
   59.1039   26.9985   45.2098 H   0  0  0  0  0  0  0  0  0  0  0  0
   59.9303   24.7066   45.3078 H   0  0  0  0  0  0  0  0  0  0  0  0
   59.6360   21.1010   45.4340 H   0  0  0  0  0  0  0  0  0  0  0  0
  1  2  1  0
  2  3  1  0
  3  4  2  0
  4  5  1  0
  5  6  1  0
  6  7  2  0
  6  8  1  0
  8  9  1  0
  9 10  1  0
 10 11  2  0
 11 12  1  0
 12 13  2  0
 13 14  1  0
 13 15  1  0
 15 16  1  0
 15 17  2  0
  9 18  2  0
 18 19  1  0
 19 20  1  0
 20 21  2  0
 21 22  1  0
 21  3  1  0
 19  5  2  0
 17 10  1  0
  1 23  1  0
  1 24  1  0
  1 25  1  0
  4 26  1  0
 11 27  1  0
 12 28  1  0
 16 29  1  0
 16 30  1  0
 16 31  1  0
 17 32  1  0
 18 33  1  0
 20 34  1  0
 22 35  1  0
M  CHG  2   8  -1  14  -1
M  END
>  <UniqueID>  (5) 
5

>  <SMILES>  (5) 
COc1cc2c(=O)[n-]c(-c3ccc([O-])c(C)c3)cc2cc1O

>  <Energy>  (5) 
46.34593013364786

>  <Genealogy>  (5) 
COc1cc2c(=O)[n-]c(-c3ccc([O-])c(C)c3)cc2cc1O (protonated)
COc1cc2c(=O)[n-]c(-c3ccc([O-])c(C)c3)cc2cc1O (3D coordinates assigned)
COc1cc2c(=O)[n-]c(-c3ccc([O-])c(C)c3)cc2cc1O (optimized conformer: 46.34593013364786 kcal/mol)

>  <smiles>  (5) 
COc1cc2c(=O)[nH]c(-c3ccc(O)c(C)c3)cc2cc1O

>  <score_type>  (5) 
oracle

>  <origin>  (5) 
adg

>  <m_score__min__energy>  (5) 
-9.9299999999999997

>  <m_primary>  (5) 
energy

$$$$
5:0
     RDKit          3D

 57 60  0  0  0  0  0  0  0  0999 V2000
   56.8260   34.2780   44.9430 C   0  0  0  0  0  0  0  0  0  0  0  0
   58.0410   33.4780   44.7910 N   0  0  0  0  0  0  0  0  0  0  0  0
   58.1710   32.4920   43.7120 C   0  0  0  0  0  0  0  0  0  0  0  0
   57.7870   31.1290   44.2170 C   0  0  0  0  0  0  0  0  0  0  0  0
   58.7700   30.2410   44.6820 C   0  0  0  0  0  0  0  0  0  0  0  0
   58.4170   28.9540   45.0940 C   0  0  0  0  0  0  0  0  0  0  0  0
   57.0860   28.5420   45.0360 C   0  0  0  0  0  0  0  0  0  0  0  0
   56.1030   29.4130   44.5610 C   0  0  0  0  0  0  0  0  0  0  0  0
   54.7820   28.9970   44.4970 O   0  0  0  0  0  0  0  0  0  0  0  0
   56.4520   30.7020   44.1490 C   0  0  0  0  0  0  0  0  0  0  0  0
   59.0800   33.5780   45.7770 C   0  0  0  0  0  0  0  0  0  0  0  0
   59.9650   34.4680   45.6430 O   0  0  0  0  0  0  0  0  0  0  0  0
   59.0950   32.6930   46.9680 C   0  0  0  0  0  0  0  0  0  0  0  0
   58.1260   32.8380   47.9810 C   0  0  0  0  0  0  0  0  0  0  0  0
   58.1570   32.0180   49.1100 C   0  0  0  0  0  0  0  0  0  0  0  0
   59.1610   31.0530   49.2540 C   0  0  0  0  0  0  0  0  0  0  0  0
   59.1660   29.9890   50.6610 S   0  0  0  0  0  0  0  0  0  0  0  0
   59.7990   28.6770   50.2860 O   0  0  0  0  0  0  0  0  0  0  0  0
   57.7570   29.7230   51.1140 O   0  0  0  0  0  0  0  0  0  0  0  0
   60.0760   30.7150   51.9530 N   0  0  0  0  0  0  0  0  0  0  0  0
   59.6980   32.1240   52.0870 C   0  0  0  0  0  0  0  0  0  0  0  0
   60.9420   33.0110   52.0280 C   0  0  0  0  0  0  0  0  0  0  0  0
   61.1670   33.5070   50.6310 C   0  0  0  0  0  0  0  0  0  0  0  0
   60.2600   34.2150   49.8460 C   0  0  0  0  0  0  0  0  0  0  0  0
   60.7690   34.4250   48.6100 N   0  0  0  0  0  0  0  0  0  0  0  0
   61.9860   33.8450   48.6070 C   0  0  0  0  0  0  0  0  0  0  0  0
   62.8820   33.7700   47.5410 C   0  0  0  0  0  0  0  0  0  0  0  0
   64.0880   33.0760   47.7440 C   0  0  0  0  0  0  0  0  0  0  0  0
   64.3720   32.4820   48.9940 C   0  0  0  0  0  0  0  0  0  0  0  0
   63.4500   32.5760   50.0530 C   0  0  0  0  0  0  0  0  0  0  0  0
   62.2620   33.2700   49.8210 C   0  0  0  0  0  0  0  0  0  0  0  0
   60.1290   30.9070   48.2520 C   0  0  0  0  0  0  0  0  0  0  0  0
   60.1010   31.7220   47.1180 C   0  0  0  0  0  0  0  0  0  0  0  0
   56.6114   34.4193   46.0126 H   0  0  0  0  0  0  0  0  0  0  0  0
   56.9703   35.2583   44.4654 H   0  0  0  0  0  0  0  0  0  0  0  0
   55.9825   33.7580   44.4654 H   0  0  0  0  0  0  0  0  0  0  0  0
   57.5090   32.7726   42.8795 H   0  0  0  0  0  0  0  0  0  0  0  0
   59.2146   32.4695   43.3651 H   0  0  0  0  0  0  0  0  0  0  0  0
   59.8220   30.5600   44.7220 H   0  0  0  0  0  0  0  0  0  0  0  0
   59.1898   28.2645   45.4647 H   0  0  0  0  0  0  0  0  0  0  0  0
   56.8099   27.5293   45.3649 H   0  0  0  0  0  0  0  0  0  0  0  0
   55.6772   31.3846   43.7699 H   0  0  0  0  0  0  0  0  0  0  0  0
   57.3407   33.6018   47.8813 H   0  0  0  0  0  0  0  0  0  0  0  0
   57.3894   32.1304   49.8899 H   0  0  0  0  0  0  0  0  0  0  0  0
   61.0840   30.6690   51.6710 H   0  0  0  0  0  0  0  0  0  0  0  0
   59.0173   32.3974   51.2673 H   0  0  0  0  0  0  0  0  0  0  0  0
   59.1971   32.2713   53.0552 H   0  0  0  0  0  0  0  0  0  0  0  0
   60.8056   33.8711   52.7000 H   0  0  0  0  0  0  0  0  0  0  0  0
   61.8155   32.4203   52.3410 H   0  0  0  0  0  0  0  0  0  0  0  0
   59.2698   34.5553   50.1832 H   0  0  0  0  0  0  0  0  0  0  0  0
   60.3030   34.9190   47.8170 H   0  0  0  0  0  0  0  0  0  0  0  0
   62.6527   34.2386   46.5726 H   0  0  0  0  0  0  0  0  0  0  0  0
   64.8159   32.9950   46.9233 H   0  0  0  0  0  0  0  0  0  0  0  0
   65.3195   31.9428   49.1404 H   0  0  0  0  0  0  0  0  0  0  0  0
   63.6589   32.1177   51.0309 H   0  0  0  0  0  0  0  0  0  0  0  0
   60.9160   30.1459   48.3589 H   0  0  0  0  0  0  0  0  0  0  0  0
   60.8689   31.6038   46.3393 H   0  0  0  0  0  0  0  0  0  0  0  0
  1  2  1  0
  2  3  1  0
  3  4  1  0
  4  5  2  0
  5  6  1  0
  6  7  2  0
  7  8  1  0
  8  9  1  0
  8 10  2  0
  2 11  1  0
 11 12  2  0
 11 13  1  0
 13 14  2  0
 14 15  1  0
 15 16  2  0
 16 17  1  0
 17 18  2  0
 17 19  2  0
 17 20  1  0
 20 21  1  0
 21 22  1  0
 22 23  1  0
 23 24  2  0
 24 25  1  0
 25 26  1  0
 26 27  2  0
 27 28  1  0
 28 29  2  0
 29 30  1  0
 30 31  2  0
 16 32  1  0
 32 33  2  0
 10  4  1  0
 33 13  1  0
 31 23  1  0
 31 26  1  0
  1 34  1  0
  1 35  1  0
  1 36  1  0
  3 37  1  0
  3 38  1  0
  5 39  1  0
  6 40  1  0
  7 41  1  0
 10 42  1  0
 14 43  1  0
 15 44  1  0
 20 45  1  0
 21 46  1  0
 21 47  1  0
 22 48  1  0
 22 49  1  0
 24 50  1  0
 25 51  1  0
 27 52  1  0
 28 53  1  0
 29 54  1  0
 30 55  1  0
 32 56  1  0
 33 57  1  0
M  CHG  1   9  -1
M  END
>  <UniqueID>  (6) 
6

>  <SMILES>  (6) 
CN(Cc1cccc([O-])c1)C(=O)c1ccc(S(=O)(=O)NCCc2c[nH]c3ccccc23)cc1

>  <Energy>  (6) 
90.29787512640377

>  <Genealogy>  (6) 
CN(Cc1cccc([O-])c1)C(=O)c1ccc(S(=O)(=O)NCCc2c[nH]c3ccccc23)cc1 (protonated)
CN(Cc1cccc([O-])c1)C(=O)c1ccc(S(=O)(=O)NCCc2c[nH]c3ccccc23)cc1 (3D coordinates assigned)
CN(Cc1cccc([O-])c1)C(=O)c1ccc(S(=O)(=O)NCCc2c[nH]c3ccccc23)cc1 (optimized conformer: 90.29787512640377 kcal/mol)

>  <smiles>  (6) 
CN(Cc1cccc(O)c1)C(=O)c1ccc(S(=O)(=O)NCCc2c[nH]c3ccccc23)cc1

>  <score_type>  (6) 
oracle

>  <origin>  (6) 
adg

>  <m_score__min__energy>  (6) 
-12.98

>  <m_primary>  (6) 
energy

$$$$
6:0
     RDKit          3D

 69 73  0  0  0  0  0  0  0  0999 V2000
   55.7185   24.4984   42.9112 H   0  0  0  0  0  0  0  0  0  0  0  0
   56.4050   23.7370   43.3100 C   0  0  0  0  0  0  0  0  0  0  0  0
   57.2350   24.0450   44.3400 N   0  0  0  0  0  0  0  0  0  0  0  0
   58.1090   23.1440   44.8660 C   0  0  0  0  0  0  0  0  0  0  0  0
   58.8640   23.5220   45.8600 N   0  0  0  0  0  0  0  0  0  0  0  0
   59.0830   24.8580   46.3410 C   0  0  0  0  0  0  0  0  0  0  0  0
   60.2920   25.5310   46.1010 C   0  0  0  0  0  0  0  0  0  0  0  0
   61.1136   25.0125   45.5852 H   0  0  0  0  0  0  0  0  0  0  0  0
   60.4570   26.8560   46.5140 C   0  0  0  0  0  0  0  0  0  0  0  0
   61.4187   27.3644   46.3506 H   0  0  0  0  0  0  0  0  0  0  0  0
   59.4020   27.5410   47.1360 C   0  0  0  0  0  0  0  0  0  0  0  0
   59.5860   28.9470   47.5630 C   0  0  0  0  0  0  0  0  0  0  0  0
   59.1630   29.9240   46.7220 N   0  0  0  0  0  0  0  0  0  0  0  0
   59.3170   31.2440   47.0010 C   0  0  0  0  0  0  0  0  0  0  0  0
   58.8280   32.2350   46.0600 N   0  0  0  0  0  0  0  0  0  0  0  0
   59.1510   33.6610   46.2510 C   0  0  0  0  0  0  0  0  0  0  0  0
   58.8697   33.9496   47.2745 H   0  0  0  0  0  0  0  0  0  0  0  0
   60.2297   33.7798   46.0712 H   0  0  0  0  0  0  0  0  0  0  0  0
   58.4200   34.5800   45.2670 C   0  0  0  0  0  0  0  0  0  0  0  0
   57.3952   34.7502   45.6288 H   0  0  0  0  0  0  0  0  0  0  0  0
   58.9715   35.5296   45.2022 H   0  0  0  0  0  0  0  0  0  0  0  0
   58.3640   34.0080   43.9800 O   0  0  0  0  0  0  0  0  0  0  0  0
   57.5200   32.8810   44.0260 C   0  0  0  0  0  0  0  0  0  0  0  0
   56.5660   33.1644   44.4945 H   0  0  0  0  0  0  0  0  0  0  0  0
   57.3527   32.5250   42.9988 H   0  0  0  0  0  0  0  0  0  0  0  0
   58.1600   31.7530   44.8360 C   0  0  0  0  0  0  0  0  0  0  0  0
   57.3753   31.0373   45.1226 H   0  0  0  0  0  0  0  0  0  0  0  0
   58.9279   31.2851   44.2024 H   0  0  0  0  0  0  0  0  0  0  0  0
   59.9400   31.6050   48.1600 N   0  0  0  0  0  0  0  0  0  0  0  0
   60.0950   32.6090   48.3980 H   0  0  0  0  0  0  0  0  0  0  0  0
   60.3930   30.6790   49.0490 C   0  0  0  0  0  0  0  0  0  0  0  0
   60.1900   29.3010   48.7920 C   0  0  0  0  0  0  0  0  0  0  0  0
   60.4810   28.2670   49.8240 C   0  0  0  0  0  0  0  0  0  0  0  0
   60.0900   27.0860   49.6150 O   0  0  0  0  0  0  0  0  0  0  0  0
   61.1980   28.5850   51.0390 N   0  0  0  0  0  0  0  0  0  0  0  0
   60.5880   28.3060   52.3490 C   0  0  0  0  0  0  0  0  0  0  0  0
   61.2755   28.6204   53.1480 H   0  0  0  0  0  0  0  0  0  0  0  0
   59.6427   28.8613   52.4390 H   0  0  0  0  0  0  0  0  0  0  0  0
   60.3899   27.2277   52.4390 H   0  0  0  0  0  0  0  0  0  0  0  0
   62.4620   29.3340   50.9280 C   0  0  2  0  0  0  0  0  0  0  0  0
   62.9969   29.0008   50.0264 H   0  0  0  0  0  0  0  0  0  0  0  0
   63.4810   29.0220   52.0420 C   0  0  0  0  0  0  0  0  0  0  0  0
   63.0068   29.1672   53.0239 H   0  0  0  0  0  0  0  0  0  0  0  0
   63.8187   27.9793   51.9485 H   0  0  0  0  0  0  0  0  0  0  0  0
   64.3446   29.6969   51.9485 H   0  0  0  0  0  0  0  0  0  0  0  0
   62.1270   30.8080   50.7850 C   0  0  0  0  0  0  0  0  0  0  0  0
   63.0190   31.8290   51.2810 N   0  0  0  0  0  0  0  0  0  0  0  0
   63.8590   31.5510   51.8290 H   0  0  0  0  0  0  0  0  0  0  0  0
   62.8230   33.2770   51.1050 C   0  0  0  0  0  0  0  0  0  0  0  0
   61.8962   33.5523   51.6296 H   0  0  0  0  0  0  0  0  0  0  0  0
   63.9600   34.0790   51.7490 C   0  0  0  0  0  0  0  0  0  0  0  0
   63.8759   34.0197   52.8442 H   0  0  0  0  0  0  0  0  0  0  0  0
   64.9276   33.6624   51.4324 H   0  0  0  0  0  0  0  0  0  0  0  0
   63.8922   35.1303   51.4324 H   0  0  0  0  0  0  0  0  0  0  0  0
   62.6280   33.6430   49.6290 C   0  0  0  0  0  0  0  0  0  0  0  0
   62.1119   34.6117   49.5565 H   0  0  0  0  0  0  0  0  0  0  0  0
   63.6088   33.7123   49.1357 H   0  0  0  0  0  0  0  0  0  0  0  0
   62.0234   32.8676   49.1357 H   0  0  0  0  0  0  0  0  0  0  0  0
   60.9830   31.1560   50.2720 N   0  0  0  0  0  0  0  0  0  0  0  0
   58.1900   26.8680   47.3680 C   0  0  0  0  0  0  0  0  0  0  0  0
   57.3653   27.3869   47.8784 H   0  0  0  0  0  0  0  0  0  0  0  0
   58.0270   25.5440   46.9540 C   0  0  0  0  0  0  0  0  0  0  0  0
   57.0634   25.0370   47.1104 H   0  0  0  0  0  0  0  0  0  0  0  0
   58.1350   21.8330   44.3450 C   0  0  0  0  0  0  0  0  0  0  0  0
   58.8143   21.0799   44.7709 H   0  0  0  0  0  0  0  0  0  0  0  0
   57.2900   21.5000   43.2830 C   0  0  0  0  0  0  0  0  0  0  0  0
   57.3096   20.4839   42.8621 H   0  0  0  0  0  0  0  0  0  0  0  0
   56.4220   22.4560   42.7570 C   0  0  0  0  0  0  0  0  0  0  0  0
   55.7588   22.2035   41.9165 H   0  0  0  0  0  0  0  0  0  0  0  0
  1  2  1  0
  2  3  1  0
  3  4  1  0
  4  5  2  0
  5  6  1  0
  6  7  2  0
  7  8  1  0
  7  9  1  0
  9 10  1  0
  9 11  2  0
 11 12  1  0
 12 13  2  0
 13 14  1  0
 14 15  1  0
 15 16  1  0
 16 17  1  0
 16 18  1  0
 16 19  1  0
 19 20  1  0
 19 21  1  0
 19 22  1  0
 22 23  1  0
 23 24  1  0
 23 25  1  0
 23 26  1  0
 26 27  1  0
 26 28  1  0
 14 29  2  0
 29 30  1  0
 29 31  1  0
 31 32  2  0
 32 33  1  0
 33 34  2  0
 33 35  1  0
 35 36  1  0
 36 37  1  0
 36 38  1  0
 36 39  1  0
 35 40  1  0
 40 41  1  6
 40 42  1  0
 42 43  1  0
 42 44  1  0
 42 45  1  0
 40 46  1  0
 46 47  1  0
 47 48  1  0
 47 49  1  0
 49 50  1  0
 49 51  1  0
 51 52  1  0
 51 53  1  0
 51 54  1  0
 49 55  1  0
 55 56  1  0
 55 57  1  0
 55 58  1  0
 46 59  2  0
 11 60  1  0
 60 61  1  0
 60 62  2  0
 62 63  1  0
  4 64  1  0
 64 65  1  0
 64 66  2  0
 66 67  1  0
 66 68  1  0
 68 69  1  0
 68  2  2  0
 62  6  1  0
 32 12  1  0
 26 15  1  0
 59 31  1  0
M  CHG  2   3  -1  29   1
M  END
>  <UniqueID>  (7) 
7

>  <SMILES>  (7) 
CC(C)NC1=Nc2[nH+]c(N3CCOCC3)nc(-c3ccc(/N=c4\cccc[n-]4)cc3)c2C(=O)N(C)[C@@H]1C

>  <Energy>  (7) 
107.53415825424369

>  <Genealogy>  (7) 
CC(C)NC1=Nc2[nH+]c(N3CCOCC3)nc(-c3ccc(N=c4cccc[n-]4)cc3)c2C(=O)N(C)C1C (protonated)
CC(C)NC1=Nc2[nH+]c(N3CCOCC3)nc(-c3ccc(N=c4cccc[n-]4)cc3)c2C(=O)N(C)[C@@H]1C (chirality)
CC(C)NC1=Nc2[nH+]c(N3CCOCC3)nc(-c3ccc(/N=c4\cccc[n-]4)cc3)c2C(=O)N(C)[C@@H]1C (cis-trans isomerization)
CC(C)NC1=Nc2[nH+]c(N3CCOCC3)nc(-c3ccc(/N=c4\cccc[n-]4)cc3)c2C(=O)N(C)[C@@H]1C (3D coordinates assigned)
CC(C)NC1=Nc2[nH+]c(N3CCOCC3)nc(-c3ccc(/N=c4\cccc[n-]4)cc3)c2C(=O)N(C)[C@@H]1C (nonaromatic ring conformer: 107.53415825424369 kcal/mol)

>  <smiles>  (7) 
CC(C)NC1=Nc2nc(N3CCOCC3)nc(-c3ccc(N=c4cccc[nH]4)cc3)c2C(=O)N(C)C1C

>  <score_type>  (7) 
oracle

>  <origin>  (7) 
adg

>  <m_score__min__energy>  (7) 
-5.9699999999999998

>  <m_primary>  (7) 
energy

$$$$
7:0
     RDKit          3D

 46 48  0  0  0  0  0  0  0  0999 V2000
   60.9170   27.7070   48.2690 O   0  0  0  0  0  0  0  0  0  0  0  0
   59.9780   28.3830   47.7710 C   0  0  0  0  0  0  0  0  0  0  0  0
   58.6890   27.7070   47.4130 C   0  0  0  0  0  0  0  0  0  0  0  0
   58.7030   27.3110   45.9890 N   0  0  0  0  0  0  0  0  0  0  0  0
   59.7700   27.9940   45.2140 C   0  0  0  0  0  0  0  0  0  0  0  0
   59.2810   29.2700   44.5000 C   0  0  0  0  0  0  0  0  0  0  0  0
   58.1460   29.8480   45.2280 N   0  0  0  0  0  0  0  0  0  0  0  0
   57.7330   31.4180   44.5820 S   0  0  0  0  0  0  0  0  0  0  0  0
   58.2200   31.5130   43.1630 O   0  0  0  0  0  0  0  0  0  0  0  0
   56.2380   31.5710   44.5670 O   0  0  0  0  0  0  0  0  0  0  0  0
   58.4500   32.7280   45.5310 C   0  0  0  0  0  0  0  0  0  0  0  0
   58.9030   33.8890   44.8850 C   0  0  0  0  0  0  0  0  0  0  0  0
   59.4770   34.9280   45.6230 C   0  0  0  0  0  0  0  0  0  0  0  0
   59.6000   34.8180   47.0100 C   0  0  0  0  0  0  0  0  0  0  0  0
   59.1490   33.6670   47.6620 C   0  0  0  0  0  0  0  0  0  0  0  0
   58.5740   32.6230   46.9280 C   0  0  0  0  0  0  0  0  0  0  0  0
   58.1450   31.5160   47.5840 F   0  0  0  0  0  0  0  0  0  0  0  0
   56.9770   28.9490   45.1850 C   0  0  0  0  0  0  0  0  0  0  0  0
   57.3800   27.4670   45.3540 C   0  0  0  0  0  0  0  0  0  0  0  0
   60.1490   29.7840   47.5000 N   0  0  0  0  0  0  0  0  0  0  0  0
   61.2290   30.5760   48.0210 C   0  0  0  0  0  0  0  0  0  0  0  0
   62.0730   31.3100   47.1670 C   0  0  0  0  0  0  0  0  0  0  0  0
   63.1350   32.0540   47.6900 C   0  0  0  0  0  0  0  0  0  0  0  0
   63.3740   32.0620   49.0670 C   0  0  0  0  0  0  0  0  0  0  0  0
   64.8270   33.0760   49.7790 Br  0  0  0  0  0  0  0  0  0  0  0  0
   62.5540   31.3180   49.9210 C   0  0  0  0  0  0  0  0  0  0  0  0
   61.4920   30.5720   49.4030 C   0  0  0  0  0  0  0  0  0  0  0  0
   60.7060   29.8580   50.2480 F   0  0  0  0  0  0  0  0  0  0  0  0
   58.5616   26.8113   48.0387 H   0  0  0  0  0  0  0  0  0  0  0  0
   57.8561   28.4046   47.5851 H   0  0  0  0  0  0  0  0  0  0  0  0
   60.5816   28.2688   45.9038 H   0  0  0  0  0  0  0  0  0  0  0  0
   60.1078   27.2936   44.4360 H   0  0  0  0  0  0  0  0  0  0  0  0
   60.1005   30.0028   44.4615 H   0  0  0  0  0  0  0  0  0  0  0  0
   58.9623   29.0131   43.4790 H   0  0  0  0  0  0  0  0  0  0  0  0
   58.8058   33.9815   43.7932 H   0  0  0  0  0  0  0  0  0  0  0  0
   59.8326   35.8341   45.1105 H   0  0  0  0  0  0  0  0  0  0  0  0
   60.0517   35.6370   47.5890 H   0  0  0  0  0  0  0  0  0  0  0  0
   59.2461   33.5813   48.7544 H   0  0  0  0  0  0  0  0  0  0  0  0
   56.2873   29.2242   45.9965 H   0  0  0  0  0  0  0  0  0  0  0  0
   56.4984   29.0609   44.2009 H   0  0  0  0  0  0  0  0  0  0  0  0
   56.6269   26.9656   45.9796 H   0  0  0  0  0  0  0  0  0  0  0  0
   57.4352   27.0187   44.3510 H   0  0  0  0  0  0  0  0  0  0  0  0
   59.4790   30.2340   46.8360 H   0  0  0  0  0  0  0  0  0  0  0  0
   61.8961   31.2983   46.0814 H   0  0  0  0  0  0  0  0  0  0  0  0
   63.7834   32.6339   47.0167 H   0  0  0  0  0  0  0  0  0  0  0  0
   62.7456   31.3200   51.0042 H   0  0  0  0  0  0  0  0  0  0  0  0
  1  2  2  0
  2  3  1  0
  3  4  1  0
  4  5  1  0
  5  6  1  0
  6  7  1  0
  7  8  1  0
  8  9  2  0
  8 10  2  0
  8 11  1  0
 11 12  2  0
 12 13  1  0
 13 14  2  0
 14 15  1  0
 15 16  2  0
 16 17  1  0
  7 18  1  0
 18 19  1  0
  2 20  1  0
 20 21  1  0
 21 22  2  0
 22 23  1  0
 23 24  2  0
 24 25  1  0
 24 26  1  0
 26 27  2  0
 27 28  1  0
 19  4  1  0
 27 21  1  0
 16 11  1  0
  3 29  1  0
  3 30  1  0
  5 31  1  0
  5 32  1  0
  6 33  1  0
  6 34  1  0
 12 35  1  0
 13 36  1  0
 14 37  1  0
 15 38  1  0
 18 39  1  0
 18 40  1  0
 19 41  1  0
 19 42  1  0
 20 43  1  0
 22 44  1  0
 23 45  1  0
 26 46  1  0
M  END
>  <UniqueID>  (8) 
8

>  <SMILES>  (8) 
O=C(CN1CCN(S(=O)(=O)c2ccccc2F)CC1)Nc1ccc(Br)cc1F

>  <Energy>  (8) 
59.944819481111054

>  <Genealogy>  (8) 
O=C(CN1CCN(S(=O)(=O)c2ccccc2F)CC1)Nc1ccc(Br)cc1F (3D coordinates assigned)
O=C(CN1CCN(S(=O)(=O)c2ccccc2F)CC1)Nc1ccc(Br)cc1F (nonaromatic ring conformer: 59.944819481111054 kcal/mol)

>  <smiles>  (8) 
O=C(CN1CCN(S(=O)(=O)c2ccccc2F)CC1)Nc1ccc(Br)cc1F

>  <score_type>  (8) 
oracle

>  <origin>  (8) 
adg

>  <m_score__min__energy>  (8) 
-8.5500000000000007

>  <m_primary>  (8) 
energy

$$$$
8:0
     RDKit          3D

 57 60  0  0  0  0  0  0  0  0999 V2000
   57.1180   30.4620   44.8940 O   0  0  0  0  0  0  0  0  0  0  0  0
   57.7560   30.5510   45.9780 C   0  0  0  0  0  0  0  0  0  0  0  0
   57.7950   31.8020   46.6780 N   0  0  0  0  0  0  0  0  0  0  0  0
   58.7740   32.8280   46.4600 C   0  0  0  0  0  0  0  0  0  0  0  0
   58.3540   34.0940   46.0250 C   0  0  0  0  0  0  0  0  0  0  0  0
   59.2840   35.1220   45.8550 C   0  0  0  0  0  0  0  0  0  0  0  0
   60.6310   34.9050   46.1580 C   0  0  0  0  0  0  0  0  0  0  0  0
   61.0580   33.6570   46.6350 C   0  0  0  0  0  0  0  0  0  0  0  0
   62.7240   33.4280   47.1620 S   0  0  0  0  0  0  0  0  0  0  0  0
   63.6440   34.1320   46.2040 O   0  0  0  0  0  0  0  0  0  0  0  0
   63.0630   31.9620   47.1460 O   0  0  0  0  0  0  0  0  0  0  0  0
   62.9700   34.0830   48.7510 N   0  0  0  0  0  0  0  0  0  0  0  0
   62.0830   33.4290   49.7110 C   0  0  0  0  0  0  0  0  0  0  0  0
   60.7640   34.1930   49.7780 C   0  0  0  0  0  0  0  0  0  0  0  0
   59.7130   33.3750   50.4760 C   0  0  0  0  0  0  0  0  0  0  0  0
   59.1210   33.8380   51.6620 C   0  0  0  0  0  0  0  0  0  0  0  0
   58.0980   33.1020   52.2700 C   0  0  0  0  0  0  0  0  0  0  0  0
   57.6550   31.9090   51.6950 C   0  0  0  0  0  0  0  0  0  0  0  0
   58.2370   31.4440   50.5130 C   0  0  0  0  0  0  0  0  0  0  0  0
   59.2590   32.1740   49.9020 C   0  0  0  0  0  0  0  0  0  0  0  0
   60.1300   32.6140   46.7660 C   0  0  0  0  0  0  0  0  0  0  0  0
   58.4780   29.3710   46.5110 C   0  0  0  0  0  0  0  0  0  0  0  0
   59.3560   29.5050   47.6000 C   0  0  0  0  0  0  0  0  0  0  0  0
   59.9530   28.3780   48.1730 C   0  0  0  0  0  0  0  0  0  0  0  0
   59.6970   27.1060   47.6570 C   0  0  0  0  0  0  0  0  0  0  0  0
   58.8600   26.9520   46.5370 C   0  0  0  0  0  0  0  0  0  0  0  0
   58.5550   25.6480   46.0050 N   0  0  0  0  0  0  0  0  0  0  0  0
   57.2180   25.1360   45.8460 C   0  0  0  0  0  0  0  0  0  0  0  0
   56.2410   25.7370   46.3730 O   0  0  0  0  0  0  0  0  0  0  0  0
   56.9690   23.9030   45.0630 C   0  0  0  0  0  0  0  0  0  0  0  0
   55.7580   23.7140   44.3770 C   0  0  0  0  0  0  0  0  0  0  0  0
   55.5420   22.5740   43.6730 N   0  0  0  0  0  0  0  0  0  0  0  0
   56.4820   21.5970   43.6170 C   0  0  0  0  0  0  0  0  0  0  0  0
   56.2570   20.5400   42.9780 O   0  0  0  0  0  0  0  0  0  0  0  0
   57.6690   21.7600   44.2560 N   0  0  0  0  0  0  0  0  0  0  0  0
   57.9340   22.8830   44.9730 C   0  0  0  0  0  0  0  0  0  0  0  0
   59.0390   22.9840   45.5710 O   0  0  0  0  0  0  0  0  0  0  0  0
   58.2420   28.0870   45.9820 C   0  0  0  0  0  0  0  0  0  0  0  0
   57.2895   34.2774   45.8173 H   0  0  0  0  0  0  0  0  0  0  0  0
   58.9559   36.1035   45.4822 H   0  0  0  0  0  0  0  0  0  0  0  0
   61.3602   35.7172   46.0217 H   0  0  0  0  0  0  0  0  0  0  0  0
   61.8927   32.3942   49.3901 H   0  0  0  0  0  0  0  0  0  0  0  0
   62.5557   33.4208   50.7042 H   0  0  0  0  0  0  0  0  0  0  0  0
   60.9176   35.1316   50.3307 H   0  0  0  0  0  0  0  0  0  0  0  0
   60.4251   34.4056   48.7533 H   0  0  0  0  0  0  0  0  0  0  0  0
   59.4620   34.7811   52.1140 H   0  0  0  0  0  0  0  0  0  0  0  0
   57.6416   33.4640   53.2031 H   0  0  0  0  0  0  0  0  0  0  0  0
   56.8474   31.3351   52.1729 H   0  0  0  0  0  0  0  0  0  0  0  0
   57.8900   30.5021   50.0632 H   0  0  0  0  0  0  0  0  0  0  0  0
   59.7106   31.8081   48.9681 H   0  0  0  0  0  0  0  0  0  0  0  0
   60.4641   31.6239   47.1097 H   0  0  0  0  0  0  0  0  0  0  0  0
   59.5752   30.5041   48.0047 H   0  0  0  0  0  0  0  0  0  0  0  0
   60.6274   28.4939   49.0342 H   0  0  0  0  0  0  0  0  0  0  0  0
   60.1512   26.2217   48.1278 H   0  0  0  0  0  0  0  0  0  0  0  0
   59.3570   25.0620   45.6960 H   0  0  0  0  0  0  0  0  0  0  0  0
   54.9819   24.4928   44.4105 H   0  0  0  0  0  0  0  0  0  0  0  0
   57.5650   27.9704   45.1229 H   0  0  0  0  0  0  0  0  0  0  0  0
  1  2  2  0
  2  3  1  0
  3  4  1  0
  4  5  2  0
  5  6  1  0
  6  7  2  0
  7  8  1  0
  8  9  1  0
  9 10  2  0
  9 11  2  0
  9 12  1  0
 12 13  1  0
 13 14  1  0
 14 15  1  0
 15 16  2  0
 16 17  1  0
 17 18  2  0
 18 19  1  0
 19 20  2  0
  8 21  2  0
  2 22  1  0
 22 23  2  0
 23 24  1  0
 24 25  2  0
 25 26  1  0
 26 27  1  0
 27 28  1  0
 28 29  2  0
 28 30  1  0
 30 31  2  0
 31 32  1  0
 32 33  1  0
 33 34  2  0
 33 35  1  0
 35 36  1  0
 36 37  2  0
 26 38  2  0
 21  4  1  0
 38 22  1  0
 20 15  1  0
 36 30  1  0
  5 39  1  0
  6 40  1  0
  7 41  1  0
 13 42  1  0
 13 43  1  0
 14 44  1  0
 14 45  1  0
 16 46  1  0
 17 47  1  0
 18 48  1  0
 19 49  1  0
 20 50  1  0
 21 51  1  0
 23 52  1  0
 24 53  1  0
 25 54  1  0
 27 55  1  0
 31 56  1  0
 38 57  1  0
M  CHG  4   3  -1  12  -1  32  -1  35  -1
M  END
>  <UniqueID>  (9) 
9

>  <SMILES>  (9) 
O=C([N-]c1cccc(S(=O)(=O)[N-]CCc2ccccc2)c1)c1cccc(NC(=O)c2c[n-]c(=O)[n-]c2=O)c1

>  <Energy>  (9) 
73.33945439925053

>  <Genealogy>  (9) 
O=C([N-]c1cccc(S(=O)(=O)[N-]CCc2ccccc2)c1)c1cccc(NC(=O)c2c[n-]c(=O)[n-]c2=O)c1 (protonated)
O=C([N-]c1cccc(S(=O)(=O)[N-]CCc2ccccc2)c1)c1cccc(NC(=O)c2c[n-]c(=O)[n-]c2=O)c1 (3D coordinates assigned)
O=C([N-]c1cccc(S(=O)(=O)[N-]CCc2ccccc2)c1)c1cccc(NC(=O)c2c[n-]c(=O)[n-]c2=O)c1 (optimized conformer: 73.33945439925053 kcal/mol)

>  <smiles>  (9) 
O=C(Nc1cccc(S(=O)(=O)NCCc2ccccc2)c1)c1cccc(NC(=O)c2c[nH]c(=O)[nH]c2=O)c1

>  <score_type>  (9) 
oracle

>  <origin>  (9) 
adg

>  <m_score__min__energy>  (9) 
-15.92

>  <m_primary>  (9) 
energy

$$$$
9:0
     RDKit          3D

 45 47  0  0  0  0  0  0  0  0999 V2000
   56.7935   33.5717   44.0035 H   0  0  0  0  0  0  0  0  0  0  0  0
   57.2310   32.7820   44.6320 C   0  0  0  0  0  0  0  0  0  0  0  0
   56.8780   31.5530   44.4090 N   0  0  0  0  0  0  0  0  0  0  0  0
   57.0260   30.5530   45.3440 O   0  0  0  0  0  0  0  0  0  0  0  0
   56.4150   29.3100   45.1820 C   0  0  0  0  0  0  0  0  0  0  0  0
   55.2240   29.2520   44.7660 O   0  0  0  0  0  0  0  0  0  0  0  0
   57.1710   28.0730   45.4990 C   0  0  0  0  0  0  0  0  0  0  0  0
   58.5750   28.0850   45.4160 C   0  0  0  0  0  0  0  0  0  0  0  0
   59.0940   29.0090   45.1215 H   0  0  0  0  0  0  0  0  0  0  0  0
   59.3180   26.9380   45.7030 C   0  0  0  0  0  0  0  0  0  0  0  0
   60.4162   26.9669   45.6474 H   0  0  0  0  0  0  0  0  0  0  0  0
   58.6700   25.7560   46.0600 C   0  0  0  0  0  0  0  0  0  0  0  0
   59.4070   24.6110   46.3320 O   0  0  0  0  0  0  0  0  0  0  0  0
   57.2750   25.7250   46.1400 C   0  0  0  0  0  0  0  0  0  0  0  0
   56.7639   24.7896   46.4117 H   0  0  0  0  0  0  0  0  0  0  0  0
   56.5250   26.8750   45.8770 C   0  0  0  0  0  0  0  0  0  0  0  0
   55.1450   26.8090   45.9980 O   0  0  0  0  0  0  0  0  0  0  0  0
   58.1900   33.1770   45.6860 C   0  0  0  0  0  0  0  0  0  0  0  0
   58.0870   32.6940   47.0040 C   0  0  0  0  0  0  0  0  0  0  0  0
   57.2948   31.9760   47.2628 H   0  0  0  0  0  0  0  0  0  0  0  0
   58.9870   33.1220   47.9880 C   0  0  0  0  0  0  0  0  0  0  0  0
   58.9104   32.7185   49.0085 H   0  0  0  0  0  0  0  0  0  0  0  0
   59.9830   34.0580   47.6860 C   0  0  0  0  0  0  0  0  0  0  0  0
   60.8140   34.5120   48.7280 O   0  0  0  0  0  0  0  0  0  0  0  0
   62.0430   33.9320   49.0640 C   0  0  0  0  0  0  0  0  0  0  0  0
   63.0410   33.7700   48.0840 C   0  0  0  0  0  0  0  0  0  0  0  0
   62.8604   34.1144   47.0550 H   0  0  0  0  0  0  0  0  0  0  0  0
   64.2600   33.1730   48.4150 C   0  0  0  0  0  0  0  0  0  0  0  0
   65.0382   33.0483   47.6476 H   0  0  0  0  0  0  0  0  0  0  0  0
   64.4900   32.7340   49.7230 C   0  0  0  0  0  0  0  0  0  0  0  0
   65.4516   32.2676   49.9833 H   0  0  0  0  0  0  0  0  0  0  0  0
   63.5010   32.8860   50.7020 C   0  0  0  0  0  0  0  0  0  0  0  0
   63.6867   32.5316   51.7266 H   0  0  0  0  0  0  0  0  0  0  0  0
   62.2720   33.4890   50.3830 C   0  0  0  0  0  0  0  0  0  0  0  0
   61.2190   33.6640   51.4500 C   0  0  0  0  0  0  0  0  0  0  0  0
   60.8957   34.7153   51.4661 H   0  0  0  0  0  0  0  0  0  0  0  0
   61.6537   33.3771   52.4189 H   0  0  0  0  0  0  0  0  0  0  0  0
   60.0070   32.7740   51.1810 C   0  0  0  0  0  0  0  0  0  0  0  0
   59.5689   32.4523   52.1373 H   0  0  0  0  0  0  0  0  0  0  0  0
   59.2581   33.3383   50.6060 H   0  0  0  0  0  0  0  0  0  0  0  0
   60.3213   31.8905   50.6060 H   0  0  0  0  0  0  0  0  0  0  0  0
   60.0820   34.5510   46.3720 C   0  0  0  0  0  0  0  0  0  0  0  0
   60.8700   35.2749   46.1169 H   0  0  0  0  0  0  0  0  0  0  0  0
   59.1810   34.1240   45.3860 C   0  0  0  0  0  0  0  0  0  0  0  0
   59.2517   34.5351   44.3682 H   0  0  0  0  0  0  0  0  0  0  0  0
  1  2  1  0
  2  3  2  0
  3  4  1  0
  4  5  1  0
  5  6  2  0
  5  7  1  0
  7  8  2  0
  8  9  1  0
  8 10  1  0
 10 11  1  0
 10 12  2  0
 12 13  1  0
 12 14  1  0
 14 15  1  0
 14 16  2  0
 16 17  1  0
  2 18  1  0
 18 19  2  0
 19 20  1  0
 19 21  1  0
 21 22  1  0
 21 23  2  0
 23 24  1  0
 24 25  1  0
 25 26  2  0
 26 27  1  0
 26 28  1  0
 28 29  1  0
 28 30  2  0
 30 31  1  0
 30 32  1  0
 32 33  1  0
 32 34  2  0
 34 35  1  0
 35 36  1  0
 35 37  1  0
 35 38  1  0
 38 39  1  0
 38 40  1  0
 38 41  1  0
 23 42  1  0
 42 43  1  0
 42 44  2  0
 44 45  1  0
 16  7  1  0
 44 18  1  0
 34 25  1  0
M  CHG  2  13  -1  17  -1
M  END
>  <UniqueID>  (10) 
10

>  <SMILES>  (10) 
CCc1ccccc1Oc1ccc(/C=N\OC(=O)c2ccc([O-])cc2[O-])cc1

>  <Energy>  (10) 
57.19331316312279

>  <Genealogy>  (10) 
CCc1ccccc1Oc1ccc(C=NOC(=O)c2ccc([O-])cc2[O-])cc1 (protonated)
CCc1ccccc1Oc1ccc(/C=N\OC(=O)c2ccc([O-])cc2[O-])cc1 (cis-trans isomerization)
CCc1ccccc1Oc1ccc(/C=N\OC(=O)c2ccc([O-])cc2[O-])cc1 (3D coordinates assigned)
CCc1ccccc1Oc1ccc(/C=N\OC(=O)c2ccc([O-])cc2[O-])cc1 (optimized conformer: 57.19331316312279 kcal/mol)

>  <smiles>  (10) 
CCc1ccccc1Oc1ccc(C=NOC(=O)c2ccc(O)cc2O)cc1

>  <score_type>  (10) 
oracle

>  <origin>  (10) 
adg

>  <m_score__min__energy>  (10) 
-15.43

>  <m_primary>  (10) 
energy

$$$$
10:0
     RDKit          3D

 39 41  0  0  0  0  0  0  0  0999 V2000
   64.5260   32.3320   46.8180 H   0  0  0  0  0  0  0  0  0  0  0  0
   64.0880   33.2340   47.1110 N   0  0  0  0  0  0  0  0  0  0  0  0
   62.8740   32.8480   48.2790 S   0  0  0  0  0  0  0  0  0  0  0  0
   62.9990   31.4040   48.6700 O   0  0  0  0  0  0  0  0  0  0  0  0
   63.0650   33.6990   49.5020 O   0  0  0  0  0  0  0  0  0  0  0  0
   61.2820   33.1560   47.5930 C   0  0  0  0  0  0  0  0  0  0  0  0
   61.1180   34.1720   46.6420 C   0  0  0  0  0  0  0  0  0  0  0  0
   61.9770   34.7947   46.3517 H   0  0  0  0  0  0  0  0  0  0  0  0
   59.8670   34.3970   46.0610 C   0  0  0  0  0  0  0  0  0  0  0  0
   59.7434   35.2015   45.3211 H   0  0  0  0  0  0  0  0  0  0  0  0
   58.7670   33.6000   46.4180 C   0  0  0  0  0  0  0  0  0  0  0  0
   57.4360   33.7980   45.7360 C   0  0  0  0  0  0  0  0  0  0  0  0
   56.6307   33.4958   46.4217 H   0  0  0  0  0  0  0  0  0  0  0  0
   57.3313   34.8596   45.4676 H   0  0  0  0  0  0  0  0  0  0  0  0
   57.3540   32.9950   44.5160 N   0  0  0  0  0  0  0  0  0  0  0  0
   57.1430   31.7120   44.4800 C   0  0  0  0  0  0  0  0  0  0  0  0
   55.9040   31.1830   44.5770 N   0  0  0  0  0  0  0  0  0  0  0  0
   55.9320   29.8290   44.4490 C   0  0  0  0  0  0  0  0  0  0  0  0
   54.7700   29.0700   44.4940 O   0  0  0  0  0  0  0  0  0  0  0  0
   57.1970   29.2730   44.2660 C   0  0  0  0  0  0  0  0  0  0  0  0
   57.5100   27.8410   43.9640 C   0  0  0  0  0  0  0  0  0  0  0  0
   56.6493   27.3778   43.4595 H   0  0  0  0  0  0  0  0  0  0  0  0
   58.3934   27.7928   43.3103 H   0  0  0  0  0  0  0  0  0  0  0  0
   57.7980   27.0990   45.2450 C   0  0  0  0  0  0  0  0  0  0  0  0
   59.1310   26.8290   45.6070 C   0  0  0  0  0  0  0  0  0  0  0  0
   59.9538   27.1998   44.9781 H   0  0  0  0  0  0  0  0  0  0  0  0
   59.4160   26.0930   46.7600 C   0  0  0  0  0  0  0  0  0  0  0  0
   60.4608   25.8890   47.0372 H   0  0  0  0  0  0  0  0  0  0  0  0
   58.3760   25.6160   47.5610 C   0  0  0  0  0  0  0  0  0  0  0  0
   58.6024   25.0400   48.4704 H   0  0  0  0  0  0  0  0  0  0  0  0
   57.0480   25.8700   47.2080 C   0  0  0  0  0  0  0  0  0  0  0  0
   56.2309   25.4928   47.8405 H   0  0  0  0  0  0  0  0  0  0  0  0
   56.7540   26.6030   46.0520 C   0  0  0  0  0  0  0  0  0  0  0  0
   55.4240   26.8300   45.7140 O   0  0  0  0  0  0  0  0  0  0  0  0
   58.3190   30.5240   44.2470 S   0  0  0  0  0  0  0  0  0  0  0  0
   58.9300   32.5960   47.3860 C   0  0  0  0  0  0  0  0  0  0  0  0
   58.0683   31.9840   47.6908 H   0  0  0  0  0  0  0  0  0  0  0  0
   60.1830   32.3710   47.9640 C   0  0  0  0  0  0  0  0  0  0  0  0
   60.3061   31.5746   48.7128 H   0  0  0  0  0  0  0  0  0  0  0  0
  1  2  1  0
  2  3  1  0
  3  4  2  0
  3  5  2  0
  3  6  1  0
  6  7  2  0
  7  8  1  0
  7  9  1  0
  9 10  1  0
  9 11  2  0
 11 12  1  0
 12 13  1  0
 12 14  1  0
 12 15  1  0
 15 16  2  0
 16 17  1  0
 17 18  1  0
 18 19  1  0
 18 20  2  0
 20 21  1  0
 21 22  1  0
 21 23  1  0
 21 24  1  0
 24 25  2  0
 25 26  1  0
 25 27  1  0
 27 28  1  0
 27 29  2  0
 29 30  1  0
 29 31  1  0
 31 32  1  0
 31 33  2  0
 33 34  1  0
 20 35  1  0
 11 36  1  0
 36 37  1  0
 36 38  2  0
 38 39  1  0
 38  6  1  0
 35 16  1  0
 33 24  1  0
M  CHG  4   2  -1  17  -1  19  -1  34  -1
M  END
>  <UniqueID>  (11) 
11

>  <SMILES>  (11) 
[NH-]S(=O)(=O)c1ccc(C/N=c2/[n-]c([O-])c(Cc3ccccc3[O-])s2)cc1

>  <Energy>  (11) 
69.57699344700173

>  <Genealogy>  (11) 
[NH-]S(=O)(=O)c1ccc(CN=c2[n-]c([O-])c(Cc3ccccc3[O-])s2)cc1 (protonated)
[NH-]S(=O)(=O)c1ccc(C/N=c2/[n-]c([O-])c(Cc3ccccc3[O-])s2)cc1 (cis-trans isomerization)
[NH-]S(=O)(=O)c1ccc(C/N=c2/[n-]c([O-])c(Cc3ccccc3[O-])s2)cc1 (3D coordinates assigned)
[NH-]S(=O)(=O)c1ccc(C/N=c2/[n-]c([O-])c(Cc3ccccc3[O-])s2)cc1 (optimized conformer: 69.57699344700173 kcal/mol)

>  <smiles>  (11) 
NS(=O)(=O)c1ccc(CN=c2[nH]c(O)c(Cc3ccccc3O)s2)cc1

>  <score_type>  (11) 
oracle

>  <origin>  (11) 
adg

>  <m_score__min__energy>  (11) 
-17.260000000000002

>  <m_primary>  (11) 
energy

$$$$
11:0
     RDKit          3D

 52 55  0  0  0  0  0  0  0  0999 V2000
   57.1431   25.7069   47.6824 H   0  0  0  0  0  0  0  0  0  0  0  0
   57.9710   25.2990   47.0840 C   0  0  0  0  0  0  0  0  0  0  0  0
   58.0790   24.0190   46.6740 N   0  0  0  0  0  0  0  0  0  0  0  0
   59.2470   23.9980   45.9940 C   0  0  0  0  0  0  0  0  0  0  0  0
   59.7390   22.9330   45.4370 N   0  0  0  0  0  0  0  0  0  0  0  0
   59.0200   22.1340   44.4490 C   0  0  0  0  0  0  0  0  0  0  0  0
   58.9238   22.7059   43.5143 H   0  0  0  0  0  0  0  0  0  0  0  0
   59.5752   21.2046   44.2540 H   0  0  0  0  0  0  0  0  0  0  0  0
   57.6510   21.8000   44.9760 C   0  0  0  0  0  0  0  0  0  0  0  0
   57.4890   20.6880   45.8160 C   0  0  0  0  0  0  0  0  0  0  0  0
   58.3643   20.0835   46.0959 H   0  0  0  0  0  0  0  0  0  0  0  0
   56.2270   20.3430   46.2990 C   0  0  0  0  0  0  0  0  0  0  0  0
   56.1133   19.4736   46.9633 H   0  0  0  0  0  0  0  0  0  0  0  0
   55.1090   21.0960   45.9430 C   0  0  0  0  0  0  0  0  0  0  0  0
   54.1176   20.8208   46.3321 H   0  0  0  0  0  0  0  0  0  0  0  0
   55.2420   22.2070   45.0880 C   0  0  0  0  0  0  0  0  0  0  0  0
   54.1380   22.9850   44.7000 O   0  0  0  0  0  0  0  0  0  0  0  0
   53.5110   23.9730   45.5130 C   0  0  0  0  0  0  0  0  0  0  0  0
   53.3454   23.5619   46.5198 H   0  0  0  0  0  0  0  0  0  0  0  0
   52.2960   24.3380   44.9600 F   0  0  0  0  0  0  0  0  0  0  0  0
   54.3250   25.0860   45.5790 F   0  0  0  0  0  0  0  0  0  0  0  0
   56.5150   22.5550   44.6020 C   0  0  0  0  0  0  0  0  0  0  0  0
   56.6630   23.9370   43.5160 Cl  0  0  0  0  0  0  0  0  0  0  0  0
   59.8720   25.1890   45.9550 N   0  0  0  0  0  0  0  0  0  0  0  0
   60.8060   25.3950   45.5370 H   0  0  0  0  0  0  0  0  0  0  0  0
   59.0610   26.0180   46.6360 C   0  0  0  0  0  0  0  0  0  0  0  0
   59.3360   27.4380   46.9180 C   0  0  0  0  0  0  0  0  0  0  0  0
   60.3200   27.9180   47.7780 C   0  0  0  0  0  0  0  0  0  0  0  0
   61.0032   27.2886   48.3671 H   0  0  0  0  0  0  0  0  0  0  0  0
   60.3140   29.2700   47.7840 N   0  0  0  0  0  0  0  0  0  0  0  0
   61.1920   30.1340   48.5700 C   0  0  0  0  0  0  0  0  0  0  0  0
   61.0147   29.9595   49.6415 H   0  0  0  0  0  0  0  0  0  0  0  0
   62.2411   29.9063   48.3301 H   0  0  0  0  0  0  0  0  0  0  0  0
   60.9812   31.1866   48.3301 H   0  0  0  0  0  0  0  0  0  0  0  0
   59.3260   29.6540   46.9530 C   0  0  0  0  0  0  0  0  0  0  0  0
   58.9160   30.9550   46.6600 C   0  0  0  0  0  0  0  0  0  0  0  0
   59.4334   31.8211   47.0983 H   0  0  0  0  0  0  0  0  0  0  0  0
   57.8180   31.1330   45.7850 C   0  0  0  0  0  0  0  0  0  0  0  0
   57.3490   32.4090   45.4350 O   0  0  0  0  0  0  0  0  0  0  0  0
   58.1060   33.3750   44.7140 C   0  0  0  0  0  0  0  0  0  0  0  0
   58.6250   34.0373   45.4225 H   0  0  0  0  0  0  0  0  0  0  0  0
   58.8459   32.8631   44.0812 H   0  0  0  0  0  0  0  0  0  0  0  0
   57.4321   33.9711   44.0812 H   0  0  0  0  0  0  0  0  0  0  0  0
   57.1560   30.0040   45.2410 C   0  0  0  0  0  0  0  0  0  0  0  0
   56.0610   30.2240   44.3900 O   0  0  0  0  0  0  0  0  0  0  0  0
   55.9580   29.7180   43.0620 C   0  0  0  0  0  0  0  0  0  0  0  0
   55.7387   28.6406   43.0961 H   0  0  0  0  0  0  0  0  0  0  0  0
   55.1478   30.2405   42.5323 H   0  0  0  0  0  0  0  0  0  0  0  0
   56.9080   29.8822   42.5323 H   0  0  0  0  0  0  0  0  0  0  0  0
   57.5990   28.6980   45.5640 C   0  0  0  0  0  0  0  0  0  0  0  0
   57.0859   27.8131   45.1594 H   0  0  0  0  0  0  0  0  0  0  0  0
   58.7010   28.5610   46.4070 C   0  0  0  0  0  0  0  0  0  0  0  0
  1  2  1  0
  2  3  1  0
  3  4  1  0
  4  5  2  0
  5  6  1  0
  6  7  1  0
  6  8  1  0
  6  9  1  0
  9 10  2  0
 10 11  1  0
 10 12  1  0
 12 13  1  0
 12 14  2  0
 14 15  1  0
 14 16  1  0
 16 17  1  0
 17 18  1  0
 18 19  1  0
 18 20  1  0
 18 21  1  0
 16 22  2  0
 22 23  1  0
  4 24  1  0
 24 25  1  0
 24 26  1  0
 26 27  1  0
 27 28  2  0
 28 29  1  0
 28 30  1  0
 30 31  1  0
 31 32  1  0
 31 33  1  0
 31 34  1  0
 30 35  1  0
 35 36  2  0
 36 37  1  0
 36 38  1  0
 38 39  1  0
 39 40  1  0
 40 41  1  0
 40 42  1  0
 40 43  1  0
 38 44  2  0
 44 45  1  0
 45 46  1  0
 46 47  1  0
 46 48  1  0
 46 49  1  0
 44 50  1  0
 50 51  1  0
 50 52  2  0
 26  2  2  0
 52 27  1  0
 22  9  1  0
 52 35  1  0
M  CHG  1   3  -1
M  END
>  <UniqueID>  (12) 
12

>  <SMILES>  (12) 
COc1cc2c(-c3c[n-]/c(=N\Cc4cccc(OC(F)F)c4Cl)[nH]3)cn(C)c2cc1OC

>  <Energy>  (12) 
119.5912395675063

>  <Genealogy>  (12) 
COc1cc2c(-c3c[n-]c(=NCc4cccc(OC(F)F)c4Cl)[nH]3)cn(C)c2cc1OC (protonated)
COc1cc2c(-c3c[n-]/c(=N\Cc4cccc(OC(F)F)c4Cl)[nH]3)cn(C)c2cc1OC (cis-trans isomerization)
COc1cc2c(-c3c[n-]/c(=N\Cc4cccc(OC(F)F)c4Cl)[nH]3)cn(C)c2cc1OC (3D coordinates assigned)
COc1cc2c(-c3c[n-]/c(=N\Cc4cccc(OC(F)F)c4Cl)[nH]3)cn(C)c2cc1OC (optimized conformer: 119.5912395675063 kcal/mol)

>  <smiles>  (12) 
COc1cc2c(-c3c[nH]c(=NCc4cccc(OC(F)F)c4Cl)[nH]3)cn(C)c2cc1OC

>  <score_type>  (12) 
oracle

>  <origin>  (12) 
adg

>  <m_score__min__energy>  (12) 
-9.4299999999999997

>  <m_primary>  (12) 
energy

$$$$
12:0
     RDKit          3D

 53 55  0  0  0  0  0  0  0  0999 V2000
   57.7470   23.0190   48.5450 H   0  0  0  0  0  0  0  0  0  0  0  0
   57.3850   22.0870   48.2470 N   0  0  0  0  0  0  0  0  0  0  0  0
   57.2470   22.1250   46.5230 S   0  0  0  0  0  0  0  0  0  0  0  0
   58.5250   22.6740   45.9530 O   0  0  0  0  0  0  0  0  0  0  0  0
   57.0410   20.7320   46.0010 O   0  0  0  0  0  0  0  0  0  0  0  0
   55.8780   23.1500   46.0630 C   0  0  0  0  0  0  0  0  0  0  0  0
   54.7670   22.5680   45.4320 C   0  0  0  0  0  0  0  0  0  0  0  0
   54.7426   21.4812   45.2640 H   0  0  0  0  0  0  0  0  0  0  0  0
   53.6930   23.3570   45.0160 C   0  0  0  0  0  0  0  0  0  0  0  0
   52.8231   22.8891   44.5319 H   0  0  0  0  0  0  0  0  0  0  0  0
   53.7210   24.7370   45.2130 C   0  0  0  0  0  0  0  0  0  0  0  0
   52.8785   25.3569   44.8725 H   0  0  0  0  0  0  0  0  0  0  0  0
   54.8150   25.3340   45.8410 C   0  0  0  0  0  0  0  0  0  0  0  0
   54.8320   26.7150   46.0110 O   0  0  0  0  0  0  0  0  0  0  0  0
   55.8890   24.5460   46.2950 C   0  0  0  0  0  0  0  0  0  0  0  0
   57.0220   25.1980   46.9790 C   0  0  0  0  0  0  0  0  0  0  0  0
   56.9286   25.4181   48.0527 H   0  0  0  0  0  0  0  0  0  0  0  0
   58.1590   25.5350   46.3560 C   0  0  0  0  0  0  0  0  0  0  0  0
   59.1112   25.2511   46.8279 H   0  0  0  0  0  0  0  0  0  0  0  0
   58.2110   26.2800   45.0470 C   0  0  0  0  0  0  0  0  0  0  0  0
   59.2023   26.7439   44.9369 H   0  0  0  0  0  0  0  0  0  0  0  0
   58.0253   25.5658   44.2312 H   0  0  0  0  0  0  0  0  0  0  0  0
   57.1870   27.3230   44.9930 N   0  0  0  0  0  0  0  0  0  0  0  0
   56.2040   27.0340   45.2000 H   0  0  0  0  0  0  0  0  0  0  0  0
   57.4410   28.7030   44.6690 C   0  0  0  0  0  0  0  0  0  0  0  0
   58.6650   29.3280   44.9760 C   0  0  0  0  0  0  0  0  0  0  0  0
   59.4585   28.7581   45.4815 H   0  0  0  0  0  0  0  0  0  0  0  0
   58.8770   30.6680   44.6420 C   0  0  0  0  0  0  0  0  0  0  0  0
   59.8415   31.1418   44.8772 H   0  0  0  0  0  0  0  0  0  0  0  0
   57.8710   31.4160   44.0090 C   0  0  0  0  0  0  0  0  0  0  0  0
   58.1090   32.8710   43.6540 C   0  0  0  0  0  0  0  0  0  0  0  0
   59.0713   32.9459   43.1264 H   0  0  0  0  0  0  0  0  0  0  0  0
   57.2603   33.1909   43.0316 H   0  0  0  0  0  0  0  0  0  0  0  0
   58.1480   33.7750   44.8250 N   0  0  0  0  0  0  0  0  0  0  0  0
   59.5130   34.2330   45.1750 C   0  0  0  0  0  0  0  0  0  0  0  0
   60.1810   33.3609   45.2318 H   0  0  0  0  0  0  0  0  0  0  0  0
   59.8564   34.9331   44.3991 H   0  0  0  0  0  0  0  0  0  0  0  0
   59.5220   34.9590   46.5240 C   0  0  0  0  0  0  0  0  0  0  0  0
   60.5414   35.3151   46.7336 H   0  0  0  0  0  0  0  0  0  0  0  0
   58.8207   35.8047   46.4706 H   0  0  0  0  0  0  0  0  0  0  0  0
   59.0730   34.0220   47.6600 C   0  0  0  0  0  0  0  0  0  0  0  0
   59.9663   33.5723   48.1179 H   0  0  0  0  0  0  0  0  0  0  0  0
   58.5039   34.6267   48.3814 H   0  0  0  0  0  0  0  0  0  0  0  0
   58.1480   32.8910   47.1730 C   0  0  0  0  0  0  0  0  0  0  0  0
   58.7620   32.0264   46.8805 H   0  0  0  0  0  0  0  0  0  0  0  0
   57.4651   32.6228   47.9926 H   0  0  0  0  0  0  0  0  0  0  0  0
   57.3090   33.3390   45.9690 C   0  0  0  0  0  0  0  0  0  0  0  0
   56.6793   32.4974   45.6446 H   0  0  0  0  0  0  0  0  0  0  0  0
   56.7009   34.1992   46.2857 H   0  0  0  0  0  0  0  0  0  0  0  0
   56.6590   30.7870   43.6850 C   0  0  0  0  0  0  0  0  0  0  0  0
   55.8726   31.3525   43.1637 H   0  0  0  0  0  0  0  0  0  0  0  0
   56.4440   29.4470   44.0200 C   0  0  0  0  0  0  0  0  0  0  0  0
   55.4837   28.9711   43.7724 H   0  0  0  0  0  0  0  0  0  0  0  0
  1  2  1  0
  2  3  1  0
  3  4  2  0
  3  5  2  0
  3  6  1  0
  6  7  2  0
  7  8  1  0
  7  9  1  0
  9 10  1  0
  9 11  2  0
 11 12  1  0
 11 13  1  0
 13 14  1  0
 13 15  2  0
 15 16  1  0
 16 17  1  0
 16 18  2  0
 18 19  1  0
 18 20  1  0
 20 21  1  0
 20 22  1  0
 20 23  1  0
 23 24  1  0
 23 25  1  0
 25 26  2  0
 26 27  1  0
 26 28  1  0
 28 29  1  0
 28 30  2  0
 30 31  1  0
 31 32  1  0
 31 33  1  0
 31 34  1  0
 34 35  1  0
 35 36  1  0
 35 37  1  0
 35 38  1  0
 38 39  1  0
 38 40  1  0
 38 41  1  0
 41 42  1  0
 41 43  1  0
 41 44  1  0
 44 45  1  0
 44 46  1  0
 44 47  1  0
 47 48  1  0
 47 49  1  0
 30 50  1  0
 50 51  1  0
 50 52  2  0
 52 53  1  0
 15  6  1  0
 52 25  1  0
 47 34  1  0
M  CHG  2   2  -1  14  -1
M  END
>  <UniqueID>  (13) 
13

>  <SMILES>  (13) 
[NH-]S(=O)(=O)c1cccc([O-])c1/C=C\CNc1ccc(CN2CCCCC2)cc1

>  <Energy>  (13) 
69.77054713772159

>  <Genealogy>  (13) 
[NH-]S(=O)(=O)c1cccc([O-])c1C=CCNc1ccc(CN2CCCCC2)cc1 (protonated)
[NH-]S(=O)(=O)c1cccc([O-])c1/C=C\CNc1ccc(CN2CCCCC2)cc1 (cis-trans isomerization)
[NH-]S(=O)(=O)c1cccc([O-])c1/C=C\CNc1ccc(CN2CCCCC2)cc1 (3D coordinates assigned)
[NH-]S(=O)(=O)c1cccc([O-])c1/C=C\CNc1ccc(CN2CCCCC2)cc1 (nonaromatic ring conformer: 69.77054713772159 kcal/mol)

>  <smiles>  (13) 
NS(=O)(=O)c1cccc(O)c1C=CCNc1ccc(CN2CCCCC2)cc1

>  <score_type>  (13) 
oracle

>  <origin>  (13) 
adg

>  <m_score__min__energy>  (13) 
-13.98

>  <m_primary>  (13) 
energy

$$$$
13:0
     RDKit          3D

 51 53  0  0  0  0  0  0  0  0999 V2000
   62.3260   33.4670   46.8550 C   0  0  0  0  0  0  0  0  0  0  0  0
   61.1590   34.2320   47.1300 O   0  0  0  0  0  0  0  0  0  0  0  0
   59.9020   34.0130   46.5390 C   0  0  0  0  0  0  0  0  0  0  0  0
   59.4870   34.7270   45.3970 C   0  0  0  0  0  0  0  0  0  0  0  0
   58.2220   34.5120   44.8470 C   0  0  0  0  0  0  0  0  0  0  0  0
   57.3550   33.5860   45.4270 C   0  0  0  0  0  0  0  0  0  0  0  0
   57.7520   32.8680   46.5550 C   0  0  0  0  0  0  0  0  0  0  0  0
   59.0260   33.0660   47.1170 C   0  0  0  0  0  0  0  0  0  0  0  0
   59.4280   32.2760   48.3060 C   0  0  0  0  0  0  0  0  0  0  0  0
   59.3710   32.8480   49.5880 C   0  0  0  0  0  0  0  0  0  0  0  0
   59.7340   32.1020   50.7120 C   0  0  0  0  0  0  0  0  0  0  0  0
   60.1500   30.7770   50.5690 C   0  0  0  0  0  0  0  0  0  0  0  0
   60.2090   30.1870   49.2970 C   0  0  0  0  0  0  0  0  0  0  0  0
   60.6230   28.7490   49.1550 C   0  0  0  0  0  0  0  0  0  0  0  0
   59.4980   27.9410   48.6880 N   0  0  0  0  0  0  0  0  0  0  0  0
   59.6740   26.7660   47.8860 C   0  0  0  0  0  0  0  0  0  0  0  0
   60.8320   26.3680   47.5820 O   0  0  0  0  0  0  0  0  0  0  0  0
   58.4820   25.9770   47.4370 C   0  0  0  0  0  0  0  0  0  0  0  0
   58.2870   26.0530   45.9150 C   0  0  0  0  0  0  0  0  0  0  0  0
   57.7640   27.3750   45.4990 N   0  0  0  0  0  0  0  0  0  0  0  0
   58.5950   28.3870   45.0570 C   0  0  0  0  0  0  0  0  0  0  0  0
   60.0820   28.1890   44.8810 C   0  0  0  0  0  0  0  0  0  0  0  0
   58.0540   29.6340   44.7150 C   0  0  0  0  0  0  0  0  0  0  0  0
   56.6830   29.8290   44.8250 C   0  0  0  0  0  0  0  0  0  0  0  0
   56.1730   30.9410   44.5290 O   0  0  0  0  0  0  0  0  0  0  0  0
   55.8920   28.8160   45.2470 N   0  0  0  0  0  0  0  0  0  0  0  0
   56.4080   27.6050   45.5780 C   0  0  0  0  0  0  0  0  0  0  0  0
   55.6200   26.6960   45.9570 O   0  0  0  0  0  0  0  0  0  0  0  0
   59.8410   30.9400   48.1700 C   0  0  0  0  0  0  0  0  0  0  0  0
   62.7946   33.1598   47.8016 H   0  0  0  0  0  0  0  0  0  0  0  0
   62.0506   32.5736   46.2753 H   0  0  0  0  0  0  0  0  0  0  0  0
   63.0354   34.0759   46.2753 H   0  0  0  0  0  0  0  0  0  0  0  0
   60.1653   35.4596   44.9353 H   0  0  0  0  0  0  0  0  0  0  0  0
   57.9085   35.0738   43.9548 H   0  0  0  0  0  0  0  0  0  0  0  0
   56.3571   33.4218   44.9943 H   0  0  0  0  0  0  0  0  0  0  0  0
   57.0628   32.1407   47.0089 H   0  0  0  0  0  0  0  0  0  0  0  0
   59.0385   33.8897   49.7074 H   0  0  0  0  0  0  0  0  0  0  0  0
   59.6920   32.5594   51.7115 H   0  0  0  0  0  0  0  0  0  0  0  0
   60.4328   30.1929   51.4572 H   0  0  0  0  0  0  0  0  0  0  0  0
   61.4465   28.6784   48.4291 H   0  0  0  0  0  0  0  0  0  0  0  0
   60.9513   28.3727   50.1351 H   0  0  0  0  0  0  0  0  0  0  0  0
   58.5320   28.2240   48.9690 H   0  0  0  0  0  0  0  0  0  0  0  0
   58.6222   24.9249   47.7258 H   0  0  0  0  0  0  0  0  0  0  0  0
   57.5892   26.4036   47.9175 H   0  0  0  0  0  0  0  0  0  0  0  0
   59.2550   25.8804   45.4218 H   0  0  0  0  0  0  0  0  0  0  0  0
   57.5555   25.2853   45.6225 H   0  0  0  0  0  0  0  0  0  0  0  0
   60.5628   28.1250   45.8683 H   0  0  0  0  0  0  0  0  0  0  0  0
   60.2645   27.2586   44.3233 H   0  0  0  0  0  0  0  0  0  0  0  0
   60.5016   29.0392   44.3233 H   0  0  0  0  0  0  0  0  0  0  0  0
   58.7063   30.4473   44.3642 H   0  0  0  0  0  0  0  0  0  0  0  0
   59.8765   30.4795   47.1716 H   0  0  0  0  0  0  0  0  0  0  0  0
  1  2  1  0
  2  3  1  0
  3  4  2  0
  4  5  1  0
  5  6  2  0
  6  7  1  0
  7  8  2  0
  8  9  1  0
  9 10  2  0
 10 11  1  0
 11 12  2  0
 12 13  1  0
 13 14  1  0
 14 15  1  0
 15 16  1  0
 16 17  2  0
 16 18  1  0
 18 19  1  0
 19 20  1  0
 20 21  1  0
 21 22  1  0
 21 23  2  0
 23 24  1  0
 24 25  2  0
 24 26  1  0
 26 27  1  0
 27 28  2  0
 13 29  2  0
  8  3  1  0
 29  9  1  0
 27 20  1  0
  1 30  1  0
  1 31  1  0
  1 32  1  0
  4 33  1  0
  5 34  1  0
  6 35  1  0
  7 36  1  0
 10 37  1  0
 11 38  1  0
 12 39  1  0
 14 40  1  0
 14 41  1  0
 15 42  1  0
 18 43  1  0
 18 44  1  0
 19 45  1  0
 19 46  1  0
 22 47  1  0
 22 48  1  0
 22 49  1  0
 23 50  1  0
 29 51  1  0
M  CHG  1  26  -1
M  END
>  <UniqueID>  (14) 
14

>  <SMILES>  (14) 
COc1ccccc1-c1cccc(CNC(=O)CCn2c(C)cc(=O)[n-]c2=O)c1

>  <Energy>  (14) 
58.04709322879855

>  <Genealogy>  (14) 
COc1ccccc1-c1cccc(CNC(=O)CCn2c(C)cc(=O)[n-]c2=O)c1 (protonated)
COc1ccccc1-c1cccc(CNC(=O)CCn2c(C)cc(=O)[n-]c2=O)c1 (3D coordinates assigned)
COc1ccccc1-c1cccc(CNC(=O)CCn2c(C)cc(=O)[n-]c2=O)c1 (optimized conformer: 58.04709322879855 kcal/mol)

>  <smiles>  (14) 
COc1ccccc1-c1cccc(CNC(=O)CCn2c(C)cc(=O)[nH]c2=O)c1

>  <score_type>  (14) 
oracle

>  <origin>  (14) 
adg

>  <m_score__min__energy>  (14) 
-10.81

>  <m_primary>  (14) 
energy

$$$$
14:0
     RDKit          3D

 48 51  0  0  0  0  0  0  0  0999 V2000
   58.8430   33.1590   49.8140 O   0  0  0  0  0  0  0  0  0  0  0  0
   59.1340   32.4660   48.8050 C   0  0  0  0  0  0  0  0  0  0  0  0
   59.5480   31.1060   48.9960 N   0  0  0  0  0  0  0  0  0  0  0  0
   60.7890   30.5090   48.5040 C   0  0  0  0  0  0  0  0  0  0  0  0
   61.8270   31.5630   48.2460 C   0  0  0  0  0  0  0  0  0  0  0  0
   62.7870   31.8760   49.2180 C   0  0  0  0  0  0  0  0  0  0  0  0
   63.7620   32.8330   48.9320 C   0  0  0  0  0  0  0  0  0  0  0  0
   63.7720   33.4660   47.6880 C   0  0  0  0  0  0  0  0  0  0  0  0
   62.7980   33.1320   46.7440 C   0  0  0  0  0  0  0  0  0  0  0  0
   61.8570   32.1960   47.0400 N   0  0  0  0  0  0  0  0  0  0  0  0
   58.9920   33.0620   47.4630 C   0  0  0  0  0  0  0  0  0  0  0  0
   59.3700   34.3950   47.2500 C   0  0  0  0  0  0  0  0  0  0  0  0
   59.2020   34.9820   45.9940 C   0  0  0  0  0  0  0  0  0  0  0  0
   58.6730   34.2380   44.9370 C   0  0  0  0  0  0  0  0  0  0  0  0
   58.3250   32.8900   45.1240 C   0  0  0  0  0  0  0  0  0  0  0  0
   57.7480   32.0840   43.9860 C   0  0  0  0  0  0  0  0  0  0  0  0
   57.2960   30.7220   44.4500 C   0  0  0  0  0  0  0  0  0  0  0  0
   55.9600   30.4730   44.4850 N   0  0  0  0  0  0  0  0  0  0  0  0
   55.4680   29.3000   44.8750 N   0  0  0  0  0  0  0  0  0  0  0  0
   56.2770   28.2800   45.2510 C   0  0  0  0  0  0  0  0  0  0  0  0
   55.7640   27.1890   45.6160 O   0  0  0  0  0  0  0  0  0  0  0  0
   57.6690   28.4520   45.2330 C   0  0  0  0  0  0  0  0  0  0  0  0
   58.2000   29.7140   44.8660 C   0  0  0  0  0  0  0  0  0  0  0  0
   59.6340   29.9300   44.7820 N   0  0  0  0  0  0  0  0  0  0  0  0
   60.4160   28.9990   45.6080 C   0  0  0  0  0  0  0  0  0  0  0  0
   60.0260   27.5550   45.3090 C   0  0  0  0  0  0  0  0  0  0  0  0
   58.5680   27.3270   45.6970 C   0  0  0  0  0  0  0  0  0  0  0  0
   58.4840   32.3090   46.3930 C   0  0  0  0  0  0  0  0  0  0  0  0
   61.1718   29.8034   49.2561 H   0  0  0  0  0  0  0  0  0  0  0  0
   60.5767   29.9870   47.5593 H   0  0  0  0  0  0  0  0  0  0  0  0
   62.7722   31.3727   50.1960 H   0  0  0  0  0  0  0  0  0  0  0  0
   64.5214   33.0880   49.6859 H   0  0  0  0  0  0  0  0  0  0  0  0
   64.5384   34.2195   47.4536 H   0  0  0  0  0  0  0  0  0  0  0  0
   62.7922   33.6261   45.7612 H   0  0  0  0  0  0  0  0  0  0  0  0
   59.8006   34.9809   48.0754 H   0  0  0  0  0  0  0  0  0  0  0  0
   59.4870   36.0328   45.8368 H   0  0  0  0  0  0  0  0  0  0  0  0
   58.5283   34.7097   43.9538 H   0  0  0  0  0  0  0  0  0  0  0  0
   56.8860   32.6234   43.5664 H   0  0  0  0  0  0  0  0  0  0  0  0
   58.5314   31.9484   43.2258 H   0  0  0  0  0  0  0  0  0  0  0  0
   59.9280   29.8340   43.7820 H   0  0  0  0  0  0  0  0  0  0  0  0
   59.8680   30.8930   45.1100 H   0  0  0  0  0  0  0  0  0  0  0  0
   61.4859   29.1362   45.3923 H   0  0  0  0  0  0  0  0  0  0  0  0
   60.2105   29.2086   46.6681 H   0  0  0  0  0  0  0  0  0  0  0  0
   60.1542   27.3563   44.2347 H   0  0  0  0  0  0  0  0  0  0  0  0
   60.6685   26.8759   45.8887 H   0  0  0  0  0  0  0  0  0  0  0  0
   58.2231   26.3873   45.2410 H   0  0  0  0  0  0  0  0  0  0  0  0
   58.5142   27.2835   46.7948 H   0  0  0  0  0  0  0  0  0  0  0  0
   58.2082   31.2557   46.5494 H   0  0  0  0  0  0  0  0  0  0  0  0
  1  2  2  0
  2  3  1  0
  3  4  1  0
  4  5  1  0
  5  6  2  0
  6  7  1  0
  7  8  2  0
  8  9  1  0
  9 10  2  0
  2 11  1  0
 11 12  2  0
 12 13  1  0
 13 14  2  0
 14 15  1  0
 15 16  1  0
 16 17  1  0
 17 18  2  0
 18 19  1  0
 19 20  1  0
 20 21  2  0
 20 22  1  0
 22 23  2  0
 23 24  1  0
 24 25  1  0
 25 26  1  0
 26 27  1  0
 15 28  2  0
 10  5  1  0
 28 11  1  0
 23 17  1  0
 27 22  1  0
  4 29  1  0
  4 30  1  0
  6 31  1  0
  7 32  1  0
  8 33  1  0
  9 34  1  0
 12 35  1  0
 13 36  1  0
 14 37  1  0
 16 38  1  0
 16 39  1  0
 24 40  1  0
 24 41  1  0
 25 42  1  0
 25 43  1  0
 26 44  1  0
 26 45  1  0
 27 46  1  0
 27 47  1  0
 28 48  1  0
M  CHG  3   3  -1  19  -1  24   1
M  END
>  <UniqueID>  (15) 
15

>  <SMILES>  (15) 
O=C([N-]Cc1ccccn1)c1cccc(Cc2n[n-]c(=O)c3c2[NH2+]CCC3)c1

>  <Energy>  (15) 
59.41873415433943

>  <Genealogy>  (15) 
O=C([N-]Cc1ccccn1)c1cccc(Cc2n[n-]c(=O)c3c2[NH2+]CCC3)c1 (protonated)
O=C([N-]Cc1ccccn1)c1cccc(Cc2n[n-]c(=O)c3c2[NH2+]CCC3)c1 (3D coordinates assigned)
O=C([N-]Cc1ccccn1)c1cccc(Cc2n[n-]c(=O)c3c2[NH2+]CCC3)c1 (nonaromatic ring conformer: 59.41873415433943 kcal/mol)

>  <smiles>  (15) 
O=C(NCc1ccccn1)c1cccc(Cc2n[nH]c(=O)c3c2NCCC3)c1

>  <score_type>  (15) 
oracle

>  <origin>  (15) 
adg

>  <m_score__min__energy>  (15) 
-12.01

>  <m_primary>  (15) 
energy

$$$$
15:0
     RDKit          3D

 37 38  0  0  0  0  0  0  0  0999 V2000
   60.5140   27.1540   48.7810 C   0  0  0  0  0  0  0  0  0  0  0  0
   60.9370   26.8650   47.4530 O   0  0  0  0  0  0  0  0  0  0  0  0
   60.2520   27.3270   46.3250 C   0  0  0  0  0  0  0  0  0  0  0  0
   60.8730   27.9520   45.4210 O   0  0  0  0  0  0  0  0  0  0  0  0
   58.7990   27.0820   46.1940 C   0  0  0  0  0  0  0  0  0  0  0  0
   58.2510   25.8390   46.5460 C   0  0  0  0  0  0  0  0  0  0  0  0
   56.9130   25.6250   46.4450 N   0  0  0  0  0  0  0  0  0  0  0  0
   56.0630   26.5850   45.9960 C   0  0  0  0  0  0  0  0  0  0  0  0
   54.8290   26.3350   45.9270 O   0  0  0  0  0  0  0  0  0  0  0  0
   56.5550   27.8370   45.6070 C   0  0  0  0  0  0  0  0  0  0  0  0
   55.6350   28.8470   45.1600 N   0  0  0  0  0  0  0  0  0  0  0  0
   55.8210   29.7460   44.0590 C   0  0  0  0  0  0  0  0  0  0  0  0
   55.1080   29.6520   43.0250 O   0  0  0  0  0  0  0  0  0  0  0  0
   56.8130   30.8200   44.1610 C   0  0  0  0  0  0  0  0  0  0  0  0
   57.9030   30.7290   43.5330 O   0  0  0  0  0  0  0  0  0  0  0  0
   56.5410   31.9670   44.9750 N   0  0  0  0  0  0  0  0  0  0  0  0
   57.2930   33.2140   44.8880 C   0  0  0  0  0  0  0  0  0  0  0  0
   58.5430   33.1350   45.7290 C   0  0  0  0  0  0  0  0  0  0  0  0
   59.4880   34.1750   45.6500 C   0  0  0  0  0  0  0  0  0  0  0  0
   60.6490   34.1400   46.4230 C   0  0  0  0  0  0  0  0  0  0  0  0
   60.8830   33.0700   47.2850 C   0  0  0  0  0  0  0  0  0  0  0  0
   59.9550   32.0300   47.3830 C   0  0  0  0  0  0  0  0  0  0  0  0
   60.2740   30.6970   48.4840 Cl  0  0  0  0  0  0  0  0  0  0  0  0
   58.7810   32.0530   46.6120 C   0  0  0  0  0  0  0  0  0  0  0  0
   57.8740   30.9980   46.7460 O   0  0  0  0  0  0  0  0  0  0  0  0
   57.9330   28.0860   45.7280 C   0  0  0  0  0  0  0  0  0  0  0  0
   61.2040   26.6826   49.4964 H   0  0  0  0  0  0  0  0  0  0  0  0
   60.5122   28.2430   48.9365 H   0  0  0  0  0  0  0  0  0  0  0  0
   59.4989   26.7598   48.9365 H   0  0  0  0  0  0  0  0  0  0  0  0
   58.9082   25.0335   46.9056 H   0  0  0  0  0  0  0  0  0  0  0  0
   57.5725   33.3962   43.8398 H   0  0  0  0  0  0  0  0  0  0  0  0
   56.6642   34.0362   45.2603 H   0  0  0  0  0  0  0  0  0  0  0  0
   59.3096   35.0232   44.9726 H   0  0  0  0  0  0  0  0  0  0  0  0
   61.3808   34.9582   46.3520 H   0  0  0  0  0  0  0  0  0  0  0  0
   61.8012   33.0442   47.8901 H   0  0  0  0  0  0  0  0  0  0  0  0
   57.0220   30.9250   46.2050 H   0  0  0  0  0  0  0  0  0  0  0  0
   58.3361   29.0728   45.4563 H   0  0  0  0  0  0  0  0  0  0  0  0
  1  2  1  0
  2  3  1  0
  3  4  2  0
  3  5  1  0
  5  6  2  0
  6  7  1  0
  7  8  1  0
  8  9  2  0
  8 10  1  0
 10 11  1  0
 11 12  1  0
 12 13  2  0
 12 14  1  0
 14 15  2  0
 14 16  1  0
 16 17  1  0
 17 18  1  0
 18 19  2  0
 19 20  1  0
 20 21  2  0
 21 22  1  0
 22 23  1  0
 22 24  2  0
 24 25  1  0
 10 26  2  0
 26  5  1  0
 24 18  1  0
  1 27  1  0
  1 28  1  0
  1 29  1  0
  6 30  1  0
 17 31  1  0
 17 32  1  0
 19 33  1  0
 20 34  1  0
 21 35  1  0
 25 36  1  0
 26 37  1  0
M  CHG  3   7  -1  11  -1  16  -1
M  END
>  <UniqueID>  (16) 
16

>  <SMILES>  (16) 
COC(=O)c1c[n-]c(=O)c([N-]C(=O)C(=O)[N-]Cc2cccc(Cl)c2O)c1

>  <Energy>  (16) 
38.751349856070824

>  <Genealogy>  (16) 
COC(=O)c1c[n-]c(=O)c([N-]C(=O)C(=O)[N-]Cc2cccc(Cl)c2O)c1 (protonated)
COC(=O)c1c[n-]c(=O)c([N-]C(=O)C(=O)[N-]Cc2cccc(Cl)c2O)c1 (3D coordinates assigned)
COC(=O)c1c[n-]c(=O)c([N-]C(=O)C(=O)[N-]Cc2cccc(Cl)c2O)c1 (optimized conformer: 38.751349856070824 kcal/mol)

>  <smiles>  (16) 
COC(=O)c1c[nH]c(=O)c(NC(=O)C(=O)NCc2cccc(Cl)c2O)c1

>  <score_type>  (16) 
oracle

>  <origin>  (16) 
adg

>  <m_score__min__energy>  (16) 
-12.43

>  <m_primary>  (16) 
energy

$$$$
16:0
     RDKit          3D

 58 61  0  0  0  0  0  0  0  0999 V2000
   63.4870   33.6530   51.3730 C   0  0  0  0  0  0  0  0  0  0  0  0
   63.2770   33.6330   49.8900 C   0  0  0  0  0  0  0  0  0  0  0  0
   64.2940   33.1760   49.0390 C   0  0  0  0  0  0  0  0  0  0  0  0
   64.0530   33.0290   47.6690 C   0  0  0  0  0  0  0  0  0  0  0  0
   62.8010   33.3460   47.1370 C   0  0  0  0  0  0  0  0  0  0  0  0
   61.7750   33.8200   47.9720 C   0  0  0  0  0  0  0  0  0  0  0  0
   60.4690   34.0990   47.4340 N   0  0  0  0  0  0  0  0  0  0  0  0
   59.2600   33.8650   48.2300 C   0  0  0  0  0  0  0  0  0  0  0  0
   58.2680   32.9780   47.4500 C   0  0  0  0  0  0  0  0  0  0  0  0
   58.4580   33.0460   45.9780 N   0  0  0  0  0  0  0  0  0  0  0  0
   57.2280   32.6320   45.2690 C   0  0  0  0  0  0  0  0  0  0  0  0
   57.4480   32.5910   43.7500 C   0  0  0  0  0  0  0  0  0  0  0  0
   58.5010   31.5560   43.3260 C   0  0  0  0  0  0  0  0  0  0  0  0
   58.1070   30.1950   43.6920 N   0  0  0  0  0  0  0  0  0  0  0  0
   58.6190   29.5360   44.8700 C   0  0  0  0  0  0  0  0  0  0  0  0
   59.1210   30.2650   45.8260 N   0  0  0  0  0  0  0  0  0  0  0  0
   59.7150   29.8530   47.0710 C   0  0  0  0  0  0  0  0  0  0  0  0
   60.7020   30.7030   47.5950 C   0  0  0  0  0  0  0  0  0  0  0  0
   61.3230   30.4230   48.8130 C   0  0  0  0  0  0  0  0  0  0  0  0
   60.9670   29.2780   49.5240 C   0  0  0  0  0  0  0  0  0  0  0  0
   59.9640   28.4340   49.0400 C   0  0  0  0  0  0  0  0  0  0  0  0
   59.3090   28.7090   47.8260 C   0  0  0  0  0  0  0  0  0  0  0  0
   58.2030   27.8550   47.4600 N   0  0  0  0  0  0  0  0  0  0  0  0
   57.7630   27.6380   46.1160 C   0  0  0  0  0  0  0  0  0  0  0  0
   56.6310   27.1240   45.9090 O   0  0  0  0  0  0  0  0  0  0  0  0
   58.6330   28.0340   44.9770 C   0  0  1  0  0  0  0  0  0  0  0  0
   58.1880   27.1590   43.4800 Cl  0  0  0  0  0  0  0  0  0  0  0  0
   58.9010   34.3920   45.5560 C   0  0  0  0  0  0  0  0  0  0  0  0
   60.3230   34.6350   46.0750 C   0  0  0  0  0  0  0  0  0  0  0  0
   62.0160   33.9440   49.3530 C   0  0  0  0  0  0  0  0  0  0  0  0
   62.5163   33.5605   51.8821 H   0  0  0  0  0  0  0  0  0  0  0  0
   64.1346   32.8125   51.6630 H   0  0  0  0  0  0  0  0  0  0  0  0
   63.9643   34.6007   51.6630 H   0  0  0  0  0  0  0  0  0  0  0  0
   65.2846   32.9323   49.4504 H   0  0  0  0  0  0  0  0  0  0  0  0
   64.8524   32.6624   47.0082 H   0  0  0  0  0  0  0  0  0  0  0  0
   62.6173   33.2240   46.0593 H   0  0  0  0  0  0  0  0  0  0  0  0
   59.5355   33.3622   49.1688 H   0  0  0  0  0  0  0  0  0  0  0  0
   58.7816   34.8317   48.4461 H   0  0  0  0  0  0  0  0  0  0  0  0
   58.4027   31.9350   47.7725 H   0  0  0  0  0  0  0  0  0  0  0  0
   57.2555   33.3490   47.6674 H   0  0  0  0  0  0  0  0  0  0  0  0
   56.9341   31.6303   45.6159 H   0  0  0  0  0  0  0  0  0  0  0  0
   56.4378   33.3658   45.4862 H   0  0  0  0  0  0  0  0  0  0  0  0
   56.4937   32.3401   43.2638 H   0  0  0  0  0  0  0  0  0  0  0  0
   57.8161   33.5811   43.4430 H   0  0  0  0  0  0  0  0  0  0  0  0
   58.6308   31.6073   42.2349 H   0  0  0  0  0  0  0  0  0  0  0  0
   59.4399   31.7912   43.8487 H   0  0  0  0  0  0  0  0  0  0  0  0
   57.5170   29.6780   43.0040 H   0  0  0  0  0  0  0  0  0  0  0  0
   60.9908   31.6052   47.0359 H   0  0  0  0  0  0  0  0  0  0  0  0
   62.0906   31.1033   49.2105 H   0  0  0  0  0  0  0  0  0  0  0  0
   61.4771   29.0382   50.4686 H   0  0  0  0  0  0  0  0  0  0  0  0
   59.6824   27.5409   49.6172 H   0  0  0  0  0  0  0  0  0  0  0  0
   57.7510   27.2790   48.2110 H   0  0  0  0  0  0  0  0  0  0  0  0
   59.6767   27.7340   45.1520 H   0  0  0  0  0  0  0  0  0  0  0  0
   58.8934   34.4553   44.4579 H   0  0  0  0  0  0  0  0  0  0  0  0
   58.2206   35.1528   45.9662 H   0  0  0  0  0  0  0  0  0  0  0  0
   61.0424   34.1360   45.4091 H   0  0  0  0  0  0  0  0  0  0  0  0
   60.5159   35.7178   46.0952 H   0  0  0  0  0  0  0  0  0  0  0  0
   61.2100   34.2875   50.0182 H   0  0  0  0  0  0  0  0  0  0  0  0
  1  2  1  0
  2  3  2  0
  3  4  1  0
  4  5  2  0
  5  6  1  0
  6  7  1  0
  7  8  1  0
  8  9  1  0
  9 10  1  0
 10 11  1  0
 11 12  1  0
 12 13  1  0
 13 14  1  0
 14 15  1  0
 15 16  2  0
 16 17  1  0
 17 18  2  0
 18 19  1  0
 19 20  2  0
 20 21  1  0
 21 22  2  0
 22 23  1  0
 23 24  1  0
 24 25  2  0
 24 26  1  0
 26 27  1  0
 10 28  1  0
 28 29  1  0
  6 30  2  0
 30  2  1  0
 29  7  1  0
 26 15  1  0
 22 17  1  0
  1 31  1  0
  1 32  1  0
  1 33  1  0
  3 34  1  0
  4 35  1  0
  5 36  1  0
  8 37  1  0
  8 38  1  0
  9 39  1  0
  9 40  1  0
 11 41  1  0
 11 42  1  0
 12 43  1  0
 12 44  1  0
 13 45  1  0
 13 46  1  0
 14 47  1  0
 18 48  1  0
 19 49  1  0
 20 50  1  0
 21 51  1  0
 23 52  1  0
 26 53  1  1
 28 54  1  0
 28 55  1  0
 29 56  1  0
 29 57  1  0
 30 58  1  0
M  END
>  <UniqueID>  (17) 
17

>  <SMILES>  (17) 
Cc1cccc(N2CCN(CCCNC3=Nc4ccccc4NC(=O)[C@H]3Cl)CC2)c1

>  <Energy>  (17) 
76.43104500586124

>  <Genealogy>  (17) 
Cc1cccc(N2CCN(CCCNC3=Nc4ccccc4NC(=O)[C@H]3Cl)CC2)c1 (chirality)
Cc1cccc(N2CCN(CCCNC3=Nc4ccccc4NC(=O)[C@H]3Cl)CC2)c1 (3D coordinates assigned)
Cc1cccc(N2CCN(CCCNC3=Nc4ccccc4NC(=O)[C@H]3Cl)CC2)c1 (nonaromatic ring conformer: 76.43104500586124 kcal/mol)

>  <smiles>  (17) 
Cc1cccc(N2CCN(CCCNC3=Nc4ccccc4NC(=O)C3Cl)CC2)c1

>  <score_type>  (17) 
oracle

>  <origin>  (17) 
adg

>  <m_score__min__energy>  (17) 
-8.4499999999999993

>  <m_primary>  (17) 
energy

$$$$
17:0
     RDKit          3D

 13 13  0  0  0  0  0  0  0  0999 V2000
   56.8370   34.5170   44.9750 O   0  0  0  0  0  0  0  0  0  0  0  0
   57.5450   33.6740   45.5880 C   0  0  0  0  0  0  0  0  0  0  0  0
   57.5420   33.6500   46.9760 O   0  0  0  0  0  0  0  0  0  0  0  0
   58.3450   32.6690   44.8240 C   0  0  0  0  0  0  0  0  0  0  0  0
   57.4440   31.6130   44.2720 C   0  0  0  0  0  0  0  0  0  0  0  0
   56.6830   30.8050   45.0430 N   0  0  0  0  0  0  0  0  0  0  0  0
   56.0050   29.8970   44.2930 C   0  0  0  0  0  0  0  0  0  0  0  0
   55.1520   28.9650   44.8690 O   0  0  0  0  0  0  0  0  0  0  0  0
   56.2250   29.9600   42.9230 C   0  0  0  0  0  0  0  0  0  0  0  0
   57.3180   31.2080   42.6450 S   0  0  0  0  0  0  0  0  0  0  0  0
   58.8671   33.1717   43.9965 H   0  0  0  0  0  0  0  0  0  0  0  0
   59.0781   32.2023   45.4984 H   0  0  0  0  0  0  0  0  0  0  0  0
   55.7683   29.3126   42.1599 H   0  0  0  0  0  0  0  0  0  0  0  0
  1  2  2  0
  2  3  1  0
  2  4  1  0
  4  5  1  0
  5  6  2  0
  6  7  1  0
  7  8  1  0
  7  9  2  0
  9 10  1  0
 10  5  1  0
  4 11  1  0
  4 12  1  0
  9 13  1  0
M  CHG  2   3  -1   8  -1
M  END
>  <UniqueID>  (18) 
18

>  <SMILES>  (18) 
O=C([O-])Cc1nc([O-])cs1

>  <Energy>  (18) 
38.528048003374465

>  <Genealogy>  (18) 
O=C([O-])Cc1nc([O-])cs1 (protonated)
O=C([O-])Cc1nc([O-])cs1 (3D coordinates assigned)
O=C([O-])Cc1nc([O-])cs1 (optimized conformer: 38.528048003374465 kcal/mol)

>  <smiles>  (18) 
O=C(O)Cc1nc(O)cs1

>  <score_type>  (18) 
oracle

>  <origin>  (18) 
adg

>  <m_score__min__energy>  (18) 
-10.789999999999999

>  <m_primary>  (18) 
energy

$$$$
18:0
     RDKit          3D

 64 67  0  0  0  0  0  0  0  0999 V2000
   58.2360   24.3690   44.8240 C   0  0  0  0  0  0  0  0  0  0  0  0
   57.8710   25.8240   44.6890 C   0  0  0  0  0  0  0  0  0  0  0  0
   58.1680   26.5020   43.4940 C   0  0  0  0  0  0  0  0  0  0  0  0
   57.8450   27.8500   43.3430 C   0  0  0  0  0  0  0  0  0  0  0  0
   57.2190   28.5460   44.3810 C   0  0  0  0  0  0  0  0  0  0  0  0
   56.8010   30.2510   44.1850 S   0  0  0  0  0  0  0  0  0  0  0  0
   55.3050   30.3980   44.1720 O   0  0  0  0  0  0  0  0  0  0  0  0
   57.3270   30.7380   42.8630 O   0  0  0  0  0  0  0  0  0  0  0  0
   57.4700   31.2310   45.4670 N   0  0  0  0  0  0  0  0  0  0  0  0
   58.2220   32.3640   44.9070 C   0  0  0  0  0  0  0  0  0  0  0  0
   58.6770   33.3060   46.0390 C   0  0  0  0  0  0  0  0  0  0  0  0
   58.5740   32.6600   47.3700 N   0  0  0  0  0  0  0  0  0  0  0  0
   59.2580   33.4600   48.4040 C   0  0  0  0  0  0  0  0  0  0  0  0
   60.5730   32.8340   48.7780 C   0  0  0  0  0  0  0  0  0  0  0  0
   61.7810   32.9410   48.1070 C   0  0  0  0  0  0  0  0  0  0  0  0
   62.0390   33.7430   46.8730 C   0  0  0  0  0  0  0  0  0  0  0  0
   62.6940   32.1210   48.6690 N   0  0  0  0  0  0  0  0  0  0  0  0
   62.1090   31.5090   49.6880 N   0  0  0  0  0  0  0  0  0  0  0  0
   62.7780   30.5180   50.5220 C   0  0  0  0  0  0  0  0  0  0  0  0
   60.8230   31.9080   49.7710 C   0  0  0  0  0  0  0  0  0  0  0  0
   59.8620   31.3990   50.7060 N   0  0  0  0  0  0  0  0  0  0  0  0
   59.0370   32.3300   51.4810 C   0  0  0  0  0  0  0  0  0  0  0  0
   57.5980   31.7900   51.6640 C   0  0  0  0  0  0  0  0  0  0  0  0
   57.4140   30.4810   51.1520 O   0  0  0  0  0  0  0  0  0  0  0  0
   58.4330   29.6280   51.6310 C   0  0  0  0  0  0  0  0  0  0  0  0
   59.7460   29.9520   50.9180 C   0  0  0  0  0  0  0  0  0  0  0  0
   59.1350   31.2950   47.3220 C   0  0  0  0  0  0  0  0  0  0  0  0
   58.3400   30.4160   46.3350 C   0  0  0  0  0  0  0  0  0  0  0  0
   56.9210   27.8830   45.5790 C   0  0  0  0  0  0  0  0  0  0  0  0
   57.2430   26.5250   45.7460 C   0  0  0  0  0  0  0  0  0  0  0  0
   56.9040   25.8410   47.0440 C   0  0  0  0  0  0  0  0  0  0  0  0
   58.3022   24.1050   45.8898 H   0  0  0  0  0  0  0  0  0  0  0  0
   57.4650   23.7512   44.3404 H   0  0  0  0  0  0  0  0  0  0  0  0
   59.2073   24.1882   44.3404 H   0  0  0  0  0  0  0  0  0  0  0  0
   58.6599   25.9640   42.6702 H   0  0  0  0  0  0  0  0  0  0  0  0
   58.0840   28.3681   42.4026 H   0  0  0  0  0  0  0  0  0  0  0  0
   59.1049   31.9858   44.3709 H   0  0  0  0  0  0  0  0  0  0  0  0
   57.5740   32.9198   44.2134 H   0  0  0  0  0  0  0  0  0  0  0  0
   59.7241   33.5936   45.8632 H   0  0  0  0  0  0  0  0  0  0  0  0
   58.0182   34.1869   46.0354 H   0  0  0  0  0  0  0  0  0  0  0  0
   59.4381   34.4734   48.0159 H   0  0  0  0  0  0  0  0  0  0  0  0
   58.6193   33.5014   49.2986 H   0  0  0  0  0  0  0  0  0  0  0  0
   62.3646   34.7552   47.1549 H   0  0  0  0  0  0  0  0  0  0  0  0
   62.8262   33.2571   46.2778 H   0  0  0  0  0  0  0  0  0  0  0  0
   61.1162   33.8072   46.2778 H   0  0  0  0  0  0  0  0  0  0  0  0
   62.6143   30.7605   51.5824 H   0  0  0  0  0  0  0  0  0  0  0  0
   62.3678   29.5203   50.3065 H   0  0  0  0  0  0  0  0  0  0  0  0
   63.8567   30.5254   50.3065 H   0  0  0  0  0  0  0  0  0  0  0  0
   59.4939   32.4743   52.4712 H   0  0  0  0  0  0  0  0  0  0  0  0
   58.9827   33.2828   50.9340 H   0  0  0  0  0  0  0  0  0  0  0  0
   57.3647   31.7790   52.7389 H   0  0  0  0  0  0  0  0  0  0  0  0
   56.9293   32.4550   51.0977 H   0  0  0  0  0  0  0  0  0  0  0  0
   58.5572   29.7772   52.7137 H   0  0  0  0  0  0  0  0  0  0  0  0
   58.1576   28.5814   51.4343 H   0  0  0  0  0  0  0  0  0  0  0  0
   60.5892   29.6060   51.5338 H   0  0  0  0  0  0  0  0  0  0  0  0
   59.7606   29.4434   49.9428 H   0  0  0  0  0  0  0  0  0  0  0  0
   60.1843   31.3466   46.9959 H   0  0  0  0  0  0  0  0  0  0  0  0
   59.0700   30.8493   48.3256 H   0  0  0  0  0  0  0  0  0  0  0  0
   59.0471   29.8545   45.7067 H   0  0  0  0  0  0  0  0  0  0  0  0
   57.7046   29.7316   46.9163 H   0  0  0  0  0  0  0  0  0  0  0  0
   56.4302   28.4308   46.3969 H   0  0  0  0  0  0  0  0  0  0  0  0
   57.2184   26.4754   47.8858 H   0  0  0  0  0  0  0  0  0  0  0  0
   55.8182   25.6728   47.0972 H   0  0  0  0  0  0  0  0  0  0  0  0
   57.4277   24.8751   47.0972 H   0  0  0  0  0  0  0  0  0  0  0  0
  1  2  1  0
  2  3  2  0
  3  4  1  0
  4  5  2  0
  5  6  1  0
  6  7  2  0
  6  8  2  0
  6  9  1  0
  9 10  1  0
 10 11  1  0
 11 12  1  0
 12 13  1  0
 13 14  1  0
 14 15  1  0
 15 16  1  0
 15 17  2  0
 17 18  1  0
 18 19  1  0
 18 20  1  0
 20 21  1  0
 21 22  1  0
 22 23  1  0
 23 24  1  0
 24 25  1  0
 25 26  1  0
 12 27  1  0
 27 28  1  0
  5 29  1  0
 29 30  2  0
 30 31  1  0
 30  2  1  0
 28  9  1  0
 20 14  2  0
 26 21  1  0
  1 32  1  0
  1 33  1  0
  1 34  1  0
  3 35  1  0
  4 36  1  0
 10 37  1  0
 10 38  1  0
 11 39  1  0
 11 40  1  0
 13 41  1  0
 13 42  1  0
 16 43  1  0
 16 44  1  0
 16 45  1  0
 19 46  1  0
 19 47  1  0
 19 48  1  0
 22 49  1  0
 22 50  1  0
 23 51  1  0
 23 52  1  0
 25 53  1  0
 25 54  1  0
 26 55  1  0
 26 56  1  0
 27 57  1  0
 27 58  1  0
 28 59  1  0
 28 60  1  0
 29 61  1  0
 31 62  1  0
 31 63  1  0
 31 64  1  0
M  END
>  <UniqueID>  (19) 
19

>  <SMILES>  (19) 
Cc1ccc(S(=O)(=O)N2CCN(Cc3c(C)nn(C)c3N3CCOCC3)CC2)cc1C

>  <Energy>  (19) 
109.0273829117118

>  <Genealogy>  (19) 
Cc1ccc(S(=O)(=O)N2CCN(Cc3c(C)nn(C)c3N3CCOCC3)CC2)cc1C (3D coordinates assigned)
Cc1ccc(S(=O)(=O)N2CCN(Cc3c(C)nn(C)c3N3CCOCC3)CC2)cc1C (nonaromatic ring conformer: 109.0273829117118 kcal/mol)

>  <smiles>  (19) 
Cc1ccc(S(=O)(=O)N2CCN(Cc3c(C)nn(C)c3N3CCOCC3)CC2)cc1C

>  <score_type>  (19) 
oracle

>  <origin>  (19) 
adg

>  <m_score__min__energy>  (19) 
-9.4900000000000002

>  <m_primary>  (19) 
energy

$$$$
19:0
     RDKit          3D

 46 48  0  0  0  0  0  0  0  0999 V2000
   55.1290   29.3470   44.9040 O   0  0  0  0  0  0  0  0  0  0  0  0
   56.3560   29.0720   44.8370 C   0  0  0  0  0  0  0  0  0  0  0  0
   56.8380   27.8880   45.4830 N   0  0  0  0  0  0  0  0  0  0  0  0
   58.1260   27.7170   46.0890 C   0  0  0  0  0  0  0  0  0  0  0  0
   59.2140   27.1760   45.3810 C   0  0  0  0  0  0  0  0  0  0  0  0
   60.4450   26.9970   46.0160 C   0  0  0  0  0  0  0  0  0  0  0  0
   60.5990   27.3380   47.3610 C   0  0  0  0  0  0  0  0  0  0  0  0
   59.5120   27.8600   48.0880 C   0  0  0  0  0  0  0  0  0  0  0  0
   59.6110   28.2090   49.4430 O   0  0  0  0  0  0  0  0  0  0  0  0
   60.8340   28.4930   50.1150 C   0  0  0  0  0  0  0  0  0  0  0  0
   61.0590   29.9700   50.1270 C   0  0  0  0  0  0  0  0  0  0  0  0
   62.1080   30.4380   50.6480 O   0  0  0  0  0  0  0  0  0  0  0  0
   60.0920   30.8460   49.5320 N   0  0  0  0  0  0  0  0  0  0  0  0
   60.2390   32.2990   49.5390 C   0  0  0  0  0  0  0  0  0  0  0  0
   61.4830   32.6990   48.7940 C   0  0  0  0  0  0  0  0  0  0  0  0
   61.9970   31.8970   47.7650 C   0  0  0  0  0  0  0  0  0  0  0  0
   63.1620   32.2790   47.0980 C   0  0  0  0  0  0  0  0  0  0  0  0
   63.8060   33.4610   47.4690 C   0  0  0  0  0  0  0  0  0  0  0  0
   63.3010   34.2260   48.4720 N   0  0  0  0  0  0  0  0  0  0  0  0
   62.1670   33.8760   49.1370 C   0  0  0  0  0  0  0  0  0  0  0  0
   58.2810   28.0360   47.4440 C   0  0  0  0  0  0  0  0  0  0  0  0
   57.2560   29.9340   44.1270 N   0  0  0  0  0  0  0  0  0  0  0  0
   57.8260   31.1490   44.6310 C   0  0  0  0  0  0  0  0  0  0  0  0
   58.2030   31.2040   45.9790 C   0  0  0  0  0  0  0  0  0  0  0  0
   58.7510   32.3730   46.5150 C   0  0  0  0  0  0  0  0  0  0  0  0
   58.9080   33.5060   45.7120 C   0  0  0  0  0  0  0  0  0  0  0  0
   59.6500   35.1040   46.4460 Br  0  0  0  0  0  0  0  0  0  0  0  0
   58.5030   33.4720   44.3740 C   0  0  0  0  0  0  0  0  0  0  0  0
   57.9550   32.3040   43.8320 C   0  0  0  0  0  0  0  0  0  0  0  0
   57.4990   32.3250   42.5540 F   0  0  0  0  0  0  0  0  0  0  0  0
   59.0952   26.8932   44.3246 H   0  0  0  0  0  0  0  0  0  0  0  0
   61.2966   26.5857   45.4541 H   0  0  0  0  0  0  0  0  0  0  0  0
   61.5723   27.1985   47.8542 H   0  0  0  0  0  0  0  0  0  0  0  0
   60.7803   28.1210   51.1488 H   0  0  0  0  0  0  0  0  0  0  0  0
   61.6655   27.9977   49.5922 H   0  0  0  0  0  0  0  0  0  0  0  0
   59.2540   30.4310   49.0640 H   0  0  0  0  0  0  0  0  0  0  0  0
   59.3630   32.7551   49.0547 H   0  0  0  0  0  0  0  0  0  0  0  0
   60.3165   32.6468   50.5797 H   0  0  0  0  0  0  0  0  0  0  0  0
   61.4820   30.9667   47.4834 H   0  0  0  0  0  0  0  0  0  0  0  0
   63.5686   31.6552   46.2883 H   0  0  0  0  0  0  0  0  0  0  0  0
   64.7234   33.7733   46.9486 H   0  0  0  0  0  0  0  0  0  0  0  0
   61.7851   34.5168   49.9454 H   0  0  0  0  0  0  0  0  0  0  0  0
   57.4241   28.4301   48.0100 H   0  0  0  0  0  0  0  0  0  0  0  0
   58.0668   30.3208   46.6205 H   0  0  0  0  0  0  0  0  0  0  0  0
   59.0592   32.4011   47.5706 H   0  0  0  0  0  0  0  0  0  0  0  0
   58.6157   34.3672   43.7448 H   0  0  0  0  0  0  0  0  0  0  0  0
  1  2  2  0
  2  3  1  0
  3  4  1  0
  4  5  2  0
  5  6  1  0
  6  7  2  0
  7  8  1  0
  8  9  1  0
  9 10  1  0
 10 11  1  0
 11 12  2  0
 11 13  1  0
 13 14  1  0
 14 15  1  0
 15 16  2  0
 16 17  1  0
 17 18  2  0
 18 19  1  0
 19 20  2  0
  8 21  2  0
  2 22  1  0
 22 23  1  0
 23 24  2  0
 24 25  1  0
 25 26  2  0
 26 27  1  0
 26 28  1  0
 28 29  2  0
 29 30  1  0
 21  4  1  0
 29 23  1  0
 20 15  1  0
  5 31  1  0
  6 32  1  0
  7 33  1  0
 10 34  1  0
 10 35  1  0
 13 36  1  0
 14 37  1  0
 14 38  1  0
 16 39  1  0
 17 40  1  0
 18 41  1  0
 20 42  1  0
 21 43  1  0
 24 44  1  0
 25 45  1  0
 28 46  1  0
M  CHG  2   3  -1  22  -1
M  END
>  <UniqueID>  (20) 
20

>  <SMILES>  (20) 
O=C([N-]c1cccc(OCC(=O)NCc2cccnc2)c1)[N-]c1ccc(Br)cc1F

>  <Energy>  (20) 
53.55223908525172

>  <Genealogy>  (20) 
O=C([N-]c1cccc(OCC(=O)NCc2cccnc2)c1)[N-]c1ccc(Br)cc1F (protonated)
O=C([N-]c1cccc(OCC(=O)NCc2cccnc2)c1)[N-]c1ccc(Br)cc1F (3D coordinates assigned)
O=C([N-]c1cccc(OCC(=O)NCc2cccnc2)c1)[N-]c1ccc(Br)cc1F (optimized conformer: 53.55223908525172 kcal/mol)

>  <smiles>  (20) 
O=C(COc1cccc(NC(=O)Nc2ccc(Br)cc2F)c1)NCc1cccnc1

>  <score_type>  (20) 
oracle

>  <origin>  (20) 
adg

>  <m_score__min__energy>  (20) 
-11.609999999999999

>  <m_primary>  (20) 
energy

$$$$
20:0
     RDKit          3D

 61 63  0  0  0  0  0  0  0  0999 V2000
   63.2880   33.8670   46.3710 C   0  0  0  0  0  0  0  0  0  0  0  0
   63.2080   33.7590   47.8930 C   0  0  0  0  0  0  0  0  0  0  0  0
   61.8490   33.2030   48.3420 C   0  0  0  0  0  0  0  0  0  0  0  0
   60.8130   34.3150   48.5400 C   0  0  0  0  0  0  0  0  0  0  0  0
   59.5900   34.0420   47.7870 N   0  0  0  0  0  0  0  0  0  0  0  0
   59.3080   34.6460   46.5230 C   0  0  0  0  0  0  0  0  0  0  0  0
   60.1010   35.4960   46.0340 O   0  0  0  0  0  0  0  0  0  0  0  0
   58.1690   34.2380   45.8150 O   0  0  0  0  0  0  0  0  0  0  0  0
   57.8900   32.9230   45.4070 C   0  0  0  0  0  0  0  0  0  0  0  0
   58.0390   31.8910   46.3410 C   0  0  0  0  0  0  0  0  0  0  0  0
   57.7600   30.5670   45.9880 C   0  0  0  0  0  0  0  0  0  0  0  0
   57.3020   30.2600   44.6990 C   0  0  0  0  0  0  0  0  0  0  0  0
   57.0390   28.8280   44.3170 C   0  0  0  0  0  0  0  0  0  0  0  0
   56.0930   28.2260   45.2500 N   0  0  0  0  0  0  0  0  0  0  0  0
   56.3170   26.9640   45.8840 C   0  0  0  0  0  0  0  0  0  0  0  0
   55.3440   26.3030   46.3410 O   0  0  0  0  0  0  0  0  0  0  0  0
   57.7070   26.4140   45.9630 C   0  0  0  0  0  0  0  0  0  0  0  0
   58.4860   27.1040   46.9410 O   0  0  0  0  0  0  0  0  0  0  0  0
   59.4230   28.1220   46.6730 C   0  0  0  0  0  0  0  0  0  0  0  0
   59.8850   28.3800   45.3670 C   0  0  0  0  0  0  0  0  0  0  0  0
   60.8550   29.3570   45.1390 C   0  0  0  0  0  0  0  0  0  0  0  0
   61.3780   30.0850   46.2070 C   0  0  0  0  0  0  0  0  0  0  0  0
   60.9210   29.8540   47.5040 C   0  0  0  0  0  0  0  0  0  0  0  0
   59.9300   28.8890   47.7480 C   0  0  0  0  0  0  0  0  0  0  0  0
   59.4160   28.7140   49.1310 C   0  0  0  0  0  0  0  0  0  0  0  0
   60.0120   27.9340   49.9220 O   0  0  0  0  0  0  0  0  0  0  0  0
   58.2300   29.3860   49.5860 N   0  0  0  0  0  0  0  0  0  0  0  0
   58.1700   30.4520   50.3400 C   0  0  0  0  0  0  0  0  0  0  0  0
   59.0230   31.5630   50.1560 C   0  0  0  0  0  0  0  0  0  0  0  0
   58.8990   32.6730   50.9980 C   0  0  0  0  0  0  0  0  0  0  0  0
   57.9450   32.6710   52.0170 C   0  0  0  0  0  0  0  0  0  0  0  0
   57.1300   31.5480   52.1860 C   0  0  0  0  0  0  0  0  0  0  0  0
   57.2630   30.4760   51.3580 N   0  0  0  0  0  0  0  0  0  0  0  0
   57.1410   31.2930   43.7610 C   0  0  0  0  0  0  0  0  0  0  0  0
   57.4280   32.6160   44.1130 C   0  0  0  0  0  0  0  0  0  0  0  0
   63.9221   34.7231   46.0970 H   0  0  0  0  0  0  0  0  0  0  0  0
   63.7215   32.9433   45.9601 H   0  0  0  0  0  0  0  0  0  0  0  0
   62.2780   34.0124   45.9601 H   0  0  0  0  0  0  0  0  0  0  0  0
   64.0044   33.0879   48.2470 H   0  0  0  0  0  0  0  0  0  0  0  0
   63.3294   34.7657   48.3194 H   0  0  0  0  0  0  0  0  0  0  0  0
   61.4797   32.5053   47.5759 H   0  0  0  0  0  0  0  0  0  0  0  0
   61.9911   32.6941   49.3068 H   0  0  0  0  0  0  0  0  0  0  0  0
   60.5664   34.3886   49.6095 H   0  0  0  0  0  0  0  0  0  0  0  0
   61.2427   35.2590   48.1737 H   0  0  0  0  0  0  0  0  0  0  0  0
   58.8740   33.4060   48.2050 H   0  0  0  0  0  0  0  0  0  0  0  0
   58.3784   32.1235   47.3612 H   0  0  0  0  0  0  0  0  0  0  0  0
   57.9005   29.7627   46.7251 H   0  0  0  0  0  0  0  0  0  0  0  0
   56.6195   28.7937   43.3007 H   0  0  0  0  0  0  0  0  0  0  0  0
   57.9845   28.2669   44.3507 H   0  0  0  0  0  0  0  0  0  0  0  0
   57.6556   25.3489   46.2330 H   0  0  0  0  0  0  0  0  0  0  0  0
   58.1874   26.5456   44.9823 H   0  0  0  0  0  0  0  0  0  0  0  0
   59.4780   27.8070   44.5209 H   0  0  0  0  0  0  0  0  0  0  0  0
   61.2074   29.5530   44.1156 H   0  0  0  0  0  0  0  0  0  0  0  0
   62.1535   30.8439   46.0259 H   0  0  0  0  0  0  0  0  0  0  0  0
   61.3394   30.4314   48.3416 H   0  0  0  0  0  0  0  0  0  0  0  0
   59.7788   31.5552   49.3568 H   0  0  0  0  0  0  0  0  0  0  0  0
   59.5525   33.5465   50.8573 H   0  0  0  0  0  0  0  0  0  0  0  0
   57.8359   33.5427   52.6790 H   0  0  0  0  0  0  0  0  0  0  0  0
   56.3795   31.5306   52.9900 H   0  0  0  0  0  0  0  0  0  0  0  0
   56.7878   31.0607   42.7455 H   0  0  0  0  0  0  0  0  0  0  0  0
   57.2921   33.4205   43.3752 H   0  0  0  0  0  0  0  0  0  0  0  0
  1  2  1  0
  2  3  1  0
  3  4  1  0
  4  5  1  0
  5  6  1  0
  6  7  2  0
  6  8  1  0
  8  9  1  0
  9 10  2  0
 10 11  1  0
 11 12  2  0
 12 13  1  0
 13 14  1  0
 14 15  1  0
 15 16  2  0
 15 17  1  0
 17 18  1  0
 18 19  1  0
 19 20  2  0
 20 21  1  0
 21 22  2  0
 22 23  1  0
 23 24  2  0
 24 25  1  0
 25 26  2  0
 25 27  1  0
 27 28  2  3
 28 29  1  0
 29 30  2  0
 30 31  1  0
 31 32  2  0
 32 33  1  0
 12 34  1  0
 34 35  2  0
 35  9  1  0
 24 19  1  0
 33 28  1  0
  1 36  1  0
  1 37  1  0
  1 38  1  0
  2 39  1  0
  2 40  1  0
  3 41  1  0
  3 42  1  0
  4 43  1  0
  4 44  1  0
  5 45  1  0
 10 46  1  0
 11 47  1  0
 13 48  1  0
 13 49  1  0
 17 50  1  0
 17 51  1  0
 20 52  1  0
 21 53  1  0
 22 54  1  0
 23 55  1  0
 29 56  1  0
 30 57  1  0
 31 58  1  0
 32 59  1  0
 34 60  1  0
 35 61  1  0
M  CHG  2  14  -1  33  -1
M  END
>  <UniqueID>  (21) 
21

>  <SMILES>  (21) 
CCCCNC(=O)Oc1ccc(C[N-]C(=O)COc2ccccc2C(=O)N=c2cccc[n-]2)cc1

>  <Energy>  (21) 
65.19007752789476

>  <Genealogy>  (21) 
CCCCNC(=O)Oc1ccc(C[N-]C(=O)COc2ccccc2C(=O)N=c2cccc[n-]2)cc1 (protonated)
CCCCNC(=O)Oc1ccc(C[N-]C(=O)COc2ccccc2C(=O)N=c2cccc[n-]2)cc1 (3D coordinates assigned)
CCCCNC(=O)Oc1ccc(C[N-]C(=O)COc2ccccc2C(=O)N=c2cccc[n-]2)cc1 (optimized conformer: 65.19007752789476 kcal/mol)

>  <smiles>  (21) 
CCCCNC(=O)Oc1ccc(CNC(=O)COc2ccccc2C(=O)N=c2cccc[nH]2)cc1

>  <score_type>  (21) 
oracle

>  <origin>  (21) 
adg

>  <m_score__min__energy>  (21) 
-12.26

>  <m_primary>  (21) 
energy

$$$$
21:0
     RDKit          3D

 44 45  0  0  0  0  0  0  0  0999 V2000
   54.3670   23.8460   44.4360 C   0  0  0  0  0  0  0  0  0  0  0  0
   53.9600   24.7180   45.6210 C   0  0  0  0  0  0  0  0  0  0  0  0
   54.7350   25.9600   45.6590 N   0  0  0  0  0  0  0  0  0  0  0  0
   56.4100   25.6670   46.0380 S   0  0  0  0  0  0  0  0  0  0  0  0
   56.5160   25.2620   47.4830 O   0  0  0  0  0  0  0  0  0  0  0  0
   56.9810   24.5690   45.1850 O   0  0  0  0  0  0  0  0  0  0  0  0
   57.3330   27.1540   45.7590 C   0  0  0  0  0  0  0  0  0  0  0  0
   56.7040   28.2340   45.1180 C   0  0  0  0  0  0  0  0  0  0  0  0
   57.3970   29.4320   44.8680 C   0  0  0  0  0  0  0  0  0  0  0  0
   56.7250   30.5650   44.1890 C   0  0  0  0  0  0  0  0  0  0  0  0
   56.2690   30.4220   43.0210 O   0  0  0  0  0  0  0  0  0  0  0  0
   56.5930   31.8290   44.8520 N   0  0  0  0  0  0  0  0  0  0  0  0
   57.4290   32.9860   44.5600 C   0  0  0  0  0  0  0  0  0  0  0  0
   58.2940   33.3180   45.7460 C   0  0  0  0  0  0  0  0  0  0  0  0
   58.1700   32.6000   46.9460 C   0  0  0  0  0  0  0  0  0  0  0  0
   58.9930   32.9000   48.0360 C   0  0  0  0  0  0  0  0  0  0  0  0
   59.9610   33.9100   47.9350 C   0  0  0  0  0  0  0  0  0  0  0  0
   60.8150   34.2570   49.1180 C   0  0  0  0  0  0  0  0  0  0  0  0
   60.0770   34.6360   46.7400 C   0  0  0  0  0  0  0  0  0  0  0  0
   59.2550   34.3370   45.6500 C   0  0  0  0  0  0  0  0  0  0  0  0
   58.7370   29.5360   45.2670 C   0  0  0  0  0  0  0  0  0  0  0  0
   59.3720   28.4730   45.9070 C   0  0  0  0  0  0  0  0  0  0  0  0
   58.6820   27.2780   46.1720 C   0  0  0  0  0  0  0  0  0  0  0  0
   59.4140   26.1510   46.8520 C   0  0  0  0  0  0  0  0  0  0  0  0
   54.8053   22.9070   44.8051 H   0  0  0  0  0  0  0  0  0  0  0  0
   53.4807   23.6214   43.8245 H   0  0  0  0  0  0  0  0  0  0  0  0
   55.1084   24.3812   43.8245 H   0  0  0  0  0  0  0  0  0  0  0  0
   52.8916   24.9649   45.5339 H   0  0  0  0  0  0  0  0  0  0  0  0
   54.1559   24.1581   46.5474 H   0  0  0  0  0  0  0  0  0  0  0  0
   55.6530   28.1413   44.8067 H   0  0  0  0  0  0  0  0  0  0  0  0
   58.0701   32.7614   43.6948 H   0  0  0  0  0  0  0  0  0  0  0  0
   56.7824   33.8474   44.3364 H   0  0  0  0  0  0  0  0  0  0  0  0
   57.4220   31.7978   47.0292 H   0  0  0  0  0  0  0  0  0  0  0  0
   58.8807   32.3414   48.9769 H   0  0  0  0  0  0  0  0  0  0  0  0
   60.2659   34.0339   50.0447 H   0  0  0  0  0  0  0  0  0  0  0  0
   61.7408   33.6637   49.0885 H   0  0  0  0  0  0  0  0  0  0  0  0
   61.0646   35.3279   49.0885 H   0  0  0  0  0  0  0  0  0  0  0  0
   60.8186   35.4445   46.6606 H   0  0  0  0  0  0  0  0  0  0  0  0
   59.3614   34.9026   44.7126 H   0  0  0  0  0  0  0  0  0  0  0  0
   59.2925   30.4654   45.0731 H   0  0  0  0  0  0  0  0  0  0  0  0
   60.4255   28.5707   46.2081 H   0  0  0  0  0  0  0  0  0  0  0  0
   59.3372   26.2693   47.9429 H   0  0  0  0  0  0  0  0  0  0  0  0
   58.9665   25.1911   46.5549 H   0  0  0  0  0  0  0  0  0  0  0  0
   60.4729   26.1695   46.5549 H   0  0  0  0  0  0  0  0  0  0  0  0
  1  2  1  0
  2  3  1  0
  3  4  1  0
  4  5  2  0
  4  6  2  0
  4  7  1  0
  7  8  2  0
  8  9  1  0
  9 10  1  0
 10 11  2  0
 10 12  1  0
 12 13  1  0
 13 14  1  0
 14 15  2  0
 15 16  1  0
 16 17  2  0
 17 18  1  0
 17 19  1  0
 19 20  2  0
  9 21  2  0
 21 22  1  0
 22 23  2  0
 23 24  1  0
 23  7  1  0
 20 14  1  0
  1 25  1  0
  1 26  1  0
  1 27  1  0
  2 28  1  0
  2 29  1  0
  8 30  1  0
 13 31  1  0
 13 32  1  0
 15 33  1  0
 16 34  1  0
 18 35  1  0
 18 36  1  0
 18 37  1  0
 19 38  1  0
 20 39  1  0
 21 40  1  0
 22 41  1  0
 24 42  1  0
 24 43  1  0
 24 44  1  0
M  CHG  2   3  -1  12  -1
M  END
>  <UniqueID>  (22) 
22

>  <SMILES>  (22) 
CC[N-]S(=O)(=O)c1cc(C(=O)[N-]Cc2ccc(C)cc2)ccc1C

>  <Energy>  (22) 
40.92650398923762

>  <Genealogy>  (22) 
CC[N-]S(=O)(=O)c1cc(C(=O)[N-]Cc2ccc(C)cc2)ccc1C (protonated)
CC[N-]S(=O)(=O)c1cc(C(=O)[N-]Cc2ccc(C)cc2)ccc1C (3D coordinates assigned)
CC[N-]S(=O)(=O)c1cc(C(=O)[N-]Cc2ccc(C)cc2)ccc1C (optimized conformer: 40.92650398923762 kcal/mol)

>  <smiles>  (22) 
CCNS(=O)(=O)c1cc(C(=O)NCc2ccc(C)cc2)ccc1C

>  <score_type>  (22) 
oracle

>  <origin>  (22) 
adg

>  <m_score__min__energy>  (22) 
-11.529999999999999

>  <m_primary>  (22) 
energy

$$$$
22:0
     RDKit          3D

 42 45  0  0  0  0  0  0  0  0999 V2000
   56.9195   27.2875   47.3231 H   0  0  0  0  0  0  0  0  0  0  0  0
   57.0720   27.5700   46.2710 C   0  0  0  0  0  0  0  0  0  0  0  0
   57.1420   26.5850   45.3550 C   0  0  0  0  0  0  0  0  0  0  0  0
   57.8630   26.7700   44.1160 C   0  0  0  0  0  0  0  0  0  0  0  0
   58.4420   26.9180   43.1240 N   0  0  0  0  0  0  0  0  0  0  0  0
   56.4330   25.3040   45.5660 C   0  0  0  0  0  0  0  0  0  0  0  0
   55.1430   25.2420   45.9960 N   0  0  0  0  0  0  0  0  0  0  0  0
   54.9110   23.9230   46.0430 C   0  0  0  0  0  0  0  0  0  0  0  0
   53.7370   23.2750   46.4210 C   0  0  0  0  0  0  0  0  0  0  0  0
   52.8482   23.8432   46.7328 H   0  0  0  0  0  0  0  0  0  0  0  0
   53.7280   21.8690   46.3900 C   0  0  0  0  0  0  0  0  0  0  0  0
   52.8201   21.3211   46.6823 H   0  0  0  0  0  0  0  0  0  0  0  0
   54.8800   21.1560   45.9850 C   0  0  0  0  0  0  0  0  0  0  0  0
   54.8623   20.0564   45.9629 H   0  0  0  0  0  0  0  0  0  0  0  0
   56.0490   21.8440   45.6100 C   0  0  0  0  0  0  0  0  0  0  0  0
   56.9526   21.3023   45.2937 H   0  0  0  0  0  0  0  0  0  0  0  0
   56.0200   23.2360   45.6540 C   0  0  0  0  0  0  0  0  0  0  0  0
   57.0060   24.0890   45.3430 N   0  0  0  0  0  0  0  0  0  0  0  0
   57.1880   29.0110   45.9470 C   0  0  0  0  0  0  0  0  0  0  0  0
   56.2430   29.6580   45.1390 C   0  0  0  0  0  0  0  0  0  0  0  0
   55.1640   28.9630   44.6060 O   0  0  0  0  0  0  0  0  0  0  0  0
   56.3900   30.9740   44.8500 N   0  0  0  0  0  0  0  0  0  0  0  0
   57.4470   31.6880   45.3110 C   0  0  0  0  0  0  0  0  0  0  0  0
   57.5390   32.9080   45.0050 O   0  0  0  0  0  0  0  0  0  0  0  0
   58.4060   31.0840   46.0830 N   0  0  0  0  0  0  0  0  0  0  0  0
   59.5340   31.8460   46.5600 C   0  0  0  0  0  0  0  0  0  0  0  0
   60.8020   31.2520   46.6550 C   0  0  0  0  0  0  0  0  0  0  0  0
   60.9366   30.1992   46.3660 H   0  0  0  0  0  0  0  0  0  0  0  0
   61.8940   31.9920   47.1150 C   0  0  0  0  0  0  0  0  0  0  0  0
   62.8836   31.5169   47.1856 H   0  0  0  0  0  0  0  0  0  0  0  0
   61.7400   33.3330   47.4870 C   0  0  0  0  0  0  0  0  0  0  0  0
   62.8680   34.0320   47.9420 O   0  0  0  0  0  0  0  0  0  0  0  0
   63.9960   33.4210   48.5600 C   0  0  0  0  0  0  0  0  0  0  0  0
   63.8907   33.4780   49.6535 H   0  0  0  0  0  0  0  0  0  0  0  0
   64.0566   32.3667   48.2520 H   0  0  0  0  0  0  0  0  0  0  0  0
   64.9121   33.9462   48.2520 H   0  0  0  0  0  0  0  0  0  0  0  0
   60.4690   33.9300   47.3910 C   0  0  0  0  0  0  0  0  0  0  0  0
   60.3358   34.9832   47.6793 H   0  0  0  0  0  0  0  0  0  0  0  0
   59.3750   33.1910   46.9310 C   0  0  0  0  0  0  0  0  0  0  0  0
   58.3851   33.6653   46.8594 H   0  0  0  0  0  0  0  0  0  0  0  0
   58.2910   29.7540   46.3990 C   0  0  0  0  0  0  0  0  0  0  0  0
   59.1660   29.1920   47.1180 O   0  0  0  0  0  0  0  0  0  0  0  0
  1  2  1  0
  2  3  2  0
  3  4  1  0
  4  5  3  0
  3  6  1  0
  6  7  2  0
  7  8  1  0
  8  9  2  0
  9 10  1  0
  9 11  1  0
 11 12  1  0
 11 13  2  0
 13 14  1  0
 13 15  1  0
 15 16  1  0
 15 17  2  0
 17 18  1  0
  2 19  1  0
 19 20  2  0
 20 21  1  0
 20 22  1  0
 22 23  1  0
 23 24  2  0
 23 25  1  0
 25 26  1  0
 26 27  2  0
 27 28  1  0
 27 29  1  0
 29 30  1  0
 29 31  2  0
 31 32  1  0
 32 33  1  0
 33 34  1  0
 33 35  1  0
 33 36  1  0
 31 37  1  0
 37 38  1  0
 37 39  2  0
 39 40  1  0
 25 41  1  0
 41 42  2  0
 18  6  1  0
 41 19  1  0
 17  8  1  0
 39 26  1  0
M  CHG  3  18  -1  21  -1  22  -1
M  END
>  <UniqueID>  (23) 
23

>  <SMILES>  (23) 
COc1ccc(-n2c(=O)[n-]c([O-])c(/C=C(\C#N)c3nc4ccccc4[n-]3)c2=O)cc1

>  <Energy>  (23) 
99.76456865921764

>  <Genealogy>  (23) 
COc1ccc(-n2c(=O)[n-]c([O-])c(C=C(C#N)c3nc4ccccc4[n-]3)c2=O)cc1 (protonated)
COc1ccc(-n2c(=O)[n-]c([O-])c(/C=C(\C#N)c3nc4ccccc4[n-]3)c2=O)cc1 (cis-trans isomerization)
COc1ccc(-n2c(=O)[n-]c([O-])c(/C=C(\C#N)c3nc4ccccc4[n-]3)c2=O)cc1 (3D coordinates assigned)
COc1ccc(-n2c(=O)[n-]c([O-])c(/C=C(\C#N)c3nc4ccccc4[n-]3)c2=O)cc1 (optimized conformer: 99.76456865921764 kcal/mol)

>  <smiles>  (23) 
COc1ccc(-n2c(=O)[nH]c(O)c(C=C(C#N)c3nc4ccccc4[nH]3)c2=O)cc1

>  <score_type>  (23) 
oracle

>  <origin>  (23) 
adg

>  <m_score__min__energy>  (23) 
-13.56

>  <m_primary>  (23) 
energy

$$$$
23:0
     RDKit          3D

 45 46  0  0  0  0  0  0  0  0999 V2000
   57.7720   25.3050   46.1230 C   0  0  0  0  0  0  0  0  0  0  0  0
   58.2520   26.9760   45.7300 S   0  0  0  0  0  0  0  0  0  0  0  0
   57.2050   27.9240   46.2440 O   0  0  0  0  0  0  0  0  0  0  0  0
   58.3300   27.1000   44.2350 O   0  0  0  0  0  0  0  0  0  0  0  0
   59.8150   27.3670   46.4160 N   0  0  0  0  0  0  0  0  0  0  0  0
   59.7840   27.3980   47.8940 C   0  0  0  0  0  0  0  0  0  0  0  0
   59.1440   28.6840   48.4410 C   0  0  0  0  0  0  0  0  0  0  0  0
   59.6210   29.8620   47.7120 N   0  0  0  0  0  0  0  0  0  0  0  0
   59.1300   31.1660   48.0700 C   0  0  0  0  0  0  0  0  0  0  0  0
   58.8720   31.4190   49.2780 O   0  0  0  0  0  0  0  0  0  0  0  0
   58.9110   32.1790   47.0710 N   0  0  0  0  0  0  0  0  0  0  0  0
   58.7660   33.5790   47.4910 C   0  0  0  0  0  0  0  0  0  0  0  0
   59.0040   34.5250   46.3110 C   0  0  0  0  0  0  0  0  0  0  0  0
   58.0830   34.2170   45.1140 C   0  0  0  0  0  0  0  0  0  0  0  0
   57.6150   32.7460   45.0470 C   0  0  1  0  0  0  0  0  0  0  0  0
   57.3850   32.3760   43.6460 N   0  0  0  0  0  0  0  0  0  0  0  0
   56.8720   30.7220   43.5010 S   0  0  0  0  0  0  0  0  0  0  0  0
   58.2120   29.6630   43.7670 N   0  0  0  0  0  0  0  0  0  0  0  0
   55.7930   30.4320   44.5060 O   0  0  0  0  0  0  0  0  0  0  0  0
   56.3280   30.4960   42.1180 O   0  0  0  0  0  0  0  0  0  0  0  0
   58.6510   31.8000   45.6720 C   0  0  0  0  0  0  0  0  0  0  0  0
   60.7280   29.7040   46.7660 C   0  0  0  0  0  0  0  0  0  0  0  0
   60.4000   28.5770   45.7780 C   0  0  0  0  0  0  0  0  0  0  0  0
   57.7364   25.1810   47.2154 H   0  0  0  0  0  0  0  0  0  0  0  0
   56.7785   25.0993   45.6981 H   0  0  0  0  0  0  0  0  0  0  0  0
   58.5049   24.6034   45.6981 H   0  0  0  0  0  0  0  0  0  0  0  0
   59.2044   26.5348   48.2531 H   0  0  0  0  0  0  0  0  0  0  0  0
   60.8237   27.3631   48.2516 H   0  0  0  0  0  0  0  0  0  0  0  0
   58.0513   28.6144   48.3356 H   0  0  0  0  0  0  0  0  0  0  0  0
   59.4243   28.7909   49.4993 H   0  0  0  0  0  0  0  0  0  0  0  0
   57.7492   33.7358   47.8802 H   0  0  0  0  0  0  0  0  0  0  0  0
   59.5106   33.7931   48.2719 H   0  0  0  0  0  0  0  0  0  0  0  0
   58.8181   35.5571   46.6430 H   0  0  0  0  0  0  0  0  0  0  0  0
   60.0433   34.3891   45.9773 H   0  0  0  0  0  0  0  0  0  0  0  0
   57.1938   34.8605   45.1865 H   0  0  0  0  0  0  0  0  0  0  0  0
   58.6689   34.4077   44.2027 H   0  0  0  0  0  0  0  0  0  0  0  0
   56.6815   32.6506   45.6210 H   0  0  0  0  0  0  0  0  0  0  0  0
   58.0400   29.1760   44.6760 H   0  0  0  0  0  0  0  0  0  0  0  0
   58.1690   28.9300   43.0230 H   0  0  0  0  0  0  0  0  0  0  0  0
   58.2670   30.7697   45.6406 H   0  0  0  0  0  0  0  0  0  0  0  0
   59.5892   31.8702   45.1021 H   0  0  0  0  0  0  0  0  0  0  0  0
   60.8755   30.6440   46.2141 H   0  0  0  0  0  0  0  0  0  0  0  0
   61.6471   29.4533   47.3159 H   0  0  0  0  0  0  0  0  0  0  0  0
   59.6804   28.9617   45.0403 H   0  0  0  0  0  0  0  0  0  0  0  0
   61.3508   28.2679   45.3193 H   0  0  0  0  0  0  0  0  0  0  0  0
  1  2  1  0
  2  3  2  0
  2  4  2  0
  2  5  1  0
  5  6  1  0
  6  7  1  0
  7  8  1  0
  8  9  1  0
  9 10  2  0
  9 11  1  0
 11 12  1  0
 12 13  1  0
 13 14  1  0
 14 15  1  0
 15 16  1  0
 16 17  1  0
 17 18  1  0
 17 19  2  0
 17 20  2  0
 15 21  1  0
  8 22  1  0
 22 23  1  0
 23  5  1  0
 21 11  1  0
  1 24  1  0
  1 25  1  0
  1 26  1  0
  6 27  1  0
  6 28  1  0
  7 29  1  0
  7 30  1  0
 12 31  1  0
 12 32  1  0
 13 33  1  0
 13 34  1  0
 14 35  1  0
 14 36  1  0
 15 37  1  1
 18 38  1  0
 18 39  1  0
 21 40  1  0
 21 41  1  0
 22 42  1  0
 22 43  1  0
 23 44  1  0
 23 45  1  0
M  CHG  1  16  -1
M  END
>  <UniqueID>  (24) 
24

>  <SMILES>  (24) 
CS(=O)(=O)N1CCN(C(=O)N2CCC[C@@H]([N-]S(N)(=O)=O)C2)CC1

>  <Energy>  (24) 
45.50044495726218

>  <Genealogy>  (24) 
CS(=O)(=O)N1CCN(C(=O)N2CCCC([N-]S(N)(=O)=O)C2)CC1 (protonated)
CS(=O)(=O)N1CCN(C(=O)N2CCC[C@@H]([N-]S(N)(=O)=O)C2)CC1 (chirality)
CS(=O)(=O)N1CCN(C(=O)N2CCC[C@@H]([N-]S(N)(=O)=O)C2)CC1 (3D coordinates assigned)
CS(=O)(=O)N1CCN(C(=O)N2CCC[C@@H]([N-]S(N)(=O)=O)C2)CC1 (nonaromatic ring conformer: 45.50044495726218 kcal/mol)

>  <smiles>  (24) 
CS(=O)(=O)N1CCN(C(=O)N2CCCC(NS(N)(=O)=O)C2)CC1

>  <score_type>  (24) 
oracle

>  <origin>  (24) 
adg

>  <m_score__min__energy>  (24) 
-8.5299999999999994

>  <m_primary>  (24) 
energy

$$$$
24:0
     RDKit          3D

 47 50  0  0  0  0  0  0  0  0999 V2000
   55.8950   28.5890   45.2170 N   0  0  0  0  0  0  0  0  0  0  0  0
   56.7120   29.5710   44.9750 C   0  0  0  0  0  0  0  0  0  0  0  0
   56.5700   30.3050   43.7900 C   0  0  0  0  0  0  0  0  0  0  0  0
   55.5780   30.0160   42.9100 F   0  0  0  0  0  0  0  0  0  0  0  0
   57.4590   31.3480   43.5110 C   0  0  0  0  0  0  0  0  0  0  0  0
   58.4550   31.6430   44.3830 N   0  0  0  0  0  0  0  0  0  0  0  0
   58.6230   30.9500   45.5420 C   0  0  0  0  0  0  0  0  0  0  0  0
   57.7580   29.8900   45.8660 C   0  0  0  0  0  0  0  0  0  0  0  0
   57.9240   29.1520   47.0500 O   0  0  0  0  0  0  0  0  0  0  0  0
   58.7910   29.5240   48.0880 C   0  0  0  0  0  0  0  0  0  0  0  0
   58.5540   30.7250   48.7640 C   0  0  0  0  0  0  0  0  0  0  0  0
   59.4310   31.1360   49.7760 C   0  0  0  0  0  0  0  0  0  0  0  0
   59.2290   32.2720   50.3750 N   0  0  0  0  0  0  0  0  0  0  0  0
   59.9910   33.4860   50.0960 C   0  0  0  0  0  0  0  0  0  0  0  0
   60.0850   33.6870   48.6100 C   0  0  0  0  0  0  0  0  0  0  0  0
   58.9400   33.9980   47.8580 C   0  0  0  0  0  0  0  0  0  0  0  0
   59.0420   34.2190   46.4810 C   0  0  0  0  0  0  0  0  0  0  0  0
   57.9350   34.5280   45.7620 F   0  0  0  0  0  0  0  0  0  0  0  0
   60.2900   34.1430   45.8500 C   0  0  0  0  0  0  0  0  0  0  0  0
   61.4360   33.8410   46.5930 C   0  0  0  0  0  0  0  0  0  0  0  0
   62.6420   33.7800   45.9810 F   0  0  0  0  0  0  0  0  0  0  0  0
   61.3340   33.6120   47.9680 C   0  0  0  0  0  0  0  0  0  0  0  0
   60.4950   30.3540   50.1040 N   0  0  0  0  0  0  0  0  0  0  0  0
   60.7400   29.1730   49.4800 C   0  0  0  0  0  0  0  0  0  0  0  0
   59.8910   28.7240   48.4580 C   0  0  0  0  0  0  0  0  0  0  0  0
   60.1070   27.3940   47.8580 C   0  0  0  0  0  0  0  0  0  0  0  0
   61.0690   26.6880   48.2680 O   0  0  0  0  0  0  0  0  0  0  0  0
   59.2150   26.8580   46.8130 C   0  0  0  0  0  0  0  0  0  0  0  0
   58.0000   26.3120   47.1380 N   0  0  0  0  0  0  0  0  0  0  0  0
   57.3000   25.9480   46.0390 C   0  0  0  0  0  0  0  0  0  0  0  0
   55.9500   25.3790   46.0660 C   0  0  0  0  0  0  0  0  0  0  0  0
   54.8180   26.2320   45.9230 N   0  0  0  0  0  0  0  0  0  0  0  0
   55.7890   24.1340   46.1830 O   0  0  0  0  0  0  0  0  0  0  0  0
   58.1950   26.3200   44.6800 S   0  0  0  0  0  0  0  0  0  0  0  0
   59.5040   26.9420   45.4850 N   0  0  0  0  0  0  0  0  0  0  0  0
   56.0150   27.6310   44.8120 H   0  0  0  0  0  0  0  0  0  0  0  0
   57.3503   31.9295   42.5836 H   0  0  0  0  0  0  0  0  0  0  0  0
   59.4390   31.2203   46.2283 H   0  0  0  0  0  0  0  0  0  0  0  0
   57.6831   31.3440   48.5023 H   0  0  0  0  0  0  0  0  0  0  0  0
   59.4847   34.3497   50.5517 H   0  0  0  0  0  0  0  0  0  0  0  0
   61.0023   33.3897   50.5180 H   0  0  0  0  0  0  0  0  0  0  0  0
   57.9605   34.0679   48.3537 H   0  0  0  0  0  0  0  0  0  0  0  0
   60.3692   34.3212   44.7674 H   0  0  0  0  0  0  0  0  0  0  0  0
   62.2353   33.3719   48.5510 H   0  0  0  0  0  0  0  0  0  0  0  0
   61.6079   28.5661   49.7773 H   0  0  0  0  0  0  0  0  0  0  0  0
   54.7600   27.1330   46.4460 H   0  0  0  0  0  0  0  0  0  0  0  0
   60.3540   27.3590   45.0430 H   0  0  0  0  0  0  0  0  0  0  0  0
  1  2  2  3
  2  3  1  0
  3  4  1  0
  3  5  2  0
  5  6  1  0
  6  7  1  0
  7  8  2  0
  8  9  1  0
  9 10  1  0
 10 11  2  0
 11 12  1  0
 12 13  2  3
 13 14  1  0
 14 15  1  0
 15 16  2  0
 16 17  1  0
 17 18  1  0
 17 19  2  0
 19 20  1  0
 20 21  1  0
 20 22  2  0
 12 23  1  0
 23 24  1  0
 24 25  2  0
 25 26  1  0
 26 27  2  0
 26 28  1  0
 28 29  1  0
 29 30  2  0
 30 31  1  0
 31 32  1  0
 31 33  2  0
 30 34  1  0
 34 35  1  0
  8  2  1  0
 25 10  1  0
 35 28  2  0
 22 15  1  0
  1 36  1  0
  5 37  1  0
  7 38  1  0
 11 39  1  0
 14 40  1  0
 14 41  1  0
 16 42  1  0
 19 43  1  0
 22 44  1  0
 24 45  1  0
 32 46  1  0
 35 47  1  0
M  CHG  4   6  -1  23  -1  32  -1  35   1
M  END
>  <UniqueID>  (25) 
25

>  <SMILES>  (25) 
N=c1c(F)c[n-]cc1Oc1cc(=NCc2cc(F)cc(F)c2)[n-]cc1C(=O)c1nc(C([NH-])=O)s[nH+]1

>  <Energy>  (25) 
102.25364475286119

>  <Genealogy>  (25) 
N=c1c(F)c[n-]cc1Oc1cc(=NCc2cc(F)cc(F)c2)[n-]cc1C(=O)c1nc(C([NH-])=O)s[nH+]1 (protonated)
N=c1c(F)c[n-]cc1Oc1cc(=NCc2cc(F)cc(F)c2)[n-]cc1C(=O)c1nc(C([NH-])=O)s[nH+]1 (3D coordinates assigned)
N=c1c(F)c[n-]cc1Oc1cc(=NCc2cc(F)cc(F)c2)[n-]cc1C(=O)c1nc(C([NH-])=O)s[nH+]1 (optimized conformer: 102.25364475286119 kcal/mol)

>  <smiles>  (25) 
N=c1c(F)c[nH]cc1Oc1cc(=NCc2cc(F)cc(F)c2)[nH]cc1C(=O)c1nsc(C(N)=O)n1

>  <score_type>  (25) 
oracle

>  <origin>  (25) 
adg

>  <m_score__min__energy>  (25) 
-12.9

>  <m_primary>  (25) 
energy

$$$$
25:0
     RDKit          3D

 53 55  0  0  0  0  0  0  0  0999 V2000
   55.1450   29.3420   44.9140 O   0  0  0  0  0  0  0  0  0  0  0  0
   56.3290   29.5800   44.5610 C   0  0  0  0  0  0  0  0  0  0  0  0
   56.6860   30.9520   44.0570 C   0  0  0  0  0  0  0  0  0  0  0  0
   57.1850   31.7790   45.1530 N   0  0  0  0  0  0  0  0  0  0  0  0
   57.9130   32.9970   44.9400 C   0  0  0  0  0  0  0  0  0  0  0  0
   58.0920   33.4320   43.7690 O   0  0  0  0  0  0  0  0  0  0  0  0
   58.5170   33.7180   46.1200 C   0  0  2  0  0  0  0  0  0  0  0  0
   60.0530   33.6360   46.1410 C   0  0  0  0  0  0  0  0  0  0  0  0
   60.6310   34.4550   47.3100 C   0  0  0  0  0  0  0  0  0  0  0  0
   59.6330   34.6040   48.4780 C   0  0  0  0  0  0  0  0  0  0  0  0
   58.8030   33.4020   48.6220 N   0  0  0  0  0  0  0  0  0  0  0  0
   57.9290   33.1760   47.4490 C   0  0  0  0  0  0  0  0  0  0  0  0
   57.2820   28.5110   44.5970 N   0  0  0  0  0  0  0  0  0  0  0  0
   58.3270   28.3250   45.5630 C   0  0  0  0  0  0  0  0  0  0  0  0
   59.1230   27.1730   45.4840 C   0  0  0  0  0  0  0  0  0  0  0  0
   60.1340   26.9460   46.4220 C   0  0  0  0  0  0  0  0  0  0  0  0
   60.3440   27.8590   47.4560 C   0  0  0  0  0  0  0  0  0  0  0  0
   59.5360   29.0040   47.5630 C   0  0  0  0  0  0  0  0  0  0  0  0
   59.7760   30.1560   48.8780 S   0  0  0  0  0  0  0  0  0  0  0  0
   60.3610   29.4250   50.0530 O   0  0  0  0  0  0  0  0  0  0  0  0
   58.4560   30.7540   49.2870 O   0  0  0  0  0  0  0  0  0  0  0  0
   60.8640   31.4280   48.3720 N   0  0  0  0  0  0  0  0  0  0  0  0
   61.6010   32.0000   49.5250 C   0  0  0  0  0  0  0  0  0  0  0  0
   63.1080   31.6930   49.4750 C   0  0  0  0  0  0  0  0  0  0  0  0
   63.7200   32.1320   48.2710 O   0  0  0  0  0  0  0  0  0  0  0  0
   62.9390   31.8840   47.1090 C   0  0  0  0  0  0  0  0  0  0  0  0
   61.7550   30.9230   47.3140 C   0  0  0  0  0  0  0  0  0  0  0  0
   58.5200   29.2290   46.6230 C   0  0  0  0  0  0  0  0  0  0  0  0
   57.4645   30.8641   43.2848 H   0  0  0  0  0  0  0  0  0  0  0  0
   55.7871   31.4232   43.6328 H   0  0  0  0  0  0  0  0  0  0  0  0
   57.0430   31.4380   46.1310 H   0  0  0  0  0  0  0  0  0  0  0  0
   58.2526   34.7804   46.0132 H   0  0  0  0  0  0  0  0  0  0  0  0
   60.3560   32.5846   46.2534 H   0  0  0  0  0  0  0  0  0  0  0  0
   60.4399   34.0486   45.1976 H   0  0  0  0  0  0  0  0  0  0  0  0
   61.5353   33.9505   47.6810 H   0  0  0  0  0  0  0  0  0  0  0  0
   60.8563   35.4633   46.9324 H   0  0  0  0  0  0  0  0  0  0  0  0
   60.1933   34.7672   49.4104 H   0  0  0  0  0  0  0  0  0  0  0  0
   58.9744   35.4595   48.2672 H   0  0  0  0  0  0  0  0  0  0  0  0
   59.4370   32.5740   48.7360 H   0  0  0  0  0  0  0  0  0  0  0  0
   57.7660   32.0935   47.3408 H   0  0  0  0  0  0  0  0  0  0  0  0
   56.9938   33.7247   47.6343 H   0  0  0  0  0  0  0  0  0  0  0  0
   58.9506   26.4436   44.6788 H   0  0  0  0  0  0  0  0  0  0  0  0
   60.7641   26.0476   46.3451 H   0  0  0  0  0  0  0  0  0  0  0  0
   61.1443   27.6821   48.1896 H   0  0  0  0  0  0  0  0  0  0  0  0
   61.4636   33.0914   49.5246 H   0  0  0  0  0  0  0  0  0  0  0  0
   61.1975   31.5407   50.4394 H   0  0  0  0  0  0  0  0  0  0  0  0
   63.5974   32.1965   50.3218 H   0  0  0  0  0  0  0  0  0  0  0  0
   63.2250   30.6005   49.5265 H   0  0  0  0  0  0  0  0  0  0  0  0
   62.5403   32.8458   46.7542 H   0  0  0  0  0  0  0  0  0  0  0  0
   63.6095   31.3958   46.3864 H   0  0  0  0  0  0  0  0  0  0  0  0
   61.1901   30.8376   46.3740 H   0  0  0  0  0  0  0  0  0  0  0  0
   62.1417   29.9374   47.6122 H   0  0  0  0  0  0  0  0  0  0  0  0
   57.8730   30.1139   46.7148 H   0  0  0  0  0  0  0  0  0  0  0  0
  1  2  2  0
  2  3  1  0
  3  4  1  0
  4  5  1  0
  5  6  2  0
  5  7  1  0
  7  8  1  0
  8  9  1  0
  9 10  1  0
 10 11  1  0
 11 12  1  0
  2 13  1  0
 13 14  1  0
 14 15  2  0
 15 16  1  0
 16 17  2  0
 17 18  1  0
 18 19  1  0
 19 20  2  0
 19 21  2  0
 19 22  1  0
 22 23  1  0
 23 24  1  0
 24 25  1  0
 25 26  1  0
 26 27  1  0
 18 28  2  0
 12  7  1  0
 28 14  1  0
 27 22  1  0
  3 29  1  0
  3 30  1  0
  4 31  1  0
  7 32  1  6
  8 33  1  0
  8 34  1  0
  9 35  1  0
  9 36  1  0
 10 37  1  0
 10 38  1  0
 11 39  1  0
 12 40  1  0
 12 41  1  0
 15 42  1  0
 16 43  1  0
 17 44  1  0
 23 45  1  0
 23 46  1  0
 24 47  1  0
 24 48  1  0
 26 49  1  0
 26 50  1  0
 27 51  1  0
 27 52  1  0
 28 53  1  0
M  CHG  1  13  -1
M  END
>  <UniqueID>  (26) 
26

>  <SMILES>  (26) 
O=C(CNC(=O)[C@@H]1CCCNC1)[N-]c1cccc(S(=O)(=O)N2CCOCC2)c1

>  <Energy>  (26) 
72.31228198525821

>  <Genealogy>  (26) 
O=C(CNC(=O)C1CCCNC1)[N-]c1cccc(S(=O)(=O)N2CCOCC2)c1 (protonated)
O=C(CNC(=O)[C@@H]1CCCNC1)[N-]c1cccc(S(=O)(=O)N2CCOCC2)c1 (chirality)
O=C(CNC(=O)[C@@H]1CCCNC1)[N-]c1cccc(S(=O)(=O)N2CCOCC2)c1 (3D coordinates assigned)
O=C(CNC(=O)[C@@H]1CCCNC1)[N-]c1cccc(S(=O)(=O)N2CCOCC2)c1 (nonaromatic ring conformer: 72.31228198525821 kcal/mol)

>  <smiles>  (26) 
O=C(CNC(=O)C1CCCNC1)Nc1cccc(S(=O)(=O)N2CCOCC2)c1

>  <score_type>  (26) 
oracle

>  <origin>  (26) 
adg

>  <m_score__min__energy>  (26) 
-11.91

>  <m_primary>  (26) 
energy

$$$$
26:0
     RDKit          3D

 49 51  0  0  0  0  0  0  0  0999 V2000
   55.1450   29.3130   44.8860 N   0  0  0  0  0  0  0  0  0  0  0  0
   56.4430   30.1960   44.1650 S   0  0  0  0  0  0  0  0  0  0  0  0
   56.3930   30.0350   42.6700 O   0  0  0  0  0  0  0  0  0  0  0  0
   56.2820   31.6540   44.4860 O   0  0  0  0  0  0  0  0  0  0  0  0
   57.9960   29.6150   44.7950 C   0  0  0  0  0  0  0  0  0  0  0  0
   58.3170   28.2590   44.6190 C   0  0  0  0  0  0  0  0  0  0  0  0
   59.4870   27.7270   45.1670 C   0  0  0  0  0  0  0  0  0  0  0  0
   60.3490   28.5400   45.9030 C   0  0  0  0  0  0  0  0  0  0  0  0
   60.0560   29.8940   46.0740 C   0  0  0  0  0  0  0  0  0  0  0  0
   58.8950   30.4510   45.5100 C   0  0  0  0  0  0  0  0  0  0  0  0
   58.6750   31.9030   45.6680 C   0  0  0  0  0  0  0  0  0  0  0  0
   58.9440   32.6780   44.7100 O   0  0  0  0  0  0  0  0  0  0  0  0
   58.1150   32.4240   46.8800 N   0  0  0  0  0  0  0  0  0  0  0  0
   57.9910   33.8640   47.1080 C   0  0  0  0  0  0  0  0  0  0  0  0
   59.2050   34.3900   47.8220 C   0  0  0  0  0  0  0  0  0  0  0  0
   59.8920   35.2940   47.2780 O   0  0  0  0  0  0  0  0  0  0  0  0
   59.6460   33.8390   49.0680 N   0  0  0  0  0  0  0  0  0  0  0  0
   59.6630   32.4470   49.4170 C   0  0  0  0  0  0  0  0  0  0  0  0
   58.6000   31.8750   50.1400 C   0  0  0  0  0  0  0  0  0  0  0  0
   58.6620   30.5390   50.5440 C   0  0  0  0  0  0  0  0  0  0  0  0
   59.7900   29.7690   50.2520 C   0  0  0  0  0  0  0  0  0  0  0  0
   60.8590   30.3330   49.5540 C   0  0  0  0  0  0  0  0  0  0  0  0
   60.8030   31.6690   49.1300 C   0  0  0  0  0  0  0  0  0  0  0  0
   61.9040   32.2120   48.3840 N   0  0  0  0  0  0  0  0  0  0  0  0
   61.7110   32.6270   46.9930 C   0  0  0  0  0  0  0  0  0  0  0  0
   62.6330   33.8080   46.6800 C   0  0  0  0  0  0  0  0  0  0  0  0
   63.9720   33.5130   47.0390 O   0  0  0  0  0  0  0  0  0  0  0  0
   64.0660   33.3500   48.4440 C   0  0  0  0  0  0  0  0  0  0  0  0
   63.2710   32.1240   48.9040 C   0  0  0  0  0  0  0  0  0  0  0  0
   55.1770   28.3460   44.4910 H   0  0  0  0  0  0  0  0  0  0  0  0
   57.6406   27.6094   44.0441 H   0  0  0  0  0  0  0  0  0  0  0  0
   59.7289   26.6644   45.0176 H   0  0  0  0  0  0  0  0  0  0  0  0
   61.2599   28.1140   46.3488 H   0  0  0  0  0  0  0  0  0  0  0  0
   60.7394   30.5306   46.6551 H   0  0  0  0  0  0  0  0  0  0  0  0
   57.7180   31.7530   47.5760 H   0  0  0  0  0  0  0  0  0  0  0  0
   57.8899   34.3765   46.1399 H   0  0  0  0  0  0  0  0  0  0  0  0
   57.1033   34.0508   47.7302 H   0  0  0  0  0  0  0  0  0  0  0  0
   57.7168   32.4820   50.3881 H   0  0  0  0  0  0  0  0  0  0  0  0
   57.8202   30.0924   51.0935 H   0  0  0  0  0  0  0  0  0  0  0  0
   59.8359   28.7176   50.5722 H   0  0  0  0  0  0  0  0  0  0  0  0
   61.7503   29.7266   49.3352 H   0  0  0  0  0  0  0  0  0  0  0  0
   61.9502   31.7877   46.3234 H   0  0  0  0  0  0  0  0  0  0  0  0
   60.6641   32.9294   46.8426 H   0  0  0  0  0  0  0  0  0  0  0  0
   62.5883   34.0241   45.6024 H   0  0  0  0  0  0  0  0  0  0  0  0
   62.2972   34.6797   47.2608 H   0  0  0  0  0  0  0  0  0  0  0  0
   65.1223   33.2199   48.7221 H   0  0  0  0  0  0  0  0  0  0  0  0
   63.6490   34.2437   48.9312 H   0  0  0  0  0  0  0  0  0  0  0  0
   63.7511   31.2104   48.5234 H   0  0  0  0  0  0  0  0  0  0  0  0
   63.2464   32.0912   50.0032 H   0  0  0  0  0  0  0  0  0  0  0  0
  1  2  1  0
  2  3  2  0
  2  4  2  0
  2  5  1  0
  5  6  2  0
  6  7  1  0
  7  8  2  0
  8  9  1  0
  9 10  2  0
 10 11  1  0
 11 12  2  0
 11 13  1  0
 13 14  1  0
 14 15  1  0
 15 16  2  0
 15 17  1  0
 17 18  1  0
 18 19  2  0
 19 20  1  0
 20 21  2  0
 21 22  1  0
 22 23  2  0
 23 24  1  0
 24 25  1  0
 25 26  1  0
 26 27  1  0
 27 28  1  0
 28 29  1  0
 10  5  1  0
 23 18  1  0
 29 24  1  0
  1 30  1  0
  6 31  1  0
  7 32  1  0
  8 33  1  0
  9 34  1  0
 13 35  1  0
 14 36  1  0
 14 37  1  0
 19 38  1  0
 20 39  1  0
 21 40  1  0
 22 41  1  0
 25 42  1  0
 25 43  1  0
 26 44  1  0
 26 45  1  0
 28 46  1  0
 28 47  1  0
 29 48  1  0
 29 49  1  0
M  CHG  2   1  -1  17  -1
M  END
>  <UniqueID>  (27) 
27

>  <SMILES>  (27) 
[NH-]S(=O)(=O)c1ccccc1C(=O)NCC(=O)[N-]c1ccccc1N1CCOCC1

>  <Energy>  (27) 
66.29283636342652

>  <Genealogy>  (27) 
[NH-]S(=O)(=O)c1ccccc1C(=O)NCC(=O)[N-]c1ccccc1N1CCOCC1 (protonated)
[NH-]S(=O)(=O)c1ccccc1C(=O)NCC(=O)[N-]c1ccccc1N1CCOCC1 (3D coordinates assigned)
[NH-]S(=O)(=O)c1ccccc1C(=O)NCC(=O)[N-]c1ccccc1N1CCOCC1 (nonaromatic ring conformer: 66.29283636342652 kcal/mol)

>  <smiles>  (27) 
NS(=O)(=O)c1ccccc1C(=O)NCC(=O)Nc1ccccc1N1CCOCC1

>  <score_type>  (27) 
oracle

>  <origin>  (27) 
adg

>  <m_score__min__energy>  (27) 
-12.859999999999999

>  <m_primary>  (27) 
energy

$$$$
27:0
     RDKit          3D

 44 46  0  0  0  0  0  0  0  0999 V2000
   58.8890   30.7140   48.4090 C   0  0  0  0  0  0  0  0  0  0  0  0
   59.3440   31.9570   47.8860 O   0  0  0  0  0  0  0  0  0  0  0  0
   60.6850   32.2550   47.5920 C   0  0  0  0  0  0  0  0  0  0  0  0
   61.7120   31.3040   47.7600 C   0  0  0  0  0  0  0  0  0  0  0  0
   63.0340   31.6290   47.4430 C   0  0  0  0  0  0  0  0  0  0  0  0
   63.3460   32.8970   46.9560 C   0  0  0  0  0  0  0  0  0  0  0  0
   62.3400   33.8500   46.7850 C   0  0  0  0  0  0  0  0  0  0  0  0
   61.0080   33.5420   47.1110 C   0  0  0  0  0  0  0  0  0  0  0  0
   59.9290   34.5670   46.8980 C   0  0  0  0  0  0  0  0  0  0  0  0
   58.7630   33.9240   46.3970 O   0  0  0  0  0  0  0  0  0  0  0  0
   58.6610   33.4560   45.0840 C   0  0  0  0  0  0  0  0  0  0  0  0
   59.2300   34.0670   44.1380 O   0  0  0  0  0  0  0  0  0  0  0  0
   57.8850   32.2440   44.8050 C   0  0  0  0  0  0  0  0  0  0  0  0
   58.3220   31.1500   44.0870 C   0  0  0  0  0  0  0  0  0  0  0  0
   57.2400   30.2960   44.1150 C   0  0  0  0  0  0  0  0  0  0  0  0
   57.1810   28.9730   43.4650 C   0  0  0  0  0  0  0  0  0  0  0  0
   57.7560   27.8590   43.9410 C   0  0  0  0  0  0  0  0  0  0  0  0
   58.4280   27.7500   45.2530 C   0  0  0  0  0  0  0  0  0  0  0  0
   59.7120   28.3040   45.4080 C   0  0  0  0  0  0  0  0  0  0  0  0
   60.4200   28.1360   46.5990 C   0  0  0  0  0  0  0  0  0  0  0  0
   59.8660   27.3930   47.6410 C   0  0  0  0  0  0  0  0  0  0  0  0
   58.6020   26.8180   47.4960 C   0  0  0  0  0  0  0  0  0  0  0  0
   57.8660   26.9880   46.3080 C   0  0  0  0  0  0  0  0  0  0  0  0
   56.5540   26.4010   46.2010 N   0  0  0  0  0  0  0  0  0  0  0  0
   56.3090   25.3060   46.7480 O   0  0  0  0  0  0  0  0  0  0  0  0
   55.5170   27.0960   45.6240 O   0  0  0  0  0  0  0  0  0  0  0  0
   56.2670   30.8670   44.7890 O   0  0  0  0  0  0  0  0  0  0  0  0
   56.6210   32.0420   45.2220 N   0  0  0  0  0  0  0  0  0  0  0  0
   58.9028   30.7516   49.5083 H   0  0  0  0  0  0  0  0  0  0  0  0
   57.8629   30.5236   48.0615 H   0  0  0  0  0  0  0  0  0  0  0  0
   59.5497   29.9061   48.0615 H   0  0  0  0  0  0  0  0  0  0  0  0
   61.4718   30.3010   48.1425 H   0  0  0  0  0  0  0  0  0  0  0  0
   63.8301   30.8821   47.5783 H   0  0  0  0  0  0  0  0  0  0  0  0
   64.3874   33.1476   46.7057 H   0  0  0  0  0  0  0  0  0  0  0  0
   62.5912   34.8467   46.3932 H   0  0  0  0  0  0  0  0  0  0  0  0
   59.6955   35.0590   47.8537 H   0  0  0  0  0  0  0  0  0  0  0  0
   60.2740   35.3209   46.1750 H   0  0  0  0  0  0  0  0  0  0  0  0
   59.2997   30.9960   43.6070 H   0  0  0  0  0  0  0  0  0  0  0  0
   56.6240   28.8945   42.5197 H   0  0  0  0  0  0  0  0  0  0  0  0
   57.7253   26.9597   43.3082 H   0  0  0  0  0  0  0  0  0  0  0  0
   60.1622   28.8750   44.5826 H   0  0  0  0  0  0  0  0  0  0  0  0
   61.4152   28.5898   46.7158 H   0  0  0  0  0  0  0  0  0  0  0  0
   60.4257   27.2597   48.5785 H   0  0  0  0  0  0  0  0  0  0  0  0
   58.1764   26.2255   48.3193 H   0  0  0  0  0  0  0  0  0  0  0  0
  1  2  1  0
  2  3  1  0
  3  4  2  0
  4  5  1  0
  5  6  2  0
  6  7  1  0
  7  8  2  0
  8  9  1  0
  9 10  1  0
 10 11  1  0
 11 12  2  0
 11 13  1  0
 13 14  1  0
 14 15  2  0
 15 16  1  0
 16 17  2  3
 17 18  1  0
 18 19  2  0
 19 20  1  0
 20 21  2  0
 21 22  1  0
 22 23  2  0
 23 24  1  0
 24 25  2  0
 24 26  1  0
 15 27  1  0
 27 28  1  0
  8  3  1  0
 28 13  2  0
 23 18  1  0
  1 29  1  0
  1 30  1  0
  1 31  1  0
  4 32  1  0
  5 33  1  0
  6 34  1  0
  7 35  1  0
  9 36  1  0
  9 37  1  0
 14 38  1  0
 16 39  1  0
 17 40  1  0
 19 41  1  0
 20 42  1  0
 21 43  1  0
 22 44  1  0
M  CHG  2  24   1  26  -1
M  END
>  <UniqueID>  (28) 
28

>  <SMILES>  (28) 
COc1ccccc1COC(=O)c1cc(C=Cc2ccccc2[N+](=O)[O-])on1

>  <Energy>  (28) 
84.2546802565428

>  <Genealogy>  (28) 
COc1ccccc1COC(=O)c1cc(C=Cc2ccccc2[N+](=O)[O-])on1 (3D coordinates assigned)
COc1ccccc1COC(=O)c1cc(C=Cc2ccccc2[N+](=O)[O-])on1 (optimized conformer: 84.2546802565428 kcal/mol)

>  <smiles>  (28) 
COc1ccccc1COC(=O)c1cc(C=Cc2ccccc2[N+](=O)[O-])on1

>  <score_type>  (28) 
oracle

>  <origin>  (28) 
adg

>  <m_score__min__energy>  (28) 
-9.0700000000000003

>  <m_primary>  (28) 
energy

$$$$
28:0
     RDKit          3D

 47 50  0  0  0  0  0  0  0  0999 V2000
   56.0010   30.5120   42.9910 O   0  0  0  0  0  0  0  0  0  0  0  0
   56.3730   30.6060   44.1910 C   0  0  0  0  0  0  0  0  0  0  0  0
   56.2670   31.8740   44.8510 N   0  0  0  0  0  0  0  0  0  0  0  0
   57.3710   32.6960   45.2580 C   0  0  0  0  0  0  0  0  0  0  0  0
   58.1470   33.3250   44.2770 C   0  0  0  0  0  0  0  0  0  0  0  0
   59.1910   34.1760   44.6440 C   0  0  0  0  0  0  0  0  0  0  0  0
   59.4540   34.4270   45.9930 C   0  0  0  0  0  0  0  0  0  0  0  0
   58.6710   33.8200   46.9900 C   0  0  0  0  0  0  0  0  0  0  0  0
   58.8800   34.0710   48.3850 N   0  0  0  0  0  0  0  0  0  0  0  0
   59.2830   32.8810   49.5810 S   0  0  0  0  0  0  0  0  0  0  0  0
   58.0200   32.1900   50.0120 O   0  0  0  0  0  0  0  0  0  0  0  0
   59.8930   33.5520   50.7790 O   0  0  0  0  0  0  0  0  0  0  0  0
   60.4120   31.6600   48.9270 C   0  0  0  0  0  0  0  0  0  0  0  0
   61.6980   32.3050   48.4890 C   0  0  0  0  0  0  0  0  0  0  0  0
   62.7390   32.5080   49.4110 C   0  0  0  0  0  0  0  0  0  0  0  0
   63.9380   33.0990   49.0010 C   0  0  0  0  0  0  0  0  0  0  0  0
   64.1040   33.4970   47.6720 C   0  0  0  0  0  0  0  0  0  0  0  0
   63.0740   33.2980   46.7500 C   0  0  0  0  0  0  0  0  0  0  0  0
   61.8790   32.6930   47.1510 C   0  0  0  0  0  0  0  0  0  0  0  0
   57.6370   32.9520   46.6150 C   0  0  0  0  0  0  0  0  0  0  0  0
   56.9710   29.4390   44.8690 C   0  0  0  0  0  0  0  0  0  0  0  0
   58.3400   29.4010   45.1730 C   0  0  0  0  0  0  0  0  0  0  0  0
   58.8790   28.2850   45.8190 C   0  0  0  0  0  0  0  0  0  0  0  0
   60.1120   28.2540   46.0780 O   0  0  0  0  0  0  0  0  0  0  0  0
   58.0400   27.2110   46.1730 C   0  0  0  0  0  0  0  0  0  0  0  0
   58.5290   26.0670   46.8300 C   0  0  0  0  0  0  0  0  0  0  0  0
   57.6570   25.0320   47.1810 C   0  0  0  0  0  0  0  0  0  0  0  0
   56.2960   25.1280   46.8830 C   0  0  0  0  0  0  0  0  0  0  0  0
   55.7960   26.2540   46.2220 C   0  0  0  0  0  0  0  0  0  0  0  0
   54.4400   26.3360   45.9280 O   0  0  0  0  0  0  0  0  0  0  0  0
   56.6620   27.2950   45.8620 C   0  0  0  0  0  0  0  0  0  0  0  0
   56.1780   28.3920   45.2230 N   0  0  0  0  0  0  0  0  0  0  0  0
   57.9332   33.1479   43.2126 H   0  0  0  0  0  0  0  0  0  0  0  0
   59.8091   34.6509   43.8679 H   0  0  0  0  0  0  0  0  0  0  0  0
   60.2759   35.1013   46.2755 H   0  0  0  0  0  0  0  0  0  0  0  0
   60.6291   30.9149   49.7065 H   0  0  0  0  0  0  0  0  0  0  0  0
   59.9445   31.1768   48.0564 H   0  0  0  0  0  0  0  0  0  0  0  0
   62.6100   32.2007   50.4593 H   0  0  0  0  0  0  0  0  0  0  0  0
   64.7516   33.2508   49.7256 H   0  0  0  0  0  0  0  0  0  0  0  0
   65.0457   33.9669   47.3520 H   0  0  0  0  0  0  0  0  0  0  0  0
   63.2033   33.6181   45.7056 H   0  0  0  0  0  0  0  0  0  0  0  0
   61.0783   32.5203   46.4168 H   0  0  0  0  0  0  0  0  0  0  0  0
   57.0268   32.4656   47.3903 H   0  0  0  0  0  0  0  0  0  0  0  0
   58.9880   30.2480   44.9034 H   0  0  0  0  0  0  0  0  0  0  0  0
   59.5999   25.9867   47.0681 H   0  0  0  0  0  0  0  0  0  0  0  0
   58.0443   24.1391   47.6936 H   0  0  0  0  0  0  0  0  0  0  0  0
   55.6141   24.3138   47.1697 H   0  0  0  0  0  0  0  0  0  0  0  0
  1  2  2  0
  2  3  1  0
  3  4  1  0
  4  5  2  0
  5  6  1  0
  6  7  2  0
  7  8  1  0
  8  9  1  0
  9 10  1  0
 10 11  2  0
 10 12  2  0
 10 13  1  0
 13 14  1  0
 14 15  2  0
 15 16  1  0
 16 17  2  0
 17 18  1  0
 18 19  2  0
  8 20  2  0
  2 21  1  0
 21 22  2  0
 22 23  1  0
 23 24  2  0
 23 25  1  0
 25 26  2  0
 26 27  1  0
 27 28  2  0
 28 29  1  0
 29 30  1  0
 29 31  2  0
 31 32  1  0
 20  4  1  0
 32 21  1  0
 19 14  1  0
 31 25  1  0
  5 33  1  0
  6 34  1  0
  7 35  1  0
 13 36  1  0
 13 37  1  0
 15 38  1  0
 16 39  1  0
 17 40  1  0
 18 41  1  0
 19 42  1  0
 20 43  1  0
 22 44  1  0
 26 45  1  0
 27 46  1  0
 28 47  1  0
M  CHG  4   3  -1   9  -1  30  -1  32  -1
M  END
>  <UniqueID>  (29) 
29

>  <SMILES>  (29) 
O=C([N-]c1cccc([N-]S(=O)(=O)Cc2ccccc2)c1)c1cc(=O)c2cccc([O-])c2[n-]1

>  <Energy>  (29) 
57.34272013413546

>  <Genealogy>  (29) 
O=C([N-]c1cccc([N-]S(=O)(=O)Cc2ccccc2)c1)c1cc(=O)c2cccc([O-])c2[n-]1 (protonated)
O=C([N-]c1cccc([N-]S(=O)(=O)Cc2ccccc2)c1)c1cc(=O)c2cccc([O-])c2[n-]1 (3D coordinates assigned)
O=C([N-]c1cccc([N-]S(=O)(=O)Cc2ccccc2)c1)c1cc(=O)c2cccc([O-])c2[n-]1 (optimized conformer: 57.34272013413546 kcal/mol)

>  <smiles>  (29) 
O=C(Nc1cccc(NS(=O)(=O)Cc2ccccc2)c1)c1cc(=O)c2cccc(O)c2[nH]1

>  <score_type>  (29) 
oracle

>  <origin>  (29) 
adg

>  <m_score__min__energy>  (29) 
-17.82

>  <m_primary>  (29) 
energy

$$$$
29:0
     RDKit          3D

 45 47  0  0  1  0  0  0  0  0999 V2000
   60.7870   30.2100   48.0030 C   0  0  0  0  0  0  0  0  0  0  0  0
   59.7450   30.7910   47.1750 N   0  0  0  0  0  0  0  0  0  0  0  0
   59.7780   32.2010   47.0070 C   0  0  0  0  0  0  0  0  0  0  0  0
   60.9970   32.8340   46.8830 C   0  0  0  0  0  0  0  0  0  0  0  0
   61.0860   34.2220   46.7280 C   0  0  0  0  0  0  0  0  0  0  0  0
   59.9540   35.0160   46.6910 C   0  0  0  0  0  0  0  0  0  0  0  0
   58.7370   34.3860   46.8160 C   0  0  0  0  0  0  0  0  0  0  0  0
   58.6570   32.9980   46.9700 C   0  0  0  0  0  0  0  0  0  0  0  0
   58.7970   29.9280   46.6100 C   0  0  0  0  0  0  0  0  0  0  0  0
   58.6710   28.6450   47.1290 C   0  0  0  0  0  0  0  0  0  0  0  0
   57.7630   27.7400   46.6130 C   0  0  0  0  0  0  0  0  0  0  0  0
   57.6440   26.5540   47.0880 N   0  0  0  0  0  0  0  0  0  0  0  0
   57.1110   25.4800   46.2780 C   0  0  0  0  0  0  0  0  0  0  0  0
   55.9120   25.2340   46.4130 O   0  0  0  0  0  0  0  0  0  0  0  0
   57.9660   24.7790   45.3940 N   0  0  0  0  0  0  0  0  0  0  0  0
   57.5910   23.7170   44.5480 C   0  0  0  0  0  0  0  0  0  0  0  0
   56.5650   23.7220   43.6510 C   0  0  0  0  0  0  0  0  0  0  0  0
   56.2470   22.6320   42.8390 C   0  0  0  0  0  0  0  0  0  0  0  0
   56.9930   21.4910   42.9340 C   0  0  0  0  0  0  0  0  0  0  0  0
   58.0290   21.4750   43.8350 C   0  0  0  0  0  0  0  0  0  0  0  0
   58.3390   22.5500   44.6330 C   0  0  0  0  0  0  0  0  0  0  0  0
   59.3880   22.4430   45.5030 F   0  0  0  0  0  0  0  0  0  0  0  0
   57.0030   28.1290   45.5950 N   0  0  0  0  0  0  0  0  0  0  0  0
   57.0960   29.3800   45.0550 C   0  0  0  0  0  0  0  0  0  0  0  0
   56.2540   29.7950   43.9410 C   0  0  0  0  0  0  0  0  0  0  0  0
   56.5760   29.4930   42.5900 N   0  0  0  0  0  0  0  0  0  0  0  0
   55.1730   30.4550   44.1190 O   0  0  0  0  0  0  0  0  0  0  0  0
   57.9880   30.2380   45.5780 N   0  0  0  0  0  0  0  0  0  0  0  0
   60.5336   30.3513   49.0641 H   0  0  0  0  0  0  0  0  0  0  0  0
   60.8709   29.1349   47.7861 H   0  0  0  0  0  0  0  0  0  0  0  0
   61.7457   30.7038   47.7861 H   0  0  0  0  0  0  0  0  0  0  0  0
   61.9193   32.2349   46.9064 H   0  0  0  0  0  0  0  0  0  0  0  0
   62.0765   34.6912   46.6337 H   0  0  0  0  0  0  0  0  0  0  0  0
   60.0238   36.1067   46.5667 H   0  0  0  0  0  0  0  0  0  0  0  0
   57.8132   34.9828   46.7945 H   0  0  0  0  0  0  0  0  0  0  0  0
   57.6666   32.5288   47.0645 H   0  0  0  0  0  0  0  0  0  0  0  0
   59.3100   28.3423   47.9716 H   0  0  0  0  0  0  0  0  0  0  0  0
   58.9750   25.1090   45.3920 H   0  0  0  0  0  0  0  0  0  0  0  0
   55.9552   24.6332   43.5622 H   0  0  0  0  0  0  0  0  0  0  0  0
   55.4066   22.6908   42.1317 H   0  0  0  0  0  0  0  0  0  0  0  0
   56.7707   20.6137   42.3088 H   0  0  0  0  0  0  0  0  0  0  0  0
   58.6370   20.5624   43.9218 H   0  0  0  0  0  0  0  0  0  0  0  0
   55.8450   29.1230   41.9170 H   0  0  0  0  0  0  0  0  0  0  0  0
   57.5610   29.6400   42.2440 H   0  0  0  0  0  0  0  0  0  0  0  0
   58.0390   31.1810   45.1370 H   0  0  0  0  0  0  0  0  0  0  0  0
  1  2  1  0
  2  3  1  0
  3  4  2  0
  4  5  1  0
  5  6  2  0
  6  7  1  0
  7  8  2  0
  2  9  1  0
  9 10  2  0
 10 11  1  0
 11 12  2  0
 12 13  1  0
 13 14  2  0
 13 15  1  0
 15 16  1  0
 16 17  2  0
 17 18  1  0
 18 19  2  0
 19 20  1  0
 20 21  2  0
 21 22  1  0
 11 23  1  0
 23 24  2  0
 24 25  1  0
 25 26  1  0
 25 27  2  0
 24 28  1  0
  8  3  1  0
 28  9  1  0
 21 16  1  0
  1 29  1  0
  1 30  1  0
  1 31  1  0
  4 32  1  0
  5 33  1  0
  6 34  1  0
  7 35  1  0
  8 36  1  0
 10 37  1  0
 15 38  1  0
 17 39  1  0
 18 40  1  0
 19 41  1  0
 20 42  1  0
 26 43  1  0
 26 44  1  0
 28 45  1  0
M  END
>  <smiles>  (30) 
CN(c1ccccc1)c1cc(=NC(=O)Nc2ccccc2F)nc(C(N)=O)[nH]1

>  <score_type>  (30) 
oracle

>  <origin>  (30) 
adg

>  <m_score__min__energy>  (30) 
-8.7799999999999994

>  <m_primary>  (30) 
energy

$$$$
30:0
     RDKit          3D

 54 57  0  0  0  0  0  0  0  0999 V2000
   60.0970   25.9900   46.6230 C   0  0  0  0  0  0  0  0  0  0  0  0
   59.2320   26.9860   45.8950 C   0  0  0  0  0  0  0  0  0  0  0  0
   59.8430   28.0810   45.2620 C   0  0  0  0  0  0  0  0  0  0  0  0
   59.0730   29.0410   44.6000 C   0  0  0  0  0  0  0  0  0  0  0  0
   57.6800   28.9240   44.5630 C   0  0  0  0  0  0  0  0  0  0  0  0
   56.7160   30.1490   43.7420 S   0  0  0  0  0  0  0  0  0  0  0  0
   55.4720   30.4590   44.5310 O   0  0  0  0  0  0  0  0  0  0  0  0
   56.3120   29.6240   42.3910 O   0  0  0  0  0  0  0  0  0  0  0  0
   57.6160   31.6130   43.5310 N   0  0  0  0  0  0  0  0  0  0  0  0
   57.9720   32.4450   44.6360 C   0  0  0  0  0  0  0  0  0  0  0  0
   57.4310   33.7340   44.7350 C   0  0  0  0  0  0  0  0  0  0  0  0
   57.8020   34.5710   45.7900 C   0  0  0  0  0  0  0  0  0  0  0  0
   58.7260   34.1290   46.7420 C   0  0  0  0  0  0  0  0  0  0  0  0
   59.2730   32.8380   46.6520 C   0  0  0  0  0  0  0  0  0  0  0  0
   60.4460   32.2790   47.8470 S   0  0  0  0  0  0  0  0  0  0  0  0
   59.7240   32.0140   49.1400 O   0  0  0  0  0  0  0  0  0  0  0  0
   61.0400   30.9800   47.3800 O   0  0  0  0  0  0  0  0  0  0  0  0
   61.7250   33.4440   48.1450 N   0  0  0  0  0  0  0  0  0  0  0  0
   62.6310   33.0290   49.2350 C   0  0  0  0  0  0  0  0  0  0  0  0
   63.6800   31.9890   48.7780 C   0  0  0  0  0  0  0  0  0  0  0  0
   63.7410   31.8340   47.3740 O   0  0  0  0  0  0  0  0  0  0  0  0
   63.7890   33.0980   46.7560 C   0  0  0  0  0  0  0  0  0  0  0  0
   62.4440   33.8290   46.9110 C   0  0  0  0  0  0  0  0  0  0  0  0
   58.8980   32.0020   45.5900 C   0  0  0  0  0  0  0  0  0  0  0  0
   57.0650   27.8150   45.1530 C   0  0  0  0  0  0  0  0  0  0  0  0
   57.8250   26.8350   45.8090 C   0  0  0  0  0  0  0  0  0  0  0  0
   57.1160   25.6860   46.4200 C   0  0  0  0  0  0  0  0  0  0  0  0
   55.8980   25.8180   46.7290 O   0  0  0  0  0  0  0  0  0  0  0  0
   57.7630   24.4290   46.6840 N   0  0  0  0  0  0  0  0  0  0  0  0
   58.0790   23.5220   45.8060 C   0  0  0  0  0  0  0  0  0  0  0  0
   59.3330   23.0590   45.6030 N   0  0  0  0  0  0  0  0  0  0  0  0
   59.3650   22.1260   44.6140 C   0  0  0  0  0  0  0  0  0  0  0  0
   58.1370   21.8530   44.0190 C   0  0  0  0  0  0  0  0  0  0  0  0
   56.9700   22.8120   44.7640 S   0  0  0  0  0  0  0  0  0  0  0  0
   59.9789   26.1260   47.7082 H   0  0  0  0  0  0  0  0  0  0  0  0
   59.7937   24.9695   46.3462 H   0  0  0  0  0  0  0  0  0  0  0  0
   61.1499   26.1474   46.3462 H   0  0  0  0  0  0  0  0  0  0  0  0
   60.9379   28.1838   45.2876 H   0  0  0  0  0  0  0  0  0  0  0  0
   59.5646   29.8921   44.1060 H   0  0  0  0  0  0  0  0  0  0  0  0
   56.7128   34.0873   43.9804 H   0  0  0  0  0  0  0  0  0  0  0  0
   57.3672   35.5781   45.8719 H   0  0  0  0  0  0  0  0  0  0  0  0
   59.0258   34.7948   47.5647 H   0  0  0  0  0  0  0  0  0  0  0  0
   63.1582   33.9179   49.6116 H   0  0  0  0  0  0  0  0  0  0  0  0
   62.0160   32.5583   50.0161 H   0  0  0  0  0  0  0  0  0  0  0  0
   64.6690   32.3102   49.1368 H   0  0  0  0  0  0  0  0  0  0  0  0
   63.3804   31.0182   49.1996 H   0  0  0  0  0  0  0  0  0  0  0  0
   64.5829   33.6989   47.2236 H   0  0  0  0  0  0  0  0  0  0  0  0
   63.9962   32.9608   45.6844 H   0  0  0  0  0  0  0  0  0  0  0  0
   62.6330   34.9123   46.9371 H   0  0  0  0  0  0  0  0  0  0  0  0
   61.8118   33.5473   46.0560 H   0  0  0  0  0  0  0  0  0  0  0  0
   59.3324   30.9949   45.5057 H   0  0  0  0  0  0  0  0  0  0  0  0
   55.9712   27.7098   45.1020 H   0  0  0  0  0  0  0  0  0  0  0  0
   60.2941   21.6237   44.3067 H   0  0  0  0  0  0  0  0  0  0  0  0
   57.9594   21.1358   43.2041 H   0  0  0  0  0  0  0  0  0  0  0  0
  1  2  1  0
  2  3  2  0
  3  4  1  0
  4  5  2  0
  5  6  1  0
  6  7  2  0
  6  8  2  0
  6  9  1  0
  9 10  1  0
 10 11  2  0
 11 12  1  0
 12 13  2  0
 13 14  1  0
 14 15  1  0
 15 16  2  0
 15 17  2  0
 15 18  1  0
 18 19  1  0
 19 20  1  0
 20 21  1  0
 21 22  1  0
 22 23  1  0
 14 24  2  0
  5 25  1  0
 25 26  2  0
 26 27  1  0
 27 28  2  0
 27 29  1  0
 29 30  2  3
 30 31  1  0
 31 32  1  0
 32 33  2  0
 33 34  1  0
 26  2  1  0
 34 30  1  0
 24 10  1  0
 23 18  1  0
  1 35  1  0
  1 36  1  0
  1 37  1  0
  3 38  1  0
  4 39  1  0
 11 40  1  0
 12 41  1  0
 13 42  1  0
 19 43  1  0
 19 44  1  0
 20 45  1  0
 20 46  1  0
 22 47  1  0
 22 48  1  0
 23 49  1  0
 23 50  1  0
 24 51  1  0
 25 52  1  0
 32 53  1  0
 33 54  1  0
M  CHG  2   9  -1  31  -1
M  END
>  <UniqueID>  (31) 
30

>  <SMILES>  (31) 
Cc1ccc(S(=O)(=O)[N-]c2cccc(S(=O)(=O)N3CCOCC3)c2)cc1C(=O)N=c1[n-]ccs1

>  <Energy>  (31) 
113.0508956673694

>  <Genealogy>  (31) 
Cc1ccc(S(=O)(=O)[N-]c2cccc(S(=O)(=O)N3CCOCC3)c2)cc1C(=O)N=c1[n-]ccs1 (protonated)
Cc1ccc(S(=O)(=O)[N-]c2cccc(S(=O)(=O)N3CCOCC3)c2)cc1C(=O)N=c1[n-]ccs1 (3D coordinates assigned)
Cc1ccc(S(=O)(=O)[N-]c2cccc(S(=O)(=O)N3CCOCC3)c2)cc1C(=O)N=c1[n-]ccs1 (nonaromatic ring conformer: 113.0508956673694 kcal/mol)

>  <smiles>  (31) 
Cc1ccc(S(=O)(=O)Nc2cccc(S(=O)(=O)N3CCOCC3)c2)cc1C(=O)N=c1[nH]ccs1

>  <score_type>  (31) 
oracle

>  <origin>  (31) 
adg

>  <m_score__min__energy>  (31) 
-14.25

>  <m_primary>  (31) 
energy

$$$$
31:0
     RDKit          3D

 39 40  0  0  0  0  0  0  0  0999 V2000
   59.5661   34.2424   49.1623 H   0  0  0  0  0  0  0  0  0  0  0  0
   59.3040   34.0830   48.1060 C   0  0  0  0  0  0  0  0  0  0  0  0
   59.7440   34.9870   47.1340 C   0  0  0  0  0  0  0  0  0  0  0  0
   60.3503   35.8563   47.4286 H   0  0  0  0  0  0  0  0  0  0  0  0
   59.4160   34.7900   45.7880 C   0  0  0  0  0  0  0  0  0  0  0  0
   59.7654   35.5022   45.0260 H   0  0  0  0  0  0  0  0  0  0  0  0
   58.6410   33.6830   45.4120 C   0  0  0  0  0  0  0  0  0  0  0  0
   58.2960   33.4580   44.0750 C   0  0  0  0  0  0  0  0  0  0  0  0
   58.6320   34.1563   43.2943 H   0  0  0  0  0  0  0  0  0  0  0  0
   57.5240   32.3450   43.7330 C   0  0  0  0  0  0  0  0  0  0  0  0
   57.2496   32.1644   42.6832 H   0  0  0  0  0  0  0  0  0  0  0  0
   57.0980   31.4540   44.7400 C   0  0  0  0  0  0  0  0  0  0  0  0
   56.3750   30.4020   44.4800 N   0  0  0  0  0  0  0  0  0  0  0  0
   56.6420   29.4020   43.4470 C   0  0  0  0  0  0  0  0  0  0  0  0
   57.0367   29.9034   42.5510 H   0  0  0  0  0  0  0  0  0  0  0  0
   55.7044   28.8793   43.2066 H   0  0  0  0  0  0  0  0  0  0  0  0
   57.6740   28.3710   43.9480 C   0  0  0  0  0  0  0  0  0  0  0  0
   58.4389   28.2365   43.1690 H   0  0  0  0  0  0  0  0  0  0  0  0
   57.1270   27.4402   44.1589 H   0  0  0  0  0  0  0  0  0  0  0  0
   58.3520   28.7780   45.2100 N   0  0  0  0  0  0  0  0  0  0  0  0
   57.8550   29.6240   45.5800 H   0  0  0  0  0  0  0  0  0  0  0  0
   58.1940   27.7280   46.2550 C   0  0  0  0  0  0  0  0  0  0  0  0
   58.0362   28.2277   47.2222 H   0  0  0  0  0  0  0  0  0  0  0  0
   59.1106   27.1205   46.2273 H   0  0  0  0  0  0  0  0  0  0  0  0
   57.0240   26.7610   46.0190 C   0  0  0  0  0  0  0  0  0  0  0  0
   56.6219   26.4287   46.9874 H   0  0  0  0  0  0  0  0  0  0  0  0
   56.2339   27.2732   45.4503 H   0  0  0  0  0  0  0  0  0  0  0  0
   57.3783   25.8886   45.4503 H   0  0  0  0  0  0  0  0  0  0  0  0
   59.7670   29.1630   44.9640 C   0  0  0  0  0  0  0  0  0  0  0  0
   60.3526   28.2485   44.7887 H   0  0  0  0  0  0  0  0  0  0  0  0
   59.7761   29.8335   44.0920 H   0  0  0  0  0  0  0  0  0  0  0  0
   60.3980   29.9290   46.1340 C   0  0  0  0  0  0  0  0  0  0  0  0
   60.0459   29.5016   47.0845 H   0  0  0  0  0  0  0  0  0  0  0  0
   61.4935   29.8462   46.0782 H   0  0  0  0  0  0  0  0  0  0  0  0
   60.1070   30.9883   46.0782 H   0  0  0  0  0  0  0  0  0  0  0  0
   57.4480   31.6960   46.0330 N   0  0  0  0  0  0  0  0  0  0  0  0
   58.1990   32.7710   46.3950 C   0  0  0  0  0  0  0  0  0  0  0  0
   58.5310   32.9760   47.7380 C   0  0  0  0  0  0  0  0  0  0  0  0
   58.1847   32.2674   48.5048 H   0  0  0  0  0  0  0  0  0  0  0  0
  1  2  1  0
  2  3  2  0
  3  4  1  0
  3  5  1  0
  5  6  1  0
  5  7  2  0
  7  8  1  0
  8  9  1  0
  8 10  2  0
 10 11  1  0
 10 12  1  0
 12 13  2  0
 13 14  1  0
 14 15  1  0
 14 16  1  0
 14 17  1  0
 17 18  1  0
 17 19  1  0
 17 20  1  0
 20 21  1  0
 20 22  1  0
 22 23  1  0
 22 24  1  0
 22 25  1  0
 25 26  1  0
 25 27  1  0
 25 28  1  0
 20 29  1  0
 29 30  1  0
 29 31  1  0
 29 32  1  0
 32 33  1  0
 32 34  1  0
 32 35  1  0
 12 36  1  0
 36 37  1  0
 37 38  2  0
 38 39  1  0
 38  2  1  0
 37  7  1  0
M  CHG  2  20   1  36  -1
M  END
>  <UniqueID>  (32) 
31

>  <SMILES>  (32) 
CC[NH+](CC)CC/N=c1\ccc2ccccc2[n-]1

>  <Energy>  (32) 
46.261267521612936

>  <Genealogy>  (32) 
CC[NH+](CC)CCN=c1ccc2ccccc2[n-]1 (protonated)
CC[NH+](CC)CC/N=c1\ccc2ccccc2[n-]1 (cis-trans isomerization)
CC[NH+](CC)CC/N=c1\ccc2ccccc2[n-]1 (3D coordinates assigned)
CC[NH+](CC)CC/N=c1\ccc2ccccc2[n-]1 (optimized conformer: 46.261267521612936 kcal/mol)

>  <smiles>  (32) 
CCN(CC)CCN=c1ccc2ccccc2[nH]1

>  <score_type>  (32) 
oracle

>  <origin>  (32) 
adg

>  <m_score__min__energy>  (32) 
-5.8200000000000003

>  <m_primary>  (32) 
energy

$$$$
32:0
     RDKit          3D

 29 30  0  0  0  0  0  0  0  0999 V2000
   59.5801   35.3633   47.6964 H   0  0  0  0  0  0  0  0  0  0  0  0
   59.1960   34.6430   46.9590 C   0  0  0  0  0  0  0  0  0  0  0  0
   59.3440   34.8960   45.5930 C   0  0  0  0  0  0  0  0  0  0  0  0
   59.8451   35.8154   45.2560 H   0  0  0  0  0  0  0  0  0  0  0  0
   58.8560   33.9820   44.6530 C   0  0  0  0  0  0  0  0  0  0  0  0
   58.9735   34.1850   43.5783 H   0  0  0  0  0  0  0  0  0  0  0  0
   58.2160   32.8050   45.0780 C   0  0  0  0  0  0  0  0  0  0  0  0
   57.7190   31.7980   44.0740 C   0  0  0  0  0  0  0  0  0  0  0  0
   58.4525   30.9832   43.9846 H   0  0  0  0  0  0  0  0  0  0  0  0
   57.5882   32.2977   43.1028 H   0  0  0  0  0  0  0  0  0  0  0  0
   56.4370   31.2460   44.4980 N   0  0  0  0  0  0  0  0  0  0  0  0
   56.2060   29.8490   44.6940 C   0  0  0  0  0  0  0  0  0  0  0  0
   55.0720   29.3730   44.4200 O   0  0  0  0  0  0  0  0  0  0  0  0
   57.2800   28.9950   45.1130 N   0  0  0  0  0  0  0  0  0  0  0  0
   57.2100   27.7910   45.6100 C   0  0  0  0  0  0  0  0  0  0  0  0
   58.3660   27.2390   46.1770 C   0  0  0  0  0  0  0  0  0  0  0  0
   59.3036   27.8141   46.1887 H   0  0  0  0  0  0  0  0  0  0  0  0
   58.3240   25.9570   46.7270 C   0  0  0  0  0  0  0  0  0  0  0  0
   59.2316   25.5136   47.1624 H   0  0  0  0  0  0  0  0  0  0  0  0
   57.1300   25.2410   46.7230 C   0  0  0  0  0  0  0  0  0  0  0  0
   57.0877   24.2279   47.1493 H   0  0  0  0  0  0  0  0  0  0  0  0
   55.9870   25.8230   46.1720 C   0  0  0  0  0  0  0  0  0  0  0  0
   55.0374   25.2679   46.1700 H   0  0  0  0  0  0  0  0  0  0  0  0
   56.0410   27.0740   45.6370 N   0  0  0  0  0  0  0  0  0  0  0  0
   55.1440   27.4740   45.2860 H   0  0  0  0  0  0  0  0  0  0  0  0
   58.0730   32.5570   46.4530 C   0  0  0  0  0  0  0  0  0  0  0  0
   57.5761   31.6372   46.7950 H   0  0  0  0  0  0  0  0  0  0  0  0
   58.5600   33.4750   47.3890 C   0  0  0  0  0  0  0  0  0  0  0  0
   58.4424   33.2776   48.4647 H   0  0  0  0  0  0  0  0  0  0  0  0
  1  2  1  0
  2  3  2  0
  3  4  1  0
  3  5  1  0
  5  6  1  0
  5  7  2  0
  7  8  1  0
  8  9  1  0
  8 10  1  0
  8 11  1  0
 11 12  1  0
 12 13  2  0
 12 14  1  0
 14 15  2  0
 15 16  1  0
 16 17  1  0
 16 18  2  0
 18 19  1  0
 18 20  1  0
 20 21  1  0
 20 22  2  0
 22 23  1  0
 22 24  1  0
 24 25  1  0
  7 26  1  0
 26 27  1  0
 26 28  2  0
 28 29  1  0
 28  2  1  0
 24 15  1  0
M  CHG  1  11  -1
M  END
>  <UniqueID>  (33) 
32

>  <SMILES>  (33) 
O=C(/N=c1/cccc[nH]1)[N-]Cc1ccccc1

>  <Energy>  (33) 
33.2829388617401

>  <Genealogy>  (33) 
O=C(N=c1cccc[nH]1)[N-]Cc1ccccc1 (protonated)
O=C(/N=c1/cccc[nH]1)[N-]Cc1ccccc1 (cis-trans isomerization)
O=C(/N=c1/cccc[nH]1)[N-]Cc1ccccc1 (3D coordinates assigned)
O=C(/N=c1/cccc[nH]1)[N-]Cc1ccccc1 (optimized conformer: 33.2829388617401 kcal/mol)

>  <smiles>  (33) 
O=C(N=c1cccc[nH]1)NCc1ccccc1

>  <score_type>  (33) 
oracle

>  <origin>  (33) 
adg

>  <m_score__min__energy>  (33) 
-8.8200000000000003

>  <m_primary>  (33) 
energy

$$$$
33:0
     RDKit          3D

 47 49  0  0  0  0  0  0  0  0999 V2000
   59.9360   31.1490   48.0670 C   0  0  0  0  0  0  0  0  0  0  0  0
   59.3000   31.9510   46.9630 C   0  0  0  0  0  0  0  0  0  0  0  0
   58.2080   31.4100   46.2610 C   0  0  0  0  0  0  0  0  0  0  0  0
   57.5960   32.1310   45.2200 C   0  0  0  0  0  0  0  0  0  0  0  0
   56.5130   31.6240   44.4870 O   0  0  0  0  0  0  0  0  0  0  0  0
   56.4840   30.3400   43.8700 C   0  0  0  0  0  0  0  0  0  0  0  0
   55.8190   29.3310   44.8030 C   0  0  0  0  0  0  0  0  0  0  0  0
   56.7110   28.1960   45.0550 N   0  0  0  0  0  0  0  0  0  0  0  0
   56.3660   27.0240   45.6250 C   0  0  0  0  0  0  0  0  0  0  0  0
   55.0720   26.7010   46.0190 O   0  0  0  0  0  0  0  0  0  0  0  0
   57.4620   26.2000   45.7740 C   0  0  0  0  0  0  0  0  0  0  0  0
   58.5420   26.9080   45.2790 C   0  0  0  0  0  0  0  0  0  0  0  0
   58.0450   28.1250   44.8550 C   0  0  0  0  0  0  0  0  0  0  0  0
   58.8280   29.1410   44.3100 O   0  0  0  0  0  0  0  0  0  0  0  0
   58.0750   33.4010   44.8960 C   0  0  0  0  0  0  0  0  0  0  0  0
   59.1500   33.9540   45.5920 C   0  0  0  0  0  0  0  0  0  0  0  0
   59.7780   33.2390   46.6250 C   0  0  0  0  0  0  0  0  0  0  0  0
   60.8810   33.8230   47.3420 N   0  0  0  0  0  0  0  0  0  0  0  0
   62.2640   33.3670   47.1840 C   0  0  0  0  0  0  0  0  0  0  0  0
   62.8480   32.9260   48.5340 C   0  0  1  0  0  0  0  0  0  0  0  0
   64.3560   33.1150   48.6100 C   0  0  0  0  0  0  0  0  0  0  0  0
   64.5760   33.3920   50.0630 C   0  0  0  0  0  0  0  0  0  0  0  0
   63.2610   34.0090   50.4960 C   0  0  0  0  0  0  0  0  0  0  0  0
   62.2500   33.6670   49.5740 O   0  0  0  0  0  0  0  0  0  0  0  0
   59.6184   31.5496   49.0410 H   0  0  0  0  0  0  0  0  0  0  0  0
   59.6235   30.0977   47.9833 H   0  0  0  0  0  0  0  0  0  0  0  0
   61.0309   31.2138   47.9833 H   0  0  0  0  0  0  0  0  0  0  0  0
   57.8287   30.4128   46.5288 H   0  0  0  0  0  0  0  0  0  0  0  0
   55.9143   30.3992   42.9309 H   0  0  0  0  0  0  0  0  0  0  0  0
   57.5138   30.0155   43.6598 H   0  0  0  0  0  0  0  0  0  0  0  0
   55.5816   29.8232   45.7577 H   0  0  0  0  0  0  0  0  0  0  0  0
   54.8992   28.9604   44.3270 H   0  0  0  0  0  0  0  0  0  0  0  0
   57.4745   25.1859   46.1999 H   0  0  0  0  0  0  0  0  0  0  0  0
   59.5876   26.5696   45.2323 H   0  0  0  0  0  0  0  0  0  0  0  0
   58.7700   29.3990   43.3340 H   0  0  0  0  0  0  0  0  0  0  0  0
   57.6004   33.9715   44.0840 H   0  0  0  0  0  0  0  0  0  0  0  0
   59.5094   34.9599   45.3292 H   0  0  0  0  0  0  0  0  0  0  0  0
   60.6800   34.4220   48.1740 H   0  0  0  0  0  0  0  0  0  0  0  0
   62.2864   32.5171   46.4860 H   0  0  0  0  0  0  0  0  0  0  0  0
   62.8679   34.1988   46.7923 H   0  0  0  0  0  0  0  0  0  0  0  0
   62.6341   31.8521   48.6390 H   0  0  0  0  0  0  0  0  0  0  0  0
   64.8869   32.2048   48.2942 H   0  0  0  0  0  0  0  0  0  0  0  0
   64.7314   33.9114   47.9506 H   0  0  0  0  0  0  0  0  0  0  0  0
   64.7779   32.4630   50.6163 H   0  0  0  0  0  0  0  0  0  0  0  0
   65.4430   34.0416   50.2538 H   0  0  0  0  0  0  0  0  0  0  0  0
   62.9902   33.6309   51.4928 H   0  0  0  0  0  0  0  0  0  0  0  0
   63.3662   35.1033   50.5326 H   0  0  0  0  0  0  0  0  0  0  0  0
  1  2  1  0
  2  3  2  0
  3  4  1  0
  4  5  1  0
  5  6  1  0
  6  7  1  0
  7  8  1  0
  8  9  1  0
  9 10  1  0
  9 11  2  0
 11 12  1  0
 12 13  2  0
 13 14  1  0
  4 15  2  0
 15 16  1  0
 16 17  2  0
 17 18  1  0
 18 19  1  0
 19 20  1  0
 20 21  1  0
 21 22  1  0
 22 23  1  0
 23 24  1  0
 17  2  1  0
 24 20  1  0
 13  8  1  0
  1 25  1  0
  1 26  1  0
  1 27  1  0
  3 28  1  0
  6 29  1  0
  6 30  1  0
  7 31  1  0
  7 32  1  0
 11 33  1  0
 12 34  1  0
 14 35  1  0
 15 36  1  0
 16 37  1  0
 18 38  1  0
 19 39  1  0
 19 40  1  0
 20 41  1  1
 21 42  1  0
 21 43  1  0
 22 44  1  0
 22 45  1  0
 23 46  1  0
 23 47  1  0
M  CHG  1  10  -1
M  END
>  <UniqueID>  (34) 
33

>  <SMILES>  (34) 
Cc1cc(OCCn2c([O-])ccc2O)ccc1NC[C@H]1CCCO1

>  <Energy>  (34) 
71.80668999606247

>  <Genealogy>  (34) 
Cc1cc(OCCn2c([O-])ccc2O)ccc1NCC1CCCO1 (protonated)
Cc1cc(OCCn2c([O-])ccc2O)ccc1NC[C@H]1CCCO1 (chirality)
Cc1cc(OCCn2c([O-])ccc2O)ccc1NC[C@H]1CCCO1 (3D coordinates assigned)
Cc1cc(OCCn2c([O-])ccc2O)ccc1NC[C@H]1CCCO1 (nonaromatic ring conformer: 71.80668999606247 kcal/mol)

>  <smiles>  (34) 
Cc1cc(OCCn2c(O)ccc2O)ccc1NCC1CCCO1

>  <score_type>  (34) 
oracle

>  <origin>  (34) 
adg

>  <m_score__min__energy>  (34) 
-10.720000000000001

>  <m_primary>  (34) 
energy

$$$$
34:0
     RDKit          3D

 34 36  0  0  0  0  0  0  0  0999 V2000
   56.5122   25.8786   46.2524 H   0  0  0  0  0  0  0  0  0  0  0  0
   56.8750   26.7490   45.6860 C   0  0  0  0  0  0  0  0  0  0  0  0
   56.1780   27.9150   45.6150 N   0  0  0  0  0  0  0  0  0  0  0  0
   56.8180   28.8380   44.8670 C   0  0  0  0  0  0  0  0  0  0  0  0
   56.3220   30.0260   44.6700 N   0  0  0  0  0  0  0  0  0  0  0  0
   56.9660   31.1600   44.0620 C   0  0  0  0  0  0  0  0  0  0  0  0
   57.0400   31.2610   42.8070 O   0  0  0  0  0  0  0  0  0  0  0  0
   57.5500   32.2200   44.9170 C   0  0  0  0  0  0  0  0  0  0  0  0
   57.4970   33.5660   44.5300 C   0  0  0  0  0  0  0  0  0  0  0  0
   57.0118   33.8462   43.5834 H   0  0  0  0  0  0  0  0  0  0  0  0
   58.0570   34.5490   45.3410 C   0  0  0  0  0  0  0  0  0  0  0  0
   58.0175   35.6049   45.0351 H   0  0  0  0  0  0  0  0  0  0  0  0
   58.6690   34.1910   46.5440 C   0  0  0  0  0  0  0  0  0  0  0  0
   59.1760   35.0940   47.2620 O   0  0  0  0  0  0  0  0  0  0  0  0
   58.7150   32.8750   46.9320 N   0  0  0  0  0  0  0  0  0  0  0  0
   59.3860   32.4800   48.1820 C   0  0  0  0  0  0  0  0  0  0  0  0
   58.8549   32.9259   49.0359 H   0  0  0  0  0  0  0  0  0  0  0  0
   59.3751   31.3831   48.2637 H   0  0  0  0  0  0  0  0  0  0  0  0
   60.8140   32.9580   48.1800 C   0  0  0  0  0  0  0  0  0  0  0  0
   61.6970   32.5590   47.1620 C   0  0  0  0  0  0  0  0  0  0  0  0
   61.3376   31.9154   46.3455 H   0  0  0  0  0  0  0  0  0  0  0  0
   63.0320   32.9780   47.1840 C   0  0  0  0  0  0  0  0  0  0  0  0
   63.7181   32.6673   46.3823 H   0  0  0  0  0  0  0  0  0  0  0  0
   63.4950   33.7900   48.2220 C   0  0  0  0  0  0  0  0  0  0  0  0
   64.5444   34.1195   48.2361 H   0  0  0  0  0  0  0  0  0  0  0  0
   62.6250   34.1840   49.2430 C   0  0  0  0  0  0  0  0  0  0  0  0
   63.0770   34.9680   50.2530 F   0  0  0  0  0  0  0  0  0  0  0  0
   61.2900   33.7680   49.2240 C   0  0  0  0  0  0  0  0  0  0  0  0
   60.6092   34.0768   50.0309 H   0  0  0  0  0  0  0  0  0  0  0  0
   58.1730   31.9000   46.1360 C   0  0  0  0  0  0  0  0  0  0  0  0
   58.2263   30.8490   46.4563 H   0  0  0  0  0  0  0  0  0  0  0  0
   58.2760   28.2400   44.2630 S   0  0  0  0  0  0  0  0  0  0  0  0
   58.0790   26.7370   44.9910 C   0  0  0  0  0  0  0  0  0  0  0  0
   58.7803   25.8919   44.9283 H   0  0  0  0  0  0  0  0  0  0  0  0
  1  2  1  0
  2  3  1  0
  3  4  1  0
  4  5  2  0
  5  6  1  0
  6  7  2  0
  6  8  1  0
  8  9  1  0
  9 10  1  0
  9 11  2  0
 11 12  1  0
 11 13  1  0
 13 14  2  0
 13 15  1  0
 15 16  1  0
 16 17  1  0
 16 18  1  0
 16 19  1  0
 19 20  2  0
 20 21  1  0
 20 22  1  0
 22 23  1  0
 22 24  2  0
 24 25  1  0
 24 26  1  0
 26 27  1  0
 26 28  2  0
 28 29  1  0
 15 30  1  0
 30 31  1  0
  4 32  1  0
 32 33  1  0
 33 34  1  0
 33  2  2  0
 30  8  2  0
 28 19  1  0
M  CHG  1   3  -1
M  END
>  <UniqueID>  (35) 
34

>  <SMILES>  (35) 
O=C(/N=c1/[n-]ccs1)c1ccc(=O)n(Cc2cccc(F)c2)c1

>  <Energy>  (35) 
72.70001683975697

>  <Genealogy>  (35) 
O=C(N=c1[n-]ccs1)c1ccc(=O)n(Cc2cccc(F)c2)c1 (protonated)
O=C(/N=c1/[n-]ccs1)c1ccc(=O)n(Cc2cccc(F)c2)c1 (cis-trans isomerization)
O=C(/N=c1/[n-]ccs1)c1ccc(=O)n(Cc2cccc(F)c2)c1 (3D coordinates assigned)
O=C(/N=c1/[n-]ccs1)c1ccc(=O)n(Cc2cccc(F)c2)c1 (optimized conformer: 72.70001683975697 kcal/mol)

>  <smiles>  (35) 
O=C(N=c1[nH]ccs1)c1ccc(=O)n(Cc2cccc(F)c2)c1

>  <score_type>  (35) 
oracle

>  <origin>  (35) 
adg

>  <m_score__min__energy>  (35) 
-9.5700000000000003

>  <m_primary>  (35) 
energy

$$$$
35:0
     RDKit          3D

 42 44  0  0  0  0  0  0  0  0999 V2000
   59.2360   25.2340   46.3530 O   0  0  0  0  0  0  0  0  0  0  0  0
   59.2750   26.4720   46.5820 C   0  0  0  0  0  0  0  0  0  0  0  0
   59.8040   27.3970   45.5260 C   0  0  0  0  0  0  0  0  0  0  0  0
   58.8170   28.4950   45.2220 C   0  0  0  0  0  0  0  0  0  0  0  0
   59.2720   29.7730   44.8550 C   0  0  0  0  0  0  0  0  0  0  0  0
   58.3580   30.7720   44.5060 C   0  0  0  0  0  0  0  0  0  0  0  0
   56.9860   30.5020   44.5140 C   0  0  0  0  0  0  0  0  0  0  0  0
   56.5260   29.2300   44.8690 C   0  0  0  0  0  0  0  0  0  0  0  0
   55.1620   28.9620   44.8730 O   0  0  0  0  0  0  0  0  0  0  0  0
   57.4370   28.2270   45.2160 C   0  0  0  0  0  0  0  0  0  0  0  0
   58.9220   26.9940   47.8690 N   0  0  0  0  0  0  0  0  0  0  0  0
   59.5920   27.9990   48.6430 C   0  0  0  0  0  0  0  0  0  0  0  0
   60.6610   27.7060   49.5090 C   0  0  0  0  0  0  0  0  0  0  0  0
   61.2370   28.7220   50.2780 C   0  0  0  0  0  0  0  0  0  0  0  0
   60.7320   30.0220   50.2200 C   0  0  0  0  0  0  0  0  0  0  0  0
   59.6420   30.3200   49.3920 C   0  0  0  0  0  0  0  0  0  0  0  0
   59.0970   31.6460   49.4180 N   0  0  0  0  0  0  0  0  0  0  0  0
   59.8580   33.0430   48.7240 S   0  0  0  0  0  0  0  0  0  0  0  0
   61.3090   32.7350   48.4740 O   0  0  0  0  0  0  0  0  0  0  0  0
   59.7570   34.1910   49.6860 O   0  0  0  0  0  0  0  0  0  0  0  0
   59.0510   33.4880   47.2210 C   0  0  0  0  0  0  0  0  0  0  0  0
   59.7560   34.1770   46.2240 C   0  0  0  0  0  0  0  0  0  0  0  0
   59.1080   34.5740   45.0500 C   0  0  0  0  0  0  0  0  0  0  0  0
   57.7550   34.2770   44.8630 C   0  0  0  0  0  0  0  0  0  0  0  0
   57.0500   33.5820   45.8500 C   0  0  0  0  0  0  0  0  0  0  0  0
   57.6940   33.1880   47.0260 C   0  0  0  0  0  0  0  0  0  0  0  0
   59.0940   29.3060   48.5890 C   0  0  0  0  0  0  0  0  0  0  0  0
   60.7435   27.8464   45.8800 H   0  0  0  0  0  0  0  0  0  0  0  0
   59.9749   26.8168   44.6072 H   0  0  0  0  0  0  0  0  0  0  0  0
   60.3507   29.9881   44.8422 H   0  0  0  0  0  0  0  0  0  0  0  0
   58.7190   31.7723   44.2246 H   0  0  0  0  0  0  0  0  0  0  0  0
   56.2687   31.2900   44.2411 H   0  0  0  0  0  0  0  0  0  0  0  0
   57.0723   27.2247   45.4852 H   0  0  0  0  0  0  0  0  0  0  0  0
   61.0440   26.6774   49.5813 H   0  0  0  0  0  0  0  0  0  0  0  0
   62.0922   28.4957   50.9318 H   0  0  0  0  0  0  0  0  0  0  0  0
   61.1918   30.8158   50.8270 H   0  0  0  0  0  0  0  0  0  0  0  0
   60.8225   34.4061   46.3657 H   0  0  0  0  0  0  0  0  0  0  0  0
   59.6633   35.1203   44.2734 H   0  0  0  0  0  0  0  0  0  0  0  0
   57.2453   34.5899   43.9398 H   0  0  0  0  0  0  0  0  0  0  0  0
   55.9863   33.3448   45.7007 H   0  0  0  0  0  0  0  0  0  0  0  0
   57.1360   32.6415   47.8006 H   0  0  0  0  0  0  0  0  0  0  0  0
   58.2625   29.5423   47.9087 H   0  0  0  0  0  0  0  0  0  0  0  0
  1  2  2  0
  2  3  1  0
  3  4  1  0
  4  5  2  0
  5  6  1  0
  6  7  2  0
  7  8  1  0
  8  9  1  0
  8 10  2  0
  2 11  1  0
 11 12  1  0
 12 13  2  0
 13 14  1  0
 14 15  2  0
 15 16  1  0
 16 17  1  0
 17 18  1  0
 18 19  2  0
 18 20  2  0
 18 21  1  0
 21 22  2  0
 22 23  1  0
 23 24  2  0
 24 25  1  0
 25 26  2  0
 16 27  2  0
 10  4  1  0
 27 12  1  0
 26 21  1  0
  3 28  1  0
  3 29  1  0
  5 30  1  0
  6 31  1  0
  7 32  1  0
 10 33  1  0
 13 34  1  0
 14 35  1  0
 15 36  1  0
 22 37  1  0
 23 38  1  0
 24 39  1  0
 25 40  1  0
 26 41  1  0
 27 42  1  0
M  CHG  3   9  -1  11  -1  17  -1
M  END
>  <UniqueID>  (36) 
35

>  <SMILES>  (36) 
O=C(Cc1cccc([O-])c1)[N-]c1cccc([N-]S(=O)(=O)c2ccccc2)c1

>  <Energy>  (36) 
48.35143197775556

>  <Genealogy>  (36) 
O=C(Cc1cccc([O-])c1)[N-]c1cccc([N-]S(=O)(=O)c2ccccc2)c1 (protonated)
O=C(Cc1cccc([O-])c1)[N-]c1cccc([N-]S(=O)(=O)c2ccccc2)c1 (3D coordinates assigned)
O=C(Cc1cccc([O-])c1)[N-]c1cccc([N-]S(=O)(=O)c2ccccc2)c1 (optimized conformer: 48.35143197775556 kcal/mol)

>  <smiles>  (36) 
O=C(Cc1cccc(O)c1)Nc1cccc(NS(=O)(=O)c2ccccc2)c1

>  <score_type>  (36) 
oracle

>  <origin>  (36) 
adg

>  <m_score__min__energy>  (36) 
-14.9

>  <m_primary>  (36) 
energy

$$$$
36:0
     RDKit          3D

 64 67  0  0  0  0  0  0  0  0999 V2000
   63.3570   33.8680   46.3470 C   0  0  0  0  0  0  0  0  0  0  0  0
   62.8680   32.9310   47.4140 C   0  0  0  0  0  0  0  0  0  0  0  0
   61.9750   31.8960   47.1030 C   0  0  0  0  0  0  0  0  0  0  0  0
   61.5530   31.0090   48.0980 C   0  0  0  0  0  0  0  0  0  0  0  0
   62.0300   31.1270   49.4140 C   0  0  0  0  0  0  0  0  0  0  0  0
   61.5850   30.1880   50.4090 N   0  0  0  0  0  0  0  0  0  0  0  0
   59.9900   29.5020   50.4630 S   0  0  0  0  0  0  0  0  0  0  0  0
   59.8300   28.7350   51.7450 O   0  0  0  0  0  0  0  0  0  0  0  0
   58.9620   30.5990   50.4470 O   0  0  0  0  0  0  0  0  0  0  0  0
   59.7540   28.4010   49.1090 C   0  0  0  0  0  0  0  0  0  0  0  0
   60.7790   27.5340   48.7030 C   0  0  0  0  0  0  0  0  0  0  0  0
   60.5910   26.6880   47.6090 C   0  0  0  0  0  0  0  0  0  0  0  0
   59.3800   26.7040   46.9110 C   0  0  0  0  0  0  0  0  0  0  0  0
   58.3420   27.5520   47.3140 C   0  0  0  0  0  0  0  0  0  0  0  0
   57.1350   27.5720   46.5360 N   0  0  0  0  0  0  0  0  0  0  0  0
   56.5920   26.4950   45.7580 C   0  0  0  0  0  0  0  0  0  0  0  0
   55.4570   26.0200   46.0280 O   0  0  0  0  0  0  0  0  0  0  0  0
   57.3810   25.9120   44.6230 C   0  0  0  0  0  0  0  0  0  0  0  0
   57.8210   26.9520   43.6900 N   0  0  0  0  0  0  0  0  0  0  0  0
   57.9040   28.3550   44.0130 C   0  0  0  0  0  0  0  0  0  0  0  0
   59.0950   28.9390   44.4870 C   0  0  0  0  0  0  0  0  0  0  0  0
   59.1380   30.3020   44.7920 C   0  0  0  0  0  0  0  0  0  0  0  0
   57.9960   31.1020   44.6350 C   0  0  0  0  0  0  0  0  0  0  0  0
   58.0500   32.8240   45.0200 S   0  0  0  0  0  0  0  0  0  0  0  0
   58.7110   33.5590   43.8880 O   0  0  0  0  0  0  0  0  0  0  0  0
   56.6470   33.3470   45.1590 O   0  0  0  0  0  0  0  0  0  0  0  0
   58.9290   33.1350   46.4980 N   0  0  0  0  0  0  0  0  0  0  0  0
   58.1070   32.7940   47.6690 C   0  0  0  0  0  0  0  0  0  0  0  0
   58.9060   33.0440   48.9650 C   0  0  0  0  0  0  0  0  0  0  0  0
   60.1240   33.7310   48.7250 O   0  0  0  0  0  0  0  0  0  0  0  0
   59.8710   34.9020   47.9720 C   0  0  0  0  0  0  0  0  0  0  0  0
   59.3540   34.5470   46.5610 C   0  0  0  0  0  0  0  0  0  0  0  0
   56.8100   30.5230   44.1690 C   0  0  0  0  0  0  0  0  0  0  0  0
   56.7660   29.1630   43.8530 C   0  0  0  0  0  0  0  0  0  0  0  0
   58.5380   28.4110   48.4110 C   0  0  0  0  0  0  0  0  0  0  0  0
   62.9270   32.1680   49.7210 C   0  0  0  0  0  0  0  0  0  0  0  0
   63.3480   33.0560   48.7270 C   0  0  0  0  0  0  0  0  0  0  0  0
   63.8173   34.7500   46.8164 H   0  0  0  0  0  0  0  0  0  0  0  0
   64.1022   33.3546   45.7216 H   0  0  0  0  0  0  0  0  0  0  0  0
   62.5097   34.1857   45.7216 H   0  0  0  0  0  0  0  0  0  0  0  0
   61.6053   31.7814   46.0733 H   0  0  0  0  0  0  0  0  0  0  0  0
   60.8397   30.2100   47.8476 H   0  0  0  0  0  0  0  0  0  0  0  0
   62.2160   29.9760   51.2150 H   0  0  0  0  0  0  0  0  0  0  0  0
   61.7341   27.5208   49.2485 H   0  0  0  0  0  0  0  0  0  0  0  0
   61.3967   26.0078   47.2957 H   0  0  0  0  0  0  0  0  0  0  0  0
   59.2420   26.0464   46.0401 H   0  0  0  0  0  0  0  0  0  0  0  0
   58.2646   25.3973   45.0283 H   0  0  0  0  0  0  0  0  0  0  0  0
   56.7356   25.2075   44.0778 H   0  0  0  0  0  0  0  0  0  0  0  0
   58.0300   26.6560   42.7090 H   0  0  0  0  0  0  0  0  0  0  0  0
   59.9947   28.3197   44.6176 H   0  0  0  0  0  0  0  0  0  0  0  0
   60.0734   30.7508   45.1576 H   0  0  0  0  0  0  0  0  0  0  0  0
   57.2016   33.4187   47.6729 H   0  0  0  0  0  0  0  0  0  0  0  0
   57.8268   31.7316   47.6166 H   0  0  0  0  0  0  0  0  0  0  0  0
   58.2899   33.6457   49.6494 H   0  0  0  0  0  0  0  0  0  0  0  0
   59.1533   32.0648   49.4009 H   0  0  0  0  0  0  0  0  0  0  0  0
   59.1139   35.5079   48.4914 H   0  0  0  0  0  0  0  0  0  0  0  0
   60.8102   35.4656   47.8713 H   0  0  0  0  0  0  0  0  0  0  0  0
   58.4972   35.1926   46.3179 H   0  0  0  0  0  0  0  0  0  0  0  0
   60.1682   34.7026   45.8379 H   0  0  0  0  0  0  0  0  0  0  0  0
   55.9083   31.1418   44.0510 H   0  0  0  0  0  0  0  0  0  0  0  0
   55.8321   28.7209   43.4756 H   0  0  0  0  0  0  0  0  0  0  0  0
   57.7336   29.0935   48.7225 H   0  0  0  0  0  0  0  0  0  0  0  0
   63.2989   32.2832   50.7498 H   0  0  0  0  0  0  0  0  0  0  0  0
   64.0595   33.8573   48.9752 H   0  0  0  0  0  0  0  0  0  0  0  0
  1  2  1  0
  2  3  2  0
  3  4  1  0
  4  5  2  0
  5  6  1  0
  6  7  1  0
  7  8  2  0
  7  9  2  0
  7 10  1  0
 10 11  2  0
 11 12  1  0
 12 13  2  0
 13 14  1  0
 14 15  1  0
 15 16  1  0
 16 17  2  0
 16 18  1  0
 18 19  1  0
 19 20  1  0
 20 21  2  0
 21 22  1  0
 22 23  2  0
 23 24  1  0
 24 25  2  0
 24 26  2  0
 24 27  1  0
 27 28  1  0
 28 29  1  0
 29 30  1  0
 30 31  1  0
 31 32  1  0
 23 33  1  0
 33 34  2  0
 14 35  2  0
  5 36  1  0
 36 37  2  0
 37  2  1  0
 35 10  1  0
 34 20  1  0
 32 27  1  0
  1 38  1  0
  1 39  1  0
  1 40  1  0
  3 41  1  0
  4 42  1  0
  6 43  1  0
 11 44  1  0
 12 45  1  0
 13 46  1  0
 18 47  1  0
 18 48  1  0
 19 49  1  0
 21 50  1  0
 22 51  1  0
 28 52  1  0
 28 53  1  0
 29 54  1  0
 29 55  1  0
 31 56  1  0
 31 57  1  0
 32 58  1  0
 32 59  1  0
 33 60  1  0
 34 61  1  0
 35 62  1  0
 36 63  1  0
 37 64  1  0
M  CHG  1  15  -1
M  END
>  <UniqueID>  (37) 
36

>  <SMILES>  (37) 
Cc1ccc(NS(=O)(=O)c2cccc([N-]C(=O)CNc3ccc(S(=O)(=O)N4CCOCC4)cc3)c2)cc1

>  <Energy>  (37) 
79.69958625898725

>  <Genealogy>  (37) 
Cc1ccc(NS(=O)(=O)c2cccc([N-]C(=O)CNc3ccc(S(=O)(=O)N4CCOCC4)cc3)c2)cc1 (protonated)
Cc1ccc(NS(=O)(=O)c2cccc([N-]C(=O)CNc3ccc(S(=O)(=O)N4CCOCC4)cc3)c2)cc1 (3D coordinates assigned)
Cc1ccc(NS(=O)(=O)c2cccc([N-]C(=O)CNc3ccc(S(=O)(=O)N4CCOCC4)cc3)c2)cc1 (nonaromatic ring conformer: 79.69958625898725 kcal/mol)

>  <smiles>  (37) 
Cc1ccc(NS(=O)(=O)c2cccc(NC(=O)CNc3ccc(S(=O)(=O)N4CCOCC4)cc3)c2)cc1

>  <score_type>  (37) 
oracle

>  <origin>  (37) 
adg

>  <m_score__min__energy>  (37) 
-12.09

>  <m_primary>  (37) 
energy

$$$$
37:0
     RDKit          3D

 49 51  0  0  0  0  0  0  0  0999 V2000
   57.3430   27.0670   46.3560 C   0  0  0  0  0  0  0  0  0  0  0  0
   57.5480   28.4530   45.9120 N   0  0  0  0  0  0  0  0  0  0  0  0
   56.6920   29.0090   44.8570 C   0  0  0  0  0  0  0  0  0  0  0  0
   58.5830   29.2640   46.5170 C   0  0  0  0  0  0  0  0  0  0  0  0
   58.9150   29.1110   47.8780 C   0  0  0  0  0  0  0  0  0  0  0  0
   59.9030   29.9050   48.4640 C   0  0  0  0  0  0  0  0  0  0  0  0
   60.5920   30.8530   47.6990 C   0  0  0  0  0  0  0  0  0  0  0  0
   61.8680   31.8370   48.4120 S   0  0  0  0  0  0  0  0  0  0  0  0
   63.1820   31.6000   47.7170 O   0  0  0  0  0  0  0  0  0  0  0  0
   62.0160   31.4440   49.8540 O   0  0  0  0  0  0  0  0  0  0  0  0
   61.4510   33.5240   48.3240 N   0  0  0  0  0  0  0  0  0  0  0  0
   60.2280   33.9790   48.3810 C   0  0  0  0  0  0  0  0  0  0  0  0
   59.6680   34.4350   49.6210 N   0  0  0  0  0  0  0  0  0  0  0  0
   59.2460   33.5490   50.6720 C   0  0  0  0  0  0  0  0  0  0  0  0
   58.6330   32.3310   50.3400 C   0  0  0  0  0  0  0  0  0  0  0  0
   58.1810   31.4710   51.3440 C   0  0  0  0  0  0  0  0  0  0  0  0
   58.3590   31.8090   52.6890 C   0  0  0  0  0  0  0  0  0  0  0  0
   58.9930   33.0050   53.0300 C   0  0  0  0  0  0  0  0  0  0  0  0
   59.4360   33.8730   52.0300 C   0  0  0  0  0  0  0  0  0  0  0  0
   59.3880   34.0450   47.1580 C   0  0  0  0  0  0  0  0  0  0  0  0
   59.8270   34.7390   46.0120 C   0  0  0  0  0  0  0  0  0  0  0  0
   59.0230   34.7950   44.8690 C   0  0  0  0  0  0  0  0  0  0  0  0
   57.7770   34.1650   44.8590 C   0  0  0  0  0  0  0  0  0  0  0  0
   57.3240   33.4880   45.9960 C   0  0  0  0  0  0  0  0  0  0  0  0
   58.1220   33.4320   47.1420 C   0  0  0  0  0  0  0  0  0  0  0  0
   60.2780   31.0090   46.3440 C   0  0  0  0  0  0  0  0  0  0  0  0
   59.2780   30.2280   45.7580 C   0  0  0  0  0  0  0  0  0  0  0  0
   57.3377   27.0312   47.4554 H   0  0  0  0  0  0  0  0  0  0  0  0
   56.3805   26.6977   45.9724 H   0  0  0  0  0  0  0  0  0  0  0  0
   58.1574   26.4348   45.9724 H   0  0  0  0  0  0  0  0  0  0  0  0
   55.8531   29.5539   45.3146 H   0  0  0  0  0  0  0  0  0  0  0  0
   57.2800   29.6981   44.2329 H   0  0  0  0  0  0  0  0  0  0  0  0
   56.3015   28.1917   44.2329 H   0  0  0  0  0  0  0  0  0  0  0  0
   58.3905   28.3584   48.4850 H   0  0  0  0  0  0  0  0  0  0  0  0
   60.1407   29.7849   49.5313 H   0  0  0  0  0  0  0  0  0  0  0  0
   62.2530   34.1860   48.2400 H   0  0  0  0  0  0  0  0  0  0  0  0
   59.5140   35.4620   49.7310 H   0  0  0  0  0  0  0  0  0  0  0  0
   58.5077   32.0519   49.2834 H   0  0  0  0  0  0  0  0  0  0  0  0
   57.6844   30.5268   51.0760 H   0  0  0  0  0  0  0  0  0  0  0  0
   57.9995   31.1325   53.4784 H   0  0  0  0  0  0  0  0  0  0  0  0
   59.1439   33.2641   54.0884 H   0  0  0  0  0  0  0  0  0  0  0  0
   59.9356   34.8140   52.3036 H   0  0  0  0  0  0  0  0  0  0  0  0
   60.8068   35.2389   46.0169 H   0  0  0  0  0  0  0  0  0  0  0  0
   59.3725   35.3358   43.9772 H   0  0  0  0  0  0  0  0  0  0  0  0
   57.1506   34.2012   43.9555 H   0  0  0  0  0  0  0  0  0  0  0  0
   56.3386   32.9991   45.9882 H   0  0  0  0  0  0  0  0  0  0  0  0
   57.7580   32.9055   48.0366 H   0  0  0  0  0  0  0  0  0  0  0  0
   60.8205   31.7494   45.7378 H   0  0  0  0  0  0  0  0  0  0  0  0
   59.0309   30.3666   44.6951 H   0  0  0  0  0  0  0  0  0  0  0  0
  1  2  1  0
  2  3  1  0
  2  4  1  0
  4  5  2  0
  5  6  1  0
  6  7  2  0
  7  8  1  0
  8  9  2  0
  8 10  2  0
  8 11  1  0
 11 12  2  3
 12 13  1  0
 13 14  1  0
 14 15  2  0
 15 16  1  0
 16 17  2  0
 17 18  1  0
 18 19  2  0
 12 20  1  0
 20 21  2  0
 21 22  1  0
 22 23  2  0
 23 24  1  0
 24 25  2  0
  7 26  1  0
 26 27  2  0
 27  4  1  0
 19 14  1  0
 25 20  1  0
  1 28  1  0
  1 29  1  0
  1 30  1  0
  3 31  1  0
  3 32  1  0
  3 33  1  0
  5 34  1  0
  6 35  1  0
 11 36  1  0
 13 37  1  0
 15 38  1  0
 16 39  1  0
 17 40  1  0
 18 41  1  0
 19 42  1  0
 21 43  1  0
 22 44  1  0
 23 45  1  0
 24 46  1  0
 25 47  1  0
 26 48  1  0
 27 49  1  0
M  CHG  1  11   1
M  END
>  <UniqueID>  (38) 
37

>  <SMILES>  (38) 
CN(C)c1ccc(S(=O)(=O)[NH+]=C(Nc2ccccc2)c2ccccc2)cc1

>  <Energy>  (38) 
64.34226767681449

>  <Genealogy>  (38) 
CN(C)c1ccc(S(=O)(=O)[NH+]=C(Nc2ccccc2)c2ccccc2)cc1 (protonated)
CN(C)c1ccc(S(=O)(=O)[NH+]=C(Nc2ccccc2)c2ccccc2)cc1 (3D coordinates assigned)
CN(C)c1ccc(S(=O)(=O)[NH+]=C(Nc2ccccc2)c2ccccc2)cc1 (optimized conformer: 64.34226767681449 kcal/mol)

>  <smiles>  (38) 
CN(C)c1ccc(S(=O)(=O)N=C(Nc2ccccc2)c2ccccc2)cc1

>  <score_type>  (38) 
oracle

>  <origin>  (38) 
adg

>  <m_score__min__energy>  (38) 
-6.8799999999999999

>  <m_primary>  (38) 
energy

$$$$
38:0
     RDKit          3D

 50 52  0  0  1  0  0  0  0  0999 V2000
   57.1020   28.6430   44.1080 N   0  0  0  0  0  0  0  0  0  0  0  0
   56.8790   29.8420   43.3310 C   0  0  0  0  0  0  0  0  0  0  0  0
   56.2700   29.7120   42.2300 O   0  0  0  0  0  0  0  0  0  0  0  0
   57.3410   31.1270   43.8270 C   0  0  0  0  0  0  0  0  0  0  0  0
   57.0810   31.6320   45.0610 C   0  0  0  0  0  0  0  0  0  0  0  0
   57.5400   32.8960   45.3810 C   0  0  0  0  0  0  0  0  0  0  0  0
   58.2510   33.6580   44.4980 C   0  0  0  0  0  0  0  0  0  0  0  0
   58.6930   34.8530   44.7600 N   0  0  0  0  0  0  0  0  0  0  0  0
   59.5550   35.0750   45.8420 C   0  0  0  0  0  0  0  0  0  0  0  0
   60.0100   36.2600   45.9880 O   0  0  0  0  0  0  0  0  0  0  0  0
   59.9940   34.1060   46.8160 C   0  0  0  0  0  0  0  0  0  0  0  0
   59.3700   34.0280   48.0400 C   0  0  0  0  0  0  0  0  0  0  0  0
   59.7880   33.0990   48.9960 C   0  0  0  0  0  0  0  0  0  0  0  0
   60.8210   32.2200   48.7840 C   0  0  0  0  0  0  0  0  0  0  0  0
   61.2470   31.1560   49.6380 C   0  0  0  0  0  0  0  0  0  0  0  0
   61.0240   29.8850   49.5780 C   0  0  0  0  0  0  0  0  0  0  0  0
   60.2620   29.1460   48.5900 C   0  0  0  0  0  0  0  0  0  0  0  0
   59.1630   29.6060   47.9290 C   0  0  0  0  0  0  0  0  0  0  0  0
   58.3880   28.8240   47.0530 C   0  0  0  0  0  0  0  0  0  0  0  0
   57.3940   29.2630   46.4680 O   0  0  0  0  0  0  0  0  0  0  0  0
   58.8700   27.5180   46.9240 C   0  0  0  0  0  0  0  0  0  0  0  0
   58.1770   26.6540   46.0740 O   0  0  0  0  0  0  0  0  0  0  0  0
   57.4370   25.5450   46.5400 C   0  0  0  0  0  0  0  0  0  0  0  0
   55.9550   25.6540   46.2950 C   0  0  0  0  0  0  0  0  0  0  0  0
   55.5520   26.9600   45.9680 O   0  0  0  0  0  0  0  0  0  0  0  0
   59.9460   27.1000   47.5800 N   0  0  0  0  0  0  0  0  0  0  0  0
   60.6650   27.8530   48.4060 N   0  0  0  0  0  0  0  0  0  0  0  0
   61.4420   32.3140   47.5390 C   0  0  0  0  0  0  0  0  0  0  0  0
   61.0430   33.2220   46.5900 C   0  0  0  0  0  0  0  0  0  0  0  0
   58.4940   33.1190   43.2720 N   0  0  0  0  0  0  0  0  0  0  0  0
   58.0690   31.8990   42.9170 C   0  0  0  0  0  0  0  0  0  0  0  0
   56.2370   28.0270   44.1690 H   0  0  0  0  0  0  0  0  0  0  0  0
   58.0030   28.4110   44.5570 H   0  0  0  0  0  0  0  0  0  0  0  0
   56.5127   31.0429   45.7959 H   0  0  0  0  0  0  0  0  0  0  0  0
   57.3254   33.3020   46.3806 H   0  0  0  0  0  0  0  0  0  0  0  0
   58.5331   34.7044   48.2681 H   0  0  0  0  0  0  0  0  0  0  0  0
   59.2652   33.0705   49.9634 H   0  0  0  0  0  0  0  0  0  0  0  0
   61.8687   31.4723   50.4886 H   0  0  0  0  0  0  0  0  0  0  0  0
   61.4714   29.2836   50.3830 H   0  0  0  0  0  0  0  0  0  0  0  0
   58.8635   30.6521   48.0900 H   0  0  0  0  0  0  0  0  0  0  0  0
   57.8069   24.6430   46.0305 H   0  0  0  0  0  0  0  0  0  0  0  0
   57.5782   25.5021   47.6301 H   0  0  0  0  0  0  0  0  0  0  0  0
   55.6858   24.9848   45.4645 H   0  0  0  0  0  0  0  0  0  0  0  0
   55.4435   25.3731   47.2274 H   0  0  0  0  0  0  0  0  0  0  0  0
   56.2720   27.5540   46.2960 H   0  0  0  0  0  0  0  0  0  0  0  0
   61.5000   27.4580   48.8870 H   0  0  0  0  0  0  0  0  0  0  0  0
   62.2792   31.6383   47.3098 H   0  0  0  0  0  0  0  0  0  0  0  0
   61.5679   33.2510   45.6237 H   0  0  0  0  0  0  0  0  0  0  0  0
   59.0340   33.6880   42.5920 H   0  0  0  0  0  0  0  0  0  0  0  0
   58.2920   31.5066   41.9139 H   0  0  0  0  0  0  0  0  0  0  0  0
  1  2  1  0
  2  3  2  0
  2  4  1  0
  4  5  1  0
  5  6  2  0
  6  7  1  0
  7  8  2  0
  8  9  1  0
  9 10  2  0
  9 11  1  0
 11 12  2  0
 12 13  1  0
 13 14  2  0
 14 15  1  0
 15 16  2  0
 16 17  1  0
 17 18  2  0
 18 19  1  0
 19 20  2  0
 19 21  1  0
 21 22  1  0
 22 23  1  0
 23 24  1  0
 24 25  1  0
 21 26  2  0
 26 27  1  0
 14 28  1  0
 28 29  2  0
  7 30  1  0
 30 31  1  0
 31  4  2  0
 29 11  1  0
 27 17  1  0
  1 32  1  0
  1 33  1  0
  5 34  1  0
  6 35  1  0
 12 36  1  0
 13 37  1  0
 15 38  1  0
 16 39  1  0
 18 40  1  0
 23 41  1  0
 23 42  1  0
 24 43  1  0
 24 44  1  0
 25 45  1  0
 27 46  1  0
 28 47  1  0
 29 48  1  0
 30 49  1  0
 31 50  1  0
M  END
>  <smiles>  (39) 
NC(=O)c1ccc(=NC(=O)c2ccc(C=Cc3cc(=O)c(OCCO)n[nH]3)cc2)[nH]c1

>  <score_type>  (39) 
oracle

>  <origin>  (39) 
adg

>  <m_score__min__energy>  (39) 
-9.4600000000000009

>  <m_primary>  (39) 
energy

$$$$
39:0
     RDKit          3D

 54 56  0  0  0  0  0  0  0  0999 V2000
   57.9620   32.1290   46.6350 C   0  0  0  0  0  0  0  0  0  0  0  0
   57.1700   31.5120   45.6270 O   0  0  0  0  0  0  0  0  0  0  0  0
   57.3490   31.7000   44.2460 C   0  0  0  0  0  0  0  0  0  0  0  0
   58.1870   32.7140   43.7380 C   0  0  0  0  0  0  0  0  0  0  0  0
   58.3630   32.8630   42.3610 C   0  0  0  0  0  0  0  0  0  0  0  0
   57.7070   32.0080   41.4760 C   0  0  0  0  0  0  0  0  0  0  0  0
   56.8650   31.0070   41.9640 C   0  0  0  0  0  0  0  0  0  0  0  0
   56.6690   30.8520   43.3460 C   0  0  0  0  0  0  0  0  0  0  0  0
   55.7250   29.7930   43.8570 C   0  0  0  0  0  0  0  0  0  0  0  0
   56.2060   29.2420   45.1220 N   0  0  0  0  0  0  0  0  0  0  0  0
   57.0490   28.0830   45.1870 C   0  0  0  0  0  0  0  0  0  0  0  0
   57.4290   27.5140   44.1270 O   0  0  0  0  0  0  0  0  0  0  0  0
   57.4400   27.5090   46.5160 C   0  0  0  0  0  0  0  0  0  0  0  0
   58.6370   28.1710   47.0250 N   0  0  0  0  0  0  0  0  0  0  0  0
   59.8560   28.2020   46.4470 C   0  0  0  0  0  0  0  0  0  0  0  0
   60.7400   28.9440   47.1480 N   0  0  0  0  0  0  0  0  0  0  0  0
   60.0230   29.3890   48.1990 C   0  0  0  0  0  0  0  0  0  0  0  0
   60.6570   30.4500   49.4430 S   0  0  0  0  0  0  0  0  0  0  0  0
   59.5620   30.7410   50.4320 O   0  0  0  0  0  0  0  0  0  0  0  0
   61.7980   29.7710   50.1490 O   0  0  0  0  0  0  0  0  0  0  0  0
   61.2140   31.9300   48.7050 N   0  0  0  0  0  0  0  0  0  0  0  0
   61.0340   31.8710   47.2400 C   0  0  0  0  0  0  0  0  0  0  0  0
   61.1260   33.2750   46.5920 C   0  0  0  0  0  0  0  0  0  0  0  0
   62.4530   34.0110   46.8650 C   0  0  0  0  0  0  0  0  0  0  0  0
   63.6960   33.0950   46.9360 C   0  0  0  0  0  0  0  0  0  0  0  0
   63.6210   31.9440   47.9550 C   0  0  0  0  0  0  0  0  0  0  0  0
   62.6160   32.1770   49.0970 C   0  0  0  0  0  0  0  0  0  0  0  0
   58.7310   28.9260   48.1300 C   0  0  0  0  0  0  0  0  0  0  0  0
   57.5865   31.8364   47.6267 H   0  0  0  0  0  0  0  0  0  0  0  0
   59.0079   31.8053   46.5289 H   0  0  0  0  0  0  0  0  0  0  0  0
   57.9040   33.2223   46.5289 H   0  0  0  0  0  0  0  0  0  0  0  0
   58.7056   33.3923   44.4315 H   0  0  0  0  0  0  0  0  0  0  0  0
   59.0199   33.6558   41.9738 H   0  0  0  0  0  0  0  0  0  0  0  0
   57.8532   32.1224   40.3918 H   0  0  0  0  0  0  0  0  0  0  0  0
   56.3514   30.3348   41.2609 H   0  0  0  0  0  0  0  0  0  0  0  0
   54.7313   30.2387   44.0114 H   0  0  0  0  0  0  0  0  0  0  0  0
   55.6675   28.9820   43.1161 H   0  0  0  0  0  0  0  0  0  0  0  0
   55.8780   29.6850   46.0100 H   0  0  0  0  0  0  0  0  0  0  0  0
   56.6153   27.6529   47.2295 H   0  0  0  0  0  0  0  0  0  0  0  0
   57.6511   26.4365   46.3928 H   0  0  0  0  0  0  0  0  0  0  0  0
   60.1020   27.6812   45.5098 H   0  0  0  0  0  0  0  0  0  0  0  0
   61.8170   31.2287   46.8107 H   0  0  0  0  0  0  0  0  0  0  0  0
   60.0326   31.4647   47.0347 H   0  0  0  0  0  0  0  0  0  0  0  0
   61.0123   33.1609   45.5039 H   0  0  0  0  0  0  0  0  0  0  0  0
   60.3282   33.8840   47.0422 H   0  0  0  0  0  0  0  0  0  0  0  0
   62.6116   34.7422   46.0586 H   0  0  0  0  0  0  0  0  0  0  0  0
   62.3524   34.4761   47.8567 H   0  0  0  0  0  0  0  0  0  0  0  0
   63.8483   32.6546   45.9396 H   0  0  0  0  0  0  0  0  0  0  0  0
   64.5230   33.7382   47.2713 H   0  0  0  0  0  0  0  0  0  0  0  0
   63.3291   31.0282   47.4201 H   0  0  0  0  0  0  0  0  0  0  0  0
   64.6152   31.8678   48.4195 H   0  0  0  0  0  0  0  0  0  0  0  0
   62.8697   31.5020   49.9277 H   0  0  0  0  0  0  0  0  0  0  0  0
   62.6908   33.2363   49.3838 H   0  0  0  0  0  0  0  0  0  0  0  0
   57.9239   29.1355   48.8474 H   0  0  0  0  0  0  0  0  0  0  0  0
  1  2  1  0
  2  3  1  0
  3  4  2  0
  4  5  1  0
  5  6  2  0
  6  7  1  0
  7  8  2  0
  8  9  1  0
  9 10  1  0
 10 11  1  0
 11 12  2  0
 11 13  1  0
 13 14  1  0
 14 15  1  0
 15 16  2  0
 16 17  1  0
 17 18  1  0
 18 19  2  0
 18 20  2  0
 18 21  1  0
 21 22  1  0
 22 23  1  0
 23 24  1  0
 24 25  1  0
 25 26  1  0
 26 27  1  0
 17 28  2  0
  8  3  1  0
 28 14  1  0
 27 21  1  0
  1 29  1  0
  1 30  1  0
  1 31  1  0
  4 32  1  0
  5 33  1  0
  6 34  1  0
  7 35  1  0
  9 36  1  0
  9 37  1  0
 10 38  1  0
 13 39  1  0
 13 40  1  0
 15 41  1  0
 22 42  1  0
 22 43  1  0
 23 44  1  0
 23 45  1  0
 24 46  1  0
 24 47  1  0
 25 48  1  0
 25 49  1  0
 26 50  1  0
 26 51  1  0
 27 52  1  0
 27 53  1  0
 28 54  1  0
M  END
>  <UniqueID>  (40) 
38

>  <SMILES>  (40) 
COc1ccccc1CNC(=O)Cn1cnc(S(=O)(=O)N2CCCCCC2)c1

>  <Energy>  (40) 
82.71240038668715

>  <Genealogy>  (40) 
COc1ccccc1CNC(=O)Cn1cnc(S(=O)(=O)N2CCCCCC2)c1 (3D coordinates assigned)
COc1ccccc1CNC(=O)Cn1cnc(S(=O)(=O)N2CCCCCC2)c1 (nonaromatic ring conformer: 82.71240038668715 kcal/mol)

>  <smiles>  (40) 
COc1ccccc1CNC(=O)Cn1cnc(S(=O)(=O)N2CCCCCC2)c1

>  <score_type>  (40) 
oracle

>  <origin>  (40) 
adg

>  <m_score__min__energy>  (40) 
-6.1900000000000004

>  <m_primary>  (40) 
energy

$$$$
40:0
     RDKit          3D

 43 45  0  0  0  0  0  0  0  0999 V2000
   59.7720   29.6560   44.8860 C   0  0  0  0  0  0  0  0  0  0  0  0
   58.3240   29.7920   44.7410 N   0  0  0  0  0  0  0  0  0  0  0  0
   57.4530   28.8660   44.2980 C   0  0  0  0  0  0  0  0  0  0  0  0
   57.8890   27.1930   43.8130 S   0  0  0  0  0  0  0  0  0  0  0  0
   58.7720   26.8170   45.3660 C   0  0  0  0  0  0  0  0  0  0  0  0
   57.8750   27.0240   46.5540 C   0  0  0  0  0  0  0  0  0  0  0  0
   57.7700   28.1370   47.0450 O   0  0  0  0  0  0  0  0  0  0  0  0
   57.0820   25.8850   47.1270 C   0  0  0  0  0  0  0  0  0  0  0  0
   55.8340   25.7430   46.3900 N   0  0  0  0  0  0  0  0  0  0  0  0
   55.2940   24.4720   46.0120 C   0  0  0  0  0  0  0  0  0  0  0  0
   54.1120   24.1810   46.3390 O   0  0  0  0  0  0  0  0  0  0  0  0
   56.1250   23.5080   45.2420 C   0  0  0  0  0  0  0  0  0  0  0  0
   55.9370   23.3820   43.8500 C   0  0  0  0  0  0  0  0  0  0  0  0
   56.7060   22.4840   43.1050 C   0  0  0  0  0  0  0  0  0  0  0  0
   57.6720   21.6990   43.7330 C   0  0  0  0  0  0  0  0  0  0  0  0
   57.8730   21.8110   45.1090 C   0  0  0  0  0  0  0  0  0  0  0  0
   57.1100   22.7050   45.8670 C   0  0  0  0  0  0  0  0  0  0  0  0
   57.3430   22.7850   47.2360 O   0  0  0  0  0  0  0  0  0  0  0  0
   56.1980   29.3500   44.2480 N   0  0  0  0  0  0  0  0  0  0  0  0
   56.2510   30.6030   44.6760 N   0  0  0  0  0  0  0  0  0  0  0  0
   57.5370   30.8620   44.9890 C   0  0  0  0  0  0  0  0  0  0  0  0
   57.9940   32.1680   45.5000 C   0  0  0  0  0  0  0  0  0  0  0  0
   58.1870   32.3340   46.8800 C   0  0  0  0  0  0  0  0  0  0  0  0
   58.6220   33.5610   47.3910 C   0  0  0  0  0  0  0  0  0  0  0  0
   58.8800   34.6260   46.5260 C   0  0  0  0  0  0  0  0  0  0  0  0
   58.7140   34.4640   45.1480 C   0  0  0  0  0  0  0  0  0  0  0  0
   58.2840   33.2370   44.6300 C   0  0  0  0  0  0  0  0  0  0  0  0
   58.1760   33.0830   43.2520 O   0  0  0  0  0  0  0  0  0  0  0  0
   60.0328   29.6315   45.9544 H   0  0  0  0  0  0  0  0  0  0  0  0
   60.1025   28.7229   44.4064 H   0  0  0  0  0  0  0  0  0  0  0  0
   60.2705   30.5113   44.4064 H   0  0  0  0  0  0  0  0  0  0  0  0
   59.1073   25.7696   45.3456 H   0  0  0  0  0  0  0  0  0  0  0  0
   59.6347   27.4938   45.4536 H   0  0  0  0  0  0  0  0  0  0  0  0
   57.6640   24.9552   47.0450 H   0  0  0  0  0  0  0  0  0  0  0  0
   56.8617   26.0876   48.1855 H   0  0  0  0  0  0  0  0  0  0  0  0
   55.1772   23.9969   43.3455 H   0  0  0  0  0  0  0  0  0  0  0  0
   56.5487   22.3962   42.0198 H   0  0  0  0  0  0  0  0  0  0  0  0
   58.2750   20.9921   43.1442 H   0  0  0  0  0  0  0  0  0  0  0  0
   58.6372   21.1916   45.6013 H   0  0  0  0  0  0  0  0  0  0  0  0
   57.9950   31.4941   47.5639 H   0  0  0  0  0  0  0  0  0  0  0  0
   58.7609   33.6870   48.4749 H   0  0  0  0  0  0  0  0  0  0  0  0
   59.2142   35.5933   46.9294 H   0  0  0  0  0  0  0  0  0  0  0  0
   58.9219   35.3035   44.4683 H   0  0  0  0  0  0  0  0  0  0  0  0
  1  2  1  0
  2  3  1  0
  3  4  1  0
  4  5  1  0
  5  6  1  0
  6  7  2  0
  6  8  1  0
  8  9  1  0
  9 10  1  0
 10 11  2  0
 10 12  1  0
 12 13  2  0
 13 14  1  0
 14 15  2  0
 15 16  1  0
 16 17  2  0
 17 18  1  0
  3 19  2  0
 19 20  1  0
 20 21  2  0
 21 22  1  0
 22 23  2  0
 23 24  1  0
 24 25  2  0
 25 26  1  0
 26 27  2  0
 27 28  1  0
 21  2  1  0
 27 22  1  0
 17 12  1  0
  1 29  1  0
  1 30  1  0
  1 31  1  0
  5 32  1  0
  5 33  1  0
  8 34  1  0
  8 35  1  0
 13 36  1  0
 14 37  1  0
 15 38  1  0
 16 39  1  0
 23 40  1  0
 24 41  1  0
 25 42  1  0
 26 43  1  0
M  CHG  3   9  -1  18  -1  28  -1
M  END
>  <UniqueID>  (41) 
39

>  <SMILES>  (41) 
Cn1c(SCC(=O)C[N-]C(=O)c2ccccc2[O-])nnc1-c1ccccc1[O-]

>  <Energy>  (41) 
80.44956517035949

>  <Genealogy>  (41) 
Cn1c(SCC(=O)C[N-]C(=O)c2ccccc2[O-])nnc1-c1ccccc1[O-] (protonated)
Cn1c(SCC(=O)C[N-]C(=O)c2ccccc2[O-])nnc1-c1ccccc1[O-] (3D coordinates assigned)
Cn1c(SCC(=O)C[N-]C(=O)c2ccccc2[O-])nnc1-c1ccccc1[O-] (optimized conformer: 80.44956517035949 kcal/mol)

>  <smiles>  (41) 
Cn1c(SCC(=O)CNC(=O)c2ccccc2O)nnc1-c1ccccc1O

>  <score_type>  (41) 
oracle

>  <origin>  (41) 
adg

>  <m_score__min__energy>  (41) 
-15.44

>  <m_primary>  (41) 
energy

$$$$
41:0
     RDKit          3D

 58 60  0  0  0  0  0  0  0  0999 V2000
   55.3790   29.2020   53.4950 C   0  0  0  0  0  0  0  0  0  0  0  0
   55.6720   30.3060   52.6400 O   0  0  0  0  0  0  0  0  0  0  0  0
   56.8990   30.5000   51.9900 C   0  0  0  0  0  0  0  0  0  0  0  0
   57.1770   31.6550   51.2370 C   0  0  0  0  0  0  0  0  0  0  0  0
   58.4110   31.7980   50.6020 C   0  0  0  0  0  0  0  0  0  0  0  0
   59.3890   30.7960   50.7060 C   0  0  0  0  0  0  0  0  0  0  0  0
   60.7290   30.9980   50.0520 C   0  0  0  0  0  0  0  0  0  0  0  0
   60.5840   30.8580   48.6070 N   0  0  0  0  0  0  0  0  0  0  0  0
   59.9890   29.7250   47.9640 C   0  0  0  0  0  0  0  0  0  0  0  0
   60.1010   28.5920   48.4980 O   0  0  0  0  0  0  0  0  0  0  0  0
   59.1960   29.8590   46.7280 C   0  0  0  0  0  0  0  0  0  0  0  0
   59.1960   28.8220   45.8520 N   0  0  0  0  0  0  0  0  0  0  0  0
   58.4700   28.8520   44.7090 C   0  0  0  0  0  0  0  0  0  0  0  0
   58.5520   27.4390   43.6000 S   0  0  0  0  0  0  0  0  0  0  0  0
   57.8330   26.2960   44.8190 C   0  0  0  0  0  0  0  0  0  0  0  0
   57.6830   29.9740   44.4210 C   0  0  0  0  0  0  0  0  0  0  0  0
   56.8860   30.0380   43.2150 C   0  0  0  0  0  0  0  0  0  0  0  0
   56.2510   30.0870   42.2490 N   0  0  0  0  0  0  0  0  0  0  0  0
   57.7090   31.0540   45.3160 C   0  0  0  0  0  0  0  0  0  0  0  0
   57.0350   32.0930   45.0690 O   0  0  0  0  0  0  0  0  0  0  0  0
   58.4820   30.9950   46.4430 N   0  0  0  0  0  0  0  0  0  0  0  0
   58.5790   32.1310   47.2670 N   0  0  0  0  0  0  0  0  0  0  0  0
   59.3520   33.5660   46.6770 S   0  0  0  0  0  0  0  0  0  0  0  0
   58.5790   34.7740   47.1300 O   0  0  0  0  0  0  0  0  0  0  0  0
   59.3350   33.5400   45.1740 O   0  0  0  0  0  0  0  0  0  0  0  0
   61.0150   33.6730   47.2770 C   0  0  0  0  0  0  0  0  0  0  0  0
   62.0640   33.4720   46.3650 C   0  0  0  0  0  0  0  0  0  0  0  0
   63.3920   33.5490   46.7790 C   0  0  0  0  0  0  0  0  0  0  0  0
   63.6940   33.8360   48.1070 C   0  0  0  0  0  0  0  0  0  0  0  0
   62.6710   34.0450   49.0360 C   0  0  0  0  0  0  0  0  0  0  0  0
   63.1400   34.4420   50.6880 Cl  0  0  0  0  0  0  0  0  0  0  0  0
   61.3150   33.9470   48.6400 C   0  0  0  0  0  0  0  0  0  0  0  0
   60.2230   34.2060   49.6510 C   0  0  0  0  0  0  0  0  0  0  0  0
   59.1270   29.6410   51.4710 C   0  0  0  0  0  0  0  0  0  0  0  0
   60.1230   28.6560   51.5810 O   0  0  0  0  0  0  0  0  0  0  0  0
   61.2250   28.7150   52.4810 C   0  0  0  0  0  0  0  0  0  0  0  0
   57.8750   29.5040   52.1020 C   0  0  0  0  0  0  0  0  0  0  0  0
   55.4631   29.5190   54.5450 H   0  0  0  0  0  0  0  0  0  0  0  0
   54.3559   28.8483   53.2996 H   0  0  0  0  0  0  0  0  0  0  0  0
   56.0921   28.3875   53.2996 H   0  0  0  0  0  0  0  0  0  0  0  0
   56.4195   32.4477   51.1485 H   0  0  0  0  0  0  0  0  0  0  0  0
   58.6197   32.7042   50.0144 H   0  0  0  0  0  0  0  0  0  0  0  0
   61.1056   32.0042   50.2881 H   0  0  0  0  0  0  0  0  0  0  0  0
   61.4398   30.2466   50.4264 H   0  0  0  0  0  0  0  0  0  0  0  0
   58.0581   26.6539   45.8345 H   0  0  0  0  0  0  0  0  0  0  0  0
   56.7428   26.2497   44.6798 H   0  0  0  0  0  0  0  0  0  0  0  0
   58.2633   25.2933   44.6798 H   0  0  0  0  0  0  0  0  0  0  0  0
   57.8730   32.2590   48.0250 H   0  0  0  0  0  0  0  0  0  0  0  0
   61.8345   33.2513   45.3121 H   0  0  0  0  0  0  0  0  0  0  0  0
   64.2033   33.3827   46.0550 H   0  0  0  0  0  0  0  0  0  0  0  0
   64.7444   33.8987   48.4274 H   0  0  0  0  0  0  0  0  0  0  0  0
   60.6333   34.1087   50.6670 H   0  0  0  0  0  0  0  0  0  0  0  0
   59.8275   35.2229   49.5111 H   0  0  0  0  0  0  0  0  0  0  0  0
   59.4130   33.4751   49.5111 H   0  0  0  0  0  0  0  0  0  0  0  0
   60.8542   28.6951   53.5164 H   0  0  0  0  0  0  0  0  0  0  0  0
   61.8840   27.8509   52.3109 H   0  0  0  0  0  0  0  0  0  0  0  0
   61.7880   29.6446   52.3109 H   0  0  0  0  0  0  0  0  0  0  0  0
   57.6616   28.6003   52.6917 H   0  0  0  0  0  0  0  0  0  0  0  0
  1  2  1  0
  2  3  1  0
  3  4  2  0
  4  5  1  0
  5  6  2  0
  6  7  1  0
  7  8  1  0
  8  9  1  0
  9 10  2  0
  9 11  1  0
 11 12  2  0
 12 13  1  0
 13 14  1  0
 14 15  1  0
 13 16  2  0
 16 17  1  0
 17 18  3  0
 16 19  1  0
 19 20  2  0
 19 21  1  0
 21 22  1  0
 22 23  1  0
 23 24  2  0
 23 25  2  0
 23 26  1  0
 26 27  2  0
 27 28  1  0
 28 29  2  0
 29 30  1  0
 30 31  1  0
 30 32  2  0
 32 33  1  0
  6 34  1  0
 34 35  1  0
 35 36  1  0
 34 37  2  0
 37  3  1  0
 21 11  1  0
 32 26  1  0
  1 38  1  0
  1 39  1  0
  1 40  1  0
  4 41  1  0
  5 42  1  0
  7 43  1  0
  7 44  1  0
 15 45  1  0
 15 46  1  0
 15 47  1  0
 22 48  1  0
 27 49  1  0
 28 50  1  0
 29 51  1  0
 33 52  1  0
 33 53  1  0
 33 54  1  0
 36 55  1  0
 36 56  1  0
 36 57  1  0
 37 58  1  0
M  CHG  1   8  -1
M  END
>  <UniqueID>  (42) 
40

>  <SMILES>  (42) 
COc1ccc(C[N-]C(=O)c2nc(SC)c(C#N)c(=O)n2NS(=O)(=O)c2cccc(Cl)c2C)c(OC)c1

>  <Energy>  (42) 
70.61945872256203

>  <Genealogy>  (42) 
COc1ccc(C[N-]C(=O)c2nc(SC)c(C#N)c(=O)n2NS(=O)(=O)c2cccc(Cl)c2C)c(OC)c1 (protonated)
COc1ccc(C[N-]C(=O)c2nc(SC)c(C#N)c(=O)n2NS(=O)(=O)c2cccc(Cl)c2C)c(OC)c1 (3D coordinates assigned)
COc1ccc(C[N-]C(=O)c2nc(SC)c(C#N)c(=O)n2NS(=O)(=O)c2cccc(Cl)c2C)c(OC)c1 (optimized conformer: 70.61945872256203 kcal/mol)

>  <smiles>  (42) 
COc1ccc(CNC(=O)c2nc(SC)c(C#N)c(=O)n2NS(=O)(=O)c2cccc(Cl)c2C)c(OC)c1

>  <score_type>  (42) 
oracle

>  <origin>  (42) 
adg

>  <m_score__min__energy>  (42) 
-9.6300000000000008

>  <m_primary>  (42) 
energy

$$$$
42:0
     RDKit          3D

 44 46  0  0  0  0  0  0  0  0999 V2000
   59.3970   26.2900   46.2230 O   0  0  0  0  0  0  0  0  0  0  0  0
   58.5220   27.1930   46.3190 C   0  0  0  0  0  0  0  0  0  0  0  0
   57.1330   26.8700   46.1220 N   0  0  0  0  0  0  0  0  0  0  0  0
   56.6660   25.5620   45.7460 C   0  0  0  0  0  0  0  0  0  0  0  0
   57.5720   24.5480   45.4000 C   0  0  0  0  0  0  0  0  0  0  0  0
   57.1100   23.2930   45.0090 C   0  0  0  0  0  0  0  0  0  0  0  0
   55.7410   23.0370   44.9440 C   0  0  0  0  0  0  0  0  0  0  0  0
   54.8080   24.0390   45.2640 C   0  0  0  0  0  0  0  0  0  0  0  0
   53.3560   23.7340   45.1740 C   0  0  0  0  0  0  0  0  0  0  0  0
   52.5170   24.6350   44.9100 O   0  0  0  0  0  0  0  0  0  0  0  0
   52.8990   22.4380   45.3820 O   0  0  0  0  0  0  0  0  0  0  0  0
   55.2830   25.3120   45.6610 C   0  0  0  0  0  0  0  0  0  0  0  0
   54.3920   26.3320   45.9850 O   0  0  0  0  0  0  0  0  0  0  0  0
   58.9510   28.5750   46.6410 C   0  0  0  0  0  0  0  0  0  0  0  0
   59.6550   29.3280   45.6850 C   0  0  0  0  0  0  0  0  0  0  0  0
   60.0740   30.6310   45.9710 C   0  0  0  0  0  0  0  0  0  0  0  0
   59.8070   31.2030   47.2290 C   0  0  0  0  0  0  0  0  0  0  0  0
   60.2040   32.5050   47.5730 O   0  0  0  0  0  0  0  0  0  0  0  0
   59.3850   33.6740   47.4880 C   0  0  0  0  0  0  0  0  0  0  0  0
   58.8080   33.8490   46.0780 C   0  0  0  0  0  0  0  0  0  0  0  0
   57.3810   33.2990   45.9770 C   0  0  0  0  0  0  0  0  0  0  0  0
   57.2930   32.2640   44.9000 C   0  0  0  0  0  0  0  0  0  0  0  0
   57.7580   32.3920   43.6130 C   0  0  0  0  0  0  0  0  0  0  0  0
   57.4400   31.2830   42.9240 N   0  0  0  0  0  0  0  0  0  0  0  0
   56.7820   30.5170   43.8200 C   0  0  0  0  0  0  0  0  0  0  0  0
   56.6630   31.0850   45.0380 N   0  0  0  0  0  0  0  0  0  0  0  0
   59.1130   30.4510   48.1830 C   0  0  0  0  0  0  0  0  0  0  0  0
   58.6930   29.1500   47.8980 C   0  0  0  0  0  0  0  0  0  0  0  0
   56.4090   27.6030   46.2920 H   0  0  0  0  0  0  0  0  0  0  0  0
   58.6536   24.7450   45.4377 H   0  0  0  0  0  0  0  0  0  0  0  0
   57.8283   22.5010   44.7505 H   0  0  0  0  0  0  0  0  0  0  0  0
   55.3873   22.0410   44.6393 H   0  0  0  0  0  0  0  0  0  0  0  0
   59.8785   28.8876   44.7021 H   0  0  0  0  0  0  0  0  0  0  0  0
   60.6148   31.2117   45.2093 H   0  0  0  0  0  0  0  0  0  0  0  0
   58.5562   33.5838   48.2056 H   0  0  0  0  0  0  0  0  0  0  0  0
   60.0069   34.5512   47.7199 H   0  0  0  0  0  0  0  0  0  0  0  0
   58.7956   34.9202   45.8283 H   0  0  0  0  0  0  0  0  0  0  0  0
   59.4422   33.2878   45.3760 H   0  0  0  0  0  0  0  0  0  0  0  0
   57.0990   32.8455   46.9387 H   0  0  0  0  0  0  0  0  0  0  0  0
   56.6977   34.1257   45.7325 H   0  0  0  0  0  0  0  0  0  0  0  0
   58.3016   33.2603   43.2124 H   0  0  0  0  0  0  0  0  0  0  0  0
   56.3800   29.5218   43.5793 H   0  0  0  0  0  0  0  0  0  0  0  0
   58.8958   30.8893   49.1683 H   0  0  0  0  0  0  0  0  0  0  0  0
   58.1559   28.5703   48.6631 H   0  0  0  0  0  0  0  0  0  0  0  0
  1  2  2  0
  2  3  1  0
  3  4  1  0
  4  5  2  0
  5  6  1  0
  6  7  2  0
  7  8  1  0
  8  9  1  0
  9 10  2  0
  9 11  1  0
  8 12  2  0
 12 13  1  0
  2 14  1  0
 14 15  2  0
 15 16  1  0
 16 17  2  0
 17 18  1  0
 18 19  1  0
 19 20  1  0
 20 21  1  0
 21 22  1  0
 22 23  2  0
 23 24  1  0
 24 25  1  0
 25 26  2  0
 17 27  1  0
 27 28  2  0
 12  4  1  0
 28 14  1  0
 26 22  1  0
  3 29  1  0
  5 30  1  0
  6 31  1  0
  7 32  1  0
 15 33  1  0
 16 34  1  0
 19 35  1  0
 19 36  1  0
 20 37  1  0
 20 38  1  0
 21 39  1  0
 21 40  1  0
 23 41  1  0
 25 42  1  0
 27 43  1  0
 28 44  1  0
M  CHG  3  11  -1  13  -1  24  -1
M  END
>  <UniqueID>  (43) 
41

>  <SMILES>  (43) 
O=C(Nc1cccc(C(=O)[O-])c1[O-])c1ccc(OCCCc2c[n-]cn2)cc1

>  <Energy>  (43) 
79.32515020918903

>  <Genealogy>  (43) 
O=C(Nc1cccc(C(=O)[O-])c1[O-])c1ccc(OCCCc2c[n-]cn2)cc1 (protonated)
O=C(Nc1cccc(C(=O)[O-])c1[O-])c1ccc(OCCCc2c[n-]cn2)cc1 (3D coordinates assigned)
O=C(Nc1cccc(C(=O)[O-])c1[O-])c1ccc(OCCCc2c[n-]cn2)cc1 (optimized conformer: 79.32515020918903 kcal/mol)

>  <smiles>  (43) 
O=C(Nc1cccc(C(=O)O)c1O)c1ccc(OCCCc2c[nH]cn2)cc1

>  <score_type>  (43) 
oracle

>  <origin>  (43) 
adg

>  <m_score__min__energy>  (43) 
-14.44

>  <m_primary>  (43) 
energy

$$$$
43:0
     RDKit          3D

 42 44  0  0  0  0  0  0  0  0999 V2000
   57.6960   29.8300   50.9340 O   0  0  0  0  0  0  0  0  0  0  0  0
   57.5460   30.3240   52.0840 C   0  0  0  0  0  0  0  0  0  0  0  0
   58.6830   30.7740   52.8310 N   0  0  0  0  0  0  0  0  0  0  0  0
   59.9580   31.1330   52.2210 C   0  0  0  0  0  0  0  0  0  0  0  0
   59.7610   32.2430   51.1850 C   0  0  0  0  0  0  0  0  0  0  0  0
   60.8140   32.1590   50.1140 C   0  0  0  0  0  0  0  0  0  0  0  0
   60.6880   31.2310   49.0680 C   0  0  0  0  0  0  0  0  0  0  0  0
   61.6510   31.1750   48.0550 C   0  0  0  0  0  0  0  0  0  0  0  0
   62.7420   32.0530   48.0710 C   0  0  0  0  0  0  0  0  0  0  0  0
   63.7050   32.0040   47.0640 O   0  0  0  0  0  0  0  0  0  0  0  0
   62.8650   32.9900   49.1050 C   0  0  0  0  0  0  0  0  0  0  0  0
   63.9410   33.8690   49.1260 O   0  0  0  0  0  0  0  0  0  0  0  0
   61.9030   33.0450   50.1200 C   0  0  0  0  0  0  0  0  0  0  0  0
   56.1990   30.4320   52.6630 C   0  0  0  0  0  0  0  0  0  0  0  0
   55.0340   30.6550   51.9530 C   0  0  0  0  0  0  0  0  0  0  0  0
   54.0150   30.6800   52.8900 C   0  0  0  0  0  0  0  0  0  0  0  0
   52.5780   30.8500   52.5990 C   0  0  0  0  0  0  0  0  0  0  0  0
   51.7730   30.9800   53.5620 O   0  0  0  0  0  0  0  0  0  0  0  0
   52.0530   30.8740   51.2130 C   0  0  0  0  0  0  0  0  0  0  0  0
   52.2730   29.7810   50.3550 C   0  0  0  0  0  0  0  0  0  0  0  0
   51.7620   29.7860   49.0550 C   0  0  0  0  0  0  0  0  0  0  0  0
   51.0190   30.8760   48.5990 C   0  0  0  0  0  0  0  0  0  0  0  0
   50.7800   31.9630   49.4430 C   0  0  0  0  0  0  0  0  0  0  0  0
   50.0360   33.0430   48.9830 O   0  0  0  0  0  0  0  0  0  0  0  0
   51.2920   31.9670   50.7490 C   0  0  0  0  0  0  0  0  0  0  0  0
   51.0520   33.0630   51.5720 O   0  0  0  0  0  0  0  0  0  0  0  0
   54.6010   30.4560   54.1240 C   0  0  0  0  0  0  0  0  0  0  0  0
   55.9310   30.3110   53.9790 N   0  0  0  0  0  0  0  0  0  0  0  0
   60.6472   31.4851   53.0027 H   0  0  0  0  0  0  0  0  0  0  0  0
   60.3753   30.2473   51.7196 H   0  0  0  0  0  0  0  0  0  0  0  0
   58.7676   32.1361   50.7248 H   0  0  0  0  0  0  0  0  0  0  0  0
   59.8436   33.2175   51.6886 H   0  0  0  0  0  0  0  0  0  0  0  0
   59.8284   30.5451   49.0450 H   0  0  0  0  0  0  0  0  0  0  0  0
   61.5511   30.4392   47.2435 H   0  0  0  0  0  0  0  0  0  0  0  0
   64.5300   32.5910   47.0910 H   0  0  0  0  0  0  0  0  0  0  0  0
   62.0007   33.7864   50.9267 H   0  0  0  0  0  0  0  0  0  0  0  0
   54.9364   30.7859   50.8652 H   0  0  0  0  0  0  0  0  0  0  0  0
   52.8518   28.9158   50.7106 H   0  0  0  0  0  0  0  0  0  0  0  0
   51.9455   28.9295   48.3896 H   0  0  0  0  0  0  0  0  0  0  0  0
   50.6211   30.8790   47.5735 H   0  0  0  0  0  0  0  0  0  0  0  0
   54.0601   30.4042   55.0805 H   0  0  0  0  0  0  0  0  0  0  0  0
   56.6170   30.1280   54.7450 H   0  0  0  0  0  0  0  0  0  0  0  0
  1  2  2  0
  2  3  1  0
  3  4  1  0
  4  5  1  0
  5  6  1  0
  6  7  2  0
  7  8  1  0
  8  9  2  0
  9 10  1  0
  9 11  1  0
 11 12  1  0
 11 13  2  0
  2 14  1  0
 14 15  2  0
 15 16  1  0
 16 17  1  0
 17 18  2  0
 17 19  1  0
 19 20  2  0
 20 21  1  0
 21 22  2  0
 22 23  1  0
 23 24  1  0
 23 25  2  0
 25 26  1  0
 16 27  2  0
 27 28  1  0
 13  6  1  0
 28 14  1  0
 25 19  1  0
  4 29  1  0
  4 30  1  0
  5 31  1  0
  5 32  1  0
  7 33  1  0
  8 34  1  0
 10 35  1  0
 13 36  1  0
 15 37  1  0
 20 38  1  0
 21 39  1  0
 22 40  1  0
 27 41  1  0
 28 42  1  0
M  CHG  4   3  -1  12  -1  24  -1  26  -1
M  END
>  <UniqueID>  (44) 
42

>  <SMILES>  (44) 
O=C([N-]CCc1ccc(O)c([O-])c1)c1cc(C(=O)c2cccc([O-])c2[O-])c[nH]1

>  <Energy>  (44) 
70.53210921328596

>  <Genealogy>  (44) 
O=C([N-]CCc1ccc(O)c([O-])c1)c1cc(C(=O)c2cccc([O-])c2[O-])c[nH]1 (protonated)
O=C([N-]CCc1ccc(O)c([O-])c1)c1cc(C(=O)c2cccc([O-])c2[O-])c[nH]1 (3D coordinates assigned)
O=C([N-]CCc1ccc(O)c([O-])c1)c1cc(C(=O)c2cccc([O-])c2[O-])c[nH]1 (optimized conformer: 70.53210921328596 kcal/mol)

>  <smiles>  (44) 
O=C(NCCc1ccc(O)c(O)c1)c1cc(C(=O)c2cccc(O)c2O)c[nH]1

>  <score_type>  (44) 
oracle

>  <origin>  (44) 
adg

>  <m_score__min__energy>  (44) 
-17.890000000000001

>  <m_primary>  (44) 
energy

$$$$
44:0
     RDKit          3D

 62 65  0  0  0  0  0  0  0  0999 V2000
   54.1420   29.3740   52.5080 C   0  0  0  0  0  0  0  0  0  0  0  0
   55.5010   29.3000   52.9380 O   0  0  0  0  0  0  0  0  0  0  0  0
   56.5600   30.0050   52.3470 C   0  0  0  0  0  0  0  0  0  0  0  0
   57.8110   29.3830   52.2620 C   0  0  0  0  0  0  0  0  0  0  0  0
   58.9000   30.0470   51.6880 C   0  0  0  0  0  0  0  0  0  0  0  0
   58.7560   31.3570   51.2050 C   0  0  0  0  0  0  0  0  0  0  0  0
   59.8670   32.0720   50.6380 N   0  0  0  0  0  0  0  0  0  0  0  0
   59.9570   33.5000   50.6170 C   0  0  0  0  0  0  0  0  0  0  0  0
   59.1590   34.2080   51.2940 O   0  0  0  0  0  0  0  0  0  0  0  0
   60.9370   34.1310   49.7830 N   0  0  0  0  0  0  0  0  0  0  0  0
   62.2780   33.6520   49.6130 C   0  0  0  0  0  0  0  0  0  0  0  0
   62.9920   33.2440   50.7490 C   0  0  0  0  0  0  0  0  0  0  0  0
   64.3060   32.7830   50.6310 C   0  0  0  0  0  0  0  0  0  0  0  0
   64.9170   32.7190   49.3780 C   0  0  0  0  0  0  0  0  0  0  0  0
   64.2060   33.0920   48.2350 C   0  0  0  0  0  0  0  0  0  0  0  0
   62.8810   33.5390   48.3370 C   0  0  0  0  0  0  0  0  0  0  0  0
   61.9600   33.8430   46.8170 S   0  0  0  0  0  0  0  0  0  0  0  0
   60.7850   32.5300   47.1490 C   0  0  0  0  0  0  0  0  0  0  0  0
   59.4260   32.8360   47.2790 C   0  0  0  0  0  0  0  0  0  0  0  0
   58.5000   31.8190   47.5240 C   0  0  0  0  0  0  0  0  0  0  0  0
   58.9250   30.4900   47.6150 C   0  0  0  0  0  0  0  0  0  0  0  0
   60.2890   30.1690   47.4560 C   0  0  0  0  0  0  0  0  0  0  0  0
   60.7590   28.8140   47.5350 N   0  0  0  0  0  0  0  0  0  0  0  0
   60.2990   27.7120   46.7390 C   0  0  0  0  0  0  0  0  0  0  0  0
   61.1520   27.0160   46.1280 O   0  0  0  0  0  0  0  0  0  0  0  0
   58.8610   27.3680   46.6230 C   0  0  0  0  0  0  0  0  0  0  0  0
   58.3210   26.2480   47.2780 C   0  0  0  0  0  0  0  0  0  0  0  0
   56.9940   25.8630   47.0440 C   0  0  0  0  0  0  0  0  0  0  0  0
   56.1810   26.6010   46.1760 C   0  0  0  0  0  0  0  0  0  0  0  0
   54.8580   26.1220   45.8910 N   0  0  0  0  0  0  0  0  0  0  0  0
   54.4380   24.4600   45.6130 S   0  0  0  0  0  0  0  0  0  0  0  0
   55.4570   23.7750   44.3170 C   0  0  0  0  0  0  0  0  0  0  0  0
   52.9840   24.3520   45.2490 O   0  0  0  0  0  0  0  0  0  0  0  0
   54.6870   23.6680   46.8730 O   0  0  0  0  0  0  0  0  0  0  0  0
   56.6930   27.7680   45.5860 C   0  0  0  0  0  0  0  0  0  0  0  0
   58.0220   28.1450   45.8050 C   0  0  0  0  0  0  0  0  0  0  0  0
   61.2180   31.2010   47.2610 C   0  0  0  0  0  0  0  0  0  0  0  0
   57.4950   31.9710   51.2600 C   0  0  0  0  0  0  0  0  0  0  0  0
   56.4050   31.3070   51.8360 C   0  0  0  0  0  0  0  0  0  0  0  0
   53.4809   29.4100   53.3864 H   0  0  0  0  0  0  0  0  0  0  0  0
   53.9977   30.2813   51.9031 H   0  0  0  0  0  0  0  0  0  0  0  0
   53.9000   28.4877   51.9031 H   0  0  0  0  0  0  0  0  0  0  0  0
   57.9390   28.3619   52.6505 H   0  0  0  0  0  0  0  0  0  0  0  0
   59.8736   29.5403   51.6148 H   0  0  0  0  0  0  0  0  0  0  0  0
   60.5060   31.5510   49.9940 H   0  0  0  0  0  0  0  0  0  0  0  0
   62.5148   33.2871   51.7391 H   0  0  0  0  0  0  0  0  0  0  0  0
   64.8601   32.4698   51.5281 H   0  0  0  0  0  0  0  0  0  0  0  0
   65.9581   32.3749   49.2905 H   0  0  0  0  0  0  0  0  0  0  0  0
   64.6888   33.0347   47.2483 H   0  0  0  0  0  0  0  0  0  0  0  0
   59.0863   33.8783   47.1882 H   0  0  0  0  0  0  0  0  0  0  0  0
   57.4346   32.0642   47.6455 H   0  0  0  0  0  0  0  0  0  0  0  0
   58.1932   29.6925   47.8112 H   0  0  0  0  0  0  0  0  0  0  0  0
   58.9430   25.6707   47.9778 H   0  0  0  0  0  0  0  0  0  0  0  0
   56.5878   24.9730   47.5469 H   0  0  0  0  0  0  0  0  0  0  0  0
   56.2911   23.2143   44.7641 H   0  0  0  0  0  0  0  0  0  0  0  0
   54.8528   23.0989   43.6942 H   0  0  0  0  0  0  0  0  0  0  0  0
   55.8549   24.5897   43.6942 H   0  0  0  0  0  0  0  0  0  0  0  0
   56.0459   28.3885   44.9487 H   0  0  0  0  0  0  0  0  0  0  0  0
   58.4144   29.0578   45.3329 H   0  0  0  0  0  0  0  0  0  0  0  0
   62.2909   30.9671   47.1956 H   0  0  0  0  0  0  0  0  0  0  0  0
   57.3620   32.9819   50.8473 H   0  0  0  0  0  0  0  0  0  0  0  0
   55.4253   31.8043   51.8892 H   0  0  0  0  0  0  0  0  0  0  0  0
  1  2  1  0
  2  3  1  0
  3  4  2  0
  4  5  1  0
  5  6  2  0
  6  7  1  0
  7  8  1  0
  8  9  2  0
  8 10  1  0
 10 11  1  0
 11 12  2  0
 12 13  1  0
 13 14  2  0
 14 15  1  0
 15 16  2  0
 16 17  1  0
 17 18  1  0
 18 19  2  0
 19 20  1  0
 20 21  2  0
 21 22  1  0
 22 23  1  0
 23 24  1  0
 24 25  2  0
 24 26  1  0
 26 27  2  0
 27 28  1  0
 28 29  2  0
 29 30  1  0
 30 31  1  0
 31 32  1  0
 31 33  2  0
 31 34  2  0
 29 35  1  0
 35 36  2  0
 22 37  2  0
  6 38  1  0
 38 39  2  0
 39  3  1  0
 16 11  1  0
 37 18  1  0
 36 26  1  0
  1 40  1  0
  1 41  1  0
  1 42  1  0
  4 43  1  0
  5 44  1  0
  7 45  1  0
 12 46  1  0
 13 47  1  0
 14 48  1  0
 15 49  1  0
 19 50  1  0
 20 51  1  0
 21 52  1  0
 27 53  1  0
 28 54  1  0
 32 55  1  0
 32 56  1  0
 32 57  1  0
 35 58  1  0
 36 59  1  0
 37 60  1  0
 38 61  1  0
 39 62  1  0
M  CHG  3  10  -1  23  -1  30  -1
M  END
>  <UniqueID>  (45) 
43

>  <SMILES>  (45) 
COc1ccc(NC(=O)[N-]c2ccccc2Sc2cccc([N-]C(=O)c3ccc([N-]S(C)(=O)=O)cc3)c2)cc1

>  <Energy>  (45) 
78.63427855118854

>  <Genealogy>  (45) 
COc1ccc(NC(=O)[N-]c2ccccc2Sc2cccc([N-]C(=O)c3ccc([N-]S(C)(=O)=O)cc3)c2)cc1 (protonated)
COc1ccc(NC(=O)[N-]c2ccccc2Sc2cccc([N-]C(=O)c3ccc([N-]S(C)(=O)=O)cc3)c2)cc1 (3D coordinates assigned)
COc1ccc(NC(=O)[N-]c2ccccc2Sc2cccc([N-]C(=O)c3ccc([N-]S(C)(=O)=O)cc3)c2)cc1 (optimized conformer: 78.63427855118854 kcal/mol)

>  <smiles>  (45) 
COc1ccc(NC(=O)Nc2ccccc2Sc2cccc(NC(=O)c3ccc(NS(C)(=O)=O)cc3)c2)cc1

>  <score_type>  (45) 
oracle

>  <origin>  (45) 
adg

>  <m_score__min__energy>  (45) 
-14.35

>  <m_primary>  (45) 
energy

$$$$
45:0
     RDKit          3D

 38 40  0  0  0  0  0  0  0  0999 V2000
   56.2060   30.7440   44.4360 O   0  0  0  0  0  0  0  0  0  0  0  0
   56.6160   29.6330   44.8690 C   0  0  0  0  0  0  0  0  0  0  0  0
   55.7050   28.6870   45.2020 N   0  0  0  0  0  0  0  0  0  0  0  0
   56.0780   27.4740   45.6740 C   0  0  0  0  0  0  0  0  0  0  0  0
   55.0980   26.5410   45.9900 O   0  0  0  0  0  0  0  0  0  0  0  0
   57.4360   27.1770   45.8400 C   0  0  0  0  0  0  0  0  0  0  0  0
   57.8720   25.8080   46.3190 C   0  0  0  0  0  0  0  0  0  0  0  0
   57.4560   24.7400   45.3350 C   0  0  0  0  0  0  0  0  0  0  0  0
   57.1140   25.1050   44.0210 C   0  0  0  0  0  0  0  0  0  0  0  0
   56.7010   24.1390   43.1000 C   0  0  0  0  0  0  0  0  0  0  0  0
   56.6250   22.7960   43.4760 C   0  0  0  0  0  0  0  0  0  0  0  0
   56.2100   21.8440   42.5470 O   0  0  0  0  0  0  0  0  0  0  0  0
   56.9670   22.4200   44.7820 C   0  0  0  0  0  0  0  0  0  0  0  0
   57.3820   23.3820   45.7090 C   0  0  0  0  0  0  0  0  0  0  0  0
   57.7220   22.9750   46.9950 O   0  0  0  0  0  0  0  0  0  0  0  0
   58.3750   28.1700   45.4990 C   0  0  0  0  0  0  0  0  0  0  0  0
   59.6050   27.9380   45.6610 O   0  0  0  0  0  0  0  0  0  0  0  0
   57.9590   29.3830   45.0030 N   0  0  0  0  0  0  0  0  0  0  0  0
   58.9410   30.4070   44.5870 C   0  0  0  0  0  0  0  0  0  0  0  0
   58.6460   31.7310   45.2530 C   0  0  0  0  0  0  0  0  0  0  0  0
   58.4060   32.8750   44.4710 C   0  0  0  0  0  0  0  0  0  0  0  0
   58.1590   34.1090   45.0790 C   0  0  0  0  0  0  0  0  0  0  0  0
   58.1520   34.2150   46.4720 C   0  0  0  0  0  0  0  0  0  0  0  0
   58.3870   33.0850   47.2580 C   0  0  0  0  0  0  0  0  0  0  0  0
   58.6340   31.8470   46.6570 C   0  0  0  0  0  0  0  0  0  0  0  0
   58.8490   30.7650   47.4460 F   0  0  0  0  0  0  0  0  0  0  0  0
   58.9668   25.7944   46.4251 H   0  0  0  0  0  0  0  0  0  0  0  0
   57.3919   25.6029   47.2872 H   0  0  0  0  0  0  0  0  0  0  0  0
   57.1721   26.1601   43.7155 H   0  0  0  0  0  0  0  0  0  0  0  0
   56.4348   24.4372   42.0752 H   0  0  0  0  0  0  0  0  0  0  0  0
   56.3620   21.9720   41.5530 H   0  0  0  0  0  0  0  0  0  0  0  0
   56.9088   21.3627   45.0798 H   0  0  0  0  0  0  0  0  0  0  0  0
   59.9506   30.0762   44.8723 H   0  0  0  0  0  0  0  0  0  0  0  0
   58.8762   30.5371   43.4967 H   0  0  0  0  0  0  0  0  0  0  0  0
   58.4127   32.7981   43.3737 H   0  0  0  0  0  0  0  0  0  0  0  0
   57.9698   34.9982   44.4597 H   0  0  0  0  0  0  0  0  0  0  0  0
   57.9616   35.1876   46.9492 H   0  0  0  0  0  0  0  0  0  0  0  0
   58.3778   33.1692   48.3547 H   0  0  0  0  0  0  0  0  0  0  0  0
  1  2  2  0
  2  3  1  0
  3  4  1  0
  4  5  1  0
  4  6  2  0
  6  7  1  0
  7  8  1  0
  8  9  2  0
  9 10  1  0
 10 11  2  0
 11 12  1  0
 11 13  1  0
 13 14  2  0
 14 15  1  0
  6 16  1  0
 16 17  2  0
 16 18  1  0
 18 19  1  0
 19 20  1  0
 20 21  2  0
 21 22  1  0
 22 23  2  0
 23 24  1  0
 24 25  2  0
 25 26  1  0
 18  2  1  0
 25 20  1  0
 14  8  1  0
  7 27  1  0
  7 28  1  0
  9 29  1  0
 10 30  1  0
 12 31  1  0
 13 32  1  0
 19 33  1  0
 19 34  1  0
 21 35  1  0
 22 36  1  0
 23 37  1  0
 24 38  1  0
M  CHG  3   3  -1   5  -1  15  -1
M  END
>  <UniqueID>  (46) 
44

>  <SMILES>  (46) 
O=c1[n-]c([O-])c(Cc2ccc(O)cc2[O-])c(=O)n1Cc1ccccc1F

>  <Energy>  (46) 
47.09932485164325

>  <Genealogy>  (46) 
O=c1[n-]c([O-])c(Cc2ccc(O)cc2[O-])c(=O)n1Cc1ccccc1F (protonated)
O=c1[n-]c([O-])c(Cc2ccc(O)cc2[O-])c(=O)n1Cc1ccccc1F (3D coordinates assigned)
O=c1[n-]c([O-])c(Cc2ccc(O)cc2[O-])c(=O)n1Cc1ccccc1F (optimized conformer: 47.09932485164325 kcal/mol)

>  <smiles>  (46) 
O=c1[nH]c(O)c(Cc2ccc(O)cc2O)c(=O)n1Cc1ccccc1F

>  <score_type>  (46) 
oracle

>  <origin>  (46) 
adg

>  <m_score__min__energy>  (46) 
-15.460000000000001

>  <m_primary>  (46) 
energy

$$$$
46:0
     RDKit          3D

 58 61  0  0  0  0  0  0  0  0999 V2000
   56.5750   21.3820   47.9250 C   0  0  0  0  0  0  0  0  0  0  0  0
   57.3000   22.2900   47.1020 O   0  0  0  0  0  0  0  0  0  0  0  0
   57.0660   22.4960   45.7320 C   0  0  0  0  0  0  0  0  0  0  0  0
   57.6390   21.6480   44.7610 C   0  0  0  0  0  0  0  0  0  0  0  0
   57.3850   21.8480   43.4040 C   0  0  0  0  0  0  0  0  0  0  0  0
   56.5570   22.8890   42.9940 C   0  0  0  0  0  0  0  0  0  0  0  0
   55.9830   23.7400   43.9390 C   0  0  0  0  0  0  0  0  0  0  0  0
   56.2300   23.5630   45.3150 C   0  0  0  0  0  0  0  0  0  0  0  0
   55.6030   24.5020   46.2850 C   0  0  0  0  0  0  0  0  0  0  0  0
   55.1700   24.0600   47.3860 O   0  0  0  0  0  0  0  0  0  0  0  0
   55.5200   25.9040   45.9990 N   0  0  0  0  0  0  0  0  0  0  0  0
   56.6000   26.8510   46.0050 C   0  0  0  0  0  0  0  0  0  0  0  0
   56.5560   28.0400   45.2560 C   0  0  0  0  0  0  0  0  0  0  0  0
   57.6380   28.9260   45.2780 C   0  0  0  0  0  0  0  0  0  0  0  0
   58.7810   28.6260   46.0310 C   0  0  0  0  0  0  0  0  0  0  0  0
   60.1150   29.7710   46.1010 S   0  0  0  0  0  0  0  0  0  0  0  0
   59.6620   31.1230   45.6280 O   0  0  0  0  0  0  0  0  0  0  0  0
   61.2300   29.2980   45.2100 O   0  0  0  0  0  0  0  0  0  0  0  0
   60.6960   29.8890   47.7250 N   0  0  0  0  0  0  0  0  0  0  0  0
   59.8370   30.3200   48.7810 C   0  0  0  0  0  0  0  0  0  0  0  0
   59.3010   29.3650   49.6550 C   0  0  0  0  0  0  0  0  0  0  0  0
   58.4060   29.7460   50.6550 C   0  0  0  0  0  0  0  0  0  0  0  0
   58.0400   31.0870   50.7910 C   0  0  0  0  0  0  0  0  0  0  0  0
   56.9060   31.5630   52.0430 Cl  0  0  0  0  0  0  0  0  0  0  0  0
   58.5750   32.0500   49.9290 C   0  0  0  0  0  0  0  0  0  0  0  0
   59.4880   31.6820   48.9250 C   0  0  0  0  0  0  0  0  0  0  0  0
   60.0210   32.7240   48.0140 C   0  0  0  0  0  0  0  0  0  0  0  0
   59.2260   33.3400   47.2530 O   0  0  0  0  0  0  0  0  0  0  0  0
   61.4250   33.0400   47.9730 N   0  0  0  0  0  0  0  0  0  0  0  0
   62.1490   33.3230   49.2160 C   0  0  0  0  0  0  0  0  0  0  0  0
   63.6400   33.0170   49.0240 C   0  0  0  0  0  0  0  0  0  0  0  0
   64.1460   33.6820   47.8820 O   0  0  0  0  0  0  0  0  0  0  0  0
   63.5210   33.1780   46.7160 C   0  0  0  0  0  0  0  0  0  0  0  0
   62.0240   33.5020   46.7190 C   0  0  0  0  0  0  0  0  0  0  0  0
   58.8330   27.4320   46.7640 C   0  0  0  0  0  0  0  0  0  0  0  0
   57.7520   26.5460   46.7400 C   0  0  0  0  0  0  0  0  0  0  0  0
   56.7623   21.6166   48.9832 H   0  0  0  0  0  0  0  0  0  0  0  0
   55.4994   21.4744   47.7138 H   0  0  0  0  0  0  0  0  0  0  0  0
   56.9032   20.3536   47.7138 H   0  0  0  0  0  0  0  0  0  0  0  0
   58.2922   20.8213   45.0769 H   0  0  0  0  0  0  0  0  0  0  0  0
   57.8400   21.1816   42.6564 H   0  0  0  0  0  0  0  0  0  0  0  0
   56.3549   23.0410   41.9235 H   0  0  0  0  0  0  0  0  0  0  0  0
   55.3293   24.5595   43.6057 H   0  0  0  0  0  0  0  0  0  0  0  0
   55.6678   28.2742   44.6508 H   0  0  0  0  0  0  0  0  0  0  0  0
   57.5915   29.8620   44.7019 H   0  0  0  0  0  0  0  0  0  0  0  0
   59.5877   28.3080   49.5520 H   0  0  0  0  0  0  0  0  0  0  0  0
   57.9885   28.9902   51.3365 H   0  0  0  0  0  0  0  0  0  0  0  0
   58.2790   33.1039   50.0375 H   0  0  0  0  0  0  0  0  0  0  0  0
   62.0239   34.3837   49.4792 H   0  0  0  0  0  0  0  0  0  0  0  0
   61.7479   32.6934   50.0239 H   0  0  0  0  0  0  0  0  0  0  0  0
   64.1946   33.3532   49.9125 H   0  0  0  0  0  0  0  0  0  0  0  0
   63.7625   31.9328   48.8841 H   0  0  0  0  0  0  0  0  0  0  0  0
   63.9872   33.6348   45.8306 H   0  0  0  0  0  0  0  0  0  0  0  0
   63.6456   32.0853   46.6930 H   0  0  0  0  0  0  0  0  0  0  0  0
   61.8843   34.5890   46.6250 H   0  0  0  0  0  0  0  0  0  0  0  0
   61.5382   32.9943   45.8727 H   0  0  0  0  0  0  0  0  0  0  0  0
   59.7263   27.1919   47.3592 H   0  0  0  0  0  0  0  0  0  0  0  0
   57.8068   25.6024   47.3026 H   0  0  0  0  0  0  0  0  0  0  0  0
  1  2  1  0
  2  3  1  0
  3  4  2  0
  4  5  1  0
  5  6  2  0
  6  7  1  0
  7  8  2  0
  8  9  1  0
  9 10  2  0
  9 11  1  0
 11 12  1  0
 12 13  2  0
 13 14  1  0
 14 15  2  0
 15 16  1  0
 16 17  2  0
 16 18  2  0
 16 19  1  0
 19 20  1  0
 20 21  2  0
 21 22  1  0
 22 23  2  0
 23 24  1  0
 23 25  1  0
 25 26  2  0
 26 27  1  0
 27 28  2  0
 27 29  1  0
 29 30  1  0
 30 31  1  0
 31 32  1  0
 32 33  1  0
 33 34  1  0
 15 35  1  0
 35 36  2  0
  8  3  1  0
 36 12  1  0
 26 20  1  0
 34 29  1  0
  1 37  1  0
  1 38  1  0
  1 39  1  0
  4 40  1  0
  5 41  1  0
  6 42  1  0
  7 43  1  0
 13 44  1  0
 14 45  1  0
 21 46  1  0
 22 47  1  0
 25 48  1  0
 30 49  1  0
 30 50  1  0
 31 51  1  0
 31 52  1  0
 33 53  1  0
 33 54  1  0
 34 55  1  0
 34 56  1  0
 35 57  1  0
 36 58  1  0
M  CHG  2  11  -1  19  -1
M  END
>  <UniqueID>  (47) 
45

>  <SMILES>  (47) 
COc1ccccc1C(=O)[N-]c1ccc(S(=O)(=O)[N-]c2ccc(Cl)cc2C(=O)N2CCOCC2)cc1

>  <Energy>  (47) 
81.90875263109585

>  <Genealogy>  (47) 
COc1ccccc1C(=O)[N-]c1ccc(S(=O)(=O)[N-]c2ccc(Cl)cc2C(=O)N2CCOCC2)cc1 (protonated)
COc1ccccc1C(=O)[N-]c1ccc(S(=O)(=O)[N-]c2ccc(Cl)cc2C(=O)N2CCOCC2)cc1 (3D coordinates assigned)
COc1ccccc1C(=O)[N-]c1ccc(S(=O)(=O)[N-]c2ccc(Cl)cc2C(=O)N2CCOCC2)cc1 (nonaromatic ring conformer: 81.90875263109585 kcal/mol)

>  <smiles>  (47) 
COc1ccccc1C(=O)Nc1ccc(S(=O)(=O)Nc2ccc(Cl)cc2C(=O)N2CCOCC2)cc1

>  <score_type>  (47) 
oracle

>  <origin>  (47) 
adg

>  <m_score__min__energy>  (47) 
-13.16

>  <m_primary>  (47) 
energy

$$$$
47:0
     RDKit          3D

 23 24  0  0  0  0  0  0  0  0999 V2000
   58.4320   27.4450   43.3880 C   0  0  0  0  0  0  0  0  0  0  0  0
   58.8480   28.1390   44.6580 C   0  0  0  0  0  0  0  0  0  0  0  0
   59.8100   29.1620   44.5980 C   0  0  0  0  0  0  0  0  0  0  0  0
   60.2190   29.8190   45.7600 C   0  0  0  0  0  0  0  0  0  0  0  0
   59.6700   29.4680   46.9940 C   0  0  0  0  0  0  0  0  0  0  0  0
   58.7020   28.4650   47.0680 C   0  0  0  0  0  0  0  0  0  0  0  0
   58.2750   27.8020   45.9080 C   0  0  0  0  0  0  0  0  0  0  0  0
   57.2310   26.7580   46.0270 C   0  0  0  0  0  0  0  0  0  0  0  0
   55.8970   27.0310   45.6910 C   0  0  0  0  0  0  0  0  0  0  0  0
   55.5210   28.2940   45.2450 O   0  0  0  0  0  0  0  0  0  0  0  0
   54.9550   26.0600   45.8100 N   0  0  0  0  0  0  0  0  0  0  0  0
   55.2810   24.8190   46.2580 C   0  0  0  0  0  0  0  0  0  0  0  0
   54.3920   23.9350   46.3580 O   0  0  0  0  0  0  0  0  0  0  0  0
   56.5630   24.5340   46.5980 N   0  0  0  0  0  0  0  0  0  0  0  0
   57.5420   25.4710   46.4960 C   0  0  0  0  0  0  0  0  0  0  0  0
   58.7230   25.1710   46.8170 O   0  0  0  0  0  0  0  0  0  0  0  0
   57.8810   26.5258   43.6360 H   0  0  0  0  0  0  0  0  0  0  0  0
   57.7852   28.1129   42.8001 H   0  0  0  0  0  0  0  0  0  0  0  0
   59.3259   27.1894   42.8001 H   0  0  0  0  0  0  0  0  0  0  0  0
   60.2439   29.4471   43.6282 H   0  0  0  0  0  0  0  0  0  0  0  0
   60.9758   30.6152   45.7027 H   0  0  0  0  0  0  0  0  0  0  0  0
   60.0002   29.9819   47.9088 H   0  0  0  0  0  0  0  0  0  0  0  0
   58.2711   28.1927   48.0427 H   0  0  0  0  0  0  0  0  0  0  0  0
  1  2  1  0
  2  3  2  0
  3  4  1  0
  4  5  2  0
  5  6  1  0
  6  7  2  0
  7  8  1  0
  8  9  2  0
  9 10  1  0
  9 11  1  0
 11 12  1  0
 12 13  2  0
 12 14  1  0
 14 15  1  0
 15 16  2  0
  7  2  1  0
 15  8  1  0
  1 17  1  0
  1 18  1  0
  1 19  1  0
  3 20  1  0
  4 21  1  0
  5 22  1  0
  6 23  1  0
M  CHG  3  10  -1  11  -1  14  -1
M  END
>  <UniqueID>  (48) 
46

>  <SMILES>  (48) 
Cc1ccccc1-c1c([O-])[n-]c(=O)[n-]c1=O

>  <Energy>  (48) 
34.13338228722946

>  <Genealogy>  (48) 
Cc1ccccc1-c1c([O-])[n-]c(=O)[n-]c1=O (protonated)
Cc1ccccc1-c1c([O-])[n-]c(=O)[n-]c1=O (3D coordinates assigned)
Cc1ccccc1-c1c([O-])[n-]c(=O)[n-]c1=O (optimized conformer: 34.13338228722946 kcal/mol)

>  <smiles>  (48) 
Cc1ccccc1-c1c(O)[nH]c(=O)[nH]c1=O

>  <score_type>  (48) 
oracle

>  <origin>  (48) 
adg

>  <m_score__min__energy>  (48) 
-14

>  <m_primary>  (48) 
energy

$$$$
48:0
     RDKit          3D

 48 50  0  0  0  0  0  0  0  0999 V2000
   56.0448   28.8439   44.2950 H   0  0  0  0  0  0  0  0  0  0  0  0
   56.5180   29.8270   44.1550 C   0  0  0  0  0  0  0  0  0  0  0  0
   56.9410   30.5350   45.2340 N   0  0  0  0  0  0  0  0  0  0  0  0
   57.5330   31.7550   45.1210 C   0  0  0  0  0  0  0  0  0  0  0  0
   57.9130   32.3550   46.2150 N   0  0  0  0  0  0  0  0  0  0  0  0
   58.9110   33.3760   46.3870 C   0  0  0  0  0  0  0  0  0  0  0  0
   58.6000   34.5950   46.2860 O   0  0  0  0  0  0  0  0  0  0  0  0
   60.2800   32.9960   46.8140 C   0  0  0  0  0  0  0  0  0  0  0  0
   61.1560   34.0010   47.2660 C   0  0  0  0  0  0  0  0  0  0  0  0
   60.8015   35.0399   47.3364 H   0  0  0  0  0  0  0  0  0  0  0  0
   62.4700   33.6940   47.6260 C   0  0  0  0  0  0  0  0  0  0  0  0
   63.1444   34.4911   47.9721 H   0  0  0  0  0  0  0  0  0  0  0  0
   62.9290   32.3810   47.5480 C   0  0  0  0  0  0  0  0  0  0  0  0
   63.9664   32.1437   47.8262 H   0  0  0  0  0  0  0  0  0  0  0  0
   62.0730   31.3670   47.1170 C   0  0  0  0  0  0  0  0  0  0  0  0
   62.4387   30.3308   47.0667 H   0  0  0  0  0  0  0  0  0  0  0  0
   60.7470   31.6560   46.7460 C   0  0  0  0  0  0  0  0  0  0  0  0
   59.8650   30.5780   46.3890 N   0  0  0  0  0  0  0  0  0  0  0  0
   58.8390   30.7070   46.5360 H   0  0  0  0  0  0  0  0  0  0  0  0
   60.3270   29.3780   45.7460 C   0  0  0  0  0  0  0  0  0  0  0  0
   61.4750   29.3540   45.2230 O   0  0  0  0  0  0  0  0  0  0  0  0
   59.4610   28.1790   45.6520 C   0  0  0  0  0  0  0  0  0  0  0  0
   58.8970   27.7860   44.4240 C   0  0  0  0  0  0  0  0  0  0  0  0
   59.1011   28.3737   43.5168 H   0  0  0  0  0  0  0  0  0  0  0  0
   58.0790   26.6540   44.3480 C   0  0  0  0  0  0  0  0  0  0  0  0
   57.6507   26.3527   43.3806 H   0  0  0  0  0  0  0  0  0  0  0  0
   57.8010   25.8990   45.5010 C   0  0  0  0  0  0  0  0  0  0  0  0
   56.9630   24.7370   45.4740 N   0  0  0  0  0  0  0  0  0  0  0  0
   55.2650   24.6990   45.8260 S   0  0  0  0  0  0  0  0  0  0  0  0
   55.0270   23.9930   47.1310 O   0  0  0  0  0  0  0  0  0  0  0  0
   54.7660   26.1120   45.9440 O   0  0  0  0  0  0  0  0  0  0  0  0
   54.3800   23.8900   44.5110 C   0  0  0  0  0  0  0  0  0  0  0  0
   53.6320   23.2063   44.9388 H   0  0  0  0  0  0  0  0  0  0  0  0
   53.8745   24.6447   43.8907 H   0  0  0  0  0  0  0  0  0  0  0  0
   55.0865   23.3189   43.8907 H   0  0  0  0  0  0  0  0  0  0  0  0
   58.3560   26.2930   46.7230 C   0  0  0  0  0  0  0  0  0  0  0  0
   58.1459   25.7080   47.6305 H   0  0  0  0  0  0  0  0  0  0  0  0
   59.1750   27.4230   46.8020 C   0  0  0  0  0  0  0  0  0  0  0  0
   59.5990   27.7230   47.7717 H   0  0  0  0  0  0  0  0  0  0  0  0
   57.7400   32.2960   43.8320 C   0  0  0  0  0  0  0  0  0  0  0  0
   58.2492   33.2638   43.7134 H   0  0  0  0  0  0  0  0  0  0  0  0
   57.2920   31.5910   42.7040 C   0  0  0  0  0  0  0  0  0  0  0  0
   57.5300   32.1290   41.3240 C   0  0  0  0  0  0  0  0  0  0  0  0
   57.9741   33.1330   41.3934 H   0  0  0  0  0  0  0  0  0  0  0  0
   58.2166   31.4609   40.7834 H   0  0  0  0  0  0  0  0  0  0  0  0
   56.5738   32.1876   40.7834 H   0  0  0  0  0  0  0  0  0  0  0  0
   56.6820   30.3430   42.8710 C   0  0  0  0  0  0  0  0  0  0  0  0
   56.3348   29.7739   41.9960 H   0  0  0  0  0  0  0  0  0  0  0  0
  1  2  1  0
  2  3  1  0
  3  4  1  0
  4  5  2  0
  5  6  1  0
  6  7  2  0
  6  8  1  0
  8  9  2  0
  9 10  1  0
  9 11  1  0
 11 12  1  0
 11 13  2  0
 13 14  1  0
 13 15  1  0
 15 16  1  0
 15 17  2  0
 17 18  1  0
 18 19  1  0
 18 20  1  0
 20 21  2  0
 20 22  1  0
 22 23  2  0
 23 24  1  0
 23 25  1  0
 25 26  1  0
 25 27  2  0
 27 28  1  0
 28 29  1  0
 29 30  2  0
 29 31  2  0
 29 32  1  0
 32 33  1  0
 32 34  1  0
 32 35  1  0
 27 36  1  0
 36 37  1  0
 36 38  2  0
 38 39  1  0
  4 40  1  0
 40 41  1  0
 40 42  2  0
 42 43  1  0
 43 44  1  0
 43 45  1  0
 43 46  1  0
 42 47  1  0
 47 48  1  0
 47  2  2  0
 17  8  1  0
 38 22  1  0
M  CHG  2   3  -1  28  -1
M  END
>  <UniqueID>  (49) 
47

>  <SMILES>  (49) 
Cc1cc[n-]/c(=N/C(=O)c2ccccc2NC(=O)c2ccc([N-]S(C)(=O)=O)cc2)c1

>  <Energy>  (49) 
67.27441713588229

>  <Genealogy>  (49) 
Cc1cc[n-]c(=NC(=O)c2ccccc2NC(=O)c2ccc([N-]S(C)(=O)=O)cc2)c1 (protonated)
Cc1cc[n-]/c(=N/C(=O)c2ccccc2NC(=O)c2ccc([N-]S(C)(=O)=O)cc2)c1 (cis-trans isomerization)
Cc1cc[n-]/c(=N/C(=O)c2ccccc2NC(=O)c2ccc([N-]S(C)(=O)=O)cc2)c1 (3D coordinates assigned)
Cc1cc[n-]/c(=N/C(=O)c2ccccc2NC(=O)c2ccc([N-]S(C)(=O)=O)cc2)c1 (optimized conformer: 67.27441713588229 kcal/mol)

>  <smiles>  (49) 
Cc1cc[nH]c(=NC(=O)c2ccccc2NC(=O)c2ccc(NS(C)(=O)=O)cc2)c1

>  <score_type>  (49) 
oracle

>  <origin>  (49) 
adg

>  <m_score__min__energy>  (49) 
-12.93

>  <m_primary>  (49) 
energy

$$$$
49:0
     RDKit          3D

 38 39  0  0  0  0  0  0  0  0999 V2000
   59.6010   25.7730   46.1180 C   0  0  0  0  0  0  0  0  0  0  0  0
   59.5460   26.4280   47.4940 C   0  0  0  0  0  0  0  0  0  0  0  0
   59.6650   27.8870   47.3880 N   0  0  0  0  0  0  0  0  0  0  0  0
   59.9970   28.6790   48.5840 C   0  0  0  0  0  0  0  0  0  0  0  0
   59.6530   30.1250   48.3800 C   0  0  0  0  0  0  0  0  0  0  0  0
   58.8810   30.6960   49.1960 O   0  0  0  0  0  0  0  0  0  0  0  0
   60.2410   30.8620   47.2950 N   0  0  0  0  0  0  0  0  0  0  0  0
   59.7910   32.1660   46.8830 C   0  0  0  0  0  0  0  0  0  0  0  0
   58.4460   32.3780   46.5230 C   0  0  0  0  0  0  0  0  0  0  0  0
   58.0170   33.6390   46.0980 C   0  0  0  0  0  0  0  0  0  0  0  0
   58.9230   34.6960   46.0170 C   0  0  0  0  0  0  0  0  0  0  0  0
   60.2640   34.4960   46.3520 C   0  0  0  0  0  0  0  0  0  0  0  0
   60.7040   33.2360   46.7790 C   0  0  0  0  0  0  0  0  0  0  0  0
   62.3990   33.0420   47.2010 Cl  0  0  0  0  0  0  0  0  0  0  0  0
   59.6060   28.5070   46.0880 C   0  0  0  0  0  0  0  0  0  0  0  0
   60.6780   28.7460   45.4670 O   0  0  0  0  0  0  0  0  0  0  0  0
   58.3160   28.8630   45.4580 C   0  0  0  0  0  0  0  0  0  0  0  0
   58.2690   29.8020   44.4160 C   0  0  0  0  0  0  0  0  0  0  0  0
   57.0510   30.1210   43.8150 C   0  0  0  0  0  0  0  0  0  0  0  0
   55.8850   29.4890   44.2540 C   0  0  0  0  0  0  0  0  0  0  0  0
   54.7770   29.7690   43.7270 O   0  0  0  0  0  0  0  0  0  0  0  0
   55.9460   28.5650   45.2490 N   0  0  0  0  0  0  0  0  0  0  0  0
   57.1220   28.2380   45.8500 C   0  0  0  0  0  0  0  0  0  0  0  0
   59.6925   24.6830   46.2342 H   0  0  0  0  0  0  0  0  0  0  0  0
   58.6801   26.0066   45.5636 H   0  0  0  0  0  0  0  0  0  0  0  0
   60.4701   26.1569   45.5636 H   0  0  0  0  0  0  0  0  0  0  0  0
   58.5873   26.1793   47.9726 H   0  0  0  0  0  0  0  0  0  0  0  0
   60.3865   26.0509   48.0951 H   0  0  0  0  0  0  0  0  0  0  0  0
   59.4287   28.2911   49.4422 H   0  0  0  0  0  0  0  0  0  0  0  0
   61.0779   28.5975   48.7710 H   0  0  0  0  0  0  0  0  0  0  0  0
   61.0610   30.4390   46.8040 H   0  0  0  0  0  0  0  0  0  0  0  0
   57.7284   31.5461   46.5765 H   0  0  0  0  0  0  0  0  0  0  0  0
   56.9628   33.7976   45.8270 H   0  0  0  0  0  0  0  0  0  0  0  0
   58.5810   35.6886   45.6888 H   0  0  0  0  0  0  0  0  0  0  0  0
   60.9772   35.3304   46.2804 H   0  0  0  0  0  0  0  0  0  0  0  0
   59.1944   30.2874   44.0725 H   0  0  0  0  0  0  0  0  0  0  0  0
   57.0092   30.8626   43.0037 H   0  0  0  0  0  0  0  0  0  0  0  0
   57.1371   27.4801   46.6471 H   0  0  0  0  0  0  0  0  0  0  0  0
  1  2  1  0
  2  3  1  0
  3  4  1  0
  4  5  1  0
  5  6  2  0
  5  7  1  0
  7  8  1  0
  8  9  2  0
  9 10  1  0
 10 11  2  0
 11 12  1  0
 12 13  2  0
 13 14  1  0
  3 15  1  0
 15 16  2  0
 15 17  1  0
 17 18  1  0
 18 19  2  0
 19 20  1  0
 20 21  2  0
 20 22  1  0
 22 23  1  0
 13  8  1  0
 23 17  2  0
  1 24  1  0
  1 25  1  0
  1 26  1  0
  2 27  1  0
  2 28  1  0
  4 29  1  0
  4 30  1  0
  7 31  1  0
  9 32  1  0
 10 33  1  0
 11 34  1  0
 12 35  1  0
 18 36  1  0
 19 37  1  0
 23 38  1  0
M  CHG  1  22  -1
M  END
>  <UniqueID>  (50) 
48

>  <SMILES>  (50) 
CCN(CC(=O)Nc1ccccc1Cl)C(=O)c1ccc(=O)[n-]c1

>  <Energy>  (50) 
42.457862741585174

>  <Genealogy>  (50) 
CCN(CC(=O)Nc1ccccc1Cl)C(=O)c1ccc(=O)[n-]c1 (protonated)
CCN(CC(=O)Nc1ccccc1Cl)C(=O)c1ccc(=O)[n-]c1 (3D coordinates assigned)
CCN(CC(=O)Nc1ccccc1Cl)C(=O)c1ccc(=O)[n-]c1 (optimized conformer: 42.457862741585174 kcal/mol)

>  <smiles>  (50) 
CCN(CC(=O)Nc1ccccc1Cl)C(=O)c1ccc(=O)[nH]c1

>  <score_type>  (50) 
oracle

>  <origin>  (50) 
adg

>  <m_score__min__energy>  (50) 
-10.050000000000001

>  <m_primary>  (50) 
energy

$$$$
50:0
     RDKit          3D

 46 49  0  0  0  0  0  0  0  0999 V2000
   58.9270   35.3210   47.4540 O   0  0  0  0  0  0  0  0  0  0  0  0
   59.0850   34.9480   46.2720 N   0  0  0  0  0  0  0  0  0  0  0  0
   59.5740   35.8490   45.3540 O   0  0  0  0  0  0  0  0  0  0  0  0
   58.7580   33.6040   45.8760 C   0  0  0  0  0  0  0  0  0  0  0  0
   59.4190   32.5030   46.4530 C   0  0  0  0  0  0  0  0  0  0  0  0
   59.0980   31.2000   46.0650 C   0  0  0  0  0  0  0  0  0  0  0  0
   58.1050   30.9710   45.1010 C   0  0  0  0  0  0  0  0  0  0  0  0
   57.7880   29.5690   44.6560 C   0  0  0  0  0  0  0  0  0  0  0  0
   59.0730   28.7940   44.3640 C   0  0  0  0  0  0  0  0  0  0  0  0
   59.2440   27.7150   45.3350 N   0  0  0  0  0  0  0  0  0  0  0  0
   59.9790   27.8320   46.5800 C   0  0  0  0  0  0  0  0  0  0  0  0
   59.7510   26.4790   47.2680 C   0  0  0  0  0  0  0  0  0  0  0  0
   58.8350   25.7560   46.3930 N   0  0  0  0  0  0  0  0  0  0  0  0
   58.6040   26.4460   45.3290 C   0  0  0  0  0  0  0  0  0  0  0  0
   57.6150   26.0070   44.2840 C   0  0  0  0  0  0  0  0  0  0  0  0
   56.5840   25.0800   44.8610 C   0  0  0  0  0  0  0  0  0  0  0  0
   55.4920   25.4200   45.6490 C   0  0  0  0  0  0  0  0  0  0  0  0
   55.1450   26.7210   45.9970 O   0  0  0  0  0  0  0  0  0  0  0  0
   54.7930   24.3330   46.0560 N   0  0  0  0  0  0  0  0  0  0  0  0
   55.4640   23.2950   45.5220 C   0  0  0  0  0  0  0  0  0  0  0  0
   55.1520   21.9430   45.6640 C   0  0  0  0  0  0  0  0  0  0  0  0
   55.9930   21.0020   45.0410 C   0  0  0  0  0  0  0  0  0  0  0  0
   57.1170   21.4280   44.2990 C   0  0  0  0  0  0  0  0  0  0  0  0
   57.4110   22.7970   44.1730 C   0  0  0  0  0  0  0  0  0  0  0  0
   56.5560   23.7060   44.7970 C   0  0  0  0  0  0  0  0  0  0  0  0
   57.4550   32.0650   44.5120 C   0  0  0  0  0  0  0  0  0  0  0  0
   57.7750   33.3700   44.8980 C   0  0  0  0  0  0  0  0  0  0  0  0
   60.1942   32.6701   47.2153 H   0  0  0  0  0  0  0  0  0  0  0  0
   59.6270   30.3486   46.5180 H   0  0  0  0  0  0  0  0  0  0  0  0
   57.2286   29.0549   45.4515 H   0  0  0  0  0  0  0  0  0  0  0  0
   57.1855   29.6162   43.7369 H   0  0  0  0  0  0  0  0  0  0  0  0
   59.0174   28.3665   43.3520 H   0  0  0  0  0  0  0  0  0  0  0  0
   59.9298   29.4801   44.4356 H   0  0  0  0  0  0  0  0  0  0  0  0
   61.0493   27.9991   46.3890 H   0  0  0  0  0  0  0  0  0  0  0  0
   59.6455   28.6825   47.1927 H   0  0  0  0  0  0  0  0  0  0  0  0
   60.7003   25.9326   47.3691 H   0  0  0  0  0  0  0  0  0  0  0  0
   59.3439   26.5968   48.2831 H   0  0  0  0  0  0  0  0  0  0  0  0
   57.1096   26.8940   43.8744 H   0  0  0  0  0  0  0  0  0  0  0  0
   58.1609   25.4696   43.4945 H   0  0  0  0  0  0  0  0  0  0  0  0
   55.5130   27.1450   46.8400 H   0  0  0  0  0  0  0  0  0  0  0  0
   54.2751   21.6219   46.2454 H   0  0  0  0  0  0  0  0  0  0  0  0
   55.7736   19.9280   45.1325 H   0  0  0  0  0  0  0  0  0  0  0  0
   57.7669   20.6832   43.8163 H   0  0  0  0  0  0  0  0  0  0  0  0
   58.2860   23.1401   43.6015 H   0  0  0  0  0  0  0  0  0  0  0  0
   56.6885   31.8953   43.7414 H   0  0  0  0  0  0  0  0  0  0  0  0
   57.2540   34.2201   44.4333 H   0  0  0  0  0  0  0  0  0  0  0  0
  1  2  2  0
  2  3  1  0
  2  4  1  0
  4  5  2  0
  5  6  1  0
  6  7  2  0
  7  8  1  0
  8  9  1  0
  9 10  1  0
 10 11  1  0
 11 12  1  0
 12 13  1  0
 13 14  2  0
 14 15  1  0
 15 16  1  0
 16 17  2  0
 17 18  1  0
 17 19  1  0
 19 20  1  0
 20 21  2  0
 21 22  1  0
 22 23  2  0
 23 24  1  0
 24 25  2  0
  7 26  1  0
 26 27  2  0
 27  4  1  0
 14 10  1  0
 25 16  1  0
 25 20  1  0
  5 28  1  0
  6 29  1  0
  8 30  1  0
  8 31  1  0
  9 32  1  0
  9 33  1  0
 11 34  1  0
 11 35  1  0
 12 36  1  0
 12 37  1  0
 15 38  1  0
 15 39  1  0
 18 40  1  0
 21 41  1  0
 22 42  1  0
 23 43  1  0
 24 44  1  0
 26 45  1  0
 27 46  1  0
M  CHG  3   2   1   3  -1  19  -1
M  END
>  <UniqueID>  (51) 
49

>  <SMILES>  (51) 
O=[N+]([O-])c1ccc(CCN2CCN=C2Cc2c(O)[n-]c3ccccc23)cc1

>  <Energy>  (51) 
88.55329961326689

>  <Genealogy>  (51) 
O=[N+]([O-])c1ccc(CCN2CCN=C2Cc2c(O)[n-]c3ccccc23)cc1 (protonated)
O=[N+]([O-])c1ccc(CCN2CCN=C2Cc2c(O)[n-]c3ccccc23)cc1 (3D coordinates assigned)
O=[N+]([O-])c1ccc(CCN2CCN=C2Cc2c(O)[n-]c3ccccc23)cc1 (nonaromatic ring conformer: 88.55329961326689 kcal/mol)

>  <smiles>  (51) 
O=[N+]([O-])c1ccc(CCN2CCN=C2Cc2c(O)[nH]c3ccccc23)cc1

>  <score_type>  (51) 
oracle

>  <origin>  (51) 
adg

>  <m_score__min__energy>  (51) 
-10.789999999999999

>  <m_primary>  (51) 
energy

$$$$
51:0
     RDKit          3D

 40 42  0  0  0  0  0  0  0  0999 V2000
   57.2024   34.2226   43.6377 H   0  0  0  0  0  0  0  0  0  0  0  0
   57.3970   33.5640   44.4970 C   0  0  0  0  0  0  0  0  0  0  0  0
   57.6640   34.1470   45.6750 C   0  0  0  0  0  0  0  0  0  0  0  0
   56.8801   34.7799   46.1165 H   0  0  0  0  0  0  0  0  0  0  0  0
   58.9280   34.0060   46.4260 C   0  0  0  0  0  0  0  0  0  0  0  0
   58.9390   33.9720   47.8280 C   0  0  0  0  0  0  0  0  0  0  0  0
   57.9912   34.0235   48.3838 H   0  0  0  0  0  0  0  0  0  0  0  0
   60.1480   33.8730   48.5230 C   0  0  0  0  0  0  0  0  0  0  0  0
   60.1404   33.8273   49.6220 H   0  0  0  0  0  0  0  0  0  0  0  0
   61.3770   33.8310   47.8330 C   0  0  0  0  0  0  0  0  0  0  0  0
   62.6320   33.7230   48.5540 N   0  0  0  0  0  0  0  0  0  0  0  0
   62.7610   34.2590   49.9140 C   0  0  0  0  0  0  0  0  0  0  0  0
   62.5683   33.4585   50.6434 H   0  0  0  0  0  0  0  0  0  0  0  0
   63.7789   34.6500   50.0590 H   0  0  0  0  0  0  0  0  0  0  0  0
   62.0325   35.0703   50.0590 H   0  0  0  0  0  0  0  0  0  0  0  0
   63.7960   33.0800   47.9320 C   0  0  0  0  0  0  0  0  0  0  0  0
   64.4713   32.7069   48.7161 H   0  0  0  0  0  0  0  0  0  0  0  0
   63.4601   32.2395   47.3069 H   0  0  0  0  0  0  0  0  0  0  0  0
   64.3287   33.8118   47.3069 H   0  0  0  0  0  0  0  0  0  0  0  0
   61.3530   33.9030   46.4250 C   0  0  0  0  0  0  0  0  0  0  0  0
   62.2993   33.8834   45.8645 H   0  0  0  0  0  0  0  0  0  0  0  0
   60.1430   33.9990   45.7320 C   0  0  0  0  0  0  0  0  0  0  0  0
   60.1459   34.0695   44.6343 H   0  0  0  0  0  0  0  0  0  0  0  0
   57.3440   32.1090   44.2640 C   0  0  0  0  0  0  0  0  0  0  0  0
   58.0300   31.4930   43.2790 N   0  0  0  0  0  0  0  0  0  0  0  0
   57.7520   30.2060   43.4020 N   0  0  0  0  0  0  0  0  0  0  0  0
   58.1000   29.4590   42.7620 H   0  0  0  0  0  0  0  0  0  0  0  0
   56.9200   30.0790   44.4520 C   0  0  0  0  0  0  0  0  0  0  0  0
   56.3530   28.8800   44.8980 O   0  0  0  0  0  0  0  0  0  0  0  0
   57.0360   27.8860   45.6100 C   0  0  0  0  0  0  0  0  0  0  0  0
   56.3480   26.7290   45.9920 C   0  0  0  0  0  0  0  0  0  0  0  0
   55.2890   26.6069   45.7208 H   0  0  0  0  0  0  0  0  0  0  0  0
   56.9830   25.7550   46.6970 N   0  0  0  0  0  0  0  0  0  0  0  0
   58.2870   25.8700   47.0610 C   0  0  0  0  0  0  0  0  0  0  0  0
   58.7740   25.0601   47.6240 H   0  0  0  0  0  0  0  0  0  0  0  0
   59.0090   27.0150   46.7210 C   0  0  0  0  0  0  0  0  0  0  0  0
   60.0626   27.1168   47.0202 H   0  0  0  0  0  0  0  0  0  0  0  0
   58.3800   28.0300   45.9970 C   0  0  0  0  0  0  0  0  0  0  0  0
   58.9354   28.9411   45.7298 H   0  0  0  0  0  0  0  0  0  0  0  0
   56.6610   31.2460   44.9840 O   0  0  0  0  0  0  0  0  0  0  0  0
  1  2  1  0
  2  3  2  0
  3  4  1  0
  3  5  1  0
  5  6  2  0
  6  7  1  0
  6  8  1  0
  8  9  1  0
  8 10  2  0
 10 11  1  0
 11 12  1  0
 12 13  1  0
 12 14  1  0
 12 15  1  0
 11 16  1  0
 16 17  1  0
 16 18  1  0
 16 19  1  0
 10 20  1  0
 20 21  1  0
 20 22  2  0
 22 23  1  0
  2 24  1  0
 24 25  2  0
 25 26  1  0
 26 27  1  0
 26 28  2  0
 28 29  1  0
 29 30  1  0
 30 31  2  0
 31 32  1  0
 31 33  1  0
 33 34  2  0
 34 35  1  0
 34 36  1  0
 36 37  1  0
 36 38  2  0
 38 39  1  0
 28 40  1  0
 22  5  1  0
 40 24  1  0
 38 30  1  0
M  CHG  1  26   1
M  END
>  <UniqueID>  (52) 
50

>  <SMILES>  (52) 
CN(C)c1ccc(/C=C\c2n[nH+]c(Oc3cccnc3)o2)cc1

>  <Energy>  (52) 
91.5973582582308

>  <Genealogy>  (52) 
CN(C)c1ccc(C=Cc2n[nH+]c(Oc3cccnc3)o2)cc1 (protonated)
CN(C)c1ccc(/C=C\c2n[nH+]c(Oc3cccnc3)o2)cc1 (cis-trans isomerization)
CN(C)c1ccc(/C=C\c2n[nH+]c(Oc3cccnc3)o2)cc1 (3D coordinates assigned)
CN(C)c1ccc(/C=C\c2n[nH+]c(Oc3cccnc3)o2)cc1 (optimized conformer: 91.5973582582308 kcal/mol)

>  <smiles>  (52) 
CN(C)c1ccc(C=Cc2nnc(Oc3cccnc3)o2)cc1

>  <score_type>  (52) 
oracle

>  <origin>  (52) 
adg

>  <m_score__min__energy>  (52) 
-6.8200000000000003

>  <m_primary>  (52) 
energy

$$$$
52:0
     RDKit          3D

 36 38  0  0  0  0  0  0  0  0999 V2000
   57.3960   31.8820   42.4160 C   0  0  0  0  0  0  0  0  0  0  0  0
   56.8710   30.5990   43.5340 S   0  0  0  0  0  0  0  0  0  0  0  0
   56.2580   29.4900   42.7280 O   0  0  0  0  0  0  0  0  0  0  0  0
   55.8440   31.1320   44.4920 O   0  0  0  0  0  0  0  0  0  0  0  0
   58.2300   29.9710   44.4120 N   0  0  0  0  0  0  0  0  0  0  0  0
   58.1590   28.7890   45.2280 C   0  0  0  0  0  0  0  0  0  0  0  0
   56.9920   27.9940   45.2360 C   0  0  0  0  0  0  0  0  0  0  0  0
   56.9590   26.8540   46.0390 C   0  0  0  0  0  0  0  0  0  0  0  0
   58.0260   26.4820   46.8100 C   0  0  0  0  0  0  0  0  0  0  0  0
   59.1980   27.2370   46.8200 C   0  0  0  0  0  0  0  0  0  0  0  0
   59.2700   28.3960   46.0260 C   0  0  0  0  0  0  0  0  0  0  0  0
   60.7790   29.3710   46.0840 S   0  0  0  0  0  0  0  0  0  0  0  0
   59.9390   30.7920   46.7760 C   0  0  0  0  0  0  0  0  0  0  0  0
   59.5640   30.8060   48.1230 C   0  0  0  0  0  0  0  0  0  0  0  0
   58.9000   31.9230   48.6350 C   0  0  0  0  0  0  0  0  0  0  0  0
   58.6230   33.0090   47.8010 C   0  0  0  0  0  0  0  0  0  0  0  0
   59.0200   32.9600   46.4620 C   0  0  0  0  0  0  0  0  0  0  0  0
   59.6640   31.8630   45.9820 N   0  0  0  0  0  0  0  0  0  0  0  0
   57.7540   25.2280   47.5820 C   0  0  0  0  0  0  0  0  0  0  0  0
   56.3120   24.8340   47.1800 C   0  0  0  0  0  0  0  0  0  0  0  0
   55.8970   25.8990   46.2190 C   0  0  0  0  0  0  0  0  0  0  0  0
   54.7760   25.9520   45.6490 O   0  0  0  0  0  0  0  0  0  0  0  0
   57.7507   32.7487   42.9931 H   0  0  0  0  0  0  0  0  0  0  0  0
   58.2121   31.5047   41.7822 H   0  0  0  0  0  0  0  0  0  0  0  0
   56.5496   32.1850   41.7822 H   0  0  0  0  0  0  0  0  0  0  0  0
   59.0890   30.5630   44.4280 H   0  0  0  0  0  0  0  0  0  0  0  0
   56.1236   28.2691   44.6194 H   0  0  0  0  0  0  0  0  0  0  0  0
   60.0538   26.9309   47.4396 H   0  0  0  0  0  0  0  0  0  0  0  0
   59.7894   29.9470   48.7721 H   0  0  0  0  0  0  0  0  0  0  0  0
   58.5960   31.9476   49.6919 H   0  0  0  0  0  0  0  0  0  0  0  0
   58.0984   33.8925   48.1938 H   0  0  0  0  0  0  0  0  0  0  0  0
   58.8112   33.8099   45.7956 H   0  0  0  0  0  0  0  0  0  0  0  0
   58.4658   24.4370   47.3031 H   0  0  0  0  0  0  0  0  0  0  0  0
   57.8625   25.3717   48.6672 H   0  0  0  0  0  0  0  0  0  0  0  0
   56.2976   23.8456   46.6974 H   0  0  0  0  0  0  0  0  0  0  0  0
   55.6376   24.7612   48.0460 H   0  0  0  0  0  0  0  0  0  0  0  0
  1  2  1  0
  2  3  2  0
  2  4  2  0
  2  5  1  0
  5  6  1  0
  6  7  2  0
  7  8  1  0
  8  9  2  0
  9 10  1  0
 10 11  2  0
 11 12  1  0
 12 13  1  0
 13 14  2  0
 14 15  1  0
 15 16  2  0
 16 17  1  0
 17 18  2  0
  9 19  1  0
 19 20  1  0
 20 21  1  0
 21 22  2  0
 11  6  1  0
 18 13  1  0
 21  8  1  0
  1 23  1  0
  1 24  1  0
  1 25  1  0
  5 26  1  0
  7 27  1  0
 10 28  1  0
 14 29  1  0
 15 30  1  0
 16 31  1  0
 17 32  1  0
 19 33  1  0
 19 34  1  0
 20 35  1  0
 20 36  1  0
M  END
>  <UniqueID>  (53) 
51

>  <SMILES>  (53) 
CS(=O)(=O)Nc1cc2c(cc1Sc1ccccn1)CCC2=O

>  <Energy>  (53) 
46.24622567038484

>  <Genealogy>  (53) 
CS(=O)(=O)Nc1cc2c(cc1Sc1ccccn1)CCC2=O (3D coordinates assigned)
CS(=O)(=O)Nc1cc2c(cc1Sc1ccccn1)CCC2=O (nonaromatic ring conformer: 46.24622567038484 kcal/mol)

>  <smiles>  (53) 
CS(=O)(=O)Nc1cc2c(cc1Sc1ccccn1)CCC2=O

>  <score_type>  (53) 
oracle

>  <origin>  (53) 
adg

>  <m_score__min__energy>  (53) 
-7.75

>  <m_primary>  (53) 
energy

$$$$
53:0
     RDKit          3D

 63 67  0  0  0  0  0  0  0  0999 V2000
   51.3290   22.9250   45.3220 C   0  0  0  0  0  0  0  0  0  0  0  0
   52.7670   23.2040   45.6530 C   0  0  0  0  0  0  0  0  0  0  0  0
   53.5730   22.2000   46.2030 C   0  0  0  0  0  0  0  0  0  0  0  0
   54.9100   22.4530   46.5630 C   0  0  0  0  0  0  0  0  0  0  0  0
   55.7100   21.3140   47.1490 C   0  0  0  0  0  0  0  0  0  0  0  0
   55.4490   23.7600   46.3660 C   0  0  0  0  0  0  0  0  0  0  0  0
   56.7770   24.1360   46.6910 C   0  0  0  0  0  0  0  0  0  0  0  0
   57.6020   23.3140   47.1750 O   0  0  0  0  0  0  0  0  0  0  0  0
   57.1980   25.4480   46.4750 C   0  0  0  0  0  0  0  0  0  0  0  0
   56.3070   26.3770   45.9220 C   0  0  0  0  0  0  0  0  0  0  0  0
   56.7140   27.7740   45.6650 C   0  0  0  0  0  0  0  0  0  0  0  0
   55.9460   28.5390   45.0220 O   0  0  0  0  0  0  0  0  0  0  0  0
   58.0060   28.2370   46.0960 N   0  0  0  0  0  0  0  0  0  0  0  0
   58.4520   29.6060   46.0520 C   0  0  0  0  0  0  0  0  0  0  0  0
   59.7010   29.9310   46.6010 C   0  0  0  0  0  0  0  0  0  0  0  0
   60.1500   31.2530   46.6150 C   0  0  0  0  0  0  0  0  0  0  0  0
   59.3510   32.2830   46.0940 C   0  0  0  0  0  0  0  0  0  0  0  0
   59.8190   33.6890   46.0940 C   0  0  0  0  0  0  0  0  0  0  0  0
   59.6440   34.3990   45.0710 O   0  0  0  0  0  0  0  0  0  0  0  0
   60.5010   34.2630   47.2140 N   0  0  0  0  0  0  0  0  0  0  0  0
   61.6870   33.7380   47.8220 C   0  0  0  0  0  0  0  0  0  0  0  0
   62.9000   33.8510   47.1290 C   0  0  0  0  0  0  0  0  0  0  0  0
   64.0800   33.3280   47.6640 C   0  0  0  0  0  0  0  0  0  0  0  0
   64.0650   32.7150   48.9170 C   0  0  0  0  0  0  0  0  0  0  0  0
   62.8740   32.6380   49.6420 C   0  0  0  0  0  0  0  0  0  0  0  0
   61.6770   33.1500   49.1130 C   0  0  0  0  0  0  0  0  0  0  0  0
   60.5100   33.1870   49.9540 N   0  0  0  0  0  0  0  0  0  0  0  0
   59.2410   32.6400   49.4480 C   0  0  0  0  0  0  0  0  0  0  0  0
   58.3140   32.2150   50.5880 C   0  0  0  0  0  0  0  0  0  0  0  0
   58.2760   33.2050   51.5950 O   0  0  0  0  0  0  0  0  0  0  0  0
   59.5300   33.2490   52.2430 C   0  0  0  0  0  0  0  0  0  0  0  0
   60.6230   33.7660   51.3000 C   0  0  0  0  0  0  0  0  0  0  0  0
   58.1030   31.9610   45.5410 C   0  0  0  0  0  0  0  0  0  0  0  0
   57.6460   30.6380   45.5380 C   0  0  0  0  0  0  0  0  0  0  0  0
   55.0690   26.0000   45.6210 O   0  0  0  0  0  0  0  0  0  0  0  0
   54.6120   24.7680   45.8180 C   0  0  0  0  0  0  0  0  0  0  0  0
   53.2870   24.4870   45.4790 C   0  0  0  0  0  0  0  0  0  0  0  0
   50.7535   22.8133   46.2528 H   0  0  0  0  0  0  0  0  0  0  0  0
   50.9190   23.7604   44.7354 H   0  0  0  0  0  0  0  0  0  0  0  0
   51.2612   21.9969   44.7354 H   0  0  0  0  0  0  0  0  0  0  0  0
   53.1536   21.1948   46.3566 H   0  0  0  0  0  0  0  0  0  0  0  0
   55.6729   21.3668   48.2471 H   0  0  0  0  0  0  0  0  0  0  0  0
   55.2849   20.3566   46.8134 H   0  0  0  0  0  0  0  0  0  0  0  0
   56.7549   21.3890   46.8134 H   0  0  0  0  0  0  0  0  0  0  0  0
   58.2224   25.7512   46.7370 H   0  0  0  0  0  0  0  0  0  0  0  0
   58.7050   27.5190   46.4010 H   0  0  0  0  0  0  0  0  0  0  0  0
   60.3330   29.1366   47.0247 H   0  0  0  0  0  0  0  0  0  0  0  0
   61.1377   31.4893   47.0376 H   0  0  0  0  0  0  0  0  0  0  0  0
   62.9233   34.3573   46.1527 H   0  0  0  0  0  0  0  0  0  0  0  0
   65.0202   33.3996   47.0975 H   0  0  0  0  0  0  0  0  0  0  0  0
   64.9911   32.2924   49.3338 H   0  0  0  0  0  0  0  0  0  0  0  0
   62.8728   32.1714   50.6381 H   0  0  0  0  0  0  0  0  0  0  0  0
   58.7359   33.4096   48.8458 H   0  0  0  0  0  0  0  0  0  0  0  0
   59.4683   31.7511   48.8412 H   0  0  0  0  0  0  0  0  0  0  0  0
   57.2992   32.0641   50.1913 H   0  0  0  0  0  0  0  0  0  0  0  0
   58.6954   31.2802   51.0247 H   0  0  0  0  0  0  0  0  0  0  0  0
   59.4609   33.9181   53.1134 H   0  0  0  0  0  0  0  0  0  0  0  0
   59.7954   32.2291   52.5582 H   0  0  0  0  0  0  0  0  0  0  0  0
   60.5377   34.8601   51.2240 H   0  0  0  0  0  0  0  0  0  0  0  0
   61.5974   33.4700   51.7158 H   0  0  0  0  0  0  0  0  0  0  0  0
   57.4781   32.7549   45.1060 H   0  0  0  0  0  0  0  0  0  0  0  0
   56.6510   30.4040   45.1314 H   0  0  0  0  0  0  0  0  0  0  0  0
   52.6477   25.2839   45.0713 H   0  0  0  0  0  0  0  0  0  0  0  0
  1  2  1  0
  2  3  2  0
  3  4  1  0
  4  5  1  0
  4  6  2  0
  6  7  1  0
  7  8  2  0
  7  9  1  0
  9 10  2  0
 10 11  1  0
 11 12  2  0
 11 13  1  0
 13 14  1  0
 14 15  2  0
 15 16  1  0
 16 17  2  0
 17 18  1  0
 18 19  2  0
 18 20  1  0
 20 21  1  0
 21 22  2  0
 22 23  1  0
 23 24  2  0
 24 25  1  0
 25 26  2  0
 26 27  1  0
 27 28  1  0
 28 29  1  0
 29 30  1  0
 30 31  1  0
 31 32  1  0
 17 33  1  0
 33 34  2  0
 10 35  1  0
 35 36  1  0
 36 37  2  0
 37  2  1  0
 36  6  1  0
 34 14  1  0
 26 21  1  0
 32 27  1  0
  1 38  1  0
  1 39  1  0
  1 40  1  0
  3 41  1  0
  5 42  1  0
  5 43  1  0
  5 44  1  0
  9 45  1  0
 13 46  1  0
 15 47  1  0
 16 48  1  0
 22 49  1  0
 23 50  1  0
 24 51  1  0
 25 52  1  0
 28 53  1  0
 28 54  1  0
 29 55  1  0
 29 56  1  0
 31 57  1  0
 31 58  1  0
 32 59  1  0
 32 60  1  0
 33 61  1  0
 34 62  1  0
 37 63  1  0
M  CHG  1  20  -1
M  END
>  <UniqueID>  (54) 
52

>  <SMILES>  (54) 
Cc1cc(C)c2c(=O)cc(C(=O)Nc3ccc(C(=O)[N-]c4ccccc4N4CCOCC4)cc3)oc2c1

>  <Energy>  (54) 
97.64734002950566

>  <Genealogy>  (54) 
Cc1cc(C)c2c(=O)cc(C(=O)Nc3ccc(C(=O)[N-]c4ccccc4N4CCOCC4)cc3)oc2c1 (protonated)
Cc1cc(C)c2c(=O)cc(C(=O)Nc3ccc(C(=O)[N-]c4ccccc4N4CCOCC4)cc3)oc2c1 (3D coordinates assigned)
Cc1cc(C)c2c(=O)cc(C(=O)Nc3ccc(C(=O)[N-]c4ccccc4N4CCOCC4)cc3)oc2c1 (nonaromatic ring conformer: 97.64734002950566 kcal/mol)

>  <smiles>  (54) 
Cc1cc(C)c2c(=O)cc(C(=O)Nc3ccc(C(=O)Nc4ccccc4N4CCOCC4)cc3)oc2c1

>  <score_type>  (54) 
oracle

>  <origin>  (54) 
adg

>  <m_score__min__energy>  (54) 
-10.609999999999999

>  <m_primary>  (54) 
energy

$$$$
54:0
     RDKit          3D

 58 61  0  0  0  0  0  0  0  0999 V2000
   55.9550   29.3420   42.3830 N   0  0  0  0  0  0  0  0  0  0  0  0
   56.9340   29.4310   43.4270 C   0  0  0  0  0  0  0  0  0  0  0  0
   57.3920   28.3420   43.9700 N   0  0  0  0  0  0  0  0  0  0  0  0
   57.4100   30.7610   43.8870 C   0  0  0  0  0  0  0  0  0  0  0  0
   57.7550   31.7540   42.9550 C   0  0  0  0  0  0  0  0  0  0  0  0
   58.2240   32.9970   43.3810 C   0  0  0  0  0  0  0  0  0  0  0  0
   58.3360   33.2700   44.7460 C   0  0  0  0  0  0  0  0  0  0  0  0
   57.9880   32.2950   45.6940 C   0  0  0  0  0  0  0  0  0  0  0  0
   58.1700   32.5670   47.1670 C   0  0  0  0  0  0  0  0  0  0  0  0
   59.2710   33.5630   47.4350 C   0  0  0  0  0  0  0  0  0  0  0  0
   58.9820   34.7530   47.7400 O   0  0  0  0  0  0  0  0  0  0  0  0
   60.6560   33.1660   47.3710 N   0  0  0  0  0  0  0  0  0  0  0  0
   61.6630   33.8760   46.6000 C   0  0  0  0  0  0  0  0  0  0  0  0
   62.9650   33.1180   46.8150 C   0  0  0  0  0  0  0  0  0  0  0  0
   62.7260   32.1680   47.9880 C   0  0  0  0  0  0  0  0  0  0  0  0
   61.2070   32.0830   48.1710 C   0  0  2  0  0  0  0  0  0  0  0  0
   60.6360   30.7490   47.7250 C   0  0  0  0  0  0  0  0  0  0  0  0
   59.9600   29.9100   48.6260 C   0  0  0  0  0  0  0  0  0  0  0  0
   59.4350   28.6860   48.2020 C   0  0  0  0  0  0  0  0  0  0  0  0
   59.5980   28.2610   46.8780 C   0  0  0  0  0  0  0  0  0  0  0  0
   59.0530   26.9610   46.4360 C   0  0  0  0  0  0  0  0  0  0  0  0
   59.7740   25.9320   46.5020 O   0  0  0  0  0  0  0  0  0  0  0  0
   57.6940   26.8830   45.9700 N   0  0  0  0  0  0  0  0  0  0  0  0
   56.9790   25.7660   45.4170 C   0  0  0  0  0  0  0  0  0  0  0  0
   57.4320   25.0480   44.2820 C   0  0  0  0  0  0  0  0  0  0  0  0
   56.6640   23.9980   43.7660 C   0  0  0  0  0  0  0  0  0  0  0  0
   55.4400   23.6610   44.3660 C   0  0  0  0  0  0  0  0  0  0  0  0
   54.9810   24.3680   45.4870 C   0  0  0  0  0  0  0  0  0  0  0  0
   55.7450   25.4180   46.0050 C   0  0  0  0  0  0  0  0  0  0  0  0
   60.2950   29.0880   45.9780 C   0  0  0  0  0  0  0  0  0  0  0  0
   60.8010   30.3220   46.3960 C   0  0  0  0  0  0  0  0  0  0  0  0
   57.5440   31.0360   45.2560 C   0  0  0  0  0  0  0  0  0  0  0  0
   55.6040   28.4140   42.0550 H   0  0  0  0  0  0  0  0  0  0  0  0
   55.5990   30.2000   41.9020 H   0  0  0  0  0  0  0  0  0  0  0  0
   58.3380   28.3320   44.4210 H   0  0  0  0  0  0  0  0  0  0  0  0
   56.8530   27.4490   43.9450 H   0  0  0  0  0  0  0  0  0  0  0  0
   57.6544   31.5495   41.8789 H   0  0  0  0  0  0  0  0  0  0  0  0
   58.5054   33.7617   42.6420 H   0  0  0  0  0  0  0  0  0  0  0  0
   58.6985   34.2534   45.0798 H   0  0  0  0  0  0  0  0  0  0  0  0
   57.2276   32.9643   47.5722 H   0  0  0  0  0  0  0  0  0  0  0  0
   58.4488   31.6197   47.6516 H   0  0  0  0  0  0  0  0  0  0  0  0
   61.3949   33.8808   45.5332 H   0  0  0  0  0  0  0  0  0  0  0  0
   61.7496   34.9253   46.9185 H   0  0  0  0  0  0  0  0  0  0  0  0
   63.2263   32.5477   45.9114 H   0  0  0  0  0  0  0  0  0  0  0  0
   63.7963   33.8072   47.0245 H   0  0  0  0  0  0  0  0  0  0  0  0
   63.1386   31.1735   47.7627 H   0  0  0  0  0  0  0  0  0  0  0  0
   63.2189   32.5302   48.9023 H   0  0  0  0  0  0  0  0  0  0  0  0
   60.9456   32.1702   49.2359 H   0  0  0  0  0  0  0  0  0  0  0  0
   59.8426   30.2191   49.6751 H   0  0  0  0  0  0  0  0  0  0  0  0
   58.8888   28.0509   48.9150 H   0  0  0  0  0  0  0  0  0  0  0  0
   58.3871   25.3161   43.8068 H   0  0  0  0  0  0  0  0  0  0  0  0
   57.0195   23.4362   42.8896 H   0  0  0  0  0  0  0  0  0  0  0  0
   54.8376   22.8377   43.9545 H   0  0  0  0  0  0  0  0  0  0  0  0
   54.0238   24.0974   45.9567 H   0  0  0  0  0  0  0  0  0  0  0  0
   55.3805   25.9778   46.8790 H   0  0  0  0  0  0  0  0  0  0  0  0
   60.4427   28.7611   44.9381 H   0  0  0  0  0  0  0  0  0  0  0  0
   61.3329   30.9645   45.6788 H   0  0  0  0  0  0  0  0  0  0  0  0
   57.2990   30.2581   45.9941 H   0  0  0  0  0  0  0  0  0  0  0  0
  1  2  1  0
  2  3  2  0
  2  4  1  0
  4  5  2  0
  5  6  1  0
  6  7  2  0
  7  8  1  0
  8  9  1  0
  9 10  1  0
 10 11  2  0
 10 12  1  0
 12 13  1  0
 13 14  1  0
 14 15  1  0
 15 16  1  0
 16 17  1  0
 17 18  2  0
 18 19  1  0
 19 20  2  0
 20 21  1  0
 21 22  2  0
 21 23  1  0
 23 24  1  0
 24 25  2  0
 25 26  1  0
 26 27  2  0
 27 28  1  0
 28 29  2  0
 20 30  1  0
 30 31  2  0
  8 32  2  0
 32  4  1  0
 16 12  1  0
 31 17  1  0
 29 24  1  0
  1 33  1  0
  1 34  1  0
  3 35  1  0
  3 36  1  0
  5 37  1  0
  6 38  1  0
  7 39  1  0
  9 40  1  0
  9 41  1  0
 13 42  1  0
 13 43  1  0
 14 44  1  0
 14 45  1  0
 15 46  1  0
 15 47  1  0
 16 48  1  1
 18 49  1  0
 19 50  1  0
 25 51  1  0
 26 52  1  0
 27 53  1  0
 28 54  1  0
 29 55  1  0
 30 56  1  0
 31 57  1  0
 32 58  1  0
M  CHG  2   3   1  23  -1
M  END
>  <UniqueID>  (55) 
53

>  <SMILES>  (55) 
NC(=[NH2+])c1cccc(CC(=O)N2CCC[C@@H]2c2ccc(C(=O)[N-]c3ccccc3)cc2)c1

>  <Energy>  (55) 
69.91463318627257

>  <Genealogy>  (55) 
NC(=[NH2+])c1cccc(CC(=O)N2CCCC2c2ccc(C(=O)[N-]c3ccccc3)cc2)c1 (protonated)
NC(=[NH2+])c1cccc(CC(=O)N2CCC[C@@H]2c2ccc(C(=O)[N-]c3ccccc3)cc2)c1 (chirality)
NC(=[NH2+])c1cccc(CC(=O)N2CCC[C@@H]2c2ccc(C(=O)[N-]c3ccccc3)cc2)c1 (3D coordinates assigned)
NC(=[NH2+])c1cccc(CC(=O)N2CCC[C@@H]2c2ccc(C(=O)[N-]c3ccccc3)cc2)c1 (nonaromatic ring conformer: 69.91463318627257 kcal/mol)

>  <smiles>  (55) 
N=C(N)c1cccc(CC(=O)N2CCCC2c2ccc(C(=O)Nc3ccccc3)cc2)c1

>  <score_type>  (55) 
oracle

>  <origin>  (55) 
adg

>  <m_score__min__energy>  (55) 
-10.220000000000001

>  <m_primary>  (55) 
energy

$$$$
55:0
     RDKit          3D

 42 44  0  0  0  0  0  0  0  0999 V2000
   56.1131   32.6256   44.7586 H   0  0  0  0  0  0  0  0  0  0  0  0
   57.0570   32.0900   44.9380 C   0  0  0  0  0  0  0  0  0  0  0  0
   57.2430   30.9150   44.3180 C   0  0  0  0  0  0  0  0  0  0  0  0
   57.2282   30.8875   43.2184 H   0  0  0  0  0  0  0  0  0  0  0  0
   57.4680   29.6510   45.0620 C   0  0  0  0  0  0  0  0  0  0  0  0
   56.4290   28.7450   45.3240 C   0  0  0  0  0  0  0  0  0  0  0  0
   55.1380   28.9870   44.8670 O   0  0  0  0  0  0  0  0  0  0  0  0
   56.6860   27.6000   46.0020 N   0  0  0  0  0  0  0  0  0  0  0  0
   55.9010   26.9370   46.1940 H   0  0  0  0  0  0  0  0  0  0  0  0
   57.9420   27.2870   46.4190 C   0  0  0  0  0  0  0  0  0  0  0  0
   58.1280   26.2020   47.0370 O   0  0  0  0  0  0  0  0  0  0  0  0
   58.9900   28.1330   46.1590 N   0  0  0  0  0  0  0  0  0  0  0  0
   60.3650   27.7720   46.5680 C   0  0  0  0  0  0  0  0  0  0  0  0
   60.6470   26.8269   46.0808 H   0  0  0  0  0  0  0  0  0  0  0  0
   61.0415   28.5844   46.2641 H   0  0  0  0  0  0  0  0  0  0  0  0
   60.4690   27.6000   48.0900 C   0  0  0  0  0  0  0  0  0  0  0  0
   59.7619   26.8204   48.4097 H   0  0  0  0  0  0  0  0  0  0  0  0
   61.5039   27.3174   48.3331 H   0  0  0  0  0  0  0  0  0  0  0  0
   60.1480   28.8790   48.8190 C   0  0  0  0  0  0  0  0  0  0  0  0
   58.8530   29.1050   49.3140 C   0  0  0  0  0  0  0  0  0  0  0  0
   58.0615   28.3616   49.1386 H   0  0  0  0  0  0  0  0  0  0  0  0
   58.5670   30.2720   50.0290 C   0  0  0  0  0  0  0  0  0  0  0  0
   57.5495   30.4487   50.4079 H   0  0  0  0  0  0  0  0  0  0  0  0
   59.5730   31.2150   50.2630 C   0  0  0  0  0  0  0  0  0  0  0  0
   59.3469   32.1322   50.8266 H   0  0  0  0  0  0  0  0  0  0  0  0
   60.8650   30.9920   49.7810 C   0  0  0  0  0  0  0  0  0  0  0  0
   61.6558   31.7336   49.9671 H   0  0  0  0  0  0  0  0  0  0  0  0
   61.1550   29.8290   49.0630 C   0  0  0  0  0  0  0  0  0  0  0  0
   62.1744   29.6562   48.6875 H   0  0  0  0  0  0  0  0  0  0  0  0
   58.7650   29.3060   45.4800 C   0  0  0  0  0  0  0  0  0  0  0  0
   59.7250   30.0900   45.2330 O   0  0  0  0  0  0  0  0  0  0  0  0
   58.0490   32.7110   45.8520 C   0  0  0  0  0  0  0  0  0  0  0  0
   57.7860   32.6980   47.2320 C   0  0  0  0  0  0  0  0  0  0  0  0
   56.8586   32.2395   47.6059 H   0  0  0  0  0  0  0  0  0  0  0  0
   58.6930   33.2630   48.1350 C   0  0  0  0  0  0  0  0  0  0  0  0
   58.4718   33.2552   49.2125 H   0  0  0  0  0  0  0  0  0  0  0  0
   59.8790   33.8370   47.6710 C   0  0  0  0  0  0  0  0  0  0  0  0
   61.0170   34.5410   48.8040 Cl  0  0  0  0  0  0  0  0  0  0  0  0
   60.1610   33.8410   46.3010 C   0  0  0  0  0  0  0  0  0  0  0  0
   61.0973   34.2879   45.9353 H   0  0  0  0  0  0  0  0  0  0  0  0
   59.2570   33.2790   45.3950 C   0  0  0  0  0  0  0  0  0  0  0  0
   59.4887   33.2796   44.3197 H   0  0  0  0  0  0  0  0  0  0  0  0
  1  2  1  0
  2  3  2  0
  3  4  1  0
  3  5  1  0
  5  6  2  0
  6  7  1  0
  6  8  1  0
  8  9  1  0
  8 10  1  0
 10 11  2  0
 10 12  1  0
 12 13  1  0
 13 14  1  0
 13 15  1  0
 13 16  1  0
 16 17  1  0
 16 18  1  0
 16 19  1  0
 19 20  2  0
 20 21  1  0
 20 22  1  0
 22 23  1  0
 22 24  2  0
 24 25  1  0
 24 26  1  0
 26 27  1  0
 26 28  2  0
 28 29  1  0
 12 30  1  0
 30 31  2  0
  2 32  1  0
 32 33  2  0
 33 34  1  0
 33 35  1  0
 35 36  1  0
 35 37  2  0
 37 38  1  0
 37 39  1  0
 39 40  1  0
 39 41  2  0
 41 42  1  0
 30  5  1  0
 41 32  1  0
 28 19  1  0
M  CHG  1   7  -1
M  END
>  <UniqueID>  (56) 
54

>  <SMILES>  (56) 
O=c1[nH]c([O-])c(/C=C/c2ccc(Cl)cc2)c(=O)n1CCc1ccccc1

>  <Energy>  (56) 
53.46125318627194

>  <Genealogy>  (56) 
O=c1[nH]c([O-])c(C=Cc2ccc(Cl)cc2)c(=O)n1CCc1ccccc1 (protonated)
O=c1[nH]c([O-])c(/C=C/c2ccc(Cl)cc2)c(=O)n1CCc1ccccc1 (cis-trans isomerization)
O=c1[nH]c([O-])c(/C=C/c2ccc(Cl)cc2)c(=O)n1CCc1ccccc1 (3D coordinates assigned)
O=c1[nH]c([O-])c(/C=C/c2ccc(Cl)cc2)c(=O)n1CCc1ccccc1 (optimized conformer: 53.46125318627194 kcal/mol)

>  <smiles>  (56) 
O=c1[nH]c(O)c(C=Cc2ccc(Cl)cc2)c(=O)n1CCc1ccccc1

>  <score_type>  (56) 
oracle

>  <origin>  (56) 
adg

>  <m_score__min__energy>  (56) 
-11.81

>  <m_primary>  (56) 
energy

$$$$
56:0
     RDKit          3D

 35 36  0  0  0  0  0  0  0  0999 V2000
   58.5540   32.3270   48.4430 C   0  0  0  0  0  0  0  0  0  0  0  0
   58.8120   33.2190   47.2550 C   0  0  0  0  0  0  0  0  0  0  0  0
   59.3910   34.4830   47.4700 C   0  0  0  0  0  0  0  0  0  0  0  0
   59.6210   35.3520   46.4040 C   0  0  0  0  0  0  0  0  0  0  0  0
   59.2670   34.9780   45.1090 C   0  0  0  0  0  0  0  0  0  0  0  0
   58.6870   33.7310   44.8760 C   0  0  0  0  0  0  0  0  0  0  0  0
   58.4710   32.8270   45.9340 C   0  0  0  0  0  0  0  0  0  0  0  0
   57.8230   31.4940   45.6220 C   0  0  0  0  0  0  0  0  0  0  0  0
   57.2460   31.4080   43.8850 S   0  0  0  0  0  0  0  0  0  0  0  0
   57.2520   29.5820   43.7140 C   0  0  0  0  0  0  0  0  0  0  0  0
   56.5880   28.8910   44.8760 C   0  0  0  0  0  0  0  0  0  0  0  0
   55.4410   29.2850   45.2170 O   0  0  0  0  0  0  0  0  0  0  0  0
   57.2170   27.7480   45.5970 C   0  0  0  0  0  0  0  0  0  0  0  0
   58.6150   27.6850   45.7600 C   0  0  0  0  0  0  0  0  0  0  0  0
   59.2100   26.6280   46.4560 C   0  0  0  0  0  0  0  0  0  0  0  0
   60.5950   26.5970   46.6070 O   0  0  0  0  0  0  0  0  0  0  0  0
   58.4130   25.6120   46.9920 C   0  0  0  0  0  0  0  0  0  0  0  0
   57.0290   25.6490   46.8270 C   0  0  0  0  0  0  0  0  0  0  0  0
   56.4270   26.7030   46.1320 C   0  0  0  0  0  0  0  0  0  0  0  0
   55.0430   26.7030   45.9910 O   0  0  0  0  0  0  0  0  0  0  0  0
   58.7183   32.8950   49.3706 H   0  0  0  0  0  0  0  0  0  0  0  0
   57.5150   31.9672   48.4126 H   0  0  0  0  0  0  0  0  0  0  0  0
   59.2405   31.4681   48.4126 H   0  0  0  0  0  0  0  0  0  0  0  0
   59.6653   34.7892   48.4903 H   0  0  0  0  0  0  0  0  0  0  0  0
   60.0824   36.3339   46.5854 H   0  0  0  0  0  0  0  0  0  0  0  0
   59.4451   35.6667   44.2700 H   0  0  0  0  0  0  0  0  0  0  0  0
   58.3948   33.4503   43.8534 H   0  0  0  0  0  0  0  0  0  0  0  0
   58.5567   30.6926   45.7936 H   0  0  0  0  0  0  0  0  0  0  0  0
   56.9486   31.3767   46.2790 H   0  0  0  0  0  0  0  0  0  0  0  0
   56.7174   29.3125   42.7912 H   0  0  0  0  0  0  0  0  0  0  0  0
   58.3012   29.2528   43.6849 H   0  0  0  0  0  0  0  0  0  0  0  0
   59.2471   28.4781   45.3340 H   0  0  0  0  0  0  0  0  0  0  0  0
   61.1350   27.4470   46.7070 H   0  0  0  0  0  0  0  0  0  0  0  0
   58.8784   24.7825   47.5445 H   0  0  0  0  0  0  0  0  0  0  0  0
   56.4068   24.8444   47.2459 H   0  0  0  0  0  0  0  0  0  0  0  0
  1  2  1  0
  2  3  2  0
  3  4  1  0
  4  5  2  0
  5  6  1  0
  6  7  2  0
  7  8  1  0
  8  9  1  0
  9 10  1  0
 10 11  1  0
 11 12  2  0
 11 13  1  0
 13 14  2  0
 14 15  1  0
 15 16  1  0
 15 17  2  0
 17 18  1  0
 18 19  2  0
 19 20  1  0
  7  2  1  0
 19 13  1  0
  1 21  1  0
  1 22  1  0
  1 23  1  0
  3 24  1  0
  4 25  1  0
  5 26  1  0
  6 27  1  0
  8 28  1  0
  8 29  1  0
 10 30  1  0
 10 31  1  0
 14 32  1  0
 16 33  1  0
 17 34  1  0
 18 35  1  0
M  CHG  1  20  -1
M  END
>  <UniqueID>  (57) 
55

>  <SMILES>  (57) 
Cc1ccccc1CSCC(=O)c1cc(O)ccc1[O-]

>  <Energy>  (57) 
34.33064436459426

>  <Genealogy>  (57) 
Cc1ccccc1CSCC(=O)c1cc(O)ccc1[O-] (protonated)
Cc1ccccc1CSCC(=O)c1cc(O)ccc1[O-] (3D coordinates assigned)
Cc1ccccc1CSCC(=O)c1cc(O)ccc1[O-] (optimized conformer: 34.33064436459426 kcal/mol)

>  <smiles>  (57) 
Cc1ccccc1CSCC(=O)c1cc(O)ccc1O

>  <score_type>  (57) 
oracle

>  <origin>  (57) 
adg

>  <m_score__min__energy>  (57) 
-11.539999999999999

>  <m_primary>  (57) 
energy

$$$$
57:0
     RDKit          3D

 22 22  0  0  0  0  0  0  0  0999 V2000
   57.4100   31.9520   41.8750 C   0  0  0  0  0  0  0  0  0  0  0  0
   57.7040   32.0920   43.3370 C   0  0  0  0  0  0  0  0  0  0  0  0
   58.5100   32.9840   43.7170 O   0  0  0  0  0  0  0  0  0  0  0  0
   57.0360   31.2160   44.3230 C   0  0  0  0  0  0  0  0  0  0  0  0
   57.0570   31.5380   45.5410 O   0  0  0  0  0  0  0  0  0  0  0  0
   56.3240   29.9810   43.9170 C   0  0  0  0  0  0  0  0  0  0  0  0
   55.9850   29.8210   42.7150 O   0  0  0  0  0  0  0  0  0  0  0  0
   55.9310   28.9910   44.8770 N   0  0  0  0  0  0  0  0  0  0  0  0
   56.7640   27.9530   45.4160 C   0  0  0  0  0  0  0  0  0  0  0  0
   58.1670   28.0240   45.3370 C   0  0  0  0  0  0  0  0  0  0  0  0
   58.9540   26.9850   45.8430 C   0  0  0  0  0  0  0  0  0  0  0  0
   58.3490   25.8630   46.4140 C   0  0  0  0  0  0  0  0  0  0  0  0
   56.9550   25.7740   46.4730 C   0  0  0  0  0  0  0  0  0  0  0  0
   56.1640   26.8120   45.9690 C   0  0  0  0  0  0  0  0  0  0  0  0
   54.7780   26.7070   46.0270 O   0  0  0  0  0  0  0  0  0  0  0  0
   56.4241   31.4825   41.7426 H   0  0  0  0  0  0  0  0  0  0  0  0
   57.4089   32.9462   41.4044 H   0  0  0  0  0  0  0  0  0  0  0  0
   58.1811   31.3244   41.4044 H   0  0  0  0  0  0  0  0  0  0  0  0
   58.6464   28.9000   44.8756 H   0  0  0  0  0  0  0  0  0  0  0  0
   60.0508   27.0513   45.7913 H   0  0  0  0  0  0  0  0  0  0  0  0
   58.9695   25.0492   46.8174 H   0  0  0  0  0  0  0  0  0  0  0  0
   56.4795   24.8866   46.9163 H   0  0  0  0  0  0  0  0  0  0  0  0
  1  2  1  0
  2  3  2  0
  2  4  1  0
  4  5  2  0
  4  6  1  0
  6  7  2  0
  6  8  1  0
  8  9  1  0
  9 10  2  0
 10 11  1  0
 11 12  2  0
 12 13  1  0
 13 14  2  0
 14 15  1  0
 14  9  1  0
  1 16  1  0
  1 17  1  0
  1 18  1  0
 10 19  1  0
 11 20  1  0
 12 21  1  0
 13 22  1  0
M  CHG  2   8  -1  15  -1
M  END
>  <UniqueID>  (58) 
56

>  <SMILES>  (58) 
CC(=O)C(=O)C(=O)[N-]c1ccccc1[O-]

>  <Energy>  (58) 
25.038378766808925

>  <Genealogy>  (58) 
CC(=O)C(=O)C(=O)[N-]c1ccccc1[O-] (protonated)
CC(=O)C(=O)C(=O)[N-]c1ccccc1[O-] (3D coordinates assigned)
CC(=O)C(=O)C(=O)[N-]c1ccccc1[O-] (optimized conformer: 25.038378766808925 kcal/mol)

>  <smiles>  (58) 
CC(=O)C(=O)C(=O)Nc1ccccc1O

>  <score_type>  (58) 
oracle

>  <origin>  (58) 
adg

>  <m_score__min__energy>  (58) 
-11.960000000000001

>  <m_primary>  (58) 
energy

$$$$
58:0
     RDKit          3D

 43 45  0  0  0  0  0  0  0  0999 V2000
   56.2840   32.7600   45.2580 O   0  0  0  0  0  0  0  0  0  0  0  0
   57.4990   32.7230   44.9190 C   0  0  0  0  0  0  0  0  0  0  0  0
   57.8770   32.0730   43.7360 O   0  0  0  0  0  0  0  0  0  0  0  0
   57.3130   30.8340   43.3080 C   0  0  0  0  0  0  0  0  0  0  0  0
   57.1130   29.8940   44.4660 C   0  0  0  0  0  0  0  0  0  0  0  0
   55.9470   29.6320   44.8630 O   0  0  0  0  0  0  0  0  0  0  0  0
   58.2640   29.3140   45.1800 C   0  0  0  0  0  0  0  0  0  0  0  0
   59.3820   28.7110   44.6100 C   0  0  0  0  0  0  0  0  0  0  0  0
   60.3120   28.2630   45.5560 C   0  0  0  0  0  0  0  0  0  0  0  0
   59.9360   28.5090   46.8700 C   0  0  0  0  0  0  0  0  0  0  0  0
   58.4460   29.2860   46.8540 S   0  0  0  0  0  0  0  0  0  0  0  0
   58.5270   33.3640   45.7670 C   0  0  0  0  0  0  0  0  0  0  0  0
   58.9830   34.6610   45.4710 C   0  0  0  0  0  0  0  0  0  0  0  0
   59.9530   35.2690   46.2730 C   0  0  0  0  0  0  0  0  0  0  0  0
   60.4810   34.5920   47.3740 C   0  0  0  0  0  0  0  0  0  0  0  0
   60.0420   33.2970   47.6780 C   0  0  0  0  0  0  0  0  0  0  0  0
   60.7050   32.4290   49.0610 S   0  0  0  0  0  0  0  0  0  0  0  0
   60.9470   33.3900   50.1920 O   0  0  0  0  0  0  0  0  0  0  0  0
   59.7040   31.3960   49.4980 O   0  0  0  0  0  0  0  0  0  0  0  0
   62.2060   31.6590   48.5900 N   0  0  0  0  0  0  0  0  0  0  0  0
   62.5420   31.9280   47.1740 C   0  0  0  0  0  0  0  0  0  0  0  0
   63.5930   33.0420   47.0130 C   0  0  0  0  0  0  0  0  0  0  0  0
   63.4460   34.0030   48.0330 O   0  0  0  0  0  0  0  0  0  0  0  0
   63.8200   33.4520   49.2840 C   0  0  0  0  0  0  0  0  0  0  0  0
   63.3070   32.0080   49.5050 C   0  0  0  0  0  0  0  0  0  0  0  0
   59.0650   32.6880   46.8790 C   0  0  0  0  0  0  0  0  0  0  0  0
   56.3403   31.0285   42.8326 H   0  0  0  0  0  0  0  0  0  0  0  0
   58.0078   30.3643   42.5962 H   0  0  0  0  0  0  0  0  0  0  0  0
   59.5208   28.5978   43.5247 H   0  0  0  0  0  0  0  0  0  0  0  0
   61.2530   27.7627   45.2837 H   0  0  0  0  0  0  0  0  0  0  0  0
   60.5139   28.2414   47.7669 H   0  0  0  0  0  0  0  0  0  0  0  0
   58.5741   35.1999   44.6036 H   0  0  0  0  0  0  0  0  0  0  0  0
   60.3018   36.2849   46.0358 H   0  0  0  0  0  0  0  0  0  0  0  0
   61.2424   35.0760   48.0033 H   0  0  0  0  0  0  0  0  0  0  0  0
   62.9364   31.0047   46.7245 H   0  0  0  0  0  0  0  0  0  0  0  0
   61.6224   32.2644   46.6728 H   0  0  0  0  0  0  0  0  0  0  0  0
   64.5997   32.6024   47.0707 H   0  0  0  0  0  0  0  0  0  0  0  0
   63.4508   33.5303   46.0376 H   0  0  0  0  0  0  0  0  0  0  0  0
   64.9182   33.4439   49.3458 H   0  0  0  0  0  0  0  0  0  0  0  0
   63.3611   34.0794   50.0623 H   0  0  0  0  0  0  0  0  0  0  0  0
   64.1393   31.3079   49.3401 H   0  0  0  0  0  0  0  0  0  0  0  0
   62.9233   31.9412   50.5337 H   0  0  0  0  0  0  0  0  0  0  0  0
   58.7156   31.6738   47.1224 H   0  0  0  0  0  0  0  0  0  0  0  0
  1  2  2  0
  2  3  1  0
  3  4  1  0
  4  5  1  0
  5  6  2  0
  5  7  1  0
  7  8  2  0
  8  9  1  0
  9 10  2  0
 10 11  1  0
  2 12  1  0
 12 13  2  0
 13 14  1  0
 14 15  2  0
 15 16  1  0
 16 17  1  0
 17 18  2  0
 17 19  2  0
 17 20  1  0
 20 21  1  0
 21 22  1  0
 22 23  1  0
 23 24  1  0
 24 25  1  0
 16 26  2  0
 11  7  1  0
 26 12  1  0
 25 20  1  0
  4 27  1  0
  4 28  1  0
  8 29  1  0
  9 30  1  0
 10 31  1  0
 13 32  1  0
 14 33  1  0
 15 34  1  0
 21 35  1  0
 21 36  1  0
 22 37  1  0
 22 38  1  0
 24 39  1  0
 24 40  1  0
 25 41  1  0
 25 42  1  0
 26 43  1  0
M  END
>  <UniqueID>  (59) 
57

>  <SMILES>  (59) 
O=C(OCC(=O)c1cccs1)c1cccc(S(=O)(=O)N2CCOCC2)c1

>  <Energy>  (59) 
79.58520182157272

>  <Genealogy>  (59) 
O=C(OCC(=O)c1cccs1)c1cccc(S(=O)(=O)N2CCOCC2)c1 (3D coordinates assigned)
O=C(OCC(=O)c1cccs1)c1cccc(S(=O)(=O)N2CCOCC2)c1 (nonaromatic ring conformer: 79.58520182157272 kcal/mol)

>  <smiles>  (59) 
O=C(OCC(=O)c1cccs1)c1cccc(S(=O)(=O)N2CCOCC2)c1

>  <score_type>  (59) 
oracle

>  <origin>  (59) 
adg

>  <m_score__min__energy>  (59) 
-8.8000000000000007

>  <m_primary>  (59) 
energy

$$$$
59:0
     RDKit          3D

 49 51  0  0  0  0  0  0  0  0999 V2000
   56.9990   34.5790   44.8870 C   0  0  0  0  0  0  0  0  0  0  0  0
   57.8960   33.8570   45.8590 C   0  0  0  0  0  0  0  0  0  0  0  0
   58.5060   34.5940   46.8880 C   0  0  0  0  0  0  0  0  0  0  0  0
   59.3480   33.9690   47.8060 C   0  0  0  0  0  0  0  0  0  0  0  0
   59.5850   32.6000   47.7160 C   0  0  0  0  0  0  0  0  0  0  0  0
   59.0000   31.8490   46.6950 C   0  0  0  0  0  0  0  0  0  0  0  0
   59.2380   30.4800   46.6460 O   0  0  0  0  0  0  0  0  0  0  0  0
   58.1760   32.4710   45.7340 C   0  0  0  0  0  0  0  0  0  0  0  0
   57.5650   31.6320   44.6400 C   0  0  0  0  0  0  0  0  0  0  0  0
   56.6670   30.6460   45.2260 N   0  0  0  0  0  0  0  0  0  0  0  0
   56.3980   29.3580   44.6600 C   0  0  0  0  0  0  0  0  0  0  0  0
   55.2000   28.9890   44.5390 O   0  0  0  0  0  0  0  0  0  0  0  0
   57.5130   28.4130   44.2750 C   0  0  1  0  0  0  0  0  0  0  0  0
   58.8610   29.1370   44.2260 C   0  0  0  0  0  0  0  0  0  0  0  0
   59.8690   28.1560   44.8330 C   0  0  1  0  0  0  0  0  0  0  0  0
   60.8790   28.8100   45.5580 O   0  0  0  0  0  0  0  0  0  0  0  0
   59.0520   27.1990   45.7020 C   0  0  0  0  0  0  0  0  0  0  0  0
   57.6750   27.3420   45.2540 N   0  0  0  0  0  0  0  0  0  0  0  0
   56.6390   26.3850   45.5480 C   0  0  0  0  0  0  0  0  0  0  0  0
   55.6900   26.7140   46.3100 O   0  0  0  0  0  0  0  0  0  0  0  0
   56.6330   25.0110   44.9260 C   0  0  0  0  0  0  0  0  0  0  0  0
   56.4150   23.9280   45.9690 C   0  0  0  0  0  0  0  0  0  0  0  0
   55.1220   23.4700   46.3480 C   0  0  0  0  0  0  0  0  0  0  0  0
   53.8610   23.9280   45.7260 C   0  0  0  0  0  0  0  0  0  0  0  0
   53.5780   25.1500   45.6330 O   0  0  0  0  0  0  0  0  0  0  0  0
   52.9950   22.9940   45.1700 O   0  0  0  0  0  0  0  0  0  0  0  0
   55.0150   22.5470   47.3410 N   0  0  0  0  0  0  0  0  0  0  0  0
   56.1020   22.0240   47.9560 C   0  0  0  0  0  0  0  0  0  0  0  0
   55.9580   21.1710   48.8680 O   0  0  0  0  0  0  0  0  0  0  0  0
   57.3450   22.4150   47.5850 N   0  0  0  0  0  0  0  0  0  0  0  0
   57.5280   23.3420   46.6120 C   0  0  0  0  0  0  0  0  0  0  0  0
   58.7040   23.6720   46.2980 O   0  0  0  0  0  0  0  0  0  0  0  0
   56.2596   35.1741   45.4430 H   0  0  0  0  0  0  0  0  0  0  0  0
   57.6045   35.2446   44.2542 H   0  0  0  0  0  0  0  0  0  0  0  0
   56.4781   33.8453   44.2542 H   0  0  0  0  0  0  0  0  0  0  0  0
   58.3172   35.6746   46.9698 H   0  0  0  0  0  0  0  0  0  0  0  0
   59.8259   34.5580   48.6026 H   0  0  0  0  0  0  0  0  0  0  0  0
   60.2364   32.1077   48.4531 H   0  0  0  0  0  0  0  0  0  0  0  0
   57.0000   32.2799   43.9537 H   0  0  0  0  0  0  0  0  0  0  0  0
   58.3629   31.1164   44.0855 H   0  0  0  0  0  0  0  0  0  0  0  0
   57.2332   28.0110   43.2901 H   0  0  0  0  0  0  0  0  0  0  0  0
   59.1329   29.3752   43.1871 H   0  0  0  0  0  0  0  0  0  0  0  0
   58.8348   30.0900   44.7747 H   0  0  0  0  0  0  0  0  0  0  0  0
   60.4094   27.6078   44.0472 H   0  0  0  0  0  0  0  0  0  0  0  0
   60.4570   29.5480   46.0730 H   0  0  0  0  0  0  0  0  0  0  0  0
   59.3961   26.1638   45.5610 H   0  0  0  0  0  0  0  0  0  0  0  0
   59.1578   27.4303   46.7722 H   0  0  0  0  0  0  0  0  0  0  0  0
   55.8241   24.9589   44.1824 H   0  0  0  0  0  0  0  0  0  0  0  0
   57.6117   24.8423   44.4530 H   0  0  0  0  0  0  0  0  0  0  0  0
  1  2  1  0
  2  3  2  0
  3  4  1  0
  4  5  2  0
  5  6  1  0
  6  7  1  0
  6  8  2  0
  8  9  1  0
  9 10  1  0
 10 11  1  0
 11 12  2  0
 11 13  1  0
 13 14  1  0
 14 15  1  0
 15 16  1  0
 15 17  1  0
 17 18  1  0
 18 19  1  0
 19 20  2  0
 19 21  1  0
 21 22  1  0
 22 23  2  0
 23 24  1  0
 24 25  2  0
 24 26  1  0
 23 27  1  0
 27 28  1  0
 28 29  2  0
 28 30  1  0
 30 31  1  0
 31 32  2  0
  8  2  1  0
 18 13  1  0
 31 22  1  0
  1 33  1  0
  1 34  1  0
  1 35  1  0
  3 36  1  0
  4 37  1  0
  5 38  1  0
  9 39  1  0
  9 40  1  0
 13 41  1  6
 14 42  1  0
 14 43  1  0
 15 44  1  6
 16 45  1  0
 17 46  1  0
 17 47  1  0
 21 48  1  0
 21 49  1  0
M  CHG  5   7  -1  10  -1  26  -1  27  -1  30  -1
M  END
>  <UniqueID>  (60) 
58

>  <SMILES>  (60) 
Cc1cccc([O-])c1C[N-]C(=O)[C@H]1C[C@@H](O)CN1C(=O)Cc1c(C(=O)[O-])[n-]c(=O)[n-]c1=O

>  <Energy>  (60) 
58.4959232325627

>  <Genealogy>  (60) 
Cc1cccc([O-])c1C[N-]C(=O)C1CC(O)CN1C(=O)Cc1c(C(=O)[O-])[n-]c(=O)[n-]c1=O (protonated)
Cc1cccc([O-])c1C[N-]C(=O)[C@H]1C[C@@H](O)CN1C(=O)Cc1c(C(=O)[O-])[n-]c(=O)[n-]c1=O (chirality)
Cc1cccc([O-])c1C[N-]C(=O)[C@H]1C[C@@H](O)CN1C(=O)Cc1c(C(=O)[O-])[n-]c(=O)[n-]c1=O (3D coordinates assigned)
Cc1cccc([O-])c1C[N-]C(=O)[C@H]1C[C@@H](O)CN1C(=O)Cc1c(C(=O)[O-])[n-]c(=O)[n-]c1=O (nonaromatic ring conformer: 58.4959232325627 kcal/mol)

>  <smiles>  (60) 
Cc1cccc(O)c1CNC(=O)C1CC(O)CN1C(=O)Cc1c(C(=O)O)[nH]c(=O)[nH]c1=O

>  <score_type>  (60) 
oracle

>  <origin>  (60) 
adg

>  <m_score__min__energy>  (60) 
-16.73

>  <m_primary>  (60) 
energy

$$$$
60:0
     RDKit          3D

 27 28  0  0  0  0  0  0  0  0999 V2000
   58.1250   26.9700   46.7710 O   0  0  0  0  0  0  0  0  0  0  0  0
   57.5820   26.7870   45.6490 C   0  0  0  0  0  0  0  0  0  0  0  0
   57.7770   27.7800   44.6260 N   0  0  0  0  0  0  0  0  0  0  0  0
   57.5100   29.0570   44.6790 C   0  0  0  0  0  0  0  0  0  0  0  0
   58.2700   29.8580   45.5400 C   0  0  0  0  0  0  0  0  0  0  0  0
   58.0120   31.2290   45.6230 C   0  0  0  0  0  0  0  0  0  0  0  0
   57.0170   31.7820   44.8830 N   0  0  0  0  0  0  0  0  0  0  0  0
   56.2470   31.0310   44.0520 C   0  0  0  0  0  0  0  0  0  0  0  0
   56.4710   29.6570   43.9370 C   0  0  0  0  0  0  0  0  0  0  0  0
   56.8370   25.5210   45.3990 C   0  0  0  0  0  0  0  0  0  0  0  0
   57.5970   24.4640   44.8840 C   0  0  0  0  0  0  0  0  0  0  0  0
   57.2480   23.1500   44.5720 C   0  0  0  0  0  0  0  0  0  0  0  0
   58.1840   22.4400   44.1120 O   0  0  0  0  0  0  0  0  0  0  0  0
   55.9950   22.5320   44.7220 C   0  0  0  0  0  0  0  0  0  0  0  0
   55.8860   21.1780   44.3750 O   0  0  0  0  0  0  0  0  0  0  0  0
   54.8110   23.1120   45.1830 C   0  0  0  0  0  0  0  0  0  0  0  0
   53.6970   22.2790   45.2450 O   0  0  0  0  0  0  0  0  0  0  0  0
   54.5910   24.4270   45.5790 C   0  0  0  0  0  0  0  0  0  0  0  0
   55.4600   25.5070   45.6720 C   0  0  0  0  0  0  0  0  0  0  0  0
   54.8680   26.7020   46.0790 O   0  0  0  0  0  0  0  0  0  0  0  0
   59.0682   29.4093   46.1496 H   0  0  0  0  0  0  0  0  0  0  0  0
   58.6166   31.8617   46.2895 H   0  0  0  0  0  0  0  0  0  0  0  0
   55.4451   31.5066   43.4683 H   0  0  0  0  0  0  0  0  0  0  0  0
   55.8415   29.0470   43.2724 H   0  0  0  0  0  0  0  0  0  0  0  0
   58.6513   24.7126   44.6923 H   0  0  0  0  0  0  0  0  0  0  0  0
   55.0140   20.7260   44.1270 H   0  0  0  0  0  0  0  0  0  0  0  0
   53.5531   24.6497   45.8674 H   0  0  0  0  0  0  0  0  0  0  0  0
  1  2  2  0
  2  3  1  0
  3  4  2  3
  4  5  1  0
  5  6  2  0
  6  7  1  0
  7  8  1  0
  8  9  2  0
  2 10  1  0
 10 11  2  0
 11 12  1  0
 12 13  2  0
 12 14  1  0
 14 15  1  0
 14 16  2  0
 16 17  1  0
 16 18  1  0
 18 19  2  0
 19 20  1  0
  9  4  1  0
 19 10  1  0
  5 21  1  0
  6 22  1  0
  8 23  1  0
  9 24  1  0
 11 25  1  0
 15 26  1  0
 18 27  1  0
M  CHG  3   7  -1  17  -1  20  -1
M  END
>  <UniqueID>  (61) 
59

>  <SMILES>  (61) 
O=C(N=c1cc[n-]cc1)c1cc(=O)c(O)c([O-])cc1[O-]

>  <Energy>  (61) 
67.43537113184719

>  <Genealogy>  (61) 
O=C(N=c1cc[n-]cc1)c1cc(=O)c(O)c([O-])cc1[O-] (protonated)
O=C(N=c1cc[n-]cc1)c1cc(=O)c(O)c([O-])cc1[O-] (3D coordinates assigned)
O=C(N=c1cc[n-]cc1)c1cc(=O)c(O)c([O-])cc1[O-] (optimized conformer: 67.43537113184719 kcal/mol)

>  <smiles>  (61) 
O=C(N=c1cc[nH]cc1)c1cc(=O)c(O)c(O)cc1O

>  <score_type>  (61) 
oracle

>  <origin>  (61) 
adg

>  <m_score__min__energy>  (61) 
-12.970000000000001

>  <m_primary>  (61) 
energy

$$$$
61:0
     RDKit          3D

 58 59  0  0  0  0  0  0  0  0999 V2000
   61.8580   30.4200   50.1940 C   0  0  0  0  0  0  0  0  0  0  0  0
   60.9130   31.1390   49.4090 O   0  0  0  0  0  0  0  0  0  0  0  0
   61.2400   32.0460   48.3880 C   0  0  0  0  0  0  0  0  0  0  0  0
   62.5740   32.2010   47.9620 C   0  0  0  0  0  0  0  0  0  0  0  0
   62.8980   33.1030   46.9490 C   0  0  0  0  0  0  0  0  0  0  0  0
   61.9010   33.8590   46.3410 C   0  0  0  0  0  0  0  0  0  0  0  0
   60.5620   33.7120   46.7300 C   0  0  0  0  0  0  0  0  0  0  0  0
   59.5110   34.5800   46.0830 C   0  0  0  0  0  0  0  0  0  0  0  0
   58.2980   33.7890   45.8320 N   0  0  0  0  0  0  0  0  0  0  0  0
   58.4210   32.9790   44.6090 C   0  0  0  0  0  0  0  0  0  0  0  0
   58.0320   31.5370   44.8440 C   0  0  0  0  0  0  0  0  0  0  0  0
   58.9540   30.6290   45.3800 C   0  0  0  0  0  0  0  0  0  0  0  0
   58.6000   29.2940   45.5770 C   0  0  0  0  0  0  0  0  0  0  0  0
   57.3030   28.8460   45.2590 C   0  0  0  0  0  0  0  0  0  0  0  0
   56.9160   27.5050   45.4180 O   0  0  0  0  0  0  0  0  0  0  0  0
   57.7200   26.4700   45.9860 C   0  0  0  0  0  0  0  0  0  0  0  0
   56.8920   25.4750   46.7430 C   0  0  0  0  0  0  0  0  0  0  0  0
   57.4080   24.8580   47.7150 O   0  0  0  0  0  0  0  0  0  0  0  0
   55.5180   25.2550   46.3850 N   0  0  0  0  0  0  0  0  0  0  0  0
   54.9800   23.9560   45.9800 C   0  0  0  0  0  0  0  0  0  0  0  0
   53.9100   24.1090   44.8920 C   0  0  0  0  0  0  0  0  0  0  0  0
   54.2640   23.3390   43.7060 N   0  0  0  0  0  0  0  0  0  0  0  0
   55.6220   23.0380   43.3700 C   0  0  0  0  0  0  0  0  0  0  0  0
   56.6520   24.1180   43.3810 C   0  0  0  0  0  0  0  0  0  0  0  0
   55.9620   21.8570   43.0880 O   0  0  0  0  0  0  0  0  0  0  0  0
   56.3640   29.7670   44.7600 C   0  0  0  0  0  0  0  0  0  0  0  0
   55.0580   29.3730   44.4640 O   0  0  0  0  0  0  0  0  0  0  0  0
   56.7300   31.1000   44.5530 C   0  0  0  0  0  0  0  0  0  0  0  0
   60.2190   32.8190   47.7690 C   0  0  0  0  0  0  0  0  0  0  0  0
   58.8610   32.7480   48.1390 O   0  0  0  0  0  0  0  0  0  0  0  0
   58.3330   32.3540   49.4090 C   0  0  0  0  0  0  0  0  0  0  0  0
   61.6463   30.5811   51.2613 H   0  0  0  0  0  0  0  0  0  0  0  0
   61.7852   29.3469   49.9636 H   0  0  0  0  0  0  0  0  0  0  0  0
   62.8728   30.7764   49.9636 H   0  0  0  0  0  0  0  0  0  0  0  0
   63.3685   31.6041   48.4336 H   0  0  0  0  0  0  0  0  0  0  0  0
   63.9445   33.2170   46.6299 H   0  0  0  0  0  0  0  0  0  0  0  0
   62.1648   34.5766   45.5501 H   0  0  0  0  0  0  0  0  0  0  0  0
   59.2680   35.4191   46.7515 H   0  0  0  0  0  0  0  0  0  0  0  0
   59.8966   34.9668   45.1282 H   0  0  0  0  0  0  0  0  0  0  0  0
   58.1160   33.1630   46.6530 H   0  0  0  0  0  0  0  0  0  0  0  0
   57.7642   33.4025   43.8349 H   0  0  0  0  0  0  0  0  0  0  0  0
   59.4741   32.9998   44.2918 H   0  0  0  0  0  0  0  0  0  0  0  0
   59.9646   30.9710   45.6476 H   0  0  0  0  0  0  0  0  0  0  0  0
   59.3383   28.5869   45.9832 H   0  0  0  0  0  0  0  0  0  0  0  0
   58.2527   25.9483   45.1772 H   0  0  0  0  0  0  0  0  0  0  0  0
   58.4270   26.9331   46.6900 H   0  0  0  0  0  0  0  0  0  0  0  0
   55.7999   23.3344   45.5909 H   0  0  0  0  0  0  0  0  0  0  0  0
   54.5159   23.4840   46.8585 H   0  0  0  0  0  0  0  0  0  0  0  0
   52.9460   23.7493   45.2811 H   0  0  0  0  0  0  0  0  0  0  0  0
   53.8386   25.1710   44.6145 H   0  0  0  0  0  0  0  0  0  0  0  0
   56.8998   24.3778   44.4208 H   0  0  0  0  0  0  0  0  0  0  0  0
   57.5576   23.7662   42.8652 H   0  0  0  0  0  0  0  0  0  0  0  0
   56.2577   25.0060   42.8652 H   0  0  0  0  0  0  0  0  0  0  0  0
   54.7610   28.4050   44.5150 H   0  0  0  0  0  0  0  0  0  0  0  0
   55.9912   31.8131   44.1585 H   0  0  0  0  0  0  0  0  0  0  0  0
   58.9355   32.8036   50.2120 H   0  0  0  0  0  0  0  0  0  0  0  0
   57.2916   32.6976   49.4957 H   0  0  0  0  0  0  0  0  0  0  0  0
   58.3659   31.2579   49.4957 H   0  0  0  0  0  0  0  0  0  0  0  0
  1  2  1  0
  2  3  1  0
  3  4  2  0
  4  5  1  0
  5  6  2  0
  6  7  1  0
  7  8  1  0
  8  9  1  0
  9 10  1  0
 10 11  1  0
 11 12  2  0
 12 13  1  0
 13 14  2  0
 14 15  1  0
 15 16  1  0
 16 17  1  0
 17 18  2  0
 17 19  1  0
 19 20  1  0
 20 21  1  0
 21 22  1  0
 22 23  1  0
 23 24  1  0
 23 25  2  0
 14 26  1  0
 26 27  1  0
 26 28  2  0
  7 29  2  0
 29 30  1  0
 30 31  1  0
 29  3  1  0
 28 11  1  0
  1 32  1  0
  1 33  1  0
  1 34  1  0
  4 35  1  0
  5 36  1  0
  6 37  1  0
  8 38  1  0
  8 39  1  0
  9 40  1  0
 10 41  1  0
 10 42  1  0
 12 43  1  0
 13 44  1  0
 16 45  1  0
 16 46  1  0
 20 47  1  0
 20 48  1  0
 21 49  1  0
 21 50  1  0
 24 51  1  0
 24 52  1  0
 24 53  1  0
 27 54  1  0
 28 55  1  0
 31 56  1  0
 31 57  1  0
 31 58  1  0
M  CHG  2  19  -1  22  -1
M  END
>  <UniqueID>  (62) 
60

>  <SMILES>  (62) 
COc1cccc(CNCc2ccc(OCC(=O)[N-]CC[N-]C(C)=O)c(O)c2)c1OC

>  <Energy>  (62) 
48.48164440576277

>  <Genealogy>  (62) 
COc1cccc(CNCc2ccc(OCC(=O)[N-]CC[N-]C(C)=O)c(O)c2)c1OC (protonated)
COc1cccc(CNCc2ccc(OCC(=O)[N-]CC[N-]C(C)=O)c(O)c2)c1OC (3D coordinates assigned)
COc1cccc(CNCc2ccc(OCC(=O)[N-]CC[N-]C(C)=O)c(O)c2)c1OC (optimized conformer: 48.48164440576277 kcal/mol)

>  <smiles>  (62) 
COc1cccc(CNCc2ccc(OCC(=O)NCCNC(C)=O)c(O)c2)c1OC

>  <score_type>  (62) 
oracle

>  <origin>  (62) 
adg

>  <m_score__min__energy>  (62) 
-11.640000000000001

>  <m_primary>  (62) 
energy

$$$$
62:0
     RDKit          3D

 32 33  0  0  0  0  0  0  0  0999 V2000
   55.0820   26.4290   45.9970 N   0  0  0  0  0  0  0  0  0  0  0  0
   56.1590   25.6040   46.4360 C   0  0  0  0  0  0  0  0  0  0  0  0
   55.9050   24.4970   46.9830 O   0  0  0  0  0  0  0  0  0  0  0  0
   57.5570   26.0440   46.2460 C   0  0  0  0  0  0  0  0  0  0  0  0
   58.6380   25.1470   46.1840 C   0  0  0  0  0  0  0  0  0  0  0  0
   59.8730   25.7620   46.0070 C   0  0  0  0  0  0  0  0  0  0  0  0
   59.6320   27.4240   45.9260 S   0  0  0  0  0  0  0  0  0  0  0  0
   57.9590   27.3740   46.1180 C   0  0  0  0  0  0  0  0  0  0  0  0
   57.0750   28.5040   46.1330 N   0  0  0  0  0  0  0  0  0  0  0  0
   56.5640   29.2010   44.9900 C   0  0  0  0  0  0  0  0  0  0  0  0
   55.3230   29.2710   44.7730 O   0  0  0  0  0  0  0  0  0  0  0  0
   57.5160   29.8590   44.0370 C   0  0  0  0  0  0  0  0  0  0  0  0
   56.9260   31.1370   43.4420 C   0  0  0  0  0  0  0  0  0  0  0  0
   57.8970   32.1810   43.4630 O   0  0  0  0  0  0  0  0  0  0  0  0
   58.2700   32.8910   44.6130 C   0  0  0  0  0  0  0  0  0  0  0  0
   59.0840   34.0410   44.5600 C   0  0  0  0  0  0  0  0  0  0  0  0
   59.4270   34.7160   45.7380 C   0  0  0  0  0  0  0  0  0  0  0  0
   58.9630   34.2520   46.9730 C   0  0  0  0  0  0  0  0  0  0  0  0
   59.3060   34.9230   48.1400 O   0  0  0  0  0  0  0  0  0  0  0  0
   58.1540   33.1130   47.0300 C   0  0  0  0  0  0  0  0  0  0  0  0
   57.8110   32.4360   45.8560 C   0  0  0  0  0  0  0  0  0  0  0  0
   55.1650   27.4700   46.0010 H   0  0  0  0  0  0  0  0  0  0  0  0
   58.5178   24.0568   46.2679 H   0  0  0  0  0  0  0  0  0  0  0  0
   60.8428   25.2482   45.9326 H   0  0  0  0  0  0  0  0  0  0  0  0
   58.4421   30.1104   44.5747 H   0  0  0  0  0  0  0  0  0  0  0  0
   57.7167   29.1579   43.2135 H   0  0  0  0  0  0  0  0  0  0  0  0
   56.6189   30.9466   42.4030 H   0  0  0  0  0  0  0  0  0  0  0  0
   56.0548   31.4435   44.0396 H   0  0  0  0  0  0  0  0  0  0  0  0
   59.4507   34.4091   43.5904 H   0  0  0  0  0  0  0  0  0  0  0  0
   60.0625   35.6127   45.6919 H   0  0  0  0  0  0  0  0  0  0  0  0
   57.7866   32.7488   48.0008 H   0  0  0  0  0  0  0  0  0  0  0  0
   57.1760   31.5394   45.9086 H   0  0  0  0  0  0  0  0  0  0  0  0
  1  2  1  0
  2  3  2  0
  2  4  1  0
  4  5  1  0
  5  6  2  0
  6  7  1  0
  7  8  1  0
  8  9  1  0
  9 10  1  0
 10 11  2  0
 10 12  1  0
 12 13  1  0
 13 14  1  0
 14 15  1  0
 15 16  2  0
 16 17  1  0
 17 18  2  0
 18 19  1  0
 18 20  1  0
 20 21  2  0
  8  4  2  0
 21 15  1  0
  1 22  1  0
  5 23  1  0
  6 24  1  0
 12 25  1  0
 12 26  1  0
 13 27  1  0
 13 28  1  0
 16 29  1  0
 17 30  1  0
 20 31  1  0
 21 32  1  0
M  CHG  3   1  -1   9  -1  19  -1
M  END
>  <UniqueID>  (63) 
61

>  <SMILES>  (63) 
[NH-]C(=O)c1ccsc1[N-]C(=O)CCOc1ccc([O-])cc1

>  <Energy>  (63) 
56.19263351658986

>  <Genealogy>  (63) 
[NH-]C(=O)c1ccsc1[N-]C(=O)CCOc1ccc([O-])cc1 (protonated)
[NH-]C(=O)c1ccsc1[N-]C(=O)CCOc1ccc([O-])cc1 (3D coordinates assigned)
[NH-]C(=O)c1ccsc1[N-]C(=O)CCOc1ccc([O-])cc1 (optimized conformer: 56.19263351658986 kcal/mol)

>  <smiles>  (63) 
NC(=O)c1ccsc1NC(=O)CCOc1ccc(O)cc1

>  <score_type>  (63) 
oracle

>  <origin>  (63) 
adg

>  <m_score__min__energy>  (63) 
-13.26

>  <m_primary>  (63) 
energy

$$$$
63:0
     RDKit          3D

 35 36  0  0  0  0  0  0  0  0999 V2000
   55.1560   29.3760   44.8600 N   0  0  0  0  0  0  0  0  0  0  0  0
   56.6050   29.7230   43.9850 S   0  0  0  0  0  0  0  0  0  0  0  0
   57.2160   28.4400   43.4920 O   0  0  0  0  0  0  0  0  0  0  0  0
   56.2780   30.5880   42.8010 O   0  0  0  0  0  0  0  0  0  0  0  0
   57.7420   30.5570   45.0390 C   0  0  0  0  0  0  0  0  0  0  0  0
   57.6000   31.9280   45.2910 C   0  0  0  0  0  0  0  0  0  0  0  0
   58.5030   32.5860   46.1300 C   0  0  0  0  0  0  0  0  0  0  0  0
   59.5470   31.8770   46.7290 C   0  0  0  0  0  0  0  0  0  0  0  0
   59.6910   30.5000   46.5000 C   0  0  0  0  0  0  0  0  0  0  0  0
   60.8380   29.7410   47.1160 C   0  0  0  0  0  0  0  0  0  0  0  0
   60.3660   28.8580   48.2770 C   0  0  0  0  0  0  0  0  0  0  0  0
   59.1360   28.1440   47.9340 N   0  0  0  0  0  0  0  0  0  0  0  0
   59.1030   27.0890   46.9570 C   0  0  0  0  0  0  0  0  0  0  0  0
   60.1640   26.7600   46.3590 O   0  0  0  0  0  0  0  0  0  0  0  0
   57.8380   26.3930   46.6190 C   0  0  0  0  0  0  0  0  0  0  0  0
   57.7920   24.9900   46.5870 C   0  0  0  0  0  0  0  0  0  0  0  0
   56.6040   24.3310   46.2690 C   0  0  0  0  0  0  0  0  0  0  0  0
   55.4590   25.0810   45.9920 C   0  0  0  0  0  0  0  0  0  0  0  0
   54.3800   24.5030   45.7020 O   0  0  0  0  0  0  0  0  0  0  0  0
   55.5110   26.4370   46.0390 N   0  0  0  0  0  0  0  0  0  0  0  0
   56.6560   27.1040   46.3420 C   0  0  0  0  0  0  0  0  0  0  0  0
   58.7870   29.8450   45.6470 C   0  0  0  0  0  0  0  0  0  0  0  0
   55.3900   28.6290   45.5510 H   0  0  0  0  0  0  0  0  0  0  0  0
   56.7749   32.4881   44.8268 H   0  0  0  0  0  0  0  0  0  0  0  0
   58.3916   33.6639   46.3191 H   0  0  0  0  0  0  0  0  0  0  0  0
   60.2596   32.4006   47.3833 H   0  0  0  0  0  0  0  0  0  0  0  0
   61.2997   29.1043   46.3470 H   0  0  0  0  0  0  0  0  0  0  0  0
   61.5637   30.4689   47.5079 H   0  0  0  0  0  0  0  0  0  0  0  0
   61.1520   28.1255   48.5129 H   0  0  0  0  0  0  0  0  0  0  0  0
   60.1633   29.5032   49.1446 H   0  0  0  0  0  0  0  0  0  0  0  0
   58.2540   28.4590   48.3950 H   0  0  0  0  0  0  0  0  0  0  0  0
   58.6971   24.4075   46.8138 H   0  0  0  0  0  0  0  0  0  0  0  0
   56.5696   23.2320   46.2368 H   0  0  0  0  0  0  0  0  0  0  0  0
   56.6584   28.2036   46.3707 H   0  0  0  0  0  0  0  0  0  0  0  0
   58.8991   28.7678   45.4547 H   0  0  0  0  0  0  0  0  0  0  0  0
  1  2  1  0
  2  3  2  0
  2  4  2  0
  2  5  1  0
  5  6  2  0
  6  7  1  0
  7  8  2  0
  8  9  1  0
  9 10  1  0
 10 11  1  0
 11 12  1  0
 12 13  1  0
 13 14  2  0
 13 15  1  0
 15 16  1  0
 16 17  2  0
 17 18  1  0
 18 19  2  0
 18 20  1  0
 20 21  1  0
  9 22  2  0
 22  5  1  0
 21 15  2  0
  1 23  1  0
  6 24  1  0
  7 25  1  0
  8 26  1  0
 10 27  1  0
 10 28  1  0
 11 29  1  0
 11 30  1  0
 12 31  1  0
 16 32  1  0
 17 33  1  0
 21 34  1  0
 22 35  1  0
M  CHG  2   1  -1  20  -1
M  END
>  <UniqueID>  (64) 
62

>  <SMILES>  (64) 
[NH-]S(=O)(=O)c1cccc(CCNC(=O)c2ccc(=O)[n-]c2)c1

>  <Energy>  (64) 
33.59975618569341

>  <Genealogy>  (64) 
[NH-]S(=O)(=O)c1cccc(CCNC(=O)c2ccc(=O)[n-]c2)c1 (protonated)
[NH-]S(=O)(=O)c1cccc(CCNC(=O)c2ccc(=O)[n-]c2)c1 (3D coordinates assigned)
[NH-]S(=O)(=O)c1cccc(CCNC(=O)c2ccc(=O)[n-]c2)c1 (optimized conformer: 33.59975618569341 kcal/mol)

>  <smiles>  (64) 
NS(=O)(=O)c1cccc(CCNC(=O)c2ccc(=O)[nH]c2)c1

>  <score_type>  (64) 
oracle

>  <origin>  (64) 
adg

>  <m_score__min__energy>  (64) 
-12.24

>  <m_primary>  (64) 
energy

$$$$
64:0
     RDKit          3D

 39 41  0  0  0  0  0  0  0  0999 V2000
   55.1700   30.4210   44.6350 O   0  0  0  0  0  0  0  0  0  0  0  0
   56.0730   29.5430   44.5840 C   0  0  0  0  0  0  0  0  0  0  0  0
   57.3570   29.8320   43.8730 C   0  0  0  0  0  0  0  0  0  0  0  0
   57.8800   31.1480   44.2890 N   0  0  0  0  0  0  0  0  0  0  0  0
   58.0510   32.1450   43.3580 C   0  0  0  0  0  0  0  0  0  0  0  0
   57.7830   31.9440   42.1430 O   0  0  0  0  0  0  0  0  0  0  0  0
   58.5070   33.3660   43.7340 N   0  0  0  0  0  0  0  0  0  0  0  0
   58.7970   33.6480   45.0260 C   0  0  0  0  0  0  0  0  0  0  0  0
   59.2670   34.9190   45.3780 C   0  0  0  0  0  0  0  0  0  0  0  0
   59.5610   35.2120   46.7120 C   0  0  0  0  0  0  0  0  0  0  0  0
   59.3850   34.2380   47.6990 C   0  0  0  0  0  0  0  0  0  0  0  0
   58.9160   32.9660   47.3560 C   0  0  0  0  0  0  0  0  0  0  0  0
   58.6190   32.6620   46.0140 C   0  0  0  0  0  0  0  0  0  0  0  0
   58.1460   31.3990   45.6140 C   0  0  0  0  0  0  0  0  0  0  0  0
   57.9620   30.4990   46.4810 O   0  0  0  0  0  0  0  0  0  0  0  0
   55.8980   28.2870   45.2440 N   0  0  0  0  0  0  0  0  0  0  0  0
   57.0100   27.5190   45.7850 C   0  0  0  0  0  0  0  0  0  0  0  0
   56.4740   26.2960   46.5270 C   0  0  0  0  0  0  0  0  0  0  0  0
   56.3180   25.1310   45.5870 C   0  0  0  0  0  0  0  0  0  0  0  0
   57.4060   24.6960   44.8110 C   0  0  0  0  0  0  0  0  0  0  0  0
   57.2700   23.5940   43.9610 C   0  0  0  0  0  0  0  0  0  0  0  0
   56.0500   22.9140   43.8860 C   0  0  0  0  0  0  0  0  0  0  0  0
   55.9150   21.8190   43.0400 O   0  0  0  0  0  0  0  0  0  0  0  0
   54.9670   23.3340   44.6640 C   0  0  0  0  0  0  0  0  0  0  0  0
   55.1000   24.4350   45.5160 C   0  0  0  0  0  0  0  0  0  0  0  0
   58.0933   29.0529   44.1199 H   0  0  0  0  0  0  0  0  0  0  0  0
   57.1743   29.8428   42.7883 H   0  0  0  0  0  0  0  0  0  0  0  0
   59.4049   35.6877   44.6034 H   0  0  0  0  0  0  0  0  0  0  0  0
   59.9316   36.2108   46.9860 H   0  0  0  0  0  0  0  0  0  0  0  0
   59.6161   34.4727   48.7485 H   0  0  0  0  0  0  0  0  0  0  0  0
   58.7790   32.2022   48.1357 H   0  0  0  0  0  0  0  0  0  0  0  0
   57.6632   27.1914   44.9628 H   0  0  0  0  0  0  0  0  0  0  0  0
   57.5835   28.1474   46.4822 H   0  0  0  0  0  0  0  0  0  0  0  0
   57.1768   26.0225   47.3278 H   0  0  0  0  0  0  0  0  0  0  0  0
   55.4897   26.5427   46.9516 H   0  0  0  0  0  0  0  0  0  0  0  0
   58.3687   25.2247   44.8725 H   0  0  0  0  0  0  0  0  0  0  0  0
   58.1229   23.2617   43.3510 H   0  0  0  0  0  0  0  0  0  0  0  0
   54.0085   22.7975   44.6059 H   0  0  0  0  0  0  0  0  0  0  0  0
   54.2479   24.7570   46.1326 H   0  0  0  0  0  0  0  0  0  0  0  0
  1  2  2  0
  2  3  1  0
  3  4  1  0
  4  5  1  0
  5  6  2  0
  5  7  1  0
  7  8  1  0
  8  9  2  0
  9 10  1  0
 10 11  2  0
 11 12  1  0
 12 13  2  0
 13 14  1  0
 14 15  2  0
  2 16  1  0
 16 17  1  0
 17 18  1  0
 18 19  1  0
 19 20  2  0
 20 21  1  0
 21 22  2  0
 22 23  1  0
 22 24  1  0
 24 25  2  0
 14  4  1  0
 25 19  1  0
 13  8  1  0
  3 26  1  0
  3 27  1  0
  9 28  1  0
 10 29  1  0
 11 30  1  0
 12 31  1  0
 17 32  1  0
 17 33  1  0
 18 34  1  0
 18 35  1  0
 20 36  1  0
 21 37  1  0
 24 38  1  0
 25 39  1  0
M  CHG  3   7  -1  16  -1  23  -1
M  END
>  <UniqueID>  (65) 
63

>  <SMILES>  (65) 
O=C(Cn1c(=O)[n-]c2ccccc2c1=O)[N-]CCc1ccc([O-])cc1

>  <Energy>  (65) 
43.27840125111814

>  <Genealogy>  (65) 
O=C(Cn1c(=O)[n-]c2ccccc2c1=O)[N-]CCc1ccc([O-])cc1 (protonated)
O=C(Cn1c(=O)[n-]c2ccccc2c1=O)[N-]CCc1ccc([O-])cc1 (3D coordinates assigned)
O=C(Cn1c(=O)[n-]c2ccccc2c1=O)[N-]CCc1ccc([O-])cc1 (optimized conformer: 43.27840125111814 kcal/mol)

>  <smiles>  (65) 
O=C(Cn1c(=O)[nH]c2ccccc2c1=O)NCCc1ccc(O)cc1

>  <score_type>  (65) 
oracle

>  <origin>  (65) 
adg

>  <m_score__min__energy>  (65) 
-14.210000000000001

>  <m_primary>  (65) 
energy

$$$$
65:0
     RDKit          3D

 66 70  0  0  0  0  0  0  0  0999 V2000
   55.0770   27.4620   46.7270 H   0  0  0  0  0  0  0  0  0  0  0  0
   54.8660   26.6710   46.1320 O   0  0  0  0  0  0  0  0  0  0  0  0
   55.7620   25.6160   45.9750 C   0  0  0  0  0  0  0  0  0  0  0  0
   57.1000   25.7640   46.3620 C   0  0  0  0  0  0  0  0  0  0  0  0
   57.5560   27.0040   46.9080 N   0  0  0  0  0  0  0  0  0  0  0  0
   57.4610   28.1410   46.2840 C   0  0  0  0  0  0  0  0  0  0  0  0
   58.3200   29.1510   46.6120 N   0  0  0  0  0  0  0  0  0  0  0  0
   58.2440   30.3220   45.9260 C   0  0  0  0  0  0  0  0  0  0  0  0
   57.3430   30.5080   44.9230 C   0  0  0  0  0  0  0  0  0  0  0  0
   56.4580   29.4970   44.5820 C   0  0  0  0  0  0  0  0  0  0  0  0
   55.7178   29.6344   43.7800 H   0  0  0  0  0  0  0  0  0  0  0  0
   56.5380   28.3230   45.2780 N   0  0  0  0  0  0  0  0  0  0  0  0
   57.5060   31.7850   44.4420 C   0  0  0  0  0  0  0  0  0  0  0  0
   56.9508   32.2696   43.6254 H   0  0  0  0  0  0  0  0  0  0  0  0
   58.5310   32.3330   45.2170 C   0  0  0  0  0  0  0  0  0  0  0  0
   58.9830   33.7340   45.0750 C   0  0  0  0  0  0  0  0  0  0  0  0
   59.2650   34.1690   43.9280 O   0  0  0  0  0  0  0  0  0  0  0  0
   59.1230   34.6000   46.2200 N   0  0  0  0  0  0  0  0  0  0  0  0
   59.8020   35.8860   46.0570 C   0  0  0  0  0  0  0  0  0  0  0  0
   60.0261   36.3104   47.0468 H   0  0  0  0  0  0  0  0  0  0  0  0
   60.7394   35.7378   45.5008 H   0  0  0  0  0  0  0  0  0  0  0  0
   59.1509   36.5765   45.5008 H   0  0  0  0  0  0  0  0  0  0  0  0
   58.5030   34.2480   47.5020 C   0  0  0  0  0  0  0  0  0  0  0  0
   59.1362   34.6075   48.3265 H   0  0  0  0  0  0  0  0  0  0  0  0
   57.5105   34.7173   47.5704 H   0  0  0  0  0  0  0  0  0  0  0  0
   58.3974   33.1552   47.5704 H   0  0  0  0  0  0  0  0  0  0  0  0
   58.9960   31.4240   46.1330 N   0  0  0  0  0  0  0  0  0  0  0  0
   60.0410   31.5460   47.1720 C   0  0  0  0  0  0  0  0  0  0  0  0
   60.5308   32.5006   46.9293 H   0  0  0  0  0  0  0  0  0  0  0  0
   59.4920   31.6110   48.5970 C   0  0  0  0  0  0  0  0  0  0  0  0
   59.3233   32.6548   48.9003 H   0  0  0  0  0  0  0  0  0  0  0  0
   58.5239   31.0977   48.6936 H   0  0  0  0  0  0  0  0  0  0  0  0
   60.5700   30.9710   49.4560 C   0  0  0  0  0  0  0  0  0  0  0  0
   61.3012   31.7264   49.7796 H   0  0  0  0  0  0  0  0  0  0  0  0
   60.1486   30.5189   50.3659 H   0  0  0  0  0  0  0  0  0  0  0  0
   61.2400   29.9290   48.5690 C   0  0  0  0  0  0  0  0  0  0  0  0
   62.3112   29.8588   48.8090 H   0  0  0  0  0  0  0  0  0  0  0  0
   60.7977   28.9338   48.7235 H   0  0  0  0  0  0  0  0  0  0  0  0
   61.0530   30.3960   47.1280 C   0  0  0  0  0  0  0  0  0  0  0  0
   62.0101   30.7474   46.7150 H   0  0  0  0  0  0  0  0  0  0  0  0
   60.6965   29.5763   46.4869 H   0  0  0  0  0  0  0  0  0  0  0  0
   57.9740   24.7330   46.1950 N   0  0  0  0  0  0  0  0  0  0  0  0
   57.5870   23.5420   45.6620 C   0  0  0  0  0  0  0  0  0  0  0  0
   58.3223   22.7343   45.5319 H   0  0  0  0  0  0  0  0  0  0  0  0
   56.2520   23.3420   45.2780 C   0  0  0  0  0  0  0  0  0  0  0  0
   55.8290   22.0950   44.6160 C   0  0  0  0  0  0  0  0  0  0  0  0
   56.1340   21.9200   43.4080 O   0  0  0  0  0  0  0  0  0  0  0  0
   55.0780   21.0770   45.2870 N   0  0  0  0  0  0  0  0  0  0  0  0
   55.4030   20.4510   46.5680 C   0  0  0  0  0  0  0  0  0  0  0  0
   54.9781   19.4372   46.6103 H   0  0  0  0  0  0  0  0  0  0  0  0
   56.9340   20.3100   46.7220 C   0  0  0  0  0  0  0  0  0  0  0  0
   57.2572   19.3684   46.2540 H   0  0  0  0  0  0  0  0  0  0  0  0
   57.4155   21.1695   46.2326 H   0  0  0  0  0  0  0  0  0  0  0  0
   57.3410   20.3000   48.2030 C   0  0  0  0  0  0  0  0  0  0  0  0
   56.8662   19.4362   48.6912 H   0  0  0  0  0  0  0  0  0  0  0  0
   58.4387   20.2415   48.2423 H   0  0  0  0  0  0  0  0  0  0  0  0
   56.9380   21.5260   48.9200 N   0  0  0  0  0  0  0  0  0  0  0  0
   57.7640   22.1750   48.9520 H   0  0  0  0  0  0  0  0  0  0  0  0
   55.8080   22.2530   48.3090 C   0  0  0  0  0  0  0  0  0  0  0  0
   55.3169   22.8650   49.0799 H   0  0  0  0  0  0  0  0  0  0  0  0
   56.1999   22.8869   47.4999 H   0  0  0  0  0  0  0  0  0  0  0  0
   54.7830   21.2870   47.7120 C   0  0  0  0  0  0  0  0  0  0  0  0
   54.4279   20.6078   48.5011 H   0  0  0  0  0  0  0  0  0  0  0  0
   53.9484   21.8744   47.3016 H   0  0  0  0  0  0  0  0  0  0  0  0
   55.3390   24.3960   45.4330 C   0  0  0  0  0  0  0  0  0  0  0  0
   54.2902   24.2640   45.1286 H   0  0  0  0  0  0  0  0  0  0  0  0
  1  2  1  0
  2  3  1  0
  3  4  2  0
  4  5  1  0
  5  6  2  0
  6  7  1  0
  7  8  2  0
  8  9  1  0
  9 10  2  0
 10 11  1  0
 10 12  1  0
  9 13  1  0
 13 14  1  0
 13 15  2  0
 15 16  1  0
 16 17  2  0
 16 18  1  0
 18 19  1  0
 19 20  1  0
 19 21  1  0
 19 22  1  0
 18 23  1  0
 23 24  1  0
 23 25  1  0
 23 26  1  0
 15 27  1  0
 27 28  1  0
 28 29  1  0
 28 30  1  0
 30 31  1  0
 30 32  1  0
 30 33  1  0
 33 34  1  0
 33 35  1  0
 33 36  1  0
 36 37  1  0
 36 38  1  0
 36 39  1  0
 39 40  1  0
 39 41  1  0
  4 42  1  0
 42 43  2  0
 43 44  1  0
 43 45  1  0
 45 46  1  0
 46 47  2  0
 46 48  1  0
 48 49  1  0
 49 50  1  0
 49 51  1  0
 51 52  1  0
 51 53  1  0
 51 54  1  0
 54 55  1  0
 54 56  1  0
 54 57  1  0
 57 58  1  0
 57 59  1  0
 59 60  1  0
 59 61  1  0
 59 62  1  0
 62 63  1  0
 62 64  1  0
 45 65  2  0
 65 66  1  0
 65  3  1  0
 12  6  1  0
 39 28  1  0
 62 49  1  0
 27  8  1  0
M  CHG  2  12  -1  48  -1
M  END
>  <UniqueID>  (66) 
64

>  <SMILES>  (66) 
CN(C)C(=O)c1cc2c[n-]/c(=N\c3ncc(C(=O)[N-]C4CCNCC4)cc3O)nc2n1C1CCCC1

>  <Energy>  (66) 
130.83732311010223

>  <Genealogy>  (66) 
CN(C)C(=O)c1cc2c[n-]c(=Nc3ncc(C(=O)[N-]C4CCNCC4)cc3O)nc2n1C1CCCC1 (protonated)
CN(C)C(=O)c1cc2c[n-]/c(=N\c3ncc(C(=O)[N-]C4CCNCC4)cc3O)nc2n1C1CCCC1 (cis-trans isomerization)
CN(C)C(=O)c1cc2c[n-]/c(=N\c3ncc(C(=O)[N-]C4CCNCC4)cc3O)nc2n1C1CCCC1 (3D coordinates assigned)
CN(C)C(=O)c1cc2c[n-]/c(=N\c3ncc(C(=O)[N-]C4CCNCC4)cc3O)nc2n1C1CCCC1 (nonaromatic ring conformer: 130.83732311010223 kcal/mol)

>  <smiles>  (66) 
CN(C)C(=O)c1cc2c[nH]c(=Nc3ncc(C(=O)NC4CCNCC4)cc3O)nc2n1C1CCCC1

>  <score_type>  (66) 
oracle

>  <origin>  (66) 
adg

>  <m_score__min__energy>  (66) 
-13.93

>  <m_primary>  (66) 
energy

$$$$
66:0
     RDKit          3D

 70 74  0  0  0  0  0  0  0  0999 V2000
   64.3450   33.5450   50.7340 C   0  0  0  0  0  0  0  0  0  0  0  0
   63.0890   34.1520   50.4630 O   0  0  0  0  0  0  0  0  0  0  0  0
   62.2690   33.8340   49.3690 C   0  0  0  0  0  0  0  0  0  0  0  0
   62.7140   33.9440   48.0400 C   0  0  0  0  0  0  0  0  0  0  0  0
   61.8630   33.6230   46.9790 C   0  0  0  0  0  0  0  0  0  0  0  0
   60.5420   33.2050   47.2230 C   0  0  0  0  0  0  0  0  0  0  0  0
   59.6240   32.8630   46.1060 C   0  0  0  0  0  0  0  0  0  0  0  0
   58.9480   33.7750   45.5560 O   0  0  0  0  0  0  0  0  0  0  0  0
   59.5350   31.5180   45.6080 N   0  0  0  0  0  0  0  0  0  0  0  0
   58.3830   30.9920   44.9190 C   0  0  0  0  0  0  0  0  0  0  0  0
   57.9910   31.5630   43.7000 C   0  0  0  0  0  0  0  0  0  0  0  0
   56.8900   31.0590   43.0040 C   0  0  0  0  0  0  0  0  0  0  0  0
   56.1850   29.9620   43.5070 C   0  0  0  0  0  0  0  0  0  0  0  0
   56.5930   29.3490   44.7030 C   0  0  0  0  0  0  0  0  0  0  0  0
   55.8910   28.2280   45.2540 N   0  0  0  0  0  0  0  0  0  0  0  0
   56.4690   27.1270   45.9690 C   0  0  0  0  0  0  0  0  0  0  0  0
   55.7550   26.1200   46.2050 O   0  0  0  0  0  0  0  0  0  0  0  0
   57.8480   27.1780   46.5000 C   0  0  0  0  0  0  0  0  0  0  0  0
   58.9010   26.5410   45.8230 C   0  0  0  0  0  0  0  0  0  0  0  0
   60.1970   26.5710   46.3430 C   0  0  0  0  0  0  0  0  0  0  0  0
   60.4550   27.2330   47.5450 C   0  0  0  0  0  0  0  0  0  0  0  0
   59.4180   27.8800   48.2360 C   0  0  0  0  0  0  0  0  0  0  0  0
   59.6830   28.5210   49.4980 N   0  0  0  0  0  0  0  0  0  0  0  0
   58.8330   29.6440   49.9070 C   0  0  0  0  0  0  0  0  0  0  0  0
   58.9540   29.8950   51.4160 C   0  0  0  0  0  0  0  0  0  0  0  0
   60.3070   29.9310   51.8250 O   0  0  0  0  0  0  0  0  0  0  0  0
   60.8920   28.6610   51.6240 C   0  0  0  0  0  0  0  0  0  0  0  0
   60.9950   28.3590   50.1300 C   0  0  0  0  0  0  0  0  0  0  0  0
   58.1180   27.8640   47.6970 C   0  0  0  0  0  0  0  0  0  0  0  0
   57.6800   29.8760   45.4080 C   0  0  0  0  0  0  0  0  0  0  0  0
   60.1030   33.0930   48.5530 C   0  0  0  0  0  0  0  0  0  0  0  0
   60.9610   33.3940   49.6180 C   0  0  0  0  0  0  0  0  0  0  0  0
   60.4830   33.2720   50.9610 N   0  0  0  0  0  0  0  0  0  0  0  0
   61.3200   32.6300   51.9720 C   0  0  0  0  0  0  0  0  0  0  0  0
   60.6740   32.7470   53.3580 C   0  0  0  0  0  0  0  0  0  0  0  0
   59.2710   32.3080   53.3370 N   0  0  0  0  0  0  0  0  0  0  0  0
   58.4430   32.9170   52.2680 C   0  0  0  0  0  0  0  0  0  0  0  0
   59.2050   33.8720   51.3410 C   0  0  0  0  0  0  0  0  0  0  0  0
   64.4910   33.4744   51.8220 H   0  0  0  0  0  0  0  0  0  0  0  0
   64.3673   32.5367   50.2949 H   0  0  0  0  0  0  0  0  0  0  0  0
   65.1489   34.1540   50.2949 H   0  0  0  0  0  0  0  0  0  0  0  0
   63.7392   34.2851   47.8338 H   0  0  0  0  0  0  0  0  0  0  0  0
   62.2291   33.6978   45.9444 H   0  0  0  0  0  0  0  0  0  0  0  0
   60.4020   30.9320   45.6260 H   0  0  0  0  0  0  0  0  0  0  0  0
   58.5544   32.4137   43.2890 H   0  0  0  0  0  0  0  0  0  0  0  0
   56.5772   31.5261   42.0585 H   0  0  0  0  0  0  0  0  0  0  0  0
   55.3084   29.5778   42.9648 H   0  0  0  0  0  0  0  0  0  0  0  0
   58.7037   26.0151   44.8772 H   0  0  0  0  0  0  0  0  0  0  0  0
   61.0161   26.0720   45.8044 H   0  0  0  0  0  0  0  0  0  0  0  0
   61.4765   27.2477   47.9529 H   0  0  0  0  0  0  0  0  0  0  0  0
   59.1444   30.5488   49.3644 H   0  0  0  0  0  0  0  0  0  0  0  0
   57.7866   29.3991   49.6722 H   0  0  0  0  0  0  0  0  0  0  0  0
   58.4810   30.8582   51.6579 H   0  0  0  0  0  0  0  0  0  0  0  0
   58.4535   29.0711   51.9458 H   0  0  0  0  0  0  0  0  0  0  0  0
   61.8987   28.6502   52.0673 H   0  0  0  0  0  0  0  0  0  0  0  0
   60.2631   27.8959   52.1027 H   0  0  0  0  0  0  0  0  0  0  0  0
   61.7117   29.0526   49.6660 H   0  0  0  0  0  0  0  0  0  0  0  0
   61.3385   27.3231   49.9922 H   0  0  0  0  0  0  0  0  0  0  0  0
   57.3058   28.3931   48.2171 H   0  0  0  0  0  0  0  0  0  0  0  0
   57.9889   29.4121   46.3564 H   0  0  0  0  0  0  0  0  0  0  0  0
   59.0736   32.7651   48.7600 H   0  0  0  0  0  0  0  0  0  0  0  0
   61.4425   31.5667   51.7184 H   0  0  0  0  0  0  0  0  0  0  0  0
   62.2994   33.1304   51.9928 H   0  0  0  0  0  0  0  0  0  0  0  0
   61.2341   32.1202   54.0675 H   0  0  0  0  0  0  0  0  0  0  0  0
   60.7007   33.8035   53.6633 H   0  0  0  0  0  0  0  0  0  0  0  0
   59.2540   31.2640   53.2250 H   0  0  0  0  0  0  0  0  0  0  0  0
   58.0220   32.1062   51.6553 H   0  0  0  0  0  0  0  0  0  0  0  0
   57.6726   33.5185   52.7727 H   0  0  0  0  0  0  0  0  0  0  0  0
   58.6063   34.0606   50.4377 H   0  0  0  0  0  0  0  0  0  0  0  0
   59.3890   34.8210   51.8660 H   0  0  0  0  0  0  0  0  0  0  0  0
  1  2  1  0
  2  3  1  0
  3  4  2  0
  4  5  1  0
  5  6  2  0
  6  7  1  0
  7  8  2  0
  7  9  1  0
  9 10  1  0
 10 11  2  0
 11 12  1  0
 12 13  2  0
 13 14  1  0
 14 15  1  0
 15 16  1  0
 16 17  2  0
 16 18  1  0
 18 19  2  0
 19 20  1  0
 20 21  2  0
 21 22  1  0
 22 23  1  0
 23 24  1  0
 24 25  1  0
 25 26  1  0
 26 27  1  0
 27 28  1  0
 22 29  2  0
 14 30  2  0
  6 31  1  0
 31 32  2  0
 32 33  1  0
 33 34  1  0
 34 35  1  0
 35 36  1  0
 36 37  1  0
 37 38  1  0
 32  3  1  0
 38 33  1  0
 30 10  1  0
 29 18  1  0
 28 23  1  0
  1 39  1  0
  1 40  1  0
  1 41  1  0
  4 42  1  0
  5 43  1  0
  9 44  1  0
 11 45  1  0
 12 46  1  0
 13 47  1  0
 19 48  1  0
 20 49  1  0
 21 50  1  0
 24 51  1  0
 24 52  1  0
 25 53  1  0
 25 54  1  0
 27 55  1  0
 27 56  1  0
 28 57  1  0
 28 58  1  0
 29 59  1  0
 30 60  1  0
 31 61  1  0
 34 62  1  0
 34 63  1  0
 35 64  1  0
 35 65  1  0
 36 66  1  0
 37 67  1  0
 37 68  1  0
 38 69  1  0
 38 70  1  0
M  CHG  1  15  -1
M  END
>  <UniqueID>  (67) 
65

>  <SMILES>  (67) 
COc1ccc(C(=O)Nc2cccc([N-]C(=O)c3cccc(N4CCOCC4)c3)c2)cc1N1CCNCC1

>  <Energy>  (67) 
102.58013503662688

>  <Genealogy>  (67) 
COc1ccc(C(=O)Nc2cccc([N-]C(=O)c3cccc(N4CCOCC4)c3)c2)cc1N1CCNCC1 (protonated)
COc1ccc(C(=O)Nc2cccc([N-]C(=O)c3cccc(N4CCOCC4)c3)c2)cc1N1CCNCC1 (3D coordinates assigned)
COc1ccc(C(=O)Nc2cccc([N-]C(=O)c3cccc(N4CCOCC4)c3)c2)cc1N1CCNCC1 (nonaromatic ring conformer: 102.58013503662688 kcal/mol)

>  <smiles>  (67) 
COc1ccc(C(=O)Nc2cccc(NC(=O)c3cccc(N4CCOCC4)c3)c2)cc1N1CCNCC1

>  <score_type>  (67) 
oracle

>  <origin>  (67) 
adg

>  <m_score__min__energy>  (67) 
-11.4

>  <m_primary>  (67) 
energy

$$$$
67:0
     RDKit          3D

 37 39  0  0  0  0  0  0  0  0999 V2000
   58.1140   28.3850   43.9440 O   0  0  0  0  0  0  0  0  0  0  0  0
   57.3880   28.6230   44.9470 C   0  0  0  0  0  0  0  0  0  0  0  0
   57.6180   27.8570   46.2180 C   0  0  0  0  0  0  0  0  0  0  0  0
   57.2950   26.4030   46.0150 C   0  0  0  0  0  0  0  0  0  0  0  0
   58.3030   25.5310   45.7430 N   0  0  0  0  0  0  0  0  0  0  0  0
   58.0620   24.2130   45.5210 C   0  0  0  0  0  0  0  0  0  0  0  0
   59.1130   23.3300   45.2470 C   0  0  0  0  0  0  0  0  0  0  0  0
   58.8420   21.9760   45.0200 C   0  0  0  0  0  0  0  0  0  0  0  0
   57.5250   21.5020   45.0680 C   0  0  0  0  0  0  0  0  0  0  0  0
   56.4720   22.3820   45.3410 C   0  0  0  0  0  0  0  0  0  0  0  0
   56.7360   23.7360   45.5670 C   0  0  0  0  0  0  0  0  0  0  0  0
   55.7260   24.6070   45.8290 N   0  0  0  0  0  0  0  0  0  0  0  0
   55.9700   25.9260   46.0500 C   0  0  0  0  0  0  0  0  0  0  0  0
   55.0070   26.7040   46.2820 O   0  0  0  0  0  0  0  0  0  0  0  0
   56.3560   29.6710   44.8610 C   0  0  0  0  0  0  0  0  0  0  0  0
   55.1370   29.3560   44.8030 O   0  0  0  0  0  0  0  0  0  0  0  0
   56.7460   31.0480   44.8500 N   0  0  0  0  0  0  0  0  0  0  0  0
   58.0570   31.5120   44.4120 C   0  0  0  0  0  0  0  0  0  0  0  0
   58.4930   32.6970   45.2290 C   0  0  0  0  0  0  0  0  0  0  0  0
   58.4850   32.6390   46.6340 C   0  0  0  0  0  0  0  0  0  0  0  0
   58.8720   33.7520   47.3860 C   0  0  0  0  0  0  0  0  0  0  0  0
   59.2640   34.9300   46.7440 C   0  0  0  0  0  0  0  0  0  0  0  0
   59.2700   34.9960   45.3480 C   0  0  0  0  0  0  0  0  0  0  0  0
   58.8840   33.8850   44.5920 C   0  0  0  0  0  0  0  0  0  0  0  0
   58.6721   27.9566   46.5163 H   0  0  0  0  0  0  0  0  0  0  0  0
   56.9646   28.2629   47.0043 H   0  0  0  0  0  0  0  0  0  0  0  0
   60.1485   23.6992   45.2102 H   0  0  0  0  0  0  0  0  0  0  0  0
   59.6667   21.2812   44.8030 H   0  0  0  0  0  0  0  0  0  0  0  0
   57.3181   20.4363   44.8908 H   0  0  0  0  0  0  0  0  0  0  0  0
   55.4379   22.0089   45.3777 H   0  0  0  0  0  0  0  0  0  0  0  0
   58.7883   30.6993   44.5331 H   0  0  0  0  0  0  0  0  0  0  0  0
   57.9954   31.8103   43.3550 H   0  0  0  0  0  0  0  0  0  0  0  0
   58.1732   31.7149   47.1429 H   0  0  0  0  0  0  0  0  0  0  0  0
   58.8680   33.7006   48.4848 H   0  0  0  0  0  0  0  0  0  0  0  0
   59.5677   35.8050   47.3374 H   0  0  0  0  0  0  0  0  0  0  0  0
   59.5788   35.9233   44.8433 H   0  0  0  0  0  0  0  0  0  0  0  0
   58.8868   33.9422   43.4935 H   0  0  0  0  0  0  0  0  0  0  0  0
  1  2  2  0
  2  3  1  0
  3  4  1  0
  4  5  2  0
  5  6  1  0
  6  7  2  0
  7  8  1  0
  8  9  2  0
  9 10  1  0
 10 11  2  0
 11 12  1  0
 12 13  1  0
 13 14  2  0
  2 15  1  0
 15 16  2  0
 15 17  1  0
 17 18  1  0
 18 19  1  0
 19 20  2  0
 20 21  1  0
 21 22  2  0
 22 23  1  0
 23 24  2  0
 13  4  1  0
 24 19  1  0
 11  6  1  0
  3 25  1  0
  3 26  1  0
  7 27  1  0
  8 28  1  0
  9 29  1  0
 10 30  1  0
 18 31  1  0
 18 32  1  0
 20 33  1  0
 21 34  1  0
 22 35  1  0
 23 36  1  0
 24 37  1  0
M  CHG  2  12  -1  17  -1
M  END
>  <UniqueID>  (68) 
66

>  <SMILES>  (68) 
O=C(Cc1nc2ccccc2[n-]c1=O)C(=O)[N-]Cc1ccccc1

>  <Energy>  (68) 
39.06682330359568

>  <Genealogy>  (68) 
O=C(Cc1nc2ccccc2[n-]c1=O)C(=O)[N-]Cc1ccccc1 (protonated)
O=C(Cc1nc2ccccc2[n-]c1=O)C(=O)[N-]Cc1ccccc1 (3D coordinates assigned)
O=C(Cc1nc2ccccc2[n-]c1=O)C(=O)[N-]Cc1ccccc1 (optimized conformer: 39.06682330359568 kcal/mol)

>  <smiles>  (68) 
O=C(Cc1nc2ccccc2[nH]c1=O)C(=O)NCc1ccccc1

>  <score_type>  (68) 
oracle

>  <origin>  (68) 
adg

>  <m_score__min__energy>  (68) 
-11.5

>  <m_primary>  (68) 
energy

$$$$
68:0
     RDKit          3D

 37 38  0  0  0  0  0  0  0  0999 V2000
   60.4100   34.2390   47.5920 C   0  0  0  0  0  0  0  0  0  0  0  0
   58.8980   34.4130   47.4990 C   0  0  0  0  0  0  0  0  0  0  0  0
   58.3120   33.3800   46.6470 N   0  0  0  0  0  0  0  0  0  0  0  0
   58.3590   33.4480   45.2130 C   0  0  0  0  0  0  0  0  0  0  0  0
   58.9790   34.3890   44.6470 O   0  0  0  0  0  0  0  0  0  0  0  0
   57.6970   32.4330   44.3760 C   0  0  0  0  0  0  0  0  0  0  0  0
   57.8220   32.2700   43.0070 C   0  0  0  0  0  0  0  0  0  0  0  0
   57.0240   31.1940   42.6810 C   0  0  0  0  0  0  0  0  0  0  0  0
   56.4680   30.7680   43.8700 C   0  0  0  0  0  0  0  0  0  0  0  0
   55.5350   29.6090   44.0310 C   0  0  0  0  0  0  0  0  0  0  0  0
   55.8170   28.9070   45.2400 O   0  0  0  0  0  0  0  0  0  0  0  0
   57.0440   28.3010   45.5610 C   0  0  0  0  0  0  0  0  0  0  0  0
   58.2660   29.0040   45.5200 C   0  0  0  0  0  0  0  0  0  0  0  0
   59.4630   28.3590   45.8440 C   0  0  0  0  0  0  0  0  0  0  0  0
   59.4560   27.0140   46.2150 C   0  0  0  0  0  0  0  0  0  0  0  0
   58.2520   26.3080   46.2630 C   0  0  0  0  0  0  0  0  0  0  0  0
   57.0490   26.9460   45.9360 C   0  0  0  0  0  0  0  0  0  0  0  0
   55.5150   26.0120   45.9950 S   0  0  0  0  0  0  0  0  0  0  0  0
   56.2180   24.5720   45.1320 C   0  0  0  0  0  0  0  0  0  0  0  0
   56.8830   31.5220   44.8600 O   0  0  0  0  0  0  0  0  0  0  0  0
   60.7107   34.2044   48.6495 H   0  0  0  0  0  0  0  0  0  0  0  0
   60.7023   33.3013   47.0968 H   0  0  0  0  0  0  0  0  0  0  0  0
   60.9077   35.0858   47.0968 H   0  0  0  0  0  0  0  0  0  0  0  0
   58.4632   34.3398   48.5068 H   0  0  0  0  0  0  0  0  0  0  0  0
   58.6810   35.3985   47.0612 H   0  0  0  0  0  0  0  0  0  0  0  0
   57.9050   32.5400   47.1150 H   0  0  0  0  0  0  0  0  0  0  0  0
   58.4326   32.8747   42.3203 H   0  0  0  0  0  0  0  0  0  0  0  0
   56.8638   30.7644   41.6811 H   0  0  0  0  0  0  0  0  0  0  0  0
   54.4994   29.9788   44.0599 H   0  0  0  0  0  0  0  0  0  0  0  0
   55.6683   28.9233   43.1813 H   0  0  0  0  0  0  0  0  0  0  0  0
   58.2771   30.0654   45.2315 H   0  0  0  0  0  0  0  0  0  0  0  0
   60.4126   28.9130   45.8064 H   0  0  0  0  0  0  0  0  0  0  0  0
   60.3996   26.5093   46.4699 H   0  0  0  0  0  0  0  0  0  0  0  0
   58.2486   25.2484   46.5583 H   0  0  0  0  0  0  0  0  0  0  0  0
   56.5754   23.8400   45.8712 H   0  0  0  0  0  0  0  0  0  0  0  0
   55.4447   24.1088   44.5016 H   0  0  0  0  0  0  0  0  0  0  0  0
   57.0589   24.8969   44.5016 H   0  0  0  0  0  0  0  0  0  0  0  0
  1  2  1  0
  2  3  1  0
  3  4  1  0
  4  5  2  0
  4  6  1  0
  6  7  2  0
  7  8  1  0
  8  9  2  0
  9 10  1  0
 10 11  1  0
 11 12  1  0
 12 13  2  0
 13 14  1  0
 14 15  2  0
 15 16  1  0
 16 17  2  0
 17 18  1  0
 18 19  1  0
  9 20  1  0
 20  6  1  0
 17 12  1  0
  1 21  1  0
  1 22  1  0
  1 23  1  0
  2 24  1  0
  2 25  1  0
  3 26  1  0
  7 27  1  0
  8 28  1  0
 10 29  1  0
 10 30  1  0
 13 31  1  0
 14 32  1  0
 15 33  1  0
 16 34  1  0
 19 35  1  0
 19 36  1  0
 19 37  1  0
M  END
>  <UniqueID>  (69) 
67

>  <SMILES>  (69) 
CCNC(=O)c1ccc(COc2ccccc2SC)o1

>  <Energy>  (69) 
52.114881146958005

>  <Genealogy>  (69) 
CCNC(=O)c1ccc(COc2ccccc2SC)o1 (3D coordinates assigned)
CCNC(=O)c1ccc(COc2ccccc2SC)o1 (optimized conformer: 52.114881146958005 kcal/mol)

>  <smiles>  (69) 
CCNC(=O)c1ccc(COc2ccccc2SC)o1

>  <score_type>  (69) 
oracle

>  <origin>  (69) 
adg

>  <m_score__min__energy>  (69) 
-7.1399999999999997

>  <m_primary>  (69) 
energy

$$$$
69:0
     RDKit          3D

 51 53  0  0  0  0  0  0  0  0999 V2000
   57.6420   31.7170   42.8300 O   0  0  0  0  0  0  0  0  0  0  0  0
   57.2890   31.9040   44.0250 C   0  0  0  0  0  0  0  0  0  0  0  0
   57.3190   33.2900   44.6020 C   0  0  0  0  0  0  0  0  0  0  0  0
   57.0520   33.2850   46.0510 N   0  0  0  0  0  0  0  0  0  0  0  0
   58.2660   33.1120   46.8100 C   0  0  0  0  0  0  0  0  0  0  0  0
   58.9840   34.4230   47.5090 S   0  0  0  0  0  0  0  0  0  0  0  0
   58.8290   31.7950   46.9600 N   0  0  0  0  0  0  0  0  0  0  0  0
   60.1720   31.5330   47.4810 C   0  0  0  0  0  0  0  0  0  0  0  0
   60.2180   30.1990   48.1620 C   0  0  0  0  0  0  0  0  0  0  0  0
   59.5170   29.0620   47.7790 C   0  0  0  0  0  0  0  0  0  0  0  0
   59.7230   27.9750   48.6370 C   0  0  0  0  0  0  0  0  0  0  0  0
   60.5700   28.2560   49.7000 C   0  0  0  0  0  0  0  0  0  0  0  0
   61.0710   29.8570   49.5690 S   0  0  0  0  0  0  0  0  0  0  0  0
   56.9580   30.7980   44.8720 N   0  0  0  0  0  0  0  0  0  0  0  0
   57.6600   29.5500   44.9450 C   0  0  0  0  0  0  0  0  0  0  0  0
   58.9960   29.4250   44.5290 C   0  0  0  0  0  0  0  0  0  0  0  0
   59.6290   28.1800   44.5760 C   0  0  0  0  0  0  0  0  0  0  0  0
   58.9380   27.0570   45.0360 C   0  0  0  0  0  0  0  0  0  0  0  0
   57.6050   27.1710   45.4530 C   0  0  0  0  0  0  0  0  0  0  0  0
   56.7360   25.7600   46.0680 S   0  0  0  0  0  0  0  0  0  0  0  0
   55.2580   26.0260   46.0040 O   0  0  0  0  0  0  0  0  0  0  0  0
   57.1060   25.5340   47.5080 O   0  0  0  0  0  0  0  0  0  0  0  0
   57.1100   24.3230   45.1440 N   0  0  0  0  0  0  0  0  0  0  0  0
   56.5310   23.1080   45.7620 C   0  0  0  0  0  0  0  0  0  0  0  0
   55.3060   22.5920   44.9850 C   0  0  0  0  0  0  0  0  0  0  0  0
   55.5990   22.2760   43.6330 O   0  0  0  0  0  0  0  0  0  0  0  0
   56.5660   23.1350   43.0370 C   0  0  0  0  0  0  0  0  0  0  0  0
   56.7130   24.4990   43.7330 C   0  0  0  0  0  0  0  0  0  0  0  0
   56.9680   28.4170   45.3910 C   0  0  0  0  0  0  0  0  0  0  0  0
   58.3122   33.7283   44.4244 H   0  0  0  0  0  0  0  0  0  0  0  0
   56.5324   33.8819   44.1113 H   0  0  0  0  0  0  0  0  0  0  0  0
   56.5600   34.1670   46.3280 H   0  0  0  0  0  0  0  0  0  0  0  0
   56.4140   32.4840   46.2720 H   0  0  0  0  0  0  0  0  0  0  0  0
   58.2720   30.9810   46.6130 H   0  0  0  0  0  0  0  0  0  0  0  0
   60.8912   31.5399   46.6487 H   0  0  0  0  0  0  0  0  0  0  0  0
   60.4301   32.3147   48.2106 H   0  0  0  0  0  0  0  0  0  0  0  0
   58.8669   29.0202   46.8926 H   0  0  0  0  0  0  0  0  0  0  0  0
   59.2572   26.9905   48.4831 H   0  0  0  0  0  0  0  0  0  0  0  0
   60.8636   27.5522   50.4928 H   0  0  0  0  0  0  0  0  0  0  0  0
   59.5439   30.3072   44.1662 H   0  0  0  0  0  0  0  0  0  0  0  0
   60.6751   28.0843   44.2496 H   0  0  0  0  0  0  0  0  0  0  0  0
   59.4417   26.0797   45.0711 H   0  0  0  0  0  0  0  0  0  0  0  0
   57.2976   22.3194   45.7803 H   0  0  0  0  0  0  0  0  0  0  0  0
   56.2026   23.3683   46.7791 H   0  0  0  0  0  0  0  0  0  0  0  0
   54.9312   21.6858   45.4833 H   0  0  0  0  0  0  0  0  0  0  0  0
   54.5570   23.3976   44.9794 H   0  0  0  0  0  0  0  0  0  0  0  0
   57.5414   22.6273   43.0638 H   0  0  0  0  0  0  0  0  0  0  0  0
   56.2192   23.3386   42.0132 H   0  0  0  0  0  0  0  0  0  0  0  0
   57.4813   25.0894   43.2124 H   0  0  0  0  0  0  0  0  0  0  0  0
   55.7448   25.0200   43.6997 H   0  0  0  0  0  0  0  0  0  0  0  0
   55.9147   28.5064   45.6954 H   0  0  0  0  0  0  0  0  0  0  0  0
  1  2  2  0
  2  3  1  0
  3  4  1  0
  4  5  1  0
  5  6  2  0
  5  7  1  0
  7  8  1  0
  8  9  1  0
  9 10  2  0
 10 11  1  0
 11 12  2  0
 12 13  1  0
  2 14  1  0
 14 15  1  0
 15 16  2  0
 16 17  1  0
 17 18  2  0
 18 19  1  0
 19 20  1  0
 20 21  2  0
 20 22  2  0
 20 23  1  0
 23 24  1  0
 24 25  1  0
 25 26  1  0
 26 27  1  0
 27 28  1  0
 19 29  2  0
 13  9  1  0
 29 15  1  0
 28 23  1  0
  3 30  1  0
  3 31  1  0
  4 32  1  0
  4 33  1  0
  7 34  1  0
  8 35  1  0
  8 36  1  0
 10 37  1  0
 11 38  1  0
 12 39  1  0
 16 40  1  0
 17 41  1  0
 18 42  1  0
 24 43  1  0
 24 44  1  0
 25 45  1  0
 25 46  1  0
 27 47  1  0
 27 48  1  0
 28 49  1  0
 28 50  1  0
 29 51  1  0
M  CHG  2   4   1  14  -1
M  END
>  <UniqueID>  (70) 
68

>  <SMILES>  (70) 
O=C(C[NH2+]C(=S)NCc1cccs1)[N-]c1cccc(S(=O)(=O)N2CCOCC2)c1

>  <Energy>  (70) 
85.66109472309287

>  <Genealogy>  (70) 
O=C(C[NH2+]C(=S)NCc1cccs1)[N-]c1cccc(S(=O)(=O)N2CCOCC2)c1 (protonated)
O=C(C[NH2+]C(=S)NCc1cccs1)[N-]c1cccc(S(=O)(=O)N2CCOCC2)c1 (3D coordinates assigned)
O=C(C[NH2+]C(=S)NCc1cccs1)[N-]c1cccc(S(=O)(=O)N2CCOCC2)c1 (nonaromatic ring conformer: 85.66109472309287 kcal/mol)

>  <smiles>  (70) 
O=C(CNC(=S)NCc1cccs1)Nc1cccc(S(=O)(=O)N2CCOCC2)c1

>  <score_type>  (70) 
oracle

>  <origin>  (70) 
adg

>  <m_score__min__energy>  (70) 
-9.3399999999999999

>  <m_primary>  (70) 
energy

$$$$
70:0
     RDKit          3D

 32 33  0  0  0  0  0  0  0  0999 V2000
   63.7680   31.9030   47.1530 N   0  0  0  0  0  0  0  0  0  0  0  0
   63.0350   33.4670   47.0810 S   0  0  0  0  0  0  0  0  0  0  0  0
   63.6850   34.2740   45.9910 O   0  0  0  0  0  0  0  0  0  0  0  0
   63.2370   34.1780   48.3900 O   0  0  0  0  0  0  0  0  0  0  0  0
   61.3140   33.2960   46.7580 C   0  0  0  0  0  0  0  0  0  0  0  0
   60.6280   34.2780   46.0300 C   0  0  0  0  0  0  0  0  0  0  0  0
   59.2700   34.1190   45.7400 C   0  0  0  0  0  0  0  0  0  0  0  0
   58.5850   32.9680   46.1640 C   0  0  0  0  0  0  0  0  0  0  0  0
   57.1380   32.7670   45.7950 C   0  0  0  0  0  0  0  0  0  0  0  0
   57.0070   31.8250   44.6830 N   0  0  0  0  0  0  0  0  0  0  0  0
   56.7240   30.4230   44.7990 C   0  0  0  0  0  0  0  0  0  0  0  0
   55.5720   30.0080   44.5070 O   0  0  0  0  0  0  0  0  0  0  0  0
   57.7560   29.4470   45.1960 C   0  0  0  0  0  0  0  0  0  0  0  0
   59.0810   29.5810   44.7630 C   0  0  0  0  0  0  0  0  0  0  0  0
   60.0310   28.6220   45.1210 C   0  0  0  0  0  0  0  0  0  0  0  0
   59.6460   27.5410   45.9170 C   0  0  0  0  0  0  0  0  0  0  0  0
   60.8140   26.3170   46.3700 Cl  0  0  0  0  0  0  0  0  0  0  0  0
   58.3600   27.4360   46.3460 N   0  0  0  0  0  0  0  0  0  0  0  0
   57.4180   28.3590   46.0130 C   0  0  0  0  0  0  0  0  0  0  0  0
   59.2720   31.9950   46.9080 C   0  0  0  0  0  0  0  0  0  0  0  0
   60.6300   32.1550   47.1960 C   0  0  0  0  0  0  0  0  0  0  0  0
   64.4540   31.8520   46.3670 H   0  0  0  0  0  0  0  0  0  0  0  0
   64.3210   31.8660   48.0380 H   0  0  0  0  0  0  0  0  0  0  0  0
   61.1603   35.1769   45.6857 H   0  0  0  0  0  0  0  0  0  0  0  0
   58.7353   34.8984   45.1774 H   0  0  0  0  0  0  0  0  0  0  0  0
   56.5958   32.3721   46.6669 H   0  0  0  0  0  0  0  0  0  0  0  0
   56.7171   33.7352   45.4859 H   0  0  0  0  0  0  0  0  0  0  0  0
   59.3731   30.4405   44.1417 H   0  0  0  0  0  0  0  0  0  0  0  0
   61.0723   28.7171   44.7794 H   0  0  0  0  0  0  0  0  0  0  0  0
   56.3886   28.2515   46.3856 H   0  0  0  0  0  0  0  0  0  0  0  0
   58.7383   31.1022   47.2659 H   0  0  0  0  0  0  0  0  0  0  0  0
   61.1636   31.3821   47.7687 H   0  0  0  0  0  0  0  0  0  0  0  0
  1  2  1  0
  2  3  2  0
  2  4  2  0
  2  5  1  0
  5  6  2  0
  6  7  1  0
  7  8  2  0
  8  9  1  0
  9 10  1  0
 10 11  1  0
 11 12  2  0
 11 13  1  0
 13 14  2  0
 14 15  1  0
 15 16  2  0
 16 17  1  0
 16 18  1  0
 18 19  2  0
  8 20  1  0
 20 21  2  0
 21  5  1  0
 19 13  1  0
  1 22  1  0
  1 23  1  0
  6 24  1  0
  7 25  1  0
  9 26  1  0
  9 27  1  0
 14 28  1  0
 15 29  1  0
 19 30  1  0
 20 31  1  0
 21 32  1  0
M  CHG  1  10  -1
M  END
>  <UniqueID>  (71) 
69

>  <SMILES>  (71) 
NS(=O)(=O)c1ccc(C[N-]C(=O)c2ccc(Cl)nc2)cc1

>  <Energy>  (71) 
33.70258025442486

>  <Genealogy>  (71) 
NS(=O)(=O)c1ccc(C[N-]C(=O)c2ccc(Cl)nc2)cc1 (protonated)
NS(=O)(=O)c1ccc(C[N-]C(=O)c2ccc(Cl)nc2)cc1 (3D coordinates assigned)
NS(=O)(=O)c1ccc(C[N-]C(=O)c2ccc(Cl)nc2)cc1 (optimized conformer: 33.70258025442486 kcal/mol)

>  <smiles>  (71) 
NS(=O)(=O)c1ccc(CNC(=O)c2ccc(Cl)nc2)cc1

>  <score_type>  (71) 
oracle

>  <origin>  (71) 
adg

>  <m_score__min__energy>  (71) 
-9.4299999999999997

>  <m_primary>  (71) 
energy

$$$$
71:0
     RDKit          3D

 65 68  0  0  0  0  0  0  0  0999 V2000
   63.7000   31.6000   49.0590 C   0  0  0  0  0  0  0  0  0  0  0  0
   62.3610   31.5530   48.5750 O   0  0  0  0  0  0  0  0  0  0  0  0
   61.4610   32.6300   48.6160 C   0  0  0  0  0  0  0  0  0  0  0  0
   61.1760   33.4070   47.4760 C   0  0  0  0  0  0  0  0  0  0  0  0
   60.2370   34.4460   47.5420 C   0  0  0  0  0  0  0  0  0  0  0  0
   59.8410   35.1690   46.3190 C   0  0  0  0  0  0  0  0  0  0  0  0
   59.6390   36.4100   46.3650 O   0  0  0  0  0  0  0  0  0  0  0  0
   59.6860   34.4830   45.0680 N   0  0  0  0  0  0  0  0  0  0  0  0
   58.8740   33.3140   44.8720 C   0  0  0  0  0  0  0  0  0  0  0  0
   58.7260   32.3480   45.8840 C   0  0  0  0  0  0  0  0  0  0  0  0
   57.9700   31.1970   45.6540 C   0  0  0  0  0  0  0  0  0  0  0  0
   57.3710   30.9830   44.4090 C   0  0  0  0  0  0  0  0  0  0  0  0
   56.4840   29.4900   44.1210 S   0  0  0  0  0  0  0  0  0  0  0  0
   56.2970   29.3150   42.6420 O   0  0  0  0  0  0  0  0  0  0  0  0
   55.1300   29.5360   44.7710 O   0  0  0  0  0  0  0  0  0  0  0  0
   57.3710   28.1390   44.7430 N   0  0  0  0  0  0  0  0  0  0  0  0
   56.8150   27.2040   45.4480 C   0  0  0  0  0  0  0  0  0  0  0  0
   57.4850   26.1860   46.0820 C   0  0  0  0  0  0  0  0  0  0  0  0
   56.4590   25.4550   46.6480 C   0  0  0  0  0  0  0  0  0  0  0  0
   56.6030   24.1690   47.3910 C   0  0  0  0  0  0  0  0  0  0  0  0
   55.2710   26.0240   46.3590 N   0  0  0  0  0  0  0  0  0  0  0  0
   55.5240   27.0790   45.6380 O   0  0  0  0  0  0  0  0  0  0  0  0
   57.5220   31.9410   43.3950 C   0  0  0  0  0  0  0  0  0  0  0  0
   58.2760   33.0960   43.6240 C   0  0  0  0  0  0  0  0  0  0  0  0
   59.6320   34.7520   48.7670 C   0  0  0  0  0  0  0  0  0  0  0  0
   59.9380   34.0120   49.9090 C   0  0  0  0  0  0  0  0  0  0  0  0
   60.8270   32.9220   49.8340 C   0  0  0  0  0  0  0  0  0  0  0  0
   61.0850   32.0820   50.9260 O   0  0  0  0  0  0  0  0  0  0  0  0
   60.1210   31.6140   51.8670 C   0  0  0  0  0  0  0  0  0  0  0  0
   59.7120   30.1720   51.5020 C   0  0  0  0  0  0  0  0  0  0  0  0
   60.1040   29.7510   50.1320 N   0  0  0  0  0  0  0  0  0  0  0  0
   58.9970   29.8770   49.1530 C   0  0  0  0  0  0  0  0  0  0  0  0
   59.4900   29.6620   47.7040 C   0  0  0  0  0  0  0  0  0  0  0  0
   60.6610   28.6690   47.6180 C   0  0  0  0  0  0  0  0  0  0  0  0
   60.6240   27.6710   48.7760 C   0  0  0  0  0  0  0  0  0  0  0  0
   60.7260   28.3950   50.1330 C   0  0  0  0  0  0  0  0  0  0  0  0
   63.6925   31.5997   50.1590 H   0  0  0  0  0  0  0  0  0  0  0  0
   64.2522   30.7207   48.6959 H   0  0  0  0  0  0  0  0  0  0  0  0
   64.1892   32.5159   48.6959 H   0  0  0  0  0  0  0  0  0  0  0  0
   61.6934   33.1972   46.5282 H   0  0  0  0  0  0  0  0  0  0  0  0
   59.2081   32.5002   46.8609 H   0  0  0  0  0  0  0  0  0  0  0  0
   57.8450   30.4549   46.4563 H   0  0  0  0  0  0  0  0  0  0  0  0
   58.5681   25.9996   46.1275 H   0  0  0  0  0  0  0  0  0  0  0  0
   56.5809   24.3662   48.4730 H   0  0  0  0  0  0  0  0  0  0  0  0
   55.7746   23.4965   47.1239 H   0  0  0  0  0  0  0  0  0  0  0  0
   57.5597   23.6963   47.1239 H   0  0  0  0  0  0  0  0  0  0  0  0
   57.0454   31.7828   42.4163 H   0  0  0  0  0  0  0  0  0  0  0  0
   58.4002   33.8369   42.8205 H   0  0  0  0  0  0  0  0  0  0  0  0
   58.9113   35.5807   48.8291 H   0  0  0  0  0  0  0  0  0  0  0  0
   59.4826   34.2811   50.8735 H   0  0  0  0  0  0  0  0  0  0  0  0
   60.5563   31.6282   52.8771 H   0  0  0  0  0  0  0  0  0  0  0  0
   59.2353   32.2659   51.8430 H   0  0  0  0  0  0  0  0  0  0  0  0
   60.1858   29.4875   52.2210 H   0  0  0  0  0  0  0  0  0  0  0  0
   58.6131   30.1386   51.5383 H   0  0  0  0  0  0  0  0  0  0  0  0
   60.8500   30.4260   49.8300 H   0  0  0  0  0  0  0  0  0  0  0  0
   58.2291   29.1241   49.3840 H   0  0  0  0  0  0  0  0  0  0  0  0
   58.5858   30.8944   49.2285 H   0  0  0  0  0  0  0  0  0  0  0  0
   58.6550   29.2747   47.1017 H   0  0  0  0  0  0  0  0  0  0  0  0
   59.8475   30.6315   47.3268 H   0  0  0  0  0  0  0  0  0  0  0  0
   60.5962   28.1189   46.6677 H   0  0  0  0  0  0  0  0  0  0  0  0
   61.6029   29.2344   47.6746 H   0  0  0  0  0  0  0  0  0  0  0  0
   59.6783   27.1104   48.7376 H   0  0  0  0  0  0  0  0  0  0  0  0
   61.4810   26.9884   48.6778 H   0  0  0  0  0  0  0  0  0  0  0  0
   60.2218   27.7812   50.8939 H   0  0  0  0  0  0  0  0  0  0  0  0
   61.7963   28.5300   50.3482 H   0  0  0  0  0  0  0  0  0  0  0  0
  1  2  1  0
  2  3  1  0
  3  4  2  0
  4  5  1  0
  5  6  1  0
  6  7  2  0
  6  8  1  0
  8  9  1  0
  9 10  2  0
 10 11  1  0
 11 12  2  0
 12 13  1  0
 13 14  2  0
 13 15  2  0
 13 16  1  0
 16 17  2  3
 17 18  1  0
 18 19  2  0
 19 20  1  0
 19 21  1  0
 21 22  1  0
 12 23  1  0
 23 24  2  0
  5 25  2  0
 25 26  1  0
 26 27  2  0
 27 28  1  0
 28 29  1  0
 29 30  1  0
 30 31  1  0
 31 32  1  0
 32 33  1  0
 33 34  1  0
 34 35  1  0
 35 36  1  0
 27  3  1  0
 36 31  1  0
 24  9  1  0
 22 17  1  0
  1 37  1  0
  1 38  1  0
  1 39  1  0
  4 40  1  0
 10 41  1  0
 11 42  1  0
 18 43  1  0
 20 44  1  0
 20 45  1  0
 20 46  1  0
 23 47  1  0
 24 48  1  0
 25 49  1  0
 26 50  1  0
 29 51  1  0
 29 52  1  0
 30 53  1  0
 30 54  1  0
 31 55  1  0
 32 56  1  0
 32 57  1  0
 33 58  1  0
 33 59  1  0
 34 60  1  0
 34 61  1  0
 35 62  1  0
 35 63  1  0
 36 64  1  0
 36 65  1  0
M  CHG  3   8  -1  21  -1  31   1
M  END
>  <UniqueID>  (72) 
70

>  <SMILES>  (72) 
COc1cc(C(=O)[N-]c2ccc(S(=O)(=O)N=c3cc(C)[n-]o3)cc2)ccc1OCC[NH+]1CCCCC1

>  <Energy>  (72) 
114.24105159572849

>  <Genealogy>  (72) 
COc1cc(C(=O)[N-]c2ccc(S(=O)(=O)N=c3cc(C)[n-]o3)cc2)ccc1OCC[NH+]1CCCCC1 (protonated)
COc1cc(C(=O)[N-]c2ccc(S(=O)(=O)N=c3cc(C)[n-]o3)cc2)ccc1OCC[NH+]1CCCCC1 (3D coordinates assigned)
COc1cc(C(=O)[N-]c2ccc(S(=O)(=O)N=c3cc(C)[n-]o3)cc2)ccc1OCC[NH+]1CCCCC1 (nonaromatic ring conformer: 114.24105159572849 kcal/mol)

>  <smiles>  (72) 
COc1cc(C(=O)Nc2ccc(S(=O)(=O)N=c3cc(C)[nH]o3)cc2)ccc1OCCN1CCCCC1

>  <score_type>  (72) 
oracle

>  <origin>  (72) 
adg

>  <m_score__min__energy>  (72) 
-11.81

>  <m_primary>  (72) 
energy

$$$$
72:0
     RDKit          3D

 41 42  0  0  0  0  0  0  0  0999 V2000
   58.0840   32.3280   42.7060 C   0  0  0  0  0  0  0  0  0  0  0  0
   57.5450   31.1370   43.4430 C   0  0  0  0  0  0  0  0  0  0  0  0
   56.4460   30.4330   42.9350 C   0  0  0  0  0  0  0  0  0  0  0  0
   55.9130   29.3520   43.6400 C   0  0  0  0  0  0  0  0  0  0  0  0
   56.4760   28.9510   44.8650 C   0  0  0  0  0  0  0  0  0  0  0  0
   55.9150   27.8670   45.6210 N   0  0  0  0  0  0  0  0  0  0  0  0
   56.5550   26.6240   45.9320 C   0  0  0  0  0  0  0  0  0  0  0  0
   57.6790   26.6020   46.5020 O   0  0  0  0  0  0  0  0  0  0  0  0
   55.8670   25.3380   45.6040 C   0  0  0  0  0  0  0  0  0  0  0  0
   56.2640   24.0670   46.8550 S   0  0  0  0  0  0  0  0  0  0  0  0
   57.7290   23.3700   46.0090 C   0  0  0  0  0  0  0  0  0  0  0  0
   57.3350   22.2900   45.0430 C   0  0  0  0  0  0  0  0  0  0  0  0
   57.3650   20.9160   45.2240 C   0  0  0  0  0  0  0  0  0  0  0  0
   57.8540   20.1650   46.4210 C   0  0  0  0  0  0  0  0  0  0  0  0
   56.9410   20.3270   44.0890 N   0  0  0  0  0  0  0  0  0  0  0  0
   56.6360   21.2580   43.2350 O   0  0  0  0  0  0  0  0  0  0  0  0
   56.8440   22.4470   43.7550 C   0  0  0  0  0  0  0  0  0  0  0  0
   56.6070   23.7300   43.0300 C   0  0  0  0  0  0  0  0  0  0  0  0
   57.5630   29.6770   45.3950 C   0  0  0  0  0  0  0  0  0  0  0  0
   58.1400   29.3200   46.7380 C   0  0  0  0  0  0  0  0  0  0  0  0
   58.0830   30.7710   44.6850 C   0  0  0  0  0  0  0  0  0  0  0  0
   58.4257   33.0830   43.4294 H   0  0  0  0  0  0  0  0  0  0  0  0
   58.9289   32.0167   42.0742 H   0  0  0  0  0  0  0  0  0  0  0  0
   57.2924   32.7573   42.0742 H   0  0  0  0  0  0  0  0  0  0  0  0
   56.0002   30.7333   41.9753 H   0  0  0  0  0  0  0  0  0  0  0  0
   55.0461   28.8098   43.2343 H   0  0  0  0  0  0  0  0  0  0  0  0
   54.7795   25.5027   45.5869 H   0  0  0  0  0  0  0  0  0  0  0  0
   56.2118   24.9897   44.6192 H   0  0  0  0  0  0  0  0  0  0  0  0
   58.2421   24.1731   45.4597 H   0  0  0  0  0  0  0  0  0  0  0  0
   58.3946   22.9329   46.7679 H   0  0  0  0  0  0  0  0  0  0  0  0
   57.5209   20.6766   47.3361 H   0  0  0  0  0  0  0  0  0  0  0  0
   57.4478   19.1429   46.4037 H   0  0  0  0  0  0  0  0  0  0  0  0
   58.9531   20.1231   46.4037 H   0  0  0  0  0  0  0  0  0  0  0  0
   56.8700   19.3020   43.9050 H   0  0  0  0  0  0  0  0  0  0  0  0
   56.4573   24.5405   43.7584 H   0  0  0  0  0  0  0  0  0  0  0  0
   57.4777   23.9606   42.3986 H   0  0  0  0  0  0  0  0  0  0  0  0
   55.7113   23.6343   42.3986 H   0  0  0  0  0  0  0  0  0  0  0  0
   57.4934   29.7200   47.5329 H   0  0  0  0  0  0  0  0  0  0  0  0
   58.2016   28.2257   46.8314 H   0  0  0  0  0  0  0  0  0  0  0  0
   59.1468   29.7533   46.8314 H   0  0  0  0  0  0  0  0  0  0  0  0
   58.9202   31.3463   45.1070 H   0  0  0  0  0  0  0  0  0  0  0  0
  1  2  1  0
  2  3  2  0
  3  4  1  0
  4  5  2  0
  5  6  1  0
  6  7  1  0
  7  8  2  0
  7  9  1  0
  9 10  1  0
 10 11  1  0
 11 12  1  0
 12 13  1  0
 13 14  1  0
 13 15  2  0
 15 16  1  0
 16 17  1  0
 17 18  1  0
  5 19  1  0
 19 20  1  0
 19 21  2  0
 21  2  1  0
 17 12  2  0
  1 22  1  0
  1 23  1  0
  1 24  1  0
  3 25  1  0
  4 26  1  0
  9 27  1  0
  9 28  1  0
 11 29  1  0
 11 30  1  0
 14 31  1  0
 14 32  1  0
 14 33  1  0
 15 34  1  0
 18 35  1  0
 18 36  1  0
 18 37  1  0
 20 38  1  0
 20 39  1  0
 20 40  1  0
 21 41  1  0
M  CHG  2   6  -1  15   1
M  END
>  <UniqueID>  (73) 
71

>  <SMILES>  (73) 
Cc1ccc([N-]C(=O)CSCc2c(C)[nH+]oc2C)c(C)c1

>  <Energy>  (73) 
65.59544831370661

>  <Genealogy>  (73) 
Cc1ccc([N-]C(=O)CSCc2c(C)[nH+]oc2C)c(C)c1 (protonated)
Cc1ccc([N-]C(=O)CSCc2c(C)[nH+]oc2C)c(C)c1 (3D coordinates assigned)
Cc1ccc([N-]C(=O)CSCc2c(C)[nH+]oc2C)c(C)c1 (optimized conformer: 65.59544831370661 kcal/mol)

>  <smiles>  (73) 
Cc1ccc(NC(=O)CSCc2c(C)noc2C)c(C)c1

>  <score_type>  (73) 
oracle

>  <origin>  (73) 
adg

>  <m_score__min__energy>  (73) 
-9.0099999999999998

>  <m_primary>  (73) 
energy

$$$$
73:0
     RDKit          3D

 52 54  0  0  0  0  0  0  0  0999 V2000
   58.9840   22.6700   45.1220 C   0  0  0  0  0  0  0  0  0  0  0  0
   57.8340   22.8030   44.1170 C   0  0  0  0  0  0  0  0  0  0  0  0
   56.6200   21.9820   44.5600 C   0  0  0  0  0  0  0  0  0  0  0  0
   57.4420   24.2460   43.9250 C   0  0  0  0  0  0  0  0  0  0  0  0
   56.6520   24.5650   42.9940 O   0  0  0  0  0  0  0  0  0  0  0  0
   58.0250   25.2620   44.7530 N   0  0  0  0  0  0  0  0  0  0  0  0
   57.5750   26.6270   44.7580 C   0  0  0  0  0  0  0  0  0  0  0  0
   58.1400   27.5290   43.8410 C   0  0  0  0  0  0  0  0  0  0  0  0
   57.5770   28.7860   43.6440 C   0  0  0  0  0  0  0  0  0  0  0  0
   56.4290   29.1350   44.3470 C   0  0  0  0  0  0  0  0  0  0  0  0
   55.8960   28.2690   45.2450 N   0  0  0  0  0  0  0  0  0  0  0  0
   56.4360   27.0450   45.5040 C   0  0  0  0  0  0  0  0  0  0  0  0
   55.8690   26.3280   46.4370 N   0  0  0  0  0  0  0  0  0  0  0  0
   56.0370   24.9350   46.7340 C   0  0  0  0  0  0  0  0  0  0  0  0
   55.1570   24.0990   46.3950 O   0  0  0  0  0  0  0  0  0  0  0  0
   57.3070   24.4590   47.3670 C   0  0  0  0  0  0  0  0  0  0  0  0
   57.9980   25.5620   48.0250 N   0  0  0  0  0  0  0  0  0  0  0  0
   59.1860   26.1750   47.5140 C   0  0  0  0  0  0  0  0  0  0  0  0
   59.8680   25.5840   46.6330 O   0  0  0  0  0  0  0  0  0  0  0  0
   59.5960   27.4980   48.0310 C   0  0  0  0  0  0  0  0  0  0  0  0
   59.1310   28.6100   47.3990 N   0  0  0  0  0  0  0  0  0  0  0  0
   59.4420   29.8750   47.7930 C   0  0  0  0  0  0  0  0  0  0  0  0
   58.8980   31.0280   47.0300 C   0  0  0  0  0  0  0  0  0  0  0  0
   58.4730   32.2050   47.6790 C   0  0  0  0  0  0  0  0  0  0  0  0
   57.9620   33.2760   46.9380 C   0  0  0  0  0  0  0  0  0  0  0  0
   57.8650   33.1850   45.5490 C   0  0  0  0  0  0  0  0  0  0  0  0
   58.2700   32.0200   44.8960 C   0  0  0  0  0  0  0  0  0  0  0  0
   58.7790   30.9450   45.6310 C   0  0  0  0  0  0  0  0  0  0  0  0
   60.2920   30.0530   48.8970 C   0  0  0  0  0  0  0  0  0  0  0  0
   60.7950   28.9350   49.5670 C   0  0  0  0  0  0  0  0  0  0  0  0
   61.5670   29.0910   50.5520 O   0  0  0  0  0  0  0  0  0  0  0  0
   60.4490   27.6480   49.1420 C   0  0  0  0  0  0  0  0  0  0  0  0
   60.9600   26.5420   49.8160 O   0  0  0  0  0  0  0  0  0  0  0  0
   58.5837   22.7163   46.1455 H   0  0  0  0  0  0  0  0  0  0  0  0
   59.4936   21.7069   44.9708 H   0  0  0  0  0  0  0  0  0  0  0  0
   59.6999   23.4913   44.9708 H   0  0  0  0  0  0  0  0  0  0  0  0
   58.1907   22.4093   43.1538 H   0  0  0  0  0  0  0  0  0  0  0  0
   56.5778   21.9535   45.6588 H   0  0  0  0  0  0  0  0  0  0  0  0
   55.7018   22.4453   44.1697 H   0  0  0  0  0  0  0  0  0  0  0  0
   56.7081   20.9573   44.1697 H   0  0  0  0  0  0  0  0  0  0  0  0
   58.7840   24.9900   45.4210 H   0  0  0  0  0  0  0  0  0  0  0  0
   59.0363   27.2386   43.2732 H   0  0  0  0  0  0  0  0  0  0  0  0
   58.0350   29.4961   42.9398 H   0  0  0  0  0  0  0  0  0  0  0  0
   55.9537   30.1120   44.1752 H   0  0  0  0  0  0  0  0  0  0  0  0
   57.0714   23.6844   48.1117 H   0  0  0  0  0  0  0  0  0  0  0  0
   57.9609   24.0479   46.5838 H   0  0  0  0  0  0  0  0  0  0  0  0
   58.5435   32.2818   48.7740 H   0  0  0  0  0  0  0  0  0  0  0  0
   57.6358   34.1923   47.4518 H   0  0  0  0  0  0  0  0  0  0  0  0
   57.4693   34.0316   44.9687 H   0  0  0  0  0  0  0  0  0  0  0  0
   58.1887   31.9474   43.8014 H   0  0  0  0  0  0  0  0  0  0  0  0
   59.0890   30.0267   45.1108 H   0  0  0  0  0  0  0  0  0  0  0  0
   60.5598   31.0660   49.2318 H   0  0  0  0  0  0  0  0  0  0  0  0
  1  2  1  0
  2  3  1  0
  2  4  1  0
  4  5  2  0
  4  6  1  0
  6  7  1  0
  7  8  2  0
  8  9  1  0
  9 10  2  0
 10 11  1  0
 11 12  1  0
 12 13  2  3
 13 14  1  0
 14 15  2  0
 14 16  1  0
 16 17  1  0
 17 18  1  0
 18 19  2  0
 18 20  1  0
 20 21  1  0
 21 22  1  0
 22 23  1  0
 23 24  2  0
 24 25  1  0
 25 26  2  0
 26 27  1  0
 27 28  2  0
 22 29  2  0
 29 30  1  0
 30 31  2  0
 30 32  1  0
 32 33  1  0
 12  7  1  0
 32 20  2  0
 28 23  1  0
  1 34  1  0
  1 35  1  0
  1 36  1  0
  2 37  1  0
  3 38  1  0
  3 39  1  0
  3 40  1  0
  6 41  1  0
  8 42  1  0
  9 43  1  0
 10 44  1  0
 16 45  1  0
 16 46  1  0
 24 47  1  0
 25 48  1  0
 26 49  1  0
 27 50  1  0
 28 51  1  0
 29 52  1  0
M  CHG  4  11  -1  17  -1  21  -1  33  -1
M  END
>  <UniqueID>  (74) 
72

>  <SMILES>  (74) 
CC(C)C(=O)Nc1ccc[n-]c1=NC(=O)C[N-]C(=O)c1[n-]c(-c2ccccc2)cc(=O)c1[O-]

>  <Energy>  (74) 
70.57353537171095

>  <Genealogy>  (74) 
CC(C)C(=O)Nc1ccc[n-]c1=NC(=O)C[N-]C(=O)c1[n-]c(-c2ccccc2)cc(=O)c1[O-] (protonated)
CC(C)C(=O)Nc1ccc[n-]c1=NC(=O)C[N-]C(=O)c1[n-]c(-c2ccccc2)cc(=O)c1[O-] (3D coordinates assigned)
CC(C)C(=O)Nc1ccc[n-]c1=NC(=O)C[N-]C(=O)c1[n-]c(-c2ccccc2)cc(=O)c1[O-] (optimized conformer: 70.57353537171095 kcal/mol)

>  <smiles>  (74) 
CC(C)C(=O)Nc1ccc[nH]c1=NC(=O)CNC(=O)c1[nH]c(-c2ccccc2)cc(=O)c1O

>  <score_type>  (74) 
oracle

>  <origin>  (74) 
adg

>  <m_score__min__energy>  (74) 
-14.73

>  <m_primary>  (74) 
energy

$$$$
74:0
     RDKit          3D

 49 51  0  0  0  0  0  0  0  0999 V2000
   57.1050   31.2560   53.1220 O   0  0  0  0  0  0  0  0  0  0  0  0
   56.9000   30.6350   52.0430 C   0  0  0  0  0  0  0  0  0  0  0  0
   57.4530   31.1180   50.8140 N   0  0  0  0  0  0  0  0  0  0  0  0
   58.5280   30.4420   50.0980 C   0  0  0  0  0  0  0  0  0  0  0  0
   58.8820   31.2190   48.8660 C   0  0  0  0  0  0  0  0  0  0  0  0
   59.7020   30.7350   48.0410 O   0  0  0  0  0  0  0  0  0  0  0  0
   58.3050   32.5120   48.6360 N   0  0  0  0  0  0  0  0  0  0  0  0
   58.4070   33.2230   47.3920 C   0  0  0  0  0  0  0  0  0  0  0  0
   57.2750   33.2810   46.5650 C   0  0  0  0  0  0  0  0  0  0  0  0
   57.3210   33.9450   45.3370 C   0  0  0  0  0  0  0  0  0  0  0  0
   58.5040   34.5470   44.9140 C   0  0  0  0  0  0  0  0  0  0  0  0
   59.6470   34.4810   45.7130 C   0  0  0  0  0  0  0  0  0  0  0  0
   59.6200   33.8170   46.9520 C   0  0  0  0  0  0  0  0  0  0  0  0
   60.8400   33.7120   47.7140 N   0  0  0  0  0  0  0  0  0  0  0  0
   60.8430   34.1820   49.1100 C   0  0  0  0  0  0  0  0  0  0  0  0
   62.2130   34.0080   49.7800 C   0  0  0  0  0  0  0  0  0  0  0  0
   63.2510   34.1770   48.8410 O   0  0  0  0  0  0  0  0  0  0  0  0
   63.2510   33.0680   47.9690 C   0  0  0  0  0  0  0  0  0  0  0  0
   61.9970   33.0550   47.0790 C   0  0  0  0  0  0  0  0  0  0  0  0
   56.0720   29.4710   52.0490 N   0  0  0  0  0  0  0  0  0  0  0  0
   54.9730   29.2830   52.9970 C   0  0  0  0  0  0  0  0  0  0  0  0
   53.7950   30.1440   52.6050 C   0  0  0  0  0  0  0  0  0  0  0  0
   53.7200   30.7150   51.3240 C   0  0  0  0  0  0  0  0  0  0  0  0
   52.6710   31.5750   51.0000 C   0  0  0  0  0  0  0  0  0  0  0  0
   51.6840   31.8700   51.9460 C   0  0  0  0  0  0  0  0  0  0  0  0
   50.6390   32.7210   51.6200 O   0  0  0  0  0  0  0  0  0  0  0  0
   51.7470   31.2980   53.2210 C   0  0  0  0  0  0  0  0  0  0  0  0
   52.7970   30.4360   53.5490 C   0  0  0  0  0  0  0  0  0  0  0  0
   59.4111   30.3678   50.7497 H   0  0  0  0  0  0  0  0  0  0  0  0
   58.1956   29.4339   49.8096 H   0  0  0  0  0  0  0  0  0  0  0  0
   57.8760   33.0130   49.4480 H   0  0  0  0  0  0  0  0  0  0  0  0
   56.3407   32.7981   46.8874 H   0  0  0  0  0  0  0  0  0  0  0  0
   56.4228   33.9926   44.7037 H   0  0  0  0  0  0  0  0  0  0  0  0
   58.5376   35.0749   43.9495 H   0  0  0  0  0  0  0  0  0  0  0  0
   60.5789   34.9537   45.3694 H   0  0  0  0  0  0  0  0  0  0  0  0
   60.5749   35.2487   49.1247 H   0  0  0  0  0  0  0  0  0  0  0  0
   60.1149   33.5771   49.6704 H   0  0  0  0  0  0  0  0  0  0  0  0
   62.3225   34.7569   50.5782 H   0  0  0  0  0  0  0  0  0  0  0  0
   62.2760   32.9927   50.1986 H   0  0  0  0  0  0  0  0  0  0  0  0
   64.1441   33.1161   47.3286 H   0  0  0  0  0  0  0  0  0  0  0  0
   63.2550   32.1503   48.5755 H   0  0  0  0  0  0  0  0  0  0  0  0
   62.2271   33.5791   46.1396 H   0  0  0  0  0  0  0  0  0  0  0  0
   61.7260   32.0035   46.9033 H   0  0  0  0  0  0  0  0  0  0  0  0
   54.6677   28.2262   52.9949 H   0  0  0  0  0  0  0  0  0  0  0  0
   55.3118   29.5732   54.0025 H   0  0  0  0  0  0  0  0  0  0  0  0
   54.4908   30.4832   50.5742 H   0  0  0  0  0  0  0  0  0  0  0  0
   52.6197   32.0230   49.9967 H   0  0  0  0  0  0  0  0  0  0  0  0
   50.9701   31.5267   53.9654 H   0  0  0  0  0  0  0  0  0  0  0  0
   52.8420   29.9842   54.5509 H   0  0  0  0  0  0  0  0  0  0  0  0
  1  2  2  0
  2  3  1  0
  3  4  1  0
  4  5  1  0
  5  6  2  0
  5  7  1  0
  7  8  1  0
  8  9  2  0
  9 10  1  0
 10 11  2  0
 11 12  1  0
 12 13  2  0
 13 14  1  0
 14 15  1  0
 15 16  1  0
 16 17  1  0
 17 18  1  0
 18 19  1  0
  2 20  1  0
 20 21  1  0
 21 22  1  0
 22 23  2  0
 23 24  1  0
 24 25  2  0
 25 26  1  0
 25 27  1  0
 27 28  2  0
 13  8  1  0
 19 14  1  0
 28 22  1  0
  4 29  1  0
  4 30  1  0
  7 31  1  0
  9 32  1  0
 10 33  1  0
 11 34  1  0
 12 35  1  0
 15 36  1  0
 15 37  1  0
 16 38  1  0
 16 39  1  0
 18 40  1  0
 18 41  1  0
 19 42  1  0
 19 43  1  0
 21 44  1  0
 21 45  1  0
 23 46  1  0
 24 47  1  0
 27 48  1  0
 28 49  1  0
M  CHG  3   3  -1  20  -1  26  -1
M  END
>  <UniqueID>  (75) 
73

>  <SMILES>  (75) 
O=C([N-]CC(=O)Nc1ccccc1N1CCOCC1)[N-]Cc1ccc([O-])cc1

>  <Energy>  (75) 
57.974444272972605

>  <Genealogy>  (75) 
O=C([N-]CC(=O)Nc1ccccc1N1CCOCC1)[N-]Cc1ccc([O-])cc1 (protonated)
O=C([N-]CC(=O)Nc1ccccc1N1CCOCC1)[N-]Cc1ccc([O-])cc1 (3D coordinates assigned)
O=C([N-]CC(=O)Nc1ccccc1N1CCOCC1)[N-]Cc1ccc([O-])cc1 (nonaromatic ring conformer: 57.974444272972605 kcal/mol)

>  <smiles>  (75) 
O=C(CNC(=O)NCc1ccc(O)cc1)Nc1ccccc1N1CCOCC1

>  <score_type>  (75) 
oracle

>  <origin>  (75) 
adg

>  <m_score__min__energy>  (75) 
-14.380000000000001

>  <m_primary>  (75) 
energy

$$$$
75:0
     RDKit          3D

 42 44  0  0  0  0  0  0  0  0999 V2000
   63.0360   31.9280   48.6760 C   0  0  0  0  0  0  0  0  0  0  0  0
   61.6860   31.8150   48.0160 C   0  0  0  0  0  0  0  0  0  0  0  0
   60.8160   30.7850   48.4060 C   0  0  0  0  0  0  0  0  0  0  0  0
   59.5560   30.6400   47.8090 C   0  0  0  0  0  0  0  0  0  0  0  0
   58.6340   29.5400   48.2630 C   0  0  0  0  0  0  0  0  0  0  0  0
   59.1510   31.5380   46.8050 C   0  0  0  0  0  0  0  0  0  0  0  0
   57.8460   31.3950   46.2220 N   0  0  0  0  0  0  0  0  0  0  0  0
   57.4470   30.3590   44.8900 S   0  0  0  0  0  0  0  0  0  0  0  0
   58.3100   30.7110   43.7110 O   0  0  0  0  0  0  0  0  0  0  0  0
   56.0090   30.5830   44.5140 O   0  0  0  0  0  0  0  0  0  0  0  0
   57.7300   28.6640   45.3240 C   0  0  0  0  0  0  0  0  0  0  0  0
   56.6240   27.8590   45.6440 C   0  0  0  0  0  0  0  0  0  0  0  0
   56.8030   26.5300   46.0290 C   0  0  0  0  0  0  0  0  0  0  0  0
   55.7360   25.7520   46.3510 N   0  0  0  0  0  0  0  0  0  0  0  0
   55.8970   24.4580   46.7330 C   0  0  0  0  0  0  0  0  0  0  0  0
   54.8900   23.7600   47.0250 O   0  0  0  0  0  0  0  0  0  0  0  0
   57.1890   23.9140   46.7990 C   0  0  0  0  0  0  0  0  0  0  0  0
   57.3660   22.7190   47.1510 O   0  0  0  0  0  0  0  0  0  0  0  0
   58.2570   24.6920   46.4790 N   0  0  0  0  0  0  0  0  0  0  0  0
   58.0980   25.9850   46.0950 C   0  0  0  0  0  0  0  0  0  0  0  0
   59.2040   26.7720   45.7720 C   0  0  0  0  0  0  0  0  0  0  0  0
   59.0360   28.1090   45.3710 C   0  0  0  0  0  0  0  0  0  0  0  0
   60.2620   28.9280   45.0630 C   0  0  0  0  0  0  0  0  0  0  0  0
   60.0280   32.5570   46.3980 C   0  0  0  0  0  0  0  0  0  0  0  0
   61.2960   32.6970   46.9830 C   0  0  0  0  0  0  0  0  0  0  0  0
   62.1990   33.8120   46.5220 C   0  0  0  0  0  0  0  0  0  0  0  0
   62.9118   31.9176   49.7689 H   0  0  0  0  0  0  0  0  0  0  0  0
   63.6657   31.0794   48.3704 H   0  0  0  0  0  0  0  0  0  0  0  0
   63.5159   32.8695   48.3704 H   0  0  0  0  0  0  0  0  0  0  0  0
   61.1275   30.0811   49.1918 H   0  0  0  0  0  0  0  0  0  0  0  0
   58.6103   29.5118   49.3624 H   0  0  0  0  0  0  0  0  0  0  0  0
   57.6206   29.7292   47.8792 H   0  0  0  0  0  0  0  0  0  0  0  0
   58.9973   28.5753   47.8792 H   0  0  0  0  0  0  0  0  0  0  0  0
   55.6091   28.2798   45.5906 H   0  0  0  0  0  0  0  0  0  0  0  0
   60.2152   26.3430   45.8316 H   0  0  0  0  0  0  0  0  0  0  0  0
   60.7368   29.2452   46.0032 H   0  0  0  0  0  0  0  0  0  0  0  0
   60.9712   28.3216   44.4804 H   0  0  0  0  0  0  0  0  0  0  0  0
   59.9734   29.8153   44.4804 H   0  0  0  0  0  0  0  0  0  0  0  0
   59.7160   33.2563   45.6083 H   0  0  0  0  0  0  0  0  0  0  0  0
   62.6184   34.3298   47.3972 H   0  0  0  0  0  0  0  0  0  0  0  0
   63.0168   33.3948   45.9161 H   0  0  0  0  0  0  0  0  0  0  0  0
   61.6209   34.5253   45.9161 H   0  0  0  0  0  0  0  0  0  0  0  0
  1  2  1  0
  2  3  2  0
  3  4  1  0
  4  5  1  0
  4  6  2  0
  6  7  1  0
  7  8  1  0
  8  9  2  0
  8 10  2  0
  8 11  1  0
 11 12  2  0
 12 13  1  0
 13 14  1  0
 14 15  1  0
 15 16  2  0
 15 17  1  0
 17 18  2  0
 17 19  1  0
 19 20  1  0
 20 21  1  0
 21 22  2  0
 22 23  1  0
  6 24  1  0
 24 25  2  0
 25 26  1  0
 25  2  1  0
 22 11  1  0
 20 13  2  0
  1 27  1  0
  1 28  1  0
  1 29  1  0
  3 30  1  0
  5 31  1  0
  5 32  1  0
  5 33  1  0
 12 34  1  0
 21 35  1  0
 23 36  1  0
 23 37  1  0
 23 38  1  0
 24 39  1  0
 26 40  1  0
 26 41  1  0
 26 42  1  0
M  CHG  3   7  -1  14  -1  19  -1
M  END
>  <UniqueID>  (76) 
74

>  <SMILES>  (76) 
Cc1cc(C)c([N-]S(=O)(=O)c2cc3[n-]c(=O)c(=O)[n-]c3cc2C)cc1C

>  <Energy>  (76) 
52.85082890979203

>  <Genealogy>  (76) 
Cc1cc(C)c([N-]S(=O)(=O)c2cc3[n-]c(=O)c(=O)[n-]c3cc2C)cc1C (protonated)
Cc1cc(C)c([N-]S(=O)(=O)c2cc3[n-]c(=O)c(=O)[n-]c3cc2C)cc1C (3D coordinates assigned)
Cc1cc(C)c([N-]S(=O)(=O)c2cc3[n-]c(=O)c(=O)[n-]c3cc2C)cc1C (optimized conformer: 52.85082890979203 kcal/mol)

>  <smiles>  (76) 
Cc1cc(C)c(NS(=O)(=O)c2cc3[nH]c(=O)c(=O)[nH]c3cc2C)cc1C

>  <score_type>  (76) 
oracle

>  <origin>  (76) 
adg

>  <m_score__min__energy>  (76) 
-13.550000000000001

>  <m_primary>  (76) 
energy

$$$$
76:0
     RDKit          3D

 67 70  0  0  0  0  0  0  0  0999 V2000
   63.4070   33.8450   46.1550 C   0  0  0  0  0  0  0  0  0  0  0  0
   63.0240   33.8270   47.6340 C   0  0  0  0  0  0  0  0  0  0  0  0
   61.5860   33.5300   47.7950 N   0  0  0  0  0  0  0  0  0  0  0  0
   60.8010   33.6510   46.6820 C   0  0  0  0  0  0  0  0  0  0  0  0
   59.4290   33.3880   46.7250 C   0  0  0  0  0  0  0  0  0  0  0  0
   58.6060   33.5520   45.5060 C   0  0  0  0  0  0  0  0  0  0  0  0
   58.5360   34.6850   44.9620 O   0  0  0  0  0  0  0  0  0  0  0  0
   57.8770   32.4640   44.9250 N   0  0  0  0  0  0  0  0  0  0  0  0
   58.4550   31.1840   44.5340 C   0  0  0  0  0  0  0  0  0  0  0  0
   59.0060   30.5030   45.7530 C   0  0  0  0  0  0  0  0  0  0  0  0
   58.1380   29.9480   46.7030 C   0  0  0  0  0  0  0  0  0  0  0  0
   58.6430   29.3700   47.8700 C   0  0  0  0  0  0  0  0  0  0  0  0
   60.0280   29.3380   48.1110 C   0  0  0  0  0  0  0  0  0  0  0  0
   60.5510   28.7490   49.3670 C   0  0  0  0  0  0  0  0  0  0  0  0
   60.2220   27.5720   49.6850 O   0  0  0  0  0  0  0  0  0  0  0  0
   61.4390   29.4910   50.2200 N   0  0  0  0  0  0  0  0  0  0  0  0
   61.8000   29.0270   51.5280 C   0  0  0  0  0  0  0  0  0  0  0  0
   63.1560   29.0010   51.8890 C   0  0  0  0  0  0  0  0  0  0  0  0
   63.5470   28.5160   53.1390 C   0  0  0  0  0  0  0  0  0  0  0  0
   62.5870   28.0630   54.0450 C   0  0  0  0  0  0  0  0  0  0  0  0
   61.2320   28.1100   53.7100 C   0  0  0  0  0  0  0  0  0  0  0  0
   60.8220   28.6020   52.4610 C   0  0  0  0  0  0  0  0  0  0  0  0
   59.4220   28.7110   52.1780 N   0  0  0  0  0  0  0  0  0  0  0  0
   60.8960   29.9090   47.1620 C   0  0  0  0  0  0  0  0  0  0  0  0
   60.3880   30.4910   45.9950 C   0  0  0  0  0  0  0  0  0  0  0  0
   58.8460   33.0410   47.9470 C   0  0  0  0  0  0  0  0  0  0  0  0
   57.6050   32.8120   48.0100 O   0  0  0  0  0  0  0  0  0  0  0  0
   59.6370   32.9430   49.1020 C   0  0  0  0  0  0  0  0  0  0  0  0
   58.9850   32.5900   50.3830 C   0  0  0  0  0  0  0  0  0  0  0  0
   58.9670   33.5110   51.4390 C   0  0  0  0  0  0  0  0  0  0  0  0
   58.3410   33.1820   52.6440 C   0  0  0  0  0  0  0  0  0  0  0  0
   57.7250   31.9380   52.7980 C   0  0  0  0  0  0  0  0  0  0  0  0
   57.7300   31.0070   51.7400 C   0  0  0  0  0  0  0  0  0  0  0  0
   57.1210   29.7470   51.8450 O   0  0  0  0  0  0  0  0  0  0  0  0
   56.0860   29.4280   52.7680 C   0  0  0  0  0  0  0  0  0  0  0  0
   58.3630   31.3430   50.5360 C   0  0  0  0  0  0  0  0  0  0  0  0
   61.0320   33.1960   49.0160 C   0  0  0  0  0  0  0  0  0  0  0  0
   61.9140   33.0450   50.2430 C   0  0  0  0  0  0  0  0  0  0  0  0
   64.5017   33.8965   46.0603 H   0  0  0  0  0  0  0  0  0  0  0  0
   63.0397   32.9286   45.6699 H   0  0  0  0  0  0  0  0  0  0  0  0
   62.9554   34.7229   45.6699 H   0  0  0  0  0  0  0  0  0  0  0  0
   63.6127   33.0546   48.1505 H   0  0  0  0  0  0  0  0  0  0  0  0
   63.2323   34.8168   48.0664 H   0  0  0  0  0  0  0  0  0  0  0  0
   61.2594   33.9622   45.7318 H   0  0  0  0  0  0  0  0  0  0  0  0
   57.6781   30.5525   44.0784 H   0  0  0  0  0  0  0  0  0  0  0  0
   59.2613   31.3482   43.8040 H   0  0  0  0  0  0  0  0  0  0  0  0
   57.0521   29.9677   46.5285 H   0  0  0  0  0  0  0  0  0  0  0  0
   57.9512   28.9360   48.6070 H   0  0  0  0  0  0  0  0  0  0  0  0
   62.0270   30.2410   49.7920 H   0  0  0  0  0  0  0  0  0  0  0  0
   63.9163   29.3652   51.1824 H   0  0  0  0  0  0  0  0  0  0  0  0
   64.6129   28.4910   53.4097 H   0  0  0  0  0  0  0  0  0  0  0  0
   62.8978   27.6686   55.0237 H   0  0  0  0  0  0  0  0  0  0  0  0
   60.4795   27.7584   54.4312 H   0  0  0  0  0  0  0  0  0  0  0  0
   59.0550   28.6920   51.2010 H   0  0  0  0  0  0  0  0  0  0  0  0
   58.7370   28.8830   52.9470 H   0  0  0  0  0  0  0  0  0  0  0  0
   61.9817   29.8978   47.3387 H   0  0  0  0  0  0  0  0  0  0  0  0
   61.0756   30.9412   45.2639 H   0  0  0  0  0  0  0  0  0  0  0  0
   59.4461   34.4939   51.3191 H   0  0  0  0  0  0  0  0  0  0  0  0
   58.3333   33.9045   53.4734 H   0  0  0  0  0  0  0  0  0  0  0  0
   57.2339   31.6839   53.7489 H   0  0  0  0  0  0  0  0  0  0  0  0
   56.4622   29.5439   53.7952 H   0  0  0  0  0  0  0  0  0  0  0  0
   55.2333   30.1050   52.6112 H   0  0  0  0  0  0  0  0  0  0  0  0
   55.7624   28.3884   52.6112 H   0  0  0  0  0  0  0  0  0  0  0  0
   58.3720   30.6229   49.7045 H   0  0  0  0  0  0  0  0  0  0  0  0
   61.3010   33.1499   51.1503 H   0  0  0  0  0  0  0  0  0  0  0  0
   62.3884   32.0526   50.2337 H   0  0  0  0  0  0  0  0  0  0  0  0
   62.6915   33.8231   50.2337 H   0  0  0  0  0  0  0  0  0  0  0  0
  1  2  1  0
  2  3  1  0
  3  4  1  0
  4  5  2  0
  5  6  1  0
  6  7  2  0
  6  8  1  0
  8  9  1  0
  9 10  1  0
 10 11  2  0
 11 12  1  0
 12 13  2  0
 13 14  1  0
 14 15  2  0
 14 16  1  0
 16 17  1  0
 17 18  2  0
 18 19  1  0
 19 20  2  0
 20 21  1  0
 21 22  2  0
 22 23  1  0
 13 24  1  0
 24 25  2  0
  5 26  1  0
 26 27  2  0
 26 28  1  0
 28 29  1  0
 29 30  2  0
 30 31  1  0
 31 32  2  0
 32 33  1  0
 33 34  1  0
 34 35  1  0
 33 36  2  0
 28 37  2  0
 37 38  1  0
 37  3  1  0
 25 10  1  0
 36 29  1  0
 22 17  1  0
  1 39  1  0
  1 40  1  0
  1 41  1  0
  2 42  1  0
  2 43  1  0
  4 44  1  0
  9 45  1  0
  9 46  1  0
 11 47  1  0
 12 48  1  0
 16 49  1  0
 18 50  1  0
 19 51  1  0
 20 52  1  0
 21 53  1  0
 23 54  1  0
 23 55  1  0
 24 56  1  0
 25 57  1  0
 30 58  1  0
 31 59  1  0
 32 60  1  0
 35 61  1  0
 35 62  1  0
 35 63  1  0
 36 64  1  0
 38 65  1  0
 38 66  1  0
 38 67  1  0
M  CHG  1   8  -1
M  END
>  <UniqueID>  (77) 
75

>  <SMILES>  (77) 
CCn1cc(C(=O)[N-]Cc2ccc(C(=O)Nc3ccccc3N)cc2)c(=O)c(-c2cccc(OC)c2)c1C

>  <Energy>  (77) 
94.11391825158975

>  <Genealogy>  (77) 
CCn1cc(C(=O)[N-]Cc2ccc(C(=O)Nc3ccccc3N)cc2)c(=O)c(-c2cccc(OC)c2)c1C (protonated)
CCn1cc(C(=O)[N-]Cc2ccc(C(=O)Nc3ccccc3N)cc2)c(=O)c(-c2cccc(OC)c2)c1C (3D coordinates assigned)
CCn1cc(C(=O)[N-]Cc2ccc(C(=O)Nc3ccccc3N)cc2)c(=O)c(-c2cccc(OC)c2)c1C (optimized conformer: 94.11391825158975 kcal/mol)

>  <smiles>  (77) 
CCn1cc(C(=O)NCc2ccc(C(=O)Nc3ccccc3N)cc2)c(=O)c(-c2cccc(OC)c2)c1C

>  <score_type>  (77) 
oracle

>  <origin>  (77) 
adg

>  <m_score__min__energy>  (77) 
-10.800000000000001

>  <m_primary>  (77) 
energy

$$$$
77:0
     RDKit          3D

 38 40  0  0  0  0  0  0  0  0999 V2000
   63.1540   33.8050   47.6170 C   0  0  0  0  0  0  0  0  0  0  0  0
   61.7780   33.3750   47.2010 C   0  0  0  0  0  0  0  0  0  0  0  0
   61.2360   32.1700   47.6660 C   0  0  0  0  0  0  0  0  0  0  0  0
   59.9470   31.7860   47.2940 C   0  0  0  0  0  0  0  0  0  0  0  0
   59.1710   32.6060   46.4540 C   0  0  0  0  0  0  0  0  0  0  0  0
   57.8390   32.2330   46.0640 N   0  0  0  0  0  0  0  0  0  0  0  0
   57.4340   31.1850   44.7430 S   0  0  0  0  0  0  0  0  0  0  0  0
   55.9510   31.2320   44.5130 O   0  0  0  0  0  0  0  0  0  0  0  0
   58.1310   31.6600   43.4990 O   0  0  0  0  0  0  0  0  0  0  0  0
   57.8960   29.5330   45.1380 C   0  0  0  0  0  0  0  0  0  0  0  0
   59.2230   29.2170   45.4610 C   0  0  0  0  0  0  0  0  0  0  0  0
   59.5720   27.9050   45.7860 C   0  0  0  0  0  0  0  0  0  0  0  0
   58.6000   26.8980   45.7900 C   0  0  0  0  0  0  0  0  0  0  0  0
   57.2590   27.2130   45.5050 C   0  0  0  0  0  0  0  0  0  0  0  0
   56.9170   28.5290   45.1620 C   0  0  0  0  0  0  0  0  0  0  0  0
   56.2300   26.2220   45.6530 N   0  0  0  0  0  0  0  0  0  0  0  0
   56.4090   25.0740   46.4920 C   0  0  0  0  0  0  0  0  0  0  0  0
   55.4560   24.2670   46.6580 O   0  0  0  0  0  0  0  0  0  0  0  0
   57.7000   24.8650   47.2260 C   0  0  0  0  0  0  0  0  0  0  0  0
   59.0890   25.1950   46.0970 S   0  0  0  0  0  0  0  0  0  0  0  0
   59.7120   33.8190   45.9840 C   0  0  0  0  0  0  0  0  0  0  0  0
   58.9010   34.7240   45.0970 C   0  0  0  0  0  0  0  0  0  0  0  0
   61.0080   34.2010   46.3710 C   0  0  0  0  0  0  0  0  0  0  0  0
   63.2158   33.8243   48.7151 H   0  0  0  0  0  0  0  0  0  0  0  0
   63.8954   33.0957   47.2204 H   0  0  0  0  0  0  0  0  0  0  0  0
   63.3596   34.8102   47.2204 H   0  0  0  0  0  0  0  0  0  0  0  0
   61.8298   31.5227   48.3282 H   0  0  0  0  0  0  0  0  0  0  0  0
   59.5341   30.8345   47.6604 H   0  0  0  0  0  0  0  0  0  0  0  0
   59.9909   30.0046   45.4584 H   0  0  0  0  0  0  0  0  0  0  0  0
   60.6143   27.6618   46.0398 H   0  0  0  0  0  0  0  0  0  0  0  0
   55.8749   28.7753   44.9103 H   0  0  0  0  0  0  0  0  0  0  0  0
   55.2850   26.3990   45.2430 H   0  0  0  0  0  0  0  0  0  0  0  0
   57.7513   25.5521   48.0835 H   0  0  0  0  0  0  0  0  0  0  0  0
   57.7560   23.8279   47.5883 H   0  0  0  0  0  0  0  0  0  0  0  0
   58.2953   35.3999   45.7185 H   0  0  0  0  0  0  0  0  0  0  0  0
   59.5762   35.3163   44.4620 H   0  0  0  0  0  0  0  0  0  0  0  0
   58.2385   34.1175   44.4620 H   0  0  0  0  0  0  0  0  0  0  0  0
   61.4219   35.1575   46.0191 H   0  0  0  0  0  0  0  0  0  0  0  0
  1  2  1  0
  2  3  2  0
  3  4  1  0
  4  5  2  0
  5  6  1  0
  6  7  1  0
  7  8  2  0
  7  9  2  0
  7 10  1  0
 10 11  2  0
 11 12  1  0
 12 13  2  0
 13 14  1  0
 14 15  2  0
 14 16  1  0
 16 17  1  0
 17 18  2  0
 17 19  1  0
 19 20  1  0
  5 21  1  0
 21 22  1  0
 21 23  2  0
 23  2  1  0
 15 10  1  0
 20 13  1  0
  1 24  1  0
  1 25  1  0
  1 26  1  0
  3 27  1  0
  4 28  1  0
 11 29  1  0
 12 30  1  0
 15 31  1  0
 16 32  1  0
 19 33  1  0
 19 34  1  0
 22 35  1  0
 22 36  1  0
 22 37  1  0
 23 38  1  0
M  CHG  1   6  -1
M  END
>  <UniqueID>  (78) 
76

>  <SMILES>  (78) 
Cc1ccc([N-]S(=O)(=O)c2ccc3c(c2)NC(=O)CS3)c(C)c1

>  <Energy>  (78) 
45.763698470957884

>  <Genealogy>  (78) 
Cc1ccc([N-]S(=O)(=O)c2ccc3c(c2)NC(=O)CS3)c(C)c1 (protonated)
Cc1ccc([N-]S(=O)(=O)c2ccc3c(c2)NC(=O)CS3)c(C)c1 (3D coordinates assigned)
Cc1ccc([N-]S(=O)(=O)c2ccc3c(c2)NC(=O)CS3)c(C)c1 (nonaromatic ring conformer: 45.763698470957884 kcal/mol)

>  <smiles>  (78) 
Cc1ccc(NS(=O)(=O)c2ccc3c(c2)NC(=O)CS3)c(C)c1

>  <score_type>  (78) 
oracle

>  <origin>  (78) 
adg

>  <m_score__min__energy>  (78) 
-9.5399999999999991

>  <m_primary>  (78) 
energy

$$$$
78:0
     RDKit          3D

 35 36  0  0  0  0  0  0  0  0999 V2000
   57.0570   29.7470   42.7580 N   0  0  0  0  0  0  0  0  0  0  0  0
   56.2350   29.8260   44.2770 S   0  0  0  0  0  0  0  0  0  0  0  0
   54.8160   29.3550   44.1210 O   0  0  0  0  0  0  0  0  0  0  0  0
   56.9380   28.9420   45.2670 O   0  0  0  0  0  0  0  0  0  0  0  0
   56.2490   31.4540   44.8660 N   0  0  0  0  0  0  0  0  0  0  0  0
   57.4020   32.2930   44.7810 C   0  0  0  0  0  0  0  0  0  0  0  0
   58.1550   32.2440   43.7720 O   0  0  0  0  0  0  0  0  0  0  0  0
   57.7160   33.2370   45.9010 C   0  0  0  0  0  0  0  0  0  0  0  0
   59.1620   33.1040   46.3170 C   0  0  0  0  0  0  0  0  0  0  0  0
   59.9600   34.2610   46.3660 C   0  0  0  0  0  0  0  0  0  0  0  0
   61.3000   34.1850   46.7470 C   0  0  0  0  0  0  0  0  0  0  0  0
   61.8640   32.9540   47.0750 C   0  0  0  0  0  0  0  0  0  0  0  0
   61.0920   31.7930   47.0190 C   0  0  0  0  0  0  0  0  0  0  0  0
   59.7360   31.8500   46.6410 C   0  0  0  0  0  0  0  0  0  0  0  0
   58.9590   30.6370   46.5600 N   0  0  0  0  0  0  0  0  0  0  0  0
   59.3910   29.3850   47.1120 C   0  0  0  0  0  0  0  0  0  0  0  0
   59.4300   29.1850   48.5100 C   0  0  0  0  0  0  0  0  0  0  0  0
   58.8970   30.4290   49.6330 Cl  0  0  0  0  0  0  0  0  0  0  0  0
   59.8540   27.9550   49.0270 C   0  0  0  0  0  0  0  0  0  0  0  0
   60.2290   26.9210   48.1690 C   0  0  0  0  0  0  0  0  0  0  0  0
   60.1750   27.1050   46.7860 C   0  0  0  0  0  0  0  0  0  0  0  0
   59.7530   28.3290   46.2540 C   0  0  0  0  0  0  0  0  0  0  0  0
   59.7210   28.5290   44.5070 Cl  0  0  0  0  0  0  0  0  0  0  0  0
   57.6700   28.9030   42.7840 H   0  0  0  0  0  0  0  0  0  0  0  0
   57.6910   30.5770   42.7110 H   0  0  0  0  0  0  0  0  0  0  0  0
   57.5288   34.2685   45.5679 H   0  0  0  0  0  0  0  0  0  0  0  0
   57.0751   32.9934   46.7611 H   0  0  0  0  0  0  0  0  0  0  0  0
   59.5234   35.2354   46.1014 H   0  0  0  0  0  0  0  0  0  0  0  0
   61.9119   35.0981   46.7885 H   0  0  0  0  0  0  0  0  0  0  0  0
   62.9197   32.8972   47.3786 H   0  0  0  0  0  0  0  0  0  0  0  0
   61.5465   30.8239   47.2724 H   0  0  0  0  0  0  0  0  0  0  0  0
   58.1030   30.6260   45.9630 H   0  0  0  0  0  0  0  0  0  0  0  0
   59.8916   27.8031   50.1158 H   0  0  0  0  0  0  0  0  0  0  0  0
   60.5676   25.9596   48.5825 H   0  0  0  0  0  0  0  0  0  0  0  0
   60.4651   26.2853   46.1122 H   0  0  0  0  0  0  0  0  0  0  0  0
  1  2  1  0
  2  3  2  0
  2  4  2  0
  2  5  1  0
  5  6  1  0
  6  7  2  0
  6  8  1  0
  8  9  1  0
  9 10  2  0
 10 11  1  0
 11 12  2  0
 12 13  1  0
 13 14  2  0
 14 15  1  0
 15 16  1  0
 16 17  2  0
 17 18  1  0
 17 19  1  0
 19 20  2  0
 20 21  1  0
 21 22  2  0
 22 23  1  0
 14  9  1  0
 22 16  1  0
  1 24  1  0
  1 25  1  0
  8 26  1  0
  8 27  1  0
 10 28  1  0
 11 29  1  0
 12 30  1  0
 13 31  1  0
 15 32  1  0
 19 33  1  0
 20 34  1  0
 21 35  1  0
M  CHG  1   5  -1
M  END
>  <UniqueID>  (79) 
77

>  <SMILES>  (79) 
NS(=O)(=O)[N-]C(=O)Cc1ccccc1Nc1c(Cl)cccc1Cl

>  <Energy>  (79) 
41.556915983475385

>  <Genealogy>  (79) 
NS(=O)(=O)[N-]C(=O)Cc1ccccc1Nc1c(Cl)cccc1Cl (protonated)
NS(=O)(=O)[N-]C(=O)Cc1ccccc1Nc1c(Cl)cccc1Cl (3D coordinates assigned)
NS(=O)(=O)[N-]C(=O)Cc1ccccc1Nc1c(Cl)cccc1Cl (optimized conformer: 41.556915983475385 kcal/mol)

>  <smiles>  (79) 
NS(=O)(=O)NC(=O)Cc1ccccc1Nc1c(Cl)cccc1Cl

>  <score_type>  (79) 
oracle

>  <origin>  (79) 
adg

>  <m_score__min__energy>  (79) 
-10.83

>  <m_primary>  (79) 
energy

$$$$
79:0
     RDKit          3D

 50 52  0  0  0  0  0  0  0  0999 V2000
   57.5330   32.3590   41.3770 C   0  0  0  0  0  0  0  0  0  0  0  0
   57.4040   31.5230   42.6160 C   0  0  0  0  0  0  0  0  0  0  0  0
   58.1000   31.8760   43.7810 C   0  0  0  0  0  0  0  0  0  0  0  0
   58.0090   31.0780   44.9270 C   0  0  0  0  0  0  0  0  0  0  0  0
   57.2410   29.9000   44.9110 C   0  0  0  0  0  0  0  0  0  0  0  0
   57.1070   29.0670   46.0720 N   0  0  0  0  0  0  0  0  0  0  0  0
   58.1650   28.3660   46.7330 C   0  0  0  0  0  0  0  0  0  0  0  0
   58.3030   27.1320   46.5200 O   0  0  0  0  0  0  0  0  0  0  0  0
   59.0880   29.0680   47.5780 N   0  0  0  0  0  0  0  0  0  0  0  0
   58.7460   30.0540   48.5590 C   0  0  0  0  0  0  0  0  0  0  0  0
   59.0280   31.3990   48.3040 C   0  0  0  0  0  0  0  0  0  0  0  0
   58.6960   32.3610   49.2590 C   0  0  0  0  0  0  0  0  0  0  0  0
   58.0900   31.9760   50.4550 C   0  0  0  0  0  0  0  0  0  0  0  0
   57.8180   30.6170   50.6840 C   0  0  0  0  0  0  0  0  0  0  0  0
   57.1810   30.1610   51.9330 C   0  0  0  0  0  0  0  0  0  0  0  0
   57.6020   29.1150   52.4930 O   0  0  0  0  0  0  0  0  0  0  0  0
   56.0750   30.8880   52.4860 N   0  0  0  0  0  0  0  0  0  0  0  0
   54.6850   30.6470   52.2410 C   0  0  0  0  0  0  0  0  0  0  0  0
   53.7670   31.6280   51.9310 C   0  0  0  0  0  0  0  0  0  0  0  0
   52.5520   30.9810   51.8160 C   0  0  0  0  0  0  0  0  0  0  0  0
   51.2800   31.6530   51.5060 C   0  0  0  0  0  0  0  0  0  0  0  0
   50.3600   31.6540   52.3640 O   0  0  0  0  0  0  0  0  0  0  0  0
   51.0770   32.3400   50.2660 N   0  0  0  0  0  0  0  0  0  0  0  0
   50.7170   31.6750   49.0200 C   0  0  0  0  0  0  0  0  0  0  0  0
   51.4070   30.3500   48.9340 C   0  0  0  0  0  0  0  0  0  0  0  0
   50.9760   29.4840   48.1910 O   0  0  0  0  0  0  0  0  0  0  0  0
   52.6980   29.6590   52.0700 N   0  0  0  0  0  0  0  0  0  0  0  0
   51.6510   28.6470   52.1900 C   0  0  0  0  0  0  0  0  0  0  0  0
   54.0020   29.4460   52.3340 C   0  0  0  0  0  0  0  0  0  0  0  0
   58.1530   29.7000   49.7330 N   0  0  0  0  0  0  0  0  0  0  0  0
   56.5410   29.5550   43.7490 C   0  0  0  0  0  0  0  0  0  0  0  0
   56.6320   30.3510   42.6030 C   0  0  0  0  0  0  0  0  0  0  0  0
   57.6952   33.4098   41.6589 H   0  0  0  0  0  0  0  0  0  0  0  0
   58.3869   32.0031   40.7818 H   0  0  0  0  0  0  0  0  0  0  0  0
   56.6116   32.2771   40.7818 H   0  0  0  0  0  0  0  0  0  0  0  0
   58.7203   32.7843   43.7942 H   0  0  0  0  0  0  0  0  0  0  0  0
   58.5402   31.3733   45.8438 H   0  0  0  0  0  0  0  0  0  0  0  0
   59.5071   31.6965   47.3595 H   0  0  0  0  0  0  0  0  0  0  0  0
   58.9121   33.4226   49.0686 H   0  0  0  0  0  0  0  0  0  0  0  0
   57.8275   32.7298   51.2119 H   0  0  0  0  0  0  0  0  0  0  0  0
   53.9618   32.7029   51.8020 H   0  0  0  0  0  0  0  0  0  0  0  0
   49.6281   31.5222   48.9892 H   0  0  0  0  0  0  0  0  0  0  0  0
   51.0279   32.3018   48.1712 H   0  0  0  0  0  0  0  0  0  0  0  0
   52.3036   30.1568   49.5413 H   0  0  0  0  0  0  0  0  0  0  0  0
   51.4495   28.4522   53.2537 H   0  0  0  0  0  0  0  0  0  0  0  0
   50.7334   29.0092   51.7033 H   0  0  0  0  0  0  0  0  0  0  0  0
   51.9818   27.7176   51.7033 H   0  0  0  0  0  0  0  0  0  0  0  0
   54.4520   28.4737   52.5835 H   0  0  0  0  0  0  0  0  0  0  0  0
   55.9146   28.6509   43.7373 H   0  0  0  0  0  0  0  0  0  0  0  0
   56.0966   30.0576   41.6880 H   0  0  0  0  0  0  0  0  0  0  0  0
  1  2  1  0
  2  3  2  0
  3  4  1  0
  4  5  2  0
  5  6  1  0
  6  7  1  0
  7  8  2  0
  7  9  1  0
  9 10  1  0
 10 11  2  0
 11 12  1  0
 12 13  2  0
 13 14  1  0
 14 15  1  0
 15 16  2  0
 15 17  1  0
 17 18  1  0
 18 19  1  0
 19 20  2  0
 20 21  1  0
 21 22  2  0
 21 23  1  0
 23 24  1  0
 24 25  1  0
 25 26  2  0
 20 27  1  0
 27 28  1  0
 27 29  1  0
 14 30  2  0
  5 31  1  0
 31 32  2  0
 32  2  1  0
 30 10  1  0
 29 18  2  0
  1 33  1  0
  1 34  1  0
  1 35  1  0
  3 36  1  0
  4 37  1  0
 11 38  1  0
 12 39  1  0
 13 40  1  0
 19 41  1  0
 24 42  1  0
 24 43  1  0
 25 44  1  0
 28 45  1  0
 28 46  1  0
 28 47  1  0
 29 48  1  0
 31 49  1  0
 32 50  1  0
M  CHG  4   6  -1   9  -1  17  -1  23  -1
M  END
>  <UniqueID>  (80) 
78

>  <SMILES>  (80) 
Cc1ccc([N-]C(=O)[N-]c2cccc(C(=O)[N-]c3cc(C(=O)[N-]CC=O)n(C)c3)n2)cc1

>  <Energy>  (80) 
86.49285405689291

>  <Genealogy>  (80) 
Cc1ccc([N-]C(=O)[N-]c2cccc(C(=O)[N-]c3cc(C(=O)[N-]CC=O)n(C)c3)n2)cc1 (protonated)
Cc1ccc([N-]C(=O)[N-]c2cccc(C(=O)[N-]c3cc(C(=O)[N-]CC=O)n(C)c3)n2)cc1 (3D coordinates assigned)
Cc1ccc([N-]C(=O)[N-]c2cccc(C(=O)[N-]c3cc(C(=O)[N-]CC=O)n(C)c3)n2)cc1 (optimized conformer: 86.49285405689291 kcal/mol)

>  <smiles>  (80) 
Cc1ccc(NC(=O)Nc2cccc(C(=O)Nc3cc(C(=O)NCC=O)n(C)c3)n2)cc1

>  <score_type>  (80) 
oracle

>  <origin>  (80) 
adg

>  <m_score__min__energy>  (80) 
-14.19

>  <m_primary>  (80) 
energy

$$$$
80:0
     RDKit          3D

 68 71  0  0  0  0  0  0  0  0999 V2000
   57.0032   21.1997   41.9579 H   0  0  0  0  0  0  0  0  0  0  0  0
   56.8970   21.8630   42.8290 C   0  0  0  0  0  0  0  0  0  0  0  0
   55.8940   22.8330   42.8490 C   0  0  0  0  0  0  0  0  0  0  0  0
   55.2099   22.9339   41.9936 H   0  0  0  0  0  0  0  0  0  0  0  0
   55.7580   23.6770   43.9560 C   0  0  0  0  0  0  0  0  0  0  0  0
   54.9695   24.4439   43.9661 H   0  0  0  0  0  0  0  0  0  0  0  0
   56.6230   23.5500   45.0540 C   0  0  0  0  0  0  0  0  0  0  0  0
   56.4010   24.6160   46.4410 S   0  0  0  0  0  0  0  0  0  0  0  0
   55.4620   25.7230   46.0550 O   0  0  0  0  0  0  0  0  0  0  0  0
   55.8210   23.8850   47.6190 O   0  0  0  0  0  0  0  0  0  0  0  0
   57.9320   25.3000   46.8940 N   0  0  0  0  0  0  0  0  0  0  0  0
   58.7000   24.6200   47.0920 H   0  0  0  0  0  0  0  0  0  0  0  0
   58.2010   26.7150   46.9430 C   0  0  0  0  0  0  0  0  0  0  0  0
   57.3850   27.6450   46.2830 C   0  0  0  0  0  0  0  0  0  0  0  0
   56.4866   27.3072   45.7456 H   0  0  0  0  0  0  0  0  0  0  0  0
   57.7160   29.0000   46.3100 C   0  0  0  0  0  0  0  0  0  0  0  0
   57.0040   29.8430   45.6200 N   0  0  0  0  0  0  0  0  0  0  0  0
   57.4810   30.9850   44.8870 C   0  0  0  0  0  0  0  0  0  0  0  0
   57.6430   30.8640   43.5010 C   0  0  0  0  0  0  0  0  0  0  0  0
   57.3962   29.9153   43.0019 H   0  0  0  0  0  0  0  0  0  0  0  0
   58.1160   31.9410   42.7500 C   0  0  0  0  0  0  0  0  0  0  0  0
   58.2527   31.8345   41.6637 H   0  0  0  0  0  0  0  0  0  0  0  0
   58.4160   33.1530   43.3740 C   0  0  0  0  0  0  0  0  0  0  0  0
   58.8075   33.9907   42.7781 H   0  0  0  0  0  0  0  0  0  0  0  0
   58.2230   33.3120   44.7520 C   0  0  0  0  0  0  0  0  0  0  0  0
   58.5260   34.5620   45.3140 O   0  0  0  0  0  0  0  0  0  0  0  0
   59.7190   34.8960   46.0220 C   0  0  0  0  0  0  0  0  0  0  0  0
   59.5861   35.8751   46.5053 H   0  0  0  0  0  0  0  0  0  0  0  0
   60.5513   34.9252   45.3034 H   0  0  0  0  0  0  0  0  0  0  0  0
   60.0440   33.8510   47.0940 C   0  0  0  0  0  0  0  0  0  0  0  0
   59.1793   33.1826   47.2186 H   0  0  0  0  0  0  0  0  0  0  0  0
   60.2664   34.3731   48.0363 H   0  0  0  0  0  0  0  0  0  0  0  0
   61.2260   33.0470   46.7100 N   0  0  0  0  0  0  0  0  0  0  0  0
   62.3940   33.8990   46.3650 C   0  0  0  0  0  0  0  0  0  0  0  0
   62.0360   34.9095   46.1187 H   0  0  0  0  0  0  0  0  0  0  0  0
   62.9086   33.4394   45.5083 H   0  0  0  0  0  0  0  0  0  0  0  0
   63.3970   33.9970   47.5240 C   0  0  0  0  0  0  0  0  0  0  0  0
   62.8883   34.4195   48.4030 H   0  0  0  0  0  0  0  0  0  0  0  0
   64.2299   34.6424   47.2080 H   0  0  0  0  0  0  0  0  0  0  0  0
   63.9450   32.6670   47.8770 N   0  0  0  0  0  0  0  0  0  0  0  0
   64.5380   32.6910   49.5220 S   0  0  0  0  0  0  0  0  0  0  0  0
   64.1870   31.3930   50.1920 O   0  0  0  0  0  0  0  0  0  0  0  0
   66.0340   32.8450   49.5090 O   0  0  0  0  0  0  0  0  0  0  0  0
   63.8180   34.0170   50.3860 N   0  0  0  0  0  0  0  0  0  0  0  0
   62.4370   33.6960   50.7250 C   0  0  0  0  0  0  0  0  0  0  0  0
   62.3246   33.6699   51.8189 H   0  0  0  0  0  0  0  0  0  0  0  0
   61.7688   34.4628   50.3059 H   0  0  0  0  0  0  0  0  0  0  0  0
   62.1755   32.7131   50.3059 H   0  0  0  0  0  0  0  0  0  0  0  0
   62.9860   31.5560   47.6750 C   0  0  0  0  0  0  0  0  0  0  0  0
   63.1501   30.8007   48.4577 H   0  0  0  0  0  0  0  0  0  0  0  0
   63.1601   31.1401   46.6716 H   0  0  0  0  0  0  0  0  0  0  0  0
   61.5250   32.0260   47.7410 C   0  0  0  0  0  0  0  0  0  0  0  0
   61.3349   32.4578   48.7347 H   0  0  0  0  0  0  0  0  0  0  0  0
   60.8782   31.1556   47.5564 H   0  0  0  0  0  0  0  0  0  0  0  0
   57.7320   32.2250   45.5070 C   0  0  0  0  0  0  0  0  0  0  0  0
   57.5445   32.3466   46.5841 H   0  0  0  0  0  0  0  0  0  0  0  0
   58.8230   29.3960   46.9930 N   0  0  0  0  0  0  0  0  0  0  0  0
   59.5980   28.5330   47.6570 N   0  0  0  0  0  0  0  0  0  0  0  0
   60.7530   29.0510   48.3910 C   0  0  0  0  0  0  0  0  0  0  0  0
   60.5677   28.9679   49.4721 H   0  0  0  0  0  0  0  0  0  0  0  0
   61.6473   28.4677   48.1263 H   0  0  0  0  0  0  0  0  0  0  0  0
   60.9122   30.1067   48.1263 H   0  0  0  0  0  0  0  0  0  0  0  0
   59.3150   27.1930   47.6550 C   0  0  0  0  0  0  0  0  0  0  0  0
   60.0570   26.3870   48.2830 O   0  0  0  0  0  0  0  0  0  0  0  0
   57.6310   22.5690   45.0300 C   0  0  0  0  0  0  0  0  0  0  0  0
   58.4770   22.4100   46.0770 F   0  0  0  0  0  0  0  0  0  0  0  0
   57.7670   21.7340   43.9160 C   0  0  0  0  0  0  0  0  0  0  0  0
   58.5612   20.9732   43.8950 H   0  0  0  0  0  0  0  0  0  0  0  0
  1  2  1  0
  2  3  2  0
  3  4  1  0
  3  5  1  0
  5  6  1  0
  5  7  2  0
  7  8  1  0
  8  9  2  0
  8 10  2  0
  8 11  1  0
 11 12  1  0
 11 13  1  0
 13 14  2  0
 14 15  1  0
 14 16  1  0
 16 17  2  0
 17 18  1  0
 18 19  2  0
 19 20  1  0
 19 21  1  0
 21 22  1  0
 21 23  2  0
 23 24  1  0
 23 25  1  0
 25 26  1  0
 26 27  1  0
 27 28  1  0
 27 29  1  0
 27 30  1  0
 30 31  1  0
 30 32  1  0
 30 33  1  0
 33 34  1  0
 34 35  1  0
 34 36  1  0
 34 37  1  0
 37 38  1  0
 37 39  1  0
 37 40  1  0
 40 41  1  0
 41 42  2  0
 41 43  2  0
 41 44  1  0
 44 45  1  0
 45 46  1  0
 45 47  1  0
 45 48  1  0
 40 49  1  0
 49 50  1  0
 49 51  1  0
 49 52  1  0
 52 53  1  0
 52 54  1  0
 25 55  2  0
 55 56  1  0
 16 57  1  0
 57 58  1  0
 58 59  1  0
 59 60  1  0
 59 61  1  0
 59 62  1  0
 58 63  1  0
 63 64  2  0
  7 65  1  0
 65 66  1  0
 65 67  2  0
 67 68  1  0
 67  2  1  0
 63 13  1  0
 55 18  1  0
 52 33  1  0
M  CHG  2  44  -1  57  -1
M  END
>  <UniqueID>  (81) 
79

>  <SMILES>  (81) 
C[N-]S(=O)(=O)N1CCN(CCOc2cccc(/N=c3/cc(NS(=O)(=O)c4ccccc4F)c(=O)n(C)[n-]3)c2)CC1

>  <Energy>  (81) 
88.3952867659135

>  <Genealogy>  (81) 
C[N-]S(=O)(=O)N1CCN(CCOc2cccc(N=c3cc(NS(=O)(=O)c4ccccc4F)c(=O)n(C)[n-]3)c2)CC1 (protonated)
C[N-]S(=O)(=O)N1CCN(CCOc2cccc(/N=c3/cc(NS(=O)(=O)c4ccccc4F)c(=O)n(C)[n-]3)c2)CC1 (cis-trans isomerization)
C[N-]S(=O)(=O)N1CCN(CCOc2cccc(/N=c3/cc(NS(=O)(=O)c4ccccc4F)c(=O)n(C)[n-]3)c2)CC1 (3D coordinates assigned)
C[N-]S(=O)(=O)N1CCN(CCOc2cccc(/N=c3/cc(NS(=O)(=O)c4ccccc4F)c(=O)n(C)[n-]3)c2)CC1 (nonaromatic ring conformer: 88.3952867659135 kcal/mol)

>  <smiles>  (81) 
CNS(=O)(=O)N1CCN(CCOc2cccc(N=c3cc(NS(=O)(=O)c4ccccc4F)c(=O)n(C)[nH]3)c2)CC1

>  <score_type>  (81) 
oracle

>  <origin>  (81) 
adg

>  <m_score__min__energy>  (81) 
-12.66

>  <m_primary>  (81) 
energy

$$$$
81:0
     RDKit          3D

 56 58  0  0  0  0  0  0  0  0999 V2000
   56.5740   25.5760   47.4140 O   0  0  0  0  0  0  0  0  0  0  0  0
   56.1160   26.1020   46.3660 C   0  0  0  0  0  0  0  0  0  0  0  0
   54.8040   25.7230   45.9300 N   0  0  0  0  0  0  0  0  0  0  0  0
   54.3420   24.3630   45.6590 C   0  0  0  0  0  0  0  0  0  0  0  0
   54.7200   23.9420   44.2370 C   0  0  0  0  0  0  0  0  0  0  0  0
   56.0150   23.1720   44.2180 C   0  0  0  0  0  0  0  0  0  0  0  0
   56.2560   22.2090   43.2230 C   0  0  0  0  0  0  0  0  0  0  0  0
   57.4720   21.5190   43.1890 C   0  0  0  0  0  0  0  0  0  0  0  0
   58.4580   21.7910   44.1420 C   0  0  0  0  0  0  0  0  0  0  0  0
   58.2300   22.7530   45.1290 C   0  0  0  0  0  0  0  0  0  0  0  0
   57.0160   23.4450   45.1670 C   0  0  0  0  0  0  0  0  0  0  0  0
   56.9580   27.0700   45.6410 C   0  0  0  0  0  0  0  0  0  0  0  0
   57.8030   26.8100   44.5760 C   0  0  0  0  0  0  0  0  0  0  0  0
   58.3970   28.0140   44.2610 C   0  0  0  0  0  0  0  0  0  0  0  0
   57.8870   28.9270   45.1620 C   0  0  0  0  0  0  0  0  0  0  0  0
   58.2110   30.3840   45.2070 C   0  0  0  0  0  0  0  0  0  0  0  0
   56.8980   31.3290   44.4520 S   0  0  0  0  0  0  0  0  0  0  0  0
   57.2380   31.6170   43.0160 O   0  0  0  0  0  0  0  0  0  0  0  0
   55.6250   30.5330   44.5040 O   0  0  0  0  0  0  0  0  0  0  0  0
   56.6650   32.8120   45.3250 N   0  0  0  0  0  0  0  0  0  0  0  0
   57.9520   33.4560   45.5800 C   0  0  0  0  0  0  0  0  0  0  0  0
   58.2440   33.4780   47.0790 C   0  0  0  0  0  0  0  0  0  0  0  0
   59.3120   34.4610   47.3790 N   0  0  0  0  0  0  0  0  0  0  0  0
   60.3520   34.5490   46.3180 C   0  0  0  0  0  0  0  0  0  0  0  0
   61.6760   33.8400   46.6730 C   0  0  0  0  0  0  0  0  0  0  0  0
   61.4310   32.6120   47.5480 C   0  0  0  0  0  0  0  0  0  0  0  0
   60.7030   32.9830   48.8510 C   0  0  0  0  0  0  0  0  0  0  0  0
   59.8880   34.2860   48.7280 C   0  0  0  0  0  0  0  0  0  0  0  0
   57.0360   28.3400   45.9700 O   0  0  0  0  0  0  0  0  0  0  0  0
   54.8084   23.6724   46.3770 H   0  0  0  0  0  0  0  0  0  0  0  0
   53.2471   24.3324   45.7599 H   0  0  0  0  0  0  0  0  0  0  0  0
   53.9203   23.3077   43.8270 H   0  0  0  0  0  0  0  0  0  0  0  0
   54.8480   24.8500   43.6294 H   0  0  0  0  0  0  0  0  0  0  0  0
   55.4848   21.9971   42.4677 H   0  0  0  0  0  0  0  0  0  0  0  0
   57.6527   20.7618   42.4119 H   0  0  0  0  0  0  0  0  0  0  0  0
   59.4138   21.2473   44.1147 H   0  0  0  0  0  0  0  0  0  0  0  0
   59.0072   22.9663   45.8776 H   0  0  0  0  0  0  0  0  0  0  0  0
   56.8431   24.2060   45.9422 H   0  0  0  0  0  0  0  0  0  0  0  0
   57.9672   25.8410   44.0819 H   0  0  0  0  0  0  0  0  0  0  0  0
   59.1251   28.2066   43.4593 H   0  0  0  0  0  0  0  0  0  0  0  0
   58.3292   30.6981   46.2546 H   0  0  0  0  0  0  0  0  0  0  0  0
   59.1456   30.5619   44.6548 H   0  0  0  0  0  0  0  0  0  0  0  0
   58.7464   32.8973   45.0634 H   0  0  0  0  0  0  0  0  0  0  0  0
   57.9157   34.4900   45.2066 H   0  0  0  0  0  0  0  0  0  0  0  0
   57.3298   33.7576   47.6230 H   0  0  0  0  0  0  0  0  0  0  0  0
   58.5780   32.4784   47.3939 H   0  0  0  0  0  0  0  0  0  0  0  0
   59.9502   34.0918   45.4017 H   0  0  0  0  0  0  0  0  0  0  0  0
   60.5874   35.6161   46.1924 H   0  0  0  0  0  0  0  0  0  0  0  0
   62.1737   33.5246   45.7442 H   0  0  0  0  0  0  0  0  0  0  0  0
   62.3079   34.5449   47.2332 H   0  0  0  0  0  0  0  0  0  0  0  0
   60.8166   31.8914   46.9883 H   0  0  0  0  0  0  0  0  0  0  0  0
   62.4061   32.1756   47.8103 H   0  0  0  0  0  0  0  0  0  0  0  0
   60.0187   32.1639   49.1171 H   0  0  0  0  0  0  0  0  0  0  0  0
   61.4683   33.1420   49.6250 H   0  0  0  0  0  0  0  0  0  0  0  0
   59.0691   34.2618   49.4620 H   0  0  0  0  0  0  0  0  0  0  0  0
   60.5699   35.1287   48.9150 H   0  0  0  0  0  0  0  0  0  0  0  0
  1  2  2  0
  2  3  1  0
  3  4  1  0
  4  5  1  0
  5  6  1  0
  6  7  2  0
  7  8  1  0
  8  9  2  0
  9 10  1  0
 10 11  2  0
  2 12  1  0
 12 13  2  0
 13 14  1  0
 14 15  2  0
 15 16  1  0
 16 17  1  0
 17 18  2  0
 17 19  2  0
 17 20  1  0
 20 21  1  0
 21 22  1  0
 22 23  1  0
 23 24  1  0
 24 25  1  0
 25 26  1  0
 26 27  1  0
 27 28  1  0
 15 29  1  0
 11  6  1  0
 29 12  1  0
 28 23  1  0
  4 30  1  0
  4 31  1  0
  5 32  1  0
  5 33  1  0
  7 34  1  0
  8 35  1  0
  9 36  1  0
 10 37  1  0
 11 38  1  0
 13 39  1  0
 14 40  1  0
 16 41  1  0
 16 42  1  0
 21 43  1  0
 21 44  1  0
 22 45  1  0
 22 46  1  0
 24 47  1  0
 24 48  1  0
 25 49  1  0
 25 50  1  0
 26 51  1  0
 26 52  1  0
 27 53  1  0
 27 54  1  0
 28 55  1  0
 28 56  1  0
M  CHG  2   3  -1  20  -1
M  END
>  <UniqueID>  (82) 
80

>  <SMILES>  (82) 
O=C([N-]CCc1ccccc1)c1ccc(CS(=O)(=O)[N-]CCN2CCCCC2)o1

>  <Energy>  (82) 
84.31661496175508

>  <Genealogy>  (82) 
O=C([N-]CCc1ccccc1)c1ccc(CS(=O)(=O)[N-]CCN2CCCCC2)o1 (protonated)
O=C([N-]CCc1ccccc1)c1ccc(CS(=O)(=O)[N-]CCN2CCCCC2)o1 (3D coordinates assigned)
O=C([N-]CCc1ccccc1)c1ccc(CS(=O)(=O)[N-]CCN2CCCCC2)o1 (nonaromatic ring conformer: 84.31661496175508 kcal/mol)

>  <smiles>  (82) 
O=C(NCCc1ccccc1)c1ccc(CS(=O)(=O)NCCN2CCCCC2)o1

>  <score_type>  (82) 
oracle

>  <origin>  (82) 
adg

>  <m_score__min__energy>  (82) 
-12.68

>  <m_primary>  (82) 
energy

$$$$
82:0
     RDKit          3D

 42 44  0  0  0  0  0  0  0  0999 V2000
   59.2510   32.1910   48.6760 C   0  0  0  0  0  0  0  0  0  0  0  0
   59.2230   33.0970   47.4720 C   0  0  0  0  0  0  0  0  0  0  0  0
   59.3360   34.4870   47.6390 C   0  0  0  0  0  0  0  0  0  0  0  0
   59.3250   35.3380   46.5270 C   0  0  0  0  0  0  0  0  0  0  0  0
   59.2160   34.8100   45.2360 C   0  0  0  0  0  0  0  0  0  0  0  0
   59.1210   33.4290   45.0550 C   0  0  0  0  0  0  0  0  0  0  0  0
   59.1270   32.5660   46.1620 C   0  0  0  0  0  0  0  0  0  0  0  0
   59.0630   31.1490   45.9510 N   0  0  0  0  0  0  0  0  0  0  0  0
   60.2910   30.3580   46.1370 C   0  0  0  0  0  0  0  0  0  0  0  0
   60.0440   28.8400   46.3120 C   0  0  0  0  0  0  0  0  0  0  0  0
   58.5750   28.4820   46.5940 C   0  0  2  0  0  0  0  0  0  0  0  0
   58.4020   26.9870   46.6760 C   0  0  0  0  0  0  0  0  0  0  0  0
   59.4150   26.2330   46.6540 O   0  0  0  0  0  0  0  0  0  0  0  0
   57.0780   26.4330   46.6610 N   0  0  0  0  0  0  0  0  0  0  0  0
   56.6560   25.3780   46.0200 C   0  0  0  0  0  0  0  0  0  0  0  0
   57.4790   24.3150   45.7400 N   0  0  0  0  0  0  0  0  0  0  0  0
   57.0250   23.2240   45.0590 C   0  0  0  0  0  0  0  0  0  0  0  0
   55.6950   23.1600   44.6330 C   0  0  0  0  0  0  0  0  0  0  0  0
   54.8310   24.2190   44.9220 C   0  0  0  0  0  0  0  0  0  0  0  0
   55.3010   25.3210   45.6370 C   0  0  0  0  0  0  0  0  0  0  0  0
   54.4200   26.3410   45.9780 O   0  0  0  0  0  0  0  0  0  0  0  0
   57.6660   29.0720   45.5110 C   0  0  0  0  0  0  0  0  0  0  0  0
   57.8410   30.5550   45.4760 C   0  0  0  0  0  0  0  0  0  0  0  0
   56.9160   31.2780   45.0060 O   0  0  0  0  0  0  0  0  0  0  0  0
   59.2322   32.7987   49.5927 H   0  0  0  0  0  0  0  0  0  0  0  0
   58.3729   31.5288   48.6570 H   0  0  0  0  0  0  0  0  0  0  0  0
   60.1683   31.5842   48.6570 H   0  0  0  0  0  0  0  0  0  0  0  0
   59.4338   34.9098   48.6498 H   0  0  0  0  0  0  0  0  0  0  0  0
   59.4024   36.4260   46.6691 H   0  0  0  0  0  0  0  0  0  0  0  0
   59.2052   35.4818   44.3651 H   0  0  0  0  0  0  0  0  0  0  0  0
   59.0410   33.0148   44.0391 H   0  0  0  0  0  0  0  0  0  0  0  0
   60.9330   30.5043   45.2558 H   0  0  0  0  0  0  0  0  0  0  0  0
   60.7592   30.7127   47.0671 H   0  0  0  0  0  0  0  0  0  0  0  0
   60.3552   28.3287   45.3891 H   0  0  0  0  0  0  0  0  0  0  0  0
   60.6275   28.5177   47.1870 H   0  0  0  0  0  0  0  0  0  0  0  0
   58.2885   28.9158   47.5634 H   0  0  0  0  0  0  0  0  0  0  0  0
   58.4710   24.2840   46.0690 H   0  0  0  0  0  0  0  0  0  0  0  0
   57.7091   22.3899   44.8438 H   0  0  0  0  0  0  0  0  0  0  0  0
   55.3322   22.2839   44.0754 H   0  0  0  0  0  0  0  0  0  0  0  0
   53.7838   24.1842   44.5870 H   0  0  0  0  0  0  0  0  0  0  0  0
   57.9354   28.6467   44.5330 H   0  0  0  0  0  0  0  0  0  0  0  0
   56.6172   28.8292   45.7368 H   0  0  0  0  0  0  0  0  0  0  0  0
  1  2  1  0
  2  3  2  0
  3  4  1  0
  4  5  2  0
  5  6  1  0
  6  7  2  0
  7  8  1  0
  8  9  1  0
  9 10  1  0
 10 11  1  0
 11 12  1  0
 12 13  2  0
 12 14  1  0
 14 15  2  3
 15 16  1  0
 16 17  1  0
 17 18  2  0
 18 19  1  0
 19 20  2  0
 20 21  1  0
 11 22  1  0
 22 23  1  0
 23 24  2  0
  7  2  1  0
 23  8  1  0
 20 15  1  0
  1 25  1  0
  1 26  1  0
  1 27  1  0
  3 28  1  0
  4 29  1  0
  5 30  1  0
  6 31  1  0
  9 32  1  0
  9 33  1  0
 10 34  1  0
 10 35  1  0
 11 36  1  1
 16 37  1  0
 17 38  1  0
 18 39  1  0
 19 40  1  0
 22 41  1  0
 22 42  1  0
M  CHG  1  21  -1
M  END
>  <UniqueID>  (83) 
81

>  <SMILES>  (83) 
Cc1ccccc1N1CC[C@H](C(=O)N=c2[nH]cccc2[O-])CC1=O

>  <Energy>  (83) 
59.4053332199834

>  <Genealogy>  (83) 
Cc1ccccc1N1CCC(C(=O)N=c2[nH]cccc2[O-])CC1=O (protonated)
Cc1ccccc1N1CC[C@H](C(=O)N=c2[nH]cccc2[O-])CC1=O (chirality)
Cc1ccccc1N1CC[C@H](C(=O)N=c2[nH]cccc2[O-])CC1=O (3D coordinates assigned)
Cc1ccccc1N1CC[C@H](C(=O)N=c2[nH]cccc2[O-])CC1=O (nonaromatic ring conformer: 59.4053332199834 kcal/mol)

>  <smiles>  (83) 
Cc1ccccc1N1CCC(C(=O)N=c2[nH]cccc2O)CC1=O

>  <score_type>  (83) 
oracle

>  <origin>  (83) 
adg

>  <m_score__min__energy>  (83) 
-12.06

>  <m_primary>  (83) 
energy

$$$$
83:0
     RDKit          3D

 60 63  0  0  0  0  0  0  0  0999 V2000
   60.2780   26.4280   46.6420 C   0  0  0  0  0  0  0  0  0  0  0  0
   58.8080   26.3300   46.4010 C   0  0  0  0  0  0  0  0  0  0  0  0
   58.0650   25.1620   46.3670 C   0  0  0  0  0  0  0  0  0  0  0  0
   56.7760   25.4550   46.0970 N   0  0  0  0  0  0  0  0  0  0  0  0
   55.6880   24.5270   46.0500 C   0  0  0  0  0  0  0  0  0  0  0  0
   54.5840   24.8390   45.3140 N   0  0  0  0  0  0  0  0  0  0  0  0
   53.5030   24.0190   45.2620 C   0  0  0  0  0  0  0  0  0  0  0  0
   53.4980   22.8180   45.9730 C   0  0  0  0  0  0  0  0  0  0  0  0
   54.6090   22.4720   46.7390 C   0  0  0  0  0  0  0  0  0  0  0  0
   55.7300   23.3160   46.7830 C   0  0  0  0  0  0  0  0  0  0  0  0
   56.9290   22.9190   47.6240 C   0  0  0  0  0  0  0  0  0  0  0  0
   57.2070   21.4720   47.5690 N   0  0  0  0  0  0  0  0  0  0  0  0
   57.7400   21.0390   46.2580 C   0  0  2  0  0  0  0  0  0  0  0  0
   57.9630   22.2640   45.3360 C   0  0  0  0  0  0  0  0  0  0  0  0
   58.1110   21.8330   43.8740 C   0  0  0  0  0  0  0  0  0  0  0  0
   56.8310   21.1320   43.3460 C   0  0  2  0  0  0  0  0  0  0  0  0
   56.0800   22.0010   42.5370 O   0  0  0  0  0  0  0  0  0  0  0  0
   55.9450   20.5550   44.4740 C   0  0  0  0  0  0  0  0  0  0  0  0
   56.7950   19.9810   45.6120 C   0  0  0  0  0  0  0  0  0  0  0  0
   56.6960   26.7890   45.9320 C   0  0  0  0  0  0  0  0  0  0  0  0
   55.5200   27.4640   45.6230 O   0  0  0  0  0  0  0  0  0  0  0  0
   57.9350   27.3720   46.1200 C   0  0  0  0  0  0  0  0  0  0  0  0
   58.2690   28.8320   45.9990 C   0  0  0  0  0  0  0  0  0  0  0  0
   57.2600   29.5310   45.1830 N   0  0  0  0  0  0  0  0  0  0  0  0
   57.2250   29.0110   43.8130 C   0  0  0  0  0  0  0  0  0  0  0  0
   56.7220   30.1410   42.9250 C   0  0  0  0  0  0  0  0  0  0  0  0
   56.8820   31.4080   43.7490 C   0  0  0  0  0  0  0  0  0  0  0  0
   57.5420   30.9640   45.0440 C   0  0  0  0  0  0  0  0  0  0  0  0
   60.4720   26.4409   47.7247 H   0  0  0  0  0  0  0  0  0  0  0  0
   60.7823   25.5615   46.1894 H   0  0  0  0  0  0  0  0  0  0  0  0
   60.6628   27.3538   46.1894 H   0  0  0  0  0  0  0  0  0  0  0  0
   58.4643   24.1508   46.5344 H   0  0  0  0  0  0  0  0  0  0  0  0
   54.5560   25.7410   44.7880 H   0  0  0  0  0  0  0  0  0  0  0  0
   52.6286   24.3021   44.6577 H   0  0  0  0  0  0  0  0  0  0  0  0
   52.6247   22.1506   45.9289 H   0  0  0  0  0  0  0  0  0  0  0  0
   54.6079   21.5331   47.3121 H   0  0  0  0  0  0  0  0  0  0  0  0
   57.8124   23.4615   47.2561 H   0  0  0  0  0  0  0  0  0  0  0  0
   56.7016   23.1747   48.6694 H   0  0  0  0  0  0  0  0  0  0  0  0
   56.3240   20.9540   47.7970 H   0  0  0  0  0  0  0  0  0  0  0  0
   58.7182   20.5579   46.4051 H   0  0  0  0  0  0  0  0  0  0  0  0
   57.1018   22.9425   45.4252 H   0  0  0  0  0  0  0  0  0  0  0  0
   58.8883   22.7714   45.6464 H   0  0  0  0  0  0  0  0  0  0  0  0
   58.3086   22.7233   43.2589 H   0  0  0  0  0  0  0  0  0  0  0  0
   58.9430   21.1161   43.8120 H   0  0  0  0  0  0  0  0  0  0  0  0
   57.1768   20.2800   42.7422 H   0  0  0  0  0  0  0  0  0  0  0  0
   56.6480   22.2520   41.7640 H   0  0  0  0  0  0  0  0  0  0  0  0
   55.3062   21.3566   44.8732 H   0  0  0  0  0  0  0  0  0  0  0  0
   55.3338   19.7427   44.0538 H   0  0  0  0  0  0  0  0  0  0  0  0
   56.1222   19.5903   46.3897 H   0  0  0  0  0  0  0  0  0  0  0  0
   57.4290   19.1908   45.1836 H   0  0  0  0  0  0  0  0  0  0  0  0
   58.2956   29.2808   47.0029 H   0  0  0  0  0  0  0  0  0  0  0  0
   59.2496   28.9313   45.5106 H   0  0  0  0  0  0  0  0  0  0  0  0
   58.2333   28.7032   43.4991 H   0  0  0  0  0  0  0  0  0  0  0  0
   56.5682   28.1315   43.7418 H   0  0  0  0  0  0  0  0  0  0  0  0
   57.3217   30.2027   42.0049 H   0  0  0  0  0  0  0  0  0  0  0  0
   55.6777   29.9838   42.6174 H   0  0  0  0  0  0  0  0  0  0  0  0
   57.5188   32.1331   43.2210 H   0  0  0  0  0  0  0  0  0  0  0  0
   55.9170   31.9040   43.9298 H   0  0  0  0  0  0  0  0  0  0  0  0
   58.6275   31.1351   44.9958 H   0  0  0  0  0  0  0  0  0  0  0  0
   57.1555   31.5315   45.9034 H   0  0  0  0  0  0  0  0  0  0  0  0
  1  2  1  0
  2  3  2  0
  3  4  1  0
  4  5  1  0
  5  6  2  0
  6  7  1  0
  7  8  2  0
  8  9  1  0
  9 10  2  0
 10 11  1  0
 11 12  1  0
 12 13  1  0
 13 14  1  0
 14 15  1  0
 15 16  1  0
 16 17  1  0
 16 18  1  0
 18 19  1  0
  4 20  1  0
 20 21  1  0
 20 22  2  0
 22 23  1  0
 23 24  1  0
 24 25  1  0
 25 26  1  0
 26 27  1  0
 27 28  1  0
 22  2  1  0
 28 24  1  0
 10  5  1  0
 19 13  1  0
  1 29  1  0
  1 30  1  0
  1 31  1  0
  3 32  1  0
  6 33  1  0
  7 34  1  0
  8 35  1  0
  9 36  1  0
 11 37  1  0
 11 38  1  0
 12 39  1  0
 13 40  1  1
 14 41  1  0
 14 42  1  0
 15 43  1  0
 15 44  1  0
 16 45  1  6
 17 46  1  0
 18 47  1  0
 18 48  1  0
 19 49  1  0
 19 50  1  0
 23 51  1  0
 23 52  1  0
 25 53  1  0
 25 54  1  0
 26 55  1  0
 26 56  1  0
 27 57  1  0
 27 58  1  0
 28 59  1  0
 28 60  1  0
M  CHG  2   6   1  21  -1
M  END
>  <UniqueID>  (84) 
82

>  <SMILES>  (84) 
Cc1cn(-c2[nH+]cccc2CNC2CCC(O)CC2)c([O-])c1CN1CCCC1

>  <Energy>  (84) 
101.27439669900578

>  <Genealogy>  (84) 
Cc1cn(-c2[nH+]cccc2CNC2CCC(O)CC2)c([O-])c1CN1CCCC1 (protonated)
Cc1cn(-c2[nH+]cccc2CNC2CCC(O)CC2)c([O-])c1CN1CCCC1 (3D coordinates assigned)
Cc1cn(-c2[nH+]cccc2CNC2CCC(O)CC2)c([O-])c1CN1CCCC1 (nonaromatic ring conformer: 101.27439669900578 kcal/mol)

>  <smiles>  (84) 
Cc1cn(-c2ncccc2CNC2CCC(O)CC2)c(O)c1CN1CCCC1

>  <score_type>  (84) 
oracle

>  <origin>  (84) 
adg

>  <m_score__min__energy>  (84) 
-10.609999999999999

>  <m_primary>  (84) 
energy

$$$$
84:0
     RDKit          3D

 50 52  0  0  0  0  0  0  0  0999 V2000
   60.9940   31.4750   46.3790 O   0  0  0  0  0  0  0  0  0  0  0  0
   59.9990   30.7100   46.5020 C   0  0  0  0  0  0  0  0  0  0  0  0
   59.7260   29.6780   45.4510 C   0  0  0  0  0  0  0  0  0  0  0  0
   58.3700   29.8610   44.9100 N   0  0  0  0  0  0  0  0  0  0  0  0
   58.2110   30.5830   43.7590 C   0  0  0  0  0  0  0  0  0  0  0  0
   56.9490   30.7430   43.1930 C   0  0  0  0  0  0  0  0  0  0  0  0
   55.8580   30.1510   43.8180 C   0  0  0  0  0  0  0  0  0  0  0  0
   56.0410   29.4330   44.9550 N   0  0  0  0  0  0  0  0  0  0  0  0
   57.2750   29.2800   45.5020 C   0  0  0  0  0  0  0  0  0  0  0  0
   57.3960   28.5970   46.5550 O   0  0  0  0  0  0  0  0  0  0  0  0
   59.1660   30.7870   47.6680 N   0  0  0  0  0  0  0  0  0  0  0  0
   59.5570   31.5590   48.8500 C   0  0  1  0  0  0  0  0  0  0  0  0
   58.8250   32.9160   48.8710 C   0  0  0  0  0  0  0  0  0  0  0  0
   58.7010   33.5140   47.4910 C   0  0  0  0  0  0  0  0  0  0  0  0
   57.5600   33.2650   46.7100 C   0  0  0  0  0  0  0  0  0  0  0  0
   57.4580   33.7980   45.4210 C   0  0  0  0  0  0  0  0  0  0  0  0
   58.4900   34.5870   44.9070 C   0  0  0  0  0  0  0  0  0  0  0  0
   59.6280   34.8400   45.6760 C   0  0  0  0  0  0  0  0  0  0  0  0
   59.7400   34.2980   46.9600 C   0  0  0  0  0  0  0  0  0  0  0  0
   59.2590   30.7620   50.0880 C   0  0  0  0  0  0  0  0  0  0  0  0
   58.3140   29.9260   50.0910 O   0  0  0  0  0  0  0  0  0  0  0  0
   60.0500   30.9500   51.2280 O   0  0  0  0  0  0  0  0  0  0  0  0
   61.4690   30.8290   51.2230 C   0  0  0  0  0  0  0  0  0  0  0  0
   62.0720   31.8710   50.3240 C   0  0  0  0  0  0  0  0  0  0  0  0
   61.8540   33.2380   50.5620 C   0  0  0  0  0  0  0  0  0  0  0  0
   62.4060   34.1980   49.7080 C   0  0  0  0  0  0  0  0  0  0  0  0
   63.1740   33.8010   48.6100 C   0  0  0  0  0  0  0  0  0  0  0  0
   63.3830   32.4420   48.3590 C   0  0  0  0  0  0  0  0  0  0  0  0
   62.8290   31.4790   49.2080 C   0  0  0  0  0  0  0  0  0  0  0  0
   60.4600   29.7819   44.6384 H   0  0  0  0  0  0  0  0  0  0  0  0
   59.8055   28.6760   45.8979 H   0  0  0  0  0  0  0  0  0  0  0  0
   59.0872   31.0409   43.2767 H   0  0  0  0  0  0  0  0  0  0  0  0
   56.8181   31.3263   42.2696 H   0  0  0  0  0  0  0  0  0  0  0  0
   54.8499   30.2640   43.3927 H   0  0  0  0  0  0  0  0  0  0  0  0
   58.2940   30.2110   47.6940 H   0  0  0  0  0  0  0  0  0  0  0  0
   60.6373   31.7630   48.8145 H   0  0  0  0  0  0  0  0  0  0  0  0
   57.8170   32.7691   49.2861 H   0  0  0  0  0  0  0  0  0  0  0  0
   59.4135   33.6095   49.4897 H   0  0  0  0  0  0  0  0  0  0  0  0
   56.7436   32.6483   47.1140 H   0  0  0  0  0  0  0  0  0  0  0  0
   56.5648   33.5959   44.8116 H   0  0  0  0  0  0  0  0  0  0  0  0
   58.4061   35.0097   43.8949 H   0  0  0  0  0  0  0  0  0  0  0  0
   60.4368   35.4661   45.2713 H   0  0  0  0  0  0  0  0  0  0  0  0
   60.6446   34.4858   47.5570 H   0  0  0  0  0  0  0  0  0  0  0  0
   61.8496   30.9664   52.2459 H   0  0  0  0  0  0  0  0  0  0  0  0
   61.7443   29.8305   50.8526 H   0  0  0  0  0  0  0  0  0  0  0  0
   61.2470   33.5545   51.4230 H   0  0  0  0  0  0  0  0  0  0  0  0
   62.2354   35.2674   49.9008 H   0  0  0  0  0  0  0  0  0  0  0  0
   63.6138   34.5577   47.9436 H   0  0  0  0  0  0  0  0  0  0  0  0
   63.9841   32.1296   47.4924 H   0  0  0  0  0  0  0  0  0  0  0  0
   62.9867   30.4102   49.0010 H   0  0  0  0  0  0  0  0  0  0  0  0
  1  2  2  0
  2  3  1  0
  3  4  1  0
  4  5  1  0
  5  6  2  0
  6  7  1  0
  7  8  2  0
  8  9  1  0
  9 10  2  0
  2 11  1  0
 11 12  1  0
 12 13  1  0
 13 14  1  0
 14 15  2  0
 15 16  1  0
 16 17  2  0
 17 18  1  0
 18 19  2  0
 12 20  1  0
 20 21  2  0
 20 22  1  0
 22 23  1  0
 23 24  1  0
 24 25  2  0
 25 26  1  0
 26 27  2  0
 27 28  1  0
 28 29  2  0
  9  4  1  0
 19 14  1  0
 29 24  1  0
  3 30  1  0
  3 31  1  0
  5 32  1  0
  6 33  1  0
  7 34  1  0
 11 35  1  0
 12 36  1  6
 13 37  1  0
 13 38  1  0
 15 39  1  0
 16 40  1  0
 17 41  1  0
 18 42  1  0
 19 43  1  0
 23 44  1  0
 23 45  1  0
 25 46  1  0
 26 47  1  0
 27 48  1  0
 28 49  1  0
 29 50  1  0
M  END
>  <UniqueID>  (85) 
83

>  <SMILES>  (85) 
O=C(Cn1cccnc1=O)N[C@@H](Cc1ccccc1)C(=O)OCc1ccccc1

>  <Energy>  (85) 
43.651533706469294

>  <Genealogy>  (85) 
O=C(Cn1cccnc1=O)N[C@@H](Cc1ccccc1)C(=O)OCc1ccccc1 (chirality)
O=C(Cn1cccnc1=O)N[C@@H](Cc1ccccc1)C(=O)OCc1ccccc1 (3D coordinates assigned)
O=C(Cn1cccnc1=O)N[C@@H](Cc1ccccc1)C(=O)OCc1ccccc1 (optimized conformer: 43.651533706469294 kcal/mol)

>  <smiles>  (85) 
O=C(Cn1cccnc1=O)NC(Cc1ccccc1)C(=O)OCc1ccccc1

>  <score_type>  (85) 
oracle

>  <origin>  (85) 
adg

>  <m_score__min__energy>  (85) 
-8.6300000000000008

>  <m_primary>  (85) 
energy

$$$$
85:0
     RDKit          3D

 55 59  0  0  0  0  0  0  0  0999 V2000
   62.0490   33.6460   50.5590 C   0  0  0  0  0  0  0  0  0  0  0  0
   62.4160   33.6080   49.0980 C   0  0  0  0  0  0  0  0  0  0  0  0
   63.7620   33.4240   48.7480 C   0  0  0  0  0  0  0  0  0  0  0  0
   64.1420   33.3570   47.4060 C   0  0  0  0  0  0  0  0  0  0  0  0
   63.1830   33.4560   46.4020 C   0  0  0  0  0  0  0  0  0  0  0  0
   61.8420   33.6320   46.7300 C   0  0  0  0  0  0  0  0  0  0  0  0
   61.4410   33.7260   48.0730 C   0  0  0  0  0  0  0  0  0  0  0  0
   59.7450   34.1160   48.4310 S   0  0  0  0  0  0  0  0  0  0  0  0
   59.1610   34.8880   47.2800 O   0  0  0  0  0  0  0  0  0  0  0  0
   59.6440   34.9570   49.6800 O   0  0  0  0  0  0  0  0  0  0  0  0
   58.8430   32.6550   48.6690 N   0  0  0  0  0  0  0  0  0  0  0  0
   58.9580   31.5040   47.8190 C   0  0  0  0  0  0  0  0  0  0  0  0
   58.1170   31.3390   46.7090 C   0  0  0  0  0  0  0  0  0  0  0  0
   58.1430   30.1500   45.9630 C   0  0  0  0  0  0  0  0  0  0  0  0
   59.0630   29.1310   46.2780 C   0  0  0  0  0  0  0  0  0  0  0  0
   59.9200   29.3150   47.3840 C   0  0  0  0  0  0  0  0  0  0  0  0
   59.8780   30.4950   48.1380 C   0  0  0  0  0  0  0  0  0  0  0  0
   60.9720   30.6660   49.5560 S   0  0  0  0  0  0  0  0  0  0  0  0
   59.6100   30.6050   50.7210 C   0  0  0  0  0  0  0  0  0  0  0  0
   58.9700   29.3880   50.9960 C   0  0  0  0  0  0  0  0  0  0  0  0
   57.8870   29.3480   51.8800 C   0  0  0  0  0  0  0  0  0  0  0  0
   57.4410   30.5250   52.4920 C   0  0  0  0  0  0  0  0  0  0  0  0
   56.0740   30.4770   53.5920 Cl  0  0  0  0  0  0  0  0  0  0  0  0
   58.0870   31.7390   52.2300 C   0  0  0  0  0  0  0  0  0  0  0  0
   59.1720   31.7790   51.3470 C   0  0  0  0  0  0  0  0  0  0  0  0
   59.0600   27.9080   45.4880 N   0  0  0  0  0  0  0  0  0  0  0  0
   60.0590   26.8380   45.6430 C   0  0  0  0  0  0  0  0  0  0  0  0
   59.4490   25.6170   46.3740 C   0  0  0  0  0  0  0  0  0  0  0  0
   58.1570   25.9560   47.1370 C   0  0  0  0  0  0  0  0  0  0  0  0
   56.7960   26.5320   46.0290 S   0  0  0  0  0  0  0  0  0  0  0  0
   57.8180   27.4770   44.8340 C   0  0  1  0  0  0  0  0  0  0  0  0
   57.0640   28.6140   44.3060 N   0  0  0  0  0  0  0  0  0  0  0  0
   57.1700   29.9170   44.8830 C   0  0  0  0  0  0  0  0  0  0  0  0
   56.4180   30.8430   44.4760 O   0  0  0  0  0  0  0  0  0  0  0  0
   62.9599   33.5517   51.1684 H   0  0  0  0  0  0  0  0  0  0  0  0
   61.5521   34.6004   50.7875 H   0  0  0  0  0  0  0  0  0  0  0  0
   61.3671   32.8137   50.7875 H   0  0  0  0  0  0  0  0  0  0  0  0
   64.5235   33.3318   49.5364 H   0  0  0  0  0  0  0  0  0  0  0  0
   65.2017   33.2257   47.1416 H   0  0  0  0  0  0  0  0  0  0  0  0
   63.4859   33.3950   45.3463 H   0  0  0  0  0  0  0  0  0  0  0  0
   61.0894   33.6981   45.9305 H   0  0  0  0  0  0  0  0  0  0  0  0
   57.4307   32.1486   46.4202 H   0  0  0  0  0  0  0  0  0  0  0  0
   60.6306   28.5212   47.6578 H   0  0  0  0  0  0  0  0  0  0  0  0
   59.3205   28.4627   50.5154 H   0  0  0  0  0  0  0  0  0  0  0  0
   57.3862   28.3923   52.0941 H   0  0  0  0  0  0  0  0  0  0  0  0
   57.7416   32.6621   52.7185 H   0  0  0  0  0  0  0  0  0  0  0  0
   59.6811   32.7328   51.1445 H   0  0  0  0  0  0  0  0  0  0  0  0
   60.4090   26.5248   44.6483 H   0  0  0  0  0  0  0  0  0  0  0  0
   60.8981   27.2234   46.2408 H   0  0  0  0  0  0  0  0  0  0  0  0
   59.2224   24.8400   45.6291 H   0  0  0  0  0  0  0  0  0  0  0  0
   60.1873   25.2743   47.1139 H   0  0  0  0  0  0  0  0  0  0  0  0
   57.8179   25.0555   47.6700 H   0  0  0  0  0  0  0  0  0  0  0  0
   58.3892   26.7790   47.8289 H   0  0  0  0  0  0  0  0  0  0  0  0
   58.0806   26.8333   43.9815 H   0  0  0  0  0  0  0  0  0  0  0  0
   56.3350   28.4370   43.5780 H   0  0  0  0  0  0  0  0  0  0  0  0
  1  2  1  0
  2  3  2  0
  3  4  1  0
  4  5  2  0
  5  6  1  0
  6  7  2  0
  7  8  1  0
  8  9  2  0
  8 10  2  0
  8 11  1  0
 11 12  1  0
 12 13  2  0
 13 14  1  0
 14 15  2  0
 15 16  1  0
 16 17  2  0
 17 18  1  0
 18 19  1  0
 19 20  2  0
 20 21  1  0
 21 22  2  0
 22 23  1  0
 22 24  1  0
 24 25  2  0
 15 26  1  0
 26 27  1  0
 27 28  1  0
 28 29  1  0
 29 30  1  0
 30 31  1  0
 31 32  1  0
 32 33  1  0
 33 34  2  0
  7  2  1  0
 17 12  1  0
 25 19  1  0
 31 26  1  0
 33 14  1  0
  1 35  1  0
  1 36  1  0
  1 37  1  0
  3 38  1  0
  4 39  1  0
  5 40  1  0
  6 41  1  0
 13 42  1  0
 16 43  1  0
 20 44  1  0
 21 45  1  0
 24 46  1  0
 25 47  1  0
 27 48  1  0
 27 49  1  0
 28 50  1  0
 28 51  1  0
 29 52  1  0
 29 53  1  0
 31 54  1  6
 32 55  1  0
M  CHG  1  11  -1
M  END
>  <UniqueID>  (86) 
84

>  <SMILES>  (86) 
Cc1ccccc1S(=O)(=O)[N-]c1cc2c(cc1Sc1ccc(Cl)cc1)N1CCCS[C@H]1NC2=O

>  <Energy>  (86) 
69.71758151337623

>  <Genealogy>  (86) 
Cc1ccccc1S(=O)(=O)[N-]c1cc2c(cc1Sc1ccc(Cl)cc1)N1CCCSC1NC2=O (protonated)
Cc1ccccc1S(=O)(=O)[N-]c1cc2c(cc1Sc1ccc(Cl)cc1)N1CCCS[C@H]1NC2=O (chirality)
Cc1ccccc1S(=O)(=O)[N-]c1cc2c(cc1Sc1ccc(Cl)cc1)N1CCCS[C@H]1NC2=O (3D coordinates assigned)
Cc1ccccc1S(=O)(=O)[N-]c1cc2c(cc1Sc1ccc(Cl)cc1)N1CCCS[C@H]1NC2=O (nonaromatic ring conformer: 69.71758151337623 kcal/mol)

>  <smiles>  (86) 
Cc1ccccc1S(=O)(=O)Nc1cc2c(cc1Sc1ccc(Cl)cc1)N1CCCSC1NC2=O

>  <score_type>  (86) 
oracle

>  <origin>  (86) 
adg

>  <m_score__min__energy>  (86) 
-11.43

>  <m_primary>  (86) 
energy

$$$$
86:0
     RDKit          3D

 64 67  0  0  0  0  0  0  0  0999 V2000
   60.0350   34.9670   47.5560 C   0  0  0  0  0  0  0  0  0  0  0  0
   59.1700   33.9780   46.8210 C   0  0  0  0  0  0  0  0  0  0  0  0
   58.5030   34.3940   45.6550 C   0  0  0  0  0  0  0  0  0  0  0  0
   57.6880   33.5110   44.9480 C   0  0  0  0  0  0  0  0  0  0  0  0
   57.5470   32.1830   45.3720 C   0  0  0  0  0  0  0  0  0  0  0  0
   56.6970   31.2520   44.6830 N   0  0  0  0  0  0  0  0  0  0  0  0
   57.1150   30.1970   43.8040 C   0  0  0  0  0  0  0  0  0  0  0  0
   57.1740   30.4330   42.5700 O   0  0  0  0  0  0  0  0  0  0  0  0
   57.4670   28.8500   44.3040 C   0  0  0  0  0  0  0  0  0  0  0  0
   57.5110   28.5800   45.6820 C   0  0  0  0  0  0  0  0  0  0  0  0
   57.8760   27.3120   46.1420 C   0  0  0  0  0  0  0  0  0  0  0  0
   58.2100   26.2970   45.2320 C   0  0  0  0  0  0  0  0  0  0  0  0
   58.5900   24.9300   45.7220 C   0  0  0  0  0  0  0  0  0  0  0  0
   57.7830   24.5980   46.8910 N   0  0  0  0  0  0  0  0  0  0  0  0
   56.1360   24.3300   46.4130 S   0  0  0  0  0  0  0  0  0  0  0  0
   55.5150   25.6240   45.9560 O   0  0  0  0  0  0  0  0  0  0  0  0
   55.3620   23.8010   47.5890 O   0  0  0  0  0  0  0  0  0  0  0  0
   56.1030   23.1570   45.1210 N   0  0  0  0  0  0  0  0  0  0  0  0
   57.2150   22.2060   45.2800 C   0  0  0  0  0  0  0  0  0  0  0  0
   57.2070   21.1790   44.1280 C   0  0  0  0  0  0  0  0  0  0  0  0
   56.2630   21.5060   43.1240 O   0  0  0  0  0  0  0  0  0  0  0  0
   56.4710   22.8340   42.6860 C   0  0  0  0  0  0  0  0  0  0  0  0
   56.2010   23.8420   43.8210 C   0  0  0  0  0  0  0  0  0  0  0  0
   58.1300   26.5560   43.8550 C   0  0  0  0  0  0  0  0  0  0  0  0
   57.7610   27.8220   43.3940 C   0  0  0  0  0  0  0  0  0  0  0  0
   58.1940   31.7650   46.5390 C   0  0  0  0  0  0  0  0  0  0  0  0
   59.0180   32.6410   47.2660 C   0  0  0  0  0  0  0  0  0  0  0  0
   59.7890   32.0550   48.7520 S   0  0  0  0  0  0  0  0  0  0  0  0
   59.9260   33.1890   49.7320 O   0  0  0  0  0  0  0  0  0  0  0  0
   58.9110   30.9880   49.3490 O   0  0  0  0  0  0  0  0  0  0  0  0
   61.3720   31.3940   48.3840 N   0  0  0  0  0  0  0  0  0  0  0  0
   61.8880   31.8970   47.0900 C   0  0  0  0  0  0  0  0  0  0  0  0
   62.9080   33.0390   47.2620 C   0  0  0  0  0  0  0  0  0  0  0  0
   62.5780   33.8300   48.3810 O   0  0  0  0  0  0  0  0  0  0  0  0
   62.7570   33.0980   49.5840 C   0  0  0  0  0  0  0  0  0  0  0  0
   62.3270   31.6150   49.4830 C   0  0  0  0  0  0  0  0  0  0  0  0
   59.9123   34.8268   48.6401 H   0  0  0  0  0  0  0  0  0  0  0  0
   61.0884   34.8071   47.2825 H   0  0  0  0  0  0  0  0  0  0  0  0
   59.7363   35.9897   47.2825 H   0  0  0  0  0  0  0  0  0  0  0  0
   58.6256   35.4269   45.2970 H   0  0  0  0  0  0  0  0  0  0  0  0
   57.1526   33.8589   44.0522 H   0  0  0  0  0  0  0  0  0  0  0  0
   57.2567   29.3711   46.4028 H   0  0  0  0  0  0  0  0  0  0  0  0
   57.9017   27.1083   47.2227 H   0  0  0  0  0  0  0  0  0  0  0  0
   58.4086   24.1909   44.9278 H   0  0  0  0  0  0  0  0  0  0  0  0
   59.6560   24.9177   45.9932 H   0  0  0  0  0  0  0  0  0  0  0  0
   58.1676   22.7559   45.2699 H   0  0  0  0  0  0  0  0  0  0  0  0
   57.0985   21.6741   46.2358 H   0  0  0  0  0  0  0  0  0  0  0  0
   58.2089   21.1475   43.6750 H   0  0  0  0  0  0  0  0  0  0  0  0
   56.9262   20.2024   44.5492 H   0  0  0  0  0  0  0  0  0  0  0  0
   57.5127   22.9423   42.3497 H   0  0  0  0  0  0  0  0  0  0  0  0
   55.7744   23.0426   41.8606 H   0  0  0  0  0  0  0  0  0  0  0  0
   57.0244   24.5704   43.8590 H   0  0  0  0  0  0  0  0  0  0  0  0
   55.2467   24.3505   43.6193 H   0  0  0  0  0  0  0  0  0  0  0  0
   58.3593   25.7572   43.1343 H   0  0  0  0  0  0  0  0  0  0  0  0
   57.7005   28.0145   42.3127 H   0  0  0  0  0  0  0  0  0  0  0  0
   58.0557   30.7331   46.8940 H   0  0  0  0  0  0  0  0  0  0  0  0
   62.3754   31.0665   46.5584 H   0  0  0  0  0  0  0  0  0  0  0  0
   61.0338   32.2960   46.5233 H   0  0  0  0  0  0  0  0  0  0  0  0
   63.9110   32.6104   47.4046 H   0  0  0  0  0  0  0  0  0  0  0  0
   62.8906   33.6707   46.3617 H   0  0  0  0  0  0  0  0  0  0  0  0
   63.8224   33.1324   49.8555 H   0  0  0  0  0  0  0  0  0  0  0  0
   62.1135   33.5670   50.3429 H   0  0  0  0  0  0  0  0  0  0  0  0
   63.2199   30.9969   49.3080 H   0  0  0  0  0  0  0  0  0  0  0  0
   61.8320   31.3385   50.4256 H   0  0  0  0  0  0  0  0  0  0  0  0
  1  2  1  0
  2  3  2  0
  3  4  1  0
  4  5  2  0
  5  6  1  0
  6  7  1  0
  7  8  2  0
  7  9  1  0
  9 10  2  0
 10 11  1  0
 11 12  2  0
 12 13  1  0
 13 14  1  0
 14 15  1  0
 15 16  2  0
 15 17  2  0
 15 18  1  0
 18 19  1  0
 19 20  1  0
 20 21  1  0
 21 22  1  0
 22 23  1  0
 12 24  1  0
 24 25  2  0
  5 26  1  0
 26 27  2  0
 27 28  1  0
 28 29  2  0
 28 30  2  0
 28 31  1  0
 31 32  1  0
 32 33  1  0
 33 34  1  0
 34 35  1  0
 35 36  1  0
 27  2  1  0
 36 31  1  0
 25  9  1  0
 23 18  1  0
  1 37  1  0
  1 38  1  0
  1 39  1  0
  3 40  1  0
  4 41  1  0
 10 42  1  0
 11 43  1  0
 13 44  1  0
 13 45  1  0
 19 46  1  0
 19 47  1  0
 20 48  1  0
 20 49  1  0
 22 50  1  0
 22 51  1  0
 23 52  1  0
 23 53  1  0
 24 54  1  0
 25 55  1  0
 26 56  1  0
 32 57  1  0
 32 58  1  0
 33 59  1  0
 33 60  1  0
 35 61  1  0
 35 62  1  0
 36 63  1  0
 36 64  1  0
M  CHG  2   6  -1  14  -1
M  END
>  <UniqueID>  (87) 
85

>  <SMILES>  (87) 
Cc1ccc([N-]C(=O)c2ccc(C[N-]S(=O)(=O)N3CCOCC3)cc2)cc1S(=O)(=O)N1CCOCC1

>  <Energy>  (87) 
89.33325027473427

>  <Genealogy>  (87) 
Cc1ccc([N-]C(=O)c2ccc(C[N-]S(=O)(=O)N3CCOCC3)cc2)cc1S(=O)(=O)N1CCOCC1 (protonated)
Cc1ccc([N-]C(=O)c2ccc(C[N-]S(=O)(=O)N3CCOCC3)cc2)cc1S(=O)(=O)N1CCOCC1 (3D coordinates assigned)
Cc1ccc([N-]C(=O)c2ccc(C[N-]S(=O)(=O)N3CCOCC3)cc2)cc1S(=O)(=O)N1CCOCC1 (nonaromatic ring conformer: 89.33325027473427 kcal/mol)

>  <smiles>  (87) 
Cc1ccc(NC(=O)c2ccc(CNS(=O)(=O)N3CCOCC3)cc2)cc1S(=O)(=O)N1CCOCC1

>  <score_type>  (87) 
oracle

>  <origin>  (87) 
adg

>  <m_score__min__energy>  (87) 
-14.27

>  <m_primary>  (87) 
energy

$$$$
87:0
     RDKit          3D

 60 63  0  0  1  0  0  0  0  0999 V2000
   56.8810   25.8200   45.6530 C   0  0  0  0  0  0  0  0  0  0  0  0
   57.3900   27.1840   45.9550 C   0  0  0  0  0  0  0  0  0  0  0  0
   58.3100   27.3880   46.9630 C   0  0  0  0  0  0  0  0  0  0  0  0
   58.7980   28.6420   47.2630 C   0  0  0  0  0  0  0  0  0  0  0  0
   59.6590   28.8040   48.2110 N   0  0  0  0  0  0  0  0  0  0  0  0
   59.6200   29.9890   49.0550 C   0  0  0  0  0  0  0  0  0  0  0  0
   60.8740   30.7410   48.6870 C   0  0  0  0  0  0  0  0  0  0  0  0
   61.9050   30.8950   49.6110 C   0  0  0  0  0  0  0  0  0  0  0  0
   63.0690   31.5760   49.3120 C   0  0  0  0  0  0  0  0  0  0  0  0
   63.2140   32.1190   48.0590 C   0  0  0  0  0  0  0  0  0  0  0  0
   62.2130   31.9850   47.1200 C   0  0  0  0  0  0  0  0  0  0  0  0
   61.0410   31.2940   47.4340 C   0  0  0  0  0  0  0  0  0  0  0  0
   58.3410   29.6720   46.5300 N   0  0  0  0  0  0  0  0  0  0  0  0
   57.4450   29.4600   45.5520 C   0  0  0  0  0  0  0  0  0  0  0  0
   57.0220   30.4660   44.8620 N   0  0  0  0  0  0  0  0  0  0  0  0
   57.8050   31.1990   43.9150 C   0  0  0  0  0  0  0  0  0  0  0  0
   57.5340   32.7010   44.0210 C   0  0  0  0  0  0  0  0  0  0  0  0
   58.1220   33.2440   45.2800 C   0  0  0  0  0  0  0  0  0  0  0  0
   58.9680   34.3480   45.1150 C   0  0  0  0  0  0  0  0  0  0  0  0
   59.5310   34.8800   46.2550 C   0  0  0  0  0  0  0  0  0  0  0  0
   59.2880   34.3660   47.5170 C   0  0  0  0  0  0  0  0  0  0  0  0
   59.8420   34.8820   48.6700 O   0  0  0  0  0  0  0  0  0  0  0  0
   60.8830   34.2030   49.3640 C   0  0  0  0  0  0  0  0  0  0  0  0
   60.4720   33.8240   50.7460 C   0  0  0  0  0  0  0  0  0  0  0  0
   61.4650   33.4640   51.6370 C   0  0  0  0  0  0  0  0  0  0  0  0
   61.1490   33.1040   52.9330 C   0  0  0  0  0  0  0  0  0  0  0  0
   59.8090   33.1120   53.3150 C   0  0  0  0  0  0  0  0  0  0  0  0
   58.8440   33.4810   52.3850 C   0  0  0  0  0  0  0  0  0  0  0  0
   59.1890   33.8270   51.1340 N   0  0  0  0  0  0  0  0  0  0  0  0
   58.4450   33.2700   47.6540 C   0  0  0  0  0  0  0  0  0  0  0  0
   58.1740   32.7200   48.9140 O   0  0  0  0  0  0  0  0  0  0  0  0
   57.8630   32.7120   46.5230 C   0  0  0  0  0  0  0  0  0  0  0  0
   56.9580   28.2420   45.2450 N   0  0  0  0  0  0  0  0  0  0  0  0
   56.6818   25.2863   46.5940 H   0  0  0  0  0  0  0  0  0  0  0  0
   55.9508   25.8963   45.0708 H   0  0  0  0  0  0  0  0  0  0  0  0
   57.6338   25.2683   45.0708 H   0  0  0  0  0  0  0  0  0  0  0  0
   58.6646   26.5243   47.5446 H   0  0  0  0  0  0  0  0  0  0  0  0
   58.7254   30.5922   48.8408 H   0  0  0  0  0  0  0  0  0  0  0  0
   59.5725   29.7441   50.1263 H   0  0  0  0  0  0  0  0  0  0  0  0
   61.7881   30.4589   50.6141 H   0  0  0  0  0  0  0  0  0  0  0  0
   63.8651   31.6814   50.0637 H   0  0  0  0  0  0  0  0  0  0  0  0
   64.1344   32.6642   47.8028 H   0  0  0  0  0  0  0  0  0  0  0  0
   62.3384   32.4243   46.1194 H   0  0  0  0  0  0  0  0  0  0  0  0
   60.2475   31.1901   46.6793 H   0  0  0  0  0  0  0  0  0  0  0  0
   58.6830   30.6360   46.7230 H   0  0  0  0  0  0  0  0  0  0  0  0
   58.8714   31.0118   44.1091 H   0  0  0  0  0  0  0  0  0  0  0  0
   57.5317   30.8653   42.9031 H   0  0  0  0  0  0  0  0  0  0  0  0
   57.9857   33.2133   43.1587 H   0  0  0  0  0  0  0  0  0  0  0  0
   56.4470   32.8693   44.0312 H   0  0  0  0  0  0  0  0  0  0  0  0
   59.1737   34.7712   44.1207 H   0  0  0  0  0  0  0  0  0  0  0  0
   60.2001   35.7477   46.1581 H   0  0  0  0  0  0  0  0  0  0  0  0
   61.1456   33.2909   48.8080 H   0  0  0  0  0  0  0  0  0  0  0  0
   61.7445   34.8830   49.4380 H   0  0  0  0  0  0  0  0  0  0  0  0
   62.5158   33.4640   51.3118 H   0  0  0  0  0  0  0  0  0  0  0  0
   61.9363   32.8180   53.6460 H   0  0  0  0  0  0  0  0  0  0  0  0
   59.5189   32.8303   54.3380 H   0  0  0  0  0  0  0  0  0  0  0  0
   57.7837   33.4897   52.6776 H   0  0  0  0  0  0  0  0  0  0  0  0
   58.5430   33.1620   49.7390 H   0  0  0  0  0  0  0  0  0  0  0  0
   57.1944   31.8440   46.6206 H   0  0  0  0  0  0  0  0  0  0  0  0
   56.2550   28.1560   44.4600 H   0  0  0  0  0  0  0  0  0  0  0  0
  1  2  1  0
  2  3  2  0
  3  4  1  0
  4  5  2  0
  5  6  1  0
  6  7  1  0
  7  8  2  0
  8  9  1  0
  9 10  2  0
 10 11  1  0
 11 12  2  0
  4 13  1  0
 13 14  1  0
 14 15  2  0
 15 16  1  0
 16 17  1  0
 17 18  1  0
 18 19  2  0
 19 20  1  0
 20 21  2  0
 21 22  1  0
 22 23  1  0
 23 24  1  0
 24 25  2  0
 25 26  1  0
 26 27  2  0
 27 28  1  0
 28 29  2  0
 21 30  1  0
 30 31  1  0
 30 32  2  0
 14 33  1  0
 33  2  1  0
 12  7  1  0
 32 18  1  0
 29 24  1  0
  1 34  1  0
  1 35  1  0
  1 36  1  0
  3 37  1  0
  6 38  1  0
  6 39  1  0
  8 40  1  0
  9 41  1  0
 10 42  1  0
 11 43  1  0
 12 44  1  0
 13 45  1  0
 16 46  1  0
 16 47  1  0
 17 48  1  0
 17 49  1  0
 19 50  1  0
 20 51  1  0
 23 52  1  0
 23 53  1  0
 25 54  1  0
 26 55  1  0
 27 56  1  0
 28 57  1  0
 31 58  1  0
 32 59  1  0
 33 60  1  0
M  END
>  <smiles>  (88) 
Cc1cc(=NCc2ccccc2)[nH]c(=NCCc2ccc(OCc3ccccn3)c(O)c2)[nH]1

>  <score_type>  (88) 
oracle

>  <origin>  (88) 
adg

>  <m_score__min__energy>  (88) 
-10.65

>  <m_primary>  (88) 
energy

$$$$
88:0
     RDKit          3D

 49 52  0  0  0  0  0  0  0  0999 V2000
   65.9300   35.4170   52.3400 C   0  0  0  0  0  0  0  0  0  0  0  0
   66.5080   34.4690   51.3920 N   0  0  0  0  0  0  0  0  0  0  0  0
   67.9090   34.0830   51.3880 C   0  0  0  0  0  0  0  0  0  0  0  0
   67.9430   32.8170   50.5220 C   0  0  0  0  0  0  0  0  0  0  0  0
   66.5540   32.5610   50.1670 N   0  0  0  0  0  0  0  0  0  0  0  0
   65.7970   33.4890   50.6450 C   0  0  0  0  0  0  0  0  0  0  0  0
   64.3320   33.4770   50.4500 C   0  0  0  0  0  0  0  0  0  0  0  0
   63.7970   33.5090   49.1520 C   0  0  0  0  0  0  0  0  0  0  0  0
   62.4140   33.5080   48.9530 C   0  0  0  0  0  0  0  0  0  0  0  0
   61.5390   33.4790   50.0540 C   0  0  0  0  0  0  0  0  0  0  0  0
   62.0750   33.4650   51.3530 C   0  0  0  0  0  0  0  0  0  0  0  0
   63.4590   33.4780   51.5490 C   0  0  0  0  0  0  0  0  0  0  0  0
   61.2160   33.4570   52.4570 O   0  0  0  0  0  0  0  0  0  0  0  0
   59.8210   33.1910   52.3180 C   0  0  0  0  0  0  0  0  0  0  0  0
   59.2710   33.8620   51.0560 C   0  0  0  0  0  0  0  0  0  0  0  0
   60.1030   33.5080   49.8970 N   0  0  0  0  0  0  0  0  0  0  0  0
   59.4780   33.3600   48.6110 C   0  0  0  0  0  0  0  0  0  0  0  0
   59.2930   34.4840   47.7950 C   0  0  0  0  0  0  0  0  0  0  0  0
   58.6910   34.3580   46.5400 C   0  0  0  0  0  0  0  0  0  0  0  0
   58.2610   33.1010   46.0810 C   0  0  0  0  0  0  0  0  0  0  0  0
   57.6370   32.9290   44.7940 N   0  0  0  0  0  0  0  0  0  0  0  0
   57.4180   31.3980   44.0020 S   0  0  0  0  0  0  0  0  0  0  0  0
   57.3530   31.6230   42.2370 C   0  0  0  0  0  0  0  0  0  0  0  0
   58.5870   30.5130   44.3280 O   0  0  0  0  0  0  0  0  0  0  0  0
   56.1620   30.7370   44.4950 O   0  0  0  0  0  0  0  0  0  0  0  0
   58.4310   31.9800   46.9090 C   0  0  0  0  0  0  0  0  0  0  0  0
   59.0330   32.1030   48.1670 C   0  0  0  0  0  0  0  0  0  0  0  0
   59.1860   30.6740   49.1810 Cl  0  0  0  0  0  0  0  0  0  0  0  0
   66.1354   35.0801   53.3668 H   0  0  0  0  0  0  0  0  0  0  0  0
   66.3764   36.4101   52.1837 H   0  0  0  0  0  0  0  0  0  0  0  0
   64.8427   35.4750   52.1837 H   0  0  0  0  0  0  0  0  0  0  0  0
   68.5316   34.8753   50.9468 H   0  0  0  0  0  0  0  0  0  0  0  0
   68.3043   33.9140   52.4005 H   0  0  0  0  0  0  0  0  0  0  0  0
   68.5478   32.9836   49.6184 H   0  0  0  0  0  0  0  0  0  0  0  0
   68.3953   31.9668   51.0536 H   0  0  0  0  0  0  0  0  0  0  0  0
   64.4726   33.5351   48.2843 H   0  0  0  0  0  0  0  0  0  0  0  0
   62.0077   33.5300   47.9310 H   0  0  0  0  0  0  0  0  0  0  0  0
   63.8664   33.4891   52.5707 H   0  0  0  0  0  0  0  0  0  0  0  0
   59.6648   32.1044   52.2478 H   0  0  0  0  0  0  0  0  0  0  0  0
   59.2926   33.5939   53.1946 H   0  0  0  0  0  0  0  0  0  0  0  0
   58.2396   33.5215   50.8820 H   0  0  0  0  0  0  0  0  0  0  0  0
   59.2848   34.9536   51.1913 H   0  0  0  0  0  0  0  0  0  0  0  0
   59.6241   35.4730   48.1448 H   0  0  0  0  0  0  0  0  0  0  0  0
   58.5529   35.2476   45.9079 H   0  0  0  0  0  0  0  0  0  0  0  0
   57.2280   33.7630   44.3160 H   0  0  0  0  0  0  0  0  0  0  0  0
   57.0543   32.6570   42.0099 H   0  0  0  0  0  0  0  0  0  0  0  0
   58.3451   31.4248   41.8053 H   0  0  0  0  0  0  0  0  0  0  0  0
   56.6194   30.9262   41.8053 H   0  0  0  0  0  0  0  0  0  0  0  0
   58.0871   30.9933   46.5652 H   0  0  0  0  0  0  0  0  0  0  0  0
  1  2  1  0
  2  3  1  0
  3  4  1  0
  4  5  1  0
  5  6  2  0
  6  7  1  0
  7  8  2  0
  8  9  1  0
  9 10  2  0
 10 11  1  0
 11 12  2  0
 11 13  1  0
 13 14  1  0
 14 15  1  0
 15 16  1  0
 16 17  1  0
 17 18  2  0
 18 19  1  0
 19 20  2  0
 20 21  1  0
 21 22  1  0
 22 23  1  0
 22 24  2  0
 22 25  2  0
 20 26  1  0
 26 27  2  0
 27 28  1  0
  6  2  1  0
 12  7  1  0
 27 17  1  0
 16 10  1  0
  1 29  1  0
  1 30  1  0
  1 31  1  0
  3 32  1  0
  3 33  1  0
  4 34  1  0
  4 35  1  0
  8 36  1  0
  9 37  1  0
 12 38  1  0
 14 39  1  0
 14 40  1  0
 15 41  1  0
 15 42  1  0
 18 43  1  0
 19 44  1  0
 21 45  1  0
 23 46  1  0
 23 47  1  0
 23 48  1  0
 26 49  1  0
M  END
>  <UniqueID>  (89) 
86

>  <SMILES>  (89) 
CN1CCN=C1c1ccc2c(c1)OCCN2c1ccc(NS(C)(=O)=O)cc1Cl

>  <Energy>  (89) 
73.31247666796753

>  <Genealogy>  (89) 
CN1CCN=C1c1ccc2c(c1)OCCN2c1ccc(NS(C)(=O)=O)cc1Cl (3D coordinates assigned)
CN1CCN=C1c1ccc2c(c1)OCCN2c1ccc(NS(C)(=O)=O)cc1Cl (nonaromatic ring conformer: 73.31247666796753 kcal/mol)

>  <smiles>  (89) 
CN1CCN=C1c1ccc2c(c1)OCCN2c1ccc(NS(C)(=O)=O)cc1Cl

>  <score_type>  (89) 
oracle

>  <origin>  (89) 
adg

>  <m_score__min__energy>  (89) 
-8.1899999999999995

>  <m_primary>  (89) 
energy

$$$$
89:0
     RDKit          3D

 37 38  0  0  0  0  0  0  0  0999 V2000
   57.6890   28.0640   47.4510 H   0  0  0  0  0  0  0  0  0  0  0  0
   57.4320   27.1520   47.0120 N   0  0  0  0  0  0  0  0  0  0  0  0
   56.9540   27.0650   45.8080 C   0  0  0  0  0  0  0  0  0  0  0  0
   56.6770   25.7250   45.2320 C   0  0  0  0  0  0  0  0  0  0  0  0
   57.5630   25.1550   44.2990 C   0  0  0  0  0  0  0  0  0  0  0  0
   58.4639   25.7078   43.9943 H   0  0  0  0  0  0  0  0  0  0  0  0
   57.3080   23.8920   43.7560 C   0  0  0  0  0  0  0  0  0  0  0  0
   58.0065   23.4631   43.0224 H   0  0  0  0  0  0  0  0  0  0  0  0
   56.1730   23.1690   44.1370 C   0  0  0  0  0  0  0  0  0  0  0  0
   55.9620   21.9070   43.5630 O   0  0  0  0  0  0  0  0  0  0  0  0
   56.9920   21.0920   43.0140 C   0  0  0  0  0  0  0  0  0  0  0  0
   57.5709   20.6339   43.8295 H   0  0  0  0  0  0  0  0  0  0  0  0
   56.5432   20.3018   42.3942 H   0  0  0  0  0  0  0  0  0  0  0  0
   57.6578   21.7105   42.3942 H   0  0  0  0  0  0  0  0  0  0  0  0
   55.2890   23.7290   45.0780 C   0  0  0  0  0  0  0  0  0  0  0  0
   54.3944   23.1692   45.3883 H   0  0  0  0  0  0  0  0  0  0  0  0
   55.5410   24.9930   45.6210 C   0  0  0  0  0  0  0  0  0  0  0  0
   54.8446   25.4182   46.3587 H   0  0  0  0  0  0  0  0  0  0  0  0
   56.7150   28.2550   45.0410 N   0  0  0  0  0  0  0  0  0  0  0  0
   56.5100   28.1770   44.0190 H   0  0  0  0  0  0  0  0  0  0  0  0
   56.8040   29.5000   45.6310 O   0  0  0  0  0  0  0  0  0  0  0  0
   58.0310   30.1120   45.9080 C   0  0  0  0  0  0  0  0  0  0  0  0
   58.9750   29.4400   46.4040 O   0  0  0  0  0  0  0  0  0  0  0  0
   58.2050   31.5490   45.6110 C   0  0  0  0  0  0  0  0  0  0  0  0
   57.9230   32.1640   44.3830 C   0  0  0  0  0  0  0  0  0  0  0  0
   57.3940   31.5150   43.1420 C   0  0  0  0  0  0  0  0  0  0  0  0
   56.7213   30.6897   43.4181 H   0  0  0  0  0  0  0  0  0  0  0  0
   56.8398   32.2567   42.5480 H   0  0  0  0  0  0  0  0  0  0  0  0
   58.2322   31.1218   42.5480 H   0  0  0  0  0  0  0  0  0  0  0  0
   58.2540   33.8090   44.5130 S   0  0  0  0  0  0  0  0  0  0  0  0
   58.7800   33.7600   46.1060 C   0  0  0  0  0  0  0  0  0  0  0  0
   59.1740   34.9480   46.9180 C   0  0  0  0  0  0  0  0  0  0  0  0
   59.0932   34.7042   47.9876 H   0  0  0  0  0  0  0  0  0  0  0  0
   60.2122   35.2251   46.6825 H   0  0  0  0  0  0  0  0  0  0  0  0
   58.5072   35.7906   46.6825 H   0  0  0  0  0  0  0  0  0  0  0  0
   58.6780   32.4570   46.5750 C   0  0  0  0  0  0  0  0  0  0  0  0
   58.9418   32.1633   47.6017 H   0  0  0  0  0  0  0  0  0  0  0  0
  1  2  1  0
  2  3  2  0
  3  4  1  0
  4  5  2  0
  5  6  1  0
  5  7  1  0
  7  8  1  0
  7  9  2  0
  9 10  1  0
 10 11  1  0
 11 12  1  0
 11 13  1  0
 11 14  1  0
  9 15  1  0
 15 16  1  0
 15 17  2  0
 17 18  1  0
  3 19  1  0
 19 20  1  0
 19 21  1  0
 21 22  1  0
 22 23  2  0
 22 24  1  0
 24 25  2  0
 25 26  1  0
 26 27  1  0
 26 28  1  0
 26 29  1  0
 25 30  1  0
 30 31  1  0
 31 32  1  0
 32 33  1  0
 32 34  1  0
 32 35  1  0
 31 36  2  0
 36 37  1  0
 17  4  1  0
 36 24  1  0
M  END
>  <UniqueID>  (90) 
87

>  <SMILES>  (90) 
[H]/N=C(\NOC(=O)c1cc(C)sc1C)c1ccc(OC)cc1

>  <Energy>  (90) 
61.580395276682204

>  <Genealogy>  (90) 
[H]/N=C(\NOC(=O)c1cc(C)sc1C)c1ccc(OC)cc1 (cis-trans isomerization)
[H]/N=C(\NOC(=O)c1cc(C)sc1C)c1ccc(OC)cc1 (3D coordinates assigned)
[H]/N=C(\NOC(=O)c1cc(C)sc1C)c1ccc(OC)cc1 (optimized conformer: 61.580395276682204 kcal/mol)

>  <smiles>  (90) 
COc1ccc(C(=N)NOC(=O)c2cc(C)sc2C)cc1

>  <score_type>  (90) 
oracle

>  <origin>  (90) 
adg

>  <m_score__min__energy>  (90) 
-7.5

>  <m_primary>  (90) 
energy

$$$$
