0:0
     RDKit          3D

 58 60  0  0  0  0  0  0  0  0999 V2000
   56.0330   23.3950   41.8920 H   0  0  0  0  0  0  0  0  0  0  0  0
   55.7040   22.8140   42.6950 N   0  0  0  0  0  0  0  0  0  0  0  0
   56.5060   22.0310   43.3460 C   0  0  0  0  0  0  0  0  0  0  0  0
   57.6280   22.6130   44.1230 C   0  0  0  0  0  0  0  0  0  0  0  0
   58.8650   21.9500   44.2110 C   0  0  0  0  0  0  0  0  0  0  0  0
   59.0092   20.9920   43.6901 H   0  0  0  0  0  0  0  0  0  0  0  0
   59.9120   22.4990   44.9550 C   0  0  0  0  0  0  0  0  0  0  0  0
   60.8745   21.9703   45.0189 H   0  0  0  0  0  0  0  0  0  0  0  0
   59.7420   23.7160   45.6180 C   0  0  0  0  0  0  0  0  0  0  0  0
   60.5691   24.1399   46.2065 H   0  0  0  0  0  0  0  0  0  0  0  0
   58.5180   24.4010   45.5360 C   0  0  0  0  0  0  0  0  0  0  0  0
   58.3070   25.6370   46.2400 N   0  0  0  0  0  0  0  0  0  0  0  0
   58.0690   25.5890   47.2570 H   0  0  0  0  0  0  0  0  0  0  0  0
   58.4450   26.9400   45.6530 C   0  0  0  0  0  0  0  0  0  0  0  0
   58.9310   28.0170   46.4730 N   0  0  0  0  0  0  0  0  0  0  0  0
   59.5710   27.7700   47.2610 H   0  0  0  0  0  0  0  0  0  0  0  0
   58.6030   29.4030   46.2780 C   0  0  0  0  0  0  0  0  0  0  0  0
   57.9970   29.8050   45.0800 C   0  0  0  0  0  0  0  0  0  0  0  0
   57.7683   29.0574   44.3062 H   0  0  0  0  0  0  0  0  0  0  0  0
   57.6810   31.1490   44.8610 C   0  0  0  0  0  0  0  0  0  0  0  0
   57.1909   31.4486   43.9229 H   0  0  0  0  0  0  0  0  0  0  0  0
   57.9850   32.1210   45.8310 C   0  0  0  0  0  0  0  0  0  0  0  0
   57.6340   33.5430   45.6070 C   0  0  0  0  0  0  0  0  0  0  0  0
   56.6720   33.8380   44.8440 O   0  0  0  0  0  0  0  0  0  0  0  0
   58.4240   34.5830   46.2070 N   0  0  0  0  0  0  0  0  0  0  0  0
   59.6930   34.8190   46.0260 C   0  0  0  0  0  0  0  0  0  0  0  0
   59.9909   35.3488   45.1092 H   0  0  0  0  0  0  0  0  0  0  0  0
   60.7590   34.4220   46.9710 C   0  0  0  0  0  0  0  0  0  0  0  0
   60.5620   34.4910   48.3590 C   0  0  0  0  0  0  0  0  0  0  0  0
   59.6164   34.8860   48.7587 H   0  0  0  0  0  0  0  0  0  0  0  0
   61.5620   34.0600   49.2360 C   0  0  0  0  0  0  0  0  0  0  0  0
   61.4050   34.1356   50.3221 H   0  0  0  0  0  0  0  0  0  0  0  0
   62.7660   33.5310   48.7410 C   0  0  0  0  0  0  0  0  0  0  0  0
   63.8430   33.0590   49.7060 C   0  0  2  0  0  0  0  0  0  0  0  0
   64.2717   33.9537   50.1810 H   0  0  0  0  0  0  0  0  0  0  0  0
   64.9190   32.3540   49.0040 N   0  0  0  0  0  0  0  0  0  0  0  0
   64.5290   31.8330   48.1860 H   0  0  0  0  0  0  0  0  0  0  0  0
   65.5960   33.0610   48.6340 H   0  0  0  0  0  0  0  0  0  0  0  0
   63.2740   32.2020   50.7500 N   0  0  0  0  0  0  0  0  0  0  0  0
   63.9990   31.5580   51.1430 H   0  0  0  0  0  0  0  0  0  0  0  0
   62.4870   31.6360   50.3550 H   0  0  0  0  0  0  0  0  0  0  0  0
   62.8980   32.7970   51.5240 H   0  0  0  0  0  0  0  0  0  0  0  0
   62.9440   33.4300   47.3490 C   0  0  0  0  0  0  0  0  0  0  0  0
   63.8763   33.0067   46.9469 H   0  0  0  0  0  0  0  0  0  0  0  0
   61.9440   33.8640   46.4730 C   0  0  0  0  0  0  0  0  0  0  0  0
   62.0885   33.7668   45.3869 H   0  0  0  0  0  0  0  0  0  0  0  0
   58.6200   31.7200   47.0200 C   0  0  0  0  0  0  0  0  0  0  0  0
   58.8738   32.4700   47.7836 H   0  0  0  0  0  0  0  0  0  0  0  0
   58.9310   30.3740   47.2380 C   0  0  0  0  0  0  0  0  0  0  0  0
   59.4361   30.0738   48.1679 H   0  0  0  0  0  0  0  0  0  0  0  0
   58.1470   27.1380   44.4020 N   0  0  0  0  0  0  0  0  0  0  0  0
   57.1550   27.1250   44.0730 H   0  0  0  0  0  0  0  0  0  0  0  0
   58.8850   27.3130   43.6860 H   0  0  0  0  0  0  0  0  0  0  0  0
   57.4620   23.8340   44.8060 C   0  0  0  0  0  0  0  0  0  0  0  0
   56.4913   24.3500   44.7665 H   0  0  0  0  0  0  0  0  0  0  0  0
   56.3080   20.6130   43.2890 N   0  0  0  0  0  0  0  0  0  0  0  0
   55.4710   20.2120   42.8090 H   0  0  0  0  0  0  0  0  0  0  0  0
   57.0170   19.9470   43.6650 H   0  0  0  0  0  0  0  0  0  0  0  0
  1  2  1  0
  2  3  2  0
  3  4  1  0
  4  5  2  0
  5  6  1  0
  5  7  1  0
  7  8  1  0
  7  9  2  0
  9 10  1  0
  9 11  1  0
 11 12  1  0
 12 13  1  0
 12 14  1  0
 14 15  1  0
 15 16  1  0
 15 17  1  0
 17 18  2  0
 18 19  1  0
 18 20  1  0
 20 21  1  0
 20 22  2  0
 22 23  1  0
 23 24  2  0
 23 25  1  0
 25 26  2  3
 26 27  1  0
 26 28  1  0
 28 29  2  0
 29 30  1  0
 29 31  1  0
 31 32  1  0
 31 33  2  0
 33 34  1  0
 34 35  1  1
 34 36  1  0
 36 37  1  0
 36 38  1  0
 34 39  1  0
 39 40  1  0
 39 41  1  0
 39 42  1  0
 33 43  1  0
 43 44  1  0
 43 45  2  0
 45 46  1  0
 22 47  1  0
 47 48  1  0
 47 49  2  0
 49 50  1  0
 14 51  2  0
 51 52  1  0
 51 53  1  0
 11 54  2  0
 54 55  1  0
  3 56  1  0
 56 57  1  0
 56 58  1  0
 54  4  1  0
 49 17  1  0
 45 28  1  0
M  CHG  2  39   1  51   1
M  END
>  <UniqueID>  (1) 
1

>  <SMILES>  (1) 
[H]/N=C(\N)c1cccc(NC(=[NH2+])Nc2ccc(C(=O)N=Cc3ccc([C@H](N)[NH3+])cc3)cc2)c1

>  <Energy>  (1) 
81.16457682334473

>  <Genealogy>  (1) 
N=C(N)c1cccc(NC(=[NH2+])Nc2ccc(C(=O)N=Cc3ccc(C(N)[NH3+])cc3)cc2)c1 (protonated)
N=C(N)c1cccc(NC(=[NH2+])Nc2ccc(C(=O)N=Cc3ccc([C@H](N)[NH3+])cc3)cc2)c1 (chirality)
[H]/N=C(\N)c1cccc(NC(=[NH2+])Nc2ccc(C(=O)N=Cc3ccc([C@H](N)[NH3+])cc3)cc2)c1 (cis-trans isomerization)
[H]/N=C(\N)c1cccc(NC(=[NH2+])Nc2ccc(C(=O)N=Cc3ccc([C@H](N)[NH3+])cc3)cc2)c1 (3D coordinates assigned)
[H]/N=C(\N)c1cccc(NC(=[NH2+])Nc2ccc(C(=O)N=Cc3ccc([C@H](N)[NH3+])cc3)cc2)c1 (optimized conformer: 81.16457682334473 kcal/mol)

>  <smiles>  (1) 
N=C(Nc1ccc(C(=O)N=Cc2ccc(C(N)N)cc2)cc1)Nc1cccc(C(=N)N)c1

>  <score_type>  (1) 
oracle

>  <origin>  (1) 
adg

>  <m_score__min__energy>  (1) 
-7.0599999999999996

>  <m_primary>  (1) 
energy

$$$$
1:0
     RDKit          3D

 67 70  0  0  0  0  0  0  0  0999 V2000
   59.7070   33.8360   49.7100 C   0  0  0  0  0  0  0  0  0  0  0  0
   59.6540   32.9460   48.6000 O   0  0  0  0  0  0  0  0  0  0  0  0
   59.0310   33.2390   47.3750 C   0  0  0  0  0  0  0  0  0  0  0  0
   57.6270   33.2550   47.2390 C   0  0  0  0  0  0  0  0  0  0  0  0
   57.0400   33.5420   46.0030 C   0  0  0  0  0  0  0  0  0  0  0  0
   57.8390   33.8060   44.8920 C   0  0  0  0  0  0  0  0  0  0  0  0
   59.2290   33.7970   45.0130 C   0  0  0  0  0  0  0  0  0  0  0  0
   59.8340   33.5160   46.2490 C   0  0  0  0  0  0  0  0  0  0  0  0
   61.3390   33.5510   46.3710 C   0  0  0  0  0  0  0  0  0  0  0  0
   61.7370   33.9790   47.6610 O   0  0  0  0  0  0  0  0  0  0  0  0
   63.1350   33.8450   47.8350 C   0  0  0  0  0  0  0  0  0  0  0  0
   63.4470   32.8230   48.8950 C   0  0  0  0  0  0  0  0  0  0  0  0
   64.7230   32.7860   49.4740 C   0  0  0  0  0  0  0  0  0  0  0  0
   65.0070   31.8380   50.4570 C   0  0  0  0  0  0  0  0  0  0  0  0
   64.0190   30.9440   50.8610 C   0  0  0  0  0  0  0  0  0  0  0  0
   62.7460   31.0080   50.2730 C   0  0  0  0  0  0  0  0  0  0  0  0
   61.6770   30.0450   50.7100 C   0  0  0  0  0  0  0  0  0  0  0  0
   60.3560   30.4980   50.2300 N   0  0  0  0  0  0  0  0  0  0  0  0
   59.6160   31.1810   51.3030 C   0  0  0  0  0  0  0  0  0  0  0  0
   59.5670   29.3800   49.6620 C   0  0  0  0  0  0  0  0  0  0  0  0
   59.5560   29.5060   48.1610 C   0  0  0  0  0  0  0  0  0  0  0  0
   60.7330   29.8060   47.4570 C   0  0  0  0  0  0  0  0  0  0  0  0
   60.6870   30.0530   46.0850 C   0  0  0  0  0  0  0  0  0  0  0  0
   59.4720   29.9870   45.3990 C   0  0  0  0  0  0  0  0  0  0  0  0
   58.2900   29.6560   46.0800 C   0  0  0  0  0  0  0  0  0  0  0  0
   57.0050   29.5760   45.3470 C   0  0  0  0  0  0  0  0  0  0  0  0
   56.5140   30.6210   44.8400 O   0  0  0  0  0  0  0  0  0  0  0  0
   56.2660   28.3510   45.2370 N   0  0  0  0  0  0  0  0  0  0  0  0
   56.7270   27.0450   45.6210 C   0  0  0  0  0  0  0  0  0  0  0  0
   55.9110   26.1550   46.3480 C   0  0  0  0  0  0  0  0  0  0  0  0
   56.3940   24.8940   46.7090 C   0  0  0  0  0  0  0  0  0  0  0  0
   57.6990   24.5210   46.3660 C   0  0  0  0  0  0  0  0  0  0  0  0
   58.5230   25.4130   45.6730 C   0  0  0  0  0  0  0  0  0  0  0  0
   58.0420   26.6720   45.3080 C   0  0  0  0  0  0  0  0  0  0  0  0
   58.3370   29.4370   47.4670 C   0  0  0  0  0  0  0  0  0  0  0  0
   62.4870   31.9440   49.3100 N   0  0  0  0  0  0  0  0  0  0  0  0
   59.6726   33.2581   50.6453 H   0  0  0  0  0  0  0  0  0  0  0  0
   60.6412   34.4154   49.6711 H   0  0  0  0  0  0  0  0  0  0  0  0
   58.8481   34.5222   49.6711 H   0  0  0  0  0  0  0  0  0  0  0  0
   56.9906   33.0405   48.1102 H   0  0  0  0  0  0  0  0  0  0  0  0
   55.9443   33.5595   45.9071 H   0  0  0  0  0  0  0  0  0  0  0  0
   57.3734   34.0216   43.9190 H   0  0  0  0  0  0  0  0  0  0  0  0
   59.8552   34.0114   44.1344 H   0  0  0  0  0  0  0  0  0  0  0  0
   61.7376   32.5421   46.1885 H   0  0  0  0  0  0  0  0  0  0  0  0
   61.7327   34.2626   45.6303 H   0  0  0  0  0  0  0  0  0  0  0  0
   63.5878   33.5278   46.8840 H   0  0  0  0  0  0  0  0  0  0  0  0
   63.5454   34.8157   48.1500 H   0  0  0  0  0  0  0  0  0  0  0  0
   65.4961   33.5006   49.1550 H   0  0  0  0  0  0  0  0  0  0  0  0
   66.0079   31.7968   50.9114 H   0  0  0  0  0  0  0  0  0  0  0  0
   64.2344   30.1930   51.6353 H   0  0  0  0  0  0  0  0  0  0  0  0
   61.8928   29.0495   50.2947 H   0  0  0  0  0  0  0  0  0  0  0  0
   61.6631   29.9983   51.8089 H   0  0  0  0  0  0  0  0  0  0  0  0
   59.9873   30.8383   52.2801 H   0  0  0  0  0  0  0  0  0  0  0  0
   59.7629   32.2676   51.2155 H   0  0  0  0  0  0  0  0  0  0  0  0
   58.5446   30.9476   51.2155 H   0  0  0  0  0  0  0  0  0  0  0  0
   60.0244   28.4217   49.9491 H   0  0  0  0  0  0  0  0  0  0  0  0
   58.5373   29.4161   50.0473 H   0  0  0  0  0  0  0  0  0  0  0  0
   61.6948   29.8464   47.9892 H   0  0  0  0  0  0  0  0  0  0  0  0
   61.6107   30.3006   45.5414 H   0  0  0  0  0  0  0  0  0  0  0  0
   59.4413   30.1955   44.3194 H   0  0  0  0  0  0  0  0  0  0  0  0
   54.8911   26.4536   46.6321 H   0  0  0  0  0  0  0  0  0  0  0  0
   55.7492   24.1953   47.2622 H   0  0  0  0  0  0  0  0  0  0  0  0
   58.0765   23.5253   46.6419 H   0  0  0  0  0  0  0  0  0  0  0  0
   59.5520   25.1224   45.4149 H   0  0  0  0  0  0  0  0  0  0  0  0
   58.6976   27.3744   44.7725 H   0  0  0  0  0  0  0  0  0  0  0  0
   57.4104   29.2094   48.0144 H   0  0  0  0  0  0  0  0  0  0  0  0
   61.5350   31.9860   48.8790 H   0  0  0  0  0  0  0  0  0  0  0  0
  1  2  1  0
  2  3  1  0
  3  4  2  0
  4  5  1  0
  5  6  2  0
  6  7  1  0
  7  8  2  0
  8  9  1  0
  9 10  1  0
 10 11  1  0
 11 12  1  0
 12 13  2  0
 13 14  1  0
 14 15  2  0
 15 16  1  0
 16 17  1  0
 17 18  1  0
 18 19  1  0
 18 20  1  0
 20 21  1  0
 21 22  2  0
 22 23  1  0
 23 24  2  0
 24 25  1  0
 25 26  1  0
 26 27  2  0
 26 28  1  0
 28 29  1  0
 29 30  2  0
 30 31  1  0
 31 32  2  0
 32 33  1  0
 33 34  2  0
 25 35  2  0
 16 36  2  0
  8  3  1  0
 36 12  1  0
 35 21  1  0
 34 29  1  0
  1 37  1  0
  1 38  1  0
  1 39  1  0
  4 40  1  0
  5 41  1  0
  6 42  1  0
  7 43  1  0
  9 44  1  0
  9 45  1  0
 11 46  1  0
 11 47  1  0
 13 48  1  0
 14 49  1  0
 15 50  1  0
 17 51  1  0
 17 52  1  0
 19 53  1  0
 19 54  1  0
 19 55  1  0
 20 56  1  0
 20 57  1  0
 22 58  1  0
 23 59  1  0
 24 60  1  0
 30 61  1  0
 31 62  1  0
 32 63  1  0
 33 64  1  0
 34 65  1  0
 35 66  1  0
 36 67  1  0
M  CHG  2  28  -1  36   1
M  END
>  <UniqueID>  (2) 
2

>  <SMILES>  (2) 
COc1ccccc1COCc1cccc(CN(C)Cc2cccc(C(=O)[N-]c3ccccc3)c2)[nH+]1

>  <Energy>  (2) 
81.02556798633988

>  <Genealogy>  (2) 
COc1ccccc1COCc1cccc(CN(C)Cc2cccc(C(=O)[N-]c3ccccc3)c2)[nH+]1 (protonated)
COc1ccccc1COCc1cccc(CN(C)Cc2cccc(C(=O)[N-]c3ccccc3)c2)[nH+]1 (3D coordinates assigned)
COc1ccccc1COCc1cccc(CN(C)Cc2cccc(C(=O)[N-]c3ccccc3)c2)[nH+]1 (optimized conformer: 81.02556798633988 kcal/mol)

>  <smiles>  (2) 
COc1ccccc1COCc1cccc(CN(C)Cc2cccc(C(=O)Nc3ccccc3)c2)n1

>  <score_type>  (2) 
oracle

>  <origin>  (2) 
adg

>  <m_score__min__energy>  (2) 
-10.119999999999999

>  <m_primary>  (2) 
energy

$$$$
2:0
     RDKit          3D

 36 38  0  0  0  0  0  0  0  0999 V2000
   58.3610   34.1800   45.9260 C   0  0  0  0  0  0  0  0  0  0  0  0
   58.1040   32.8000   45.4000 C   0  0  0  0  0  0  0  0  0  0  0  0
   57.6960   32.6170   44.0580 C   0  0  0  0  0  0  0  0  0  0  0  0
   57.4220   31.3250   43.5850 C   0  0  0  0  0  0  0  0  0  0  0  0
   57.5460   30.2870   44.4500 N   0  0  0  0  0  0  0  0  0  0  0  0
   57.3520   28.9760   44.2540 C   0  0  0  0  0  0  0  0  0  0  0  0
   57.6140   28.3430   45.4640 C   0  0  0  0  0  0  0  0  0  0  0  0
   57.5730   26.8850   45.7330 C   0  0  0  0  0  0  0  0  0  0  0  0
   58.7800   26.1710   45.7800 C   0  0  0  0  0  0  0  0  0  0  0  0
   58.7820   24.7960   46.0140 C   0  0  0  0  0  0  0  0  0  0  0  0
   57.5820   24.1150   46.2150 C   0  0  0  0  0  0  0  0  0  0  0  0
   56.3590   24.8070   46.2020 C   0  0  0  0  0  0  0  0  0  0  0  0
   55.1090   24.1190   46.4130 N   0  0  0  0  0  0  0  0  0  0  0  0
   54.6520   22.6570   45.5980 S   0  0  0  0  0  0  0  0  0  0  0  0
   55.0860   21.2390   46.5820 C   0  0  0  0  0  0  0  0  0  0  0  0
   53.1630   22.6590   45.3980 O   0  0  0  0  0  0  0  0  0  0  0  0
   55.3190   22.5870   44.2520 O   0  0  0  0  0  0  0  0  0  0  0  0
   56.3580   26.1970   45.9630 C   0  0  0  0  0  0  0  0  0  0  0  0
   55.1530   26.8920   45.9920 O   0  0  0  0  0  0  0  0  0  0  0  0
   57.9820   29.2600   46.3970 N   0  0  0  0  0  0  0  0  0  0  0  0
   57.9190   30.4290   45.7300 C   0  0  0  0  0  0  0  0  0  0  0  0
   58.2060   31.6850   46.2580 C   0  0  0  0  0  0  0  0  0  0  0  0
   58.3572   34.1598   47.0258 H   0  0  0  0  0  0  0  0  0  0  0  0
   59.3401   34.5320   45.5691 H   0  0  0  0  0  0  0  0  0  0  0  0
   57.5742   34.8609   45.5691 H   0  0  0  0  0  0  0  0  0  0  0  0
   57.5940   33.4837   43.3884 H   0  0  0  0  0  0  0  0  0  0  0  0
   57.1152   31.1581   42.5419 H   0  0  0  0  0  0  0  0  0  0  0  0
   57.0442   28.4926   43.3151 H   0  0  0  0  0  0  0  0  0  0  0  0
   59.7328   26.7002   45.6310 H   0  0  0  0  0  0  0  0  0  0  0  0
   59.7345   24.2464   46.0401 H   0  0  0  0  0  0  0  0  0  0  0  0
   57.5927   23.0283   46.3850 H   0  0  0  0  0  0  0  0  0  0  0  0
   54.4650   24.4500   47.1650 H   0  0  0  0  0  0  0  0  0  0  0  0
   55.0076   21.4952   47.6489 H   0  0  0  0  0  0  0  0  0  0  0  0
   54.4005   20.4098   46.3527 H   0  0  0  0  0  0  0  0  0  0  0  0
   56.1181   20.9356   46.3527 H   0  0  0  0  0  0  0  0  0  0  0  0
   58.5028   31.8040   47.3105 H   0  0  0  0  0  0  0  0  0  0  0  0
  1  2  1  0
  2  3  1  0
  3  4  2  0
  4  5  1  0
  5  6  1  0
  6  7  2  0
  7  8  1  0
  8  9  2  0
  9 10  1  0
 10 11  2  0
 11 12  1  0
 12 13  1  0
 13 14  1  0
 14 15  1  0
 14 16  2  0
 14 17  2  0
 12 18  2  0
 18 19  1  0
  7 20  1  0
 20 21  2  0
 21 22  1  0
 22  2  2  0
 21  5  1  0
 18  8  1  0
  1 23  1  0
  1 24  1  0
  1 25  1  0
  3 26  1  0
  4 27  1  0
  6 28  1  0
  9 29  1  0
 10 30  1  0
 11 31  1  0
 13 32  1  0
 15 33  1  0
 15 34  1  0
 15 35  1  0
 22 36  1  0
M  CHG  1  19  -1
M  END
>  <UniqueID>  (3) 
3

>  <SMILES>  (3) 
Cc1ccn2cc(-c3cccc(NS(C)(=O)=O)c3[O-])nc2c1

>  <Energy>  (3) 
75.96314054399299

>  <Genealogy>  (3) 
Cc1ccn2cc(-c3cccc(NS(C)(=O)=O)c3[O-])nc2c1 (protonated)
Cc1ccn2cc(-c3cccc(NS(C)(=O)=O)c3[O-])nc2c1 (3D coordinates assigned)
Cc1ccn2cc(-c3cccc(NS(C)(=O)=O)c3[O-])nc2c1 (optimized conformer: 75.96314054399299 kcal/mol)

>  <smiles>  (3) 
Cc1ccn2cc(-c3cccc(NS(C)(=O)=O)c3O)nc2c1

>  <score_type>  (3) 
oracle

>  <origin>  (3) 
adg

>  <m_score__min__energy>  (3) 
-11.300000000000001

>  <m_primary>  (3) 
energy

$$$$
3:0
     RDKit          3D

 60 63  0  0  0  0  0  0  0  0999 V2000
   61.1860   33.6752   54.0576 H   0  0  0  0  0  0  0  0  0  0  0  0
   60.5220   33.1030   53.3930 C   0  0  0  0  0  0  0  0  0  0  0  0
   59.8310   32.0390   53.8770 N   0  0  0  0  0  0  0  0  0  0  0  0
   59.0000   31.2950   53.1000 C   0  0  0  0  0  0  0  0  0  0  0  0
   58.3670   30.2980   53.6500 N   0  0  0  0  0  0  0  0  0  0  0  0
   57.2430   29.5810   53.1210 C   0  0  0  0  0  0  0  0  0  0  0  0
   57.1630   29.4090   51.8750 O   0  0  0  0  0  0  0  0  0  0  0  0
   56.1720   29.1580   53.9780 N   0  0  0  0  0  0  0  0  0  0  0  0
   56.2050   29.4030   54.9930 H   0  0  0  0  0  0  0  0  0  0  0  0
   54.9900   28.4640   53.4720 C   0  0  0  0  0  0  0  0  0  0  0  0
   55.2949   27.7489   52.6938 H   0  0  0  0  0  0  0  0  0  0  0  0
   54.5044   27.9327   54.3038 H   0  0  0  0  0  0  0  0  0  0  0  0
   54.0150   29.4490   52.8860 C   0  0  0  0  0  0  0  0  0  0  0  0
   54.3670   30.2280   51.7750 C   0  0  0  0  0  0  0  0  0  0  0  0
   55.3606   30.1114   51.3176 H   0  0  0  0  0  0  0  0  0  0  0  0
   53.4610   31.1530   51.2450 C   0  0  0  0  0  0  0  0  0  0  0  0
   53.7460   31.7577   50.3715 H   0  0  0  0  0  0  0  0  0  0  0  0
   52.1890   31.3150   51.8210 C   0  0  0  0  0  0  0  0  0  0  0  0
   51.2340   32.2950   51.2580 C   0  0  0  0  0  0  0  0  0  0  0  0
   50.6270   33.1020   52.0110 O   0  0  0  0  0  0  0  0  0  0  0  0
   50.9910   32.3370   49.8900 O   0  0  0  0  0  0  0  0  0  0  0  0
   51.8420   30.5340   52.9380 C   0  0  0  0  0  0  0  0  0  0  0  0
   50.8506   30.6514   53.3999 H   0  0  0  0  0  0  0  0  0  0  0  0
   52.7480   29.6100   53.4650 C   0  0  0  0  0  0  0  0  0  0  0  0
   52.4657   29.0052   54.3394 H   0  0  0  0  0  0  0  0  0  0  0  0
   58.8230   31.6560   51.7470 C   0  0  0  0  0  0  0  0  0  0  0  0
   58.1252   31.0906   51.1118 H   0  0  0  0  0  0  0  0  0  0  0  0
   59.5410   32.7400   51.2140 C   0  0  0  0  0  0  0  0  0  0  0  0
   59.3490   33.1620   49.7710 C   0  0  0  0  0  0  0  0  0  0  0  0
   59.8262   34.1438   49.6361 H   0  0  0  0  0  0  0  0  0  0  0  0
   58.2630   33.1770   49.5967 H   0  0  0  0  0  0  0  0  0  0  0  0
   59.9170   32.2330   48.7670 N   0  0  0  0  0  0  0  0  0  0  0  0
   60.6390   31.0820   49.3060 C   0  0  0  0  0  0  0  0  0  0  0  0
   60.0804   30.6366   50.1424 H   0  0  0  0  0  0  0  0  0  0  0  0
   61.6276   31.3690   49.6937 H   0  0  0  0  0  0  0  0  0  0  0  0
   60.7530   30.0940   48.1610 C   0  0  0  0  0  0  0  0  0  0  0  0
   60.7258   29.0609   48.5378 H   0  0  0  0  0  0  0  0  0  0  0  0
   61.7002   30.2048   47.6128 H   0  0  0  0  0  0  0  0  0  0  0  0
   59.5450   30.3730   47.2770 C   0  0  0  0  0  0  0  0  0  0  0  0
   58.8004   29.5697   47.3789 H   0  0  0  0  0  0  0  0  0  0  0  0
   59.8206   30.4217   46.2132 H   0  0  0  0  0  0  0  0  0  0  0  0
   58.9680   31.7070   47.7780 C   0  0  2  0  0  0  0  0  0  0  0  0
   57.9736   31.5403   48.2178 H   0  0  0  0  0  0  0  0  0  0  0  0
   58.7660   32.7060   46.6540 C   0  0  0  0  0  0  0  0  0  0  0  0
   59.4340   33.9420   46.7060 C   0  0  0  0  0  0  0  0  0  0  0  0
   60.0899   34.1706   47.5590 H   0  0  0  0  0  0  0  0  0  0  0  0
   59.2740   34.8810   45.6880 C   0  0  0  0  0  0  0  0  0  0  0  0
   59.8012   35.8449   45.7420 H   0  0  0  0  0  0  0  0  0  0  0  0
   58.4470   34.6000   44.6020 C   0  0  0  0  0  0  0  0  0  0  0  0
   58.3202   35.3438   43.8016 H   0  0  0  0  0  0  0  0  0  0  0  0
   57.7790   33.3760   44.5280 C   0  0  0  0  0  0  0  0  0  0  0  0
   57.1303   33.1590   43.6665 H   0  0  0  0  0  0  0  0  0  0  0  0
   57.9300   32.4170   45.5490 C   0  0  0  0  0  0  0  0  0  0  0  0
   57.2720   31.1770   45.4970 O   0  0  0  0  0  0  0  0  0  0  0  0
   57.2460   30.3190   44.3620 C   0  0  0  0  0  0  0  0  0  0  0  0
   57.2142   29.2711   44.6951 H   0  0  0  0  0  0  0  0  0  0  0  0
   56.3541   30.5385   43.7568 H   0  0  0  0  0  0  0  0  0  0  0  0
   58.1496   30.4841   43.7568 H   0  0  0  0  0  0  0  0  0  0  0  0
   60.3910   33.4710   52.0550 C   0  0  0  0  0  0  0  0  0  0  0  0
   60.9522   34.3312   51.6610 H   0  0  0  0  0  0  0  0  0  0  0  0
  1  2  1  0
  2  3  1  0
  3  4  1  0
  4  5  2  0
  5  6  1  0
  6  7  2  0
  6  8  1  0
  8  9  1  0
  8 10  1  0
 10 11  1  0
 10 12  1  0
 10 13  1  0
 13 14  2  0
 14 15  1  0
 14 16  1  0
 16 17  1  0
 16 18  2  0
 18 19  1  0
 19 20  2  0
 19 21  1  0
 18 22  1  0
 22 23  1  0
 22 24  2  0
 24 25  1  0
  4 26  1  0
 26 27  1  0
 26 28  2  0
 28 29  1  0
 29 30  1  0
 29 31  1  0
 29 32  1  0
 32 33  1  0
 33 34  1  0
 33 35  1  0
 33 36  1  0
 36 37  1  0
 36 38  1  0
 36 39  1  0
 39 40  1  0
 39 41  1  0
 39 42  1  0
 42 43  1  1
 42 44  1  0
 44 45  2  0
 45 46  1  0
 45 47  1  0
 47 48  1  0
 47 49  2  0
 49 50  1  0
 49 51  1  0
 51 52  1  0
 51 53  2  0
 53 54  1  0
 54 55  1  0
 55 56  1  0
 55 57  1  0
 55 58  1  0
 28 59  1  0
 59 60  1  0
 59  2  2  0
 24 13  1  0
 42 32  1  0
 53 44  1  0
M  CHG  2   3  -1  21  -1
M  END
>  <UniqueID>  (4) 
4

>  <SMILES>  (4) 
COc1ccccc1[C@H]1CCCN1Cc1cc[n-]/c(=N/C(=O)NCc2ccc(C(=O)[O-])cc2)c1

>  <Energy>  (4) 
75.43748908113749

>  <Genealogy>  (4) 
COc1ccccc1C1CCCN1Cc1cc[n-]c(=NC(=O)NCc2ccc(C(=O)[O-])cc2)c1 (protonated)
COc1ccccc1[C@H]1CCCN1Cc1cc[n-]c(=NC(=O)NCc2ccc(C(=O)[O-])cc2)c1 (chirality)
COc1ccccc1[C@H]1CCCN1Cc1cc[n-]/c(=N/C(=O)NCc2ccc(C(=O)[O-])cc2)c1 (cis-trans isomerization)
COc1ccccc1[C@H]1CCCN1Cc1cc[n-]/c(=N/C(=O)NCc2ccc(C(=O)[O-])cc2)c1 (3D coordinates assigned)
COc1ccccc1[C@H]1CCCN1Cc1cc[n-]/c(=N/C(=O)NCc2ccc(C(=O)[O-])cc2)c1 (nonaromatic ring conformer: 75.43748908113749 kcal/mol)

>  <smiles>  (4) 
COc1ccccc1C1CCCN1Cc1cc[nH]c(=NC(=O)NCc2ccc(C(=O)O)cc2)c1

>  <score_type>  (4) 
oracle

>  <origin>  (4) 
adg

>  <m_score__min__energy>  (4) 
-14.460000000000001

>  <m_primary>  (4) 
energy

$$$$
4:0
     RDKit          3D

 66 70  0  0  0  0  0  0  0  0999 V2000
   59.5740   35.7880   45.6480 O   0  0  0  0  0  0  0  0  0  0  0  0
   59.0560   34.7050   46.0280 C   0  0  0  0  0  0  0  0  0  0  0  0
   59.0290   34.3460   47.4850 C   0  0  0  0  0  0  0  0  0  0  0  0
   60.2040   34.9660   48.2510 C   0  0  0  0  0  0  0  0  0  0  0  0
   61.4010   34.0510   48.2320 C   0  0  0  0  0  0  0  0  0  0  0  0
   61.5520   33.0970   47.2110 C   0  0  0  0  0  0  0  0  0  0  0  0
   62.6690   32.2540   47.2000 C   0  0  0  0  0  0  0  0  0  0  0  0
   63.6440   32.3640   48.1960 C   0  0  0  0  0  0  0  0  0  0  0  0
   63.5070   33.3230   49.2030 C   0  0  0  0  0  0  0  0  0  0  0  0
   62.3940   34.1690   49.2200 C   0  0  0  0  0  0  0  0  0  0  0  0
   58.4200   33.8320   45.0870 N   0  0  0  0  0  0  0  0  0  0  0  0
   58.5310   32.4010   45.0390 C   0  0  0  0  0  0  0  0  0  0  0  0
   58.1280   31.7380   43.8730 C   0  0  0  0  0  0  0  0  0  0  0  0
   58.1600   30.3420   43.8010 C   0  0  0  0  0  0  0  0  0  0  0  0
   58.5880   29.5880   44.9090 C   0  0  0  0  0  0  0  0  0  0  0  0
   58.6230   28.1830   44.8940 C   0  0  0  0  0  0  0  0  0  0  0  0
   58.2660   27.5720   43.8480 O   0  0  0  0  0  0  0  0  0  0  0  0
   59.0310   27.4810   46.0080 N   0  0  0  0  0  0  0  0  0  0  0  0
   59.0510   26.0010   45.9630 C   0  0  0  0  0  0  0  0  0  0  0  0
   57.6940   25.4380   45.6090 C   0  0  0  0  0  0  0  0  0  0  0  0
   57.5750   24.1600   45.0350 C   0  0  0  0  0  0  0  0  0  0  0  0
   56.3150   23.6160   44.7720 C   0  0  0  0  0  0  0  0  0  0  0  0
   55.1560   24.3370   45.0820 C   0  0  0  0  0  0  0  0  0  0  0  0
   53.9120   23.7810   44.7930 O   0  0  0  0  0  0  0  0  0  0  0  0
   55.2660   25.6090   45.6690 C   0  0  0  0  0  0  0  0  0  0  0  0
   54.1260   26.3380   45.9890 O   0  0  0  0  0  0  0  0  0  0  0  0
   56.5290   26.1510   45.9360 C   0  0  0  0  0  0  0  0  0  0  0  0
   59.3940   28.1700   47.1520 C   0  0  0  0  0  0  0  0  0  0  0  0
   59.8900   27.4870   48.4150 C   0  0  0  0  0  0  0  0  0  0  0  0
   60.8170   28.3890   49.2470 C   0  0  0  0  0  0  0  0  0  0  0  0
   60.0820   29.5820   49.7980 C   0  0  0  0  0  0  0  0  0  0  0  0
   58.8000   29.4370   50.3550 C   0  0  0  0  0  0  0  0  0  0  0  0
   58.1380   30.5430   50.8980 C   0  0  0  0  0  0  0  0  0  0  0  0
   58.7450   31.8010   50.8800 C   0  0  0  0  0  0  0  0  0  0  0  0
   60.0180   31.9550   50.3250 C   0  0  0  0  0  0  0  0  0  0  0  0
   60.6920   30.8490   49.7950 C   0  0  0  0  0  0  0  0  0  0  0  0
   59.3810   29.5310   47.1520 N   0  0  0  0  0  0  0  0  0  0  0  0
   58.9830   30.2500   46.0790 C   0  0  0  0  0  0  0  0  0  0  0  0
   58.9490   31.6470   46.1500 C   0  0  0  0  0  0  0  0  0  0  0  0
   58.0879   34.7098   47.9231 H   0  0  0  0  0  0  0  0  0  0  0  0
   59.1092   33.2520   47.5670 H   0  0  0  0  0  0  0  0  0  0  0  0
   60.4749   35.9232   47.7816 H   0  0  0  0  0  0  0  0  0  0  0  0
   59.8985   35.1233   49.2959 H   0  0  0  0  0  0  0  0  0  0  0  0
   60.7919   33.0129   46.4203 H   0  0  0  0  0  0  0  0  0  0  0  0
   62.7803   31.5021   46.4048 H   0  0  0  0  0  0  0  0  0  0  0  0
   64.5181   31.6963   48.1869 H   0  0  0  0  0  0  0  0  0  0  0  0
   64.2764   33.4125   49.9840 H   0  0  0  0  0  0  0  0  0  0  0  0
   62.2951   34.9292   50.0089 H   0  0  0  0  0  0  0  0  0  0  0  0
   57.7832   32.3207   43.0061 H   0  0  0  0  0  0  0  0  0  0  0  0
   57.8501   29.8325   42.8767 H   0  0  0  0  0  0  0  0  0  0  0  0
   59.7807   25.6765   45.2066 H   0  0  0  0  0  0  0  0  0  0  0  0
   59.3286   25.6297   46.9605 H   0  0  0  0  0  0  0  0  0  0  0  0
   58.4801   23.5843   44.7913 H   0  0  0  0  0  0  0  0  0  0  0  0
   56.2336   22.6168   44.3194 H   0  0  0  0  0  0  0  0  0  0  0  0
   53.0500   24.3000   44.9140 H   0  0  0  0  0  0  0  0  0  0  0  0
   56.6094   27.1426   46.4054 H   0  0  0  0  0  0  0  0  0  0  0  0
   59.0215   27.2102   49.0307 H   0  0  0  0  0  0  0  0  0  0  0  0
   60.4689   26.6023   48.1113 H   0  0  0  0  0  0  0  0  0  0  0  0
   61.2267   27.8044   50.0839 H   0  0  0  0  0  0  0  0  0  0  0  0
   61.6214   28.7535   48.5912 H   0  0  0  0  0  0  0  0  0  0  0  0
   58.3151   28.4497   50.3640 H   0  0  0  0  0  0  0  0  0  0  0  0
   57.1379   30.4220   51.3399 H   0  0  0  0  0  0  0  0  0  0  0  0
   58.2206   32.6706   51.3029 H   0  0  0  0  0  0  0  0  0  0  0  0
   60.4914   32.9477   50.3046 H   0  0  0  0  0  0  0  0  0  0  0  0
   61.7013   30.9710   49.3751 H   0  0  0  0  0  0  0  0  0  0  0  0
   59.2500   32.1567   47.0771 H   0  0  0  0  0  0  0  0  0  0  0  0
  1  2  2  0
  2  3  1  0
  3  4  1  0
  4  5  1  0
  5  6  2  0
  6  7  1  0
  7  8  2  0
  8  9  1  0
  9 10  2  0
  2 11  1  0
 11 12  1  0
 12 13  2  0
 13 14  1  0
 14 15  2  0
 15 16  1  0
 16 17  2  0
 16 18  1  0
 18 19  1  0
 19 20  1  0
 20 21  2  0
 21 22  1  0
 22 23  2  0
 23 24  1  0
 23 25  1  0
 25 26  1  0
 25 27  2  0
 18 28  1  0
 28 29  1  0
 29 30  1  0
 30 31  1  0
 31 32  2  0
 32 33  1  0
 33 34  2  0
 34 35  1  0
 35 36  2  0
 28 37  2  0
 37 38  1  0
 38 39  2  0
 10  5  1  0
 39 12  1  0
 38 15  1  0
 27 20  1  0
 36 31  1  0
  3 40  1  0
  3 41  1  0
  4 42  1  0
  4 43  1  0
  6 44  1  0
  7 45  1  0
  8 46  1  0
  9 47  1  0
 10 48  1  0
 13 49  1  0
 14 50  1  0
 19 51  1  0
 19 52  1  0
 21 53  1  0
 22 54  1  0
 24 55  1  0
 27 56  1  0
 29 57  1  0
 29 58  1  0
 30 59  1  0
 30 60  1  0
 32 61  1  0
 33 62  1  0
 34 63  1  0
 35 64  1  0
 36 65  1  0
 39 66  1  0
M  CHG  2  11  -1  26  -1
M  END
>  <UniqueID>  (5) 
5

>  <SMILES>  (5) 
O=C(CCc1ccccc1)[N-]c1ccc2c(=O)n(Cc3ccc(O)c([O-])c3)c(CCc3ccccc3)nc2c1

>  <Energy>  (5) 
77.11986067000885

>  <Genealogy>  (5) 
O=C(CCc1ccccc1)[N-]c1ccc2c(=O)n(Cc3ccc(O)c([O-])c3)c(CCc3ccccc3)nc2c1 (protonated)
O=C(CCc1ccccc1)[N-]c1ccc2c(=O)n(Cc3ccc(O)c([O-])c3)c(CCc3ccccc3)nc2c1 (3D coordinates assigned)
O=C(CCc1ccccc1)[N-]c1ccc2c(=O)n(Cc3ccc(O)c([O-])c3)c(CCc3ccccc3)nc2c1 (optimized conformer: 77.11986067000885 kcal/mol)

>  <smiles>  (5) 
O=C(CCc1ccccc1)Nc1ccc2c(=O)n(Cc3ccc(O)c(O)c3)c(CCc3ccccc3)nc2c1

>  <score_type>  (5) 
oracle

>  <origin>  (5) 
adg

>  <m_score__min__energy>  (5) 
-14.44

>  <m_primary>  (5) 
energy

$$$$
5:0
     RDKit          3D

 41 43  0  0  0  0  0  0  0  0999 V2000
   57.9310   32.4380   51.9950 C   0  0  0  0  0  0  0  0  0  0  0  0
   57.6630   31.7350   53.2050 O   0  0  0  0  0  0  0  0  0  0  0  0
   56.8850   30.5690   53.2970 C   0  0  0  0  0  0  0  0  0  0  0  0
   55.4790   30.6130   53.2340 C   0  0  0  0  0  0  0  0  0  0  0  0
   54.7140   29.4360   53.2940 C   0  0  0  0  0  0  0  0  0  0  0  0
   53.2340   29.5080   53.2280 C   0  0  0  0  0  0  0  0  0  0  0  0
   52.5530   28.8460   54.0590 O   0  0  0  0  0  0  0  0  0  0  0  0
   52.5300   30.3410   52.2200 C   0  0  0  0  0  0  0  0  0  0  0  0
   52.5070   29.9420   50.8710 C   0  0  0  0  0  0  0  0  0  0  0  0
   51.8550   30.7250   49.9130 C   0  0  0  0  0  0  0  0  0  0  0  0
   51.2280   31.9160   50.2870 C   0  0  0  0  0  0  0  0  0  0  0  0
   50.5800   32.6870   49.3290 O   0  0  0  0  0  0  0  0  0  0  0  0
   51.2570   32.3300   51.6230 C   0  0  0  0  0  0  0  0  0  0  0  0
   50.6420   33.5180   51.9990 O   0  0  0  0  0  0  0  0  0  0  0  0
   51.9080   31.5500   52.5840 C   0  0  0  0  0  0  0  0  0  0  0  0
   55.3700   28.2030   53.4520 C   0  0  0  0  0  0  0  0  0  0  0  0
   54.6460   27.0160   53.5210 O   0  0  0  0  0  0  0  0  0  0  0  0
   56.7630   28.1520   53.5260 C   0  0  0  0  0  0  0  0  0  0  0  0
   57.5320   29.3230   53.4390 C   0  0  0  0  0  0  0  0  0  0  0  0
   59.0100   29.2360   53.5090 C   0  0  0  0  0  0  0  0  0  0  0  0
   59.5970   29.5030   54.5910 O   0  0  0  0  0  0  0  0  0  0  0  0
   59.7940   28.7870   52.3950 N   0  0  0  0  0  0  0  0  0  0  0  0
   60.0320   29.5110   51.1780 C   0  0  0  0  0  0  0  0  0  0  0  0
   58.9900   29.6350   50.2500 C   0  0  0  0  0  0  0  0  0  0  0  0
   59.1910   30.3270   49.0510 C   0  0  0  0  0  0  0  0  0  0  0  0
   60.4410   30.8850   48.7650 C   0  0  0  0  0  0  0  0  0  0  0  0
   61.4940   30.7430   49.6740 C   0  0  0  0  0  0  0  0  0  0  0  0
   62.7390   31.2850   49.3830 O   0  0  0  0  0  0  0  0  0  0  0  0
   61.2950   30.0530   50.8750 C   0  0  0  0  0  0  0  0  0  0  0  0
   58.3137   33.4419   52.2312 H   0  0  0  0  0  0  0  0  0  0  0  0
   58.6823   31.8875   51.4098 H   0  0  0  0  0  0  0  0  0  0  0  0
   57.0039   32.5274   51.4098 H   0  0  0  0  0  0  0  0  0  0  0  0
   54.9716   31.5841   53.1363 H   0  0  0  0  0  0  0  0  0  0  0  0
   53.0046   29.0089   50.5681 H   0  0  0  0  0  0  0  0  0  0  0  0
   51.8358   30.4020   48.8617 H   0  0  0  0  0  0  0  0  0  0  0  0
   51.9341   31.8837   53.6318 H   0  0  0  0  0  0  0  0  0  0  0  0
   57.2646   27.1815   53.6542 H   0  0  0  0  0  0  0  0  0  0  0  0
   58.0091   29.1861   50.4651 H   0  0  0  0  0  0  0  0  0  0  0  0
   58.3649   30.4323   48.3323 H   0  0  0  0  0  0  0  0  0  0  0  0
   60.5958   31.4354   47.8253 H   0  0  0  0  0  0  0  0  0  0  0  0
   62.1276   29.9339   51.5839 H   0  0  0  0  0  0  0  0  0  0  0  0
  1  2  1  0
  2  3  1  0
  3  4  2  0
  4  5  1  0
  5  6  1  0
  6  7  2  0
  6  8  1  0
  8  9  2  0
  9 10  1  0
 10 11  2  0
 11 12  1  0
 11 13  1  0
 13 14  1  0
 13 15  2  0
  5 16  2  0
 16 17  1  0
 16 18  1  0
 18 19  2  0
 19 20  1  0
 20 21  2  0
 20 22  1  0
 22 23  1  0
 23 24  2  0
 24 25  1  0
 25 26  2  0
 26 27  1  0
 27 28  1  0
 27 29  2  0
 19  3  1  0
 29 23  1  0
 15  8  1  0
  1 30  1  0
  1 31  1  0
  1 32  1  0
  4 33  1  0
  9 34  1  0
 10 35  1  0
 15 36  1  0
 18 37  1  0
 24 38  1  0
 25 39  1  0
 26 40  1  0
 29 41  1  0
M  CHG  5  12  -1  14  -1  17  -1  22  -1  28  -1
M  END
>  <UniqueID>  (6) 
6

>  <SMILES>  (6) 
COc1cc(C(=O)c2ccc([O-])c([O-])c2)c([O-])cc1C(=O)[N-]c1cccc([O-])c1

>  <Energy>  (6) 
58.97764579781563

>  <Genealogy>  (6) 
COc1cc(C(=O)c2ccc([O-])c([O-])c2)c([O-])cc1C(=O)[N-]c1cccc([O-])c1 (protonated)
COc1cc(C(=O)c2ccc([O-])c([O-])c2)c([O-])cc1C(=O)[N-]c1cccc([O-])c1 (3D coordinates assigned)
COc1cc(C(=O)c2ccc([O-])c([O-])c2)c([O-])cc1C(=O)[N-]c1cccc([O-])c1 (optimized conformer: 58.97764579781563 kcal/mol)

>  <smiles>  (6) 
COc1cc(C(=O)c2ccc(O)c(O)c2)c(O)cc1C(=O)Nc1cccc(O)c1

>  <score_type>  (6) 
oracle

>  <origin>  (6) 
adg

>  <m_score__min__energy>  (6) 
-17.77

>  <m_primary>  (6) 
energy

$$$$
6:0
     RDKit          3D

 45 47  0  0  0  0  0  0  0  0999 V2000
   63.1730   32.0510   49.0910 C   0  0  0  0  0  0  0  0  0  0  0  0
   63.3730   33.3790   48.5470 N   0  0  0  0  0  0  0  0  0  0  0  0
   62.3370   34.2880   48.9400 C   0  0  0  0  0  0  0  0  0  0  0  0
   60.9740   33.7190   48.5600 C   0  0  0  0  0  0  0  0  0  0  0  0
   60.9970   33.3860   47.1650 N   0  0  0  0  0  0  0  0  0  0  0  0
   59.5410   33.9490   46.4360 S   0  0  0  0  0  0  0  0  0  0  0  0
   58.5340   34.2080   47.5410 O   0  0  0  0  0  0  0  0  0  0  0  0
   59.7380   35.2660   45.7540 O   0  0  0  0  0  0  0  0  0  0  0  0
   58.8260   32.7650   45.3690 C   0  0  0  0  0  0  0  0  0  0  0  0
   58.2060   33.1940   44.1960 C   0  0  0  0  0  0  0  0  0  0  0  0
   57.6270   32.3060   43.3130 C   0  0  0  0  0  0  0  0  0  0  0  0
   57.6530   30.9480   43.5830 C   0  0  0  0  0  0  0  0  0  0  0  0
   58.2710   30.5260   44.7490 C   0  0  0  0  0  0  0  0  0  0  0  0
   58.3040   29.1260   45.0370 N   0  0  0  0  0  0  0  0  0  0  0  0
   57.0330   28.5100   45.2950 C   0  0  0  0  0  0  0  0  0  0  0  0
   56.0220   29.2610   45.2400 O   0  0  0  0  0  0  0  0  0  0  0  0
   56.9500   27.0890   45.6010 C   0  0  0  0  0  0  0  0  0  0  0  0
   57.9670   26.2780   45.1350 C   0  0  0  0  0  0  0  0  0  0  0  0
   57.9520   24.9180   45.3880 C   0  0  0  0  0  0  0  0  0  0  0  0
   56.8740   24.4270   46.1240 C   0  0  0  0  0  0  0  0  0  0  0  0
   56.8180   23.1810   46.3810 O   0  0  0  0  0  0  0  0  0  0  0  0
   55.8900   25.2450   46.5680 N   0  0  0  0  0  0  0  0  0  0  0  0
   55.9210   26.5600   46.3120 N   0  0  0  0  0  0  0  0  0  0  0  0
   58.8440   31.4090   45.6230 C   0  0  0  0  0  0  0  0  0  0  0  0
   62.1590   33.8620   46.4770 C   0  0  0  0  0  0  0  0  0  0  0  0
   63.4060   33.3130   47.0990 C   0  0  0  0  0  0  0  0  0  0  0  0
   63.1804   32.1000   50.1899 H   0  0  0  0  0  0  0  0  0  0  0  0
   62.2053   31.6562   48.7480 H   0  0  0  0  0  0  0  0  0  0  0  0
   63.9815   31.3887   48.7480 H   0  0  0  0  0  0  0  0  0  0  0  0
   62.3783   34.4391   50.0288 H   0  0  0  0  0  0  0  0  0  0  0  0
   62.4842   35.2487   48.4249 H   0  0  0  0  0  0  0  0  0  0  0  0
   60.7691   32.8164   49.1544 H   0  0  0  0  0  0  0  0  0  0  0  0
   60.1856   34.4597   48.7595 H   0  0  0  0  0  0  0  0  0  0  0  0
   58.1778   34.2698   43.9684 H   0  0  0  0  0  0  0  0  0  0  0  0
   57.1454   32.6761   42.3959 H   0  0  0  0  0  0  0  0  0  0  0  0
   57.1960   30.2249   42.8914 H   0  0  0  0  0  0  0  0  0  0  0  0
   59.1950   28.5820   45.0620 H   0  0  0  0  0  0  0  0  0  0  0  0
   58.7947   26.7170   44.5586 H   0  0  0  0  0  0  0  0  0  0  0  0
   58.7521   24.2556   45.0260 H   0  0  0  0  0  0  0  0  0  0  0  0
   55.1060   24.8310   47.1120 H   0  0  0  0  0  0  0  0  0  0  0  0
   59.3245   31.0336   46.5385 H   0  0  0  0  0  0  0  0  0  0  0  0
   62.1107   33.5447   45.4249 H   0  0  0  0  0  0  0  0  0  0  0  0
   62.1844   34.9596   46.5445 H   0  0  0  0  0  0  0  0  0  0  0  0
   63.5198   32.2619   46.7952 H   0  0  0  0  0  0  0  0  0  0  0  0
   64.2523   33.9247   46.7532 H   0  0  0  0  0  0  0  0  0  0  0  0
  1  2  1  0
  2  3  1  0
  3  4  1  0
  4  5  1  0
  5  6  1  0
  6  7  2  0
  6  8  2  0
  6  9  1  0
  9 10  2  0
 10 11  1  0
 11 12  2  0
 12 13  1  0
 13 14  1  0
 14 15  1  0
 15 16  2  0
 15 17  1  0
 17 18  1  0
 18 19  2  0
 19 20  1  0
 20 21  2  0
 20 22  1  0
 22 23  1  0
 13 24  2  0
  5 25  1  0
 25 26  1  0
 26  2  1  0
 24  9  1  0
 23 17  2  0
  1 27  1  0
  1 28  1  0
  1 29  1  0
  3 30  1  0
  3 31  1  0
  4 32  1  0
  4 33  1  0
 10 34  1  0
 11 35  1  0
 12 36  1  0
 14 37  1  0
 18 38  1  0
 19 39  1  0
 22 40  1  0
 24 41  1  0
 25 42  1  0
 25 43  1  0
 26 44  1  0
 26 45  1  0
M  END
>  <smiles>  (7) 
CN1CCN(S(=O)(=O)c2cccc(NC(=O)c3ccc(=O)[nH]n3)c2)CC1

>  <score_type>  (7) 
oracle

>  <origin>  (7) 
adg

>  <m_score__min__energy>  (7) 
-9.0399999999999991

>  <m_primary>  (7) 
energy

$$$$
7:0
     RDKit          3D

 41 43  0  0  0  0  0  0  0  0999 V2000
   61.7543   29.7504   48.8302 H   0  0  0  0  0  0  0  0  0  0  0  0
   61.1040   30.0860   48.0090 C   0  0  0  0  0  0  0  0  0  0  0  0
   60.5790   29.1540   47.1090 C   0  0  0  0  0  0  0  0  0  0  0  0
   60.8221   28.0872   47.2222 H   0  0  0  0  0  0  0  0  0  0  0  0
   59.7460   29.5710   46.0650 C   0  0  0  0  0  0  0  0  0  0  0  0
   59.2340   28.6090   45.1810 O   0  0  0  0  0  0  0  0  0  0  0  0
   58.4140   27.5290   45.5440 C   0  0  0  0  0  0  0  0  0  0  0  0
   58.9790   26.2720   45.8290 C   0  0  0  0  0  0  0  0  0  0  0  0
   60.0712   26.1455   45.7973 H   0  0  0  0  0  0  0  0  0  0  0  0
   58.1670   25.1860   46.1510 C   0  0  0  0  0  0  0  0  0  0  0  0
   58.7370   23.9480   46.4250 O   0  0  0  0  0  0  0  0  0  0  0  0
   56.7840   25.3380   46.1920 C   0  0  0  0  0  0  0  0  0  0  0  0
   56.1474   24.4801   46.4543 H   0  0  0  0  0  0  0  0  0  0  0  0
   56.1990   26.5740   45.9020 C   0  0  0  0  0  0  0  0  0  0  0  0
   54.8150   26.6830   45.9670 O   0  0  0  0  0  0  0  0  0  0  0  0
   57.0060   27.6860   45.5670 C   0  0  0  0  0  0  0  0  0  0  0  0
   56.3820   29.0010   45.2530 C   0  0  0  0  0  0  0  0  0  0  0  0
   56.9640   30.0780   45.5500 O   0  0  0  0  0  0  0  0  0  0  0  0
   55.1430   29.0670   44.6260 O   0  0  0  0  0  0  0  0  0  0  0  0
   59.4750   30.9410   45.9040 C   0  0  0  0  0  0  0  0  0  0  0  0
   58.8602   31.2815   45.0577 H   0  0  0  0  0  0  0  0  0  0  0  0
   59.9840   31.8750   46.8160 C   0  0  0  0  0  0  0  0  0  0  0  0
   59.5950   33.5810   46.6370 S   0  0  0  0  0  0  0  0  0  0  0  0
   59.5370   33.9860   45.1910 O   0  0  0  0  0  0  0  0  0  0  0  0
   58.2420   33.8080   47.2480 O   0  0  0  0  0  0  0  0  0  0  0  0
   60.7420   34.5770   47.4780 N   0  0  0  0  0  0  0  0  0  0  0  0
   61.6810   34.2490   48.3200 C   0  0  0  0  0  0  0  0  0  0  0  0
   61.4820   34.3080   49.6170 O   0  0  0  0  0  0  0  0  0  0  0  0
   62.5310   33.9150   50.2790 N   0  0  0  0  0  0  0  0  0  0  0  0
   63.4670   33.5800   49.3720 C   0  0  0  0  0  0  0  0  0  0  0  0
   64.8160   33.0550   49.7410 C   0  0  0  0  0  0  0  0  0  0  0  0
   64.9084   33.0190   50.8365 H   0  0  0  0  0  0  0  0  0  0  0  0
   64.9407   32.0427   49.3291 H   0  0  0  0  0  0  0  0  0  0  0  0
   65.5922   33.7167   49.3291 H   0  0  0  0  0  0  0  0  0  0  0  0
   62.9820   33.7910   48.0890 C   0  0  0  0  0  0  0  0  0  0  0  0
   63.7260   33.4910   46.8210 C   0  0  0  0  0  0  0  0  0  0  0  0
   64.7206   33.0899   47.0656 H   0  0  0  0  0  0  0  0  0  0  0  0
   63.1655   32.7486   46.2339 H   0  0  0  0  0  0  0  0  0  0  0  0
   63.8373   34.4145   46.2339 H   0  0  0  0  0  0  0  0  0  0  0  0
   60.8040   31.4430   47.8670 C   0  0  0  0  0  0  0  0  0  0  0  0
   61.2120   32.1734   48.5812 H   0  0  0  0  0  0  0  0  0  0  0  0
  1  2  1  0
  2  3  2  0
  3  4  1  0
  3  5  1  0
  5  6  1  0
  6  7  1  0
  7  8  2  0
  8  9  1  0
  8 10  1  0
 10 11  1  0
 10 12  2  0
 12 13  1  0
 12 14  1  0
 14 15  1  0
 14 16  2  0
 16 17  1  0
 17 18  2  0
 17 19  1  0
  5 20  2  0
 20 21  1  0
 20 22  1  0
 22 23  1  0
 23 24  2  0
 23 25  2  0
 23 26  1  0
 26 27  2  0
 27 28  1  0
 28 29  1  0
 29 30  1  0
 30 31  1  0
 31 32  1  0
 31 33  1  0
 31 34  1  0
 30 35  2  0
 35 36  1  0
 36 37  1  0
 36 38  1  0
 36 39  1  0
 22 40  2  0
 40 41  1  0
 40  2  1  0
 16  7  1  0
 35 27  1  0
M  CHG  4  11  -1  15  -1  19  -1  29  -1
M  END
>  <UniqueID>  (8) 
7

>  <SMILES>  (8) 
Cc1[n-]o/c(=N/S(=O)(=O)c2cccc(Oc3cc([O-])cc([O-])c3C(=O)[O-])c2)c1C

>  <Energy>  (8) 
91.28703071165674

>  <Genealogy>  (8) 
Cc1[n-]oc(=NS(=O)(=O)c2cccc(Oc3cc([O-])cc([O-])c3C(=O)[O-])c2)c1C (protonated)
Cc1[n-]o/c(=N/S(=O)(=O)c2cccc(Oc3cc([O-])cc([O-])c3C(=O)[O-])c2)c1C (cis-trans isomerization)
Cc1[n-]o/c(=N/S(=O)(=O)c2cccc(Oc3cc([O-])cc([O-])c3C(=O)[O-])c2)c1C (3D coordinates assigned)
Cc1[n-]o/c(=N/S(=O)(=O)c2cccc(Oc3cc([O-])cc([O-])c3C(=O)[O-])c2)c1C (optimized conformer: 91.28703071165674 kcal/mol)

>  <smiles>  (8) 
Cc1[nH]oc(=NS(=O)(=O)c2cccc(Oc3cc(O)cc(O)c3C(=O)O)c2)c1C

>  <score_type>  (8) 
oracle

>  <origin>  (8) 
adg

>  <m_score__min__energy>  (8) 
-16.710000000000001

>  <m_primary>  (8) 
energy

$$$$
8:0
     RDKit          3D

 29 30  0  0  0  0  0  0  0  0999 V2000
   55.1510   29.5040   44.9130 N   0  0  0  0  0  0  0  0  0  0  0  0
   56.4560   28.9580   45.1550 C   0  0  0  0  0  0  0  0  0  0  0  0
   56.5720   27.6030   45.2570 N   0  0  0  0  0  0  0  0  0  0  0  0
   57.7720   27.0040   45.4690 C   0  0  0  0  0  0  0  0  0  0  0  0
   57.8800   25.3760   45.5800 S   0  0  0  0  0  0  0  0  0  0  0  0
   58.8900   27.7550   45.5860 N   0  0  0  0  0  0  0  0  0  0  0  0
   58.8480   29.1070   45.5020 C   0  0  0  0  0  0  0  0  0  0  0  0
   59.9240   29.7510   45.6220 O   0  0  0  0  0  0  0  0  0  0  0  0
   57.6180   29.7740   45.2850 C   0  0  0  0  0  0  0  0  0  0  0  0
   57.5880   31.3050   45.2320 C   0  0  0  0  0  0  0  0  0  0  0  0
   58.2090   31.8550   43.9280 C   0  0  0  0  0  0  0  0  0  0  0  0
   58.0750   33.3880   43.8310 C   0  0  0  0  0  0  0  0  0  0  0  0
   58.1780   34.1130   45.1900 C   0  0  0  0  0  0  0  0  0  0  0  0
   58.9050   33.2740   46.2470 C   0  0  0  0  0  0  0  0  0  0  0  0
   58.1510   31.9620   46.5210 C   0  0  0  0  0  0  0  0  0  0  0  0
   54.3650   28.9660   44.4980 H   0  0  0  0  0  0  0  0  0  0  0  0
   54.9300   30.4780   45.2180 H   0  0  0  0  0  0  0  0  0  0  0  0
   55.7160   27.0080   45.1640 H   0  0  0  0  0  0  0  0  0  0  0  0
   56.5293   31.6023   45.2034 H   0  0  0  0  0  0  0  0  0  0  0  0
   59.2760   31.5887   43.9020 H   0  0  0  0  0  0  0  0  0  0  0  0
   57.6693   31.4106   43.0788 H   0  0  0  0  0  0  0  0  0  0  0  0
   58.8746   33.7647   43.1762 H   0  0  0  0  0  0  0  0  0  0  0  0
   57.0704   33.5958   43.4340 H   0  0  0  0  0  0  0  0  0  0  0  0
   58.7281   35.0548   45.0470 H   0  0  0  0  0  0  0  0  0  0  0  0
   57.1550   34.2943   45.5515 H   0  0  0  0  0  0  0  0  0  0  0  0
   59.9172   33.0389   45.8863 H   0  0  0  0  0  0  0  0  0  0  0  0
   58.9544   33.8524   47.1814 H   0  0  0  0  0  0  0  0  0  0  0  0
   58.8423   31.2543   47.0019 H   0  0  0  0  0  0  0  0  0  0  0  0
   57.2948   32.2036   47.1679 H   0  0  0  0  0  0  0  0  0  0  0  0
  1  2  1  0
  2  3  1  0
  3  4  1  0
  4  5  2  0
  4  6  1  0
  6  7  1  0
  7  8  2  0
  7  9  1  0
  9 10  1  0
 10 11  1  0
 11 12  1  0
 12 13  1  0
 13 14  1  0
 14 15  1  0
  9  2  2  0
 15 10  1  0
  1 16  1  0
  1 17  1  0
  3 18  1  0
 10 19  1  0
 11 20  1  0
 11 21  1  0
 12 22  1  0
 12 23  1  0
 13 24  1  0
 13 25  1  0
 14 26  1  0
 14 27  1  0
 15 28  1  0
 15 29  1  0
M  CHG  1   6  -1
M  END
>  <UniqueID>  (9) 
8

>  <SMILES>  (9) 
Nc1[nH]c(=S)[n-]c(=O)c1C1CCCCC1

>  <Energy>  (9) 
38.05922840363473

>  <Genealogy>  (9) 
Nc1[nH]c(=S)[n-]c(=O)c1C1CCCCC1 (protonated)
Nc1[nH]c(=S)[n-]c(=O)c1C1CCCCC1 (3D coordinates assigned)
Nc1[nH]c(=S)[n-]c(=O)c1C1CCCCC1 (nonaromatic ring conformer: 38.05922840363473 kcal/mol)

>  <smiles>  (9) 
Nc1[nH]c(=S)[nH]c(=O)c1C1CCCCC1

>  <score_type>  (9) 
oracle

>  <origin>  (9) 
adg

>  <m_score__min__energy>  (9) 
-8.3699999999999992

>  <m_primary>  (9) 
energy

$$$$
9:0
     RDKit          3D

 55 58  0  0  0  0  0  0  0  0999 V2000
   57.4050   32.3470   41.0500 C   0  0  0  0  0  0  0  0  0  0  0  0
   57.0470   31.8260   42.3250 O   0  0  0  0  0  0  0  0  0  0  0  0
   57.6760   32.1640   43.5320 C   0  0  0  0  0  0  0  0  0  0  0  0
   58.2890   33.4170   43.7220 C   0  0  0  0  0  0  0  0  0  0  0  0
   58.9120   33.7260   44.9310 C   0  0  0  0  0  0  0  0  0  0  0  0
   58.9280   32.7980   45.9830 C   0  0  0  0  0  0  0  0  0  0  0  0
   59.6040   33.1320   47.2610 C   0  0  0  0  0  0  0  0  0  0  0  0
   59.1200   34.0260   48.0070 O   0  0  0  0  0  0  0  0  0  0  0  0
   60.7910   32.4340   47.6710 N   0  0  0  0  0  0  0  0  0  0  0  0
   61.6410   32.9190   48.7200 C   0  0  0  0  0  0  0  0  0  0  0  0
   61.1240   33.0090   50.0200 C   0  0  0  0  0  0  0  0  0  0  0  0
   61.9140   33.4920   51.0660 C   0  0  0  0  0  0  0  0  0  0  0  0
   63.2420   33.8720   50.8310 C   0  0  0  0  0  0  0  0  0  0  0  0
   64.0770   34.4330   51.9440 C   0  0  0  0  0  0  0  0  0  0  0  0
   63.7680   33.7770   49.5350 C   0  0  0  0  0  0  0  0  0  0  0  0
   62.9900   33.2740   48.4780 C   0  0  0  0  0  0  0  0  0  0  0  0
   63.6110   33.1340   47.1160 C   0  0  0  0  0  0  0  0  0  0  0  0
   58.3230   31.5450   45.7940 C   0  0  0  0  0  0  0  0  0  0  0  0
   57.6960   31.2250   44.5790 C   0  0  0  0  0  0  0  0  0  0  0  0
   56.9310   29.6440   44.3780 S   0  0  0  0  0  0  0  0  0  0  0  0
   56.6560   29.3820   42.9240 O   0  0  0  0  0  0  0  0  0  0  0  0
   55.6200   29.6230   45.1080 O   0  0  0  0  0  0  0  0  0  0  0  0
   58.0010   28.4060   44.9620 N   0  0  0  0  0  0  0  0  0  0  0  0
   59.4510   28.5730   44.9890 C   0  0  0  0  0  0  0  0  0  0  0  0
   60.0160   27.3190   45.6950 C   0  0  0  0  0  0  0  0  0  0  0  0
   58.7940   26.5510   46.0590 C   0  0  0  0  0  0  0  0  0  0  0  0
   58.7220   25.3420   46.7550 C   0  0  0  0  0  0  0  0  0  0  0  0
   57.4590   24.7910   47.0110 C   0  0  0  0  0  0  0  0  0  0  0  0
   56.2970   25.4510   46.5710 C   0  0  0  0  0  0  0  0  0  0  0  0
   56.3930   26.6650   45.8720 C   0  0  0  0  0  0  0  0  0  0  0  0
   57.6660   27.1970   45.6280 C   0  0  0  0  0  0  0  0  0  0  0  0
   58.0234   33.2470   41.1822 H   0  0  0  0  0  0  0  0  0  0  0  0
   57.9744   31.5897   40.4912 H   0  0  0  0  0  0  0  0  0  0  0  0
   56.4939   32.6070   40.4912 H   0  0  0  0  0  0  0  0  0  0  0  0
   58.2765   34.1588   42.9099 H   0  0  0  0  0  0  0  0  0  0  0  0
   59.3949   34.7058   45.0608 H   0  0  0  0  0  0  0  0  0  0  0  0
   60.9210   31.4460   47.3550 H   0  0  0  0  0  0  0  0  0  0  0  0
   60.0880   32.6968   50.2180 H   0  0  0  0  0  0  0  0  0  0  0  0
   61.4917   33.5743   52.0784 H   0  0  0  0  0  0  0  0  0  0  0  0
   63.6424   34.1410   52.9114 H   0  0  0  0  0  0  0  0  0  0  0  0
   65.1013   34.0391   51.8683 H   0  0  0  0  0  0  0  0  0  0  0  0
   64.0995   35.5302   51.8683 H   0  0  0  0  0  0  0  0  0  0  0  0
   64.8019   34.0999   49.3430 H   0  0  0  0  0  0  0  0  0  0  0  0
   64.6790   32.8932   47.2230 H   0  0  0  0  0  0  0  0  0  0  0  0
   63.1067   32.3270   46.5643 H   0  0  0  0  0  0  0  0  0  0  0  0
   63.5017   34.0793   46.5643 H   0  0  0  0  0  0  0  0  0  0  0  0
   58.3405   30.8050   46.6077 H   0  0  0  0  0  0  0  0  0  0  0  0
   59.8458   28.6445   43.9648 H   0  0  0  0  0  0  0  0  0  0  0  0
   59.7388   29.4942   45.5167 H   0  0  0  0  0  0  0  0  0  0  0  0
   60.6576   26.7395   45.0150 H   0  0  0  0  0  0  0  0  0  0  0  0
   60.6466   27.5613   46.5631 H   0  0  0  0  0  0  0  0  0  0  0  0
   59.6364   24.8336   47.0947 H   0  0  0  0  0  0  0  0  0  0  0  0
   57.3760   23.8399   47.5574 H   0  0  0  0  0  0  0  0  0  0  0  0
   55.3085   25.0139   46.7756 H   0  0  0  0  0  0  0  0  0  0  0  0
   55.4892   27.1866   45.5239 H   0  0  0  0  0  0  0  0  0  0  0  0
  1  2  1  0
  2  3  1  0
  3  4  2  0
  4  5  1  0
  5  6  2  0
  6  7  1  0
  7  8  2  0
  7  9  1  0
  9 10  1  0
 10 11  2  0
 11 12  1  0
 12 13  2  0
 13 14  1  0
 13 15  1  0
 15 16  2  0
 16 17  1  0
  6 18  1  0
 18 19  2  0
 19 20  1  0
 20 21  2  0
 20 22  2  0
 20 23  1  0
 23 24  1  0
 24 25  1  0
 25 26  1  0
 26 27  2  0
 27 28  1  0
 28 29  2  0
 29 30  1  0
 30 31  2  0
 19  3  1  0
 31 23  1  0
 16 10  1  0
 31 26  1  0
  1 32  1  0
  1 33  1  0
  1 34  1  0
  4 35  1  0
  5 36  1  0
  9 37  1  0
 11 38  1  0
 12 39  1  0
 14 40  1  0
 14 41  1  0
 14 42  1  0
 15 43  1  0
 17 44  1  0
 17 45  1  0
 17 46  1  0
 18 47  1  0
 24 48  1  0
 24 49  1  0
 25 50  1  0
 25 51  1  0
 27 52  1  0
 28 53  1  0
 29 54  1  0
 30 55  1  0
M  END
>  <UniqueID>  (10) 
9

>  <SMILES>  (10) 
COc1ccc(C(=O)Nc2ccc(C)cc2C)cc1S(=O)(=O)N1CCc2ccccc21

>  <Energy>  (10) 
82.16542609062583

>  <Genealogy>  (10) 
COc1ccc(C(=O)Nc2ccc(C)cc2C)cc1S(=O)(=O)N1CCc2ccccc21 (3D coordinates assigned)
COc1ccc(C(=O)Nc2ccc(C)cc2C)cc1S(=O)(=O)N1CCc2ccccc21 (nonaromatic ring conformer: 82.16542609062583 kcal/mol)

>  <smiles>  (10) 
COc1ccc(C(=O)Nc2ccc(C)cc2C)cc1S(=O)(=O)N1CCc2ccccc21

>  <score_type>  (10) 
oracle

>  <origin>  (10) 
adg

>  <m_score__min__energy>  (10) 
-9.5899999999999999

>  <m_primary>  (10) 
energy

$$$$
10:0
     RDKit          3D

 48 51  0  0  0  0  0  0  0  0999 V2000
   60.3410   31.1320   52.1220 O   0  0  0  0  0  0  0  0  0  0  0  0
   59.3890   30.8420   51.3500 C   0  0  0  0  0  0  0  0  0  0  0  0
   58.1360   31.6780   51.3880 C   0  0  0  0  0  0  0  0  0  0  0  0
   57.9280   32.3450   50.1570 O   0  0  0  0  0  0  0  0  0  0  0  0
   59.0740   33.0880   49.7990 C   0  0  0  0  0  0  0  0  0  0  0  0
   58.9920   33.4300   48.3400 C   0  0  0  0  0  0  0  0  0  0  0  0
   59.6950   34.5330   47.8280 C   0  0  0  0  0  0  0  0  0  0  0  0
   59.5860   34.8720   46.4760 C   0  0  0  0  0  0  0  0  0  0  0  0
   58.7660   34.1210   45.6300 C   0  0  0  0  0  0  0  0  0  0  0  0
   58.0500   33.0320   46.1350 C   0  0  0  0  0  0  0  0  0  0  0  0
   58.1550   32.6910   47.4870 C   0  0  0  0  0  0  0  0  0  0  0  0
   59.5940   29.8330   50.3530 N   0  0  0  0  0  0  0  0  0  0  0  0
   60.2380   30.0080   49.0850 C   0  0  0  0  0  0  0  0  0  0  0  0
   61.2040   31.0070   48.8880 C   0  0  0  0  0  0  0  0  0  0  0  0
   61.7800   31.1890   47.6290 C   0  0  0  0  0  0  0  0  0  0  0  0
   61.3890   30.3850   46.5560 C   0  0  0  0  0  0  0  0  0  0  0  0
   60.4210   29.3830   46.7340 C   0  0  0  0  0  0  0  0  0  0  0  0
   59.9680   28.5470   45.5590 C   0  0  0  0  0  0  0  0  0  0  0  0
   58.4550   28.5290   45.4200 C   0  0  0  0  0  0  0  0  0  0  0  0
   57.8370   29.7070   44.9610 C   0  0  0  0  0  0  0  0  0  0  0  0
   56.4510   29.7750   44.8410 C   0  0  0  0  0  0  0  0  0  0  0  0
   55.9040   30.8320   44.4300 O   0  0  0  0  0  0  0  0  0  0  0  0
   55.6870   28.7060   45.1690 N   0  0  0  0  0  0  0  0  0  0  0  0
   56.2280   27.5460   45.6180 C   0  0  0  0  0  0  0  0  0  0  0  0
   55.4030   26.5160   45.9340 N   0  0  0  0  0  0  0  0  0  0  0  0
   55.8940   25.3380   46.3870 C   0  0  0  0  0  0  0  0  0  0  0  0
   55.1080   24.3980   46.6730 O   0  0  0  0  0  0  0  0  0  0  0  0
   57.2300   25.1700   46.5300 N   0  0  0  0  0  0  0  0  0  0  0  0
   58.1090   26.1610   46.2320 C   0  0  0  0  0  0  0  0  0  0  0  0
   59.3350   25.9310   46.3820 O   0  0  0  0  0  0  0  0  0  0  0  0
   57.6330   27.4120   45.7600 C   0  0  0  0  0  0  0  0  0  0  0  0
   59.8240   29.2270   47.9990 C   0  0  0  0  0  0  0  0  0  0  0  0
   57.2749   31.0247   51.5921 H   0  0  0  0  0  0  0  0  0  0  0  0
   58.2456   32.4340   52.1795 H   0  0  0  0  0  0  0  0  0  0  0  0
   59.1160   34.0124   50.3937 H   0  0  0  0  0  0  0  0  0  0  0  0
   59.9798   32.4951   49.9937 H   0  0  0  0  0  0  0  0  0  0  0  0
   60.3338   35.1324   48.4933 H   0  0  0  0  0  0  0  0  0  0  0  0
   60.1464   35.7308   46.0780 H   0  0  0  0  0  0  0  0  0  0  0  0
   58.6839   34.3870   44.5658 H   0  0  0  0  0  0  0  0  0  0  0  0
   57.4033   32.4427   45.4683 H   0  0  0  0  0  0  0  0  0  0  0  0
   57.5804   31.8413   47.8842 H   0  0  0  0  0  0  0  0  0  0  0  0
   61.5083   31.6486   49.7281 H   0  0  0  0  0  0  0  0  0  0  0  0
   62.5433   31.9673   47.4820 H   0  0  0  0  0  0  0  0  0  0  0  0
   61.8420   30.5375   45.5653 H   0  0  0  0  0  0  0  0  0  0  0  0
   60.4038   28.9630   44.6387 H   0  0  0  0  0  0  0  0  0  0  0  0
   60.3050   27.5137   45.7285 H   0  0  0  0  0  0  0  0  0  0  0  0
   58.4522   30.5793   44.6954 H   0  0  0  0  0  0  0  0  0  0  0  0
   59.0243   28.4842   48.1359 H   0  0  0  0  0  0  0  0  0  0  0  0
  1  2  2  0
  2  3  1  0
  3  4  1  0
  4  5  1  0
  5  6  1  0
  6  7  2  0
  7  8  1  0
  8  9  2  0
  9 10  1  0
 10 11  2  0
  2 12  1  0
 12 13  1  0
 13 14  2  0
 14 15  1  0
 15 16  2  0
 16 17  1  0
 17 18  1  0
 18 19  1  0
 19 20  2  0
 20 21  1  0
 21 22  2  0
 21 23  1  0
 23 24  1  0
 24 25  1  0
 25 26  1  0
 26 27  2  0
 26 28  1  0
 28 29  1  0
 29 30  2  0
 29 31  1  0
 17 32  2  0
 11  6  1  0
 32 13  1  0
 31 19  1  0
 31 24  2  0
  3 33  1  0
  3 34  1  0
  5 35  1  0
  5 36  1  0
  7 37  1  0
  8 38  1  0
  9 39  1  0
 10 40  1  0
 11 41  1  0
 14 42  1  0
 15 43  1  0
 16 44  1  0
 18 45  1  0
 18 46  1  0
 20 47  1  0
 32 48  1  0
M  CHG  4  12  -1  23  -1  25  -1  28  -1
M  END
>  <UniqueID>  (11) 
10

>  <SMILES>  (11) 
O=C(COCc1ccccc1)[N-]c1cccc(Cc2cc(=O)[n-]c3[n-]c(=O)[n-]c(=O)c23)c1

>  <Energy>  (11) 
69.836091486395

>  <Genealogy>  (11) 
O=C(COCc1ccccc1)[N-]c1cccc(Cc2cc(=O)[n-]c3[n-]c(=O)[n-]c(=O)c23)c1 (protonated)
O=C(COCc1ccccc1)[N-]c1cccc(Cc2cc(=O)[n-]c3[n-]c(=O)[n-]c(=O)c23)c1 (3D coordinates assigned)
O=C(COCc1ccccc1)[N-]c1cccc(Cc2cc(=O)[n-]c3[n-]c(=O)[n-]c(=O)c23)c1 (optimized conformer: 69.836091486395 kcal/mol)

>  <smiles>  (11) 
O=C(COCc1ccccc1)Nc1cccc(Cc2cc(=O)[nH]c3[nH]c(=O)[nH]c(=O)c23)c1

>  <score_type>  (11) 
oracle

>  <origin>  (11) 
adg

>  <m_score__min__energy>  (11) 
-16.84

>  <m_primary>  (11) 
energy

$$$$
11:0
     RDKit          3D

 26 27  0  0  0  0  0  0  0  0999 V2000
   57.5130   30.3750   44.1190 C   0  0  0  0  0  0  0  0  0  0  0  0
   57.5740   29.0630   44.8500 C   0  0  0  0  0  0  0  0  0  0  0  0
   58.8150   28.4990   45.1850 C   0  0  0  0  0  0  0  0  0  0  0  0
   58.8750   27.2890   45.8750 C   0  0  0  0  0  0  0  0  0  0  0  0
   57.7010   26.6290   46.2400 C   0  0  0  0  0  0  0  0  0  0  0  0
   56.4450   27.1720   45.9120 C   0  0  0  0  0  0  0  0  0  0  0  0
   55.2400   26.4940   46.3250 N   0  0  0  0  0  0  0  0  0  0  0  0
   55.1490   25.2250   45.6530 C   0  0  0  0  0  0  0  0  0  0  0  0
   56.1330   24.8210   44.7400 C   0  0  0  0  0  0  0  0  0  0  0  0
   55.9810   23.5930   44.0940 C   0  0  0  0  0  0  0  0  0  0  0  0
   56.8480   23.1990   43.2700 O   0  0  0  0  0  0  0  0  0  0  0  0
   54.8930   22.8220   44.3520 N   0  0  0  0  0  0  0  0  0  0  0  0
   53.9430   23.2280   45.2340 C   0  0  0  0  0  0  0  0  0  0  0  0
   52.9420   22.5010   45.4570 O   0  0  0  0  0  0  0  0  0  0  0  0
   54.0740   24.4190   45.8730 N   0  0  0  0  0  0  0  0  0  0  0  0
   56.3880   28.4010   45.2210 C   0  0  0  0  0  0  0  0  0  0  0  0
   55.1550   28.9660   44.9020 O   0  0  0  0  0  0  0  0  0  0  0  0
   57.4747   31.1988   44.8469 H   0  0  0  0  0  0  0  0  0  0  0  0
   58.4070   30.4849   43.4876 H   0  0  0  0  0  0  0  0  0  0  0  0
   56.6127   30.4014   43.4876 H   0  0  0  0  0  0  0  0  0  0  0  0
   59.7447   29.0142   44.9017 H   0  0  0  0  0  0  0  0  0  0  0  0
   59.8515   26.8530   46.1326 H   0  0  0  0  0  0  0  0  0  0  0  0
   57.7578   25.6771   46.7883 H   0  0  0  0  0  0  0  0  0  0  0  0
   55.2210   26.3650   47.3630 H   0  0  0  0  0  0  0  0  0  0  0  0
   54.4030   27.0730   46.0770 H   0  0  0  0  0  0  0  0  0  0  0  0
   57.0064   25.4582   44.5370 H   0  0  0  0  0  0  0  0  0  0  0  0
  1  2  1  0
  2  3  2  0
  3  4  1  0
  4  5  2  0
  5  6  1  0
  6  7  1  0
  7  8  1  0
  8  9  2  0
  9 10  1  0
 10 11  2  0
 10 12  1  0
 12 13  1  0
 13 14  2  0
 13 15  1  0
  6 16  2  0
 16 17  1  0
 16  2  1  0
 15  8  1  0
  1 18  1  0
  1 19  1  0
  1 20  1  0
  3 21  1  0
  4 22  1  0
  5 23  1  0
  7 24  1  0
  7 25  1  0
  9 26  1  0
M  CHG  4   7   1  12  -1  15  -1  17  -1
M  END
>  <UniqueID>  (12) 
11

>  <SMILES>  (12) 
Cc1cccc([NH2+]c2cc(=O)[n-]c(=O)[n-]2)c1[O-]

>  <Energy>  (12) 
30.13311064116064

>  <Genealogy>  (12) 
Cc1cccc([NH2+]c2cc(=O)[n-]c(=O)[n-]2)c1[O-] (protonated)
Cc1cccc([NH2+]c2cc(=O)[n-]c(=O)[n-]2)c1[O-] (3D coordinates assigned)
Cc1cccc([NH2+]c2cc(=O)[n-]c(=O)[n-]2)c1[O-] (optimized conformer: 30.13311064116064 kcal/mol)

>  <smiles>  (12) 
Cc1cccc(Nc2cc(=O)[nH]c(=O)[nH]2)c1O

>  <score_type>  (12) 
oracle

>  <origin>  (12) 
adg

>  <m_score__min__energy>  (12) 
-11.75

>  <m_primary>  (12) 
energy

$$$$
12:0
     RDKit          3D

 51 54  0  0  0  0  0  0  0  0999 V2000
   64.1280   33.0870   47.1920 C   0  0  0  0  0  0  0  0  0  0  0  0
   62.8990   33.2290   48.0270 C   0  0  0  0  0  0  0  0  0  0  0  0
   62.7500   32.7880   49.3270 C   0  0  0  0  0  0  0  0  0  0  0  0
   61.4830   33.2080   49.6870 C   0  0  0  0  0  0  0  0  0  0  0  0
   60.8530   32.9430   50.9950 C   0  0  0  0  0  0  0  0  0  0  0  0
   60.1920   33.8550   51.5610 O   0  0  0  0  0  0  0  0  0  0  0  0
   61.0220   31.6830   51.6420 N   0  0  0  0  0  0  0  0  0  0  0  0
   60.2660   30.4910   51.2890 C   0  0  0  0  0  0  0  0  0  0  0  0
   60.0960   30.4410   49.8000 C   0  0  0  0  0  0  0  0  0  0  0  0
   61.1350   29.9750   48.9840 C   0  0  0  0  0  0  0  0  0  0  0  0
   60.9920   29.9830   47.5980 C   0  0  0  0  0  0  0  0  0  0  0  0
   59.8000   30.4630   47.0280 C   0  0  0  0  0  0  0  0  0  0  0  0
   59.6140   30.5260   45.6390 O   0  0  0  0  0  0  0  0  0  0  0  0
   58.4010   30.3250   44.9670 C   0  0  0  0  0  0  0  0  0  0  0  0
   58.1790   31.0000   43.7600 C   0  0  0  0  0  0  0  0  0  0  0  0
   56.9790   30.8270   43.0620 C   0  0  0  0  0  0  0  0  0  0  0  0
   55.9840   29.9920   43.5760 C   0  0  0  0  0  0  0  0  0  0  0  0
   56.1860   29.3320   44.7930 C   0  0  0  0  0  0  0  0  0  0  0  0
   57.3860   29.5010   45.4920 C   0  0  0  0  0  0  0  0  0  0  0  0
   58.8180   30.9380   47.8390 N   0  0  0  0  0  0  0  0  0  0  0  0
   58.9360   30.9400   49.1940 C   0  0  0  0  0  0  0  0  0  0  0  0
   60.9380   33.8810   48.6430 N   0  0  0  0  0  0  0  0  0  0  0  0
   59.6470   34.5710   48.5820 C   0  0  0  0  0  0  0  0  0  0  0  0
   58.9390   34.3710   47.2610 C   0  0  0  0  0  0  0  0  0  0  0  0
   57.7520   33.6200   47.1540 C   0  0  0  0  0  0  0  0  0  0  0  0
   57.1440   33.4370   45.9070 C   0  0  0  0  0  0  0  0  0  0  0  0
   57.7280   33.9720   44.7560 C   0  0  0  0  0  0  0  0  0  0  0  0
   58.9230   34.6890   44.8480 C   0  0  0  0  0  0  0  0  0  0  0  0
   59.5240   34.8900   46.0930 C   0  0  0  0  0  0  0  0  0  0  0  0
   61.8000   33.9020   47.6380 N   0  0  0  0  0  0  0  0  0  0  0  0
   65.0063   32.9855   47.8465 H   0  0  0  0  0  0  0  0  0  0  0  0
   64.0387   32.1932   46.5571 H   0  0  0  0  0  0  0  0  0  0  0  0
   64.2448   33.9776   46.5571 H   0  0  0  0  0  0  0  0  0  0  0  0
   63.4748   32.2294   49.9375 H   0  0  0  0  0  0  0  0  0  0  0  0
   60.8091   29.5965   51.6280 H   0  0  0  0  0  0  0  0  0  0  0  0
   59.2791   30.5209   51.7739 H   0  0  0  0  0  0  0  0  0  0  0  0
   62.0650   29.6023   49.4381 H   0  0  0  0  0  0  0  0  0  0  0  0
   61.8056   29.6165   46.9548 H   0  0  0  0  0  0  0  0  0  0  0  0
   58.9531   31.6704   43.3583 H   0  0  0  0  0  0  0  0  0  0  0  0
   56.8187   31.3492   42.1072 H   0  0  0  0  0  0  0  0  0  0  0  0
   55.0425   29.8535   43.0244 H   0  0  0  0  0  0  0  0  0  0  0  0
   55.4001   28.6793   45.2008 H   0  0  0  0  0  0  0  0  0  0  0  0
   57.5374   28.9893   46.4539 H   0  0  0  0  0  0  0  0  0  0  0  0
   58.1185   31.3344   49.8154 H   0  0  0  0  0  0  0  0  0  0  0  0
   59.0041   34.1862   49.3874 H   0  0  0  0  0  0  0  0  0  0  0  0
   59.8408   35.6479   48.6948 H   0  0  0  0  0  0  0  0  0  0  0  0
   57.3015   33.1759   48.0539 H   0  0  0  0  0  0  0  0  0  0  0  0
   56.2040   32.8706   45.8328 H   0  0  0  0  0  0  0  0  0  0  0  0
   57.2466   33.8285   43.7774 H   0  0  0  0  0  0  0  0  0  0  0  0
   59.3913   35.0957   43.9395 H   0  0  0  0  0  0  0  0  0  0  0  0
   60.4629   35.4592   46.1598 H   0  0  0  0  0  0  0  0  0  0  0  0
  1  2  1  0
  2  3  1  0
  3  4  2  0
  4  5  1  0
  5  6  2  0
  5  7  1  0
  7  8  1  0
  8  9  1  0
  9 10  2  0
 10 11  1  0
 11 12  2  0
 12 13  1  0
 13 14  1  0
 14 15  2  0
 15 16  1  0
 16 17  2  0
 17 18  1  0
 18 19  2  0
 12 20  1  0
 20 21  2  0
  4 22  1  0
 22 23  1  0
 23 24  1  0
 24 25  2  0
 25 26  1  0
 26 27  2  0
 27 28  1  0
 28 29  2  0
 22 30  1  0
 30  2  2  0
 21  9  1  0
 29 24  1  0
 19 14  1  0
  1 31  1  0
  1 32  1  0
  1 33  1  0
  3 34  1  0
  8 35  1  0
  8 36  1  0
 10 37  1  0
 11 38  1  0
 15 39  1  0
 16 40  1  0
 17 41  1  0
 18 42  1  0
 19 43  1  0
 21 44  1  0
 23 45  1  0
 23 46  1  0
 25 47  1  0
 26 48  1  0
 27 49  1  0
 28 50  1  0
 29 51  1  0
M  CHG  1   7  -1
M  END
>  <UniqueID>  (13) 
12

>  <SMILES>  (13) 
Cc1cc(C(=O)[N-]Cc2ccc(Oc3ccccc3)nc2)n(Cc2ccccc2)n1

>  <Energy>  (13) 
86.02069626910202

>  <Genealogy>  (13) 
Cc1cc(C(=O)[N-]Cc2ccc(Oc3ccccc3)nc2)n(Cc2ccccc2)n1 (protonated)
Cc1cc(C(=O)[N-]Cc2ccc(Oc3ccccc3)nc2)n(Cc2ccccc2)n1 (3D coordinates assigned)
Cc1cc(C(=O)[N-]Cc2ccc(Oc3ccccc3)nc2)n(Cc2ccccc2)n1 (optimized conformer: 86.02069626910202 kcal/mol)

>  <smiles>  (13) 
Cc1cc(C(=O)NCc2ccc(Oc3ccccc3)nc2)n(Cc2ccccc2)n1

>  <score_type>  (13) 
oracle

>  <origin>  (13) 
adg

>  <m_score__min__energy>  (13) 
-10.609999999999999

>  <m_primary>  (13) 
energy

$$$$
13:0
     RDKit          3D

 34 35  0  0  0  0  0  0  0  0999 V2000
   58.7048   35.6038   45.2884 H   0  0  0  0  0  0  0  0  0  0  0  0
   58.8320   34.5680   45.6360 C   0  0  0  0  0  0  0  0  0  0  0  0
   57.8200   33.6300   45.4200 C   0  0  0  0  0  0  0  0  0  0  0  0
   56.8942   33.9293   44.9069 H   0  0  0  0  0  0  0  0  0  0  0  0
   57.9820   32.3110   45.8550 C   0  0  0  0  0  0  0  0  0  0  0  0
   57.1803   31.5767   45.6871 H   0  0  0  0  0  0  0  0  0  0  0  0
   59.1650   31.9190   46.5060 C   0  0  0  0  0  0  0  0  0  0  0  0
   59.3500   30.4910   46.9570 C   0  0  0  0  0  0  0  0  0  0  0  0
   58.5790   29.8680   46.4801 H   0  0  0  0  0  0  0  0  0  0  0  0
   59.2637   30.4734   48.0535 H   0  0  0  0  0  0  0  0  0  0  0  0
   60.7330   29.9310   46.5890 C   0  0  0  0  0  0  0  0  0  0  0  0
   61.1584   29.4425   47.4781 H   0  0  0  0  0  0  0  0  0  0  0  0
   61.3439   30.7788   46.2456 H   0  0  0  0  0  0  0  0  0  0  0  0
   60.6970   28.9310   45.4690 C   0  0  0  0  0  0  0  0  0  0  0  0
   61.5750   28.9620   44.5650 O   0  0  0  0  0  0  0  0  0  0  0  0
   59.5410   28.1000   45.3220 N   0  0  0  0  0  0  0  0  0  0  0  0
   58.3080   28.4240   45.0460 C   0  0  0  0  0  0  0  0  0  0  0  0
   57.9840   29.4190   44.1450 C   0  0  0  0  0  0  0  0  0  0  0  0
   58.6726   30.0454   43.5590 H   0  0  0  0  0  0  0  0  0  0  0  0
   56.6050   29.4530   44.1430 C   0  0  0  0  0  0  0  0  0  0  0  0
   55.9826   30.1196   43.5279 H   0  0  0  0  0  0  0  0  0  0  0  0
   56.1450   28.5380   45.0160 N   0  0  0  0  0  0  0  0  0  0  0  0
   55.1400   28.3720   45.2470 H   0  0  0  0  0  0  0  0  0  0  0  0
   57.1660   27.9130   45.5830 N   0  0  0  0  0  0  0  0  0  0  0  0
   56.9730   26.9820   46.7000 C   0  0  0  0  0  0  0  0  0  0  0  0
   56.6973   27.5524   47.5992 H   0  0  0  0  0  0  0  0  0  0  0  0
   57.9121   26.4328   46.8624 H   0  0  0  0  0  0  0  0  0  0  0  0
   55.8900   25.9920   46.3980 C   0  0  0  0  0  0  0  0  0  0  0  0
   54.7810   26.3760   45.9400 O   0  0  0  0  0  0  0  0  0  0  0  0
   56.0790   24.6490   46.6950 O   0  0  0  0  0  0  0  0  0  0  0  0
   60.1730   32.8730   46.7310 C   0  0  0  0  0  0  0  0  0  0  0  0
   61.0963   32.5814   47.2531 H   0  0  0  0  0  0  0  0  0  0  0  0
   60.0070   34.1910   46.2940 C   0  0  0  0  0  0  0  0  0  0  0  0
   60.8013   34.9318   46.4680 H   0  0  0  0  0  0  0  0  0  0  0  0
  1  2  1  0
  2  3  2  0
  3  4  1  0
  3  5  1  0
  5  6  1  0
  5  7  2  0
  7  8  1  0
  8  9  1  0
  8 10  1  0
  8 11  1  0
 11 12  1  0
 11 13  1  0
 11 14  1  0
 14 15  2  0
 14 16  1  0
 16 17  2  0
 17 18  1  0
 18 19  1  0
 18 20  2  0
 20 21  1  0
 20 22  1  0
 22 23  1  0
 22 24  1  0
 24 25  1  0
 25 26  1  0
 25 27  1  0
 25 28  1  0
 28 29  2  0
 28 30  1  0
  7 31  1  0
 31 32  1  0
 31 33  2  0
 33 34  1  0
 33  2  1  0
 24 17  1  0
M  CHG  1  30  -1
M  END
>  <UniqueID>  (14) 
13

>  <SMILES>  (14) 
O=C([O-])Cn1[nH]cc/c1=N/C(=O)CCc1ccccc1

>  <Energy>  (14) 
73.11283003206624

>  <Genealogy>  (14) 
O=C([O-])Cn1[nH]ccc1=NC(=O)CCc1ccccc1 (protonated)
O=C([O-])Cn1[nH]cc/c1=N/C(=O)CCc1ccccc1 (cis-trans isomerization)
O=C([O-])Cn1[nH]cc/c1=N/C(=O)CCc1ccccc1 (3D coordinates assigned)
O=C([O-])Cn1[nH]cc/c1=N/C(=O)CCc1ccccc1 (optimized conformer: 73.11283003206624 kcal/mol)

>  <smiles>  (14) 
O=C(O)Cn1[nH]ccc1=NC(=O)CCc1ccccc1

>  <score_type>  (14) 
oracle

>  <origin>  (14) 
adg

>  <m_score__min__energy>  (14) 
-10.039999999999999

>  <m_primary>  (14) 
energy

$$$$
14:0
     RDKit          3D

 60 64  0  0  0  0  0  0  0  0999 V2000
   59.8180   29.9440   47.8020 C   0  0  0  0  0  0  0  0  0  0  0  0
   61.0370   30.7190   48.1990 C   0  0  0  0  0  0  0  0  0  0  0  0
   61.7790   30.4070   49.2880 N   0  0  0  0  0  0  0  0  0  0  0  0
   62.7450   31.3360   49.3550 C   0  0  0  0  0  0  0  0  0  0  0  0
   63.7220   31.4540   50.3440 C   0  0  0  0  0  0  0  0  0  0  0  0
   64.6170   32.5330   50.2580 C   0  0  0  0  0  0  0  0  0  0  0  0
   64.5170   33.4630   49.2010 C   0  0  0  0  0  0  0  0  0  0  0  0
   63.5170   33.3250   48.2250 C   0  0  0  0  0  0  0  0  0  0  0  0
   62.6410   32.2390   48.3260 C   0  0  0  0  0  0  0  0  0  0  0  0
   61.5390   31.8640   47.5660 C   0  0  0  0  0  0  0  0  0  0  0  0
   60.9370   32.6080   46.4370 C   0  0  0  0  0  0  0  0  0  0  0  0
   61.4750   33.6690   46.0310 O   0  0  0  0  0  0  0  0  0  0  0  0
   59.6970   32.1660   45.8650 N   0  0  0  0  0  0  0  0  0  0  0  0
   58.6170   33.0180   45.3530 C   0  0  2  0  0  0  0  0  0  0  0  0
   57.7520   33.6280   46.4720 C   0  0  0  0  0  0  0  0  0  0  0  0
   58.4550   33.5840   47.8050 C   0  0  0  0  0  0  0  0  0  0  0  0
   59.3700   34.5880   48.1660 C   0  0  0  0  0  0  0  0  0  0  0  0
   60.0040   34.5480   49.4120 C   0  0  0  0  0  0  0  0  0  0  0  0
   59.7290   33.5090   50.3080 C   0  0  0  0  0  0  0  0  0  0  0  0
   60.6010   33.4540   52.0080 Br  0  0  0  0  0  0  0  0  0  0  0  0
   58.8190   32.5080   49.9550 C   0  0  0  0  0  0  0  0  0  0  0  0
   58.1840   32.5440   48.7090 C   0  0  0  0  0  0  0  0  0  0  0  0
   57.7750   32.2570   44.3620 C   0  0  0  0  0  0  0  0  0  0  0  0
   57.6430   32.6880   43.1860 O   0  0  0  0  0  0  0  0  0  0  0  0
   57.1290   31.0410   44.7400 N   0  0  0  0  0  0  0  0  0  0  0  0
   57.7890   29.7670   44.8080 C   0  0  0  0  0  0  0  0  0  0  0  0
   59.1840   29.6690   44.6810 C   0  0  0  0  0  0  0  0  0  0  0  0
   59.8220   28.4430   44.8440 C   0  0  0  0  0  0  0  0  0  0  0  0
   59.0820   27.3020   45.1440 C   0  0  0  0  0  0  0  0  0  0  0  0
   57.6840   27.3660   45.2780 C   0  0  0  0  0  0  0  0  0  0  0  0
   56.9340   26.1370   45.6470 C   0  0  0  0  0  0  0  0  0  0  0  0
   55.5900   26.1150   45.8080 N   0  0  0  0  0  0  0  0  0  0  0  0
   55.3270   24.8290   46.0840 C   0  0  0  0  0  0  0  0  0  0  0  0
   54.0490   24.3350   46.3230 O   0  0  0  0  0  0  0  0  0  0  0  0
   56.4900   24.1000   46.0880 C   0  0  0  0  0  0  0  0  0  0  0  0
   56.6340   22.6590   46.3340 C   0  0  0  0  0  0  0  0  0  0  0  0
   56.0920   21.8310   45.5570 O   0  0  0  0  0  0  0  0  0  0  0  0
   57.3640   22.1990   47.4230 O   0  0  0  0  0  0  0  0  0  0  0  0
   57.5150   24.9240   45.8090 N   0  0  0  0  0  0  0  0  0  0  0  0
   57.0340   28.6110   45.1000 C   0  0  0  0  0  0  0  0  0  0  0  0
   55.6470   28.6990   45.2420 O   0  0  0  0  0  0  0  0  0  0  0  0
   59.2877   29.6069   48.7048 H   0  0  0  0  0  0  0  0  0  0  0  0
   59.1537   30.5860   47.2048 H   0  0  0  0  0  0  0  0  0  0  0  0
   60.1175   29.0701   47.2048 H   0  0  0  0  0  0  0  0  0  0  0  0
   61.6190   29.6190   49.9530 H   0  0  0  0  0  0  0  0  0  0  0  0
   63.7892   30.7251   51.1651 H   0  0  0  0  0  0  0  0  0  0  0  0
   65.4013   32.6541   51.0197 H   0  0  0  0  0  0  0  0  0  0  0  0
   65.2269   34.3011   49.1415 H   0  0  0  0  0  0  0  0  0  0  0  0
   63.4250   34.0508   47.4036 H   0  0  0  0  0  0  0  0  0  0  0  0
   59.0907   33.8672   44.8387 H   0  0  0  0  0  0  0  0  0  0  0  0
   57.5298   34.6755   46.2203 H   0  0  0  0  0  0  0  0  0  0  0  0
   56.8272   33.0378   46.5517 H   0  0  0  0  0  0  0  0  0  0  0  0
   59.5882   35.4081   47.4661 H   0  0  0  0  0  0  0  0  0  0  0  0
   60.7207   35.3354   49.6883 H   0  0  0  0  0  0  0  0  0  0  0  0
   58.6019   31.6906   50.6583 H   0  0  0  0  0  0  0  0  0  0  0  0
   57.4690   31.7539   48.4360 H   0  0  0  0  0  0  0  0  0  0  0  0
   59.7763   30.5670   44.4512 H   0  0  0  0  0  0  0  0  0  0  0  0
   60.9145   28.3749   44.7355 H   0  0  0  0  0  0  0  0  0  0  0  0
   59.5974   26.3394   45.2777 H   0  0  0  0  0  0  0  0  0  0  0  0
   55.1350   28.1870   45.9500 H   0  0  0  0  0  0  0  0  0  0  0  0
  1  2  1  0
  2  3  1  0
  3  4  1  0
  4  5  2  0
  5  6  1  0
  6  7  2  0
  7  8  1  0
  8  9  2  0
  9 10  1  0
 10 11  1  0
 11 12  2  0
 11 13  1  0
 13 14  1  0
 14 15  1  0
 15 16  1  0
 16 17  2  0
 17 18  1  0
 18 19  2  0
 19 20  1  0
 19 21  1  0
 21 22  2  0
 14 23  1  0
 23 24  2  0
 23 25  1  0
 25 26  1  0
 26 27  2  0
 27 28  1  0
 28 29  2  0
 29 30  1  0
 30 31  1  0
 31 32  2  0
 32 33  1  0
 33 34  1  0
 33 35  2  0
 35 36  1  0
 36 37  2  0
 36 38  1  0
 35 39  1  0
 30 40  2  0
 40 41  1  0
 10  2  2  0
 22 16  1  0
 40 26  1  0
  9  4  1  0
 39 31  1  0
  1 42  1  0
  1 43  1  0
  1 44  1  0
  3 45  1  0
  5 46  1  0
  6 47  1  0
  7 48  1  0
  8 49  1  0
 14 50  1  6
 15 51  1  0
 15 52  1  0
 17 53  1  0
 18 54  1  0
 21 55  1  0
 22 56  1  0
 27 57  1  0
 28 58  1  0
 29 59  1  0
 41 60  1  0
M  CHG  5  13  -1  25  -1  34  -1  38  -1  39  -1
M  END
>  <UniqueID>  (15) 
14

>  <SMILES>  (15) 
Cc1[nH]c2ccccc2c1C(=O)[N-][C@H](Cc1ccc(Br)cc1)C(=O)[N-]c1cccc(-c2nc([O-])c(C(=O)[O-])[n-]2)c1O

>  <Energy>  (15) 
131.35312242512856

>  <Genealogy>  (15) 
Cc1[nH]c2ccccc2c1C(=O)[N-]C(Cc1ccc(Br)cc1)C(=O)[N-]c1cccc(-c2nc([O-])c(C(=O)[O-])[n-]2)c1O (protonated)
Cc1[nH]c2ccccc2c1C(=O)[N-][C@H](Cc1ccc(Br)cc1)C(=O)[N-]c1cccc(-c2nc([O-])c(C(=O)[O-])[n-]2)c1O (chirality)
Cc1[nH]c2ccccc2c1C(=O)[N-][C@H](Cc1ccc(Br)cc1)C(=O)[N-]c1cccc(-c2nc([O-])c(C(=O)[O-])[n-]2)c1O (3D coordinates assigned)
Cc1[nH]c2ccccc2c1C(=O)[N-][C@H](Cc1ccc(Br)cc1)C(=O)[N-]c1cccc(-c2nc([O-])c(C(=O)[O-])[n-]2)c1O (optimized conformer: 131.35312242512856 kcal/mol)

>  <smiles>  (15) 
Cc1[nH]c2ccccc2c1C(=O)NC(Cc1ccc(Br)cc1)C(=O)Nc1cccc(-c2nc(O)c(C(=O)O)[nH]2)c1O

>  <score_type>  (15) 
oracle

>  <origin>  (15) 
adg

>  <m_score__min__energy>  (15) 
-21.579999999999998

>  <m_primary>  (15) 
energy

$$$$
15:0
     RDKit          3D

 43 45  0  0  0  0  0  0  0  0999 V2000
   57.1490   20.1530   44.8640 N   0  0  0  0  0  0  0  0  0  0  0  0
   57.2390   21.3930   43.6630 S   0  0  0  0  0  0  0  0  0  0  0  0
   58.3540   21.0770   42.7050 O   0  0  0  0  0  0  0  0  0  0  0  0
   55.9460   21.4540   42.8990 O   0  0  0  0  0  0  0  0  0  0  0  0
   57.5350   22.9420   44.4450 C   0  0  0  0  0  0  0  0  0  0  0  0
   58.6580   23.1070   45.2630 C   0  0  0  0  0  0  0  0  0  0  0  0
   58.9100   24.3370   45.8740 C   0  0  0  0  0  0  0  0  0  0  0  0
   58.0450   25.4300   45.6740 C   0  0  0  0  0  0  0  0  0  0  0  0
   58.3450   26.7350   46.3200 C   0  0  0  0  0  0  0  0  0  0  0  0
   59.0940   26.8880   47.4940 C   0  0  0  0  0  0  0  0  0  0  0  0
   59.1220   28.5240   47.8960 S   0  0  0  0  0  0  0  0  0  0  0  0
   58.1970   28.9660   46.5720 C   0  0  0  0  0  0  0  0  0  0  0  0
   57.7950   30.1810   46.3490 N   0  0  0  0  0  0  0  0  0  0  0  0
   57.3860   30.6970   45.0740 C   0  0  0  0  0  0  0  0  0  0  0  0
   56.1780   30.6550   44.7140 O   0  0  0  0  0  0  0  0  0  0  0  0
   58.4150   31.2570   44.1450 C   0  0  0  0  0  0  0  0  0  0  0  0
   57.7920   32.7630   43.3120 S   0  0  0  0  0  0  0  0  0  0  0  0
   57.2580   33.6630   44.8170 C   0  0  0  0  0  0  0  0  0  0  0  0
   58.3640   33.7700   45.8360 C   0  0  0  0  0  0  0  0  0  0  0  0
   58.1460   33.3730   47.1660 C   0  0  0  0  0  0  0  0  0  0  0  0
   59.1810   33.4460   48.1030 C   0  0  0  0  0  0  0  0  0  0  0  0
   60.4410   33.9130   47.7220 C   0  0  0  0  0  0  0  0  0  0  0  0
   60.6710   34.3000   46.3980 C   0  0  0  0  0  0  0  0  0  0  0  0
   59.6410   34.2210   45.4560 C   0  0  0  0  0  0  0  0  0  0  0  0
   57.8500   27.9010   45.8170 N   0  0  0  0  0  0  0  0  0  0  0  0
   56.9150   25.2530   44.8520 C   0  0  0  0  0  0  0  0  0  0  0  0
   56.6660   24.0200   44.2410 C   0  0  0  0  0  0  0  0  0  0  0  0
   58.1190   20.0030   45.2230 H   0  0  0  0  0  0  0  0  0  0  0  0
   56.8690   19.2740   44.3750 H   0  0  0  0  0  0  0  0  0  0  0  0
   59.3456   22.2639   45.4255 H   0  0  0  0  0  0  0  0  0  0  0  0
   59.7938   24.4534   46.5185 H   0  0  0  0  0  0  0  0  0  0  0  0
   59.5808   26.0782   48.0573 H   0  0  0  0  0  0  0  0  0  0  0  0
   59.3185   31.5105   44.7189 H   0  0  0  0  0  0  0  0  0  0  0  0
   58.6456   30.5016   43.3793 H   0  0  0  0  0  0  0  0  0  0  0  0
   56.9405   34.6764   44.5304 H   0  0  0  0  0  0  0  0  0  0  0  0
   56.4305   33.0996   45.2730 H   0  0  0  0  0  0  0  0  0  0  0  0
   57.1562   33.0030   47.4715 H   0  0  0  0  0  0  0  0  0  0  0  0
   59.0026   33.1349   49.1429 H   0  0  0  0  0  0  0  0  0  0  0  0
   61.2517   33.9763   48.4628 H   0  0  0  0  0  0  0  0  0  0  0  0
   61.6635   34.6670   46.0974 H   0  0  0  0  0  0  0  0  0  0  0  0
   59.8302   34.5130   44.4125 H   0  0  0  0  0  0  0  0  0  0  0  0
   56.2224   26.0919   44.6892 H   0  0  0  0  0  0  0  0  0  0  0  0
   55.7828   23.8968   43.5969 H   0  0  0  0  0  0  0  0  0  0  0  0
  1  2  1  0
  2  3  2  0
  2  4  2  0
  2  5  1  0
  5  6  2  0
  6  7  1  0
  7  8  2  0
  8  9  1  0
  9 10  2  0
 10 11  1  0
 11 12  1  0
 12 13  2  3
 13 14  1  0
 14 15  2  0
 14 16  1  0
 16 17  1  0
 17 18  1  0
 18 19  1  0
 19 20  2  0
 20 21  1  0
 21 22  2  0
 22 23  1  0
 23 24  2  0
 12 25  1  0
  8 26  1  0
 26 27  2  0
 27  5  1  0
 25  9  1  0
 24 19  1  0
  1 28  1  0
  1 29  1  0
  6 30  1  0
  7 31  1  0
 10 32  1  0
 16 33  1  0
 16 34  1  0
 18 35  1  0
 18 36  1  0
 20 37  1  0
 21 38  1  0
 22 39  1  0
 23 40  1  0
 24 41  1  0
 26 42  1  0
 27 43  1  0
M  CHG  1  25  -1
M  END
>  <UniqueID>  (16) 
15

>  <SMILES>  (16) 
NS(=O)(=O)c1ccc(-c2csc(=NC(=O)CSCc3ccccc3)[n-]2)cc1

>  <Energy>  (16) 
69.81502893711331

>  <Genealogy>  (16) 
NS(=O)(=O)c1ccc(-c2csc(=NC(=O)CSCc3ccccc3)[n-]2)cc1 (protonated)
NS(=O)(=O)c1ccc(-c2csc(=NC(=O)CSCc3ccccc3)[n-]2)cc1 (3D coordinates assigned)
NS(=O)(=O)c1ccc(-c2csc(=NC(=O)CSCc3ccccc3)[n-]2)cc1 (optimized conformer: 69.81502893711331 kcal/mol)

>  <smiles>  (16) 
NS(=O)(=O)c1ccc(-c2csc(=NC(=O)CSCc3ccccc3)[nH]2)cc1

>  <score_type>  (16) 
oracle

>  <origin>  (16) 
adg

>  <m_score__min__energy>  (16) 
-11.24

>  <m_primary>  (16) 
energy

$$$$
16:0
     RDKit          3D

 36 36  0  0  0  0  0  0  0  0999 V2000
   63.2230   33.8230   46.8160 C   0  0  0  0  0  0  0  0  0  0  0  0
   63.6870   32.4060   47.1250 C   0  0  0  0  0  0  0  0  0  0  0  0
   62.6380   31.7720   47.9800 C   0  0  0  0  0  0  0  0  0  0  0  0
   61.3430   31.5540   47.2920 C   0  0  0  0  0  0  0  0  0  0  0  0
   61.1440   30.2970   46.7320 C   0  0  0  0  0  0  0  0  0  0  0  0
   59.9470   30.0620   46.0900 C   0  0  0  0  0  0  0  0  0  0  0  0
   59.6860   28.9540   45.5550 O   0  0  0  0  0  0  0  0  0  0  0  0
   59.0200   31.0320   46.0210 N   0  0  0  0  0  0  0  0  0  0  0  0
   59.2230   32.2620   46.5740 C   0  0  0  0  0  0  0  0  0  0  0  0
   57.9180   33.4530   46.4180 S   0  0  0  0  0  0  0  0  0  0  0  0
   57.0340   33.2970   44.8460 C   0  0  0  0  0  0  0  0  0  0  0  0
   58.0300   33.0620   43.7600 C   0  0  0  0  0  0  0  0  0  0  0  0
   58.2030   31.6500   43.4930 N   0  0  0  0  0  0  0  0  0  0  0  0
   56.9700   30.9420   43.3770 C   0  0  0  0  0  0  0  0  0  0  0  0
   56.8600   29.7000   44.1360 C   0  0  0  0  0  0  0  0  0  0  0  0
   57.3950   28.4440   43.7540 N   0  0  0  0  0  0  0  0  0  0  0  0
   56.2260   29.7380   45.2430 O   0  0  0  0  0  0  0  0  0  0  0  0
   60.3870   32.5050   47.2030 N   0  0  0  0  0  0  0  0  0  0  0  0
   63.0458   34.3642   47.7571 H   0  0  0  0  0  0  0  0  0  0  0  0
   63.9976   34.3437   46.2338 H   0  0  0  0  0  0  0  0  0  0  0  0
   62.2905   33.7847   46.2338 H   0  0  0  0  0  0  0  0  0  0  0  0
   63.8064   31.8369   46.1913 H   0  0  0  0  0  0  0  0  0  0  0  0
   64.6572   32.4180   47.6432 H   0  0  0  0  0  0  0  0  0  0  0  0
   63.0150   30.7971   48.3225 H   0  0  0  0  0  0  0  0  0  0  0  0
   62.4423   32.4684   48.8087 H   0  0  0  0  0  0  0  0  0  0  0  0
   61.9159   29.5162   46.7990 H   0  0  0  0  0  0  0  0  0  0  0  0
   58.1190   30.8270   45.5290 H   0  0  0  0  0  0  0  0  0  0  0  0
   56.3346   32.4495   44.8969 H   0  0  0  0  0  0  0  0  0  0  0  0
   56.4660   34.2166   44.6419 H   0  0  0  0  0  0  0  0  0  0  0  0
   57.6818   33.5589   42.8425 H   0  0  0  0  0  0  0  0  0  0  0  0
   58.9975   33.4720   44.0854 H   0  0  0  0  0  0  0  0  0  0  0  0
   58.8290   31.5080   42.6690 H   0  0  0  0  0  0  0  0  0  0  0  0
   56.1661   31.6127   43.7146 H   0  0  0  0  0  0  0  0  0  0  0  0
   56.9023   30.6451   42.3200 H   0  0  0  0  0  0  0  0  0  0  0  0
   58.4200   28.2740   43.9250 H   0  0  0  0  0  0  0  0  0  0  0  0
   56.8430   27.6770   43.3180 H   0  0  0  0  0  0  0  0  0  0  0  0
  1  2  1  0
  2  3  1  0
  3  4  1  0
  4  5  2  0
  5  6  1  0
  6  7  2  0
  6  8  1  0
  8  9  1  0
  9 10  1  0
 10 11  1  0
 11 12  1  0
 12 13  1  0
 13 14  1  0
 14 15  1  0
 15 16  1  0
 15 17  2  0
  9 18  2  0
 18  4  1  0
  1 19  1  0
  1 20  1  0
  1 21  1  0
  2 22  1  0
  2 23  1  0
  3 24  1  0
  3 25  1  0
  5 26  1  0
  8 27  1  0
 11 28  1  0
 11 29  1  0
 12 30  1  0
 12 31  1  0
 13 32  1  0
 14 33  1  0
 14 34  1  0
 16 35  1  0
 16 36  1  0
M  END
>  <smiles>  (17) 
CCCc1cc(=O)[nH]c(SCCNCC(N)=O)n1

>  <score_type>  (17) 
oracle

>  <origin>  (17) 
adg

>  <m_score__min__energy>  (17) 
-6.1399999999999997

>  <m_primary>  (17) 
energy

$$$$
17:0
     RDKit          3D

 52 54  0  0  1  0  0  0  0  0999 V2000
   59.4960   35.2610   46.6390 C   0  0  0  0  0  0  0  0  0  0  0  0
   58.7080   34.1260   46.0750 C   0  0  0  0  0  0  0  0  0  0  0  0
   57.8680   33.5440   46.8410 O   0  0  0  0  0  0  0  0  0  0  0  0
   58.9180   33.7450   44.7390 N   0  0  0  0  0  0  0  0  0  0  0  0
   58.1940   32.6730   44.1550 C   0  0  0  0  0  0  0  0  0  0  0  0
   58.0430   32.6990   42.7740 C   0  0  0  0  0  0  0  0  0  0  0  0
   57.3570   31.7030   42.1120 C   0  0  0  0  0  0  0  0  0  0  0  0
   56.8170   30.6670   42.8460 C   0  0  0  0  0  0  0  0  0  0  0  0
   56.9700   30.6440   44.2380 C   0  0  0  0  0  0  0  0  0  0  0  0
   56.3820   29.5360   44.9480 N   0  0  0  0  0  0  0  0  0  0  0  0
   57.1550   28.6340   45.4820 C   0  0  0  0  0  0  0  0  0  0  0  0
   57.0260   27.3220   45.2310 N   0  0  0  0  0  0  0  0  0  0  0  0
   57.8430   26.4070   45.8010 C   0  0  0  0  0  0  0  0  0  0  0  0
   58.8570   26.8100   46.6760 C   0  0  0  0  0  0  0  0  0  0  0  0
   58.9780   28.1800   46.9260 C   0  0  0  0  0  0  0  0  0  0  0  0
   59.9070   28.5320   47.7260 N   0  0  0  0  0  0  0  0  0  0  0  0
   59.9330   29.8760   48.1950 C   0  0  0  0  0  0  0  0  0  0  0  0
   60.9700   30.7470   47.9380 C   0  0  0  0  0  0  0  0  0  0  0  0
   60.9510   32.0530   48.4170 C   0  0  0  0  0  0  0  0  0  0  0  0
   59.8560   32.4550   49.1640 C   0  0  0  0  0  0  0  0  0  0  0  0
   59.7530   33.8470   49.7220 C   0  0  0  0  0  0  0  0  0  0  0  0
   58.7950   31.6170   49.4470 C   0  0  0  0  0  0  0  0  0  0  0  0
   57.6660   32.0220   50.2140 N   0  0  0  0  0  0  0  0  0  0  0  0
   57.3880   31.3790   51.8090 S   0  0  0  0  0  0  0  0  0  0  0  0
   58.7030   31.7270   52.9160 C   0  0  0  0  0  0  0  0  0  0  0  0
   57.1690   29.8830   51.6450 O   0  0  0  0  0  0  0  0  0  0  0  0
   56.0940   31.9300   52.3620 O   0  0  0  0  0  0  0  0  0  0  0  0
   58.8610   30.3280   48.9480 C   0  0  0  0  0  0  0  0  0  0  0  0
   58.1280   29.0320   46.3240 N   0  0  0  0  0  0  0  0  0  0  0  0
   57.6580   31.6450   44.8940 C   0  0  0  0  0  0  0  0  0  0  0  0
   59.4661   35.2179   47.7377 H   0  0  0  0  0  0  0  0  0  0  0  0
   60.5391   35.1886   46.2975 H   0  0  0  0  0  0  0  0  0  0  0  0
   59.0636   36.2130   46.2975 H   0  0  0  0  0  0  0  0  0  0  0  0
   59.6220   34.2480   44.1310 H   0  0  0  0  0  0  0  0  0  0  0  0
   58.4786   33.5291   42.1986 H   0  0  0  0  0  0  0  0  0  0  0  0
   57.2423   31.7337   41.0184 H   0  0  0  0  0  0  0  0  0  0  0  0
   56.2672   29.8605   42.3388 H   0  0  0  0  0  0  0  0  0  0  0  0
   56.2660   26.9940   44.5720 H   0  0  0  0  0  0  0  0  0  0  0  0
   57.7090   25.3389   45.5749 H   0  0  0  0  0  0  0  0  0  0  0  0
   59.5309   26.0796   47.1476 H   0  0  0  0  0  0  0  0  0  0  0  0
   61.8288   30.4029   47.3429 H   0  0  0  0  0  0  0  0  0  0  0  0
   61.7802   32.7452   48.2089 H   0  0  0  0  0  0  0  0  0  0  0  0
   59.7563   33.8026   50.8211 H   0  0  0  0  0  0  0  0  0  0  0  0
   60.6094   34.4448   49.3766 H   0  0  0  0  0  0  0  0  0  0  0  0
   58.8180   34.3122   49.3766 H   0  0  0  0  0  0  0  0  0  0  0  0
   57.0240   32.7160   49.7730 H   0  0  0  0  0  0  0  0  0  0  0  0
   58.3451   31.6323   53.9518 H   0  0  0  0  0  0  0  0  0  0  0  0
   59.5241   31.0152   52.7453 H   0  0  0  0  0  0  0  0  0  0  0  0
   59.0646   32.7517   52.7453 H   0  0  0  0  0  0  0  0  0  0  0  0
   58.0316   29.6363   49.1568 H   0  0  0  0  0  0  0  0  0  0  0  0
   58.2210   30.0540   46.5120 H   0  0  0  0  0  0  0  0  0  0  0  0
   57.7752   31.6206   45.9875 H   0  0  0  0  0  0  0  0  0  0  0  0
  1  2  1  0
  2  3  2  0
  2  4  1  0
  4  5  1  0
  5  6  2  0
  6  7  1  0
  7  8  2  0
  8  9  1  0
  9 10  1  0
 10 11  2  0
 11 12  1  0
 12 13  1  0
 13 14  2  0
 14 15  1  0
 15 16  2  0
 16 17  1  0
 17 18  2  0
 18 19  1  0
 19 20  2  0
 20 21  1  0
 20 22  1  0
 22 23  1  0
 23 24  1  0
 24 25  1  0
 24 26  2  0
 24 27  2  0
 22 28  2  0
 15 29  1  0
  9 30  2  0
 30  5  1  0
 29 11  1  0
 28 17  1  0
  1 31  1  0
  1 32  1  0
  1 33  1  0
  4 34  1  0
  6 35  1  0
  7 36  1  0
  8 37  1  0
 12 38  1  0
 13 39  1  0
 14 40  1  0
 18 41  1  0
 19 42  1  0
 21 43  1  0
 21 44  1  0
 21 45  1  0
 23 46  1  0
 25 47  1  0
 25 48  1  0
 25 49  1  0
 28 50  1  0
 29 51  1  0
 30 52  1  0
M  END
>  <smiles>  (18) 
CC(=O)Nc1cccc(N=c2[nH]ccc(=Nc3ccc(C)c(NS(C)(=O)=O)c3)[nH]2)c1

>  <score_type>  (18) 
oracle

>  <origin>  (18) 
adg

>  <m_score__min__energy>  (18) 
-9.5299999999999994

>  <m_primary>  (18) 
energy

$$$$
18:0
     RDKit          3D

 57 60  0  0  0  0  0  0  0  0999 V2000
   60.0260   33.1760   52.0450 O   0  0  0  0  0  0  0  0  0  0  0  0
   59.7380   32.4370   51.0680 C   0  0  0  0  0  0  0  0  0  0  0  0
   60.2460   31.0990   50.9920 N   0  0  0  0  0  0  0  0  0  0  0  0
   59.9550   30.1490   49.9580 C   0  0  0  0  0  0  0  0  0  0  0  0
   60.7860   29.0310   49.8170 C   0  0  0  0  0  0  0  0  0  0  0  0
   60.5330   28.0840   48.8210 C   0  0  0  0  0  0  0  0  0  0  0  0
   59.4620   28.2630   47.9340 C   0  0  0  0  0  0  0  0  0  0  0  0
   59.1360   27.0440   46.7020 S   0  0  0  0  0  0  0  0  0  0  0  0
   59.4920   27.5490   45.3310 O   0  0  0  0  0  0  0  0  0  0  0  0
   59.9820   25.8320   46.9810 O   0  0  0  0  0  0  0  0  0  0  0  0
   57.4650   26.5790   46.7680 N   0  0  0  0  0  0  0  0  0  0  0  0
   56.8610   25.4690   46.0860 C   0  0  0  0  0  0  0  0  0  0  0  0
   57.5790   24.3010   45.7690 C   0  0  0  0  0  0  0  0  0  0  0  0
   56.9440   23.2370   45.1200 C   0  0  0  0  0  0  0  0  0  0  0  0
   55.5970   23.3370   44.7610 C   0  0  0  0  0  0  0  0  0  0  0  0
   54.8740   24.4960   45.0630 C   0  0  0  0  0  0  0  0  0  0  0  0
   55.5040   25.5600   45.7210 C   0  0  0  0  0  0  0  0  0  0  0  0
   54.7750   26.7120   46.0050 O   0  0  0  0  0  0  0  0  0  0  0  0
   58.6480   29.4010   48.0490 C   0  0  0  0  0  0  0  0  0  0  0  0
   58.8910   30.3400   49.0570 C   0  0  0  0  0  0  0  0  0  0  0  0
   58.8940   32.9530   50.0340 N   0  0  0  0  0  0  0  0  0  0  0  0
   59.3190   33.2910   48.7060 C   0  0  0  0  0  0  0  0  0  0  0  0
   58.4400   33.0430   47.6440 C   0  0  0  0  0  0  0  0  0  0  0  0
   58.8090   33.3480   46.3270 C   0  0  0  0  0  0  0  0  0  0  0  0
   57.7070   33.0070   44.9920 S   0  0  0  0  0  0  0  0  0  0  0  0
   56.3370   32.7120   45.5370 O   0  0  0  0  0  0  0  0  0  0  0  0
   57.6100   34.2340   44.1300 O   0  0  0  0  0  0  0  0  0  0  0  0
   58.2790   31.6650   44.0170 N   0  0  0  0  0  0  0  0  0  0  0  0
   58.4970   30.4490   44.8190 C   0  0  0  0  0  0  0  0  0  0  0  0
   57.1680   29.7950   45.2630 C   0  0  0  0  0  0  0  0  0  0  0  0
   56.0470   30.2260   44.5140 O   0  0  0  0  0  0  0  0  0  0  0  0
   56.3660   30.2800   43.1440 C   0  0  0  0  0  0  0  0  0  0  0  0
   57.3810   31.4100   42.8700 C   0  0  0  0  0  0  0  0  0  0  0  0
   60.0630   33.9130   46.0730 C   0  0  0  0  0  0  0  0  0  0  0  0
   60.9330   34.1980   47.1300 C   0  0  0  0  0  0  0  0  0  0  0  0
   60.5600   33.9100   48.4510 C   0  0  0  0  0  0  0  0  0  0  0  0
   61.4040   34.2640   49.5030 O   0  0  0  0  0  0  0  0  0  0  0  0
   61.6427   28.8974   50.4939 H   0  0  0  0  0  0  0  0  0  0  0  0
   61.1758   27.1958   48.7326 H   0  0  0  0  0  0  0  0  0  0  0  0
   58.6442   24.2244   46.0327 H   0  0  0  0  0  0  0  0  0  0  0  0
   57.5061   22.3194   44.8916 H   0  0  0  0  0  0  0  0  0  0  0  0
   55.1044   22.5028   44.2400 H   0  0  0  0  0  0  0  0  0  0  0  0
   53.8126   24.5716   44.7842 H   0  0  0  0  0  0  0  0  0  0  0  0
   57.8171   29.5547   47.3448 H   0  0  0  0  0  0  0  0  0  0  0  0
   58.2494   31.2291   49.1455 H   0  0  0  0  0  0  0  0  0  0  0  0
   57.4513   32.6050   47.8456 H   0  0  0  0  0  0  0  0  0  0  0  0
   59.0642   29.7244   44.2164 H   0  0  0  0  0  0  0  0  0  0  0  0
   59.0503   30.7372   45.7250 H   0  0  0  0  0  0  0  0  0  0  0  0
   57.2625   28.7048   45.1515 H   0  0  0  0  0  0  0  0  0  0  0  0
   56.9935   30.0950   46.3068 H   0  0  0  0  0  0  0  0  0  0  0  0
   56.8026   29.3186   42.8357 H   0  0  0  0  0  0  0  0  0  0  0  0
   55.4478   30.4800   42.5723 H   0  0  0  0  0  0  0  0  0  0  0  0
   57.9931   31.1292   42.0002 H   0  0  0  0  0  0  0  0  0  0  0  0
   56.8089   32.3314   42.6864 H   0  0  0  0  0  0  0  0  0  0  0  0
   60.3657   34.1338   45.0388 H   0  0  0  0  0  0  0  0  0  0  0  0
   61.9145   34.6502   46.9245 H   0  0  0  0  0  0  0  0  0  0  0  0
   61.2070   33.9910   50.4590 H   0  0  0  0  0  0  0  0  0  0  0  0
  1  2  2  0
  2  3  1  0
  3  4  1  0
  4  5  2  0
  5  6  1  0
  6  7  2  0
  7  8  1  0
  8  9  2  0
  8 10  2  0
  8 11  1  0
 11 12  1  0
 12 13  2  0
 13 14  1  0
 14 15  2  0
 15 16  1  0
 16 17  2  0
 17 18  1  0
  7 19  1  0
 19 20  2  0
  2 21  1  0
 21 22  1  0
 22 23  2  0
 23 24  1  0
 24 25  1  0
 25 26  2  0
 25 27  2  0
 25 28  1  0
 28 29  1  0
 29 30  1  0
 30 31  1  0
 31 32  1  0
 32 33  1  0
 24 34  2  0
 34 35  1  0
 35 36  2  0
 36 37  1  0
 20  4  1  0
 36 22  1  0
 17 12  1  0
 33 28  1  0
  5 38  1  0
  6 39  1  0
 13 40  1  0
 14 41  1  0
 15 42  1  0
 16 43  1  0
 19 44  1  0
 20 45  1  0
 23 46  1  0
 29 47  1  0
 29 48  1  0
 30 49  1  0
 30 50  1  0
 32 51  1  0
 32 52  1  0
 33 53  1  0
 33 54  1  0
 34 55  1  0
 35 56  1  0
 37 57  1  0
M  CHG  4   3  -1  11  -1  18  -1  21  -1
M  END
>  <UniqueID>  (19) 
16

>  <SMILES>  (19) 
O=C([N-]c1ccc(S(=O)(=O)[N-]c2ccccc2[O-])cc1)[N-]c1cc(S(=O)(=O)N2CCOCC2)ccc1O

>  <Energy>  (19) 
85.12290386430656

>  <Genealogy>  (19) 
O=C([N-]c1ccc(S(=O)(=O)[N-]c2ccccc2[O-])cc1)[N-]c1cc(S(=O)(=O)N2CCOCC2)ccc1O (protonated)
O=C([N-]c1ccc(S(=O)(=O)[N-]c2ccccc2[O-])cc1)[N-]c1cc(S(=O)(=O)N2CCOCC2)ccc1O (3D coordinates assigned)
O=C([N-]c1ccc(S(=O)(=O)[N-]c2ccccc2[O-])cc1)[N-]c1cc(S(=O)(=O)N2CCOCC2)ccc1O (nonaromatic ring conformer: 85.12290386430656 kcal/mol)

>  <smiles>  (19) 
O=C(Nc1ccc(S(=O)(=O)Nc2ccccc2O)cc1)Nc1cc(S(=O)(=O)N2CCOCC2)ccc1O

>  <score_type>  (19) 
oracle

>  <origin>  (19) 
adg

>  <m_score__min__energy>  (19) 
-16.710000000000001

>  <m_primary>  (19) 
energy

$$$$
19:0
     RDKit          3D

 27 28  0  0  0  0  0  0  0  0999 V2000
   57.7150   31.0119   43.4359 H   0  0  0  0  0  0  0  0  0  0  0  0
   57.4370   30.7730   44.4730 C   0  0  0  0  0  0  0  0  0  0  0  0
   57.0890   31.7540   45.2550 N   0  0  0  0  0  0  0  0  0  0  0  0
   57.9530   32.7850   45.6610 N   0  0  0  0  0  0  0  0  0  0  0  0
   59.1590   32.6820   46.2560 C   0  0  0  0  0  0  0  0  0  0  0  0
   59.8050   31.4000   46.6980 C   0  0  0  0  0  0  0  0  0  0  0  0
   60.8385   31.6064   47.0130 H   0  0  0  0  0  0  0  0  0  0  0  0
   59.7966   30.6915   45.8566 H   0  0  0  0  0  0  0  0  0  0  0  0
   59.0400   30.7850   47.8640 C   0  0  0  0  0  0  0  0  0  0  0  0
   59.4743   31.1342   48.8124 H   0  0  0  0  0  0  0  0  0  0  0  0
   57.9840   31.0885   47.8106 H   0  0  0  0  0  0  0  0  0  0  0  0
   59.1095   29.6885   47.8106 H   0  0  0  0  0  0  0  0  0  0  0  0
   59.8140   33.8620   46.2220 N   0  0  0  0  0  0  0  0  0  0  0  0
   59.0340   34.7300   45.5900 N   0  0  0  0  0  0  0  0  0  0  0  0
   57.9270   34.0550   45.2340 C   0  0  0  0  0  0  0  0  0  0  0  0
   56.9860   34.5560   44.5630 O   0  0  0  0  0  0  0  0  0  0  0  0
   57.4810   29.3530   44.8970 C   0  0  0  0  0  0  0  0  0  0  0  0
   58.7020   28.6670   45.0200 C   0  0  0  0  0  0  0  0  0  0  0  0
   59.6449   29.1832   44.7867 H   0  0  0  0  0  0  0  0  0  0  0  0
   58.7250   27.3330   45.4370 C   0  0  0  0  0  0  0  0  0  0  0  0
   59.6833   26.7986   45.5154 H   0  0  0  0  0  0  0  0  0  0  0  0
   57.5340   26.6780   45.7540 C   0  0  0  0  0  0  0  0  0  0  0  0
   57.5542   25.6261   46.0750 H   0  0  0  0  0  0  0  0  0  0  0  0
   56.3160   27.3570   45.6640 C   0  0  0  0  0  0  0  0  0  0  0  0
   55.1350   26.7010   45.9930 O   0  0  0  0  0  0  0  0  0  0  0  0
   56.2860   28.6930   45.2440 C   0  0  0  0  0  0  0  0  0  0  0  0
   55.0650   29.3560   45.1600 O   0  0  0  0  0  0  0  0  0  0  0  0
  1  2  1  0
  2  3  2  0
  3  4  1  0
  4  5  1  0
  5  6  1  0
  6  7  1  0
  6  8  1  0
  6  9  1  0
  9 10  1  0
  9 11  1  0
  9 12  1  0
  5 13  2  0
 13 14  1  0
 14 15  1  0
 15 16  2  0
  2 17  1  0
 17 18  2  0
 18 19  1  0
 18 20  1  0
 20 21  1  0
 20 22  2  0
 22 23  1  0
 22 24  1  0
 24 25  1  0
 24 26  2  0
 26 27  1  0
 15  4  1  0
 26 17  1  0
M  CHG  3  14  -1  25  -1  27  -1
M  END
>  <UniqueID>  (20) 
17

>  <SMILES>  (20) 
CCc1n[n-]c(=O)n1/N=C\c1cccc([O-])c1[O-]

>  <Energy>  (20) 
73.68307605682568

>  <Genealogy>  (20) 
CCc1n[n-]c(=O)n1N=Cc1cccc([O-])c1[O-] (protonated)
CCc1n[n-]c(=O)n1/N=C\c1cccc([O-])c1[O-] (cis-trans isomerization)
CCc1n[n-]c(=O)n1/N=C\c1cccc([O-])c1[O-] (3D coordinates assigned)
CCc1n[n-]c(=O)n1/N=C\c1cccc([O-])c1[O-] (optimized conformer: 73.68307605682568 kcal/mol)

>  <smiles>  (20) 
CCc1n[nH]c(=O)n1N=Cc1cccc(O)c1O

>  <score_type>  (20) 
oracle

>  <origin>  (20) 
adg

>  <m_score__min__energy>  (20) 
-15.4

>  <m_primary>  (20) 
energy

$$$$
20:0
     RDKit          3D

 52 54  0  0  0  0  0  0  0  0999 V2000
   55.4650   30.2840   52.4190 C   0  0  0  0  0  0  0  0  0  0  0  0
   56.6750   30.0910   51.6960 O   0  0  0  0  0  0  0  0  0  0  0  0
   57.5630   31.1330   51.4170 C   0  0  0  0  0  0  0  0  0  0  0  0
   57.5480   32.2760   52.2190 C   0  0  0  0  0  0  0  0  0  0  0  0
   58.4500   33.3090   51.9560 C   0  0  0  0  0  0  0  0  0  0  0  0
   59.3500   33.1920   50.8950 C   0  0  0  0  0  0  0  0  0  0  0  0
   59.3180   32.0430   50.0910 C   0  0  0  0  0  0  0  0  0  0  0  0
   60.3040   31.8600   48.9730 C   0  0  0  0  0  0  0  0  0  0  0  0
   60.5980   30.3780   48.7120 C   0  0  0  0  0  0  0  0  0  0  0  0
   60.2040   29.9820   47.3220 C   0  0  0  0  0  0  0  0  0  0  0  0
   60.2140   30.8160   46.2620 N   0  0  0  0  0  0  0  0  0  0  0  0
   59.7410   30.1190   45.2390 N   0  0  0  0  0  0  0  0  0  0  0  0
   59.4590   28.8930   45.7170 C   0  0  0  0  0  0  0  0  0  0  0  0
   58.8900   27.7780   44.8980 C   0  0  0  0  0  0  0  0  0  0  0  0
   57.3710   27.7130   45.0580 C   0  0  0  0  0  0  0  0  0  0  0  0
   56.7360   28.9770   44.5540 C   0  0  0  0  0  0  0  0  0  0  0  0
   55.5390   29.2400   44.8560 O   0  0  0  0  0  0  0  0  0  0  0  0
   57.5010   29.8900   43.7540 N   0  0  0  0  0  0  0  0  0  0  0  0
   57.0010   31.2060   43.3550 C   0  0  0  0  0  0  0  0  0  0  0  0
   58.1190   32.2580   43.3540 C   0  0  0  0  0  0  0  0  0  0  0  0
   58.2290   32.9500   44.6890 C   0  0  0  0  0  0  0  0  0  0  0  0
   57.4550   32.5050   45.7740 C   0  0  0  0  0  0  0  0  0  0  0  0
   57.5960   33.1000   47.0310 C   0  0  0  0  0  0  0  0  0  0  0  0
   58.5110   34.1410   47.2180 C   0  0  0  0  0  0  0  0  0  0  0  0
   59.2790   34.5970   46.1430 C   0  0  0  0  0  0  0  0  0  0  0  0
   59.1420   34.0050   44.8800 C   0  0  0  0  0  0  0  0  0  0  0  0
   59.9010   34.4590   43.8520 F   0  0  0  0  0  0  0  0  0  0  0  0
   59.7440   28.7990   46.9950 O   0  0  0  0  0  0  0  0  0  0  0  0
   58.4420   31.0500   50.3780 N   0  0  0  0  0  0  0  0  0  0  0  0
   55.6736   30.2507   53.4985 H   0  0  0  0  0  0  0  0  0  0  0  0
   55.0344   31.2622   52.1587 H   0  0  0  0  0  0  0  0  0  0  0  0
   54.7515   29.4883   52.1587 H   0  0  0  0  0  0  0  0  0  0  0  0
   56.8324   32.3618   53.0500 H   0  0  0  0  0  0  0  0  0  0  0  0
   58.4515   34.2127   52.5832 H   0  0  0  0  0  0  0  0  0  0  0  0
   60.0766   33.9925   50.6917 H   0  0  0  0  0  0  0  0  0  0  0  0
   59.8914   32.3081   48.0571 H   0  0  0  0  0  0  0  0  0  0  0  0
   61.2452   32.3501   49.2627 H   0  0  0  0  0  0  0  0  0  0  0  0
   61.6750   30.1975   48.8444 H   0  0  0  0  0  0  0  0  0  0  0  0
   60.0126   29.7771   49.4235 H   0  0  0  0  0  0  0  0  0  0  0  0
   59.1350   27.9461   43.8389 H   0  0  0  0  0  0  0  0  0  0  0  0
   59.3237   26.8278   45.2430 H   0  0  0  0  0  0  0  0  0  0  0  0
   56.9825   26.8587   44.4842 H   0  0  0  0  0  0  0  0  0  0  0  0
   57.1298   27.5937   46.1246 H   0  0  0  0  0  0  0  0  0  0  0  0
   58.4640   29.6110   43.4570 H   0  0  0  0  0  0  0  0  0  0  0  0
   56.5767   31.1349   42.3426 H   0  0  0  0  0  0  0  0  0  0  0  0
   56.2353   31.5179   44.0805 H   0  0  0  0  0  0  0  0  0  0  0  0
   59.0751   31.7631   43.1283 H   0  0  0  0  0  0  0  0  0  0  0  0
   57.8797   33.0146   42.5922 H   0  0  0  0  0  0  0  0  0  0  0  0
   56.7352   31.6851   45.6337 H   0  0  0  0  0  0  0  0  0  0  0  0
   56.9854   32.7483   47.8757 H   0  0  0  0  0  0  0  0  0  0  0  0
   58.6262   34.6007   48.2107 H   0  0  0  0  0  0  0  0  0  0  0  0
   59.9921   35.4218   46.2884 H   0  0  0  0  0  0  0  0  0  0  0  0
  1  2  1  0
  2  3  1  0
  3  4  2  0
  4  5  1  0
  5  6  2  0
  6  7  1  0
  7  8  1  0
  8  9  1  0
  9 10  1  0
 10 11  2  0
 11 12  1  0
 12 13  2  0
 13 14  1  0
 14 15  1  0
 15 16  1  0
 16 17  2  0
 16 18  1  0
 18 19  1  0
 19 20  1  0
 20 21  1  0
 21 22  2  0
 22 23  1  0
 23 24  2  0
 24 25  1  0
 25 26  2  0
 26 27  1  0
 13 28  1  0
  7 29  2  0
 29  3  1  0
 28 10  1  0
 26 21  1  0
  1 30  1  0
  1 31  1  0
  1 32  1  0
  4 33  1  0
  5 34  1  0
  6 35  1  0
  8 36  1  0
  8 37  1  0
  9 38  1  0
  9 39  1  0
 14 40  1  0
 14 41  1  0
 15 42  1  0
 15 43  1  0
 18 44  1  0
 19 45  1  0
 19 46  1  0
 20 47  1  0
 20 48  1  0
 22 49  1  0
 23 50  1  0
 24 51  1  0
 25 52  1  0
M  END
>  <UniqueID>  (21) 
18

>  <SMILES>  (21) 
COc1cccc(CCc2nnc(CCC(=O)NCCc3ccccc3F)o2)n1

>  <Energy>  (21) 
70.39050222354264

>  <Genealogy>  (21) 
COc1cccc(CCc2nnc(CCC(=O)NCCc3ccccc3F)o2)n1 (3D coordinates assigned)
COc1cccc(CCc2nnc(CCC(=O)NCCc3ccccc3F)o2)n1 (optimized conformer: 70.39050222354264 kcal/mol)

>  <smiles>  (21) 
COc1cccc(CCc2nnc(CCC(=O)NCCc3ccccc3F)o2)n1

>  <score_type>  (21) 
oracle

>  <origin>  (21) 
adg

>  <m_score__min__energy>  (21) 
-8.2200000000000006

>  <m_primary>  (21) 
energy

$$$$
21:0
     RDKit          3D

 53 56  0  0  0  0  0  0  0  0999 V2000
   55.2800   28.7020   53.4800 O   0  0  0  0  0  0  0  0  0  0  0  0
   54.6540   29.3560   52.6030 C   0  0  0  0  0  0  0  0  0  0  0  0
   53.2150   29.0360   52.3400 C   0  0  0  0  0  0  0  0  0  0  0  0
   52.4060   30.3040   52.3230 C   0  0  0  0  0  0  0  0  0  0  0  0
   52.0330   30.9190   53.5290 C   0  0  0  0  0  0  0  0  0  0  0  0
   51.3160   32.1180   53.5130 C   0  0  0  0  0  0  0  0  0  0  0  0
   50.9740   32.7150   52.2970 C   0  0  0  0  0  0  0  0  0  0  0  0
   51.3540   32.1160   51.0910 C   0  0  0  0  0  0  0  0  0  0  0  0
   51.0220   32.7150   49.8830 O   0  0  0  0  0  0  0  0  0  0  0  0
   52.0710   30.9160   51.1030 C   0  0  0  0  0  0  0  0  0  0  0  0
   55.3110   30.3960   51.8620 N   0  0  0  0  0  0  0  0  0  0  0  0
   56.6030   30.9190   52.2090 C   0  0  0  0  0  0  0  0  0  0  0  0
   57.1070   30.8020   53.5140 C   0  0  0  0  0  0  0  0  0  0  0  0
   58.3530   31.3420   53.8370 C   0  0  0  0  0  0  0  0  0  0  0  0
   59.1080   32.0030   52.8640 C   0  0  0  0  0  0  0  0  0  0  0  0
   58.6190   32.1340   51.5540 C   0  0  0  0  0  0  0  0  0  0  0  0
   59.4350   32.7990   50.5060 C   0  0  0  0  0  0  0  0  0  0  0  0
   60.5120   33.6330   50.8580 C   0  0  0  0  0  0  0  0  0  0  0  0
   61.2920   34.2310   49.8670 C   0  0  0  0  0  0  0  0  0  0  0  0
   61.0060   34.0110   48.5170 C   0  0  0  0  0  0  0  0  0  0  0  0
   59.9170   33.2080   48.1490 C   0  0  0  0  0  0  0  0  0  0  0  0
   59.6240   32.9280   46.7780 N   0  0  0  0  0  0  0  0  0  0  0  0
   58.0400   32.9860   46.0690 S   0  0  0  0  0  0  0  0  0  0  0  0
   57.0290   33.1850   47.1630 O   0  0  0  0  0  0  0  0  0  0  0  0
   57.9660   34.1620   45.1340 O   0  0  0  0  0  0  0  0  0  0  0  0
   57.6360   31.5190   45.1800 C   0  0  0  0  0  0  0  0  0  0  0  0
   57.0540   31.5960   43.9070 C   0  0  0  0  0  0  0  0  0  0  0  0
   56.7210   30.4260   43.2150 C   0  0  0  0  0  0  0  0  0  0  0  0
   56.9680   29.1780   43.7890 C   0  0  0  0  0  0  0  0  0  0  0  0
   57.5450   29.0950   45.0590 C   0  0  0  0  0  0  0  0  0  0  0  0
   57.8790   30.2620   45.7540 C   0  0  0  0  0  0  0  0  0  0  0  0
   59.1520   32.5880   49.1450 C   0  0  0  0  0  0  0  0  0  0  0  0
   57.3540   31.6010   51.2410 C   0  0  0  0  0  0  0  0  0  0  0  0
   53.1250   28.5323   51.3663 H   0  0  0  0  0  0  0  0  0  0  0  0
   52.8386   28.3756   53.1351 H   0  0  0  0  0  0  0  0  0  0  0  0
   52.3060   30.4557   54.4886 H   0  0  0  0  0  0  0  0  0  0  0  0
   51.0201   32.5931   54.4600 H   0  0  0  0  0  0  0  0  0  0  0  0
   50.4055   33.6567   52.2878 H   0  0  0  0  0  0  0  0  0  0  0  0
   52.3741   30.4491   50.1542 H   0  0  0  0  0  0  0  0  0  0  0  0
   54.8780   30.7090   50.9620 H   0  0  0  0  0  0  0  0  0  0  0  0
   56.5180   30.2830   54.2846 H   0  0  0  0  0  0  0  0  0  0  0  0
   58.7423   31.2470   54.8614 H   0  0  0  0  0  0  0  0  0  0  0  0
   60.0905   32.4228   53.1257 H   0  0  0  0  0  0  0  0  0  0  0  0
   60.7403   33.8145   51.9186 H   0  0  0  0  0  0  0  0  0  0  0  0
   62.1353   34.8781   50.1498 H   0  0  0  0  0  0  0  0  0  0  0  0
   61.6368   34.4690   47.7409 H   0  0  0  0  0  0  0  0  0  0  0  0
   56.8587   32.5779   43.4512 H   0  0  0  0  0  0  0  0  0  0  0  0
   56.2637   30.4901   42.2166 H   0  0  0  0  0  0  0  0  0  0  0  0
   56.7085   28.2598   43.2417 H   0  0  0  0  0  0  0  0  0  0  0  0
   57.7367   28.1113   45.5124 H   0  0  0  0  0  0  0  0  0  0  0  0
   58.3335   30.1941   46.7534 H   0  0  0  0  0  0  0  0  0  0  0  0
   58.3197   31.9280   48.8590 H   0  0  0  0  0  0  0  0  0  0  0  0
   56.9500   31.7210   50.2249 H   0  0  0  0  0  0  0  0  0  0  0  0
  1  2  2  0
  2  3  1  0
  3  4  1  0
  4  5  2  0
  5  6  1  0
  6  7  2  0
  7  8  1  0
  8  9  1  0
  8 10  2  0
  2 11  1  0
 11 12  1  0
 12 13  2  0
 13 14  1  0
 14 15  2  0
 15 16  1  0
 16 17  1  0
 17 18  2  0
 18 19  1  0
 19 20  2  0
 20 21  1  0
 21 22  1  0
 22 23  1  0
 23 24  2  0
 23 25  2  0
 23 26  1  0
 26 27  2  0
 27 28  1  0
 28 29  2  0
 29 30  1  0
 30 31  2  0
 21 32  2  0
 16 33  2  0
 10  4  1  0
 33 12  1  0
 32 17  1  0
 31 26  1  0
  3 34  1  0
  3 35  1  0
  5 36  1  0
  6 37  1  0
  7 38  1  0
 10 39  1  0
 11 40  1  0
 13 41  1  0
 14 42  1  0
 15 43  1  0
 18 44  1  0
 19 45  1  0
 20 46  1  0
 27 47  1  0
 28 48  1  0
 29 49  1  0
 30 50  1  0
 31 51  1  0
 32 52  1  0
 33 53  1  0
M  CHG  2   9  -1  22  -1
M  END
>  <UniqueID>  (22) 
19

>  <SMILES>  (22) 
O=C(Cc1cccc([O-])c1)Nc1cccc(-c2cccc([N-]S(=O)(=O)c3ccccc3)c2)c1

>  <Energy>  (22) 
73.55556546429266

>  <Genealogy>  (22) 
O=C(Cc1cccc([O-])c1)Nc1cccc(-c2cccc([N-]S(=O)(=O)c3ccccc3)c2)c1 (protonated)
O=C(Cc1cccc([O-])c1)Nc1cccc(-c2cccc([N-]S(=O)(=O)c3ccccc3)c2)c1 (3D coordinates assigned)
O=C(Cc1cccc([O-])c1)Nc1cccc(-c2cccc([N-]S(=O)(=O)c3ccccc3)c2)c1 (optimized conformer: 73.55556546429266 kcal/mol)

>  <smiles>  (22) 
O=C(Cc1cccc(O)c1)Nc1cccc(-c2cccc(NS(=O)(=O)c3ccccc3)c2)c1

>  <score_type>  (22) 
oracle

>  <origin>  (22) 
adg

>  <m_score__min__energy>  (22) 
-15.92

>  <m_primary>  (22) 
energy

$$$$
22:0
     RDKit          3D

 52 54  0  0  0  0  0  0  0  0999 V2000
   60.0800   29.7900   48.7280 C   0  0  0  0  0  0  0  0  0  0  0  0
   60.6500   29.6570   49.9320 C   0  0  0  0  0  0  0  0  0  0  0  0
   61.8580   30.3980   50.3220 C   0  0  0  0  0  0  0  0  0  0  0  0
   62.8050   29.7700   50.8630 O   0  0  0  0  0  0  0  0  0  0  0  0
   61.9360   31.8210   50.1430 N   0  0  0  0  0  0  0  0  0  0  0  0
   62.0780   32.5250   48.8990 C   0  0  0  0  0  0  0  0  0  0  0  0
   63.2830   32.5200   48.1740 C   0  0  0  0  0  0  0  0  0  0  0  0
   63.3680   33.1930   46.9490 C   0  0  0  0  0  0  0  0  0  0  0  0
   62.2510   33.8580   46.4360 C   0  0  0  0  0  0  0  0  0  0  0  0
   61.0420   33.8520   47.1420 C   0  0  0  0  0  0  0  0  0  0  0  0
   59.6320   34.6530   46.4560 S   0  0  0  0  0  0  0  0  0  0  0  0
   58.5070   34.7120   47.4510 O   0  0  0  0  0  0  0  0  0  0  0  0
   60.0070   36.0620   46.0880 O   0  0  0  0  0  0  0  0  0  0  0  0
   59.1250   33.8120   45.0270 N   0  0  0  0  0  0  0  0  0  0  0  0
   58.5940   32.4800   44.9850 C   0  0  0  0  0  0  0  0  0  0  0  0
   59.1250   31.4390   45.7600 C   0  0  0  0  0  0  0  0  0  0  0  0
   58.5690   30.1580   45.6980 C   0  0  0  0  0  0  0  0  0  0  0  0
   57.4720   29.8920   44.8650 C   0  0  0  0  0  0  0  0  0  0  0  0
   56.9380   28.5560   44.8080 N   0  0  0  0  0  0  0  0  0  0  0  0
   56.9990   27.6080   45.8900 C   0  0  0  0  0  0  0  0  0  0  0  0
   57.7630   27.8120   46.8730 O   0  0  0  0  0  0  0  0  0  0  0  0
   56.2150   26.3610   45.8480 C   0  0  0  0  0  0  0  0  0  0  0  0
   56.6970   25.0780   45.6550 C   0  0  0  0  0  0  0  0  0  0  0  0
   55.5670   24.2910   45.7260 C   0  0  0  0  0  0  0  0  0  0  0  0
   55.5170   22.8050   45.5500 C   0  0  0  0  0  0  0  0  0  0  0  0
   56.5130   22.3550   44.4760 C   0  0  0  0  0  0  0  0  0  0  0  0
   56.1690   22.9600   43.1190 C   0  0  0  0  0  0  0  0  0  0  0  0
   54.4790   25.0620   45.9240 N   0  0  0  0  0  0  0  0  0  0  0  0
   54.8750   26.3230   46.0040 N   0  0  0  0  0  0  0  0  0  0  0  0
   56.9630   30.9280   44.0650 C   0  0  0  0  0  0  0  0  0  0  0  0
   57.5100   32.2120   44.1430 C   0  0  0  0  0  0  0  0  0  0  0  0
   60.9590   33.1790   48.3650 C   0  0  0  0  0  0  0  0  0  0  0  0
   59.1759   29.2142   48.4809 H   0  0  0  0  0  0  0  0  0  0  0  0
   60.5158   30.4751   47.9858 H   0  0  0  0  0  0  0  0  0  0  0  0
   60.1965   28.9661   50.6579 H   0  0  0  0  0  0  0  0  0  0  0  0
   64.1599   31.9867   48.5697 H   0  0  0  0  0  0  0  0  0  0  0  0
   64.3152   33.1983   46.3897 H   0  0  0  0  0  0  0  0  0  0  0  0
   62.3219   34.3878   45.4746 H   0  0  0  0  0  0  0  0  0  0  0  0
   59.9836   31.6314   46.4202 H   0  0  0  0  0  0  0  0  0  0  0  0
   58.9964   29.3495   46.3092 H   0  0  0  0  0  0  0  0  0  0  0  0
   56.5760   28.2260   43.8860 H   0  0  0  0  0  0  0  0  0  0  0  0
   57.7365   24.7609   45.4850 H   0  0  0  0  0  0  0  0  0  0  0  0
   55.7701   22.3193   46.5040 H   0  0  0  0  0  0  0  0  0  0  0  0
   54.5026   22.5193   45.2348 H   0  0  0  0  0  0  0  0  0  0  0  0
   57.5241   22.6764   44.7666 H   0  0  0  0  0  0  0  0  0  0  0  0
   56.4644   21.2593   44.3921 H   0  0  0  0  0  0  0  0  0  0  0  0
   55.6302   23.9077   43.2660 H   0  0  0  0  0  0  0  0  0  0  0  0
   57.0951   23.1483   42.5561 H   0  0  0  0  0  0  0  0  0  0  0  0
   55.5336   22.2604   42.5561 H   0  0  0  0  0  0  0  0  0  0  0  0
   56.1306   30.7282   43.3743 H   0  0  0  0  0  0  0  0  0  0  0  0
   57.0823   33.0222   43.5342 H   0  0  0  0  0  0  0  0  0  0  0  0
   60.0057   33.1626   48.9137 H   0  0  0  0  0  0  0  0  0  0  0  0
  1  2  2  0
  2  3  1  0
  3  4  2  0
  3  5  1  0
  5  6  1  0
  6  7  2  0
  7  8  1  0
  8  9  2  0
  9 10  1  0
 10 11  1  0
 11 12  2  0
 11 13  2  0
 11 14  1  0
 14 15  1  0
 15 16  2  0
 16 17  1  0
 17 18  2  0
 18 19  1  0
 19 20  1  0
 20 21  2  0
 20 22  1  0
 22 23  2  0
 23 24  1  0
 24 25  1  0
 25 26  1  0
 26 27  1  0
 24 28  2  0
 28 29  1  0
 18 30  1  0
 30 31  2  0
 10 32  2  0
 32  6  1  0
 31 15  1  0
 29 22  1  0
  1 33  1  0
  1 34  1  0
  2 35  1  0
  7 36  1  0
  8 37  1  0
  9 38  1  0
 16 39  1  0
 17 40  1  0
 19 41  1  0
 23 42  1  0
 25 43  1  0
 25 44  1  0
 26 45  1  0
 26 46  1  0
 27 47  1  0
 27 48  1  0
 27 49  1  0
 30 50  1  0
 31 51  1  0
 32 52  1  0
M  CHG  3   5  -1  14  -1  29  -1
M  END
>  <UniqueID>  (23) 
20

>  <SMILES>  (23) 
C=CC(=O)[N-]c1cccc(S(=O)(=O)[N-]c2ccc(NC(=O)c3cc(CCC)n[n-]3)cc2)c1

>  <Energy>  (23) 
85.7537324484538

>  <Genealogy>  (23) 
C=CC(=O)[N-]c1cccc(S(=O)(=O)[N-]c2ccc(NC(=O)c3cc(CCC)n[n-]3)cc2)c1 (protonated)
C=CC(=O)[N-]c1cccc(S(=O)(=O)[N-]c2ccc(NC(=O)c3cc(CCC)n[n-]3)cc2)c1 (3D coordinates assigned)
C=CC(=O)[N-]c1cccc(S(=O)(=O)[N-]c2ccc(NC(=O)c3cc(CCC)n[n-]3)cc2)c1 (optimized conformer: 85.7537324484538 kcal/mol)

>  <smiles>  (23) 
C=CC(=O)Nc1cccc(S(=O)(=O)Nc2ccc(NC(=O)c3cc(CCC)n[nH]3)cc2)c1

>  <score_type>  (23) 
oracle

>  <origin>  (23) 
adg

>  <m_score__min__energy>  (23) 
-13.9

>  <m_primary>  (23) 
energy

$$$$
23:0
     RDKit          3D

 51 54  0  0  0  0  0  0  0  0999 V2000
   64.3550   32.5290   49.2280 C   0  0  0  0  0  0  0  0  0  0  0  0
   63.7920   33.7050   48.5430 N   0  0  0  0  0  0  0  0  0  0  0  0
   62.6000   34.2310   49.2430 C   0  0  0  0  0  0  0  0  0  0  0  0
   61.4140   33.2530   49.1620 C   0  0  0  0  0  0  0  0  0  0  0  0
   61.3590   32.6080   47.8440 N   0  0  0  0  0  0  0  0  0  0  0  0
   60.6450   31.3650   47.6750 C   0  0  0  0  0  0  0  0  0  0  0  0
   59.5050   31.3070   46.8570 C   0  0  0  0  0  0  0  0  0  0  0  0
   58.7900   30.1130   46.7230 C   0  0  0  0  0  0  0  0  0  0  0  0
   59.2050   28.9570   47.3910 C   0  0  0  0  0  0  0  0  0  0  0  0
   58.4140   27.7660   47.2610 N   0  0  0  0  0  0  0  0  0  0  0  0
   58.2500   26.9720   46.0760 C   0  0  0  0  0  0  0  0  0  0  0  0
   59.0340   27.1280   45.0990 O   0  0  0  0  0  0  0  0  0  0  0  0
   57.1290   26.0010   45.9830 C   0  0  0  0  0  0  0  0  0  0  0  0
   55.8100   26.4440   45.7460 C   0  0  0  0  0  0  0  0  0  0  0  0
   55.5220   27.7990   45.6260 O   0  0  0  0  0  0  0  0  0  0  0  0
   54.7960   25.5460   45.6440 N   0  0  0  0  0  0  0  0  0  0  0  0
   54.9990   24.2100   45.7620 C   0  0  0  0  0  0  0  0  0  0  0  0
   56.2830   23.7090   46.0030 C   0  0  0  0  0  0  0  0  0  0  0  0
   56.4880   22.2470   46.1200 C   0  0  0  0  0  0  0  0  0  0  0  0
   56.1660   21.4130   45.0350 C   0  0  0  0  0  0  0  0  0  0  0  0
   56.3600   20.0320   45.1270 C   0  0  0  0  0  0  0  0  0  0  0  0
   56.8640   19.4700   46.3040 C   0  0  0  0  0  0  0  0  0  0  0  0
   57.1720   20.2900   47.3930 C   0  0  0  0  0  0  0  0  0  0  0  0
   56.9860   21.6760   47.3080 C   0  0  0  0  0  0  0  0  0  0  0  0
   57.2790   22.4730   48.4140 O   0  0  0  0  0  0  0  0  0  0  0  0
   57.3590   24.6130   46.1040 C   0  0  0  0  0  0  0  0  0  0  0  0
   58.5310   24.1730   46.2650 O   0  0  0  0  0  0  0  0  0  0  0  0
   60.3290   29.0130   48.2290 C   0  0  0  0  0  0  0  0  0  0  0  0
   61.0430   30.2080   48.3690 C   0  0  0  0  0  0  0  0  0  0  0  0
   62.0730   33.2440   46.7320 C   0  0  0  0  0  0  0  0  0  0  0  0
   63.5570   33.4440   47.0960 C   0  0  0  0  0  0  0  0  0  0  0  0
   64.2869   32.6713   50.3166 H   0  0  0  0  0  0  0  0  0  0  0  0
   63.7892   31.6309   48.9395 H   0  0  0  0  0  0  0  0  0  0  0  0
   65.4094   32.4065   48.9395 H   0  0  0  0  0  0  0  0  0  0  0  0
   62.8525   34.3982   50.3005 H   0  0  0  0  0  0  0  0  0  0  0  0
   62.3030   35.1711   48.7551 H   0  0  0  0  0  0  0  0  0  0  0  0
   61.5298   32.4808   49.9368 H   0  0  0  0  0  0  0  0  0  0  0  0
   60.4818   33.8156   49.3183 H   0  0  0  0  0  0  0  0  0  0  0  0
   59.1725   32.2066   46.3183 H   0  0  0  0  0  0  0  0  0  0  0  0
   57.8933   30.0829   46.0866 H   0  0  0  0  0  0  0  0  0  0  0  0
   54.1499   23.5170   45.6678 H   0  0  0  0  0  0  0  0  0  0  0  0
   55.7599   21.8490   44.1103 H   0  0  0  0  0  0  0  0  0  0  0  0
   56.1156   19.3855   44.2713 H   0  0  0  0  0  0  0  0  0  0  0  0
   57.0180   18.3830   46.3728 H   0  0  0  0  0  0  0  0  0  0  0  0
   57.5620   19.8454   48.3205 H   0  0  0  0  0  0  0  0  0  0  0  0
   60.6497   28.1150   48.7774 H   0  0  0  0  0  0  0  0  0  0  0  0
   61.9234   30.2431   49.0276 H   0  0  0  0  0  0  0  0  0  0  0  0
   62.0009   32.6037   45.8405 H   0  0  0  0  0  0  0  0  0  0  0  0
   61.6185   34.2248   46.5283 H   0  0  0  0  0  0  0  0  0  0  0  0
   64.1087   32.5352   46.8137 H   0  0  0  0  0  0  0  0  0  0  0  0
   63.9032   34.3340   46.5500 H   0  0  0  0  0  0  0  0  0  0  0  0
  1  2  1  0
  2  3  1  0
  3  4  1  0
  4  5  1  0
  5  6  1  0
  6  7  2  0
  7  8  1  0
  8  9  2  0
  9 10  1  0
 10 11  1  0
 11 12  2  0
 11 13  1  0
 13 14  2  0
 14 15  1  0
 14 16  1  0
 16 17  1  0
 17 18  2  0
 18 19  1  0
 19 20  2  0
 20 21  1  0
 21 22  2  0
 22 23  1  0
 23 24  2  0
 24 25  1  0
 18 26  1  0
 26 27  2  0
  9 28  1  0
 28 29  2  0
  5 30  1  0
 30 31  1  0
 31  2  1  0
 29  6  1  0
 26 13  1  0
 24 19  1  0
  1 32  1  0
  1 33  1  0
  1 34  1  0
  3 35  1  0
  3 36  1  0
  4 37  1  0
  4 38  1  0
  7 39  1  0
  8 40  1  0
 17 41  1  0
 20 42  1  0
 21 43  1  0
 22 44  1  0
 23 45  1  0
 28 46  1  0
 29 47  1  0
 30 48  1  0
 30 49  1  0
 31 50  1  0
 31 51  1  0
M  CHG  4  10  -1  15  -1  16  -1  25  -1
M  END
>  <UniqueID>  (24) 
21

>  <SMILES>  (24) 
CN1CCN(c2ccc([N-]C(=O)c3c([O-])[n-]cc(-c4ccccc4[O-])c3=O)cc2)CC1

>  <Energy>  (24) 
83.87300475832475

>  <Genealogy>  (24) 
CN1CCN(c2ccc([N-]C(=O)c3c([O-])[n-]cc(-c4ccccc4[O-])c3=O)cc2)CC1 (protonated)
CN1CCN(c2ccc([N-]C(=O)c3c([O-])[n-]cc(-c4ccccc4[O-])c3=O)cc2)CC1 (3D coordinates assigned)
CN1CCN(c2ccc([N-]C(=O)c3c([O-])[n-]cc(-c4ccccc4[O-])c3=O)cc2)CC1 (nonaromatic ring conformer: 83.87300475832475 kcal/mol)

>  <smiles>  (24) 
CN1CCN(c2ccc(NC(=O)c3c(O)[nH]cc(-c4ccccc4O)c3=O)cc2)CC1

>  <score_type>  (24) 
oracle

>  <origin>  (24) 
adg

>  <m_score__min__energy>  (24) 
-16.710000000000001

>  <m_primary>  (24) 
energy

$$$$
24:0
     RDKit          3D

 40 42  0  0  0  0  0  0  0  0999 V2000
   55.6610   23.9610   44.2530 C   0  0  0  0  0  0  0  0  0  0  0  0
   54.7180   24.6350   45.6040 S   0  0  0  0  0  0  0  0  0  0  0  0
   55.1420   23.9530   46.8740 O   0  0  0  0  0  0  0  0  0  0  0  0
   53.2500   24.3960   45.3940 O   0  0  0  0  0  0  0  0  0  0  0  0
   55.0300   26.3360   45.7560 N   0  0  0  0  0  0  0  0  0  0  0  0
   56.3080   26.9730   45.6180 C   0  0  0  0  0  0  0  0  0  0  0  0
   57.5140   26.2730   45.7970 C   0  0  0  0  0  0  0  0  0  0  0  0
   58.7370   26.9270   45.6520 C   0  0  0  0  0  0  0  0  0  0  0  0
   58.7730   28.2840   45.3270 C   0  0  0  0  0  0  0  0  0  0  0  0
   57.5810   29.0060   45.1490 C   0  0  0  0  0  0  0  0  0  0  0  0
   57.6520   30.4670   44.7690 C   0  0  0  0  0  0  0  0  0  0  0  0
   58.1060   31.2980   45.9450 C   0  0  0  0  0  0  0  0  0  0  0  0
   58.3280   30.6400   47.1160 N   0  0  0  0  0  0  0  0  0  0  0  0
   58.7260   31.2660   48.2220 N   0  0  0  0  0  0  0  0  0  0  0  0
   58.9320   32.6040   48.2460 C   0  0  0  0  0  0  0  0  0  0  0  0
   59.2900   33.1550   49.3200 O   0  0  0  0  0  0  0  0  0  0  0  0
   58.7380   33.3530   47.0770 C   0  0  0  0  0  0  0  0  0  0  0  0
   58.3260   32.6990   45.9010 C   0  0  0  0  0  0  0  0  0  0  0  0
   58.0620   33.5700   44.6900 C   0  0  0  0  0  0  0  0  0  0  0  0
   59.1880   34.6030   44.4960 C   0  0  0  0  0  0  0  0  0  0  0  0
   59.6420   35.3100   45.7960 C   0  0  0  0  0  0  0  0  0  0  0  0
   58.8920   34.8550   47.0570 C   0  0  0  0  0  0  0  0  0  0  0  0
   56.3460   28.3400   45.2940 C   0  0  0  0  0  0  0  0  0  0  0  0
   55.1510   29.0290   45.1270 O   0  0  0  0  0  0  0  0  0  0  0  0
   56.4956   23.3645   44.6500 H   0  0  0  0  0  0  0  0  0  0  0  0
   55.0128   23.3203   43.6371 H   0  0  0  0  0  0  0  0  0  0  0  0
   56.0573   24.7817   43.6371 H   0  0  0  0  0  0  0  0  0  0  0  0
   57.4927   25.2034   46.0529 H   0  0  0  0  0  0  0  0  0  0  0  0
   59.6760   26.3720   45.7941 H   0  0  0  0  0  0  0  0  0  0  0  0
   59.7417   28.7918   45.2094 H   0  0  0  0  0  0  0  0  0  0  0  0
   58.3654   30.5914   43.9410 H   0  0  0  0  0  0  0  0  0  0  0  0
   56.6510   30.8035   44.4610 H   0  0  0  0  0  0  0  0  0  0  0  0
   58.0005   32.9329   43.7954 H   0  0  0  0  0  0  0  0  0  0  0  0
   57.1157   34.1087   44.8458 H   0  0  0  0  0  0  0  0  0  0  0  0
   60.0578   34.0861   44.0644 H   0  0  0  0  0  0  0  0  0  0  0  0
   58.7834   35.3868   43.8387 H   0  0  0  0  0  0  0  0  0  0  0  0
   60.7138   35.1094   45.9412 H   0  0  0  0  0  0  0  0  0  0  0  0
   59.4215   36.3799   45.6667 H   0  0  0  0  0  0  0  0  0  0  0  0
   59.4568   35.1714   47.9463 H   0  0  0  0  0  0  0  0  0  0  0  0
   57.8914   35.3119   47.0561 H   0  0  0  0  0  0  0  0  0  0  0  0
  1  2  1  0
  2  3  2  0
  2  4  2  0
  2  5  1  0
  5  6  1  0
  6  7  2  0
  7  8  1  0
  8  9  2  0
  9 10  1  0
 10 11  1  0
 11 12  1  0
 12 13  2  0
 13 14  1  0
 14 15  1  0
 15 16  2  0
 15 17  1  0
 17 18  2  0
 18 19  1  0
 19 20  1  0
 20 21  1  0
 21 22  1  0
 10 23  2  0
 23 24  1  0
 23  6  1  0
 18 12  1  0
 22 17  1  0
  1 25  1  0
  1 26  1  0
  1 27  1  0
  7 28  1  0
  8 29  1  0
  9 30  1  0
 11 31  1  0
 11 32  1  0
 19 33  1  0
 19 34  1  0
 20 35  1  0
 20 36  1  0
 21 37  1  0
 21 38  1  0
 22 39  1  0
 22 40  1  0
M  CHG  3   5  -1  14  -1  24  -1
M  END
>  <UniqueID>  (25) 
22

>  <SMILES>  (25) 
CS(=O)(=O)[N-]c1cccc(Cc2n[n-]c(=O)c3c2CCCC3)c1[O-]

>  <Energy>  (25) 
51.21054910615552

>  <Genealogy>  (25) 
CS(=O)(=O)[N-]c1cccc(Cc2n[n-]c(=O)c3c2CCCC3)c1[O-] (protonated)
CS(=O)(=O)[N-]c1cccc(Cc2n[n-]c(=O)c3c2CCCC3)c1[O-] (3D coordinates assigned)
CS(=O)(=O)[N-]c1cccc(Cc2n[n-]c(=O)c3c2CCCC3)c1[O-] (nonaromatic ring conformer: 51.21054910615552 kcal/mol)

>  <smiles>  (25) 
CS(=O)(=O)Nc1cccc(Cc2n[nH]c(=O)c3c2CCCC3)c1O

>  <score_type>  (25) 
oracle

>  <origin>  (25) 
adg

>  <m_score__min__energy>  (25) 
-15.539999999999999

>  <m_primary>  (25) 
energy

$$$$
25:0
     RDKit          3D

 40 42  0  0  0  0  0  0  0  0999 V2000
   57.3800   26.0810   44.3630 N   0  0  0  0  0  0  0  0  0  0  0  0
   56.8520   26.9550   45.7570 S   0  0  0  0  0  0  0  0  0  0  0  0
   58.0540   27.3960   46.5440 O   0  0  0  0  0  0  0  0  0  0  0  0
   55.9880   26.0600   46.6000 O   0  0  0  0  0  0  0  0  0  0  0  0
   55.9420   28.3410   45.2480 N   0  0  0  0  0  0  0  0  0  0  0  0
   56.4590   29.4270   44.4670 C   0  0  0  0  0  0  0  0  0  0  0  0
   56.3540   29.4550   43.0660 C   0  0  0  0  0  0  0  0  0  0  0  0
   56.8600   30.5390   42.3460 C   0  0  0  0  0  0  0  0  0  0  0  0
   57.4780   31.5990   43.0130 C   0  0  0  0  0  0  0  0  0  0  0  0
   57.6060   31.5850   44.4140 C   0  0  0  0  0  0  0  0  0  0  0  0
   58.2610   32.7240   45.1050 C   0  0  0  0  0  0  0  0  0  0  0  0
   58.3310   34.0010   44.5330 C   0  0  0  0  0  0  0  0  0  0  0  0
   58.9420   35.0310   45.2400 C   0  0  0  0  0  0  0  0  0  0  0  0
   59.4700   34.7780   46.5040 C   0  0  0  0  0  0  0  0  0  0  0  0
   60.0140   35.7160   47.1490 O   0  0  0  0  0  0  0  0  0  0  0  0
   59.3880   33.5170   47.0310 N   0  0  0  0  0  0  0  0  0  0  0  0
   59.8890   33.2120   48.3750 C   0  0  0  0  0  0  0  0  0  0  0  0
   61.3930   33.2540   48.3850 C   0  0  0  0  0  0  0  0  0  0  0  0
   62.1250   32.8240   47.2660 C   0  0  0  0  0  0  0  0  0  0  0  0
   63.5210   32.9000   47.2680 C   0  0  0  0  0  0  0  0  0  0  0  0
   64.1950   33.4100   48.3820 C   0  0  0  0  0  0  0  0  0  0  0  0
   63.4720   33.8500   49.4940 C   0  0  0  0  0  0  0  0  0  0  0  0
   62.0750   33.7760   49.4960 C   0  0  0  0  0  0  0  0  0  0  0  0
   58.7910   32.5370   46.3460 N   0  0  0  0  0  0  0  0  0  0  0  0
   57.0810   30.4920   45.1310 C   0  0  0  0  0  0  0  0  0  0  0  0
   56.5980   25.4440   44.0900 H   0  0  0  0  0  0  0  0  0  0  0  0
   57.4850   26.7750   43.5900 H   0  0  0  0  0  0  0  0  0  0  0  0
   55.8719   28.6208   42.5352 H   0  0  0  0  0  0  0  0  0  0  0  0
   56.7716   30.5582   41.2497 H   0  0  0  0  0  0  0  0  0  0  0  0
   57.8679   32.4520   42.4382 H   0  0  0  0  0  0  0  0  0  0  0  0
   57.9071   34.1870   43.5351 H   0  0  0  0  0  0  0  0  0  0  0  0
   59.0079   36.0387   44.8040 H   0  0  0  0  0  0  0  0  0  0  0  0
   59.4990   33.9548   49.0864 H   0  0  0  0  0  0  0  0  0  0  0  0
   59.5538   32.2054   48.6656 H   0  0  0  0  0  0  0  0  0  0  0  0
   61.5985   32.4264   46.3858 H   0  0  0  0  0  0  0  0  0  0  0  0
   64.0905   32.5578   46.3913 H   0  0  0  0  0  0  0  0  0  0  0  0
   65.2936   33.4648   48.3830 H   0  0  0  0  0  0  0  0  0  0  0  0
   64.0020   34.2550   50.3687 H   0  0  0  0  0  0  0  0  0  0  0  0
   61.5088   34.1280   50.3709 H   0  0  0  0  0  0  0  0  0  0  0  0
   57.1606   30.4746   46.2280 H   0  0  0  0  0  0  0  0  0  0  0  0
  1  2  1  0
  2  3  2  0
  2  4  2  0
  2  5  1  0
  5  6  1  0
  6  7  2  0
  7  8  1  0
  8  9  2  0
  9 10  1  0
 10 11  1  0
 11 12  1  0
 12 13  2  0
 13 14  1  0
 14 15  2  0
 14 16  1  0
 16 17  1  0
 17 18  1  0
 18 19  2  0
 19 20  1  0
 20 21  2  0
 21 22  1  0
 22 23  2  0
 16 24  1  0
 10 25  2  0
 25  6  1  0
 24 11  2  0
 23 18  1  0
  1 26  1  0
  1 27  1  0
  7 28  1  0
  8 29  1  0
  9 30  1  0
 12 31  1  0
 13 32  1  0
 17 33  1  0
 17 34  1  0
 19 35  1  0
 20 36  1  0
 21 37  1  0
 22 38  1  0
 23 39  1  0
 25 40  1  0
M  CHG  1   5  -1
M  END
>  <UniqueID>  (26) 
23

>  <SMILES>  (26) 
NS(=O)(=O)[N-]c1cccc(-c2ccc(=O)n(Cc3ccccc3)n2)c1

>  <Energy>  (26) 
47.07134399110261

>  <Genealogy>  (26) 
NS(=O)(=O)[N-]c1cccc(-c2ccc(=O)n(Cc3ccccc3)n2)c1 (protonated)
NS(=O)(=O)[N-]c1cccc(-c2ccc(=O)n(Cc3ccccc3)n2)c1 (3D coordinates assigned)
NS(=O)(=O)[N-]c1cccc(-c2ccc(=O)n(Cc3ccccc3)n2)c1 (optimized conformer: 47.07134399110261 kcal/mol)

>  <smiles>  (26) 
NS(=O)(=O)Nc1cccc(-c2ccc(=O)n(Cc3ccccc3)n2)c1

>  <score_type>  (26) 
oracle

>  <origin>  (26) 
adg

>  <m_score__min__energy>  (26) 
-11.109999999999999

>  <m_primary>  (26) 
energy

$$$$
26:0
     RDKit          3D

 56 59  0  0  0  0  0  0  0  0999 V2000
   58.1770   33.4860   42.6670 H   0  0  0  0  0  0  0  0  0  0  0  0
   58.5400   32.9790   41.8940 O   0  0  0  0  0  0  0  0  0  0  0  0
   57.5660   32.0350   41.5420 C   0  0  0  0  0  0  0  0  0  0  0  0
   57.9065   31.4724   40.6602 H   0  0  0  0  0  0  0  0  0  0  0  0
   56.6252   32.5568   41.3127 H   0  0  0  0  0  0  0  0  0  0  0  0
   57.3350   31.0820   42.6810 C   0  0  0  0  0  0  0  0  0  0  0  0
   58.1820   31.0970   43.7990 C   0  0  0  0  0  0  0  0  0  0  0  0
   59.0359   31.7898   43.8292 H   0  0  0  0  0  0  0  0  0  0  0  0
   57.9470   30.2370   44.8740 C   0  0  0  0  0  0  0  0  0  0  0  0
   58.6123   30.2636   45.7496 H   0  0  0  0  0  0  0  0  0  0  0  0
   56.8710   29.3410   44.8460 C   0  0  0  0  0  0  0  0  0  0  0  0
   56.6470   28.4970   45.9870 N   0  0  0  0  0  0  0  0  0  0  0  0
   56.6970   27.1950   46.0280 C   0  0  0  0  0  0  0  0  0  0  0  0
   55.5490   26.4610   45.9980 N   0  0  0  0  0  0  0  0  0  0  0  0
   55.5480   25.1050   45.9980 C   0  0  0  0  0  0  0  0  0  0  0  0
   54.5955   24.5549   45.9822 H   0  0  0  0  0  0  0  0  0  0  0  0
   56.7540   24.4100   46.0180 C   0  0  0  0  0  0  0  0  0  0  0  0
   56.7611   23.3100   46.0180 H   0  0  0  0  0  0  0  0  0  0  0  0
   57.9520   25.1210   46.0380 C   0  0  0  0  0  0  0  0  0  0  0  0
   58.9082   24.5774   46.0500 H   0  0  0  0  0  0  0  0  0  0  0  0
   57.9500   26.5290   46.0430 C   0  0  0  0  0  0  0  0  0  0  0  0
   59.2480   27.2570   46.0650 C   0  0  0  0  0  0  0  0  0  0  0  0
   59.9700   27.3080   45.0330 O   0  0  0  0  0  0  0  0  0  0  0  0
   59.7020   27.8670   47.2830 N   0  0  0  0  0  0  0  0  0  0  0  0
   59.6610   29.2650   47.6030 C   0  0  0  0  0  0  0  0  0  0  0  0
   58.8970   29.7640   48.6720 C   0  0  0  0  0  0  0  0  0  0  0  0
   58.2937   29.0754   49.2818 H   0  0  0  0  0  0  0  0  0  0  0  0
   58.9000   31.1300   48.9640 C   0  0  0  0  0  0  0  0  0  0  0  0
   58.2889   31.5134   49.7944 H   0  0  0  0  0  0  0  0  0  0  0  0
   59.6790   32.0160   48.2030 C   0  0  0  0  0  0  0  0  0  0  0  0
   59.6610   33.4920   48.5100 C   0  0  0  0  0  0  0  0  0  0  0  0
   59.3173   33.6396   49.5444 H   0  0  0  0  0  0  0  0  0  0  0  0
   60.6790   33.8882   48.3806 H   0  0  0  0  0  0  0  0  0  0  0  0
   58.7560   34.2150   47.5930 N   0  0  0  0  0  0  0  0  0  0  0  0
   59.5160   35.0350   46.6140 C   0  0  0  0  0  0  0  0  0  0  0  0
   59.0106   36.0049   46.4968 H   0  0  0  0  0  0  0  0  0  0  0  0
   60.5384   35.1595   47.0004 H   0  0  0  0  0  0  0  0  0  0  0  0
   59.6120   34.3580   45.2380 C   0  0  0  0  0  0  0  0  0  0  0  0
   60.1903   35.0051   44.5621 H   0  0  0  0  0  0  0  0  0  0  0  0
   60.1052   33.3836   45.3694 H   0  0  0  0  0  0  0  0  0  0  0  0
   58.2810   34.1230   44.6510 N   0  0  0  0  0  0  0  0  0  0  0  0
   58.3480   33.2860   44.0250 H   0  0  0  0  0  0  0  0  0  0  0  0
   57.2240   33.8800   45.6500 C   0  0  0  0  0  0  0  0  0  0  0  0
   56.7248   34.8335   45.8771 H   0  0  0  0  0  0  0  0  0  0  0  0
   56.5183   33.1508   45.2255 H   0  0  0  0  0  0  0  0  0  0  0  0
   57.7840   33.2920   46.9530 C   0  0  0  0  0  0  0  0  0  0  0  0
   56.9523   33.1097   47.6494 H   0  0  0  0  0  0  0  0  0  0  0  0
   58.3057   32.3540   46.7122 H   0  0  0  0  0  0  0  0  0  0  0  0
   60.4560   31.5150   47.1480 C   0  0  0  0  0  0  0  0  0  0  0  0
   61.0694   32.2012   46.5456 H   0  0  0  0  0  0  0  0  0  0  0  0
   60.4540   30.1470   46.8590 C   0  0  0  0  0  0  0  0  0  0  0  0
   61.0800   29.7609   46.0411 H   0  0  0  0  0  0  0  0  0  0  0  0
   55.9930   29.3580   43.7460 C   0  0  0  0  0  0  0  0  0  0  0  0
   55.1186   28.6907   43.7326 H   0  0  0  0  0  0  0  0  0  0  0  0
   56.2280   30.2200   42.6700 C   0  0  0  0  0  0  0  0  0  0  0  0
   55.5414   30.2222   41.8106 H   0  0  0  0  0  0  0  0  0  0  0  0
  1  2  1  0
  2  3  1  0
  3  4  1  0
  3  5  1  0
  3  6  1  0
  6  7  2  0
  7  8  1  0
  7  9  1  0
  9 10  1  0
  9 11  2  0
 11 12  1  0
 12 13  2  0
 13 14  1  0
 14 15  1  0
 15 16  1  0
 15 17  2  0
 17 18  1  0
 17 19  1  0
 19 20  1  0
 19 21  2  0
 21 22  1  0
 22 23  2  0
 22 24  1  0
 24 25  1  0
 25 26  2  0
 26 27  1  0
 26 28  1  0
 28 29  1  0
 28 30  2  0
 30 31  1  0
 31 32  1  0
 31 33  1  0
 31 34  1  0
 34 35  1  0
 35 36  1  0
 35 37  1  0
 35 38  1  0
 38 39  1  0
 38 40  1  0
 38 41  1  0
 41 42  1  0
 41 43  1  0
 43 44  1  0
 43 45  1  0
 43 46  1  0
 46 47  1  0
 46 48  1  0
 30 49  1  0
 49 50  1  0
 49 51  2  0
 51 52  1  0
 11 53  1  0
 53 54  1  0
 53 55  2  0
 55 56  1  0
 55  6  1  0
 21 13  1  0
 51 25  1  0
 46 34  1  0
M  CHG  2  14  -1  24  -1
M  END
>  <UniqueID>  (27) 
24

>  <SMILES>  (27) 
O=C([N-]c1ccc(CN2CCNCC2)cc1)c1ccc[n-]/c1=N\c1ccc(CO)cc1

>  <Energy>  (27) 
83.14928857693353

>  <Genealogy>  (27) 
O=C([N-]c1ccc(CN2CCNCC2)cc1)c1ccc[n-]c1=Nc1ccc(CO)cc1 (protonated)
O=C([N-]c1ccc(CN2CCNCC2)cc1)c1ccc[n-]/c1=N\c1ccc(CO)cc1 (cis-trans isomerization)
O=C([N-]c1ccc(CN2CCNCC2)cc1)c1ccc[n-]/c1=N\c1ccc(CO)cc1 (3D coordinates assigned)
O=C([N-]c1ccc(CN2CCNCC2)cc1)c1ccc[n-]/c1=N\c1ccc(CO)cc1 (nonaromatic ring conformer: 83.14928857693353 kcal/mol)

>  <smiles>  (27) 
O=C(Nc1ccc(CN2CCNCC2)cc1)c1ccc[nH]c1=Nc1ccc(CO)cc1

>  <score_type>  (27) 
oracle

>  <origin>  (27) 
adg

>  <m_score__min__energy>  (27) 
-12.23

>  <m_primary>  (27) 
energy

$$$$
27:0
     RDKit          3D

 55 58  0  0  0  0  0  0  0  0999 V2000
   55.5230   24.8620   46.6250 O   0  0  0  0  0  0  0  0  0  0  0  0
   56.7400   24.7610   46.3000 C   0  0  0  0  0  0  0  0  0  0  0  0
   57.6990   25.6780   46.8440 N   0  0  0  0  0  0  0  0  0  0  0  0
   58.1020   26.9180   46.2410 C   0  0  0  0  0  0  0  0  0  0  0  0
   59.4320   27.1500   45.8420 C   0  0  0  0  0  0  0  0  0  0  0  0
   59.7590   28.3060   45.1280 C   0  0  0  0  0  0  0  0  0  0  0  0
   58.7660   29.2230   44.7830 C   0  0  0  0  0  0  0  0  0  0  0  0
   57.4360   29.0050   45.1730 C   0  0  0  0  0  0  0  0  0  0  0  0
   56.3740   29.9250   44.7350 C   0  0  0  0  0  0  0  0  0  0  0  0
   55.1680   29.5840   44.8510 O   0  0  0  0  0  0  0  0  0  0  0  0
   56.6850   31.2160   44.1950 N   0  0  0  0  0  0  0  0  0  0  0  0
   57.3530   32.2530   44.9240 C   0  0  0  0  0  0  0  0  0  0  0  0
   57.5930   33.5460   44.4930 C   0  0  0  0  0  0  0  0  0  0  0  0
   58.1840   34.2400   45.4830 N   0  0  0  0  0  0  0  0  0  0  0  0
   58.2940   33.4070   46.5410 C   0  0  0  0  0  0  0  0  0  0  0  0
   58.9330   33.7680   47.8200 C   0  0  0  0  0  0  0  0  0  0  0  0
   59.5080   34.8840   47.9200 O   0  0  0  0  0  0  0  0  0  0  0  0
   58.9180   32.8960   48.9590 N   0  0  0  0  0  0  0  0  0  0  0  0
   59.7320   31.6910   49.1320 C   0  0  0  0  0  0  0  0  0  0  0  0
   60.5150   31.3580   47.8560 C   0  0  0  0  0  0  0  0  0  0  0  0
   61.7970   32.1420   47.7480 C   0  0  0  0  0  0  0  0  0  0  0  0
   61.9670   33.0960   46.7350 C   0  0  0  0  0  0  0  0  0  0  0  0
   63.1480   33.8370   46.6770 C   0  0  0  0  0  0  0  0  0  0  0  0
   64.1360   33.6210   47.5920 N   0  0  0  0  0  0  0  0  0  0  0  0
   64.0070   32.6850   48.5660 C   0  0  0  0  0  0  0  0  0  0  0  0
   62.8360   31.9330   48.6690 C   0  0  0  0  0  0  0  0  0  0  0  0
   57.7920   32.1530   46.2240 C   0  0  0  0  0  0  0  0  0  0  0  0
   57.1160   27.8590   45.9190 C   0  0  0  0  0  0  0  0  0  0  0  0
   57.1810   23.7030   45.3630 C   0  0  0  0  0  0  0  0  0  0  0  0
   58.3930   23.0200   45.5810 C   0  0  0  0  0  0  0  0  0  0  0  0
   58.7700   21.9600   44.7540 C   0  0  0  0  0  0  0  0  0  0  0  0
   57.9420   21.5630   43.7040 C   0  0  0  0  0  0  0  0  0  0  0  0
   56.7480   22.2540   43.4500 C   0  0  0  0  0  0  0  0  0  0  0  0
   55.9210   21.8720   42.3960 O   0  0  0  0  0  0  0  0  0  0  0  0
   56.3730   23.3230   44.2760 C   0  0  0  0  0  0  0  0  0  0  0  0
   60.2155   26.4198   46.0928 H   0  0  0  0  0  0  0  0  0  0  0  0
   60.8031   28.4935   44.8370 H   0  0  0  0  0  0  0  0  0  0  0  0
   59.0267   30.1205   44.2029 H   0  0  0  0  0  0  0  0  0  0  0  0
   57.3407   33.9435   43.4988 H   0  0  0  0  0  0  0  0  0  0  0  0
   58.5300   35.2240   45.4150 H   0  0  0  0  0  0  0  0  0  0  0  0
   60.4425   31.8540   49.9558 H   0  0  0  0  0  0  0  0  0  0  0  0
   59.0611   30.8488   49.3568 H   0  0  0  0  0  0  0  0  0  0  0  0
   60.7564   30.2848   47.8596 H   0  0  0  0  0  0  0  0  0  0  0  0
   59.8842   31.6263   46.9957 H   0  0  0  0  0  0  0  0  0  0  0  0
   61.1741   33.2595   45.9903 H   0  0  0  0  0  0  0  0  0  0  0  0
   63.2822   34.5962   45.8924 H   0  0  0  0  0  0  0  0  0  0  0  0
   64.8292   32.5183   49.2775 H   0  0  0  0  0  0  0  0  0  0  0  0
   62.7278   31.1822   49.4656 H   0  0  0  0  0  0  0  0  0  0  0  0
   57.7532   31.2667   46.8743 H   0  0  0  0  0  0  0  0  0  0  0  0
   56.0805   27.6989   46.2538 H   0  0  0  0  0  0  0  0  0  0  0  0
   59.0486   23.3243   46.4102 H   0  0  0  0  0  0  0  0  0  0  0  0
   59.7215   21.4372   44.9308 H   0  0  0  0  0  0  0  0  0  0  0  0
   58.2258   20.7069   43.0743 H   0  0  0  0  0  0  0  0  0  0  0  0
   56.0700   22.2200   41.4550 H   0  0  0  0  0  0  0  0  0  0  0  0
   55.4398   23.8687   44.0725 H   0  0  0  0  0  0  0  0  0  0  0  0
  1  2  2  0
  2  3  1  0
  3  4  1  0
  4  5  2  0
  5  6  1  0
  6  7  2  0
  7  8  1  0
  8  9  1  0
  9 10  2  0
  9 11  1  0
 11 12  1  0
 12 13  2  0
 13 14  1  0
 14 15  1  0
 15 16  1  0
 16 17  2  0
 16 18  1  0
 18 19  1  0
 19 20  1  0
 20 21  1  0
 21 22  2  0
 22 23  1  0
 23 24  2  0
 24 25  1  0
 25 26  2  0
 15 27  2  0
  8 28  2  0
  2 29  1  0
 29 30  2  0
 30 31  1  0
 31 32  2  0
 32 33  1  0
 33 34  1  0
 33 35  2  0
 28  4  1  0
 35 29  1  0
 27 12  1  0
 26 21  1  0
  5 36  1  0
  6 37  1  0
  7 38  1  0
 13 39  1  0
 14 40  1  0
 19 41  1  0
 19 42  1  0
 20 43  1  0
 20 44  1  0
 22 45  1  0
 23 46  1  0
 25 47  1  0
 26 48  1  0
 27 49  1  0
 28 50  1  0
 30 51  1  0
 31 52  1  0
 32 53  1  0
 34 54  1  0
 35 55  1  0
M  CHG  3   3  -1  11  -1  18  -1
M  END
>  <UniqueID>  (28) 
25

>  <SMILES>  (28) 
O=C([N-]c1cccc(C(=O)[N-]c2c[nH]c(C(=O)[N-]CCc3ccncc3)c2)c1)c1cccc(O)c1

>  <Energy>  (28) 
98.22338404391773

>  <Genealogy>  (28) 
O=C([N-]c1cccc(C(=O)[N-]c2c[nH]c(C(=O)[N-]CCc3ccncc3)c2)c1)c1cccc(O)c1 (protonated)
O=C([N-]c1cccc(C(=O)[N-]c2c[nH]c(C(=O)[N-]CCc3ccncc3)c2)c1)c1cccc(O)c1 (3D coordinates assigned)
O=C([N-]c1cccc(C(=O)[N-]c2c[nH]c(C(=O)[N-]CCc3ccncc3)c2)c1)c1cccc(O)c1 (optimized conformer: 98.22338404391773 kcal/mol)

>  <smiles>  (28) 
O=C(Nc1cccc(C(=O)Nc2c[nH]c(C(=O)NCCc3ccncc3)c2)c1)c1cccc(O)c1

>  <score_type>  (28) 
oracle

>  <origin>  (28) 
adg

>  <m_score__min__energy>  (28) 
-14.029999999999999

>  <m_primary>  (28) 
energy

$$$$
28:0
     RDKit          3D

 39 40  0  0  0  0  0  0  0  0999 V2000
   57.8951   23.6902   47.6422 H   0  0  0  0  0  0  0  0  0  0  0  0
   57.7160   24.6010   47.0520 C   0  0  0  0  0  0  0  0  0  0  0  0
   58.7890   25.2770   46.4690 C   0  0  0  0  0  0  0  0  0  0  0  0
   59.8130   24.8962   46.5969 H   0  0  0  0  0  0  0  0  0  0  0  0
   58.5640   26.4370   45.7230 C   0  0  0  0  0  0  0  0  0  0  0  0
   59.4118   26.9593   45.2556 H   0  0  0  0  0  0  0  0  0  0  0  0
   57.2600   26.9410   45.5660 C   0  0  0  0  0  0  0  0  0  0  0  0
   57.0110   28.1180   44.7750 N   0  0  0  0  0  0  0  0  0  0  0  0
   56.3090   28.0550   44.0030 H   0  0  0  0  0  0  0  0  0  0  0  0
   57.7070   29.3660   44.9310 C   0  0  0  0  0  0  0  0  0  0  0  0
   57.9280   30.1620   43.7520 N   0  0  0  0  0  0  0  0  0  0  0  0
   58.1430   29.6410   42.8720 H   0  0  0  0  0  0  0  0  0  0  0  0
   57.4940   31.5530   43.5980 C   0  0  0  0  0  0  0  0  0  0  0  0
   58.3384   32.1514   43.2253 H   0  0  0  0  0  0  0  0  0  0  0  0
   56.6539   31.5752   42.8882 H   0  0  0  0  0  0  0  0  0  0  0  0
   57.0140   32.1440   44.9290 C   0  0  0  0  0  0  0  0  0  0  0  0
   56.0614   32.6701   44.7682 H   0  0  0  0  0  0  0  0  0  0  0  0
   56.8800   31.3260   45.6521 H   0  0  0  0  0  0  0  0  0  0  0  0
   58.0290   33.1140   45.4760 C   0  0  0  0  0  0  0  0  0  0  0  0
   58.4360   34.2100   44.6950 C   0  0  0  0  0  0  0  0  0  0  0  0
   58.0299   34.3407   43.6811 H   0  0  0  0  0  0  0  0  0  0  0  0
   59.3540   35.1340   45.2010 C   0  0  0  0  0  0  0  0  0  0  0  0
   59.6745   35.9843   44.5811 H   0  0  0  0  0  0  0  0  0  0  0  0
   59.8660   34.9810   46.4920 C   0  0  0  0  0  0  0  0  0  0  0  0
   60.5907   35.7084   46.8865 H   0  0  0  0  0  0  0  0  0  0  0  0
   59.4570   33.9040   47.2810 C   0  0  0  0  0  0  0  0  0  0  0  0
   59.8587   33.7867   48.2983 H   0  0  0  0  0  0  0  0  0  0  0  0
   58.5380   32.9730   46.7830 C   0  0  0  0  0  0  0  0  0  0  0  0
   58.1330   31.9170   47.5930 O   0  0  0  0  0  0  0  0  0  0  0  0
   58.1090   29.7510   46.1170 N   0  0  0  0  0  0  0  0  0  0  0  0
   57.4930   30.3780   46.6830 H   0  0  0  0  0  0  0  0  0  0  0  0
   59.3480   29.3190   46.7550 C   0  0  0  0  0  0  0  0  0  0  0  0
   59.2312   29.3597   47.8480 H   0  0  0  0  0  0  0  0  0  0  0  0
   59.5778   28.2877   46.4490 H   0  0  0  0  0  0  0  0  0  0  0  0
   60.1692   29.9839   46.4490 H   0  0  0  0  0  0  0  0  0  0  0  0
   56.1830   26.2440   46.1420 C   0  0  0  0  0  0  0  0  0  0  0  0
   54.8810   26.7060   45.9880 O   0  0  0  0  0  0  0  0  0  0  0  0
   56.4150   25.0810   46.8860 C   0  0  0  0  0  0  0  0  0  0  0  0
   55.5700   24.5436   47.3412 H   0  0  0  0  0  0  0  0  0  0  0  0
  1  2  1  0
  2  3  2  0
  3  4  1  0
  3  5  1  0
  5  6  1  0
  5  7  2  0
  7  8  1  0
  8  9  1  0
  8 10  1  0
 10 11  1  0
 11 12  1  0
 11 13  1  0
 13 14  1  0
 13 15  1  0
 13 16  1  0
 16 17  1  0
 16 18  1  0
 16 19  1  0
 19 20  2  0
 20 21  1  0
 20 22  1  0
 22 23  1  0
 22 24  2  0
 24 25  1  0
 24 26  1  0
 26 27  1  0
 26 28  2  0
 28 29  1  0
 10 30  2  0
 30 31  1  0
 30 32  1  0
 32 33  1  0
 32 34  1  0
 32 35  1  0
  7 36  1  0
 36 37  1  0
 36 38  2  0
 38 39  1  0
 38  2  1  0
 28 19  1  0
M  CHG  3  29  -1  30   1  37  -1
M  END
>  <UniqueID>  (29) 
26

>  <SMILES>  (29) 
C/[NH+]=C(\NCCc1ccccc1[O-])Nc1ccccc1[O-]

>  <Energy>  (29) 
46.19304322449737

>  <Genealogy>  (29) 
C[NH+]=C(NCCc1ccccc1[O-])Nc1ccccc1[O-] (protonated)
C/[NH+]=C(\NCCc1ccccc1[O-])Nc1ccccc1[O-] (cis-trans isomerization)
C/[NH+]=C(\NCCc1ccccc1[O-])Nc1ccccc1[O-] (3D coordinates assigned)
C/[NH+]=C(\NCCc1ccccc1[O-])Nc1ccccc1[O-] (optimized conformer: 46.19304322449737 kcal/mol)

>  <smiles>  (29) 
CN=C(NCCc1ccccc1O)Nc1ccccc1O

>  <score_type>  (29) 
oracle

>  <origin>  (29) 
adg

>  <m_score__min__energy>  (29) 
-11.4

>  <m_primary>  (29) 
energy

$$$$
29:0
     RDKit          3D

 51 53  0  0  0  0  0  0  0  0999 V2000
   60.3420   29.5000   47.3110 C   0  0  0  0  0  0  0  0  0  0  0  0
   60.4510   29.6690   48.7180 O   0  0  0  0  0  0  0  0  0  0  0  0
   60.1540   30.8570   49.4060 C   0  0  0  0  0  0  0  0  0  0  0  0
   58.8610   31.1210   49.9030 C   0  0  0  0  0  0  0  0  0  0  0  0
   58.5920   32.3110   50.5830 C   0  0  0  0  0  0  0  0  0  0  0  0
   59.6030   33.2500   50.7780 C   0  0  0  0  0  0  0  0  0  0  0  0
   60.8870   33.0030   50.2920 C   0  0  0  0  0  0  0  0  0  0  0  0
   61.1760   31.8090   49.6100 C   0  0  0  0  0  0  0  0  0  0  0  0
   62.5710   31.5930   49.0770 C   0  0  0  0  0  0  0  0  0  0  0  0
   62.6130   31.8590   47.6440 N   0  0  0  0  0  0  0  0  0  0  0  0
   62.3230   33.1330   47.0640 C   0  0  0  0  0  0  0  0  0  0  0  0
   63.1660   34.0690   47.1170 O   0  0  0  0  0  0  0  0  0  0  0  0
   61.0130   33.3600   46.3910 C   0  0  0  0  0  0  0  0  0  0  0  0
   59.8820   34.2250   47.5340 S   0  0  0  0  0  0  0  0  0  0  0  0
   58.6020   34.5890   46.2850 C   0  0  0  0  0  0  0  0  0  0  0  0
   57.8220   33.3560   45.9560 C   0  0  0  0  0  0  0  0  0  0  0  0
   56.6380   33.2410   46.3750 O   0  0  0  0  0  0  0  0  0  0  0  0
   58.4370   32.3290   45.1600 N   0  0  0  0  0  0  0  0  0  0  0  0
   58.0020   31.1200   44.9560 C   0  0  0  0  0  0  0  0  0  0  0  0
   56.6970   30.8000   45.1000 N   0  0  0  0  0  0  0  0  0  0  0  0
   56.4650   29.4960   44.8020 C   0  0  0  0  0  0  0  0  0  0  0  0
   55.1900   28.9490   44.8690 O   0  0  0  0  0  0  0  0  0  0  0  0
   57.5870   28.7620   44.4270 C   0  0  0  0  0  0  0  0  0  0  0  0
   57.6060   27.3400   43.9620 C   0  0  0  0  0  0  0  0  0  0  0  0
   57.5890   26.4110   45.1450 C   0  0  0  0  0  0  0  0  0  0  0  0
   58.1300   26.8200   46.3750 C   0  0  0  0  0  0  0  0  0  0  0  0
   58.0700   25.9740   47.4880 C   0  0  0  0  0  0  0  0  0  0  0  0
   57.4640   24.7190   47.3820 C   0  0  0  0  0  0  0  0  0  0  0  0
   57.4010   23.8830   48.4910 O   0  0  0  0  0  0  0  0  0  0  0  0
   56.9170   24.3080   46.1620 C   0  0  0  0  0  0  0  0  0  0  0  0
   56.9760   25.1520   45.0480 C   0  0  0  0  0  0  0  0  0  0  0  0
   58.9160   29.7960   44.4410 S   0  0  0  0  0  0  0  0  0  0  0  0
   59.7574   28.5936   47.0948 H   0  0  0  0  0  0  0  0  0  0  0  0
   59.8373   30.3746   46.8747 H   0  0  0  0  0  0  0  0  0  0  0  0
   61.3469   29.4010   46.8747 H   0  0  0  0  0  0  0  0  0  0  0  0
   58.0581   30.3841   49.7540 H   0  0  0  0  0  0  0  0  0  0  0  0
   57.5796   32.5075   50.9656 H   0  0  0  0  0  0  0  0  0  0  0  0
   59.3886   34.1858   51.3150 H   0  0  0  0  0  0  0  0  0  0  0  0
   61.6804   33.7496   50.4440 H   0  0  0  0  0  0  0  0  0  0  0  0
   63.2655   32.2726   49.5926 H   0  0  0  0  0  0  0  0  0  0  0  0
   62.8639   30.5478   49.2552 H   0  0  0  0  0  0  0  0  0  0  0  0
   61.1648   33.9741   45.4911 H   0  0  0  0  0  0  0  0  0  0  0  0
   60.5754   32.3921   46.1054 H   0  0  0  0  0  0  0  0  0  0  0  0
   57.9183   35.3545   46.6805 H   0  0  0  0  0  0  0  0  0  0  0  0
   59.0925   34.9531   45.3702 H   0  0  0  0  0  0  0  0  0  0  0  0
   56.7213   27.1495   43.3366 H   0  0  0  0  0  0  0  0  0  0  0  0
   58.5212   27.1636   43.3778 H   0  0  0  0  0  0  0  0  0  0  0  0
   58.6027   27.8093   46.4637 H   0  0  0  0  0  0  0  0  0  0  0  0
   58.5003   26.2970   48.4474 H   0  0  0  0  0  0  0  0  0  0  0  0
   56.4400   23.3203   46.0785 H   0  0  0  0  0  0  0  0  0  0  0  0
   56.5400   24.8276   44.0916 H   0  0  0  0  0  0  0  0  0  0  0  0
  1  2  1  0
  2  3  1  0
  3  4  2  0
  4  5  1  0
  5  6  2  0
  6  7  1  0
  7  8  2  0
  8  9  1  0
  9 10  1  0
 10 11  1  0
 11 12  2  0
 11 13  1  0
 13 14  1  0
 14 15  1  0
 15 16  1  0
 16 17  2  0
 16 18  1  0
 18 19  2  3
 19 20  1  0
 20 21  1  0
 21 22  1  0
 21 23  2  0
 23 24  1  0
 24 25  1  0
 25 26  2  0
 26 27  1  0
 27 28  2  0
 28 29  1  0
 28 30  1  0
 30 31  2  0
 23 32  1  0
  8  3  1  0
 32 19  1  0
 31 25  1  0
  1 33  1  0
  1 34  1  0
  1 35  1  0
  4 36  1  0
  5 37  1  0
  6 38  1  0
  7 39  1  0
  9 40  1  0
  9 41  1  0
 13 42  1  0
 13 43  1  0
 15 44  1  0
 15 45  1  0
 24 46  1  0
 24 47  1  0
 26 48  1  0
 27 49  1  0
 30 50  1  0
 31 51  1  0
M  CHG  4  10  -1  20  -1  22  -1  29  -1
M  END
>  <UniqueID>  (30) 
27

>  <SMILES>  (30) 
COc1ccccc1C[N-]C(=O)CSCC(=O)N=c1[n-]c([O-])c(Cc2ccc([O-])cc2)s1

>  <Energy>  (30) 
77.03508849631021

>  <Genealogy>  (30) 
COc1ccccc1C[N-]C(=O)CSCC(=O)N=c1[n-]c([O-])c(Cc2ccc([O-])cc2)s1 (protonated)
COc1ccccc1C[N-]C(=O)CSCC(=O)N=c1[n-]c([O-])c(Cc2ccc([O-])cc2)s1 (3D coordinates assigned)
COc1ccccc1C[N-]C(=O)CSCC(=O)N=c1[n-]c([O-])c(Cc2ccc([O-])cc2)s1 (optimized conformer: 77.03508849631021 kcal/mol)

>  <smiles>  (30) 
COc1ccccc1CNC(=O)CSCC(=O)N=c1[nH]c(O)c(Cc2ccc(O)cc2)s1

>  <score_type>  (30) 
oracle

>  <origin>  (30) 
adg

>  <m_score__min__energy>  (30) 
-16.579999999999998

>  <m_primary>  (30) 
energy

$$$$
30:0
     RDKit          3D

 46 49  0  0  0  0  0  0  0  0999 V2000
   59.8260   29.6100   48.8200 O   0  0  0  0  0  0  0  0  0  0  0  0
   60.4250   29.9730   47.7710 C   0  0  0  0  0  0  0  0  0  0  0  0
   61.6320   30.8620   47.8770 C   0  0  0  0  0  0  0  0  0  0  0  0
   61.3640   32.1690   47.2690 N   0  0  0  0  0  0  0  0  0  0  0  0
   62.2480   33.0550   46.7280 C   0  0  0  0  0  0  0  0  0  0  0  0
   63.7450   32.9320   46.8030 C   0  0  0  0  0  0  0  0  0  0  0  0
   64.2560   33.3260   48.0760 O   0  0  0  0  0  0  0  0  0  0  0  0
   63.6260   33.1060   49.3100 C   0  0  0  0  0  0  0  0  0  0  0  0
   63.9350   32.0090   50.1380 C   0  0  0  0  0  0  0  0  0  0  0  0
   63.2640   31.8340   51.3520 C   0  0  0  0  0  0  0  0  0  0  0  0
   62.2920   32.7540   51.7570 C   0  0  0  0  0  0  0  0  0  0  0  0
   61.4410   32.5240   53.2730 Cl  0  0  0  0  0  0  0  0  0  0  0  0
   61.9920   33.8530   50.9460 C   0  0  0  0  0  0  0  0  0  0  0  0
   62.6510   34.0230   49.7260 C   0  0  0  0  0  0  0  0  0  0  0  0
   61.6480   34.1590   46.2060 N   0  0  0  0  0  0  0  0  0  0  0  0
   60.3400   33.9260   46.4140 C   0  0  0  0  0  0  0  0  0  0  0  0
   59.2660   34.7440   46.0670 C   0  0  0  0  0  0  0  0  0  0  0  0
   57.9710   34.2990   46.3950 C   0  0  0  0  0  0  0  0  0  0  0  0
   57.7840   33.0620   47.0520 C   0  0  0  0  0  0  0  0  0  0  0  0
   58.8910   32.2600   47.3890 C   0  0  0  0  0  0  0  0  0  0  0  0
   60.1620   32.7330   47.0510 C   0  0  0  0  0  0  0  0  0  0  0  0
   60.0270   29.4560   46.4910 N   0  0  0  0  0  0  0  0  0  0  0  0
   58.8100   28.7220   46.2670 C   0  0  0  0  0  0  0  0  0  0  0  0
   57.8230   29.2660   45.4280 C   0  0  0  0  0  0  0  0  0  0  0  0
   56.6140   28.5920   45.2250 C   0  0  0  0  0  0  0  0  0  0  0  0
   56.3720   27.3790   45.8770 C   0  0  0  0  0  0  0  0  0  0  0  0
   55.1670   26.7150   45.6830 O   0  0  0  0  0  0  0  0  0  0  0  0
   57.3420   26.8350   46.7280 C   0  0  0  0  0  0  0  0  0  0  0  0
   58.5570   27.5010   46.9220 C   0  0  0  0  0  0  0  0  0  0  0  0
   61.8861   31.0019   48.9381 H   0  0  0  0  0  0  0  0  0  0  0  0
   62.4700   30.3880   47.3449 H   0  0  0  0  0  0  0  0  0  0  0  0
   64.0239   31.8841   46.6184 H   0  0  0  0  0  0  0  0  0  0  0  0
   64.1769   33.6012   46.0443 H   0  0  0  0  0  0  0  0  0  0  0  0
   64.7062   31.2882   49.8286 H   0  0  0  0  0  0  0  0  0  0  0  0
   63.5014   30.9702   51.9903 H   0  0  0  0  0  0  0  0  0  0  0  0
   61.2364   34.5843   51.2690 H   0  0  0  0  0  0  0  0  0  0  0  0
   62.4028   34.8832   49.0869 H   0  0  0  0  0  0  0  0  0  0  0  0
   59.4247   35.7043   45.5545 H   0  0  0  0  0  0  0  0  0  0  0  0
   57.0991   34.9184   46.1381 H   0  0  0  0  0  0  0  0  0  0  0  0
   56.7675   32.7237   47.3016 H   0  0  0  0  0  0  0  0  0  0  0  0
   58.7602   31.2949   47.9004 H   0  0  0  0  0  0  0  0  0  0  0  0
   60.7000   29.5450   45.6980 H   0  0  0  0  0  0  0  0  0  0  0  0
   58.0022   30.2288   44.9271 H   0  0  0  0  0  0  0  0  0  0  0  0
   55.8539   29.0163   44.5525 H   0  0  0  0  0  0  0  0  0  0  0  0
   57.1485   25.8832   47.2444 H   0  0  0  0  0  0  0  0  0  0  0  0
   59.3179   27.0693   47.5889 H   0  0  0  0  0  0  0  0  0  0  0  0
  1  2  2  0
  2  3  1  0
  3  4  1  0
  4  5  1  0
  5  6  1  0
  6  7  1  0
  7  8  1  0
  8  9  2  0
  9 10  1  0
 10 11  2  0
 11 12  1  0
 11 13  1  0
 13 14  2  0
  5 15  2  0
 15 16  1  0
 16 17  2  0
 17 18  1  0
 18 19  2  0
 19 20  1  0
 20 21  2  0
  2 22  1  0
 22 23  1  0
 23 24  2  0
 24 25  1  0
 25 26  2  0
 26 27  1  0
 26 28  1  0
 28 29  2  0
 21  4  1  0
 29 23  1  0
 14  8  1  0
 21 16  1  0
  3 30  1  0
  3 31  1  0
  6 32  1  0
  6 33  1  0
  9 34  1  0
 10 35  1  0
 13 36  1  0
 14 37  1  0
 17 38  1  0
 18 39  1  0
 19 40  1  0
 20 41  1  0
 22 42  1  0
 24 43  1  0
 25 44  1  0
 28 45  1  0
 29 46  1  0
M  CHG  1  27  -1
M  END
>  <UniqueID>  (31) 
28

>  <SMILES>  (31) 
O=C(Cn1c(COc2ccc(Cl)cc2)nc2ccccc21)Nc1ccc([O-])cc1

>  <Energy>  (31) 
85.88487270352869

>  <Genealogy>  (31) 
O=C(Cn1c(COc2ccc(Cl)cc2)nc2ccccc21)Nc1ccc([O-])cc1 (protonated)
O=C(Cn1c(COc2ccc(Cl)cc2)nc2ccccc21)Nc1ccc([O-])cc1 (3D coordinates assigned)
O=C(Cn1c(COc2ccc(Cl)cc2)nc2ccccc21)Nc1ccc([O-])cc1 (optimized conformer: 85.88487270352869 kcal/mol)

>  <smiles>  (31) 
O=C(Cn1c(COc2ccc(Cl)cc2)nc2ccccc21)Nc1ccc(O)cc1

>  <score_type>  (31) 
oracle

>  <origin>  (31) 
adg

>  <m_score__min__energy>  (31) 
-10.83

>  <m_primary>  (31) 
energy

$$$$
31:0
     RDKit          3D

 35 36  0  0  0  0  0  0  0  0999 V2000
   60.7740   32.2020   48.7830 C   0  0  0  0  0  0  0  0  0  0  0  0
   59.2960   32.8950   49.4870 S   0  0  0  0  0  0  0  0  0  0  0  0
   58.7480   31.9420   50.5120 O   0  0  0  0  0  0  0  0  0  0  0  0
   59.6320   34.2100   50.1340 O   0  0  0  0  0  0  0  0  0  0  0  0
   58.1330   33.1380   48.2190 N   0  0  0  0  0  0  0  0  0  0  0  0
   58.3920   33.4580   46.9830 C   0  0  0  0  0  0  0  0  0  0  0  0
   59.0050   34.6740   46.6230 C   0  0  0  0  0  0  0  0  0  0  0  0
   59.2580   34.9440   45.2770 C   0  0  0  0  0  0  0  0  0  0  0  0
   58.9150   34.0430   44.3210 N   0  0  0  0  0  0  0  0  0  0  0  0
   58.3120   32.8620   44.6300 C   0  0  0  0  0  0  0  0  0  0  0  0
   57.9990   31.9260   43.5830 N   0  0  0  0  0  0  0  0  0  0  0  0
   57.7080   30.6400   44.1640 C   0  0  0  0  0  0  0  0  0  0  0  0
   58.7510   29.7510   44.4840 C   0  0  0  0  0  0  0  0  0  0  0  0
   58.4660   28.4900   45.0170 C   0  0  0  0  0  0  0  0  0  0  0  0
   57.1380   28.0990   45.2340 C   0  0  0  0  0  0  0  0  0  0  0  0
   56.7830   26.5020   45.8860 S   0  0  0  0  0  0  0  0  0  0  0  0
   55.0720   26.2950   46.0080 N   0  0  0  0  0  0  0  0  0  0  0  0
   57.3540   25.4450   44.9820 O   0  0  0  0  0  0  0  0  0  0  0  0
   57.4020   26.3580   47.2470 O   0  0  0  0  0  0  0  0  0  0  0  0
   56.0960   28.9730   44.9000 C   0  0  0  0  0  0  0  0  0  0  0  0
   56.3780   30.2340   44.3670 C   0  0  0  0  0  0  0  0  0  0  0  0
   58.0490   32.5500   45.9730 C   0  0  0  0  0  0  0  0  0  0  0  0
   61.4507   31.8847   49.5901 H   0  0  0  0  0  0  0  0  0  0  0  0
   60.5116   31.3330   48.1616 H   0  0  0  0  0  0  0  0  0  0  0  0
   61.2742   32.9594   48.1616 H   0  0  0  0  0  0  0  0  0  0  0  0
   59.2822   35.4052   47.3966 H   0  0  0  0  0  0  0  0  0  0  0  0
   59.7376   35.8913   44.9895 H   0  0  0  0  0  0  0  0  0  0  0  0
   58.8120   31.8470   42.9300 H   0  0  0  0  0  0  0  0  0  0  0  0
   57.1830   32.2680   43.0230 H   0  0  0  0  0  0  0  0  0  0  0  0
   59.7959   30.0497   44.3140 H   0  0  0  0  0  0  0  0  0  0  0  0
   59.2874   27.8024   45.2669 H   0  0  0  0  0  0  0  0  0  0  0  0
   54.7130   27.0720   46.6060 H   0  0  0  0  0  0  0  0  0  0  0  0
   55.0516   28.6659   45.0577 H   0  0  0  0  0  0  0  0  0  0  0  0
   55.5534   30.9131   44.1047 H   0  0  0  0  0  0  0  0  0  0  0  0
   57.5736   31.5925   46.2323 H   0  0  0  0  0  0  0  0  0  0  0  0
  1  2  1  0
  2  3  2  0
  2  4  2  0
  2  5  1  0
  5  6  2  3
  6  7  1  0
  7  8  2  0
  8  9  1  0
  9 10  1  0
 10 11  1  0
 11 12  1  0
 12 13  2  0
 13 14  1  0
 14 15  2  0
 15 16  1  0
 16 17  1  0
 16 18  2  0
 16 19  2  0
 15 20  1  0
 20 21  2  0
 10 22  2  0
 22  6  1  0
 21 12  1  0
  1 23  1  0
  1 24  1  0
  1 25  1  0
  7 26  1  0
  8 27  1  0
 11 28  1  0
 11 29  1  0
 13 30  1  0
 14 31  1  0
 17 32  1  0
 20 33  1  0
 21 34  1  0
 22 35  1  0
M  CHG  3   9  -1  11   1  17  -1
M  END
>  <UniqueID>  (32) 
29

>  <SMILES>  (32) 
CS(=O)(=O)N=c1cc[n-]c([NH2+]c2ccc(S([NH-])(=O)=O)cc2)c1

>  <Energy>  (32) 
38.29271558814604

>  <Genealogy>  (32) 
CS(=O)(=O)N=c1cc[n-]c([NH2+]c2ccc(S([NH-])(=O)=O)cc2)c1 (protonated)
CS(=O)(=O)N=c1cc[n-]c([NH2+]c2ccc(S([NH-])(=O)=O)cc2)c1 (3D coordinates assigned)
CS(=O)(=O)N=c1cc[n-]c([NH2+]c2ccc(S([NH-])(=O)=O)cc2)c1 (optimized conformer: 38.29271558814604 kcal/mol)

>  <smiles>  (32) 
CS(=O)(=O)N=c1cc[nH]c(Nc2ccc(S(N)(=O)=O)cc2)c1

>  <score_type>  (32) 
oracle

>  <origin>  (32) 
adg

>  <m_score__min__energy>  (32) 
-9.5299999999999994

>  <m_primary>  (32) 
energy

$$$$
32:0
     RDKit          3D

 23 24  0  0  0  0  0  0  0  0999 V2000
   55.1720   29.4360   44.8460 N   0  0  0  0  0  0  0  0  0  0  0  0
   56.6520   30.1790   44.3500 S   0  0  0  0  0  0  0  0  0  0  0  0
   56.8580   29.9700   42.8760 O   0  0  0  0  0  0  0  0  0  0  0  0
   56.5850   31.6520   44.6350 O   0  0  0  0  0  0  0  0  0  0  0  0
   57.9600   29.5010   45.2200 O   0  0  0  0  0  0  0  0  0  0  0  0
   58.0780   28.1460   45.5610 C   0  0  0  0  0  0  0  0  0  0  0  0
   59.3170   27.5400   45.8340 C   0  0  0  0  0  0  0  0  0  0  0  0
   59.3810   26.1860   46.1700 C   0  0  0  0  0  0  0  0  0  0  0  0
   58.2150   25.4200   46.2380 C   0  0  0  0  0  0  0  0  0  0  0  0
   58.3030   24.1320   46.5590 O   0  0  0  0  0  0  0  0  0  0  0  0
   57.2400   23.3410   46.6440 C   0  0  0  0  0  0  0  0  0  0  0  0
   57.3890   22.1300   46.9530 O   0  0  0  0  0  0  0  0  0  0  0  0
   55.9640   23.8440   46.3910 C   0  0  0  0  0  0  0  0  0  0  0  0
   55.8080   25.1880   46.0490 C   0  0  0  0  0  0  0  0  0  0  0  0
   54.5120   25.6500   45.8040 O   0  0  0  0  0  0  0  0  0  0  0  0
   56.9570   26.0120   45.9660 C   0  0  0  0  0  0  0  0  0  0  0  0
   56.9070   27.3790   45.6280 C   0  0  0  0  0  0  0  0  0  0  0  0
   55.1850   28.4570   44.4790 H   0  0  0  0  0  0  0  0  0  0  0  0
   60.2405   28.1354   45.7827 H   0  0  0  0  0  0  0  0  0  0  0  0
   60.3547   25.7203   46.3822 H   0  0  0  0  0  0  0  0  0  0  0  0
   55.0858   23.1853   46.4606 H   0  0  0  0  0  0  0  0  0  0  0  0
   54.0260   26.3190   46.3850 H   0  0  0  0  0  0  0  0  0  0  0  0
   55.9364   27.8502   45.4140 H   0  0  0  0  0  0  0  0  0  0  0  0
  1  2  1  0
  2  3  2  0
  2  4  2  0
  2  5  1  0
  5  6  1  0
  6  7  2  0
  7  8  1  0
  8  9  2  0
  9 10  1  0
 10 11  1  0
 11 12  2  0
 11 13  1  0
 13 14  2  0
 14 15  1  0
 14 16  1  0
 16 17  2  0
 17  6  1  0
 16  9  1  0
  1 18  1  0
  7 19  1  0
  8 20  1  0
 13 21  1  0
 15 22  1  0
 17 23  1  0
M  CHG  1   1  -1
M  END
>  <UniqueID>  (33) 
30

>  <SMILES>  (33) 
[NH-]S(=O)(=O)Oc1ccc2oc(=O)cc(O)c2c1

>  <Energy>  (33) 
28.376549755669274

>  <Genealogy>  (33) 
[NH-]S(=O)(=O)Oc1ccc2oc(=O)cc(O)c2c1 (protonated)
[NH-]S(=O)(=O)Oc1ccc2oc(=O)cc(O)c2c1 (3D coordinates assigned)
[NH-]S(=O)(=O)Oc1ccc2oc(=O)cc(O)c2c1 (optimized conformer: 28.376549755669274 kcal/mol)

>  <smiles>  (33) 
NS(=O)(=O)Oc1ccc2oc(=O)cc(O)c2c1

>  <score_type>  (33) 
oracle

>  <origin>  (33) 
adg

>  <m_score__min__energy>  (33) 
-9.9600000000000009

>  <m_primary>  (33) 
energy

$$$$
33:0
     RDKit          3D

 46 48  0  0  0  0  0  0  0  0999 V2000
   60.7710   28.5390   46.8610 O   0  0  0  0  0  0  0  0  0  0  0  0
   59.5290   28.7850   46.0520 S   0  0  0  0  0  0  0  0  0  0  0  0
   59.9090   28.8660   44.5980 O   0  0  0  0  0  0  0  0  0  0  0  0
   58.8060   30.2850   46.5460 N   0  0  0  0  0  0  0  0  0  0  0  0
   59.2150   31.3570   45.6350 C   0  0  0  0  0  0  0  0  0  0  0  0
   58.2650   32.5480   45.7710 C   0  0  0  0  0  0  0  0  0  0  0  0
   57.4360   32.7420   44.4990 C   0  0  0  0  0  0  0  0  0  0  0  0
   56.8850   31.4640   44.0610 N   0  0  0  0  0  0  0  0  0  0  0  0
   57.0540   30.8840   42.8610 C   0  0  0  0  0  0  0  0  0  0  0  0
   56.3000   29.7320   42.8780 C   0  0  0  0  0  0  0  0  0  0  0  0
   55.6900   29.6510   44.0790 N   0  0  0  0  0  0  0  0  0  0  0  0
   56.0580   30.7180   44.7750 N   0  0  0  0  0  0  0  0  0  0  0  0
   58.4020   27.4580   46.3190 C   0  0  0  0  0  0  0  0  0  0  0  0
   58.8690   26.2530   46.8560 C   0  0  0  0  0  0  0  0  0  0  0  0
   57.9830   25.2020   47.1050 C   0  0  0  0  0  0  0  0  0  0  0  0
   56.6100   25.3460   46.8240 C   0  0  0  0  0  0  0  0  0  0  0  0
   55.6770   24.3260   47.0720 O   0  0  0  0  0  0  0  0  0  0  0  0
   55.8860   22.9370   46.8130 C   0  0  0  0  0  0  0  0  0  0  0  0
   56.1580   22.6990   45.3510 C   0  0  0  0  0  0  0  0  0  0  0  0
   55.5190   23.4850   44.3770 C   0  0  0  0  0  0  0  0  0  0  0  0
   55.7730   23.2710   43.0190 C   0  0  0  0  0  0  0  0  0  0  0  0
   56.6740   22.2780   42.6240 C   0  0  0  0  0  0  0  0  0  0  0  0
   57.3250   21.5000   43.5860 C   0  0  0  0  0  0  0  0  0  0  0  0
   57.0720   21.7110   44.9460 C   0  0  0  0  0  0  0  0  0  0  0  0
   56.1500   26.5530   46.2770 C   0  0  0  0  0  0  0  0  0  0  0  0
   54.8000   26.7140   45.9860 O   0  0  0  0  0  0  0  0  0  0  0  0
   57.0390   27.6040   46.0280 C   0  0  0  0  0  0  0  0  0  0  0  0
   59.1860   30.5030   47.4970 H   0  0  0  0  0  0  0  0  0  0  0  0
   60.2378   31.6763   45.8837 H   0  0  0  0  0  0  0  0  0  0  0  0
   59.1823   30.9846   44.6005 H   0  0  0  0  0  0  0  0  0  0  0  0
   57.5862   32.3708   46.6183 H   0  0  0  0  0  0  0  0  0  0  0  0
   58.8647   33.4549   45.9380 H   0  0  0  0  0  0  0  0  0  0  0  0
   56.6128   33.4421   44.7043 H   0  0  0  0  0  0  0  0  0  0  0  0
   58.0820   33.1468   43.7060 H   0  0  0  0  0  0  0  0  0  0  0  0
   57.6718   31.2555   42.0302 H   0  0  0  0  0  0  0  0  0  0  0  0
   56.2106   29.0054   42.0569 H   0  0  0  0  0  0  0  0  0  0  0  0
   59.9386   26.1329   47.0831 H   0  0  0  0  0  0  0  0  0  0  0  0
   58.3595   24.2567   47.5228 H   0  0  0  0  0  0  0  0  0  0  0  0
   56.7467   22.5862   47.4014 H   0  0  0  0  0  0  0  0  0  0  0  0
   54.9773   22.3856   47.0962 H   0  0  0  0  0  0  0  0  0  0  0  0
   54.8154   24.2726   44.6846 H   0  0  0  0  0  0  0  0  0  0  0  0
   55.2636   23.8843   42.2611 H   0  0  0  0  0  0  0  0  0  0  0  0
   56.8710   22.1085   41.5551 H   0  0  0  0  0  0  0  0  0  0  0  0
   58.0366   20.7215   43.2736 H   0  0  0  0  0  0  0  0  0  0  0  0
   57.5903   21.1014   45.7009 H   0  0  0  0  0  0  0  0  0  0  0  0
   56.6671   28.5478   45.6026 H   0  0  0  0  0  0  0  0  0  0  0  0
  1  2  2  0
  2  3  2  0
  2  4  1  0
  4  5  1  0
  5  6  1  0
  6  7  1  0
  7  8  1  0
  8  9  1  0
  9 10  2  0
 10 11  1  0
 11 12  2  0
  2 13  1  0
 13 14  2  0
 14 15  1  0
 15 16  2  0
 16 17  1  0
 17 18  1  0
 18 19  1  0
 19 20  2  0
 20 21  1  0
 21 22  2  0
 22 23  1  0
 23 24  2  0
 16 25  1  0
 25 26  1  0
 25 27  2  0
 12  8  1  0
 27 13  1  0
 24 19  1  0
  4 28  1  0
  5 29  1  0
  5 30  1  0
  6 31  1  0
  6 32  1  0
  7 33  1  0
  7 34  1  0
  9 35  1  0
 10 36  1  0
 14 37  1  0
 15 38  1  0
 18 39  1  0
 18 40  1  0
 20 41  1  0
 21 42  1  0
 22 43  1  0
 23 44  1  0
 24 45  1  0
 27 46  1  0
M  CHG  1  26  -1
M  END
>  <UniqueID>  (34) 
31

>  <SMILES>  (34) 
O=S(=O)(NCCCn1ccnn1)c1ccc(OCc2ccccc2)c([O-])c1

>  <Energy>  (34) 
74.75751078874752

>  <Genealogy>  (34) 
O=S(=O)(NCCCn1ccnn1)c1ccc(OCc2ccccc2)c([O-])c1 (protonated)
O=S(=O)(NCCCn1ccnn1)c1ccc(OCc2ccccc2)c([O-])c1 (3D coordinates assigned)
O=S(=O)(NCCCn1ccnn1)c1ccc(OCc2ccccc2)c([O-])c1 (optimized conformer: 74.75751078874752 kcal/mol)

>  <smiles>  (34) 
O=S(=O)(NCCCn1ccnn1)c1ccc(OCc2ccccc2)c(O)c1

>  <score_type>  (34) 
oracle

>  <origin>  (34) 
adg

>  <m_score__min__energy>  (34) 
-12.699999999999999

>  <m_primary>  (34) 
energy

$$$$
34:0
     RDKit          3D

 35 37  0  0  0  0  0  0  0  0999 V2000
   60.0225   30.0969   51.4164 H   0  0  0  0  0  0  0  0  0  0  0  0
   59.3550   30.9620   51.5430 C   0  0  0  0  0  0  0  0  0  0  0  0
   58.5880   31.0120   52.6430 C   0  0  0  0  0  0  0  0  0  0  0  0
   58.9048   31.6512   53.4802 H   0  0  0  0  0  0  0  0  0  0  0  0
   57.3290   30.2380   52.7730 C   0  0  0  0  0  0  0  0  0  0  0  0
   57.3210   28.8730   53.1040 C   0  0  0  0  0  0  0  0  0  0  0  0
   58.5040   28.1870   53.3540 O   0  0  0  0  0  0  0  0  0  0  0  0
   56.1440   28.2130   53.2140 N   0  0  0  0  0  0  0  0  0  0  0  0
   54.9560   28.8390   53.0300 C   0  0  0  0  0  0  0  0  0  0  0  0
   53.8900   28.1750   53.1540 O   0  0  0  0  0  0  0  0  0  0  0  0
   54.9190   30.1760   52.7320 N   0  0  0  0  0  0  0  0  0  0  0  0
   53.6500   30.8400   52.5500 C   0  0  0  0  0  0  0  0  0  0  0  0
   52.7490   30.9540   53.6220 C   0  0  0  0  0  0  0  0  0  0  0  0
   53.0112   30.5365   54.6053 H   0  0  0  0  0  0  0  0  0  0  0  0
   51.5210   31.5960   53.4430 C   0  0  0  0  0  0  0  0  0  0  0  0
   50.8190   31.6833   54.2853 H   0  0  0  0  0  0  0  0  0  0  0  0
   51.1830   32.1280   52.1940 C   0  0  0  0  0  0  0  0  0  0  0  0
   49.9610   32.7660   52.0190 O   0  0  0  0  0  0  0  0  0  0  0  0
   52.0750   32.0190   51.1230 C   0  0  0  0  0  0  0  0  0  0  0  0
   51.8094   32.4393   50.1418 H   0  0  0  0  0  0  0  0  0  0  0  0
   53.3050   31.3760   51.2980 C   0  0  0  0  0  0  0  0  0  0  0  0
   54.0040   31.2898   50.4530 H   0  0  0  0  0  0  0  0  0  0  0  0
   56.0890   30.8810   52.6070 C   0  0  0  0  0  0  0  0  0  0  0  0
   56.0590   32.1100   52.3160 O   0  0  0  0  0  0  0  0  0  0  0  0
   59.3560   32.0050   50.4870 C   0  0  0  0  0  0  0  0  0  0  0  0
   58.5590   31.8030   49.3460 C   0  0  0  0  0  0  0  0  0  0  0  0
   57.9611   30.8843   49.2543 H   0  0  0  0  0  0  0  0  0  0  0  0
   58.5200   32.7600   48.3270 C   0  0  0  0  0  0  0  0  0  0  0  0
   57.8990   32.5877   47.4356 H   0  0  0  0  0  0  0  0  0  0  0  0
   59.2680   33.9340   48.4390 C   0  0  0  0  0  0  0  0  0  0  0  0
   59.2280   34.8610   47.4510 F   0  0  0  0  0  0  0  0  0  0  0  0
   60.0520   34.1550   49.5730 C   0  0  0  0  0  0  0  0  0  0  0  0
   60.6373   35.0821   49.6623 H   0  0  0  0  0  0  0  0  0  0  0  0
   60.0960   33.2020   50.5960 C   0  0  0  0  0  0  0  0  0  0  0  0
   60.7103   33.3863   51.4897 H   0  0  0  0  0  0  0  0  0  0  0  0
  1  2  1  0
  2  3  2  0
  3  4  1  0
  3  5  1  0
  5  6  2  0
  6  7  1  0
  6  8  1  0
  8  9  1  0
  9 10  2  0
  9 11  1  0
 11 12  1  0
 12 13  2  0
 13 14  1  0
 13 15  1  0
 15 16  1  0
 15 17  2  0
 17 18  1  0
 17 19  1  0
 19 20  1  0
 19 21  2  0
 21 22  1  0
 11 23  1  0
 23 24  2  0
  2 25  1  0
 25 26  2  0
 26 27  1  0
 26 28  1  0
 28 29  1  0
 28 30  2  0
 30 31  1  0
 30 32  1  0
 32 33  1  0
 32 34  2  0
 34 35  1  0
 23  5  1  0
 34 25  1  0
 21 12  1  0
M  CHG  3   7  -1   8  -1  18  -1
M  END
>  <UniqueID>  (35) 
32

>  <SMILES>  (35) 
O=c1[n-]c([O-])c(/C=C/c2ccc(F)cc2)c(=O)n1-c1ccc([O-])cc1

>  <Energy>  (35) 
57.56196050375407

>  <Genealogy>  (35) 
O=c1[n-]c([O-])c(C=Cc2ccc(F)cc2)c(=O)n1-c1ccc([O-])cc1 (protonated)
O=c1[n-]c([O-])c(/C=C/c2ccc(F)cc2)c(=O)n1-c1ccc([O-])cc1 (cis-trans isomerization)
O=c1[n-]c([O-])c(/C=C/c2ccc(F)cc2)c(=O)n1-c1ccc([O-])cc1 (3D coordinates assigned)
O=c1[n-]c([O-])c(/C=C/c2ccc(F)cc2)c(=O)n1-c1ccc([O-])cc1 (optimized conformer: 57.56196050375407 kcal/mol)

>  <smiles>  (35) 
O=c1[nH]c(O)c(C=Cc2ccc(F)cc2)c(=O)n1-c1ccc(O)cc1

>  <score_type>  (35) 
oracle

>  <origin>  (35) 
adg

>  <m_score__min__energy>  (35) 
-12.31

>  <m_primary>  (35) 
energy

$$$$
35:0
     RDKit          3D

 63 65  0  0  0  0  0  0  0  0999 V2000
   60.6150   30.8720   48.3430 C   0  0  0  0  0  0  0  0  0  0  0  0
   59.7750   31.1890   47.2380 O   0  0  0  0  0  0  0  0  0  0  0  0
   58.9900   30.2580   46.5390 C   0  0  0  0  0  0  0  0  0  0  0  0
   58.8290   28.9330   46.9910 C   0  0  0  0  0  0  0  0  0  0  0  0
   58.0530   28.0200   46.2600 C   0  0  0  0  0  0  0  0  0  0  0  0
   57.9750   26.5800   46.6940 C   0  0  0  0  0  0  0  0  0  0  0  0
   56.7400   25.9460   46.1230 C   0  0  0  0  0  0  0  0  0  0  0  0
   56.8060   24.7320   45.4300 C   0  0  0  0  0  0  0  0  0  0  0  0
   55.6220   24.1240   44.9880 C   0  0  0  0  0  0  0  0  0  0  0  0
   55.6650   22.8230   44.2360 C   0  0  0  0  0  0  0  0  0  0  0  0
   54.4000   24.7650   45.2550 C   0  0  0  0  0  0  0  0  0  0  0  0
   53.3080   24.2630   44.8730 O   0  0  0  0  0  0  0  0  0  0  0  0
   54.3940   25.9410   45.9340 N   0  0  0  0  0  0  0  0  0  0  0  0
   55.5240   26.5110   46.3590 N   0  0  0  0  0  0  0  0  0  0  0  0
   57.4190   28.4390   45.0830 C   0  0  0  0  0  0  0  0  0  0  0  0
   57.5610   29.7530   44.6350 C   0  0  0  0  0  0  0  0  0  0  0  0
   58.3570   30.6690   45.3530 C   0  0  0  0  0  0  0  0  0  0  0  0
   58.5520   31.9890   44.9140 O   0  0  0  0  0  0  0  0  0  0  0  0
   57.4960   32.8630   44.5230 C   0  0  0  0  0  0  0  0  0  0  0  0
   57.0440   33.6970   45.7140 C   0  0  0  0  0  0  0  0  0  0  0  0
   58.0830   33.6440   46.7480 N   0  0  0  0  0  0  0  0  0  0  0  0
   58.8930   34.8700   46.8000 C   0  0  0  0  0  0  0  0  0  0  0  0
   60.3970   34.5790   46.5450 C   0  0  2  0  0  0  0  0  0  0  0  0
   60.5320   33.5440   45.6070 O   0  0  0  0  0  0  0  0  0  0  0  0
   61.1460   34.1880   47.8050 C   0  0  0  0  0  0  0  0  0  0  0  0
   62.4980   33.8150   47.7260 C   0  0  0  0  0  0  0  0  0  0  0  0
   63.1860   33.4060   48.8730 C   0  0  0  0  0  0  0  0  0  0  0  0
   62.5390   33.3830   50.1120 C   0  0  0  0  0  0  0  0  0  0  0  0
   61.1980   33.7720   50.2130 C   0  0  0  0  0  0  0  0  0  0  0  0
   60.5800   33.7870   51.5090 N   0  0  0  0  0  0  0  0  0  0  0  0
   58.9630   33.2560   51.8630 S   0  0  0  0  0  0  0  0  0  0  0  0
   59.0360   31.9690   53.0960 C   0  0  0  0  0  0  0  0  0  0  0  0
   58.1040   34.3940   52.3510 O   0  0  0  0  0  0  0  0  0  0  0  0
   58.3540   32.6980   50.6030 O   0  0  0  0  0  0  0  0  0  0  0  0
   60.4960   34.1380   49.0530 C   0  0  0  0  0  0  0  0  0  0  0  0
   60.0783   31.0746   49.2816 H   0  0  0  0  0  0  0  0  0  0  0  0
   60.8907   29.8080   48.3006 H   0  0  0  0  0  0  0  0  0  0  0  0
   61.5250   31.4886   48.3006 H   0  0  0  0  0  0  0  0  0  0  0  0
   59.3152   28.6118   47.9239 H   0  0  0  0  0  0  0  0  0  0  0  0
   58.8632   26.0407   46.3331 H   0  0  0  0  0  0  0  0  0  0  0  0
   57.9348   26.5321   47.7922 H   0  0  0  0  0  0  0  0  0  0  0  0
   57.7791   24.2582   45.2335 H   0  0  0  0  0  0  0  0  0  0  0  0
   55.6926   21.9872   44.9506 H   0  0  0  0  0  0  0  0  0  0  0  0
   54.7693   22.7353   43.6036 H   0  0  0  0  0  0  0  0  0  0  0  0
   56.5646   22.7946   43.6036 H   0  0  0  0  0  0  0  0  0  0  0  0
   56.8061   27.7285   44.5090 H   0  0  0  0  0  0  0  0  0  0  0  0
   57.0491   30.0760   43.7165 H   0  0  0  0  0  0  0  0  0  0  0  0
   57.8522   33.5307   43.7247 H   0  0  0  0  0  0  0  0  0  0  0  0
   56.6481   32.2649   44.1577 H   0  0  0  0  0  0  0  0  0  0  0  0
   56.8891   34.7393   45.3983 H   0  0  0  0  0  0  0  0  0  0  0  0
   56.0989   33.2994   46.1123 H   0  0  0  0  0  0  0  0  0  0  0  0
   58.7050   32.8300   46.5430 H   0  0  0  0  0  0  0  0  0  0  0  0
   58.5304   35.5691   46.0320 H   0  0  0  0  0  0  0  0  0  0  0  0
   58.7944   35.3024   47.8066 H   0  0  0  0  0  0  0  0  0  0  0  0
   60.8353   35.5145   46.1671 H   0  0  0  0  0  0  0  0  0  0  0  0
   59.8810   32.8400   45.8570 H   0  0  0  0  0  0  0  0  0  0  0  0
   63.0182   33.8447   46.7572 H   0  0  0  0  0  0  0  0  0  0  0  0
   64.2404   33.1012   48.7999 H   0  0  0  0  0  0  0  0  0  0  0  0
   63.0851   33.0584   51.0100 H   0  0  0  0  0  0  0  0  0  0  0  0
   59.0104   32.4202   54.0989 H   0  0  0  0  0  0  0  0  0  0  0  0
   58.1746   31.2957   52.9747 H   0  0  0  0  0  0  0  0  0  0  0  0
   59.9680   31.3975   52.9747 H   0  0  0  0  0  0  0  0  0  0  0  0
   59.4270   34.3883   49.1201 H   0  0  0  0  0  0  0  0  0  0  0  0
  1  2  1  0
  2  3  1  0
  3  4  2  0
  4  5  1  0
  5  6  1  0
  6  7  1  0
  7  8  1  0
  8  9  2  0
  9 10  1  0
  9 11  1  0
 11 12  2  0
 11 13  1  0
 13 14  1  0
  5 15  2  0
 15 16  1  0
 16 17  2  0
 17 18  1  0
 18 19  1  0
 19 20  1  0
 20 21  1  0
 21 22  1  0
 22 23  1  0
 23 24  1  0
 23 25  1  0
 25 26  2  0
 26 27  1  0
 27 28  2  0
 28 29  1  0
 29 30  1  0
 30 31  1  0
 31 32  1  0
 31 33  2  0
 31 34  2  0
 29 35  2  0
 17  3  1  0
 35 25  1  0
 14  7  2  0
  1 36  1  0
  1 37  1  0
  1 38  1  0
  4 39  1  0
  6 40  1  0
  6 41  1  0
  8 42  1  0
 10 43  1  0
 10 44  1  0
 10 45  1  0
 15 46  1  0
 16 47  1  0
 19 48  1  0
 19 49  1  0
 20 50  1  0
 20 51  1  0
 21 52  1  0
 22 53  1  0
 22 54  1  0
 23 55  1  6
 24 56  1  0
 26 57  1  0
 27 58  1  0
 28 59  1  0
 32 60  1  0
 32 61  1  0
 32 62  1  0
 35 63  1  0
M  CHG  2  13  -1  30  -1
M  END
>  <UniqueID>  (36) 
33

>  <SMILES>  (36) 
COc1cc(Cc2cc(C)c(=O)[n-]n2)ccc1OCCNC[C@H](O)c1cccc([N-]S(C)(=O)=O)c1

>  <Energy>  (36) 
63.212788984261614

>  <Genealogy>  (36) 
COc1cc(Cc2cc(C)c(=O)[n-]n2)ccc1OCCNCC(O)c1cccc([N-]S(C)(=O)=O)c1 (protonated)
COc1cc(Cc2cc(C)c(=O)[n-]n2)ccc1OCCNC[C@H](O)c1cccc([N-]S(C)(=O)=O)c1 (chirality)
COc1cc(Cc2cc(C)c(=O)[n-]n2)ccc1OCCNC[C@H](O)c1cccc([N-]S(C)(=O)=O)c1 (3D coordinates assigned)
COc1cc(Cc2cc(C)c(=O)[n-]n2)ccc1OCCNC[C@H](O)c1cccc([N-]S(C)(=O)=O)c1 (optimized conformer: 63.212788984261614 kcal/mol)

>  <smiles>  (36) 
COc1cc(Cc2cc(C)c(=O)[nH]n2)ccc1OCCNCC(O)c1cccc(NS(C)(=O)=O)c1

>  <score_type>  (36) 
oracle

>  <origin>  (36) 
adg

>  <m_score__min__energy>  (36) 
-13.460000000000001

>  <m_primary>  (36) 
energy

$$$$
36:0
     RDKit          3D

 69 72  0  0  1  0  0  0  0  0999 V2000
   60.8770   28.6060   44.7190 C   0  0  0  0  0  0  0  0  0  0  0  0
   60.3970   27.7290   45.5910 C   0  0  0  0  0  0  0  0  0  0  0  0
   58.9400   27.5490   45.8320 C   0  0  1  0  0  0  0  0  0  0  0  0
   58.7010   27.9770   47.2920 C   0  0  0  0  0  0  0  0  0  0  0  0
   58.6260   29.4960   47.3500 C   0  0  0  0  0  0  0  0  0  0  0  0
   59.8750   30.1270   47.7920 C   0  0  0  0  0  0  0  0  0  0  0  0
   60.4850   29.9520   49.0070 C   0  0  0  0  0  0  0  0  0  0  0  0
   61.6620   30.6110   49.2710 C   0  0  0  0  0  0  0  0  0  0  0  0
   62.2630   31.4500   48.3630 C   0  0  0  0  0  0  0  0  0  0  0  0
   61.6640   31.6350   47.1490 C   0  0  0  0  0  0  0  0  0  0  0  0
   60.4880   30.9860   46.8610 C   0  0  0  0  0  0  0  0  0  0  0  0
   58.1190   28.4840   45.0530 N   0  0  0  0  0  0  0  0  0  0  0  0
   57.8020   28.2280   43.7040 C   0  0  0  0  0  0  0  0  0  0  0  0
   58.2250   27.1880   43.0990 O   0  0  0  0  0  0  0  0  0  0  0  0
   56.9590   29.1440   42.9090 C   0  0  0  0  0  0  0  0  0  0  0  0
   57.1210   30.5190   43.3600 N   0  0  0  0  0  0  0  0  0  0  0  0
   57.8330   31.4130   42.6380 C   0  0  0  0  0  0  0  0  0  0  0  0
   57.9960   32.6980   43.0850 C   0  0  0  0  0  0  0  0  0  0  0  0
   57.3950   33.0100   44.3010 C   0  0  0  0  0  0  0  0  0  0  0  0
   57.5430   34.1910   44.7780 N   0  0  0  0  0  0  0  0  0  0  0  0
   58.7930   34.6560   45.3150 C   0  0  0  0  0  0  0  0  0  0  0  0
   59.6180   35.3210   44.6210 O   0  0  0  0  0  0  0  0  0  0  0  0
   59.0590   34.3160   46.7050 C   0  0  0  0  0  0  0  0  0  0  0  0
   58.3070   33.3760   47.3760 C   0  0  0  0  0  0  0  0  0  0  0  0
   58.5710   33.0030   48.6740 C   0  0  0  0  0  0  0  0  0  0  0  0
   59.6130   33.5580   49.3730 C   0  0  0  0  0  0  0  0  0  0  0  0
   59.9560   33.1670   50.7460 C   0  0  0  0  0  0  0  0  0  0  0  0
   59.0790   33.1410   51.7060 C   0  0  0  0  0  0  0  0  0  0  0  0
   58.1290   32.0560   51.9560 C   0  0  0  0  0  0  0  0  0  0  0  0
   56.8300   32.3080   52.3420 C   0  0  0  0  0  0  0  0  0  0  0  0
   55.9990   31.2250   52.5600 C   0  0  0  0  0  0  0  0  0  0  0  0
   56.4730   29.9410   52.3930 C   0  0  0  0  0  0  0  0  0  0  0  0
   57.7670   29.6550   52.0060 C   0  0  0  0  0  0  0  0  0  0  0  0
   58.5950   30.7450   51.7880 C   0  0  0  0  0  0  0  0  0  0  0  0
   60.3960   34.5190   48.7240 C   0  0  0  0  0  0  0  0  0  0  0  0
   60.1180   34.8810   47.4210 C   0  0  0  0  0  0  0  0  0  0  0  0
   56.6860   32.1170   45.0190 N   0  0  0  0  0  0  0  0  0  0  0  0
   56.5630   30.8720   44.5240 C   0  0  0  0  0  0  0  0  0  0  0  0
   55.9030   29.9750   45.1520 O   0  0  0  0  0  0  0  0  0  0  0  0
   61.9635   28.7017   44.5766 H   0  0  0  0  0  0  0  0  0  0  0  0
   60.1885   29.2375   44.1383 H   0  0  0  0  0  0  0  0  0  0  0  0
   61.1058   27.1091   46.1595 H   0  0  0  0  0  0  0  0  0  0  0  0
   58.6749   26.5125   45.5765 H   0  0  0  0  0  0  0  0  0  0  0  0
   57.7560   27.5458   47.6540 H   0  0  0  0  0  0  0  0  0  0  0  0
   59.5245   27.6182   47.9270 H   0  0  0  0  0  0  0  0  0  0  0  0
   58.3829   29.8713   46.3450 H   0  0  0  0  0  0  0  0  0  0  0  0
   57.8537   29.7539   48.0896 H   0  0  0  0  0  0  0  0  0  0  0  0
   60.0370   29.2907   49.7633 H   0  0  0  0  0  0  0  0  0  0  0  0
   62.1427   30.4608   50.2490 H   0  0  0  0  0  0  0  0  0  0  0  0
   63.2055   31.9613   48.6084 H   0  0  0  0  0  0  0  0  0  0  0  0
   62.1223   32.3020   46.4040 H   0  0  0  0  0  0  0  0  0  0  0  0
   60.0147   31.1413   45.8803 H   0  0  0  0  0  0  0  0  0  0  0  0
   57.7480   29.3570   45.4960 H   0  0  0  0  0  0  0  0  0  0  0  0
   57.2505   29.0750   41.8506 H   0  0  0  0  0  0  0  0  0  0  0  0
   55.9058   28.8532   43.0361 H   0  0  0  0  0  0  0  0  0  0  0  0
   58.2854   31.1062   41.6834 H   0  0  0  0  0  0  0  0  0  0  0  0
   58.5704   33.4423   42.5140 H   0  0  0  0  0  0  0  0  0  0  0  0
   57.4617   32.9049   46.8529 H   0  0  0  0  0  0  0  0  0  0  0  0
   57.9360   32.2472   49.1593 H   0  0  0  0  0  0  0  0  0  0  0  0
   60.9951   32.8851   50.9714 H   0  0  0  0  0  0  0  0  0  0  0  0
   59.0487   34.0053   52.3858 H   0  0  0  0  0  0  0  0  0  0  0  0
   56.4662   33.3379   52.4724 H   0  0  0  0  0  0  0  0  0  0  0  0
   54.9556   31.3882   52.8679 H   0  0  0  0  0  0  0  0  0  0  0  0
   55.7855   29.1023   52.5774 H   0  0  0  0  0  0  0  0  0  0  0  0
   58.1207   28.6213   51.8780 H   0  0  0  0  0  0  0  0  0  0  0  0
   59.6369   30.5780   51.4774 H   0  0  0  0  0  0  0  0  0  0  0  0
   61.2374   34.9885   49.2547 H   0  0  0  0  0  0  0  0  0  0  0  0
   60.7493   35.6372   46.9314 H   0  0  0  0  0  0  0  0  0  0  0  0
   56.2250   32.3550   45.9390 H   0  0  0  0  0  0  0  0  0  0  0  0
  1  2  2  0
  2  3  1  0
  3  4  1  0
  4  5  1  0
  5  6  1  0
  6  7  2  0
  7  8  1  0
  8  9  2  0
  9 10  1  0
 10 11  2  0
  3 12  1  0
 12 13  1  0
 13 14  2  0
 13 15  1  0
 15 16  1  0
 16 17  1  0
 17 18  2  0
 18 19  1  0
 19 20  2  0
 20 21  1  0
 21 22  2  0
 21 23  1  0
 23 24  2  0
 24 25  1  0
 25 26  2  0
 26 27  1  0
 27 28  2  0
 28 29  1  0
 29 30  2  0
 30 31  1  0
 31 32  2  0
 32 33  1  0
 33 34  2  0
 26 35  1  0
 35 36  2  0
 19 37  1  0
 37 38  1  0
 38 39  2  0
 11  6  1  0
 38 16  1  0
 36 23  1  0
 34 29  1  0
  1 40  1  0
  1 41  1  0
  2 42  1  0
  3 43  1  1
  4 44  1  0
  4 45  1  0
  5 46  1  0
  5 47  1  0
  7 48  1  0
  8 49  1  0
  9 50  1  0
 10 51  1  0
 11 52  1  0
 12 53  1  0
 15 54  1  0
 15 55  1  0
 17 56  1  0
 18 57  1  0
 24 58  1  0
 25 59  1  0
 27 60  1  0
 28 61  1  0
 30 62  1  0
 31 63  1  0
 32 64  1  0
 33 65  1  0
 34 66  1  0
 35 67  1  0
 36 68  1  0
 37 69  1  0
M  END
>  <smiles>  (37) 
C=CC(CCc1ccccc1)NC(=O)Cn1ccc(=NC(=O)c2ccc(C=Cc3ccccc3)cc2)[nH]c1=O

>  <score_type>  (37) 
oracle

>  <origin>  (37) 
adg

>  <m_score__min__energy>  (37) 
-11.01

>  <m_primary>  (37) 
energy

$$$$
37:0
     RDKit          3D

 59 62  0  0  0  0  0  0  0  0999 V2000
   67.3270   33.2510   50.2380 N   0  0  0  0  0  0  0  0  0  0  0  0
   66.8910   32.2400   50.5970 C   0  0  0  0  0  0  0  0  0  0  0  0
   66.3540   30.9760   51.0380 C   0  0  0  0  0  0  0  0  0  0  0  0
   67.2540   29.9270   51.2770 C   0  0  0  0  0  0  0  0  0  0  0  0
   66.7930   28.6760   51.6930 C   0  0  0  0  0  0  0  0  0  0  0  0
   65.4290   28.4620   51.8790 C   0  0  0  0  0  0  0  0  0  0  0  0
   64.5210   29.4980   51.6470 C   0  0  0  0  0  0  0  0  0  0  0  0
   64.9660   30.7640   51.2310 C   0  0  0  0  0  0  0  0  0  0  0  0
   63.7330   32.0190   50.9860 S   0  0  0  0  0  0  0  0  0  0  0  0
   62.3820   31.4350   50.6790 O   0  0  0  0  0  0  0  0  0  0  0  0
   63.6180   32.8180   52.2530 O   0  0  0  0  0  0  0  0  0  0  0  0
   64.1860   33.0930   49.6880 N   0  0  0  0  0  0  0  0  0  0  0  0
   63.2360   34.1980   49.5370 C   0  0  0  0  0  0  0  0  0  0  0  0
   62.0940   33.8260   48.6270 C   0  0  0  0  0  0  0  0  0  0  0  0
   62.2130   32.7430   47.7440 C   0  0  0  0  0  0  0  0  0  0  0  0
   61.1410   32.3740   46.9290 C   0  0  0  0  0  0  0  0  0  0  0  0
   59.9290   33.0870   46.9760 C   0  0  0  0  0  0  0  0  0  0  0  0
   58.7760   32.6960   46.1300 C   0  0  0  0  0  0  0  0  0  0  0  0
   58.6860   31.6160   45.2720 C   0  0  0  0  0  0  0  0  0  0  0  0
   57.4520   31.6630   44.7420 N   0  0  0  0  0  0  0  0  0  0  0  0
   56.8590   30.6930   43.8250 C   0  0  0  0  0  0  0  0  0  0  0  0
   56.3780   29.4740   44.5580 C   0  0  0  0  0  0  0  0  0  0  0  0
   55.1510   29.3440   44.8320 O   0  0  0  0  0  0  0  0  0  0  0  0
   57.3330   28.4960   45.0010 N   0  0  0  0  0  0  0  0  0  0  0  0
   56.9900   27.2960   45.7060 C   0  0  0  0  0  0  0  0  0  0  0  0
   55.7830   26.9960   45.9150 O   0  0  0  0  0  0  0  0  0  0  0  0
   58.0150   26.4570   46.1590 O   0  0  0  0  0  0  0  0  0  0  0  0
   59.3890   26.8390   46.1850 C   0  0  0  0  0  0  0  0  0  0  0  0
   59.6560   27.7610   47.3440 C   0  0  0  0  0  0  0  0  0  0  0  0
   60.4350   27.3180   48.4250 C   0  0  0  0  0  0  0  0  0  0  0  0
   60.6760   28.1610   49.5150 C   0  0  0  0  0  0  0  0  0  0  0  0
   60.1350   29.4490   49.5340 C   0  0  0  0  0  0  0  0  0  0  0  0
   59.3540   29.8970   48.4640 C   0  0  0  0  0  0  0  0  0  0  0  0
   59.1120   29.0550   47.3720 C   0  0  0  0  0  0  0  0  0  0  0  0
   56.8110   32.7010   45.2520 N   0  0  0  0  0  0  0  0  0  0  0  0
   57.5960   33.3530   46.0990 N   0  0  0  0  0  0  0  0  0  0  0  0
   59.8210   34.1840   47.8470 C   0  0  0  0  0  0  0  0  0  0  0  0
   60.8950   34.5500   48.6650 C   0  0  0  0  0  0  0  0  0  0  0  0
   68.3324   30.0911   51.1355 H   0  0  0  0  0  0  0  0  0  0  0  0
   67.5073   27.8592   51.8739 H   0  0  0  0  0  0  0  0  0  0  0  0
   65.0669   27.4770   52.2086 H   0  0  0  0  0  0  0  0  0  0  0  0
   63.4451   29.3205   51.7917 H   0  0  0  0  0  0  0  0  0  0  0  0
   62.8333   34.4605   50.5264 H   0  0  0  0  0  0  0  0  0  0  0  0
   63.7681   35.0512   49.0909 H   0  0  0  0  0  0  0  0  0  0  0  0
   63.1570   32.1806   47.6931 H   0  0  0  0  0  0  0  0  0  0  0  0
   61.2449   31.5190   46.2447 H   0  0  0  0  0  0  0  0  0  0  0  0
   59.4666   30.8691   45.0649 H   0  0  0  0  0  0  0  0  0  0  0  0
   56.0072   31.1609   43.3098 H   0  0  0  0  0  0  0  0  0  0  0  0
   57.6279   30.3830   43.1020 H   0  0  0  0  0  0  0  0  0  0  0  0
   58.3460   28.6700   44.8120 H   0  0  0  0  0  0  0  0  0  0  0  0
   60.0134   25.9391   46.2866 H   0  0  0  0  0  0  0  0  0  0  0  0
   59.6310   27.3637   45.2490 H   0  0  0  0  0  0  0  0  0  0  0  0
   60.8580   26.3026   48.4147 H   0  0  0  0  0  0  0  0  0  0  0  0
   61.2911   27.8100   50.3567 H   0  0  0  0  0  0  0  0  0  0  0  0
   60.3236   30.1115   50.3916 H   0  0  0  0  0  0  0  0  0  0  0  0
   58.9295   30.9117   48.4803 H   0  0  0  0  0  0  0  0  0  0  0  0
   58.4938   29.4083   46.5335 H   0  0  0  0  0  0  0  0  0  0  0  0
   58.8845   34.7596   47.8860 H   0  0  0  0  0  0  0  0  0  0  0  0
   60.7977   35.4114   49.3422 H   0  0  0  0  0  0  0  0  0  0  0  0
  1  2  3  0
  2  3  1  0
  3  4  2  0
  4  5  1  0
  5  6  2  0
  6  7  1  0
  7  8  2  0
  8  9  1  0
  9 10  2  0
  9 11  2  0
  9 12  1  0
 12 13  1  0
 13 14  1  0
 14 15  2  0
 15 16  1  0
 16 17  2  0
 17 18  1  0
 18 19  2  0
 19 20  1  0
 20 21  1  0
 21 22  1  0
 22 23  2  0
 22 24  1  0
 24 25  1  0
 25 26  2  0
 25 27  1  0
 27 28  1  0
 28 29  1  0
 29 30  2  0
 30 31  1  0
 31 32  2  0
 32 33  1  0
 33 34  2  0
 20 35  1  0
 35 36  2  0
 17 37  1  0
 37 38  2  0
  8  3  1  0
 38 14  1  0
 36 18  1  0
 34 29  1  0
  4 39  1  0
  5 40  1  0
  6 41  1  0
  7 42  1  0
 13 43  1  0
 13 44  1  0
 15 45  1  0
 16 46  1  0
 19 47  1  0
 21 48  1  0
 21 49  1  0
 24 50  1  0
 28 51  1  0
 28 52  1  0
 30 53  1  0
 31 54  1  0
 32 55  1  0
 33 56  1  0
 34 57  1  0
 37 58  1  0
 38 59  1  0
M  CHG  1  12  -1
M  END
>  <UniqueID>  (38) 
34

>  <SMILES>  (38) 
N#Cc1ccccc1S(=O)(=O)[N-]Cc1ccc(-c2cn(CC(=O)NC(=O)OCc3ccccc3)nn2)cc1

>  <Energy>  (38) 
96.80150850685696

>  <Genealogy>  (38) 
N#Cc1ccccc1S(=O)(=O)[N-]Cc1ccc(-c2cn(CC(=O)NC(=O)OCc3ccccc3)nn2)cc1 (protonated)
N#Cc1ccccc1S(=O)(=O)[N-]Cc1ccc(-c2cn(CC(=O)NC(=O)OCc3ccccc3)nn2)cc1 (3D coordinates assigned)
N#Cc1ccccc1S(=O)(=O)[N-]Cc1ccc(-c2cn(CC(=O)NC(=O)OCc3ccccc3)nn2)cc1 (optimized conformer: 96.80150850685696 kcal/mol)

>  <smiles>  (38) 
N#Cc1ccccc1S(=O)(=O)NCc1ccc(-c2cn(CC(=O)NC(=O)OCc3ccccc3)nn2)cc1

>  <score_type>  (38) 
oracle

>  <origin>  (38) 
adg

>  <m_score__min__energy>  (38) 
-11.710000000000001

>  <m_primary>  (38) 
energy

$$$$
38:0
     RDKit          3D

 45 47  0  0  0  0  0  0  0  0999 V2000
   66.6700   33.3140   50.5830 C   0  0  0  0  0  0  0  0  0  0  0  0
   65.4170   32.5110   50.5210 C   0  0  0  0  0  0  0  0  0  0  0  0
   65.4910   31.2520   50.5110 O   0  0  0  0  0  0  0  0  0  0  0  0
   64.1860   33.1700   50.3830 O   0  0  0  0  0  0  0  0  0  0  0  0
   63.4760   33.3360   49.1830 C   0  0  0  0  0  0  0  0  0  0  0  0
   64.1280   33.0470   47.9800 C   0  0  0  0  0  0  0  0  0  0  0  0
   63.4680   33.2110   46.7600 C   0  0  0  0  0  0  0  0  0  0  0  0
   62.1490   33.6700   46.7310 C   0  0  0  0  0  0  0  0  0  0  0  0
   61.4770   33.9650   47.9290 C   0  0  0  0  0  0  0  0  0  0  0  0
   60.0780   34.4490   47.9020 C   0  0  0  0  0  0  0  0  0  0  0  0
   59.5410   34.8550   48.9680 O   0  0  0  0  0  0  0  0  0  0  0  0
   59.2890   34.4110   46.7060 N   0  0  0  0  0  0  0  0  0  0  0  0
   58.6670   33.2440   46.1470 C   0  0  0  0  0  0  0  0  0  0  0  0
   57.6380   33.4050   45.2100 C   0  0  0  0  0  0  0  0  0  0  0  0
   57.0170   32.2870   44.6450 C   0  0  0  0  0  0  0  0  0  0  0  0
   57.4290   30.9970   44.9970 C   0  0  0  0  0  0  0  0  0  0  0  0
   56.6470   29.5980   44.2670 S   0  0  0  0  0  0  0  0  0  0  0  0
   55.2540   29.4730   44.8170 O   0  0  0  0  0  0  0  0  0  0  0  0
   56.5680   29.7490   42.7720 O   0  0  0  0  0  0  0  0  0  0  0  0
   57.5440   28.1620   44.6520 N   0  0  0  0  0  0  0  0  0  0  0  0
   57.0470   27.1400   45.2840 C   0  0  0  0  0  0  0  0  0  0  0  0
   57.6750   25.9220   45.4210 C   0  0  0  0  0  0  0  0  0  0  0  0
   56.7560   25.1780   46.1420 C   0  0  0  0  0  0  0  0  0  0  0  0
   56.9250   23.7650   46.5900 C   0  0  0  0  0  0  0  0  0  0  0  0
   55.7000   25.9200   46.4000 O   0  0  0  0  0  0  0  0  0  0  0  0
   55.8460   27.1090   45.8940 N   0  0  0  0  0  0  0  0  0  0  0  0
   58.4790   30.8310   45.9090 C   0  0  0  0  0  0  0  0  0  0  0  0
   59.0990   31.9480   46.4790 C   0  0  0  0  0  0  0  0  0  0  0  0
   62.1560   33.8220   49.1500 C   0  0  0  0  0  0  0  0  0  0  0  0
   66.9421   33.4884   51.6345 H   0  0  0  0  0  0  0  0  0  0  0  0
   67.4812   32.7671   50.0802 H   0  0  0  0  0  0  0  0  0  0  0  0
   66.5120   34.2795   50.0802 H   0  0  0  0  0  0  0  0  0  0  0  0
   65.1677   32.6881   47.9947 H   0  0  0  0  0  0  0  0  0  0  0  0
   63.9884   32.9780   45.8193 H   0  0  0  0  0  0  0  0  0  0  0  0
   61.6350   33.8009   45.7673 H   0  0  0  0  0  0  0  0  0  0  0  0
   57.3172   34.4157   44.9175 H   0  0  0  0  0  0  0  0  0  0  0  0
   56.2006   32.4222   43.9203 H   0  0  0  0  0  0  0  0  0  0  0  0
   58.6638   25.6154   45.0491 H   0  0  0  0  0  0  0  0  0  0  0  0
   56.9295   23.7270   47.6893 H   0  0  0  0  0  0  0  0  0  0  0  0
   56.0932   23.1565   46.2055 H   0  0  0  0  0  0  0  0  0  0  0  0
   57.8768   23.3698   46.2055 H   0  0  0  0  0  0  0  0  0  0  0  0
   55.1380   27.8750   45.9710 H   0  0  0  0  0  0  0  0  0  0  0  0
   58.8171   29.8194   46.1778 H   0  0  0  0  0  0  0  0  0  0  0  0
   59.9276   31.8118   47.1896 H   0  0  0  0  0  0  0  0  0  0  0  0
   61.6512   34.0924   50.0892 H   0  0  0  0  0  0  0  0  0  0  0  0
  1  2  1  0
  2  3  2  0
  2  4  1  0
  4  5  1  0
  5  6  2  0
  6  7  1  0
  7  8  2  0
  8  9  1  0
  9 10  1  0
 10 11  2  0
 10 12  1  0
 12 13  1  0
 13 14  2  0
 14 15  1  0
 15 16  2  0
 16 17  1  0
 17 18  2  0
 17 19  2  0
 17 20  1  0
 20 21  2  3
 21 22  1  0
 22 23  2  0
 23 24  1  0
 23 25  1  0
 25 26  1  0
 16 27  1  0
 27 28  2  0
  9 29  2  0
 29  5  1  0
 28 13  1  0
 26 21  1  0
  1 30  1  0
  1 31  1  0
  1 32  1  0
  6 33  1  0
  7 34  1  0
  8 35  1  0
 14 36  1  0
 15 37  1  0
 22 38  1  0
 24 39  1  0
 24 40  1  0
 24 41  1  0
 26 42  1  0
 27 43  1  0
 28 44  1  0
 29 45  1  0
M  CHG  1  12  -1
M  END
>  <UniqueID>  (39) 
35

>  <SMILES>  (39) 
CC(=O)Oc1cccc(C(=O)[N-]c2ccc(S(=O)(=O)N=c3cc(C)o[nH]3)cc2)c1

>  <Energy>  (39) 
88.18921157988156

>  <Genealogy>  (39) 
CC(=O)Oc1cccc(C(=O)[N-]c2ccc(S(=O)(=O)N=c3cc(C)o[nH]3)cc2)c1 (protonated)
CC(=O)Oc1cccc(C(=O)[N-]c2ccc(S(=O)(=O)N=c3cc(C)o[nH]3)cc2)c1 (3D coordinates assigned)
CC(=O)Oc1cccc(C(=O)[N-]c2ccc(S(=O)(=O)N=c3cc(C)o[nH]3)cc2)c1 (optimized conformer: 88.18921157988156 kcal/mol)

>  <smiles>  (39) 
CC(=O)Oc1cccc(C(=O)Nc2ccc(S(=O)(=O)N=c3cc(C)o[nH]3)cc2)c1

>  <score_type>  (39) 
oracle

>  <origin>  (39) 
adg

>  <m_score__min__energy>  (39) 
-10.76

>  <m_primary>  (39) 
energy

$$$$
39:0
     RDKit          3D

 50 52  0  0  0  0  0  0  0  0999 V2000
   56.9040   20.0220   43.0810 H   0  0  0  0  0  0  0  0  0  0  0  0
   56.5060   20.9290   43.0170 O   0  0  0  0  0  0  0  0  0  0  0  0
   56.8260   21.5950   44.2140 C   0  0  0  0  0  0  0  0  0  0  0  0
   57.6059   21.0438   44.7598 H   0  0  0  0  0  0  0  0  0  0  0  0
   57.3800   22.9970   43.8870 C   0  0  0  0  0  0  0  0  0  0  0  0
   57.8586   22.9713   42.8969 H   0  0  0  0  0  0  0  0  0  0  0  0
   58.1082   23.2727   44.6639 H   0  0  0  0  0  0  0  0  0  0  0  0
   56.2610   24.0500   43.8750 C   0  0  0  0  0  0  0  0  0  0  0  0
   55.5327   23.7799   43.0961 H   0  0  0  0  0  0  0  0  0  0  0  0
   56.7275   25.0263   43.6770 H   0  0  0  0  0  0  0  0  0  0  0  0
   55.5500   24.1500   45.1750 N   0  0  0  0  0  0  0  0  0  0  0  0
   56.1250   25.5140   46.1120 S   0  0  0  0  0  0  0  0  0  0  0  0
   55.1450   26.6500   45.9990 O   0  0  0  0  0  0  0  0  0  0  0  0
   56.2520   25.1330   47.5620 O   0  0  0  0  0  0  0  0  0  0  0  0
   57.6550   26.0530   45.4980 N   0  0  0  0  0  0  0  0  0  0  0  0
   58.5030   26.9890   46.1700 C   0  0  0  0  0  0  0  0  0  0  0  0
   58.6890   26.9110   47.4150 O   0  0  0  0  0  0  0  0  0  0  0  0
   59.1780   28.0710   45.3870 C   0  0  0  0  0  0  0  0  0  0  0  0
   59.9552   28.5381   46.0097 H   0  0  0  0  0  0  0  0  0  0  0  0
   59.6298   27.6306   44.4859 H   0  0  0  0  0  0  0  0  0  0  0  0
   58.1800   29.1180   44.9710 C   0  0  0  0  0  0  0  0  0  0  0  0
   57.0110   28.7470   44.2850 C   0  0  0  0  0  0  0  0  0  0  0  0
   56.8138   27.6859   44.0726 H   0  0  0  0  0  0  0  0  0  0  0  0
   56.0990   29.7200   43.8720 C   0  0  0  0  0  0  0  0  0  0  0  0
   55.1831   29.4231   43.3399 H   0  0  0  0  0  0  0  0  0  0  0  0
   56.3470   31.0700   44.1330 C   0  0  0  0  0  0  0  0  0  0  0  0
   55.6255   31.8312   43.8014 H   0  0  0  0  0  0  0  0  0  0  0  0
   57.5130   31.4640   44.8170 C   0  0  0  0  0  0  0  0  0  0  0  0
   57.7880   32.8980   45.0860 C   0  0  0  0  0  0  0  0  0  0  0  0
   57.5700   33.7570   44.1880 O   0  0  0  0  0  0  0  0  0  0  0  0
   58.2230   33.3520   46.3790 N   0  0  0  0  0  0  0  0  0  0  0  0
   59.4470   33.3730   46.8340 C   0  0  0  0  0  0  0  0  0  0  0  0
   59.7690   32.9610   48.1470 C   0  0  0  0  0  0  0  0  0  0  0  0
   58.9793   32.6040   48.8245 H   0  0  0  0  0  0  0  0  0  0  0  0
   61.0940   33.0100   48.5780 C   0  0  0  0  0  0  0  0  0  0  0  0
   61.3525   32.6980   49.6007 H   0  0  0  0  0  0  0  0  0  0  0  0
   62.0930   33.4560   47.7090 C   0  0  0  0  0  0  0  0  0  0  0  0
   63.7620   33.5240   48.2380 Cl  0  0  0  0  0  0  0  0  0  0  0  0
   61.7480   33.8400   46.4100 C   0  0  0  0  0  0  0  0  0  0  0  0
   62.5268   34.1873   45.7152 H   0  0  0  0  0  0  0  0  0  0  0  0
   60.4500   33.7850   46.0030 N   0  0  0  0  0  0  0  0  0  0  0  0
   60.2240   34.0830   45.0260 H   0  0  0  0  0  0  0  0  0  0  0  0
   58.4320   30.4770   45.2230 C   0  0  0  0  0  0  0  0  0  0  0  0
   59.3555   30.7729   45.7422 H   0  0  0  0  0  0  0  0  0  0  0  0
   55.6000   22.9210   45.9990 C   0  0  0  0  0  0  0  0  0  0  0  0
   54.7295   22.9063   46.6714 H   0  0  0  0  0  0  0  0  0  0  0  0
   56.5388   22.9289   46.5722 H   0  0  0  0  0  0  0  0  0  0  0  0
   55.5790   21.6580   45.1300 C   0  0  0  0  0  0  0  0  0  0  0  0
   54.6736   21.6660   44.5053 H   0  0  0  0  0  0  0  0  0  0  0  0
   55.5836   20.7779   45.7899 H   0  0  0  0  0  0  0  0  0  0  0  0
  1  2  1  0
  2  3  1  0
  3  4  1  0
  3  5  1  0
  5  6  1  0
  5  7  1  0
  5  8  1  0
  8  9  1  0
  8 10  1  0
  8 11  1  0
 11 12  1  0
 12 13  2  0
 12 14  2  0
 12 15  1  0
 15 16  1  0
 16 17  2  0
 16 18  1  0
 18 19  1  0
 18 20  1  0
 18 21  1  0
 21 22  2  0
 22 23  1  0
 22 24  1  0
 24 25  1  0
 24 26  2  0
 26 27  1  0
 26 28  1  0
 28 29  1  0
 29 30  2  0
 29 31  1  0
 31 32  2  0
 32 33  1  0
 33 34  1  0
 33 35  2  0
 35 36  1  0
 35 37  1  0
 37 38  1  0
 37 39  2  0
 39 40  1  0
 39 41  1  0
 41 42  1  0
 28 43  2  0
 43 44  1  0
 11 45  1  0
 45 46  1  0
 45 47  1  0
 45 48  1  0
 48 49  1  0
 48 50  1  0
 48  3  1  0
 43 21  1  0
 41 32  1  0
M  CHG  1  15  -1
M  END
>  <UniqueID>  (40) 
36

>  <SMILES>  (40) 
O=C(Cc1cccc(C(=O)/N=c2\ccc(Cl)c[nH]2)c1)[N-]S(=O)(=O)N1CCC(O)CC1

>  <Energy>  (40) 
67.4296866282245

>  <Genealogy>  (40) 
O=C(Cc1cccc(C(=O)N=c2ccc(Cl)c[nH]2)c1)[N-]S(=O)(=O)N1CCC(O)CC1 (protonated)
O=C(Cc1cccc(C(=O)/N=c2\ccc(Cl)c[nH]2)c1)[N-]S(=O)(=O)N1CCC(O)CC1 (cis-trans isomerization)
O=C(Cc1cccc(C(=O)/N=c2\ccc(Cl)c[nH]2)c1)[N-]S(=O)(=O)N1CCC(O)CC1 (3D coordinates assigned)
O=C(Cc1cccc(C(=O)/N=c2\ccc(Cl)c[nH]2)c1)[N-]S(=O)(=O)N1CCC(O)CC1 (nonaromatic ring conformer: 67.4296866282245 kcal/mol)

>  <smiles>  (40) 
O=C(Cc1cccc(C(=O)N=c2ccc(Cl)c[nH]2)c1)NS(=O)(=O)N1CCC(O)CC1

>  <score_type>  (40) 
oracle

>  <origin>  (40) 
adg

>  <m_score__min__energy>  (40) 
-12.050000000000001

>  <m_primary>  (40) 
energy

$$$$
40:0
     RDKit          3D

 39 41  0  0  0  0  0  0  0  0999 V2000
   57.6140   26.7530   42.4930 O   0  0  0  0  0  0  0  0  0  0  0  0
   57.9730   26.2030   43.5710 C   0  0  0  0  0  0  0  0  0  0  0  0
   58.8690   26.9590   44.5200 C   0  0  0  0  0  0  0  0  0  0  0  0
   58.0970   27.8510   45.4010 N   0  0  0  0  0  0  0  0  0  0  0  0
   57.7480   27.4120   46.7340 C   0  0  0  0  0  0  0  0  0  0  0  0
   57.9000   28.2000   47.7080 O   0  0  0  0  0  0  0  0  0  0  0  0
   57.1960   26.0610   46.9920 C   0  0  0  0  0  0  0  0  0  0  0  0
   57.9920   25.0910   47.6140 C   0  0  0  0  0  0  0  0  0  0  0  0
   57.4920   23.8530   47.8660 N   0  0  0  0  0  0  0  0  0  0  0  0
   56.2240   23.5280   47.5100 C   0  0  0  0  0  0  0  0  0  0  0  0
   55.7770   22.3770   47.7560 O   0  0  0  0  0  0  0  0  0  0  0  0
   55.4380   24.4400   46.8840 N   0  0  0  0  0  0  0  0  0  0  0  0
   55.8940   25.6900   46.6100 C   0  0  0  0  0  0  0  0  0  0  0  0
   55.1460   26.4940   45.9930 O   0  0  0  0  0  0  0  0  0  0  0  0
   57.7820   29.1860   44.9490 C   0  0  0  0  0  0  0  0  0  0  0  0
   58.8060   30.1360   44.7990 C   0  0  0  0  0  0  0  0  0  0  0  0
   58.5150   31.4260   44.3490 C   0  0  0  0  0  0  0  0  0  0  0  0
   57.1970   31.7840   44.0550 C   0  0  0  0  0  0  0  0  0  0  0  0
   56.1670   30.8540   44.2180 C   0  0  0  0  0  0  0  0  0  0  0  0
   56.4510   29.5610   44.6720 C   0  0  0  0  0  0  0  0  0  0  0  0
   55.4070   28.6630   44.8610 O   0  0  0  0  0  0  0  0  0  0  0  0
   57.5310   24.8130   43.8600 C   0  0  0  0  0  0  0  0  0  0  0  0
   58.3390   23.9660   44.6440 C   0  0  0  0  0  0  0  0  0  0  0  0
   57.9350   22.6570   44.9250 C   0  0  0  0  0  0  0  0  0  0  0  0
   56.7210   22.1770   44.4310 C   0  0  0  0  0  0  0  0  0  0  0  0
   55.9060   23.0050   43.6580 C   0  0  0  0  0  0  0  0  0  0  0  0
   56.3050   24.3150   43.3730 C   0  0  0  0  0  0  0  0  0  0  0  0
   59.4226   26.2377   45.1391 H   0  0  0  0  0  0  0  0  0  0  0  0
   59.5578   27.5761   43.9244 H   0  0  0  0  0  0  0  0  0  0  0  0
   59.0264   25.3324   47.8997 H   0  0  0  0  0  0  0  0  0  0  0  0
   59.8443   29.8621   45.0376 H   0  0  0  0  0  0  0  0  0  0  0  0
   59.3244   32.1607   44.2260 H   0  0  0  0  0  0  0  0  0  0  0  0
   56.9700   32.7984   43.6951 H   0  0  0  0  0  0  0  0  0  0  0  0
   55.1296   31.1391   43.9887 H   0  0  0  0  0  0  0  0  0  0  0  0
   59.2962   24.3376   45.0386 H   0  0  0  0  0  0  0  0  0  0  0  0
   58.5753   22.0043   45.5366 H   0  0  0  0  0  0  0  0  0  0  0  0
   56.4067   21.1461   44.6510 H   0  0  0  0  0  0  0  0  0  0  0  0
   54.9479   22.6267   43.2720 H   0  0  0  0  0  0  0  0  0  0  0  0
   55.6569   24.9622   42.7638 H   0  0  0  0  0  0  0  0  0  0  0  0
  1  2  2  0
  2  3  1  0
  3  4  1  0
  4  5  1  0
  5  6  2  0
  5  7  1  0
  7  8  2  0
  8  9  1  0
  9 10  1  0
 10 11  2  0
 10 12  1  0
 12 13  1  0
 13 14  2  0
  4 15  1  0
 15 16  2  0
 16 17  1  0
 17 18  2  0
 18 19  1  0
 19 20  2  0
 20 21  1  0
  2 22  1  0
 22 23  2  0
 23 24  1  0
 24 25  2  0
 25 26  1  0
 26 27  2  0
 13  7  1  0
 20 15  1  0
 27 22  1  0
  3 28  1  0
  3 29  1  0
  8 30  1  0
 16 31  1  0
 17 32  1  0
 18 33  1  0
 19 34  1  0
 23 35  1  0
 24 36  1  0
 25 37  1  0
 26 38  1  0
 27 39  1  0
M  CHG  3   9  -1  12  -1  21  -1
M  END
>  <UniqueID>  (41) 
37

>  <SMILES>  (41) 
O=C(CN(C(=O)c1c[n-]c(=O)[n-]c1=O)c1ccccc1[O-])c1ccccc1

>  <Energy>  (41) 
56.80906322467151

>  <Genealogy>  (41) 
O=C(CN(C(=O)c1c[n-]c(=O)[n-]c1=O)c1ccccc1[O-])c1ccccc1 (protonated)
O=C(CN(C(=O)c1c[n-]c(=O)[n-]c1=O)c1ccccc1[O-])c1ccccc1 (3D coordinates assigned)
O=C(CN(C(=O)c1c[n-]c(=O)[n-]c1=O)c1ccccc1[O-])c1ccccc1 (optimized conformer: 56.80906322467151 kcal/mol)

>  <smiles>  (41) 
O=C(CN(C(=O)c1c[nH]c(=O)[nH]c1=O)c1ccccc1O)c1ccccc1

>  <score_type>  (41) 
oracle

>  <origin>  (41) 
adg

>  <m_score__min__energy>  (41) 
-14.69

>  <m_primary>  (41) 
energy

$$$$
41:0
     RDKit          3D

 56 58  0  0  0  0  0  0  0  0999 V2000
   58.8090   22.8960   45.1970 C   0  0  0  0  0  0  0  0  0  0  0  0
   58.5670   24.3500   45.6000 C   0  0  0  0  0  0  0  0  0  0  0  0
   57.1470   24.7140   45.4490 N   0  0  0  0  0  0  0  0  0  0  0  0
   56.1890   23.7020   44.9830 C   0  0  0  0  0  0  0  0  0  0  0  0
   56.0920   23.7120   43.4610 C   0  0  0  0  0  0  0  0  0  0  0  0
   56.6630   26.0050   45.8760 C   0  0  0  0  0  0  0  0  0  0  0  0
   55.5140   26.1010   46.3900 O   0  0  0  0  0  0  0  0  0  0  0  0
   57.4830   27.2260   45.7370 C   0  0  0  0  0  0  0  0  0  0  0  0
   58.8610   27.1620   45.9970 C   0  0  0  0  0  0  0  0  0  0  0  0
   59.6520   28.3070   45.8870 C   0  0  0  0  0  0  0  0  0  0  0  0
   59.0740   29.5280   45.5400 C   0  0  0  0  0  0  0  0  0  0  0  0
   57.6930   29.6190   45.3140 C   0  0  0  0  0  0  0  0  0  0  0  0
   57.0970   30.8800   44.9810 N   0  0  0  0  0  0  0  0  0  0  0  0
   57.7820   32.1180   45.1840 C   0  0  0  0  0  0  0  0  0  0  0  0
   58.1680   32.8690   46.2830 C   0  0  0  0  0  0  0  0  0  0  0  0
   58.0310   32.7100   47.7000 N   0  0  0  0  0  0  0  0  0  0  0  0
   58.9470   31.9510   48.5020 C   0  0  0  0  0  0  0  0  0  0  0  0
   58.7890   30.5610   48.6260 C   0  0  0  0  0  0  0  0  0  0  0  0
   59.7240   29.8040   49.3280 C   0  0  0  0  0  0  0  0  0  0  0  0
   60.8390   30.4180   49.9000 C   0  0  0  0  0  0  0  0  0  0  0  0
   61.0250   31.8060   49.7780 C   0  0  0  0  0  0  0  0  0  0  0  0
   62.1680   32.4670   50.3370 N   0  0  0  0  0  0  0  0  0  0  0  0
   63.1690   33.6130   49.5060 S   0  0  0  0  0  0  0  0  0  0  0  0
   64.8670   33.1070   49.6500 C   0  0  0  0  0  0  0  0  0  0  0  0
   63.0130   34.9730   50.1270 O   0  0  0  0  0  0  0  0  0  0  0  0
   62.7910   33.6650   48.0530 O   0  0  0  0  0  0  0  0  0  0  0  0
   60.0710   32.5750   49.0870 C   0  0  0  0  0  0  0  0  0  0  0  0
   60.2580   33.9580   49.0060 O   0  0  0  0  0  0  0  0  0  0  0  0
   58.7340   33.8080   45.4390 C   0  0  0  0  0  0  0  0  0  0  0  0
   59.3700   34.8830   45.5950 O   0  0  0  0  0  0  0  0  0  0  0  0
   58.3060   33.0840   44.3450 C   0  0  0  0  0  0  0  0  0  0  0  0
   58.3800   33.2310   43.0970 O   0  0  0  0  0  0  0  0  0  0  0  0
   56.8980   28.4640   45.4080 C   0  0  0  0  0  0  0  0  0  0  0  0
   55.5220   28.5610   45.2120 O   0  0  0  0  0  0  0  0  0  0  0  0
   58.9120   22.2773   46.1007 H   0  0  0  0  0  0  0  0  0  0  0  0
   57.9587   22.5346   44.6001 H   0  0  0  0  0  0  0  0  0  0  0  0
   59.7306   22.8295   44.6001 H   0  0  0  0  0  0  0  0  0  0  0  0
   58.8626   24.4853   46.6509 H   0  0  0  0  0  0  0  0  0  0  0  0
   59.1653   24.9984   44.9430 H   0  0  0  0  0  0  0  0  0  0  0  0
   56.5223   22.7084   45.3171 H   0  0  0  0  0  0  0  0  0  0  0  0
   55.1986   23.9331   45.4020 H   0  0  0  0  0  0  0  0  0  0  0  0
   55.0392   23.8205   43.1614 H   0  0  0  0  0  0  0  0  0  0  0  0
   56.6755   24.5547   43.0619 H   0  0  0  0  0  0  0  0  0  0  0  0
   56.4913   22.7679   43.0619 H   0  0  0  0  0  0  0  0  0  0  0  0
   59.3195   26.2056   46.2887 H   0  0  0  0  0  0  0  0  0  0  0  0
   60.7342   28.2461   46.0745 H   0  0  0  0  0  0  0  0  0  0  0  0
   59.7046   30.4241   45.4431 H   0  0  0  0  0  0  0  0  0  0  0  0
   56.1230   30.9030   44.6050 H   0  0  0  0  0  0  0  0  0  0  0  0
   57.2290   33.1790   48.1730 H   0  0  0  0  0  0  0  0  0  0  0  0
   57.9209   30.0667   48.1655 H   0  0  0  0  0  0  0  0  0  0  0  0
   59.5830   28.7180   49.4319 H   0  0  0  0  0  0  0  0  0  0  0  0
   61.5757   29.8131   50.4489 H   0  0  0  0  0  0  0  0  0  0  0  0
   65.1367   33.0266   50.7134 H   0  0  0  0  0  0  0  0  0  0  0  0
   65.0010   32.1299   49.1629 H   0  0  0  0  0  0  0  0  0  0  0  0
   65.5140   33.8514   49.1629 H   0  0  0  0  0  0  0  0  0  0  0  0
   61.1330   34.4090   49.2380 H   0  0  0  0  0  0  0  0  0  0  0  0
  1  2  1  0
  2  3  1  0
  3  4  1  0
  4  5  1  0
  3  6  1  0
  6  7  2  0
  6  8  1  0
  8  9  2  0
  9 10  1  0
 10 11  2  0
 11 12  1  0
 12 13  1  0
 13 14  1  0
 14 15  2  0
 15 16  1  0
 16 17  1  0
 17 18  2  0
 18 19  1  0
 19 20  2  0
 20 21  1  0
 21 22  1  0
 22 23  1  0
 23 24  1  0
 23 25  2  0
 23 26  2  0
 21 27  2  0
 27 28  1  0
 15 29  1  0
 29 30  2  0
 29 31  1  0
 31 32  2  0
 12 33  2  0
 33 34  1  0
 33  8  1  0
 31 14  1  0
 27 17  1  0
  1 35  1  0
  1 36  1  0
  1 37  1  0
  2 38  1  0
  2 39  1  0
  4 40  1  0
  4 41  1  0
  5 42  1  0
  5 43  1  0
  5 44  1  0
  9 45  1  0
 10 46  1  0
 11 47  1  0
 13 48  1  0
 16 49  1  0
 18 50  1  0
 19 51  1  0
 20 52  1  0
 24 53  1  0
 24 54  1  0
 24 55  1  0
 28 56  1  0
M  CHG  2  22  -1  34  -1
M  END
>  <UniqueID>  (42) 
38

>  <SMILES>  (42) 
CCN(CC)C(=O)c1cccc(Nc2c(Nc3cccc([N-]S(C)(=O)=O)c3O)c(=O)c2=O)c1[O-]

>  <Energy>  (42) 
56.042299053894325

>  <Genealogy>  (42) 
CCN(CC)C(=O)c1cccc(Nc2c(Nc3cccc([N-]S(C)(=O)=O)c3O)c(=O)c2=O)c1[O-] (protonated)
CCN(CC)C(=O)c1cccc(Nc2c(Nc3cccc([N-]S(C)(=O)=O)c3O)c(=O)c2=O)c1[O-] (3D coordinates assigned)
CCN(CC)C(=O)c1cccc(Nc2c(Nc3cccc([N-]S(C)(=O)=O)c3O)c(=O)c2=O)c1[O-] (optimized conformer: 56.042299053894325 kcal/mol)

>  <smiles>  (42) 
CCN(CC)C(=O)c1cccc(Nc2c(Nc3cccc(NS(C)(=O)=O)c3O)c(=O)c2=O)c1O

>  <score_type>  (42) 
oracle

>  <origin>  (42) 
adg

>  <m_score__min__energy>  (42) 
-13.73

>  <m_primary>  (42) 
energy

$$$$
42:0
     RDKit          3D

 32 33  0  0  1  0  0  0  0  0999 V2000
   57.4440   32.0350   44.3510 C   0  0  0  0  0  0  0  0  0  0  0  0
   57.3880   31.1170   43.3920 C   0  0  0  0  0  0  0  0  0  0  0  0
   56.3370   30.0440   43.4350 C   0  0  0  0  0  0  0  0  0  0  0  0
   56.1880   25.4940   46.4030 N   0  0  0  0  0  0  0  0  0  0  0  0
   56.7380   26.6270   46.2310 C   0  0  0  0  0  0  0  0  0  0  0  0
   57.9400   29.0360   45.8800 N   0  0  0  0  0  0  0  0  0  0  0  0
   58.6470   28.0830   46.5170 C   0  0  0  0  0  0  0  0  0  0  0  0
   58.0320   26.8630   46.6930 C   0  0  0  0  0  0  0  0  0  0  0  0
   56.6800   28.8260   45.4250 C   0  0  0  0  0  0  0  0  0  0  0  0
   56.1040   29.7950   44.8380 N   0  0  0  0  0  0  0  0  0  0  0  0
   56.5690   24.3410   45.6580 C   0  0  0  0  0  0  0  0  0  0  0  0
   57.6290   23.6050   46.1510 C   0  0  0  0  0  0  0  0  0  0  0  0
   58.1010   22.4700   45.5340 C   0  0  0  0  0  0  0  0  0  0  0  0
   57.4630   22.0730   44.3660 C   0  0  0  0  0  0  0  0  0  0  0  0
   56.4000   22.8110   43.8710 C   0  0  0  0  0  0  0  0  0  0  0  0
   55.7950   22.3700   42.6970 O   0  0  0  0  0  0  0  0  0  0  0  0
   55.9320   23.9500   44.4980 C   0  0  0  0  0  0  0  0  0  0  0  0
   56.1020   27.6250   45.6090 N   0  0  0  0  0  0  0  0  0  0  0  0
   58.2144   32.8194   44.3172 H   0  0  0  0  0  0  0  0  0  0  0  0
   56.7200   32.0105   45.1788 H   0  0  0  0  0  0  0  0  0  0  0  0
   58.1126   31.1426   42.5648 H   0  0  0  0  0  0  0  0  0  0  0  0
   55.4139   30.3891   42.9464 H   0  0  0  0  0  0  0  0  0  0  0  0
   56.6571   29.1349   42.9048 H   0  0  0  0  0  0  0  0  0  0  0  0
   58.3960   29.9600   45.7440 H   0  0  0  0  0  0  0  0  0  0  0  0
   59.6684   28.2702   46.8800 H   0  0  0  0  0  0  0  0  0  0  0  0
   58.5739   26.0571   47.2096 H   0  0  0  0  0  0  0  0  0  0  0  0
   58.1170   23.9414   47.0777 H   0  0  0  0  0  0  0  0  0  0  0  0
   58.9470   21.9014   45.9476 H   0  0  0  0  0  0  0  0  0  0  0  0
   57.8019   21.1721   43.8336 H   0  0  0  0  0  0  0  0  0  0  0  0
   55.9430   22.8120   41.7980 H   0  0  0  0  0  0  0  0  0  0  0  0
   55.0860   24.5218   44.0890 H   0  0  0  0  0  0  0  0  0  0  0  0
   55.1320   27.4740   45.2550 H   0  0  0  0  0  0  0  0  0  0  0  0
  1  2  2  0
  2  3  1  0
  3  4  1  0
  4  5  2  0
  5  6  1  0
  6  7  1  0
  7  8  2  0
  8  9  1  0
  9 10  2  0
 10 11  1  0
 11 12  2  0
 12 13  1  0
 13 14  2  0
 14 15  1  0
 15 16  1  0
 15 17  2  0
  9 18  1  0
 18  5  1  0
 17 11  1  0
  1 19  1  0
  1 20  1  0
  2 21  1  0
  3 22  1  0
  3 23  1  0
  6 24  1  0
  7 25  1  0
  8 26  1  0
 12 27  1  0
 13 28  1  0
 14 29  1  0
 16 30  1  0
 17 31  1  0
 18 32  1  0
M  END
>  <smiles>  (43) 
C=CCN=c1[nH]ccc(=Nc2cccc(O)c2)[nH]1

>  <score_type>  (43) 
oracle

>  <origin>  (43) 
adg

>  <m_score__min__energy>  (43) 
-6.8700000000000001

>  <m_primary>  (43) 
energy

$$$$
43:0
     RDKit          3D

 52 55  0  0  0  0  0  0  0  0999 V2000
   62.1060   33.9210   53.3850 O   0  0  0  0  0  0  0  0  0  0  0  0
   61.9410   33.4890   52.2180 C   0  0  0  0  0  0  0  0  0  0  0  0
   62.9910   33.6760   51.2620 N   0  0  0  0  0  0  0  0  0  0  0  0
   62.9180   34.5410   50.0910 C   0  0  0  0  0  0  0  0  0  0  0  0
   63.1160   33.7190   48.8620 C   0  0  0  0  0  0  0  0  0  0  0  0
   63.3110   32.3530   48.8240 C   0  0  0  0  0  0  0  0  0  0  0  0
   63.4770   32.0400   47.4910 C   0  0  0  0  0  0  0  0  0  0  0  0
   63.3810   33.2330   46.8050 C   0  0  0  0  0  0  0  0  0  0  0  0
   63.1670   34.2190   47.6490 O   0  0  0  0  0  0  0  0  0  0  0  0
   60.6500   32.8680   51.8580 C   0  0  0  0  0  0  0  0  0  0  0  0
   59.4470   33.5840   51.9700 C   0  0  0  0  0  0  0  0  0  0  0  0
   58.2310   32.9670   51.6570 C   0  0  0  0  0  0  0  0  0  0  0  0
   58.2100   31.6420   51.2170 C   0  0  0  0  0  0  0  0  0  0  0  0
   59.4040   30.9290   51.0570 C   0  0  0  0  0  0  0  0  0  0  0  0
   59.3430   29.5610   50.6280 N   0  0  0  0  0  0  0  0  0  0  0  0
   59.6860   29.0770   49.3210 C   0  0  0  0  0  0  0  0  0  0  0  0
   60.2180   27.9380   49.1910 O   0  0  0  0  0  0  0  0  0  0  0  0
   59.4670   29.9290   48.1280 C   0  0  0  0  0  0  0  0  0  0  0  0
   60.2050   31.1140   47.9410 C   0  0  0  0  0  0  0  0  0  0  0  0
   59.9990   31.9060   46.8050 C   0  0  0  0  0  0  0  0  0  0  0  0
   59.0570   31.5290   45.8450 C   0  0  0  0  0  0  0  0  0  0  0  0
   58.3070   30.3570   46.0230 C   0  0  0  0  0  0  0  0  0  0  0  0
   57.1230   29.8470   44.8260 S   0  0  0  0  0  0  0  0  0  0  0  0
   56.2410   31.0150   44.5040 O   0  0  0  0  0  0  0  0  0  0  0  0
   57.7900   29.3760   43.5660 O   0  0  0  0  0  0  0  0  0  0  0  0
   56.1570   28.5700   45.4940 N   0  0  0  0  0  0  0  0  0  0  0  0
   56.6320   27.2260   45.6530 C   0  0  0  0  0  0  0  0  0  0  0  0
   58.0190   26.9950   45.6090 C   0  0  0  0  0  0  0  0  0  0  0  0
   58.5220   25.6970   45.7170 C   0  0  0  0  0  0  0  0  0  0  0  0
   57.6420   24.6200   45.8860 C   0  0  0  0  0  0  0  0  0  0  0  0
   56.2600   24.8440   45.9690 C   0  0  0  0  0  0  0  0  0  0  0  0
   55.7500   26.1420   45.8580 C   0  0  0  0  0  0  0  0  0  0  0  0
   54.3760   26.3400   45.9760 O   0  0  0  0  0  0  0  0  0  0  0  0
   58.5110   29.5650   47.1620 C   0  0  0  0  0  0  0  0  0  0  0  0
   60.6250   31.5450   51.3870 C   0  0  0  0  0  0  0  0  0  0  0  0
   61.9321   35.0274   50.0536 H   0  0  0  0  0  0  0  0  0  0  0  0
   63.7008   35.3115   50.1508 H   0  0  0  0  0  0  0  0  0  0  0  0
   63.3300   31.6596   49.6777 H   0  0  0  0  0  0  0  0  0  0  0  0
   63.6506   31.0420   47.0621 H   0  0  0  0  0  0  0  0  0  0  0  0
   63.4702   33.3434   45.7142 H   0  0  0  0  0  0  0  0  0  0  0  0
   59.4609   34.6318   52.3044 H   0  0  0  0  0  0  0  0  0  0  0  0
   57.2895   33.5269   51.7577 H   0  0  0  0  0  0  0  0  0  0  0  0
   57.2489   31.1553   50.9946 H   0  0  0  0  0  0  0  0  0  0  0  0
   60.9481   31.4192   48.6924 H   0  0  0  0  0  0  0  0  0  0  0  0
   60.5814   32.8290   46.6679 H   0  0  0  0  0  0  0  0  0  0  0  0
   58.9035   32.1504   44.9504 H   0  0  0  0  0  0  0  0  0  0  0  0
   58.7110   27.8416   45.4889 H   0  0  0  0  0  0  0  0  0  0  0  0
   59.6067   25.5204   45.6695 H   0  0  0  0  0  0  0  0  0  0  0  0
   58.0363   23.5953   45.9538 H   0  0  0  0  0  0  0  0  0  0  0  0
   55.5752   23.9968   46.1218 H   0  0  0  0  0  0  0  0  0  0  0  0
   57.9174   28.6495   47.3017 H   0  0  0  0  0  0  0  0  0  0  0  0
   61.5663   30.9869   51.2754 H   0  0  0  0  0  0  0  0  0  0  0  0
  1  2  2  0
  2  3  1  0
  3  4  1  0
  4  5  1  0
  5  6  2  0
  6  7  1  0
  7  8  2  0
  8  9  1  0
  2 10  1  0
 10 11  2  0
 11 12  1  0
 12 13  2  0
 13 14  1  0
 14 15  1  0
 15 16  1  0
 16 17  2  0
 16 18  1  0
 18 19  2  0
 19 20  1  0
 20 21  2  0
 21 22  1  0
 22 23  1  0
 23 24  2  0
 23 25  2  0
 23 26  1  0
 26 27  1  0
 27 28  2  0
 28 29  1  0
 29 30  2  0
 30 31  1  0
 31 32  2  0
 32 33  1  0
 22 34  2  0
 14 35  2  0
  9  5  1  0
 35 10  1  0
 34 18  1  0
 32 27  1  0
  4 36  1  0
  4 37  1  0
  6 38  1  0
  7 39  1  0
  8 40  1  0
 11 41  1  0
 12 42  1  0
 13 43  1  0
 19 44  1  0
 20 45  1  0
 21 46  1  0
 28 47  1  0
 29 48  1  0
 30 49  1  0
 31 50  1  0
 34 51  1  0
 35 52  1  0
M  CHG  4   3  -1  15  -1  26  -1  33  -1
M  END
>  <UniqueID>  (44) 
39

>  <SMILES>  (44) 
O=C([N-]Cc1ccco1)c1cccc([N-]C(=O)c2cccc(S(=O)(=O)[N-]c3ccccc3[O-])c2)c1

>  <Energy>  (44) 
97.6946611091862

>  <Genealogy>  (44) 
O=C([N-]Cc1ccco1)c1cccc([N-]C(=O)c2cccc(S(=O)(=O)[N-]c3ccccc3[O-])c2)c1 (protonated)
O=C([N-]Cc1ccco1)c1cccc([N-]C(=O)c2cccc(S(=O)(=O)[N-]c3ccccc3[O-])c2)c1 (3D coordinates assigned)
O=C([N-]Cc1ccco1)c1cccc([N-]C(=O)c2cccc(S(=O)(=O)[N-]c3ccccc3[O-])c2)c1 (optimized conformer: 97.6946611091862 kcal/mol)

>  <smiles>  (44) 
O=C(NCc1ccco1)c1cccc(NC(=O)c2cccc(S(=O)(=O)Nc3ccccc3O)c2)c1

>  <score_type>  (44) 
oracle

>  <origin>  (44) 
adg

>  <m_score__min__energy>  (44) 
-18.010000000000002

>  <m_primary>  (44) 
energy

$$$$
44:0
     RDKit          3D

 33 35  0  0  0  0  0  0  0  0999 V2000
   64.1312   33.4263   48.7235 H   0  0  0  0  0  0  0  0  0  0  0  0
   63.4990   33.3450   47.8270 C   0  0  0  0  0  0  0  0  0  0  0  0
   64.0340   33.1110   46.7120 O   0  0  0  0  0  0  0  0  0  0  0  0
   62.0390   33.5120   47.9520 C   0  0  0  0  0  0  0  0  0  0  0  0
   61.4660   34.0230   49.1260 C   0  0  0  0  0  0  0  0  0  0  0  0
   62.1096   34.3094   49.9709 H   0  0  0  0  0  0  0  0  0  0  0  0
   60.0810   34.1690   49.2250 C   0  0  0  0  0  0  0  0  0  0  0  0
   59.6378   34.5737   50.1469 H   0  0  0  0  0  0  0  0  0  0  0  0
   59.2560   33.8040   48.1600 C   0  0  0  0  0  0  0  0  0  0  0  0
   58.1660   33.9215   48.2499 H   0  0  0  0  0  0  0  0  0  0  0  0
   59.8070   33.2860   46.9700 C   0  0  0  0  0  0  0  0  0  0  0  0
   58.9530   32.8680   45.8250 C   0  0  0  0  0  0  0  0  0  0  0  0
   58.7680   31.5510   45.5280 N   0  0  0  0  0  0  0  0  0  0  0  0
   57.9330   31.3760   44.4830 C   0  0  0  0  0  0  0  0  0  0  0  0
   57.5810   30.2180   44.0070 N   0  0  0  0  0  0  0  0  0  0  0  0
   56.2970   29.5830   44.1320 C   0  0  0  0  0  0  0  0  0  0  0  0
   55.4530   29.7380   43.2120 O   0  0  0  0  0  0  0  0  0  0  0  0
   55.9640   28.7370   45.2420 N   0  0  0  0  0  0  0  0  0  0  0  0
   56.5720   27.6530   45.6410 C   0  0  0  0  0  0  0  0  0  0  0  0
   57.9330   27.6720   45.6890 N   0  0  0  0  0  0  0  0  0  0  0  0
   58.6660   26.6140   46.1230 C   0  0  0  0  0  0  0  0  0  0  0  0
   59.7638   26.6786   46.1468 H   0  0  0  0  0  0  0  0  0  0  0  0
   58.0280   25.4470   46.5380 C   0  0  0  0  0  0  0  0  0  0  0  0
   58.6152   24.5923   46.9048 H   0  0  0  0  0  0  0  0  0  0  0  0
   56.6370   25.3750   46.4830 C   0  0  0  0  0  0  0  0  0  0  0  0
   56.1224   24.4565   46.8016 H   0  0  0  0  0  0  0  0  0  0  0  0
   55.8940   26.4670   46.0240 C   0  0  0  0  0  0  0  0  0  0  0  0
   54.5120   26.3390   45.9360 O   0  0  0  0  0  0  0  0  0  0  0  0
   57.3960   32.8350   43.8610 S   0  0  0  0  0  0  0  0  0  0  0  0
   58.2580   33.7470   44.9840 C   0  0  0  0  0  0  0  0  0  0  0  0
   58.2729   34.8451   45.0466 H   0  0  0  0  0  0  0  0  0  0  0  0
   61.2070   33.1520   46.8810 C   0  0  0  0  0  0  0  0  0  0  0  0
   61.6550   32.7587   45.9566 H   0  0  0  0  0  0  0  0  0  0  0  0
  1  2  1  0
  2  3  2  0
  2  4  1  0
  4  5  2  0
  5  6  1  0
  5  7  1  0
  7  8  1  0
  7  9  2  0
  9 10  1  0
  9 11  1  0
 11 12  1  0
 12 13  1  0
 13 14  1  0
 14 15  2  0
 15 16  1  0
 16 17  2  0
 16 18  1  0
 18 19  2  3
 19 20  1  0
 20 21  1  0
 21 22  1  0
 21 23  2  0
 23 24  1  0
 23 25  1  0
 25 26  1  0
 25 27  2  0
 27 28  1  0
 14 29  1  0
 29 30  1  0
 30 31  1  0
 11 32  2  0
 32 33  1  0
 32  4  1  0
 30 12  2  0
 27 19  1  0
M  CHG  3  13  -1  20  -1  28  -1
M  END
>  <UniqueID>  (45) 
40

>  <SMILES>  (45) 
O=Cc1cccc(-c2cs/c(=N/C(=O)N=c3[n-]cccc3[O-])[n-]2)c1

>  <Energy>  (45) 
81.80869336237453

>  <Genealogy>  (45) 
O=Cc1cccc(-c2csc(=NC(=O)N=c3[n-]cccc3[O-])[n-]2)c1 (protonated)
O=Cc1cccc(-c2cs/c(=N/C(=O)N=c3[n-]cccc3[O-])[n-]2)c1 (cis-trans isomerization)
O=Cc1cccc(-c2cs/c(=N/C(=O)N=c3[n-]cccc3[O-])[n-]2)c1 (3D coordinates assigned)
O=Cc1cccc(-c2cs/c(=N/C(=O)N=c3[n-]cccc3[O-])[n-]2)c1 (optimized conformer: 81.80869336237453 kcal/mol)

>  <smiles>  (45) 
O=Cc1cccc(-c2csc(=NC(=O)N=c3[nH]cccc3O)[nH]2)c1

>  <score_type>  (45) 
oracle

>  <origin>  (45) 
adg

>  <m_score__min__energy>  (45) 
-15.07

>  <m_primary>  (45) 
energy

$$$$
45:0
     RDKit          3D

 42 44  0  0  0  0  0  0  0  0999 V2000
   59.6451   26.5609   44.3648 H   0  0  0  0  0  0  0  0  0  0  0  0
   59.3570   27.5400   44.7750 C   0  0  0  0  0  0  0  0  0  0  0  0
   60.1490   28.1460   45.7540 C   0  0  0  0  0  0  0  0  0  0  0  0
   61.0617   27.6436   46.1070 H   0  0  0  0  0  0  0  0  0  0  0  0
   59.7860   29.3950   46.2910 C   0  0  0  0  0  0  0  0  0  0  0  0
   60.6390   30.0510   47.3100 C   0  0  0  0  0  0  0  0  0  0  0  0
   60.4350   29.8220   48.5340 O   0  0  0  0  0  0  0  0  0  0  0  0
   61.6920   30.9390   46.8890 N   0  0  0  0  0  0  0  0  0  0  0  0
   62.3970   31.7500   47.6240 C   0  0  0  0  0  0  0  0  0  0  0  0
   63.3740   33.1120   47.0100 S   0  0  0  0  0  0  0  0  0  0  0  0
   64.2560   33.1310   48.6110 C   0  0  0  0  0  0  0  0  0  0  0  0
   64.5008   34.1678   48.8849 H   0  0  0  0  0  0  0  0  0  0  0  0
   65.1864   32.5498   48.5297 H   0  0  0  0  0  0  0  0  0  0  0  0
   63.3540   32.5160   49.6840 C   0  0  0  0  0  0  0  0  0  0  0  0
   62.7672   33.3045   50.1778 H   0  0  0  0  0  0  0  0  0  0  0  0
   63.9568   32.0051   50.4492 H   0  0  0  0  0  0  0  0  0  0  0  0
   62.4660   31.5780   49.0250 N   0  0  0  0  0  0  0  0  0  0  0  0
   61.8480   30.9160   49.5480 H   0  0  0  0  0  0  0  0  0  0  0  0
   58.6060   30.0170   45.8370 C   0  0  0  0  0  0  0  0  0  0  0  0
   58.3025   30.9851   46.2619 H   0  0  0  0  0  0  0  0  0  0  0  0
   57.8150   29.4140   44.8490 C   0  0  0  0  0  0  0  0  0  0  0  0
   56.3530   30.2270   44.2920 S   0  0  0  0  0  0  0  0  0  0  0  0
   55.1580   29.5200   44.8680 O   0  0  0  0  0  0  0  0  0  0  0  0
   56.2670   30.1700   42.7920 O   0  0  0  0  0  0  0  0  0  0  0  0
   56.3020   31.8760   44.8280 N   0  0  0  0  0  0  0  0  0  0  0  0
   57.3880   32.6140   45.4080 C   0  0  0  0  0  0  0  0  0  0  0  0
   58.4270   33.1580   44.6330 C   0  0  0  0  0  0  0  0  0  0  0  0
   58.4196   33.0313   43.5403 H   0  0  0  0  0  0  0  0  0  0  0  0
   59.4720   33.8610   45.2470 C   0  0  0  0  0  0  0  0  0  0  0  0
   60.2759   34.2932   44.6331 H   0  0  0  0  0  0  0  0  0  0  0  0
   59.4980   34.0170   46.6470 C   0  0  0  0  0  0  0  0  0  0  0  0
   60.5350   34.6890   47.3120 O   0  0  0  0  0  0  0  0  0  0  0  0
   60.8080   34.5730   48.7060 C   0  0  0  0  0  0  0  0  0  0  0  0
   59.9446   34.9398   49.2805 H   0  0  0  0  0  0  0  0  0  0  0  0
   60.9938   33.5182   48.9567 H   0  0  0  0  0  0  0  0  0  0  0  0
   61.6963   35.1714   48.9567 H   0  0  0  0  0  0  0  0  0  0  0  0
   58.4590   33.4750   47.4120 C   0  0  0  0  0  0  0  0  0  0  0  0
   58.4655   33.5951   48.5054 H   0  0  0  0  0  0  0  0  0  0  0  0
   57.4130   32.7820   46.7960 C   0  0  0  0  0  0  0  0  0  0  0  0
   56.6010   32.3644   47.4095 H   0  0  0  0  0  0  0  0  0  0  0  0
   58.2000   28.1750   44.3160 C   0  0  0  0  0  0  0  0  0  0  0  0
   57.5888   27.7014   43.5337 H   0  0  0  0  0  0  0  0  0  0  0  0
  1  2  1  0
  2  3  2  0
  3  4  1  0
  3  5  1  0
  5  6  1  0
  6  7  2  0
  6  8  1  0
  8  9  2  0
  9 10  1  0
 10 11  1  0
 11 12  1  0
 11 13  1  0
 11 14  1  0
 14 15  1  0
 14 16  1  0
 14 17  1  0
 17 18  1  0
  5 19  2  0
 19 20  1  0
 19 21  1  0
 21 22  1  0
 22 23  2  0
 22 24  2  0
 22 25  1  0
 25 26  1  0
 26 27  2  0
 27 28  1  0
 27 29  1  0
 29 30  1  0
 29 31  2  0
 31 32  1  0
 32 33  1  0
 33 34  1  0
 33 35  1  0
 33 36  1  0
 31 37  1  0
 37 38  1  0
 37 39  2  0
 39 40  1  0
 21 41  2  0
 41 42  1  0
 41  2  1  0
 17  9  1  0
 39 26  1  0
M  CHG  1  25  -1
M  END
>  <UniqueID>  (46) 
41

>  <SMILES>  (46) 
COc1ccc([N-]S(=O)(=O)c2cccc(C(=O)/N=C3/NCCS3)c2)cc1

>  <Energy>  (46) 
57.479894809966886

>  <Genealogy>  (46) 
COc1ccc([N-]S(=O)(=O)c2cccc(C(=O)N=C3NCCS3)c2)cc1 (protonated)
COc1ccc([N-]S(=O)(=O)c2cccc(C(=O)/N=C3/NCCS3)c2)cc1 (cis-trans isomerization)
COc1ccc([N-]S(=O)(=O)c2cccc(C(=O)/N=C3/NCCS3)c2)cc1 (3D coordinates assigned)
COc1ccc([N-]S(=O)(=O)c2cccc(C(=O)/N=C3/NCCS3)c2)cc1 (nonaromatic ring conformer: 57.479894809966886 kcal/mol)

>  <smiles>  (46) 
COc1ccc(NS(=O)(=O)c2cccc(C(=O)N=C3NCCS3)c2)cc1

>  <score_type>  (46) 
oracle

>  <origin>  (46) 
adg

>  <m_score__min__energy>  (46) 
-9.7300000000000004

>  <m_primary>  (46) 
energy

$$$$
46:0
     RDKit          3D

 53 56  0  0  0  0  0  0  0  0999 V2000
   59.6070   34.5740   49.8670 F   0  0  0  0  0  0  0  0  0  0  0  0
   60.0700   34.3470   48.6130 C   0  0  0  0  0  0  0  0  0  0  0  0
   61.2610   33.6400   48.4250 C   0  0  0  0  0  0  0  0  0  0  0  0
   61.7340   33.3980   47.1330 C   0  0  0  0  0  0  0  0  0  0  0  0
   61.0200   33.8680   46.0260 C   0  0  0  0  0  0  0  0  0  0  0  0
   59.8310   34.5930   46.2070 C   0  0  0  0  0  0  0  0  0  0  0  0
   59.0400   35.0670   45.0150 C   0  0  0  0  0  0  0  0  0  0  0  0
   57.7040   34.4560   45.0100 N   0  0  0  0  0  0  0  0  0  0  0  0
   57.8170   33.0190   45.0620 C   0  0  0  0  0  0  0  0  0  0  0  0
   58.0530   32.2770   43.8950 C   0  0  0  0  0  0  0  0  0  0  0  0
   58.1910   30.8900   43.9620 C   0  0  0  0  0  0  0  0  0  0  0  0
   58.0960   30.2440   45.2050 C   0  0  0  0  0  0  0  0  0  0  0  0
   58.2490   28.8160   45.3070 N   0  0  0  0  0  0  0  0  0  0  0  0
   58.2240   28.1520   46.6170 C   0  0  0  0  0  0  0  0  0  0  0  0
   57.4390   26.8450   46.5260 C   0  0  0  0  0  0  0  0  0  0  0  0
   57.9150   26.0140   45.3580 C   0  0  0  0  0  0  0  0  0  0  0  0
   58.0760   24.6840   45.5140 C   0  0  0  0  0  0  0  0  0  0  0  0
   57.5940   23.6560   44.5690 C   0  0  0  0  0  0  0  0  0  0  0  0
   58.2570   22.4220   44.5010 C   0  0  0  0  0  0  0  0  0  0  0  0
   57.7920   21.4170   43.6450 C   0  0  0  0  0  0  0  0  0  0  0  0
   56.6490   21.6330   42.8690 C   0  0  0  0  0  0  0  0  0  0  0  0
   55.9660   22.8490   42.9530 C   0  0  0  0  0  0  0  0  0  0  0  0
   56.4280   23.8540   43.8080 C   0  0  0  0  0  0  0  0  0  0  0  0
   58.0620   26.7180   44.0230 C   0  0  0  0  0  0  0  0  0  0  0  0
   58.7950   28.0550   44.1790 C   0  0  0  0  0  0  0  0  0  0  0  0
   57.8930   30.9870   46.3280 N   0  0  0  0  0  0  0  0  0  0  0  0
   57.7540   32.3390   46.2870 C   0  0  0  0  0  0  0  0  0  0  0  0
   59.3530   34.8180   47.5090 C   0  0  0  0  0  0  0  0  0  0  0  0
   61.8262   33.2740   49.2948 H   0  0  0  0  0  0  0  0  0  0  0  0
   62.6689   32.8373   46.9862 H   0  0  0  0  0  0  0  0  0  0  0  0
   61.3912   33.6690   45.0098 H   0  0  0  0  0  0  0  0  0  0  0  0
   58.9377   36.1613   45.0600 H   0  0  0  0  0  0  0  0  0  0  0  0
   59.5695   34.7738   44.0964 H   0  0  0  0  0  0  0  0  0  0  0  0
   57.1560   34.7950   45.8350 H   0  0  0  0  0  0  0  0  0  0  0  0
   57.1890   34.7370   44.1420 H   0  0  0  0  0  0  0  0  0  0  0  0
   58.1294   32.7898   42.9248 H   0  0  0  0  0  0  0  0  0  0  0  0
   58.3730   30.3068   43.0473 H   0  0  0  0  0  0  0  0  0  0  0  0
   59.2545   27.9364   46.9357 H   0  0  0  0  0  0  0  0  0  0  0  0
   57.7379   28.8147   47.3482 H   0  0  0  0  0  0  0  0  0  0  0  0
   57.5797   26.2743   47.4558 H   0  0  0  0  0  0  0  0  0  0  0  0
   56.3749   27.0821   46.3797 H   0  0  0  0  0  0  0  0  0  0  0  0
   58.6067   24.3385   46.4135 H   0  0  0  0  0  0  0  0  0  0  0  0
   59.1464   22.2432   45.1231 H   0  0  0  0  0  0  0  0  0  0  0  0
   58.3257   20.4572   43.5827 H   0  0  0  0  0  0  0  0  0  0  0  0
   56.2873   20.8451   42.1920 H   0  0  0  0  0  0  0  0  0  0  0  0
   55.0640   23.0157   42.3459 H   0  0  0  0  0  0  0  0  0  0  0  0
   55.8775   24.8031   43.8858 H   0  0  0  0  0  0  0  0  0  0  0  0
   58.6330   26.0735   43.3385 H   0  0  0  0  0  0  0  0  0  0  0  0
   57.0573   26.9164   43.6214 H   0  0  0  0  0  0  0  0  0  0  0  0
   59.8634   27.8626   44.3564 H   0  0  0  0  0  0  0  0  0  0  0  0
   58.6610   28.6417   43.2582 H   0  0  0  0  0  0  0  0  0  0  0  0
   57.5915   32.9016   47.2182 H   0  0  0  0  0  0  0  0  0  0  0  0
   58.4116   35.3665   47.6602 H   0  0  0  0  0  0  0  0  0  0  0  0
  1  2  1  0
  2  3  2  0
  3  4  1  0
  4  5  2  0
  5  6  1  0
  6  7  1  0
  7  8  1  0
  8  9  1  0
  9 10  2  0
 10 11  1  0
 11 12  2  0
 12 13  1  0
 13 14  1  0
 14 15  1  0
 15 16  1  0
 16 17  2  3
 17 18  1  0
 18 19  2  0
 19 20  1  0
 20 21  2  0
 21 22  1  0
 22 23  2  0
 16 24  1  0
 24 25  1  0
 12 26  1  0
 26 27  2  0
  6 28  2  0
 28  2  1  0
 27  9  1  0
 25 13  1  0
 23 18  1  0
  3 29  1  0
  4 30  1  0
  5 31  1  0
  7 32  1  0
  7 33  1  0
  8 34  1  0
  8 35  1  0
 10 36  1  0
 11 37  1  0
 14 38  1  0
 14 39  1  0
 15 40  1  0
 15 41  1  0
 17 42  1  0
 19 43  1  0
 20 44  1  0
 21 45  1  0
 22 46  1  0
 23 47  1  0
 24 48  1  0
 24 49  1  0
 25 50  1  0
 25 51  1  0
 27 52  1  0
 28 53  1  0
M  CHG  1   8   1
M  END
>  <UniqueID>  (47) 
42

>  <SMILES>  (47) 
Fc1cccc(C[NH2+]c2ccc(N3CCC(=Cc4ccccc4)CC3)nc2)c1

>  <Energy>  (47) 
66.87897504918739

>  <Genealogy>  (47) 
Fc1cccc(C[NH2+]c2ccc(N3CCC(=Cc4ccccc4)CC3)nc2)c1 (protonated)
Fc1cccc(C[NH2+]c2ccc(N3CCC(=Cc4ccccc4)CC3)nc2)c1 (3D coordinates assigned)
Fc1cccc(C[NH2+]c2ccc(N3CCC(=Cc4ccccc4)CC3)nc2)c1 (nonaromatic ring conformer: 66.87897504918739 kcal/mol)

>  <smiles>  (47) 
Fc1cccc(CNc2ccc(N3CCC(=Cc4ccccc4)CC3)nc2)c1

>  <score_type>  (47) 
oracle

>  <origin>  (47) 
adg

>  <m_score__min__energy>  (47) 
-7.0999999999999996

>  <m_primary>  (47) 
energy

$$$$
47:0
     RDKit          3D

 41 43  0  0  0  0  0  0  0  0999 V2000
   59.9880   21.9140   45.3790 O   0  0  0  0  0  0  0  0  0  0  0  0
   58.7840   21.5910   45.5590 C   0  0  0  0  0  0  0  0  0  0  0  0
   58.4730   20.6830   46.5640 O   0  0  0  0  0  0  0  0  0  0  0  0
   57.7130   22.2240   44.7520 C   0  0  0  0  0  0  0  0  0  0  0  0
   57.4050   21.6640   43.4990 C   0  0  0  0  0  0  0  0  0  0  0  0
   56.4820   22.2770   42.6500 C   0  0  0  0  0  0  0  0  0  0  0  0
   55.8530   23.4570   43.0380 C   0  0  0  0  0  0  0  0  0  0  0  0
   56.1280   24.0190   44.2850 C   0  0  0  0  0  0  0  0  0  0  0  0
   57.0400   23.4070   45.1650 C   0  0  0  0  0  0  0  0  0  0  0  0
   57.2050   23.9900   46.5160 C   0  0  0  0  0  0  0  0  0  0  0  0
   57.4800   23.2420   47.4930 O   0  0  0  0  0  0  0  0  0  0  0  0
   56.9530   25.3860   46.7220 N   0  0  0  0  0  0  0  0  0  0  0  0
   57.6550   26.4800   46.1130 C   0  0  0  0  0  0  0  0  0  0  0  0
   59.0590   26.5010   46.0300 C   0  0  0  0  0  0  0  0  0  0  0  0
   59.7100   27.5700   45.4120 C   0  0  0  0  0  0  0  0  0  0  0  0
   58.9730   28.6170   44.8580 C   0  0  0  0  0  0  0  0  0  0  0  0
   57.5710   28.5970   44.9060 C   0  0  0  0  0  0  0  0  0  0  0  0
   56.6400   29.9160   44.1920 S   0  0  0  0  0  0  0  0  0  0  0  0
   55.1920   29.5180   44.1410 O   0  0  0  0  0  0  0  0  0  0  0  0
   57.1530   30.1850   42.8060 O   0  0  0  0  0  0  0  0  0  0  0  0
   56.8110   31.3520   45.1510 N   0  0  0  0  0  0  0  0  0  0  0  0
   58.0580   31.9170   45.5790 C   0  0  0  0  0  0  0  0  0  0  0  0
   58.9210   31.2450   46.4640 C   0  0  0  0  0  0  0  0  0  0  0  0
   60.1260   31.8360   46.8550 C   0  0  0  0  0  0  0  0  0  0  0  0
   60.4810   33.0980   46.3680 C   0  0  0  0  0  0  0  0  0  0  0  0
   61.9920   33.8370   46.8620 Cl  0  0  0  0  0  0  0  0  0  0  0  0
   59.6280   33.7690   45.4870 C   0  0  0  0  0  0  0  0  0  0  0  0
   58.4220   33.1800   45.0940 C   0  0  0  0  0  0  0  0  0  0  0  0
   56.9140   27.5220   45.5330 C   0  0  0  0  0  0  0  0  0  0  0  0
   55.5250   27.4900   45.5920 O   0  0  0  0  0  0  0  0  0  0  0  0
   57.8973   20.7320   43.1844 H   0  0  0  0  0  0  0  0  0  0  0  0
   56.2513   21.8272   41.6731 H   0  0  0  0  0  0  0  0  0  0  0  0
   55.1382   23.9468   42.3604 H   0  0  0  0  0  0  0  0  0  0  0  0
   55.6262   24.9512   44.5838 H   0  0  0  0  0  0  0  0  0  0  0  0
   59.6458   25.6725   46.4534 H   0  0  0  0  0  0  0  0  0  0  0  0
   60.8087   27.5869   45.3616 H   0  0  0  0  0  0  0  0  0  0  0  0
   59.4930   29.4613   44.3818 H   0  0  0  0  0  0  0  0  0  0  0  0
   58.6468   30.2519   46.8493 H   0  0  0  0  0  0  0  0  0  0  0  0
   60.7969   31.3069   47.5477 H   0  0  0  0  0  0  0  0  0  0  0  0
   59.9057   34.7615   45.1024 H   0  0  0  0  0  0  0  0  0  0  0  0
   57.7549   33.7118   44.3996 H   0  0  0  0  0  0  0  0  0  0  0  0
  1  2  2  0
  2  3  1  0
  2  4  1  0
  4  5  2  0
  5  6  1  0
  6  7  2  0
  7  8  1  0
  8  9  2  0
  9 10  1  0
 10 11  2  0
 10 12  1  0
 12 13  1  0
 13 14  2  0
 14 15  1  0
 15 16  2  0
 16 17  1  0
 17 18  1  0
 18 19  2  0
 18 20  2  0
 18 21  1  0
 21 22  1  0
 22 23  2  0
 23 24  1  0
 24 25  2  0
 25 26  1  0
 25 27  1  0
 27 28  2  0
 17 29  2  0
 29 30  1  0
  9  4  1  0
 29 13  1  0
 28 22  1  0
  5 31  1  0
  6 32  1  0
  7 33  1  0
  8 34  1  0
 14 35  1  0
 15 36  1  0
 16 37  1  0
 23 38  1  0
 24 39  1  0
 27 40  1  0
 28 41  1  0
M  CHG  4   3  -1  12  -1  21  -1  30  -1
M  END
>  <UniqueID>  (48) 
43

>  <SMILES>  (48) 
O=C([O-])c1ccccc1C(=O)[N-]c1cccc(S(=O)(=O)[N-]c2ccc(Cl)cc2)c1[O-]

>  <Energy>  (48) 
61.87561162079892

>  <Genealogy>  (48) 
O=C([O-])c1ccccc1C(=O)[N-]c1cccc(S(=O)(=O)[N-]c2ccc(Cl)cc2)c1[O-] (protonated)
O=C([O-])c1ccccc1C(=O)[N-]c1cccc(S(=O)(=O)[N-]c2ccc(Cl)cc2)c1[O-] (3D coordinates assigned)
O=C([O-])c1ccccc1C(=O)[N-]c1cccc(S(=O)(=O)[N-]c2ccc(Cl)cc2)c1[O-] (optimized conformer: 61.87561162079892 kcal/mol)

>  <smiles>  (48) 
O=C(O)c1ccccc1C(=O)Nc1cccc(S(=O)(=O)Nc2ccc(Cl)cc2)c1O

>  <score_type>  (48) 
oracle

>  <origin>  (48) 
adg

>  <m_score__min__energy>  (48) 
-19.059999999999999

>  <m_primary>  (48) 
energy

$$$$
48:0
     RDKit          3D

 47 50  0  0  0  0  0  0  0  0999 V2000
   59.1970   26.5950   47.7030 H   0  0  0  0  0  0  0  0  0  0  0  0
   58.5140   25.9040   47.4160 O   0  0  0  0  0  0  0  0  0  0  0  0
   57.3430   26.2920   46.7750 C   0  0  0  0  0  0  0  0  0  0  0  0
   56.2250   25.5470   46.7390 N   0  0  0  0  0  0  0  0  0  0  0  0
   55.3800   26.3140   46.0170 C   0  0  0  0  0  0  0  0  0  0  0  0
   54.2020   25.9600   45.7540 O   0  0  0  0  0  0  0  0  0  0  0  0
   55.8970   27.4900   45.6000 N   0  0  0  0  0  0  0  0  0  0  0  0
   57.1500   27.4700   46.0920 C   0  0  0  0  0  0  0  0  0  0  0  0
   58.1430   28.5740   45.8970 C   0  0  0  0  0  0  0  0  0  0  0  0
   57.6680   29.5364   46.1383 H   0  0  0  0  0  0  0  0  0  0  0  0
   58.4794   28.5724   44.8497 H   0  0  0  0  0  0  0  0  0  0  0  0
   59.3330   28.3690   46.7940 C   0  0  0  0  0  0  0  0  0  0  0  0
   60.3800   27.8650   46.3090 O   0  0  0  0  0  0  0  0  0  0  0  0
   59.3490   28.8090   48.1590 N   0  0  0  0  0  0  0  0  0  0  0  0
   59.9750   30.0360   48.6550 C   0  0  2  0  0  0  0  0  0  0  0  0
   60.4641   30.5619   47.8218 H   0  0  0  0  0  0  0  0  0  0  0  0
   61.0470   29.6990   49.6730 C   0  0  0  0  0  0  0  0  0  0  0  0
   60.9330   28.6690   50.3900 O   0  0  0  0  0  0  0  0  0  0  0  0
   62.1570   30.5800   49.9020 N   0  0  0  0  0  0  0  0  0  0  0  0
   62.5020   31.6170   49.1920 C   0  0  0  0  0  0  0  0  0  0  0  0
   62.6460   32.8130   49.8260 N   0  0  0  0  0  0  0  0  0  0  0  0
   62.9850   33.9500   49.1610 C   0  0  0  0  0  0  0  0  0  0  0  0
   63.0884   34.8975   49.7102 H   0  0  0  0  0  0  0  0  0  0  0  0
   63.2020   33.9160   47.7820 C   0  0  0  0  0  0  0  0  0  0  0  0
   63.4518   34.8368   47.2345 H   0  0  0  0  0  0  0  0  0  0  0  0
   63.0980   32.7000   47.1080 C   0  0  0  0  0  0  0  0  0  0  0  0
   63.2863   32.6534   46.0252 H   0  0  0  0  0  0  0  0  0  0  0  0
   62.7550   31.5420   47.8070 C   0  0  0  0  0  0  0  0  0  0  0  0
   62.6826   30.5783   47.2816 H   0  0  0  0  0  0  0  0  0  0  0  0
   58.9020   30.9840   49.2340 C   0  0  0  0  0  0  0  0  0  0  0  0
   57.9155   30.6592   48.8718 H   0  0  0  0  0  0  0  0  0  0  0  0
   58.9753   30.9322   50.3303 H   0  0  0  0  0  0  0  0  0  0  0  0
   59.1090   32.4220   48.8370 C   0  0  0  0  0  0  0  0  0  0  0  0
   59.3810   33.4890   49.6900 C   0  0  0  0  0  0  0  0  0  0  0  0
   59.4831   33.4081   50.7823 H   0  0  0  0  0  0  0  0  0  0  0  0
   59.5020   34.6380   48.9880 N   0  0  0  0  0  0  0  0  0  0  0  0
   59.7000   35.5890   49.3720 H   0  0  0  0  0  0  0  0  0  0  0  0
   59.3040   34.3100   47.6990 C   0  0  0  0  0  0  0  0  0  0  0  0
   59.3180   35.1670   46.5980 C   0  0  0  0  0  0  0  0  0  0  0  0
   59.5128   36.2429   46.7185 H   0  0  0  0  0  0  0  0  0  0  0  0
   59.0750   34.6110   45.3290 C   0  0  0  0  0  0  0  0  0  0  0  0
   59.0828   35.2572   44.4388 H   0  0  0  0  0  0  0  0  0  0  0  0
   58.8210   33.2280   45.1900 C   0  0  0  0  0  0  0  0  0  0  0  0
   58.6344   32.8047   44.1920 H   0  0  0  0  0  0  0  0  0  0  0  0
   58.8050   32.3890   46.3180 C   0  0  0  0  0  0  0  0  0  0  0  0
   58.5998   31.3126   46.2218 H   0  0  0  0  0  0  0  0  0  0  0  0
   59.0580   32.9660   47.5650 C   0  0  0  0  0  0  0  0  0  0  0  0
  1  2  1  0
  2  3  1  0
  3  4  1  0
  4  5  1  0
  5  6  2  0
  5  7  1  0
  7  8  1  0
  8  9  1  0
  9 10  1  0
  9 11  1  0
  9 12  1  0
 12 13  2  0
 12 14  1  0
 14 15  1  0
 15 16  1  6
 15 17  1  0
 17 18  2  0
 17 19  1  0
 19 20  2  0
 20 21  1  0
 21 22  1  0
 22 23  1  0
 22 24  2  0
 24 25  1  0
 24 26  1  0
 26 27  1  0
 26 28  2  0
 28 29  1  0
 15 30  1  0
 30 31  1  0
 30 32  1  0
 30 33  1  0
 33 34  2  0
 34 35  1  0
 34 36  1  0
 36 37  1  0
 36 38  1  0
 38 39  2  0
 39 40  1  0
 39 41  1  0
 41 42  1  0
 41 43  2  0
 43 44  1  0
 43 45  1  0
 45 46  1  0
 45 47  2  0
  8  3  2  0
 28 20  1  0
 47 33  1  0
 47 38  1  0
M  CHG  4   4  -1   7  -1  14  -1  21  -1
M  END
>  <UniqueID>  (49) 
44

>  <SMILES>  (49) 
O=C(Cc1[n-]c(=O)[n-]c1O)[N-][C@@H](Cc1c[nH]c2ccccc12)C(=O)/N=c1\cccc[n-]1

>  <Energy>  (49) 
118.48492293027661

>  <Genealogy>  (49) 
O=C(Cc1[n-]c(=O)[n-]c1O)[N-]C(Cc1c[nH]c2ccccc12)C(=O)N=c1cccc[n-]1 (protonated)
O=C(Cc1[n-]c(=O)[n-]c1O)[N-][C@@H](Cc1c[nH]c2ccccc12)C(=O)N=c1cccc[n-]1 (chirality)
O=C(Cc1[n-]c(=O)[n-]c1O)[N-][C@@H](Cc1c[nH]c2ccccc12)C(=O)/N=c1\cccc[n-]1 (cis-trans isomerization)
O=C(Cc1[n-]c(=O)[n-]c1O)[N-][C@@H](Cc1c[nH]c2ccccc12)C(=O)/N=c1\cccc[n-]1 (3D coordinates assigned)
O=C(Cc1[n-]c(=O)[n-]c1O)[N-][C@@H](Cc1c[nH]c2ccccc12)C(=O)/N=c1\cccc[n-]1 (optimized conformer: 118.48492293027661 kcal/mol)

>  <smiles>  (49) 
O=C(Cc1[nH]c(=O)[nH]c1O)NC(Cc1c[nH]c2ccccc12)C(=O)N=c1cccc[nH]1

>  <score_type>  (49) 
oracle

>  <origin>  (49) 
adg

>  <m_score__min__energy>  (49) 
-14.99

>  <m_primary>  (49) 
energy

$$$$
49:0
     RDKit          3D

 45 47  0  0  0  0  0  0  0  0999 V2000
   61.1950   28.9170   44.7140 N   0  0  0  0  0  0  0  0  0  0  0  0
   59.8030   28.9960   45.0490 C   0  0  0  0  0  0  0  0  0  0  0  0
   58.9080   29.5540   44.1220 C   0  0  0  0  0  0  0  0  0  0  0  0
   57.5400   29.6050   44.4010 C   0  0  0  0  0  0  0  0  0  0  0  0
   57.0510   29.0880   45.6000 C   0  0  0  0  0  0  0  0  0  0  0  0
   57.9310   28.5340   46.5330 C   0  0  0  0  0  0  0  0  0  0  0  0
   59.3100   28.5110   46.2810 C   0  0  0  0  0  0  0  0  0  0  0  0
   60.4080   27.8030   47.5210 S   0  0  0  0  0  0  0  0  0  0  0  0
   60.4900   29.2860   48.5930 C   0  0  0  0  0  0  0  0  0  0  0  0
   60.5590   30.5830   47.8370 C   0  0  0  0  0  0  0  0  0  0  0  0
   61.4190   30.7030   46.9240 O   0  0  0  0  0  0  0  0  0  0  0  0
   59.5800   31.6140   48.0510 N   0  0  0  0  0  0  0  0  0  0  0  0
   59.1910   32.5370   47.0190 C   0  0  0  0  0  0  0  0  0  0  0  0
   57.9150   32.3920   46.4510 C   0  0  0  0  0  0  0  0  0  0  0  0
   57.4890   33.2370   45.4240 C   0  0  0  0  0  0  0  0  0  0  0  0
   58.3290   34.2460   44.9590 C   0  0  0  0  0  0  0  0  0  0  0  0
   59.5920   34.4220   45.5260 C   0  0  0  0  0  0  0  0  0  0  0  0
   60.0400   33.5800   46.5610 C   0  0  0  0  0  0  0  0  0  0  0  0
   61.3100   33.8570   47.1820 N   0  0  0  0  0  0  0  0  0  0  0  0
   62.5410   33.8280   46.3880 C   0  0  0  0  0  0  0  0  0  0  0  0
   63.7350   33.4820   47.2800 C   0  0  0  0  0  0  0  0  0  0  0  0
   63.3500   32.5020   48.2220 O   0  0  0  0  0  0  0  0  0  0  0  0
   62.4960   33.0650   49.2080 C   0  0  0  0  0  0  0  0  0  0  0  0
   61.4190   34.0180   48.6380 C   0  0  0  0  0  0  0  0  0  0  0  0
   61.5320   28.4400   43.8500 H   0  0  0  0  0  0  0  0  0  0  0  0
   61.9130   29.3480   45.3370 H   0  0  0  0  0  0  0  0  0  0  0  0
   59.2865   29.9537   43.1697 H   0  0  0  0  0  0  0  0  0  0  0  0
   56.8476   30.0538   43.6736 H   0  0  0  0  0  0  0  0  0  0  0  0
   55.9719   29.1163   45.8114 H   0  0  0  0  0  0  0  0  0  0  0  0
   57.5396   28.1133   47.4710 H   0  0  0  0  0  0  0  0  0  0  0  0
   59.5925   29.3034   49.2288 H   0  0  0  0  0  0  0  0  0  0  0  0
   61.4198   29.2070   49.1754 H   0  0  0  0  0  0  0  0  0  0  0  0
   58.8980   31.4690   48.8280 H   0  0  0  0  0  0  0  0  0  0  0  0
   57.2428   31.6032   46.8195 H   0  0  0  0  0  0  0  0  0  0  0  0
   56.4901   33.1057   44.9823 H   0  0  0  0  0  0  0  0  0  0  0  0
   57.9964   34.9052   44.1436 H   0  0  0  0  0  0  0  0  0  0  0  0
   60.2448   35.2280   45.1598 H   0  0  0  0  0  0  0  0  0  0  0  0
   62.4459   33.0693   45.5972 H   0  0  0  0  0  0  0  0  0  0  0  0
   62.7028   34.8190   45.9389 H   0  0  0  0  0  0  0  0  0  0  0  0
   64.5555   33.0921   46.6597 H   0  0  0  0  0  0  0  0  0  0  0  0
   64.0726   34.3859   47.8081 H   0  0  0  0  0  0  0  0  0  0  0  0
   61.9875   32.2440   49.7347 H   0  0  0  0  0  0  0  0  0  0  0  0
   63.1322   33.6661   49.8742 H   0  0  0  0  0  0  0  0  0  0  0  0
   60.4487   33.7867   49.1017 H   0  0  0  0  0  0  0  0  0  0  0  0
   61.7074   35.0558   48.8611 H   0  0  0  0  0  0  0  0  0  0  0  0
  1  2  1  0
  2  3  2  0
  3  4  1  0
  4  5  2  0
  5  6  1  0
  6  7  2  0
  7  8  1  0
  8  9  1  0
  9 10  1  0
 10 11  2  0
 10 12  1  0
 12 13  1  0
 13 14  2  0
 14 15  1  0
 15 16  2  0
 16 17  1  0
 17 18  2  0
 18 19  1  0
 19 20  1  0
 20 21  1  0
 21 22  1  0
 22 23  1  0
 23 24  1  0
  7  2  1  0
 18 13  1  0
 24 19  1  0
  1 25  1  0
  1 26  1  0
  3 27  1  0
  4 28  1  0
  5 29  1  0
  6 30  1  0
  9 31  1  0
  9 32  1  0
 12 33  1  0
 14 34  1  0
 15 35  1  0
 16 36  1  0
 17 37  1  0
 20 38  1  0
 20 39  1  0
 21 40  1  0
 21 41  1  0
 23 42  1  0
 23 43  1  0
 24 44  1  0
 24 45  1  0
M  END
>  <UniqueID>  (50) 
45

>  <SMILES>  (50) 
Nc1ccccc1SCC(=O)Nc1ccccc1N1CCOCC1

>  <Energy>  (50) 
60.19694699662662

>  <Genealogy>  (50) 
Nc1ccccc1SCC(=O)Nc1ccccc1N1CCOCC1 (3D coordinates assigned)
Nc1ccccc1SCC(=O)Nc1ccccc1N1CCOCC1 (nonaromatic ring conformer: 60.19694699662662 kcal/mol)

>  <smiles>  (50) 
Nc1ccccc1SCC(=O)Nc1ccccc1N1CCOCC1

>  <score_type>  (50) 
oracle

>  <origin>  (50) 
adg

>  <m_score__min__energy>  (50) 
-7.5099999999999998

>  <m_primary>  (50) 
energy

$$$$
50:0
     RDKit          3D

 37 38  0  0  0  0  0  0  0  0999 V2000
   56.2700   31.7820   44.8750 O   0  0  0  0  0  0  0  0  0  0  0  0
   57.4040   31.4200   45.2910 C   0  0  0  0  0  0  0  0  0  0  0  0
   58.2960   32.3750   45.8910 N   0  0  0  0  0  0  0  0  0  0  0  0
   58.0020   33.7720   46.0580 C   0  0  0  0  0  0  0  0  0  0  0  0
   57.2340   34.6030   44.8700 S   0  0  0  0  0  0  0  0  0  0  0  0
   58.5820   34.5080   47.1460 N   0  0  0  0  0  0  0  0  0  0  0  0
   59.0520   33.8840   48.3820 C   0  0  0  0  0  0  0  0  0  0  0  0
   60.4640   34.3630   48.7360 C   0  0  0  0  0  0  0  0  0  0  0  0
   61.5110   33.4040   48.2330 C   0  0  0  0  0  0  0  0  0  0  0  0
   61.1860   32.0520   48.0260 C   0  0  0  0  0  0  0  0  0  0  0  0
   62.1320   31.1760   47.4840 C   0  0  0  0  0  0  0  0  0  0  0  0
   63.4060   31.6420   47.1460 C   0  0  0  0  0  0  0  0  0  0  0  0
   63.7350   32.9850   47.3480 C   0  0  0  0  0  0  0  0  0  0  0  0
   62.7910   33.8660   47.8860 C   0  0  0  0  0  0  0  0  0  0  0  0
   57.8120   30.0070   45.1330 C   0  0  0  0  0  0  0  0  0  0  0  0
   59.1730   29.7000   44.9640 C   0  0  0  0  0  0  0  0  0  0  0  0
   59.5920   28.3730   44.8400 C   0  0  0  0  0  0  0  0  0  0  0  0
   58.6580   27.3380   44.8750 C   0  0  0  0  0  0  0  0  0  0  0  0
   57.2990   27.6280   45.0210 C   0  0  0  0  0  0  0  0  0  0  0  0
   56.8660   28.9570   45.1380 C   0  0  0  0  0  0  0  0  0  0  0  0
   55.5010   29.2310   45.2280 O   0  0  0  0  0  0  0  0  0  0  0  0
   59.2310   32.0430   46.2050 H   0  0  0  0  0  0  0  0  0  0  0  0
   58.6110   35.5520   47.0900 H   0  0  0  0  0  0  0  0  0  0  0  0
   58.3668   34.1474   49.2012 H   0  0  0  0  0  0  0  0  0  0  0  0
   59.0776   32.7939   48.2368 H   0  0  0  0  0  0  0  0  0  0  0  0
   60.6326   35.3492   48.2789 H   0  0  0  0  0  0  0  0  0  0  0  0
   60.5456   34.4218   49.8314 H   0  0  0  0  0  0  0  0  0  0  0  0
   60.1846   31.6820   48.2911 H   0  0  0  0  0  0  0  0  0  0  0  0
   61.8733   30.1190   47.3235 H   0  0  0  0  0  0  0  0  0  0  0  0
   64.1494   30.9515   46.7211 H   0  0  0  0  0  0  0  0  0  0  0  0
   64.7383   33.3501   47.0834 H   0  0  0  0  0  0  0  0  0  0  0  0
   63.0520   34.9238   48.0377 H   0  0  0  0  0  0  0  0  0  0  0  0
   59.9148   30.5115   44.9291 H   0  0  0  0  0  0  0  0  0  0  0  0
   60.6606   28.1441   44.7145 H   0  0  0  0  0  0  0  0  0  0  0  0
   58.9912   26.2933   44.7877 H   0  0  0  0  0  0  0  0  0  0  0  0
   56.5645   26.8094   45.0443 H   0  0  0  0  0  0  0  0  0  0  0  0
   55.1570   30.1000   45.6190 H   0  0  0  0  0  0  0  0  0  0  0  0
  1  2  2  0
  2  3  1  0
  3  4  1  0
  4  5  2  0
  4  6  1  0
  6  7  1  0
  7  8  1  0
  8  9  1  0
  9 10  2  0
 10 11  1  0
 11 12  2  0
 12 13  1  0
 13 14  2  0
  2 15  1  0
 15 16  2  0
 16 17  1  0
 17 18  2  0
 18 19  1  0
 19 20  2  0
 20 21  1  0
 14  9  1  0
 20 15  1  0
  3 22  1  0
  6 23  1  0
  7 24  1  0
  7 25  1  0
  8 26  1  0
  8 27  1  0
 10 28  1  0
 11 29  1  0
 12 30  1  0
 13 31  1  0
 14 32  1  0
 16 33  1  0
 17 34  1  0
 18 35  1  0
 19 36  1  0
 21 37  1  0
M  END
>  <UniqueID>  (51) 
46

>  <SMILES>  (51) 
O=C(NC(=S)NCCc1ccccc1)c1ccccc1O

>  <Energy>  (51) 
39.012842094217994

>  <Genealogy>  (51) 
O=C(NC(=S)NCCc1ccccc1)c1ccccc1O (3D coordinates assigned)
O=C(NC(=S)NCCc1ccccc1)c1ccccc1O (optimized conformer: 39.012842094217994 kcal/mol)

>  <smiles>  (51) 
O=C(NC(=S)NCCc1ccccc1)c1ccccc1O

>  <score_type>  (51) 
oracle

>  <origin>  (51) 
adg

>  <m_score__min__energy>  (51) 
-8.5999999999999996

>  <m_primary>  (51) 
energy

$$$$
51:0
     RDKit          3D

 40 42  0  0  0  0  0  0  0  0999 V2000
   55.6650   29.7390   45.8820 H   0  0  0  0  0  0  0  0  0  0  0  0
   55.7520   28.9640   45.2340 O   0  0  0  0  0  0  0  0  0  0  0  0
   56.2820   27.7430   45.6440 C   0  0  0  0  0  0  0  0  0  0  0  0
   55.4510   26.6880   45.8490 N   0  0  0  0  0  0  0  0  0  0  0  0
   55.9350   25.4740   46.2150 C   0  0  0  0  0  0  0  0  0  0  0  0
   55.1450   24.5130   46.4030 O   0  0  0  0  0  0  0  0  0  0  0  0
   57.2720   25.2940   46.3730 N   0  0  0  0  0  0  0  0  0  0  0  0
   58.1450   26.3160   46.1850 C   0  0  0  0  0  0  0  0  0  0  0  0
   59.3780   26.1130   46.3350 O   0  0  0  0  0  0  0  0  0  0  0  0
   57.6670   27.5900   45.8350 C   0  0  0  0  0  0  0  0  0  0  0  0
   58.6110   28.7110   45.6160 C   0  0  0  0  0  0  0  0  0  0  0  0
   59.2902   28.6457   44.7532 H   0  0  0  0  0  0  0  0  0  0  0  0
   58.6970   29.8070   46.4000 C   0  0  0  0  0  0  0  0  0  0  0  0
   59.3010   29.7640   47.7540 C   0  0  0  0  0  0  0  0  0  0  0  0
   60.5030   29.4070   47.8870 O   0  0  0  0  0  0  0  0  0  0  0  0
   58.5030   30.0490   48.9100 N   0  0  0  0  0  0  0  0  0  0  0  0
   58.6650   31.1660   49.7970 C   0  0  0  0  0  0  0  0  0  0  0  0
   59.5180   32.2420   49.4840 C   0  0  0  0  0  0  0  0  0  0  0  0
   60.1005   32.2263   48.5510 H   0  0  0  0  0  0  0  0  0  0  0  0
   59.6270   33.3300   50.3550 C   0  0  0  0  0  0  0  0  0  0  0  0
   60.3026   34.1629   50.1106 H   0  0  0  0  0  0  0  0  0  0  0  0
   58.8800   33.3620   51.5350 C   0  0  0  0  0  0  0  0  0  0  0  0
   58.9740   34.2152   52.2229 H   0  0  0  0  0  0  0  0  0  0  0  0
   58.0130   32.3090   51.8410 C   0  0  0  0  0  0  0  0  0  0  0  0
   57.4200   32.3376   52.7670 H   0  0  0  0  0  0  0  0  0  0  0  0
   57.8980   31.2180   50.9710 C   0  0  0  0  0  0  0  0  0  0  0  0
   57.0210   30.1830   51.2810 O   0  0  0  0  0  0  0  0  0  0  0  0
   58.1520   31.0940   45.8950 C   0  0  0  0  0  0  0  0  0  0  0  0
   57.1110   31.0790   45.1820 O   0  0  0  0  0  0  0  0  0  0  0  0
   58.7900   32.3960   46.2100 C   0  0  0  0  0  0  0  0  0  0  0  0
   58.0140   33.5530   46.4120 C   0  0  0  0  0  0  0  0  0  0  0  0
   56.9191   33.5003   46.3208 H   0  0  0  0  0  0  0  0  0  0  0  0
   58.6280   34.7690   46.7280 C   0  0  0  0  0  0  0  0  0  0  0  0
   58.0155   35.6701   46.8793 H   0  0  0  0  0  0  0  0  0  0  0  0
   60.0180   34.8420   46.8520 C   0  0  0  0  0  0  0  0  0  0  0  0
   60.4988   35.8002   47.0985 H   0  0  0  0  0  0  0  0  0  0  0  0
   60.7960   33.6990   46.6630 C   0  0  0  0  0  0  0  0  0  0  0  0
   61.8899   33.7569   46.7636 H   0  0  0  0  0  0  0  0  0  0  0  0
   60.1880   32.4800   46.3460 C   0  0  0  0  0  0  0  0  0  0  0  0
   60.8063   31.5817   46.2022 H   0  0  0  0  0  0  0  0  0  0  0  0
  1  2  1  0
  2  3  1  0
  3  4  1  0
  4  5  1  0
  5  6  2  0
  5  7  1  0
  7  8  1  0
  8  9  2  0
  8 10  1  0
 10 11  1  0
 11 12  1  0
 11 13  2  0
 13 14  1  0
 14 15  2  0
 14 16  1  0
 16 17  1  0
 17 18  2  0
 18 19  1  0
 18 20  1  0
 20 21  1  0
 20 22  2  0
 22 23  1  0
 22 24  1  0
 24 25  1  0
 24 26  2  0
 26 27  1  0
 13 28  1  0
 28 29  2  0
 28 30  1  0
 30 31  2  0
 31 32  1  0
 31 33  1  0
 33 34  1  0
 33 35  2  0
 35 36  1  0
 35 37  1  0
 37 38  1  0
 37 39  2  0
 39 40  1  0
 10  3  2  0
 26 17  1  0
 39 30  1  0
M  CHG  4   4  -1   7  -1  16  -1  27  -1
M  END
>  <UniqueID>  (52) 
47

>  <SMILES>  (52) 
O=C([N-]c1ccccc1[O-])/C(=C\c1c(O)[n-]c(=O)[n-]c1=O)C(=O)c1ccccc1

>  <Energy>  (52) 
63.03211804780483

>  <Genealogy>  (52) 
O=C([N-]c1ccccc1[O-])C(=Cc1c(O)[n-]c(=O)[n-]c1=O)C(=O)c1ccccc1 (protonated)
O=C([N-]c1ccccc1[O-])/C(=C\c1c(O)[n-]c(=O)[n-]c1=O)C(=O)c1ccccc1 (cis-trans isomerization)
O=C([N-]c1ccccc1[O-])/C(=C\c1c(O)[n-]c(=O)[n-]c1=O)C(=O)c1ccccc1 (3D coordinates assigned)
O=C([N-]c1ccccc1[O-])/C(=C\c1c(O)[n-]c(=O)[n-]c1=O)C(=O)c1ccccc1 (optimized conformer: 63.03211804780483 kcal/mol)

>  <smiles>  (52) 
O=C(Nc1ccccc1O)C(=Cc1c(O)[nH]c(=O)[nH]c1=O)C(=O)c1ccccc1

>  <score_type>  (52) 
oracle

>  <origin>  (52) 
adg

>  <m_score__min__energy>  (52) 
-16.98

>  <m_primary>  (52) 
energy

$$$$
52:0
     RDKit          3D

 35 38  0  0  0  0  0  0  0  0999 V2000
   57.6330   31.1250   43.0430 O   0  0  0  0  0  0  0  0  0  0  0  0
   57.4490   30.7990   44.2470 C   0  0  0  0  0  0  0  0  0  0  0  0
   57.0120   31.8490   45.2330 C   0  0  0  0  0  0  0  0  0  0  0  0
   58.0670   32.8550   45.4220 N   0  0  0  0  0  0  0  0  0  0  0  0
   57.9530   34.1610   45.0550 C   0  0  0  0  0  0  0  0  0  0  0  0
   56.9410   34.6390   44.4780 O   0  0  0  0  0  0  0  0  0  0  0  0
   59.3180   35.0730   45.4500 S   0  0  0  0  0  0  0  0  0  0  0  0
   60.0960   33.7410   46.1170 C   0  0  0  0  0  0  0  0  0  0  0  0
   61.3620   33.6870   46.6960 C   0  0  0  0  0  0  0  0  0  0  0  0
   61.8140   32.4550   47.1910 C   0  0  0  0  0  0  0  0  0  0  0  0
   63.4050   32.3370   47.9210 Cl  0  0  0  0  0  0  0  0  0  0  0  0
   60.9970   31.3100   47.0980 C   0  0  0  0  0  0  0  0  0  0  0  0
   59.7240   31.3880   46.5110 C   0  0  0  0  0  0  0  0  0  0  0  0
   59.2770   32.6220   46.0170 C   0  0  0  0  0  0  0  0  0  0  0  0
   57.7030   29.4040   44.6650 C   0  0  0  0  0  0  0  0  0  0  0  0
   56.6570   28.5720   45.1020 C   0  0  0  0  0  0  0  0  0  0  0  0
   55.3430   29.0300   45.0870 O   0  0  0  0  0  0  0  0  0  0  0  0
   56.9460   27.2670   45.5300 C   0  0  0  0  0  0  0  0  0  0  0  0
   55.9440   26.3940   45.9900 C   0  0  0  0  0  0  0  0  0  0  0  0
   56.2790   25.1010   46.4030 C   0  0  0  0  0  0  0  0  0  0  0  0
   57.6080   24.6710   46.3610 C   0  0  0  0  0  0  0  0  0  0  0  0
   58.6110   25.5310   45.9060 C   0  0  0  0  0  0  0  0  0  0  0  0
   58.2870   26.8270   45.4890 C   0  0  0  0  0  0  0  0  0  0  0  0
   59.2460   27.6370   45.0550 O   0  0  0  0  0  0  0  0  0  0  0  0
   59.0100   28.8820   44.6500 C   0  0  0  0  0  0  0  0  0  0  0  0
   59.9770   29.5930   44.2650 O   0  0  0  0  0  0  0  0  0  0  0  0
   56.1048   32.3436   44.8556 H   0  0  0  0  0  0  0  0  0  0  0  0
   56.8083   31.3641   46.1991 H   0  0  0  0  0  0  0  0  0  0  0  0
   61.9907   34.5871   46.7632 H   0  0  0  0  0  0  0  0  0  0  0  0
   61.3597   30.3477   47.4884 H   0  0  0  0  0  0  0  0  0  0  0  0
   59.0866   30.4943   46.4396 H   0  0  0  0  0  0  0  0  0  0  0  0
   54.8967   26.7285   46.0249 H   0  0  0  0  0  0  0  0  0  0  0  0
   55.4937   24.4197   46.7623 H   0  0  0  0  0  0  0  0  0  0  0  0
   57.8653   23.6525   46.6871 H   0  0  0  0  0  0  0  0  0  0  0  0
   59.6561   25.1890   45.8756 H   0  0  0  0  0  0  0  0  0  0  0  0
  1  2  2  0
  2  3  1  0
  3  4  1  0
  4  5  1  0
  5  6  2  0
  5  7  1  0
  7  8  1  0
  8  9  2  0
  9 10  1  0
 10 11  1  0
 10 12  2  0
 12 13  1  0
 13 14  2  0
  2 15  1  0
 15 16  2  0
 16 17  1  0
 16 18  1  0
 18 19  2  0
 19 20  1  0
 20 21  2  0
 21 22  1  0
 22 23  2  0
 23 24  1  0
 24 25  1  0
 25 26  2  0
 14  4  1  0
 25 15  1  0
 14  8  1  0
 23 18  1  0
  3 27  1  0
  3 28  1  0
  9 29  1  0
 12 30  1  0
 13 31  1  0
 19 32  1  0
 20 33  1  0
 21 34  1  0
 22 35  1  0
M  CHG  1  17  -1
M  END
>  <UniqueID>  (53) 
48

>  <SMILES>  (53) 
O=C(Cn1c(=O)sc2cc(Cl)ccc21)c1c([O-])c2ccccc2oc1=O

>  <Energy>  (53) 
86.18711710353763

>  <Genealogy>  (53) 
O=C(Cn1c(=O)sc2cc(Cl)ccc21)c1c([O-])c2ccccc2oc1=O (protonated)
O=C(Cn1c(=O)sc2cc(Cl)ccc21)c1c([O-])c2ccccc2oc1=O (3D coordinates assigned)
O=C(Cn1c(=O)sc2cc(Cl)ccc21)c1c([O-])c2ccccc2oc1=O (optimized conformer: 86.18711710353763 kcal/mol)

>  <smiles>  (53) 
O=C(Cn1c(=O)sc2cc(Cl)ccc21)c1c(O)c2ccccc2oc1=O

>  <score_type>  (53) 
oracle

>  <origin>  (53) 
adg

>  <m_score__min__energy>  (53) 
-12.15

>  <m_primary>  (53) 
energy

$$$$
53:0
     RDKit          3D

 41 42  0  0  0  0  0  0  0  0999 V2000
   59.1338   32.7056   49.2254 H   0  0  0  0  0  0  0  0  0  0  0  0
   59.2060   33.2050   48.2480 C   0  0  0  0  0  0  0  0  0  0  0  0
   58.1640   33.0820   47.3250 C   0  0  0  0  0  0  0  0  0  0  0  0
   57.2857   32.4668   47.5703 H   0  0  0  0  0  0  0  0  0  0  0  0
   58.2320   33.7400   46.0850 C   0  0  0  0  0  0  0  0  0  0  0  0
   57.0790   33.6620   45.1170 C   0  0  0  0  0  0  0  0  0  0  0  0
   57.4007   34.0621   44.1441 H   0  0  0  0  0  0  0  0  0  0  0  0
   56.2442   34.2512   45.5244 H   0  0  0  0  0  0  0  0  0  0  0  0
   56.6250   32.2820   44.9380 N   0  0  0  0  0  0  0  0  0  0  0  0
   57.2580   31.2860   44.1200 C   0  0  0  0  0  0  0  0  0  0  0  0
   57.5240   31.5590   42.9200 O   0  0  0  0  0  0  0  0  0  0  0  0
   57.5390   29.9300   44.6250 C   0  0  0  0  0  0  0  0  0  0  0  0
   58.8620   29.4980   44.7550 C   0  0  0  0  0  0  0  0  0  0  0  0
   59.6888   30.1964   44.5582 H   0  0  0  0  0  0  0  0  0  0  0  0
   59.1300   28.2170   45.1240 N   0  0  0  0  0  0  0  0  0  0  0  0
   60.1260   27.9080   45.1910 H   0  0  0  0  0  0  0  0  0  0  0  0
   58.1230   27.3360   45.3740 C   0  0  0  0  0  0  0  0  0  0  0  0
   58.4080   26.1060   45.6830 N   0  0  0  0  0  0  0  0  0  0  0  0
   57.4600   24.9930   45.6550 C   0  0  0  0  0  0  0  0  0  0  0  0
   58.0053   24.0495   45.8050 H   0  0  0  0  0  0  0  0  0  0  0  0
   56.9493   24.9858   44.6808 H   0  0  0  0  0  0  0  0  0  0  0  0
   56.4120   25.1510   46.7620 C   0  0  0  0  0  0  0  0  0  0  0  0
   56.7336   25.9405   47.4572 H   0  0  0  0  0  0  0  0  0  0  0  0
   56.3103   24.1968   47.2997 H   0  0  0  0  0  0  0  0  0  0  0  0
   55.1610   25.5020   46.2020 O   0  0  0  0  0  0  0  0  0  0  0  0
   54.7040   24.4840   45.3380 C   0  0  0  0  0  0  0  0  0  0  0  0
   54.3252   23.6403   45.9335 H   0  0  0  0  0  0  0  0  0  0  0  0
   53.8959   24.8770   44.7035 H   0  0  0  0  0  0  0  0  0  0  0  0
   55.5346   24.1413   44.7035 H   0  0  0  0  0  0  0  0  0  0  0  0
   56.8280   27.7520   45.2900 N   0  0  0  0  0  0  0  0  0  0  0  0
   56.5150   29.0240   44.9320 C   0  0  0  0  0  0  0  0  0  0  0  0
   55.3060   29.3730   44.8800 O   0  0  0  0  0  0  0  0  0  0  0  0
   59.3730   34.4950   45.7700 C   0  0  0  0  0  0  0  0  0  0  0  0
   59.4462   34.9951   44.7930 H   0  0  0  0  0  0  0  0  0  0  0  0
   60.4170   34.6140   46.6930 C   0  0  0  0  0  0  0  0  0  0  0  0
   61.3000   35.2214   46.4450 H   0  0  0  0  0  0  0  0  0  0  0  0
   60.3440   33.9630   47.9330 C   0  0  0  0  0  0  0  0  0  0  0  0
   61.4370   34.1380   48.9450 C   0  0  0  0  0  0  0  0  0  0  0  0
   61.0132   34.0702   49.9578 H   0  0  0  0  0  0  0  0  0  0  0  0
   62.1917   33.3493   48.8097 H   0  0  0  0  0  0  0  0  0  0  0  0
   61.9077   35.1229   48.8097 H   0  0  0  0  0  0  0  0  0  0  0  0
  1  2  1  0
  2  3  2  0
  3  4  1  0
  3  5  1  0
  5  6  1  0
  6  7  1  0
  6  8  1  0
  6  9  1  0
  9 10  1  0
 10 11  2  0
 10 12  1  0
 12 13  2  0
 13 14  1  0
 13 15  1  0
 15 16  1  0
 15 17  1  0
 17 18  2  0
 18 19  1  0
 19 20  1  0
 19 21  1  0
 19 22  1  0
 22 23  1  0
 22 24  1  0
 22 25  1  0
 25 26  1  0
 26 27  1  0
 26 28  1  0
 26 29  1  0
 17 30  1  0
 30 31  1  0
 31 32  2  0
  5 33  2  0
 33 34  1  0
 33 35  1  0
 35 36  1  0
 35 37  2  0
 37 38  1  0
 38 39  1  0
 38 40  1  0
 38 41  1  0
 37  2  1  0
 31 12  1  0
M  CHG  2   9  -1  30  -1
M  END
>  <UniqueID>  (54) 
49

>  <SMILES>  (54) 
COCC/N=c1\[n-]c(=O)c(C(=O)[N-]Cc2ccc(C)cc2)c[nH]1

>  <Energy>  (54) 
43.737851743783565

>  <Genealogy>  (54) 
COCCN=c1[n-]c(=O)c(C(=O)[N-]Cc2ccc(C)cc2)c[nH]1 (protonated)
COCC/N=c1\[n-]c(=O)c(C(=O)[N-]Cc2ccc(C)cc2)c[nH]1 (cis-trans isomerization)
COCC/N=c1\[n-]c(=O)c(C(=O)[N-]Cc2ccc(C)cc2)c[nH]1 (3D coordinates assigned)
COCC/N=c1\[n-]c(=O)c(C(=O)[N-]Cc2ccc(C)cc2)c[nH]1 (optimized conformer: 43.737851743783565 kcal/mol)

>  <smiles>  (54) 
COCCN=c1[nH]cc(C(=O)NCc2ccc(C)cc2)c(=O)[nH]1

>  <score_type>  (54) 
oracle

>  <origin>  (54) 
adg

>  <m_score__min__energy>  (54) 
-10.74

>  <m_primary>  (54) 
energy

$$$$
54:0
     RDKit          3D

 53 56  0  0  0  0  0  0  0  0999 V2000
   54.7560   25.9660   46.3720 H   0  0  0  0  0  0  0  0  0  0  0  0
   54.0820   25.7920   45.6660 O   0  0  0  0  0  0  0  0  0  0  0  0
   54.3150   24.4830   45.2160 C   0  0  0  0  0  0  0  0  0  0  0  0
   53.9205   24.3762   44.1947 H   0  0  0  0  0  0  0  0  0  0  0  0
   53.8101   23.7797   45.8945 H   0  0  0  0  0  0  0  0  0  0  0  0
   55.8270   24.1710   45.2110 C   0  0  0  0  0  0  0  0  0  0  0  0
   56.1186   23.9037   44.1846 H   0  0  0  0  0  0  0  0  0  0  0  0
   55.9783   23.3525   45.9302 H   0  0  0  0  0  0  0  0  0  0  0  0
   56.6880   25.2860   45.6590 N   0  0  0  0  0  0  0  0  0  0  0  0
   57.4690   25.9140   44.5650 C   0  0  0  0  0  0  0  0  0  0  0  0
   56.8284   26.6508   44.0584 H   0  0  0  0  0  0  0  0  0  0  0  0
   57.7890   25.1060   43.8907 H   0  0  0  0  0  0  0  0  0  0  0  0
   58.7450   26.6300   45.0530 C   0  0  0  0  0  0  0  0  0  0  0  0
   58.9684   27.4664   44.3743 H   0  0  0  0  0  0  0  0  0  0  0  0
   59.5704   25.9029   45.0593 H   0  0  0  0  0  0  0  0  0  0  0  0
   58.5760   27.1520   46.4170 N   0  0  0  0  0  0  0  0  0  0  0  0
   59.2000   28.3930   46.7980 C   0  0  0  0  0  0  0  0  0  0  0  0
   59.2700   28.7750   48.1420 C   0  0  0  0  0  0  0  0  0  0  0  0
   58.8555   28.1176   48.9205 H   0  0  0  0  0  0  0  0  0  0  0  0
   59.8480   29.9550   48.4900 N   0  0  0  0  0  0  0  0  0  0  0  0
   60.3920   30.8010   47.5750 C   0  0  0  0  0  0  0  0  0  0  0  0
   60.9080   31.9210   47.9950 N   0  0  0  0  0  0  0  0  0  0  0  0
   62.1820   32.1080   48.6330 C   0  0  0  0  0  0  0  0  0  0  0  0
   62.3220   32.0070   50.0220 C   0  0  0  0  0  0  0  0  0  0  0  0
   61.4576   31.7304   50.6436 H   0  0  0  0  0  0  0  0  0  0  0  0
   63.5570   32.2570   50.6170 C   0  0  0  0  0  0  0  0  0  0  0  0
   63.6740   32.1648   51.7069 H   0  0  0  0  0  0  0  0  0  0  0  0
   64.6540   32.6280   49.8170 C   0  0  0  0  0  0  0  0  0  0  0  0
   65.9750   32.8990   50.4340 C   0  0  0  0  0  0  0  0  0  0  0  0
   67.0610   32.0410   50.5160 C   0  0  0  0  0  0  0  0  0  0  0  0
   67.0873   31.0098   50.1339 H   0  0  0  0  0  0  0  0  0  0  0  0
   68.0790   32.6680   51.1370 N   0  0  0  0  0  0  0  0  0  0  0  0
   67.6640   33.8830   51.4580 N   0  0  0  0  0  0  0  0  0  0  0  0
   68.5080   34.8910   52.0820 C   0  0  0  0  0  0  0  0  0  0  0  0
   68.4352   34.8040   53.1761 H   0  0  0  0  0  0  0  0  0  0  0  0
   69.5520   34.7389   51.7708 H   0  0  0  0  0  0  0  0  0  0  0  0
   68.1748   35.8920   51.7708 H   0  0  0  0  0  0  0  0  0  0  0  0
   66.3990   34.0660   51.0420 C   0  0  0  0  0  0  0  0  0  0  0  0
   65.8050   34.9838   51.1640 H   0  0  0  0  0  0  0  0  0  0  0  0
   64.4850   32.7420   48.4660 N   0  0  0  0  0  0  0  0  0  0  0  0
   65.2800   33.0370   47.8580 H   0  0  0  0  0  0  0  0  0  0  0  0
   63.2830   32.5090   47.8710 C   0  0  0  0  0  0  0  0  0  0  0  0
   63.1775   32.6371   46.7836 H   0  0  0  0  0  0  0  0  0  0  0  0
   60.3370   30.4560   46.2100 C   0  0  0  0  0  0  0  0  0  0  0  0
   60.7612   31.1288   45.4502 H   0  0  0  0  0  0  0  0  0  0  0  0
   59.7390   29.2520   45.8300 C   0  0  0  0  0  0  0  0  0  0  0  0
   59.6908   28.9766   44.7661 H   0  0  0  0  0  0  0  0  0  0  0  0
   57.9810   26.3000   47.4560 C   0  0  0  0  0  0  0  0  0  0  0  0
   57.1382   26.8336   47.9197 H   0  0  0  0  0  0  0  0  0  0  0  0
   58.7523   26.0719   48.2064 H   0  0  0  0  0  0  0  0  0  0  0  0
   57.4750   24.9860   46.8630 C   0  0  0  0  0  0  0  0  0  0  0  0
   56.8432   24.4667   47.5986 H   0  0  0  0  0  0  0  0  0  0  0  0
   58.3260   24.3390   46.6036 H   0  0  0  0  0  0  0  0  0  0  0  0
  1  2  1  0
  2  3  1  0
  3  4  1  0
  3  5  1  0
  3  6  1  0
  6  7  1  0
  6  8  1  0
  6  9  1  0
  9 10  1  0
 10 11  1  0
 10 12  1  0
 10 13  1  0
 13 14  1  0
 13 15  1  0
 13 16  1  0
 16 17  1  0
 17 18  2  0
 18 19  1  0
 18 20  1  0
 20 21  1  0
 21 22  2  0
 22 23  1  0
 23 24  2  0
 24 25  1  0
 24 26  1  0
 26 27  1  0
 26 28  2  0
 28 29  1  0
 29 30  1  0
 30 31  1  0
 30 32  2  0
 32 33  1  0
 33 34  1  0
 34 35  1  0
 34 36  1  0
 34 37  1  0
 33 38  1  0
 38 39  1  0
 28 40  1  0
 40 41  1  0
 40 42  2  0
 42 43  1  0
 21 44  1  0
 44 45  1  0
 44 46  2  0
 46 47  1  0
 16 48  1  0
 48 49  1  0
 48 50  1  0
 48 51  1  0
 51 52  1  0
 51 53  1  0
 51  9  1  0
 46 17  1  0
 42 23  1  0
 38 29  2  0
M  CHG  2  20  -1  40   1
M  END
>  <UniqueID>  (55) 
50

>  <SMILES>  (55) 
Cn1cc(-c2ccc(/N=c3\ccc(N4CCN(CCO)CC4)c[n-]3)c[nH+]2)cn1

>  <Energy>  (55) 
108.89708023634574

>  <Genealogy>  (55) 
Cn1cc(-c2ccc(N=c3ccc(N4CCN(CCO)CC4)c[n-]3)c[nH+]2)cn1 (protonated)
Cn1cc(-c2ccc(/N=c3\ccc(N4CCN(CCO)CC4)c[n-]3)c[nH+]2)cn1 (cis-trans isomerization)
Cn1cc(-c2ccc(/N=c3\ccc(N4CCN(CCO)CC4)c[n-]3)c[nH+]2)cn1 (3D coordinates assigned)
Cn1cc(-c2ccc(/N=c3\ccc(N4CCN(CCO)CC4)c[n-]3)c[nH+]2)cn1 (nonaromatic ring conformer: 108.89708023634574 kcal/mol)

>  <smiles>  (55) 
Cn1cc(-c2ccc(N=c3ccc(N4CCN(CCO)CC4)c[nH]3)cn2)cn1

>  <score_type>  (55) 
oracle

>  <origin>  (55) 
adg

>  <m_score__min__energy>  (55) 
-6.9400000000000004

>  <m_primary>  (55) 
energy

$$$$
55:0
     RDKit          3D

 64 67  0  0  0  0  0  0  0  0999 V2000
   58.6623   28.6098   49.9418 H   0  0  0  0  0  0  0  0  0  0  0  0
   59.3200   29.1890   49.2770 C   0  0  0  0  0  0  0  0  0  0  0  0
   59.5930   28.7170   47.9910 C   0  0  0  0  0  0  0  0  0  0  0  0
   59.1610   27.7632   47.6540 H   0  0  0  0  0  0  0  0  0  0  0  0
   60.4170   29.4560   47.1270 C   0  0  0  0  0  0  0  0  0  0  0  0
   60.7480   28.9350   45.7580 C   0  0  0  0  0  0  0  0  0  0  0  0
   61.7678   28.5226   45.7592 H   0  0  0  0  0  0  0  0  0  0  0  0
   60.6854   29.7556   45.0282 H   0  0  0  0  0  0  0  0  0  0  0  0
   59.7990   27.8860   45.3940 N   0  0  0  0  0  0  0  0  0  0  0  0
   58.5120   28.0550   45.3510 C   0  0  0  0  0  0  0  0  0  0  0  0
   57.6630   27.0570   45.7180 N   0  0  0  0  0  0  0  0  0  0  0  0
   56.3180   27.2470   45.6720 C   0  0  0  0  0  0  0  0  0  0  0  0
   55.4950   26.3040   46.0250 N   0  0  0  0  0  0  0  0  0  0  0  0
   55.8910   25.0310   46.6260 C   0  0  0  0  0  0  0  0  0  0  0  0
   56.8566   25.1569   47.1377 H   0  0  0  0  0  0  0  0  0  0  0  0
   55.1187   24.7212   47.3455 H   0  0  0  0  0  0  0  0  0  0  0  0
   56.0250   23.9730   45.5720 C   0  0  0  0  0  0  0  0  0  0  0  0
   57.4710   23.2370   45.1250 S   0  0  0  0  0  0  0  0  0  0  0  0
   56.7450   22.3050   43.9280 C   0  0  0  0  0  0  0  0  0  0  0  0
   57.4760   21.4010   42.9940 C   0  0  0  0  0  0  0  0  0  0  0  0
   58.0641   20.6737   43.5729 H   0  0  0  0  0  0  0  0  0  0  0  0
   56.7531   20.8665   42.3601 H   0  0  0  0  0  0  0  0  0  0  0  0
   58.1499   21.9960   42.3601 H   0  0  0  0  0  0  0  0  0  0  0  0
   55.4200   22.5560   43.8350 N   0  0  0  0  0  0  0  0  0  0  0  0
   55.0100   23.4790   44.7480 C   0  0  0  0  0  0  0  0  0  0  0  0
   53.5790   23.9060   44.8390 C   0  0  0  0  0  0  0  0  0  0  0  0
   53.2887   23.9926   45.8965 H   0  0  0  0  0  0  0  0  0  0  0  0
   53.4549   24.8803   44.3437 H   0  0  0  0  0  0  0  0  0  0  0  0
   52.9413   23.1590   44.3437 H   0  0  0  0  0  0  0  0  0  0  0  0
   55.8240   28.4400   45.2570 N   0  0  0  0  0  0  0  0  0  0  0  0
   56.6670   29.4440   44.8870 C   0  0  0  0  0  0  0  0  0  0  0  0
   56.2070   30.5880   44.4820 N   0  0  0  0  0  0  0  0  0  0  0  0
   57.0200   31.6110   43.8290 C   0  0  0  0  0  0  0  0  0  0  0  0
   56.3759   32.2501   43.2071 H   0  0  0  0  0  0  0  0  0  0  0  0
   57.7781   31.1285   43.1946 H   0  0  0  0  0  0  0  0  0  0  0  0
   57.6990   32.4490   44.8730 C   0  0  0  0  0  0  0  0  0  0  0  0
   57.7770   31.9970   46.1980 C   0  0  0  0  0  0  0  0  0  0  0  0
   57.3589   31.0158   46.4672 H   0  0  0  0  0  0  0  0  0  0  0  0
   58.3840   32.7880   47.1790 C   0  0  0  0  0  0  0  0  0  0  0  0
   58.4468   32.4231   48.2148 H   0  0  0  0  0  0  0  0  0  0  0  0
   58.9150   34.0490   46.8470 C   0  0  0  0  0  0  0  0  0  0  0  0
   59.5360   34.8770   47.7940 O   0  0  0  0  0  0  0  0  0  0  0  0
   59.7720   34.5110   49.1500 C   0  0  0  0  0  0  0  0  0  0  0  0
   59.2977   35.2466   49.8162 H   0  0  0  0  0  0  0  0  0  0  0  0
   59.3455   33.5151   49.3406 H   0  0  0  0  0  0  0  0  0  0  0  0
   60.8551   34.4886   49.3406 H   0  0  0  0  0  0  0  0  0  0  0  0
   58.8230   34.5020   45.5250 C   0  0  0  0  0  0  0  0  0  0  0  0
   59.2336   35.4864   45.2559 H   0  0  0  0  0  0  0  0  0  0  0  0
   58.2140   33.7140   44.5450 C   0  0  0  0  0  0  0  0  0  0  0  0
   58.1376   34.0857   43.5125 H   0  0  0  0  0  0  0  0  0  0  0  0
   58.0080   29.2450   44.9390 N   0  0  0  0  0  0  0  0  0  0  0  0
   60.9760   30.6610   47.5750 C   0  0  0  0  0  0  0  0  0  0  0  0
   61.6315   31.2404   46.9082 H   0  0  0  0  0  0  0  0  0  0  0  0
   60.7060   31.1310   48.8630 C   0  0  0  0  0  0  0  0  0  0  0  0
   61.1437   32.0814   49.2023 H   0  0  0  0  0  0  0  0  0  0  0  0
   59.8760   30.3930   49.7280 C   0  0  0  0  0  0  0  0  0  0  0  0
   59.5800   30.8280   51.0620 N   0  0  0  0  0  0  0  0  0  0  0  0
   58.0040   31.2370   51.6630 S   0  0  0  0  0  0  0  0  0  0  0  0
   57.4050   32.2980   50.7840 O   0  0  0  0  0  0  0  0  0  0  0  0
   57.1140   30.0250   51.6360 O   0  0  0  0  0  0  0  0  0  0  0  0
   58.1350   31.8720   53.3220 C   0  0  0  0  0  0  0  0  0  0  0  0
   57.9668   31.0567   54.0410 H   0  0  0  0  0  0  0  0  0  0  0  0
   59.1392   32.2943   53.4748 H   0  0  0  0  0  0  0  0  0  0  0  0
   57.3799   32.6572   53.4748 H   0  0  0  0  0  0  0  0  0  0  0  0
  1  2  1  0
  2  3  2  0
  3  4  1  0
  3  5  1  0
  5  6  1  0
  6  7  1  0
  6  8  1  0
  6  9  1  0
  9 10  2  3
 10 11  1  0
 11 12  1  0
 12 13  2  3
 13 14  1  0
 14 15  1  0
 14 16  1  0
 14 17  1  0
 17 18  1  0
 18 19  1  0
 19 20  1  0
 20 21  1  0
 20 22  1  0
 20 23  1  0
 19 24  2  0
 24 25  1  0
 25 26  1  0
 26 27  1  0
 26 28  1  0
 26 29  1  0
 12 30  1  0
 30 31  1  0
 31 32  2  0
 32 33  1  0
 33 34  1  0
 33 35  1  0
 33 36  1  0
 36 37  2  0
 37 38  1  0
 37 39  1  0
 39 40  1  0
 39 41  2  0
 41 42  1  0
 42 43  1  0
 43 44  1  0
 43 45  1  0
 43 46  1  0
 41 47  1  0
 47 48  1  0
 47 49  2  0
 49 50  1  0
 31 51  1  0
  5 52  2  0
 52 53  1  0
 52 54  1  0
 54 55  1  0
 54 56  2  0
 56 57  1  0
 57 58  1  0
 58 59  2  0
 58 60  2  0
 58 61  1  0
 61 62  1  0
 61 63  1  0
 61 64  1  0
 56  2  1  0
 51 10  1  0
 25 17  2  0
 49 36  1  0
M  CHG  4  11  -1  30  -1  51  -1  57  -1
M  END
>  <UniqueID>  (56) 
51

>  <SMILES>  (56) 
COc1ccc(C/N=c2/[n-]c(=NCc3ccc([N-]S(C)(=O)=O)cc3)[n-]c(=NCc3sc(C)nc3C)[n-]2)cc1

>  <Energy>  (56) 
88.5142689612334

>  <Genealogy>  (56) 
COc1ccc(CN=c2[n-]c(=NCc3ccc([N-]S(C)(=O)=O)cc3)[n-]c(=NCc3sc(C)nc3C)[n-]2)cc1 (protonated)
COc1ccc(C/N=c2/[n-]c(=NCc3ccc([N-]S(C)(=O)=O)cc3)[n-]c(=NCc3sc(C)nc3C)[n-]2)cc1 (cis-trans isomerization)
COc1ccc(C/N=c2/[n-]c(=NCc3ccc([N-]S(C)(=O)=O)cc3)[n-]c(=NCc3sc(C)nc3C)[n-]2)cc1 (3D coordinates assigned)
COc1ccc(C/N=c2/[n-]c(=NCc3ccc([N-]S(C)(=O)=O)cc3)[n-]c(=NCc3sc(C)nc3C)[n-]2)cc1 (optimized conformer: 88.5142689612334 kcal/mol)

>  <smiles>  (56) 
COc1ccc(CN=c2[nH]c(=NCc3ccc(NS(C)(=O)=O)cc3)[nH]c(=NCc3sc(C)nc3C)[nH]2)cc1

>  <score_type>  (56) 
oracle

>  <origin>  (56) 
adg

>  <m_score__min__energy>  (56) 
-15.1

>  <m_primary>  (56) 
energy

$$$$
56:0
     RDKit          3D

 41 43  0  0  1  0  0  0  0  0999 V2000
   56.6400   26.7200   46.3030 C   0  0  0  0  0  0  0  0  0  0  0  0
   57.3130   27.8100   45.5210 C   0  0  0  0  0  0  0  0  0  0  0  0
   58.4740   27.5620   44.8210 C   0  0  0  0  0  0  0  0  0  0  0  0
   59.0200   28.6330   44.1300 C   0  0  0  0  0  0  0  0  0  0  0  0
   58.4150   29.8510   44.1610 N   0  0  0  0  0  0  0  0  0  0  0  0
   57.2690   30.0480   44.8640 C   0  0  0  0  0  0  0  0  0  0  0  0
   56.6810   31.2050   44.9020 N   0  0  0  0  0  0  0  0  0  0  0  0
   57.6020   32.6220   44.5640 S   0  0  0  0  0  0  0  0  0  0  0  0
   58.1010   32.6580   43.1600 O   0  0  0  0  0  0  0  0  0  0  0  0
   56.6540   33.7890   44.7940 O   0  0  0  0  0  0  0  0  0  0  0  0
   58.9480   32.8130   45.6650 C   0  0  0  0  0  0  0  0  0  0  0  0
   59.3100   31.7770   46.4960 C   0  0  0  0  0  0  0  0  0  0  0  0
   60.3840   31.9890   47.3450 C   0  0  0  0  0  0  0  0  0  0  0  0
   61.0790   33.1930   47.3690 C   0  0  0  0  0  0  0  0  0  0  0  0
   62.1600   33.3130   48.2700 N   0  0  0  0  0  0  0  0  0  0  0  0
   61.9680   33.5450   49.6670 C   0  0  0  0  0  0  0  0  0  0  0  0
   63.1740   34.1360   50.3520 C   0  0  0  0  0  0  0  0  0  0  0  0
   64.4420   33.3910   50.1000 C   0  0  0  0  0  0  0  0  0  0  0  0
   64.5990   33.1100   48.6740 N   0  0  0  0  0  0  0  0  0  0  0  0
   63.4870   33.1980   47.7700 C   0  0  0  0  0  0  0  0  0  0  0  0
   63.7140   33.1730   46.5370 O   0  0  0  0  0  0  0  0  0  0  0  0
   60.6920   34.2160   46.5230 C   0  0  0  0  0  0  0  0  0  0  0  0
   59.6170   34.0200   45.6650 C   0  0  0  0  0  0  0  0  0  0  0  0
   56.7230   29.0150   45.5450 N   0  0  0  0  0  0  0  0  0  0  0  0
   56.7595   26.9135   47.3792 H   0  0  0  0  0  0  0  0  0  0  0  0
   55.5694   26.6957   46.0515 H   0  0  0  0  0  0  0  0  0  0  0  0
   57.0979   25.7520   46.0515 H   0  0  0  0  0  0  0  0  0  0  0  0
   58.9428   26.5669   44.8110 H   0  0  0  0  0  0  0  0  0  0  0  0
   59.9471   28.4970   43.5538 H   0  0  0  0  0  0  0  0  0  0  0  0
   58.8200   30.6450   43.6470 H   0  0  0  0  0  0  0  0  0  0  0  0
   58.7684   30.8196   46.4863 H   0  0  0  0  0  0  0  0  0  0  0  0
   60.6967   31.1796   48.0212 H   0  0  0  0  0  0  0  0  0  0  0  0
   61.1229   34.2381   49.7915 H   0  0  0  0  0  0  0  0  0  0  0  0
   61.7791   32.5669   50.1335 H   0  0  0  0  0  0  0  0  0  0  0  0
   63.3029   35.1685   49.9952 H   0  0  0  0  0  0  0  0  0  0  0  0
   62.9833   34.0820   51.4340 H   0  0  0  0  0  0  0  0  0  0  0  0
   65.2924   33.9977   50.4447 H   0  0  0  0  0  0  0  0  0  0  0  0
   64.4080   32.4376   50.6477 H   0  0  0  0  0  0  0  0  0  0  0  0
   65.5300   32.8350   48.2730 H   0  0  0  0  0  0  0  0  0  0  0  0
   61.2299   35.1755   46.5293 H   0  0  0  0  0  0  0  0  0  0  0  0
   59.2996   34.8257   44.9867 H   0  0  0  0  0  0  0  0  0  0  0  0
  1  2  1  0
  2  3  1  0
  3  4  2  0
  4  5  1  0
  5  6  1  0
  6  7  2  0
  7  8  1  0
  8  9  2  0
  8 10  2  0
  8 11  1  0
 11 12  2  0
 12 13  1  0
 13 14  2  0
 14 15  1  0
 15 16  1  0
 16 17  1  0
 17 18  1  0
 18 19  1  0
 19 20  1  0
 20 21  2  0
 14 22  1  0
 22 23  2  0
  6 24  1  0
 24  2  2  0
 23 11  1  0
 20 15  1  0
  1 25  1  0
  1 26  1  0
  1 27  1  0
  3 28  1  0
  4 29  1  0
  5 30  1  0
 12 31  1  0
 13 32  1  0
 16 33  1  0
 16 34  1  0
 17 35  1  0
 17 36  1  0
 18 37  1  0
 18 38  1  0
 19 39  1  0
 22 40  1  0
 23 41  1  0
M  END
>  <smiles>  (57) 
Cc1cc[nH]c(=NS(=O)(=O)c2ccc(N3CCCNC3=O)cc2)n1

>  <score_type>  (57) 
oracle

>  <origin>  (57) 
adg

>  <m_score__min__energy>  (57) 
-8.1400000000000006

>  <m_primary>  (57) 
energy

$$$$
57:0
     RDKit          3D

 60 64  0  0  0  0  0  0  0  0999 V2000
   63.7910   32.4710   52.9910 C   0  0  0  0  0  0  0  0  0  0  0  0
   63.2870   32.8600   51.6760 N   0  0  0  0  0  0  0  0  0  0  0  0
   64.0190   32.9370   50.5380 C   0  0  0  0  0  0  0  0  0  0  0  0
   63.2180   33.3570   49.4810 C   0  0  0  0  0  0  0  0  0  0  0  0
   63.6610   33.6250   48.0730 C   0  0  0  0  0  0  0  0  0  0  0  0
   62.6680   33.0570   47.1060 C   0  0  0  0  0  0  0  0  0  0  0  0
   62.5340   33.5910   45.9710 O   0  0  0  0  0  0  0  0  0  0  0  0
   61.8810   31.9120   47.4680 N   0  0  0  0  0  0  0  0  0  0  0  0
   60.7060   31.5000   46.7520 C   0  0  0  0  0  0  0  0  0  0  0  0
   59.6320   32.3840   46.5430 C   0  0  0  0  0  0  0  0  0  0  0  0
   58.4940   31.9580   45.8520 C   0  0  0  0  0  0  0  0  0  0  0  0
   58.4130   30.6460   45.3650 C   0  0  0  0  0  0  0  0  0  0  0  0
   56.9750   30.1180   44.4950 S   0  0  0  0  0  0  0  0  0  0  0  0
   57.2860   29.9170   43.0350 O   0  0  0  0  0  0  0  0  0  0  0  0
   55.9120   31.1760   44.6110 O   0  0  0  0  0  0  0  0  0  0  0  0
   56.3810   28.6370   45.1820 N   0  0  0  0  0  0  0  0  0  0  0  0
   57.1450   27.6850   45.6280 C   0  0  0  0  0  0  0  0  0  0  0  0
   57.4150   26.6160   44.8290 N   0  0  0  0  0  0  0  0  0  0  0  0
   58.2080   25.6000   45.2610 C   0  0  0  0  0  0  0  0  0  0  0  0
   58.7600   25.6430   46.5420 C   0  0  0  0  0  0  0  0  0  0  0  0
   58.4750   26.7440   47.3500 C   0  0  0  0  0  0  0  0  0  0  0  0
   57.6770   27.7400   46.8810 N   0  0  0  0  0  0  0  0  0  0  0  0
   59.4690   29.7550   45.5970 C   0  0  0  0  0  0  0  0  0  0  0  0
   60.6040   30.1770   46.2940 C   0  0  0  0  0  0  0  0  0  0  0  0
   61.9600   33.5520   50.0210 C   0  0  0  0  0  0  0  0  0  0  0  0
   60.7730   33.9890   49.4550 C   0  0  0  0  0  0  0  0  0  0  0  0
   59.6860   34.1040   50.2720 N   0  0  0  0  0  0  0  0  0  0  0  0
   59.7380   33.8180   51.5850 N   0  0  0  0  0  0  0  0  0  0  0  0
   58.5100   33.9610   52.3730 C   0  0  0  0  0  0  0  0  0  0  0  0
   57.8550   32.6200   52.5690 C   0  0  0  0  0  0  0  0  0  0  0  0
   57.8530   32.0020   53.8320 C   0  0  0  0  0  0  0  0  0  0  0  0
   57.2580   30.7480   54.0010 C   0  0  0  0  0  0  0  0  0  0  0  0
   56.6670   30.1010   52.9100 C   0  0  0  0  0  0  0  0  0  0  0  0
   56.6720   30.7070   51.6500 C   0  0  0  0  0  0  0  0  0  0  0  0
   57.2650   31.9620   51.4750 C   0  0  0  0  0  0  0  0  0  0  0  0
   60.9070   33.3770   52.1630 C   0  0  0  0  0  0  0  0  0  0  0  0
   60.9600   33.1000   53.3930 O   0  0  0  0  0  0  0  0  0  0  0  0
   62.0330   33.2460   51.3490 C   0  0  0  0  0  0  0  0  0  0  0  0
   63.1785   32.9437   53.7729 H   0  0  0  0  0  0  0  0  0  0  0  0
   63.7382   31.3772   53.0951 H   0  0  0  0  0  0  0  0  0  0  0  0
   64.8357   32.7992   53.0951 H   0  0  0  0  0  0  0  0  0  0  0  0
   65.0908   32.7016   50.4613 H   0  0  0  0  0  0  0  0  0  0  0  0
   63.7412   34.7109   47.9169 H   0  0  0  0  0  0  0  0  0  0  0  0
   64.6393   33.1506   47.9060 H   0  0  0  0  0  0  0  0  0  0  0  0
   62.2310   31.2950   48.2370 H   0  0  0  0  0  0  0  0  0  0  0  0
   59.6878   33.4142   46.9247 H   0  0  0  0  0  0  0  0  0  0  0  0
   57.6587   32.6551   45.6897 H   0  0  0  0  0  0  0  0  0  0  0  0
   58.4145   24.7444   44.6012 H   0  0  0  0  0  0  0  0  0  0  0  0
   59.4040   24.8288   46.9057 H   0  0  0  0  0  0  0  0  0  0  0  0
   58.8951   26.8062   48.3647 H   0  0  0  0  0  0  0  0  0  0  0  0
   59.4043   28.7203   45.2294 H   0  0  0  0  0  0  0  0  0  0  0  0
   61.4230   29.4679   46.4851 H   0  0  0  0  0  0  0  0  0  0  0  0
   60.7092   34.2346   48.3847 H   0  0  0  0  0  0  0  0  0  0  0  0
   58.7571   34.3910   53.3549 H   0  0  0  0  0  0  0  0  0  0  0  0
   57.8153   34.6230   51.8353 H   0  0  0  0  0  0  0  0  0  0  0  0
   58.3211   32.5067   54.6900 H   0  0  0  0  0  0  0  0  0  0  0  0
   57.2545   30.2700   54.9917 H   0  0  0  0  0  0  0  0  0  0  0  0
   56.1982   29.1149   53.0438 H   0  0  0  0  0  0  0  0  0  0  0  0
   56.2083   30.1955   50.7937 H   0  0  0  0  0  0  0  0  0  0  0  0
   57.2698   32.4342   50.4815 H   0  0  0  0  0  0  0  0  0  0  0  0
  1  2  1  0
  2  3  1  0
  3  4  2  0
  4  5  1  0
  5  6  1  0
  6  7  2  0
  6  8  1  0
  8  9  1  0
  9 10  2  0
 10 11  1  0
 11 12  2  0
 12 13  1  0
 13 14  2  0
 13 15  2  0
 13 16  1  0
 16 17  2  3
 17 18  1  0
 18 19  2  0
 19 20  1  0
 20 21  2  0
 21 22  1  0
 12 23  1  0
 23 24  2  0
  4 25  1  0
 25 26  1  0
 26 27  2  0
 27 28  1  0
 28 29  1  0
 29 30  1  0
 30 31  2  0
 31 32  1  0
 32 33  2  0
 33 34  1  0
 34 35  2  0
 28 36  1  0
 36 37  2  0
 36 38  1  0
 38  2  1  0
 24  9  1  0
 38 25  2  0
 22 17  1  0
 35 30  1  0
  1 39  1  0
  1 40  1  0
  1 41  1  0
  3 42  1  0
  5 43  1  0
  5 44  1  0
  8 45  1  0
 10 46  1  0
 11 47  1  0
 19 48  1  0
 20 49  1  0
 21 50  1  0
 23 51  1  0
 24 52  1  0
 26 53  1  0
 29 54  1  0
 29 55  1  0
 31 56  1  0
 32 57  1  0
 33 58  1  0
 34 59  1  0
 35 60  1  0
M  CHG  1  22  -1
M  END
>  <UniqueID>  (58) 
52

>  <SMILES>  (58) 
Cn1cc(CC(=O)Nc2ccc(S(=O)(=O)N=c3nccc[n-]3)cc2)c2cnn(Cc3ccccc3)c(=O)c21

>  <Energy>  (58) 
107.6869790073926

>  <Genealogy>  (58) 
Cn1cc(CC(=O)Nc2ccc(S(=O)(=O)N=c3nccc[n-]3)cc2)c2cnn(Cc3ccccc3)c(=O)c21 (protonated)
Cn1cc(CC(=O)Nc2ccc(S(=O)(=O)N=c3nccc[n-]3)cc2)c2cnn(Cc3ccccc3)c(=O)c21 (3D coordinates assigned)
Cn1cc(CC(=O)Nc2ccc(S(=O)(=O)N=c3nccc[n-]3)cc2)c2cnn(Cc3ccccc3)c(=O)c21 (optimized conformer: 107.6869790073926 kcal/mol)

>  <smiles>  (58) 
Cn1cc(CC(=O)Nc2ccc(S(=O)(=O)N=c3nccc[nH]3)cc2)c2cnn(Cc3ccccc3)c(=O)c21

>  <score_type>  (58) 
oracle

>  <origin>  (58) 
adg

>  <m_score__min__energy>  (58) 
-11.43

>  <m_primary>  (58) 
energy

$$$$
58:0
     RDKit          3D

 45 47  0  0  0  0  0  0  0  0999 V2000
   59.7329   25.6397   46.5214 H   0  0  0  0  0  0  0  0  0  0  0  0
   58.8740   26.2390   46.1850 C   0  0  0  0  0  0  0  0  0  0  0  0
   57.5750   25.7700   46.3880 C   0  0  0  0  0  0  0  0  0  0  0  0
   57.4160   24.8038   46.8892 H   0  0  0  0  0  0  0  0  0  0  0  0
   56.4730   26.5190   45.9590 C   0  0  0  0  0  0  0  0  0  0  0  0
   55.1880   25.9990   46.1790 O   0  0  0  0  0  0  0  0  0  0  0  0
   54.7030   24.7880   45.6110 C   0  0  0  0  0  0  0  0  0  0  0  0
   54.4241   24.0916   46.4155 H   0  0  0  0  0  0  0  0  0  0  0  0
   53.8212   25.0020   44.9892 H   0  0  0  0  0  0  0  0  0  0  0  0
   55.4887   24.3342   44.9892 H   0  0  0  0  0  0  0  0  0  0  0  0
   56.6880   27.7580   45.3250 C   0  0  0  0  0  0  0  0  0  0  0  0
   55.8288   28.3521   44.9803 H   0  0  0  0  0  0  0  0  0  0  0  0
   57.9940   28.2400   45.1300 C   0  0  0  0  0  0  0  0  0  0  0  0
   58.2260   29.5480   44.4230 C   0  0  0  0  0  0  0  0  0  0  0  0
   59.2967   29.7971   44.4615 H   0  0  0  0  0  0  0  0  0  0  0  0
   57.9001   29.4535   43.3766 H   0  0  0  0  0  0  0  0  0  0  0  0
   57.4370   30.6430   45.0860 C   0  0  0  0  0  0  0  0  0  0  0  0
   56.4360   31.1280   44.4940 O   0  0  0  0  0  0  0  0  0  0  0  0
   57.8760   31.2350   46.3160 N   0  0  0  0  0  0  0  0  0  0  0  0
   58.4480   32.3980   46.4700 C   0  0  0  0  0  0  0  0  0  0  0  0
   59.3040   32.6770   47.5570 C   0  0  0  0  0  0  0  0  0  0  0  0
   59.5006   31.9058   48.3164 H   0  0  0  0  0  0  0  0  0  0  0  0
   59.9030   33.9400   47.6660 C   0  0  0  0  0  0  0  0  0  0  0  0
   60.8710   34.2310   48.7820 C   0  0  0  0  0  0  0  0  0  0  0  0
   60.6830   35.2433   49.1691 H   0  0  0  0  0  0  0  0  0  0  0  0
   60.7280   33.4868   49.5793 H   0  0  0  0  0  0  0  0  0  0  0  0
   62.2570   34.1480   48.2980 N   0  0  0  0  0  0  0  0  0  0  0  0
   63.0100   33.5500   49.2670 O   0  0  0  0  0  0  0  0  0  0  0  0
   64.1430   33.0380   48.6100 C   0  0  0  0  0  0  0  0  0  0  0  0
   64.4859   32.1228   49.1148 H   0  0  0  0  0  0  0  0  0  0  0  0
   64.9611   33.7731   48.6283 H   0  0  0  0  0  0  0  0  0  0  0  0
   63.7510   32.7220   47.1840 C   0  0  0  0  0  0  0  0  0  0  0  0
   63.7271   31.6365   47.0075 H   0  0  0  0  0  0  0  0  0  0  0  0
   64.4530   33.1156   46.4342 H   0  0  0  0  0  0  0  0  0  0  0  0
   62.3780   33.3180   47.0970 C   0  0  0  0  0  0  0  0  0  0  0  0
   61.6119   32.5286   47.0920 H   0  0  0  0  0  0  0  0  0  0  0  0
   62.2334   33.8980   46.1736 H   0  0  0  0  0  0  0  0  0  0  0  0
   59.6380   34.9090   46.6930 C   0  0  0  0  0  0  0  0  0  0  0  0
   60.1186   35.8968   46.7493 H   0  0  0  0  0  0  0  0  0  0  0  0
   58.7590   34.6130   45.6500 C   0  0  0  0  0  0  0  0  0  0  0  0
   58.5310   35.3777   44.8929 H   0  0  0  0  0  0  0  0  0  0  0  0
   58.1830   33.3840   45.5650 N   0  0  0  0  0  0  0  0  0  0  0  0
   57.5350   33.1930   44.7660 H   0  0  0  0  0  0  0  0  0  0  0  0
   59.0850   27.4670   45.5560 C   0  0  0  0  0  0  0  0  0  0  0  0
   60.1105   27.8303   45.3936 H   0  0  0  0  0  0  0  0  0  0  0  0
  1  2  1  0
  2  3  2  0
  3  4  1  0
  3  5  1  0
  5  6  1  0
  6  7  1  0
  7  8  1  0
  7  9  1  0
  7 10  1  0
  5 11  2  0
 11 12  1  0
 11 13  1  0
 13 14  1  0
 14 15  1  0
 14 16  1  0
 14 17  1  0
 17 18  2  0
 17 19  1  0
 19 20  2  0
 20 21  1  0
 21 22  1  0
 21 23  2  0
 23 24  1  0
 24 25  1  0
 24 26  1  0
 24 27  1  0
 27 28  1  0
 28 29  1  0
 29 30  1  0
 29 31  1  0
 29 32  1  0
 32 33  1  0
 32 34  1  0
 32 35  1  0
 35 36  1  0
 35 37  1  0
 23 38  1  0
 38 39  1  0
 38 40  2  0
 40 41  1  0
 40 42  1  0
 42 43  1  0
 13 44  2  0
 44 45  1  0
 44  2  1  0
 42 20  1  0
 35 27  1  0
M  END
>  <UniqueID>  (59) 
53

>  <SMILES>  (59) 
COc1cccc(CC(=O)/N=c2\cc(CN3CCCO3)cc[nH]2)c1

>  <Energy>  (59) 
54.20509181105599

>  <Genealogy>  (59) 
COc1cccc(CC(=O)/N=c2\cc(CN3CCCO3)cc[nH]2)c1 (cis-trans isomerization)
COc1cccc(CC(=O)/N=c2\cc(CN3CCCO3)cc[nH]2)c1 (3D coordinates assigned)
COc1cccc(CC(=O)/N=c2\cc(CN3CCCO3)cc[nH]2)c1 (nonaromatic ring conformer: 54.20509181105599 kcal/mol)

>  <smiles>  (59) 
COc1cccc(CC(=O)N=c2cc(CN3CCCO3)cc[nH]2)c1

>  <score_type>  (59) 
oracle

>  <origin>  (59) 
adg

>  <m_score__min__energy>  (59) 
-8.3499999999999996

>  <m_primary>  (59) 
energy

$$$$
59:0
     RDKit          3D

 36 38  0  0  0  0  0  0  0  0999 V2000
   61.1120   30.2690   47.6370 C   0  0  0  0  0  0  0  0  0  0  0  0
   61.4720   31.6440   47.3050 N   0  0  0  0  0  0  0  0  0  0  0  0
   62.7100   32.1620   47.3040 C   0  0  0  0  0  0  0  0  0  0  0  0
   62.6110   33.5060   47.0210 C   0  0  0  0  0  0  0  0  0  0  0  0
   61.3140   33.8410   46.8600 N   0  0  0  0  0  0  0  0  0  0  0  0
   60.6460   32.6820   47.0420 C   0  0  0  0  0  0  0  0  0  0  0  0
   59.1470   32.5980   47.0100 C   0  0  0  0  0  0  0  0  0  0  0  0
   58.6500   32.5000   45.5970 C   0  0  0  0  0  0  0  0  0  0  0  0
   58.8930   33.3840   44.5530 C   0  0  0  0  0  0  0  0  0  0  0  0
   59.6440   34.5490   44.6630 O   0  0  0  0  0  0  0  0  0  0  0  0
   58.3160   32.9830   43.3950 N   0  0  0  0  0  0  0  0  0  0  0  0
   57.7000   31.8290   43.7200 C   0  0  0  0  0  0  0  0  0  0  0  0
   56.9630   31.0140   42.8660 C   0  0  0  0  0  0  0  0  0  0  0  0
   56.4010   29.8380   43.3940 C   0  0  0  0  0  0  0  0  0  0  0  0
   56.5810   29.4960   44.7540 C   0  0  0  0  0  0  0  0  0  0  0  0
   55.9950   28.2810   45.2390 N   0  0  0  0  0  0  0  0  0  0  0  0
   56.8740   26.9710   45.9580 S   0  0  0  0  0  0  0  0  0  0  0  0
   57.9460   26.2540   44.7340 C   0  0  0  0  0  0  0  0  0  0  0  0
   57.7060   27.4820   47.1010 O   0  0  0  0  0  0  0  0  0  0  0  0
   55.9160   25.9220   46.4490 O   0  0  0  0  0  0  0  0  0  0  0  0
   57.3300   30.3490   45.5970 C   0  0  0  0  0  0  0  0  0  0  0  0
   57.8780   31.5050   45.0410 C   0  0  0  0  0  0  0  0  0  0  0  0
   61.0813   30.1518   48.7303 H   0  0  0  0  0  0  0  0  0  0  0  0
   60.1228   30.0370   47.2154 H   0  0  0  0  0  0  0  0  0  0  0  0
   61.8605   29.5820   47.2154 H   0  0  0  0  0  0  0  0  0  0  0  0
   63.6415   31.6093   47.4958 H   0  0  0  0  0  0  0  0  0  0  0  0
   63.4600   34.2006   46.9387 H   0  0  0  0  0  0  0  0  0  0  0  0
   58.8234   31.7076   47.5689 H   0  0  0  0  0  0  0  0  0  0  0  0
   58.7324   33.5082   47.4679 H   0  0  0  0  0  0  0  0  0  0  0  0
   60.4020   34.6130   45.3310 H   0  0  0  0  0  0  0  0  0  0  0  0
   56.8240   31.2820   41.8082 H   0  0  0  0  0  0  0  0  0  0  0  0
   55.8139   29.1758   42.7406 H   0  0  0  0  0  0  0  0  0  0  0  0
   58.7605   25.7092   45.2338 H   0  0  0  0  0  0  0  0  0  0  0  0
   57.3710   25.5580   44.1055 H   0  0  0  0  0  0  0  0  0  0  0  0
   58.3697   27.0511   44.1055 H   0  0  0  0  0  0  0  0  0  0  0  0
   57.4763   30.1080   46.6603 H   0  0  0  0  0  0  0  0  0  0  0  0
  1  2  1  0
  2  3  1  0
  3  4  2  0
  4  5  1  0
  5  6  1  0
  6  7  1  0
  7  8  1  0
  8  9  2  0
  9 10  1  0
  9 11  1  0
 11 12  1  0
 12 13  2  0
 13 14  1  0
 14 15  2  0
 15 16  1  0
 16 17  1  0
 17 18  1  0
 17 19  2  0
 17 20  2  0
 15 21  1  0
 21 22  2  0
  6  2  2  0
 22  8  1  0
 22 12  1  0
  1 23  1  0
  1 24  1  0
  1 25  1  0
  3 26  1  0
  4 27  1  0
  7 28  1  0
  7 29  1  0
 10 30  1  0
 13 31  1  0
 14 32  1  0
 18 33  1  0
 18 34  1  0
 18 35  1  0
 21 36  1  0
M  CHG  4   2   1   5  -1  11  -1  16  -1
M  END
>  <UniqueID>  (60) 
54

>  <SMILES>  (60) 
C[n+]1cc[n-]c1Cc1c(O)[n-]c2ccc([N-]S(C)(=O)=O)cc12

>  <Energy>  (60) 
94.01150310786338

>  <Genealogy>  (60) 
C[n+]1cc[n-]c1Cc1c(O)[n-]c2ccc([N-]S(C)(=O)=O)cc12 (protonated)
C[n+]1cc[n-]c1Cc1c(O)[n-]c2ccc([N-]S(C)(=O)=O)cc12 (3D coordinates assigned)
C[n+]1cc[n-]c1Cc1c(O)[n-]c2ccc([N-]S(C)(=O)=O)cc12 (optimized conformer: 94.01150310786338 kcal/mol)

>  <smiles>  (60) 
C[n+]1cc[nH]c1Cc1c(O)[nH]c2ccc(NS(C)(=O)=O)cc12

>  <score_type>  (60) 
oracle

>  <origin>  (60) 
adg

>  <m_score__min__energy>  (60) 
-9.5600000000000005

>  <m_primary>  (60) 
energy

$$$$
60:0
     RDKit          3D

 43 46  0  0  0  0  0  0  0  0999 V2000
   55.5070   28.9680   44.5890 O   0  0  0  0  0  0  0  0  0  0  0  0
   56.3240   29.8870   44.8500 C   0  0  0  0  0  0  0  0  0  0  0  0
   56.0720   31.1900   44.5810 N   0  0  0  0  0  0  0  0  0  0  0  0
   57.1220   31.9630   44.9630 C   0  0  0  0  0  0  0  0  0  0  0  0
   57.1700   33.3490   44.8270 C   0  0  0  0  0  0  0  0  0  0  0  0
   58.3140   34.0330   45.2700 C   0  0  0  0  0  0  0  0  0  0  0  0
   59.4020   33.3280   45.8370 C   0  0  0  0  0  0  0  0  0  0  0  0
   60.5990   34.0810   46.3560 C   0  0  0  0  0  0  0  0  0  0  0  0
   60.9880   33.6080   47.7590 C   0  0  0  0  0  0  0  0  0  0  0  0
   61.8750   32.4240   47.6640 N   0  0  0  0  0  0  0  0  0  0  0  0
   61.9400   31.6320   48.9080 C   0  0  0  0  0  0  0  0  0  0  0  0
   62.7820   32.3140   49.9930 C   0  0  0  0  0  0  0  0  0  0  0  0
   64.0800   32.7300   49.4510 N   0  0  0  0  0  0  0  0  0  0  0  0
   65.2610   32.7340   50.2780 C   0  0  0  0  0  0  0  0  0  0  0  0
   65.1330   32.7350   51.6340 N   0  0  0  0  0  0  0  0  0  0  0  0
   66.2200   32.7420   52.4460 C   0  0  0  0  0  0  0  0  0  0  0  0
   67.4980   32.7470   51.8950 C   0  0  0  0  0  0  0  0  0  0  0  0
   67.6210   32.7380   50.5070 C   0  0  0  0  0  0  0  0  0  0  0  0
   66.5100   32.7290   49.7230 N   0  0  0  0  0  0  0  0  0  0  0  0
   64.0920   33.4550   48.1750 C   0  0  0  0  0  0  0  0  0  0  0  0
   63.2210   32.7300   47.1410 C   0  0  0  0  0  0  0  0  0  0  0  0
   59.3320   31.9270   45.9730 C   0  0  0  0  0  0  0  0  0  0  0  0
   58.1870   31.2750   45.5270 C   0  0  0  0  0  0  0  0  0  0  0  0
   57.8350   29.6330   45.5660 S   0  0  0  0  0  0  0  0  0  0  0  0
   56.3273   33.8974   44.3808 H   0  0  0  0  0  0  0  0  0  0  0  0
   58.3646   35.1277   45.1752 H   0  0  0  0  0  0  0  0  0  0  0  0
   61.4474   33.9186   45.6750 H   0  0  0  0  0  0  0  0  0  0  0  0
   60.3413   35.1491   46.4086 H   0  0  0  0  0  0  0  0  0  0  0  0
   61.5157   34.4180   48.2838 H   0  0  0  0  0  0  0  0  0  0  0  0
   60.0786   33.3358   48.3147 H   0  0  0  0  0  0  0  0  0  0  0  0
   60.9183   31.4909   49.2905 H   0  0  0  0  0  0  0  0  0  0  0  0
   62.4176   30.6705   48.6684 H   0  0  0  0  0  0  0  0  0  0  0  0
   62.2448   33.1989   50.3651 H   0  0  0  0  0  0  0  0  0  0  0  0
   62.9513   31.6003   50.8127 H   0  0  0  0  0  0  0  0  0  0  0  0
   66.0913   32.7437   53.5384 H   0  0  0  0  0  0  0  0  0  0  0  0
   68.3893   32.7578   52.5395 H   0  0  0  0  0  0  0  0  0  0  0  0
   68.6190   32.7382   50.0445 H   0  0  0  0  0  0  0  0  0  0  0  0
   66.6360   32.6940   48.6870 H   0  0  0  0  0  0  0  0  0  0  0  0
   63.6997   34.4707   48.3313 H   0  0  0  0  0  0  0  0  0  0  0  0
   65.1254   33.5029   47.8010 H   0  0  0  0  0  0  0  0  0  0  0  0
   63.1189   33.3701   46.2523 H   0  0  0  0  0  0  0  0  0  0  0  0
   63.7122   31.7775   46.8932 H   0  0  0  0  0  0  0  0  0  0  0  0
   60.1630   31.3625   46.4211 H   0  0  0  0  0  0  0  0  0  0  0  0
  1  2  2  0
  2  3  1  0
  3  4  1  0
  4  5  2  0
  5  6  1  0
  6  7  2  0
  7  8  1  0
  8  9  1  0
  9 10  1  0
 10 11  1  0
 11 12  1  0
 12 13  1  0
 13 14  1  0
 14 15  2  0
 15 16  1  0
 16 17  2  0
 17 18  1  0
 18 19  2  0
 13 20  1  0
 20 21  1  0
  7 22  1  0
 22 23  2  0
 23 24  1  0
 24  2  1  0
 23  4  1  0
 21 10  1  0
 19 14  1  0
  5 25  1  0
  6 26  1  0
  8 27  1  0
  8 28  1  0
  9 29  1  0
  9 30  1  0
 11 31  1  0
 11 32  1  0
 12 33  1  0
 12 34  1  0
 16 35  1  0
 17 36  1  0
 18 37  1  0
 19 38  1  0
 20 39  1  0
 20 40  1  0
 21 41  1  0
 21 42  1  0
 22 43  1  0
M  CHG  2   3  -1  19   1
M  END
>  <UniqueID>  (61) 
55

>  <SMILES>  (61) 
O=c1[n-]c2ccc(CCN3CCN(c4nccc[nH+]4)CC3)cc2s1

>  <Energy>  (61) 
86.14481465348567

>  <Genealogy>  (61) 
O=c1[n-]c2ccc(CCN3CCN(c4nccc[nH+]4)CC3)cc2s1 (protonated)
O=c1[n-]c2ccc(CCN3CCN(c4nccc[nH+]4)CC3)cc2s1 (3D coordinates assigned)
O=c1[n-]c2ccc(CCN3CCN(c4nccc[nH+]4)CC3)cc2s1 (nonaromatic ring conformer: 86.14481465348567 kcal/mol)

>  <smiles>  (61) 
O=c1[nH]c2ccc(CCN3CCN(c4ncccn4)CC3)cc2s1

>  <score_type>  (61) 
oracle

>  <origin>  (61) 
adg

>  <m_score__min__energy>  (61) 
-8.9000000000000004

>  <m_primary>  (61) 
energy

$$$$
61:0
     RDKit          3D

 59 62  0  0  0  0  0  0  0  0999 V2000
   54.8280   25.4839   45.9057 H   0  0  0  0  0  0  0  0  0  0  0  0
   55.8450   25.8790   46.0460 C   0  0  0  0  0  0  0  0  0  0  0  0
   56.1410   27.1470   45.6440 N   0  0  0  0  0  0  0  0  0  0  0  0
   57.3760   27.6950   45.8070 C   0  0  0  0  0  0  0  0  0  0  0  0
   57.5780   28.9090   45.3690 N   0  0  0  0  0  0  0  0  0  0  0  0
   58.4920   29.8730   45.9140 C   0  0  0  0  0  0  0  0  0  0  0  0
   59.8630   29.6130   45.8770 C   0  0  0  0  0  0  0  0  0  0  0  0
   60.2377   28.6755   45.4403 H   0  0  0  0  0  0  0  0  0  0  0  0
   60.7540   30.5510   46.3980 C   0  0  0  0  0  0  0  0  0  0  0  0
   61.8345   30.3449   46.3895 H   0  0  0  0  0  0  0  0  0  0  0  0
   60.2760   31.7570   46.9330 C   0  0  0  0  0  0  0  0  0  0  0  0
   61.1820   32.7080   47.5250 N   0  0  0  0  0  0  0  0  0  0  0  0
   62.5240   32.9010   46.9570 C   0  0  0  0  0  0  0  0  0  0  0  0
   62.7493   32.0744   46.2671 H   0  0  0  0  0  0  0  0  0  0  0  0
   62.5516   33.8584   46.4160 H   0  0  0  0  0  0  0  0  0  0  0  0
   63.5720   32.9270   48.0770 C   0  0  0  0  0  0  0  0  0  0  0  0
   63.7957   31.8933   48.3793 H   0  0  0  0  0  0  0  0  0  0  0  0
   64.4714   33.4299   47.6920 H   0  0  0  0  0  0  0  0  0  0  0  0
   63.0970   33.6760   49.2540 N   0  0  0  0  0  0  0  0  0  0  0  0
   63.6370   33.3780   50.5590 C   0  0  0  0  0  0  0  0  0  0  0  0
   62.9030   33.4740   51.5800 O   0  0  0  0  0  0  0  0  0  0  0  0
   65.0350   32.9320   50.7350 C   0  0  0  0  0  0  0  0  0  0  0  0
   66.0740   33.8580   50.9100 C   0  0  0  0  0  0  0  0  0  0  0  0
   65.8555   34.9359   50.8905 H   0  0  0  0  0  0  0  0  0  0  0  0
   67.3850   33.4180   51.1090 C   0  0  0  0  0  0  0  0  0  0  0  0
   68.1950   34.1499   51.2439 H   0  0  0  0  0  0  0  0  0  0  0  0
   67.6690   32.0520   51.1370 C   0  0  0  0  0  0  0  0  0  0  0  0
   68.7033   31.7080   51.2852 H   0  0  0  0  0  0  0  0  0  0  0  0
   66.6410   31.1230   50.9770 C   0  0  0  0  0  0  0  0  0  0  0  0
   66.8650   30.0463   51.0012 H   0  0  0  0  0  0  0  0  0  0  0  0
   65.3270   31.5580   50.7860 C   0  0  0  0  0  0  0  0  0  0  0  0
   64.5173   30.8218   50.6750 H   0  0  0  0  0  0  0  0  0  0  0  0
   61.8600   34.4610   49.1340 C   0  0  0  0  0  0  0  0  0  0  0  0
   61.5950   34.8813   50.1154 H   0  0  0  0  0  0  0  0  0  0  0  0
   62.0117   35.2799   48.4154 H   0  0  0  0  0  0  0  0  0  0  0  0
   60.7300   33.5530   48.6450 C   0  0  0  0  0  0  0  0  0  0  0  0
   60.4022   32.9079   49.4735 H   0  0  0  0  0  0  0  0  0  0  0  0
   59.8984   34.1831   48.2967 H   0  0  0  0  0  0  0  0  0  0  0  0
   58.8950   32.0000   46.9060 C   0  0  0  0  0  0  0  0  0  0  0  0
   58.4987   32.9475   47.3000 H   0  0  0  0  0  0  0  0  0  0  0  0
   58.0420   31.0700   46.3950 N   0  0  0  0  0  0  0  0  0  0  0  0
   57.0220   31.2890   46.3700 H   0  0  0  0  0  0  0  0  0  0  0  0
   58.3980   26.9150   46.3940 C   0  0  0  0  0  0  0  0  0  0  0  0
   59.4067   27.3335   46.5256 H   0  0  0  0  0  0  0  0  0  0  0  0
   58.1200   25.6100   46.8060 C   0  0  0  0  0  0  0  0  0  0  0  0
   58.9131   25.0002   47.2632 H   0  0  0  0  0  0  0  0  0  0  0  0
   56.8340   25.0720   46.6400 C   0  0  0  0  0  0  0  0  0  0  0  0
   56.5340   23.6780   47.0510 C   0  0  0  0  0  0  0  0  0  0  0  0
   57.4040   22.7440   46.8020 N   0  0  0  0  0  0  0  0  0  0  0  0
   57.8690   22.3390   45.4840 C   0  0  0  0  0  0  0  0  0  0  0  0
   58.6945   21.6200   45.5914 H   0  0  0  0  0  0  0  0  0  0  0  0
   57.0421   21.8681   44.9321 H   0  0  0  0  0  0  0  0  0  0  0  0
   58.2219   23.2227   44.9321 H   0  0  0  0  0  0  0  0  0  0  0  0
   55.3280   23.3970   47.7830 N   0  0  0  0  0  0  0  0  0  0  0  0
   55.1020   24.0060   48.6010 H   0  0  0  0  0  0  0  0  0  0  0  0
   54.2460   22.6140   47.2020 C   0  0  0  0  0  0  0  0  0  0  0  0
   53.6385   22.1744   48.0067 H   0  0  0  0  0  0  0  0  0  0  0  0
   53.6146   23.2658   46.5802 H   0  0  0  0  0  0  0  0  0  0  0  0
   54.6677   21.8105   46.5802 H   0  0  0  0  0  0  0  0  0  0  0  0
  1  2  1  0
  2  3  1  0
  3  4  1  0
  4  5  2  3
  5  6  1  0
  6  7  2  0
  7  8  1  0
  7  9  1  0
  9 10  1  0
  9 11  2  0
 11 12  1  0
 12 13  1  0
 13 14  1  0
 13 15  1  0
 13 16  1  0
 16 17  1  0
 16 18  1  0
 16 19  1  0
 19 20  1  0
 20 21  2  0
 20 22  1  0
 22 23  2  0
 23 24  1  0
 23 25  1  0
 25 26  1  0
 25 27  2  0
 27 28  1  0
 27 29  1  0
 29 30  1  0
 29 31  2  0
 31 32  1  0
 19 33  1  0
 33 34  1  0
 33 35  1  0
 33 36  1  0
 36 37  1  0
 36 38  1  0
 11 39  1  0
 39 40  1  0
 39 41  2  0
 41 42  1  0
  4 43  1  0
 43 44  1  0
 43 45  2  0
 45 46  1  0
 45 47  1  0
 47 48  1  0
 48 49  2  0
 49 50  1  0
 50 51  1  0
 50 52  1  0
 50 53  1  0
 48 54  1  0
 54 55  1  0
 54 56  1  0
 56 57  1  0
 56 58  1  0
 56 59  1  0
 47  2  2  0
 41  6  1  0
 36 12  1  0
 31 22  1  0
M  CHG  2   3  -1  41   1
M  END
>  <UniqueID>  (62) 
56

>  <SMILES>  (62) 
C/N=C(\NC)c1ccc(=Nc2ccc(N3CCN(C(=O)c4ccccc4)CC3)c[nH+]2)[n-]c1

>  <Energy>  (62) 
87.49459321319152

>  <Genealogy>  (62) 
CN=C(NC)c1ccc(=Nc2ccc(N3CCN(C(=O)c4ccccc4)CC3)c[nH+]2)[n-]c1 (protonated)
C/N=C(\NC)c1ccc(=Nc2ccc(N3CCN(C(=O)c4ccccc4)CC3)c[nH+]2)[n-]c1 (cis-trans isomerization)
C/N=C(\NC)c1ccc(=Nc2ccc(N3CCN(C(=O)c4ccccc4)CC3)c[nH+]2)[n-]c1 (3D coordinates assigned)
C/N=C(\NC)c1ccc(=Nc2ccc(N3CCN(C(=O)c4ccccc4)CC3)c[nH+]2)[n-]c1 (nonaromatic ring conformer: 87.49459321319152 kcal/mol)

>  <smiles>  (62) 
CN=C(NC)c1ccc(=Nc2ccc(N3CCN(C(=O)c4ccccc4)CC3)cn2)[nH]c1

>  <score_type>  (62) 
oracle

>  <origin>  (62) 
adg

>  <m_score__min__energy>  (62) 
-7.29

>  <m_primary>  (62) 
energy

$$$$
62:0
     RDKit          3D

 42 44  0  0  0  0  0  0  0  0999 V2000
   59.6860   29.7010   49.3640 O   0  0  0  0  0  0  0  0  0  0  0  0
   60.6810   30.2310   49.9260 C   0  0  0  0  0  0  0  0  0  0  0  0
   60.9540   29.9130   51.2520 O   0  0  0  0  0  0  0  0  0  0  0  0
   61.5440   31.1830   49.1910 C   0  0  0  0  0  0  0  0  0  0  0  0
   62.9090   31.2870   49.5010 C   0  0  0  0  0  0  0  0  0  0  0  0
   63.7260   32.1770   48.8030 C   0  0  0  0  0  0  0  0  0  0  0  0
   63.1920   32.9830   47.7900 C   0  0  0  0  0  0  0  0  0  0  0  0
   64.0120   33.8740   47.0970 O   0  0  0  0  0  0  0  0  0  0  0  0
   61.8280   32.9040   47.4750 C   0  0  0  0  0  0  0  0  0  0  0  0
   61.3050   33.7550   46.4440 N   0  0  0  0  0  0  0  0  0  0  0  0
   59.6470   34.2380   46.2910 S   0  0  0  0  0  0  0  0  0  0  0  0
   59.1050   34.5830   47.6490 O   0  0  0  0  0  0  0  0  0  0  0  0
   59.5540   35.4540   45.4130 O   0  0  0  0  0  0  0  0  0  0  0  0
   58.7110   32.9020   45.6270 C   0  0  0  0  0  0  0  0  0  0  0  0
   57.4480   33.1500   45.0740 C   0  0  0  0  0  0  0  0  0  0  0  0
   56.6620   32.0920   44.6100 C   0  0  0  0  0  0  0  0  0  0  0  0
   57.1210   30.7690   44.7170 C   0  0  0  0  0  0  0  0  0  0  0  0
   56.2610   29.6460   44.2870 C   0  0  0  0  0  0  0  0  0  0  0  0
   55.9670   29.5190   43.0690 O   0  0  0  0  0  0  0  0  0  0  0  0
   55.7800   28.6680   45.2210 N   0  0  0  0  0  0  0  0  0  0  0  0
   56.5010   27.5050   45.6560 C   0  0  0  0  0  0  0  0  0  0  0  0
   57.9040   27.5080   45.7620 C   0  0  0  0  0  0  0  0  0  0  0  0
   58.5800   26.3680   46.2040 C   0  0  0  0  0  0  0  0  0  0  0  0
   57.8640   25.2210   46.5540 C   0  0  0  0  0  0  0  0  0  0  0  0
   56.4700   25.2170   46.4740 C   0  0  0  0  0  0  0  0  0  0  0  0
   55.7870   26.3570   46.0340 C   0  0  0  0  0  0  0  0  0  0  0  0
   54.3990   26.3410   45.9640 O   0  0  0  0  0  0  0  0  0  0  0  0
   58.3990   30.5270   45.2460 C   0  0  0  0  0  0  0  0  0  0  0  0
   59.1910   31.5880   45.6940 C   0  0  0  0  0  0  0  0  0  0  0  0
   61.0110   31.9930   48.1720 C   0  0  0  0  0  0  0  0  0  0  0  0
   63.3373   30.6630   50.2992 H   0  0  0  0  0  0  0  0  0  0  0  0
   64.7957   32.2459   49.0499 H   0  0  0  0  0  0  0  0  0  0  0  0
   63.6570   34.4360   46.3310 H   0  0  0  0  0  0  0  0  0  0  0  0
   57.0735   34.1820   45.0048 H   0  0  0  0  0  0  0  0  0  0  0  0
   55.6797   32.2962   44.1591 H   0  0  0  0  0  0  0  0  0  0  0  0
   58.4712   28.4121   45.4957 H   0  0  0  0  0  0  0  0  0  0  0  0
   59.6776   26.3738   46.2764 H   0  0  0  0  0  0  0  0  0  0  0  0
   58.3982   24.3210   46.8926 H   0  0  0  0  0  0  0  0  0  0  0  0
   55.9069   24.3156   46.7575 H   0  0  0  0  0  0  0  0  0  0  0  0
   58.7790   29.4966   45.3082 H   0  0  0  0  0  0  0  0  0  0  0  0
   60.1940   31.3904   46.1003 H   0  0  0  0  0  0  0  0  0  0  0  0
   59.9440   31.9140   47.9167 H   0  0  0  0  0  0  0  0  0  0  0  0
  1  2  2  0
  2  3  1  0
  2  4  1  0
  4  5  2  0
  5  6  1  0
  6  7  2  0
  7  8  1  0
  7  9  1  0
  9 10  1  0
 10 11  1  0
 11 12  2  0
 11 13  2  0
 11 14  1  0
 14 15  2  0
 15 16  1  0
 16 17  2  0
 17 18  1  0
 18 19  2  0
 18 20  1  0
 20 21  1  0
 21 22  2  0
 22 23  1  0
 23 24  2  0
 24 25  1  0
 25 26  2  0
 26 27  1  0
 17 28  1  0
 28 29  2  0
  9 30  2  0
 30  4  1  0
 29 14  1  0
 26 21  1  0
  5 31  1  0
  6 32  1  0
  8 33  1  0
 15 34  1  0
 16 35  1  0
 22 36  1  0
 23 37  1  0
 24 38  1  0
 25 39  1  0
 28 40  1  0
 29 41  1  0
 30 42  1  0
M  CHG  4   3  -1  10  -1  20  -1  27  -1
M  END
>  <UniqueID>  (63) 
57

>  <SMILES>  (63) 
O=C([O-])c1ccc(O)c([N-]S(=O)(=O)c2ccc(C(=O)[N-]c3ccccc3[O-])cc2)c1

>  <Energy>  (63) 
54.00605131835358

>  <Genealogy>  (63) 
O=C([O-])c1ccc(O)c([N-]S(=O)(=O)c2ccc(C(=O)[N-]c3ccccc3[O-])cc2)c1 (protonated)
O=C([O-])c1ccc(O)c([N-]S(=O)(=O)c2ccc(C(=O)[N-]c3ccccc3[O-])cc2)c1 (3D coordinates assigned)
O=C([O-])c1ccc(O)c([N-]S(=O)(=O)c2ccc(C(=O)[N-]c3ccccc3[O-])cc2)c1 (optimized conformer: 54.00605131835358 kcal/mol)

>  <smiles>  (63) 
O=C(O)c1ccc(O)c(NS(=O)(=O)c2ccc(C(=O)Nc3ccccc3O)cc2)c1

>  <score_type>  (63) 
oracle

>  <origin>  (63) 
adg

>  <m_score__min__energy>  (63) 
-16.41

>  <m_primary>  (63) 
energy

$$$$
63:0
     RDKit          3D

 54 58  0  0  0  0  0  0  0  0999 V2000
   49.9190   32.9260   52.8140 C   0  0  0  0  0  0  0  0  0  0  0  0
   50.7280   32.3370   51.8020 O   0  0  0  0  0  0  0  0  0  0  0  0
   51.9440   31.6790   52.0420 C   0  0  0  0  0  0  0  0  0  0  0  0
   52.1460   31.0890   53.2930 C   0  0  0  0  0  0  0  0  0  0  0  0
   53.3400   30.4230   53.5820 C   0  0  0  0  0  0  0  0  0  0  0  0
   54.3590   30.3390   52.6190 C   0  0  0  0  0  0  0  0  0  0  0  0
   55.6260   29.6260   52.9230 C   0  0  0  0  0  0  0  0  0  0  0  0
   55.6950   28.6730   53.9590 C   0  0  0  0  0  0  0  0  0  0  0  0
   56.9140   28.0090   54.1990 C   0  0  0  0  0  0  0  0  0  0  0  0
   58.0150   28.2840   53.4400 N   0  0  0  0  0  0  0  0  0  0  0  0
   57.9120   29.2100   52.4560 C   0  0  0  0  0  0  0  0  0  0  0  0
   58.9080   29.5990   51.6410 N   0  0  0  0  0  0  0  0  0  0  0  0
   58.2700   30.5400   50.8950 C   0  0  0  0  0  0  0  0  0  0  0  0
   58.9090   31.2570   49.7860 C   0  0  0  0  0  0  0  0  0  0  0  0
   59.8400   30.7030   49.1410 O   0  0  0  0  0  0  0  0  0  0  0  0
   58.4760   32.5750   49.4300 N   0  0  0  0  0  0  0  0  0  0  0  0
   58.5540   33.0560   48.0840 C   0  0  0  0  0  0  0  0  0  0  0  0
   57.3950   33.0810   47.2990 C   0  0  0  0  0  0  0  0  0  0  0  0
   57.4380   33.5750   45.9930 C   0  0  0  0  0  0  0  0  0  0  0  0
   58.6420   34.0350   45.4590 C   0  0  0  0  0  0  0  0  0  0  0  0
   59.8110   33.9880   46.2230 C   0  0  0  0  0  0  0  0  0  0  0  0
   59.7820   33.4930   47.5350 C   0  0  0  0  0  0  0  0  0  0  0  0
   61.0140   33.3650   48.2640 N   0  0  0  0  0  0  0  0  0  0  0  0
   62.0570   32.4750   47.7290 C   0  0  0  0  0  0  0  0  0  0  0  0
   63.3920   32.6310   48.4650 C   0  0  0  0  0  0  0  0  0  0  0  0
   63.1860   32.8090   49.8500 O   0  0  0  0  0  0  0  0  0  0  0  0
   62.5930   34.0710   50.0610 C   0  0  0  0  0  0  0  0  0  0  0  0
   61.1550   34.0950   49.5340 C   0  0  0  0  0  0  0  0  0  0  0  0
   56.9700   30.7080   51.2350 N   0  0  0  0  0  0  0  0  0  0  0  0
   56.7670   29.8520   52.2160 N   0  0  0  0  0  0  0  0  0  0  0  0
   54.1540   30.9240   51.3580 C   0  0  0  0  0  0  0  0  0  0  0  0
   52.9590   31.5910   51.0710 C   0  0  0  0  0  0  0  0  0  0  0  0
   50.3067   32.6437   53.8039 H   0  0  0  0  0  0  0  0  0  0  0  0
   49.9411   34.0209   52.7101 H   0  0  0  0  0  0  0  0  0  0  0  0
   48.8839   32.5687   52.7101 H   0  0  0  0  0  0  0  0  0  0  0  0
   51.3574   31.1496   54.0574 H   0  0  0  0  0  0  0  0  0  0  0  0
   53.4828   29.9615   54.5702 H   0  0  0  0  0  0  0  0  0  0  0  0
   54.8090   28.4507   54.5719 H   0  0  0  0  0  0  0  0  0  0  0  0
   56.9793   27.2628   55.0046 H   0  0  0  0  0  0  0  0  0  0  0  0
   58.1290   33.2180   50.1760 H   0  0  0  0  0  0  0  0  0  0  0  0
   56.4458   32.7098   47.7127 H   0  0  0  0  0  0  0  0  0  0  0  0
   56.5216   33.6013   45.3851 H   0  0  0  0  0  0  0  0  0  0  0  0
   58.6711   34.4353   44.4349 H   0  0  0  0  0  0  0  0  0  0  0  0
   60.7598   34.3414   45.7929 H   0  0  0  0  0  0  0  0  0  0  0  0
   61.7180   31.4333   47.8292 H   0  0  0  0  0  0  0  0  0  0  0  0
   62.2211   32.7459   46.6756 H   0  0  0  0  0  0  0  0  0  0  0  0
   63.9994   31.7281   48.3044 H   0  0  0  0  0  0  0  0  0  0  0  0
   63.9095   33.5176   48.0699 H   0  0  0  0  0  0  0  0  0  0  0  0
   62.5850   34.2893   51.1391 H   0  0  0  0  0  0  0  0  0  0  0  0
   63.1781   34.8289   49.5195 H   0  0  0  0  0  0  0  0  0  0  0  0
   60.4958   33.6323   50.2832 H   0  0  0  0  0  0  0  0  0  0  0  0
   60.8807   35.1445   49.3515 H   0  0  0  0  0  0  0  0  0  0  0  0
   54.9395   30.8568   50.5908 H   0  0  0  0  0  0  0  0  0  0  0  0
   52.8116   32.0490   50.0818 H   0  0  0  0  0  0  0  0  0  0  0  0
  1  2  1  0
  2  3  1  0
  3  4  2  0
  4  5  1  0
  5  6  2  0
  6  7  1  0
  7  8  2  0
  8  9  1  0
  9 10  2  0
 10 11  1  0
 11 12  2  0
 12 13  1  0
 13 14  1  0
 14 15  2  0
 14 16  1  0
 16 17  1  0
 17 18  2  0
 18 19  1  0
 19 20  2  0
 20 21  1  0
 21 22  2  0
 22 23  1  0
 23 24  1  0
 24 25  1  0
 25 26  1  0
 26 27  1  0
 27 28  1  0
 13 29  2  0
 29 30  1  0
  6 31  1  0
 31 32  2  0
 32  3  1  0
 30  7  1  0
 30 11  1  0
 22 17  1  0
 28 23  1  0
  1 33  1  0
  1 34  1  0
  1 35  1  0
  4 36  1  0
  5 37  1  0
  8 38  1  0
  9 39  1  0
 16 40  1  0
 18 41  1  0
 19 42  1  0
 20 43  1  0
 21 44  1  0
 24 45  1  0
 24 46  1  0
 25 47  1  0
 25 48  1  0
 27 49  1  0
 27 50  1  0
 28 51  1  0
 28 52  1  0
 31 53  1  0
 32 54  1  0
M  END
>  <UniqueID>  (64) 
58

>  <SMILES>  (64) 
COc1ccc(-c2ccnc3nc(C(=O)Nc4ccccc4N4CCOCC4)nn23)cc1

>  <Energy>  (64) 
115.77025460183778

>  <Genealogy>  (64) 
COc1ccc(-c2ccnc3nc(C(=O)Nc4ccccc4N4CCOCC4)nn23)cc1 (3D coordinates assigned)
COc1ccc(-c2ccnc3nc(C(=O)Nc4ccccc4N4CCOCC4)nn23)cc1 (nonaromatic ring conformer: 115.77025460183778 kcal/mol)

>  <smiles>  (64) 
COc1ccc(-c2ccnc3nc(C(=O)Nc4ccccc4N4CCOCC4)nn23)cc1

>  <score_type>  (64) 
oracle

>  <origin>  (64) 
adg

>  <m_score__min__energy>  (64) 
-8.4399999999999995

>  <m_primary>  (64) 
energy

$$$$
64:0
     RDKit          3D

 44 46  0  0  0  0  0  0  0  0999 V2000
   52.8140   22.8260   45.9940 C   0  0  0  0  0  0  0  0  0  0  0  0
   53.0990   24.1900   45.5640 N   0  0  0  0  0  0  0  0  0  0  0  0
   54.7810   24.5430   45.8190 S   0  0  0  0  0  0  0  0  0  0  0  0
   55.2620   23.8690   47.0740 O   0  0  0  0  0  0  0  0  0  0  0  0
   55.5770   24.0190   44.6570 O   0  0  0  0  0  0  0  0  0  0  0  0
   55.0350   26.2560   45.9450 N   0  0  0  0  0  0  0  0  0  0  0  0
   56.2570   26.9880   45.7430 C   0  0  0  0  0  0  0  0  0  0  0  0
   57.4550   26.3330   46.0550 C   0  0  0  0  0  0  0  0  0  0  0  0
   58.6840   26.9610   45.8620 C   0  0  0  0  0  0  0  0  0  0  0  0
   58.7340   28.2640   45.3720 C   0  0  0  0  0  0  0  0  0  0  0  0
   57.5530   28.9590   45.0890 C   0  0  0  0  0  0  0  0  0  0  0  0
   57.6390   30.3010   44.5830 N   0  0  0  0  0  0  0  0  0  0  0  0
   58.2690   31.3890   45.2790 C   0  0  0  0  0  0  0  0  0  0  0  0
   58.4530   32.6380   44.6780 C   0  0  0  0  0  0  0  0  0  0  0  0
   59.0630   33.6570   45.4090 C   0  0  0  0  0  0  0  0  0  0  0  0
   59.2370   34.7790   44.8580 O   0  0  0  0  0  0  0  0  0  0  0  0
   59.4660   33.4390   46.7040 N   0  0  0  0  0  0  0  0  0  0  0  0
   60.0900   34.5230   47.4880 C   0  0  0  0  0  0  0  0  0  0  0  0
   61.4690   34.1200   47.9450 C   0  0  0  0  0  0  0  0  0  0  0  0
   61.8120   34.1710   49.3070 C   0  0  0  0  0  0  0  0  0  0  0  0
   63.1000   33.8200   49.7240 C   0  0  0  0  0  0  0  0  0  0  0  0
   64.0560   33.4190   48.7860 C   0  0  0  0  0  0  0  0  0  0  0  0
   63.7260   33.3700   47.4300 C   0  0  0  0  0  0  0  0  0  0  0  0
   62.4380   33.7200   47.0080 C   0  0  0  0  0  0  0  0  0  0  0  0
   59.2490   32.2080   47.2760 C   0  0  0  0  0  0  0  0  0  0  0  0
   59.5980   31.9790   48.4660 O   0  0  0  0  0  0  0  0  0  0  0  0
   58.6590   31.2140   46.5660 N   0  0  0  0  0  0  0  0  0  0  0  0
   56.3070   28.3160   45.2510 C   0  0  0  0  0  0  0  0  0  0  0  0
   55.1470   29.0020   44.9130 O   0  0  0  0  0  0  0  0  0  0  0  0
   52.8049   22.7824   47.0931 H   0  0  0  0  0  0  0  0  0  0  0  0
   51.8319   22.5171   45.6066 H   0  0  0  0  0  0  0  0  0  0  0  0
   53.5902   22.1497   45.6066 H   0  0  0  0  0  0  0  0  0  0  0  0
   57.4254   25.3097   46.4576 H   0  0  0  0  0  0  0  0  0  0  0  0
   59.6164   26.4267   46.0970 H   0  0  0  0  0  0  0  0  0  0  0  0
   59.7072   28.7492   45.2066 H   0  0  0  0  0  0  0  0  0  0  0  0
   57.2760   30.4870   43.6200 H   0  0  0  0  0  0  0  0  0  0  0  0
   58.1215   32.8142   43.6440 H   0  0  0  0  0  0  0  0  0  0  0  0
   60.1654   35.4246   46.8624 H   0  0  0  0  0  0  0  0  0  0  0  0
   59.4678   34.7250   48.3724 H   0  0  0  0  0  0  0  0  0  0  0  0
   61.0640   34.4884   50.0484 H   0  0  0  0  0  0  0  0  0  0  0  0
   63.3613   33.8595   50.7918 H   0  0  0  0  0  0  0  0  0  0  0  0
   65.0681   33.1421   49.1161 H   0  0  0  0  0  0  0  0  0  0  0  0
   64.4792   33.0559   46.6924 H   0  0  0  0  0  0  0  0  0  0  0  0
   62.1829   33.6819   45.9387 H   0  0  0  0  0  0  0  0  0  0  0  0
  1  2  1  0
  2  3  1  0
  3  4  2  0
  3  5  2  0
  3  6  1  0
  6  7  1  0
  7  8  2  0
  8  9  1  0
  9 10  2  0
 10 11  1  0
 11 12  1  0
 12 13  1  0
 13 14  2  0
 14 15  1  0
 15 16  2  0
 15 17  1  0
 17 18  1  0
 18 19  1  0
 19 20  2  0
 20 21  1  0
 21 22  2  0
 22 23  1  0
 23 24  2  0
 17 25  1  0
 25 26  2  0
 25 27  1  0
 11 28  2  0
 28 29  1  0
 28  7  1  0
 27 13  1  0
 24 19  1  0
  1 30  1  0
  1 31  1  0
  1 32  1  0
  8 33  1  0
  9 34  1  0
 10 35  1  0
 12 36  1  0
 14 37  1  0
 18 38  1  0
 18 39  1  0
 20 40  1  0
 21 41  1  0
 22 42  1  0
 23 43  1  0
 24 44  1  0
M  CHG  4   2  -1   6  -1  27  -1  29  -1
M  END
>  <UniqueID>  (65) 
59

>  <SMILES>  (65) 
C[N-]S(=O)(=O)[N-]c1cccc(Nc2cc(=O)n(Cc3ccccc3)c(=O)[n-]2)c1[O-]

>  <Energy>  (65) 
59.746333924640275

>  <Genealogy>  (65) 
C[N-]S(=O)(=O)[N-]c1cccc(Nc2cc(=O)n(Cc3ccccc3)c(=O)[n-]2)c1[O-] (protonated)
C[N-]S(=O)(=O)[N-]c1cccc(Nc2cc(=O)n(Cc3ccccc3)c(=O)[n-]2)c1[O-] (3D coordinates assigned)
C[N-]S(=O)(=O)[N-]c1cccc(Nc2cc(=O)n(Cc3ccccc3)c(=O)[n-]2)c1[O-] (optimized conformer: 59.746333924640275 kcal/mol)

>  <smiles>  (65) 
CNS(=O)(=O)Nc1cccc(Nc2cc(=O)n(Cc3ccccc3)c(=O)[nH]2)c1O

>  <score_type>  (65) 
oracle

>  <origin>  (65) 
adg

>  <m_score__min__energy>  (65) 
-17.280000000000001

>  <m_primary>  (65) 
energy

$$$$
65:0
     RDKit          3D

 45 47  0  0  0  0  0  0  0  0999 V2000
   63.0920   31.6350   47.2730 C   0  0  0  0  0  0  0  0  0  0  0  0
   61.6920   31.6260   47.0220 O   0  0  0  0  0  0  0  0  0  0  0  0
   60.8540   32.6870   47.3780 C   0  0  0  0  0  0  0  0  0  0  0  0
   61.2300   33.5290   48.2390 O   0  0  0  0  0  0  0  0  0  0  0  0
   59.5400   32.8340   46.7190 C   0  0  0  0  0  0  0  0  0  0  0  0
   58.9070   34.0880   46.6560 C   0  0  0  0  0  0  0  0  0  0  0  0
   57.6970   34.2320   45.9720 C   0  0  0  0  0  0  0  0  0  0  0  0
   57.1190   33.1350   45.3280 C   0  0  0  0  0  0  0  0  0  0  0  0
   57.7390   31.8820   45.3690 C   0  0  0  0  0  0  0  0  0  0  0  0
   57.1290   30.7890   44.6630 N   0  0  0  0  0  0  0  0  0  0  0  0
   56.7470   29.5020   45.1770 C   0  0  0  0  0  0  0  0  0  0  0  0
   55.5210   29.2170   45.2200 O   0  0  0  0  0  0  0  0  0  0  0  0
   57.7340   28.4900   45.6270 C   0  0  0  0  0  0  0  0  0  0  0  0
   58.0020   27.3650   44.8270 C   0  0  0  0  0  0  0  0  0  0  0  0
   58.8660   26.3670   45.2790 C   0  0  0  0  0  0  0  0  0  0  0  0
   59.4510   26.4640   46.5440 C   0  0  0  0  0  0  0  0  0  0  0  0
   59.1930   27.5810   47.3540 C   0  0  0  0  0  0  0  0  0  0  0  0
   59.6990   27.6890   48.6900 N   0  0  0  0  0  0  0  0  0  0  0  0
   60.2700   28.8600   49.2860 C   0  0  0  0  0  0  0  0  0  0  0  0
   61.0470   29.6070   48.6350 O   0  0  0  0  0  0  0  0  0  0  0  0
   60.0520   29.1190   50.7420 C   0  0  0  0  0  0  0  0  0  0  0  0
   59.4510   30.4440   50.9250 N   0  0  0  0  0  0  0  0  0  0  0  0
   60.0650   31.6370   50.6400 C   0  0  0  0  0  0  0  0  0  0  0  0
   61.3750   31.7420   50.1750 O   0  0  0  0  0  0  0  0  0  0  0  0
   59.2790   32.7670   50.8400 C   0  0  0  0  0  0  0  0  0  0  0  0
   57.7600   32.2650   51.3660 S   0  0  0  0  0  0  0  0  0  0  0  0
   58.1690   30.6390   51.3230 C   0  0  0  0  0  0  0  0  0  0  0  0
   57.3760   29.7060   51.6150 O   0  0  0  0  0  0  0  0  0  0  0  0
   58.3930   28.6180   46.8620 C   0  0  0  0  0  0  0  0  0  0  0  0
   58.9260   31.7260   46.1100 C   0  0  0  0  0  0  0  0  0  0  0  0
   63.2699   31.6361   48.3585 H   0  0  0  0  0  0  0  0  0  0  0  0
   63.5502   30.7398   46.8273 H   0  0  0  0  0  0  0  0  0  0  0  0
   63.5386   32.5360   46.8273 H   0  0  0  0  0  0  0  0  0  0  0  0
   59.3660   34.9588   47.1469 H   0  0  0  0  0  0  0  0  0  0  0  0
   57.1981   35.2118   45.9405 H   0  0  0  0  0  0  0  0  0  0  0  0
   56.1701   33.2576   44.7852 H   0  0  0  0  0  0  0  0  0  0  0  0
   57.5277   27.2712   43.8390 H   0  0  0  0  0  0  0  0  0  0  0  0
   59.0872   25.5013   44.6374 H   0  0  0  0  0  0  0  0  0  0  0  0
   60.1143   25.6644   46.9055 H   0  0  0  0  0  0  0  0  0  0  0  0
   59.3785   28.3524   51.1527 H   0  0  0  0  0  0  0  0  0  0  0  0
   61.0181   29.0822   51.2666 H   0  0  0  0  0  0  0  0  0  0  0  0
   61.6250   31.6100   49.2040 H   0  0  0  0  0  0  0  0  0  0  0  0
   59.5950   33.8087   50.6819 H   0  0  0  0  0  0  0  0  0  0  0  0
   58.2786   29.5423   47.4472 H   0  0  0  0  0  0  0  0  0  0  0  0
   59.3769   30.7280   46.2132 H   0  0  0  0  0  0  0  0  0  0  0  0
  1  2  1  0
  2  3  1  0
  3  4  2  0
  3  5  1  0
  5  6  2  0
  6  7  1  0
  7  8  2  0
  8  9  1  0
  9 10  1  0
 10 11  1  0
 11 12  2  0
 11 13  1  0
 13 14  2  0
 14 15  1  0
 15 16  2  0
 16 17  1  0
 17 18  1  0
 18 19  1  0
 19 20  2  0
 19 21  1  0
 21 22  1  0
 22 23  1  0
 23 24  1  0
 23 25  2  0
 25 26  1  0
 26 27  1  0
 27 28  2  0
 17 29  2  0
  9 30  2  0
 30  5  1  0
 29 13  1  0
 27 22  1  0
  1 31  1  0
  1 32  1  0
  1 33  1  0
  6 34  1  0
  7 35  1  0
  8 36  1  0
 14 37  1  0
 15 38  1  0
 16 39  1  0
 21 40  1  0
 21 41  1  0
 24 42  1  0
 25 43  1  0
 29 44  1  0
 30 45  1  0
M  CHG  2  10  -1  18  -1
M  END
>  <UniqueID>  (66) 
60

>  <SMILES>  (66) 
COC(=O)c1cccc([N-]C(=O)c2cccc([N-]C(=O)Cn3c(O)csc3=O)c2)c1

>  <Energy>  (66) 
83.1072464850729

>  <Genealogy>  (66) 
COC(=O)c1cccc([N-]C(=O)c2cccc([N-]C(=O)Cn3c(O)csc3=O)c2)c1 (protonated)
COC(=O)c1cccc([N-]C(=O)c2cccc([N-]C(=O)Cn3c(O)csc3=O)c2)c1 (3D coordinates assigned)
COC(=O)c1cccc([N-]C(=O)c2cccc([N-]C(=O)Cn3c(O)csc3=O)c2)c1 (optimized conformer: 83.1072464850729 kcal/mol)

>  <smiles>  (66) 
COC(=O)c1cccc(NC(=O)c2cccc(NC(=O)Cn3c(O)csc3=O)c2)c1

>  <score_type>  (66) 
oracle

>  <origin>  (66) 
adg

>  <m_score__min__energy>  (66) 
-12.33

>  <m_primary>  (66) 
energy

$$$$
66:0
     RDKit          3D

 63 67  0  0  1  0  0  0  0  0999 V2000
   60.3960   29.5350   48.3580 C   0  0  0  0  0  0  0  0  0  0  0  0
   60.3240   29.2010   46.9700 O   0  0  0  0  0  0  0  0  0  0  0  0
   59.3580   28.3120   46.5220 C   0  0  0  0  0  0  0  0  0  0  0  0
   59.6440   26.9730   46.3740 C   0  0  0  0  0  0  0  0  0  0  0  0
   58.7060   26.0650   45.9300 C   0  0  0  0  0  0  0  0  0  0  0  0
   57.4210   26.5200   45.6210 C   0  0  0  0  0  0  0  0  0  0  0  0
   56.4580   25.5720   45.1630 N   0  0  0  0  0  0  0  0  0  0  0  0
   55.7120   24.7430   46.0460 C   0  0  0  0  0  0  0  0  0  0  0  0
   55.9170   24.8600   47.2630 O   0  0  0  0  0  0  0  0  0  0  0  0
   54.7740   23.8260   45.5190 N   0  0  0  0  0  0  0  0  0  0  0  0
   53.9580   22.9360   46.3150 C   0  0  0  0  0  0  0  0  0  0  0  0
   52.5650   23.0160   45.8210 C   0  0  0  0  0  0  0  0  0  0  0  0
   52.2390   23.3220   44.5430 N   0  0  0  0  0  0  0  0  0  0  0  0
   50.9080   23.3100   44.3810 C   0  0  0  0  0  0  0  0  0  0  0  0
   50.3730   22.9820   45.6080 C   0  0  0  0  0  0  0  0  0  0  0  0
   51.3990   22.8130   46.4500 N   0  0  0  0  0  0  0  0  0  0  0  0
   57.1400   27.8630   45.7720 C   0  0  0  0  0  0  0  0  0  0  0  0
   58.0660   28.7540   46.2090 C   0  0  0  0  0  0  0  0  0  0  0  0
   57.8380   30.1470   46.3840 N   0  0  0  0  0  0  0  0  0  0  0  0
   57.8810   31.0270   45.4530 C   0  0  0  0  0  0  0  0  0  0  0  0
   57.3750   30.6780   44.2490 N   0  0  0  0  0  0  0  0  0  0  0  0
   57.4230   31.6050   43.2730 C   0  0  0  0  0  0  0  0  0  0  0  0
   57.9500   32.8310   43.4740 N   0  0  0  0  0  0  0  0  0  0  0  0
   58.4620   33.2020   44.6720 C   0  0  0  0  0  0  0  0  0  0  0  0
   58.4240   32.2720   45.6870 C   0  0  0  0  0  0  0  0  0  0  0  0
   58.9470   32.5280   47.0560 C   0  0  0  0  0  0  0  0  0  0  0  0
   59.7640   33.7940   46.9270 N   0  0  0  0  0  0  0  0  0  0  0  0
   61.0790   33.6640   47.3650 C   0  0  0  0  0  0  0  0  0  0  0  0
   62.0440   33.6040   46.3840 N   0  0  0  0  0  0  0  0  0  0  0  0
   63.3510   33.4960   46.5900 C   0  0  0  0  0  0  0  0  0  0  0  0
   63.8530   33.4350   47.8670 C   0  0  0  0  0  0  0  0  0  0  0  0
   62.9320   33.4910   48.8900 C   0  0  0  0  0  0  0  0  0  0  0  0
   61.5550   33.6050   48.6410 C   0  0  0  0  0  0  0  0  0  0  0  0
   60.6840   33.6470   49.8210 C   0  0  0  0  0  0  0  0  0  0  0  0
   59.9900   32.3990   49.9130 F   0  0  0  0  0  0  0  0  0  0  0  0
   59.6500   34.5460   49.7320 F   0  0  0  0  0  0  0  0  0  0  0  0
   61.3860   33.6620   51.0120 F   0  0  0  0  0  0  0  0  0  0  0  0
   59.0050   34.8430   46.3480 C   0  0  0  0  0  0  0  0  0  0  0  0
   59.0290   34.5680   44.8220 C   0  0  0  0  0  0  0  0  0  0  0  0
   60.2023   28.6363   48.9619 H   0  0  0  0  0  0  0  0  0  0  0  0
   61.3985   29.9236   48.5901 H   0  0  0  0  0  0  0  0  0  0  0  0
   59.6426   30.3021   48.5901 H   0  0  0  0  0  0  0  0  0  0  0  0
   60.6552   26.6156   46.6183 H   0  0  0  0  0  0  0  0  0  0  0  0
   58.9644   25.0014   45.8209 H   0  0  0  0  0  0  0  0  0  0  0  0
   56.3070   25.4960   44.1140 H   0  0  0  0  0  0  0  0  0  0  0  0
   54.6730   23.7990   44.4810 H   0  0  0  0  0  0  0  0  0  0  0  0
   54.3285   21.9049   46.2177 H   0  0  0  0  0  0  0  0  0  0  0  0
   54.0016   23.2279   47.3747 H   0  0  0  0  0  0  0  0  0  0  0  0
   50.3540   23.5199   43.4542 H   0  0  0  0  0  0  0  0  0  0  0  0
   49.3048   22.8787   45.8494 H   0  0  0  0  0  0  0  0  0  0  0  0
   51.2700   22.5530   47.4500 H   0  0  0  0  0  0  0  0  0  0  0  0
   56.1296   28.2240   45.5295 H   0  0  0  0  0  0  0  0  0  0  0  0
   57.0198   31.3548   42.2806 H   0  0  0  0  0  0  0  0  0  0  0  0
   57.9750   33.5300   42.7010 H   0  0  0  0  0  0  0  0  0  0  0  0
   58.1195   32.6716   47.7664 H   0  0  0  0  0  0  0  0  0  0  0  0
   59.5435   31.6859   47.4368 H   0  0  0  0  0  0  0  0  0  0  0  0
   64.0373   33.4550   45.7313 H   0  0  0  0  0  0  0  0  0  0  0  0
   64.9319   33.3463   48.0623 H   0  0  0  0  0  0  0  0  0  0  0  0
   63.2853   33.4451   49.9307 H   0  0  0  0  0  0  0  0  0  0  0  0
   57.9724   34.8264   46.7267 H   0  0  0  0  0  0  0  0  0  0  0  0
   59.4172   35.8328   46.5939 H   0  0  0  0  0  0  0  0  0  0  0  0
   58.4121   35.3044   44.2861 H   0  0  0  0  0  0  0  0  0  0  0  0
   60.0431   34.6444   44.4028 H   0  0  0  0  0  0  0  0  0  0  0  0
  1  2  1  0
  2  3  1  0
  3  4  2  0
  4  5  1  0
  5  6  2  0
  6  7  1  0
  7  8  1  0
  8  9  2  0
  8 10  1  0
 10 11  1  0
 11 12  1  0
 12 13  2  0
 13 14  1  0
 14 15  2  0
 15 16  1  0
  6 17  1  0
 17 18  2  0
 18 19  1  0
 19 20  2  0
 20 21  1  0
 21 22  2  0
 22 23  1  0
 23 24  1  0
 24 25  2  0
 25 26  1  0
 26 27  1  0
 27 28  1  0
 28 29  2  0
 29 30  1  0
 30 31  2  0
 31 32  1  0
 32 33  2  0
 33 34  1  0
 34 35  1  0
 34 36  1  0
 34 37  1  0
 27 38  1  0
 38 39  1  0
 18  3  1  0
 25 20  1  0
 33 28  1  0
 16 12  1  0
 39 24  1  0
  1 40  1  0
  1 41  1  0
  1 42  1  0
  4 43  1  0
  5 44  1  0
  7 45  1  0
 10 46  1  0
 11 47  1  0
 11 48  1  0
 14 49  1  0
 15 50  1  0
 16 51  1  0
 17 52  1  0
 22 53  1  0
 23 54  1  0
 26 55  1  0
 26 56  1  0
 30 57  1  0
 31 58  1  0
 32 59  1  0
 38 60  1  0
 38 61  1  0
 39 62  1  0
 39 63  1  0
M  END
>  <smiles>  (67) 
COc1ccc(NC(=O)NCc2ncc[nH]2)cc1N=c1nc[nH]c2c1CN(c1ncccc1C(F)(F)F)CC2

>  <score_type>  (67) 
oracle

>  <origin>  (67) 
adg

>  <m_score__min__energy>  (67) 
-9.4700000000000006

>  <m_primary>  (67) 
energy

$$$$
67:0
     RDKit          3D

 40 43  0  0  1  0  0  0  0  0999 V2000
   65.9000   33.4400   50.5180 C   0  0  0  0  0  0  0  0  0  0  0  0
   65.1740   32.3370   49.7700 C   0  0  0  0  0  0  0  0  0  0  0  0
   63.9030   32.8710   49.2030 C   0  0  0  0  0  0  0  0  0  0  0  0
   63.6530   32.9900   47.8500 C   0  0  0  0  0  0  0  0  0  0  0  0
   62.3840   33.5200   47.7150 C   0  0  0  0  0  0  0  0  0  0  0  0
   61.6300   33.8450   46.6010 C   0  0  0  0  0  0  0  0  0  0  0  0
   60.3710   34.3660   46.8080 C   0  0  0  0  0  0  0  0  0  0  0  0
   59.4460   34.7630   45.7380 C   0  0  0  0  0  0  0  0  0  0  0  0
   58.1520   34.0010   45.7290 C   0  0  0  0  0  0  0  0  0  0  0  0
   58.4160   32.6370   45.3420 N   0  0  0  0  0  0  0  0  0  0  0  0
   57.9650   32.1740   44.2100 C   0  0  0  0  0  0  0  0  0  0  0  0
   58.2750   32.7450   43.0330 N   0  0  0  0  0  0  0  0  0  0  0  0
   57.8340   32.3030   41.8480 C   0  0  0  0  0  0  0  0  0  0  0  0
   57.0260   31.2190   41.7950 N   0  0  0  0  0  0  0  0  0  0  0  0
   56.6700   30.5910   42.9410 C   0  0  0  0  0  0  0  0  0  0  0  0
   55.8930   29.5170   43.1370 N   0  0  0  0  0  0  0  0  0  0  0  0
   55.8760   29.3200   44.4790 C   0  0  0  0  0  0  0  0  0  0  0  0
   56.6290   30.2570   45.0910 N   0  0  0  0  0  0  0  0  0  0  0  0
   57.1410   31.0680   44.1660 C   0  0  0  0  0  0  0  0  0  0  0  0
   59.9260   34.5360   48.1210 C   0  0  0  0  0  0  0  0  0  0  0  0
   60.6880   34.2090   49.1740 N   0  0  0  0  0  0  0  0  0  0  0  0
   61.9240   33.6970   49.0040 C   0  0  0  0  0  0  0  0  0  0  0  0
   62.8400   33.3060   49.9020 N   0  0  0  0  0  0  0  0  0  0  0  0
   65.7944   33.2795   51.6011 H   0  0  0  0  0  0  0  0  0  0  0  0
   66.9661   33.4262   50.2475 H   0  0  0  0  0  0  0  0  0  0  0  0
   65.4657   34.4138   50.2475 H   0  0  0  0  0  0  0  0  0  0  0  0
   65.8119   31.9666   48.9540 H   0  0  0  0  0  0  0  0  0  0  0  0
   64.9476   31.5132   50.4628 H   0  0  0  0  0  0  0  0  0  0  0  0
   64.3360   32.7145   47.0329 H   0  0  0  0  0  0  0  0  0  0  0  0
   62.0223   33.6926   45.5847 H   0  0  0  0  0  0  0  0  0  0  0  0
   59.2161   35.8318   45.8596 H   0  0  0  0  0  0  0  0  0  0  0  0
   59.9501   34.5412   44.7858 H   0  0  0  0  0  0  0  0  0  0  0  0
   57.7053   34.0198   46.7341 H   0  0  0  0  0  0  0  0  0  0  0  0
   57.4528   34.4621   45.0159 H   0  0  0  0  0  0  0  0  0  0  0  0
   58.8990   33.5890   43.0100 H   0  0  0  0  0  0  0  0  0  0  0  0
   58.1274   32.8190   40.9219 H   0  0  0  0  0  0  0  0  0  0  0  0
   55.4270   28.9880   42.3790 H   0  0  0  0  0  0  0  0  0  0  0  0
   55.3291   28.5153   44.9922 H   0  0  0  0  0  0  0  0  0  0  0  0
   58.9219   34.9499   48.2957 H   0  0  0  0  0  0  0  0  0  0  0  0
   62.7230   33.3430   50.9290 H   0  0  0  0  0  0  0  0  0  0  0  0
  1  2  1  0
  2  3  1  0
  3  4  2  0
  4  5  1  0
  5  6  2  0
  6  7  1  0
  7  8  1  0
  8  9  1  0
  9 10  1  0
 10 11  2  0
 11 12  1  0
 12 13  1  0
 13 14  2  0
 14 15  1  0
 15 16  1  0
 16 17  1  0
 17 18  2  0
 18 19  1  0
  7 20  2  0
 20 21  1  0
 21 22  2  0
 22 23  1  0
 23  3  1  0
 22  5  1  0
 19 11  1  0
 19 15  2  0
  1 24  1  0
  1 25  1  0
  1 26  1  0
  2 27  1  0
  2 28  1  0
  4 29  1  0
  6 30  1  0
  8 31  1  0
  8 32  1  0
  9 33  1  0
  9 34  1  0
 12 35  1  0
 13 36  1  0
 16 37  1  0
 17 38  1  0
 20 39  1  0
 23 40  1  0
M  END
>  <smiles>  (68) 
CCc1cc2cc(CCN=c3[nH]cnc4[nH]cnc34)cnc2[nH]1

>  <score_type>  (68) 
oracle

>  <origin>  (68) 
adg

>  <m_score__min__energy>  (68) 
-7.9000000000000004

>  <m_primary>  (68) 
energy

$$$$
68:0
     RDKit          3D

 32 33  0  0  0  0  0  0  0  0999 V2000
   60.0460   27.6190   47.7990 C   0  0  0  0  0  0  0  0  0  0  0  0
   59.6400   27.2910   46.3660 C   0  0  0  0  0  0  0  0  0  0  0  0
   58.1610   26.9720   46.2860 C   0  0  0  0  0  0  0  0  0  0  0  0
   57.2220   27.8860   45.7490 C   0  0  0  0  0  0  0  0  0  0  0  0
   57.6020   29.2390   45.2950 C   0  0  0  0  0  0  0  0  0  0  0  0
   57.3330   29.5960   43.8580 C   0  0  0  0  0  0  0  0  0  0  0  0
   58.1030   30.1130   46.1890 C   0  0  0  0  0  0  0  0  0  0  0  0
   58.1940   31.5710   45.9850 C   0  0  0  0  0  0  0  0  0  0  0  0
   59.3530   32.2940   46.3100 C   0  0  0  0  0  0  0  0  0  0  0  0
   59.3990   33.6670   46.0590 C   0  0  0  0  0  0  0  0  0  0  0  0
   58.3030   34.3020   45.4720 C   0  0  0  0  0  0  0  0  0  0  0  0
   57.1780   33.5480   45.1340 C   0  0  0  0  0  0  0  0  0  0  0  0
   57.1520   32.2130   45.3890 N   0  0  0  0  0  0  0  0  0  0  0  0
   55.9210   27.5140   45.6170 N   0  0  0  0  0  0  0  0  0  0  0  0
   55.4940   26.2850   45.9970 C   0  0  0  0  0  0  0  0  0  0  0  0
   54.2810   25.9730   45.8700 O   0  0  0  0  0  0  0  0  0  0  0  0
   56.3720   25.3900   46.5110 N   0  0  0  0  0  0  0  0  0  0  0  0
   57.6860   25.6990   46.6570 C   0  0  0  0  0  0  0  0  0  0  0  0
   58.4720   24.8280   47.1210 O   0  0  0  0  0  0  0  0  0  0  0  0
   59.3856   27.0855   48.4985 H   0  0  0  0  0  0  0  0  0  0  0  0
   61.0870   27.3054   47.9661 H   0  0  0  0  0  0  0  0  0  0  0  0
   59.9582   28.7027   47.9661 H   0  0  0  0  0  0  0  0  0  0  0  0
   59.8578   28.1561   45.7224 H   0  0  0  0  0  0  0  0  0  0  0  0
   60.2093   26.4116   46.0305 H   0  0  0  0  0  0  0  0  0  0  0  0
   56.6715   30.4739   43.8159 H   0  0  0  0  0  0  0  0  0  0  0  0
   58.2827   29.8280   43.3539 H   0  0  0  0  0  0  0  0  0  0  0  0
   56.8481   28.7470   43.3539 H   0  0  0  0  0  0  0  0  0  0  0  0
   58.4721   29.7090   47.1432 H   0  0  0  0  0  0  0  0  0  0  0  0
   60.2177   31.7831   46.7587 H   0  0  0  0  0  0  0  0  0  0  0  0
   60.2960   34.2464   46.3230 H   0  0  0  0  0  0  0  0  0  0  0  0
   58.3257   35.3845   45.2780 H   0  0  0  0  0  0  0  0  0  0  0  0
   56.3121   34.0343   44.6611 H   0  0  0  0  0  0  0  0  0  0  0  0
  1  2  1  0
  2  3  1  0
  3  4  2  0
  4  5  1  0
  5  6  1  0
  5  7  2  3
  7  8  1  0
  8  9  2  0
  9 10  1  0
 10 11  2  0
 11 12  1  0
 12 13  2  0
  4 14  1  0
 14 15  1  0
 15 16  2  0
 15 17  1  0
 17 18  1  0
 18 19  2  0
 18  3  1  0
 13  8  1  0
  1 20  1  0
  1 21  1  0
  1 22  1  0
  2 23  1  0
  2 24  1  0
  6 25  1  0
  6 26  1  0
  6 27  1  0
  7 28  1  0
  9 29  1  0
 10 30  1  0
 11 31  1  0
 12 32  1  0
M  CHG  2  14  -1  17  -1
M  END
>  <UniqueID>  (69) 
61

>  <SMILES>  (69) 
CCc1c(C(C)=Cc2ccccn2)[n-]c(=O)[n-]c1=O

>  <Energy>  (69) 
45.22726488248098

>  <Genealogy>  (69) 
CCc1c(C(C)=Cc2ccccn2)[n-]c(=O)[n-]c1=O (protonated)
CCc1c(C(C)=Cc2ccccn2)[n-]c(=O)[n-]c1=O (3D coordinates assigned)
CCc1c(C(C)=Cc2ccccn2)[n-]c(=O)[n-]c1=O (optimized conformer: 45.22726488248098 kcal/mol)

>  <smiles>  (69) 
CCc1c(C(C)=Cc2ccccn2)[nH]c(=O)[nH]c1=O

>  <score_type>  (69) 
oracle

>  <origin>  (69) 
adg

>  <m_score__min__energy>  (69) 
-11.25

>  <m_primary>  (69) 
energy

$$$$
69:0
     RDKit          3D

 47 50  0  0  0  0  0  0  0  0999 V2000
   61.5680   32.8100   47.0170 O   0  0  0  0  0  0  0  0  0  0  0  0
   60.8130   32.3780   47.9290 C   0  0  0  0  0  0  0  0  0  0  0  0
   61.4140   31.6570   49.1030 C   0  0  0  0  0  0  0  0  0  0  0  0
   60.7170   32.0060   50.3480 N   0  0  0  0  0  0  0  0  0  0  0  0
   60.7010   33.3360   50.8810 C   0  0  0  0  0  0  0  0  0  0  0  0
   61.5740   34.2100   50.6310 O   0  0  0  0  0  0  0  0  0  0  0  0
   59.5160   33.5490   51.6870 C   0  0  0  0  0  0  0  0  0  0  0  0
   59.1820   34.6080   52.2820 O   0  0  0  0  0  0  0  0  0  0  0  0
   58.7850   32.3000   51.6410 C   0  0  0  0  0  0  0  0  0  0  0  0
   57.5600   31.9710   52.2110 C   0  0  0  0  0  0  0  0  0  0  0  0
   57.0590   30.6810   52.0020 C   0  0  0  0  0  0  0  0  0  0  0  0
   55.3740   30.1860   52.7520 Br  0  0  0  0  0  0  0  0  0  0  0  0
   57.7970   29.7440   51.2560 C   0  0  0  0  0  0  0  0  0  0  0  0
   59.0340   30.0880   50.6850 C   0  0  0  0  0  0  0  0  0  0  0  0
   60.0200   28.7140   49.7860 Br  0  0  0  0  0  0  0  0  0  0  0  0
   59.5110   31.4020   50.8680 C   0  0  0  0  0  0  0  0  0  0  0  0
   59.3940   32.5760   47.8480 N   0  0  0  0  0  0  0  0  0  0  0  0
   58.7290   32.6880   46.5860 C   0  0  0  0  0  0  0  0  0  0  0  0
   58.1510   31.5450   46.0150 C   0  0  0  0  0  0  0  0  0  0  0  0
   57.4910   31.6220   44.7830 C   0  0  0  0  0  0  0  0  0  0  0  0
   56.7520   30.1850   44.0790 S   0  0  0  0  0  0  0  0  0  0  0  0
   55.5560   29.7880   44.8980 O   0  0  0  0  0  0  0  0  0  0  0  0
   56.2740   30.4660   42.6830 O   0  0  0  0  0  0  0  0  0  0  0  0
   57.8890   28.8710   44.1050 N   0  0  0  0  0  0  0  0  0  0  0  0
   58.1080   27.9350   45.1740 C   0  0  0  0  0  0  0  0  0  0  0  0
   57.0890   27.0850   45.6470 C   0  0  0  0  0  0  0  0  0  0  0  0
   57.3360   26.2110   46.7100 C   0  0  0  0  0  0  0  0  0  0  0  0
   58.5990   26.1640   47.3020 C   0  0  0  0  0  0  0  0  0  0  0  0
   59.6180   26.9970   46.8380 C   0  0  0  0  0  0  0  0  0  0  0  0
   59.3730   27.8890   45.7850 C   0  0  0  0  0  0  0  0  0  0  0  0
   60.6870   28.9140   45.2180 Cl  0  0  0  0  0  0  0  0  0  0  0  0
   57.4020   32.8580   44.1240 C   0  0  0  0  0  0  0  0  0  0  0  0
   57.9640   34.0010   44.6970 C   0  0  0  0  0  0  0  0  0  0  0  0
   58.6200   33.9230   45.9280 C   0  0  0  0  0  0  0  0  0  0  0  0
   59.1400   35.0790   46.5030 O   0  0  0  0  0  0  0  0  0  0  0  0
   61.3345   30.5723   48.9381 H   0  0  0  0  0  0  0  0  0  0  0  0
   62.4684   31.9564   49.1958 H   0  0  0  0  0  0  0  0  0  0  0  0
   57.0001   32.7045   52.8097 H   0  0  0  0  0  0  0  0  0  0  0  0
   57.4000   28.7275   51.1177 H   0  0  0  0  0  0  0  0  0  0  0  0
   58.8100   32.3230   48.6750 H   0  0  0  0  0  0  0  0  0  0  0  0
   58.2168   30.5803   46.5394 H   0  0  0  0  0  0  0  0  0  0  0  0
   56.0944   27.1090   45.1778 H   0  0  0  0  0  0  0  0  0  0  0  0
   56.5321   25.5582   47.0810 H   0  0  0  0  0  0  0  0  0  0  0  0
   58.7912   25.4706   48.1340 H   0  0  0  0  0  0  0  0  0  0  0  0
   60.6155   26.9534   47.2996 H   0  0  0  0  0  0  0  0  0  0  0  0
   56.8883   32.9266   43.1537 H   0  0  0  0  0  0  0  0  0  0  0  0
   57.8898   34.9672   44.1766 H   0  0  0  0  0  0  0  0  0  0  0  0
  1  2  2  0
  2  3  1  0
  3  4  1  0
  4  5  1  0
  5  6  2  0
  5  7  1  0
  7  8  2  0
  7  9  1  0
  9 10  2  0
 10 11  1  0
 11 12  1  0
 11 13  2  0
 13 14  1  0
 14 15  1  0
 14 16  2  0
  2 17  1  0
 17 18  1  0
 18 19  2  0
 19 20  1  0
 20 21  1  0
 21 22  2  0
 21 23  2  0
 21 24  1  0
 24 25  1  0
 25 26  2  0
 26 27  1  0
 27 28  2  0
 28 29  1  0
 29 30  2  0
 30 31  1  0
 20 32  2  0
 32 33  1  0
 33 34  2  0
 34 35  1  0
 16  4  1  0
 34 18  1  0
 16  9  1  0
 30 25  1  0
  3 36  1  0
  3 37  1  0
 10 38  1  0
 13 39  1  0
 17 40  1  0
 19 41  1  0
 26 42  1  0
 27 43  1  0
 28 44  1  0
 29 45  1  0
 32 46  1  0
 33 47  1  0
M  CHG  2  24  -1  35  -1
M  END
>  <UniqueID>  (70) 
62

>  <SMILES>  (70) 
O=C(CN1C(=O)C(=O)c2cc(Br)cc(Br)c21)Nc1cc(S(=O)(=O)[N-]c2ccccc2Cl)ccc1[O-]

>  <Energy>  (70) 
93.32432200152181

>  <Genealogy>  (70) 
O=C(CN1C(=O)C(=O)c2cc(Br)cc(Br)c21)Nc1cc(S(=O)(=O)[N-]c2ccccc2Cl)ccc1[O-] (protonated)
O=C(CN1C(=O)C(=O)c2cc(Br)cc(Br)c21)Nc1cc(S(=O)(=O)[N-]c2ccccc2Cl)ccc1[O-] (3D coordinates assigned)
O=C(CN1C(=O)C(=O)c2cc(Br)cc(Br)c21)Nc1cc(S(=O)(=O)[N-]c2ccccc2Cl)ccc1[O-] (nonaromatic ring conformer: 93.32432200152181 kcal/mol)

>  <smiles>  (70) 
O=C(CN1C(=O)C(=O)c2cc(Br)cc(Br)c21)Nc1cc(S(=O)(=O)Nc2ccccc2Cl)ccc1O

>  <score_type>  (70) 
oracle

>  <origin>  (70) 
adg

>  <m_score__min__energy>  (70) 
-13.220000000000001

>  <m_primary>  (70) 
energy

$$$$
70:0
     RDKit          3D

 43 46  0  0  0  0  0  0  0  0999 V2000
   55.0290   28.9980   52.6380 O   0  0  0  0  0  0  0  0  0  0  0  0
   54.7100   30.1390   52.2050 C   0  0  0  0  0  0  0  0  0  0  0  0
   55.6840   30.9550   51.5340 N   0  0  0  0  0  0  0  0  0  0  0  0
   57.1040   30.7460   51.6280 C   0  0  0  0  0  0  0  0  0  0  0  0
   57.7110   30.3600   52.8360 C   0  0  0  0  0  0  0  0  0  0  0  0
   59.0950   30.1870   52.9070 C   0  0  0  0  0  0  0  0  0  0  0  0
   59.9040   30.4160   51.7820 C   0  0  0  0  0  0  0  0  0  0  0  0
   61.3290   30.2210   51.8730 N   0  0  0  0  0  0  0  0  0  0  0  0
   62.2110   31.0230   51.2950 N   0  0  0  0  0  0  0  0  0  0  0  0
   63.4450   30.5460   51.5650 C   0  0  0  0  0  0  0  0  0  0  0  0
   64.6600   31.1680   51.1000 N   0  0  0  0  0  0  0  0  0  0  0  0
   64.6030   32.2610   50.1180 C   0  0  0  0  0  0  0  0  0  0  0  0
   65.8910   33.0890   50.1520 C   0  0  0  0  0  0  0  0  0  0  0  0
   67.0290   32.2550   50.0790 O   0  0  0  0  0  0  0  0  0  0  0  0
   67.1060   31.4630   51.2460 C   0  0  0  0  0  0  0  0  0  0  0  0
   65.9380   30.4760   51.3080 C   0  0  0  0  0  0  0  0  0  0  0  0
   63.3540   29.3960   52.3380 C   0  0  0  0  0  0  0  0  0  0  0  0
   61.9980   29.2300   52.4990 C   0  0  0  0  0  0  0  0  0  0  0  0
   61.4570   28.2680   53.1080 O   0  0  0  0  0  0  0  0  0  0  0  0
   59.2970   30.8080   50.5770 C   0  0  0  0  0  0  0  0  0  0  0  0
   57.9110   30.9820   50.5060 C   0  0  0  0  0  0  0  0  0  0  0  0
   53.3170   30.5950   52.3600 C   0  0  0  0  0  0  0  0  0  0  0  0
   52.3530   30.0140   53.1670 C   0  0  0  0  0  0  0  0  0  0  0  0
   51.2050   30.7520   52.9900 C   0  0  0  0  0  0  0  0  0  0  0  0
   51.5320   31.7360   52.0850 C   0  0  0  0  0  0  0  0  0  0  0  0
   50.6530   32.7070   51.6230 O   0  0  0  0  0  0  0  0  0  0  0  0
   52.8150   31.6530   51.6900 N   0  0  0  0  0  0  0  0  0  0  0  0
   55.3440   31.6760   50.8580 H   0  0  0  0  0  0  0  0  0  0  0  0
   57.0924   30.1933   53.7302 H   0  0  0  0  0  0  0  0  0  0  0  0
   59.5561   29.8682   53.8535 H   0  0  0  0  0  0  0  0  0  0  0  0
   64.4739   31.8357   49.1118 H   0  0  0  0  0  0  0  0  0  0  0  0
   63.7554   32.9162   50.3678 H   0  0  0  0  0  0  0  0  0  0  0  0
   65.8966   33.7814   49.2973 H   0  0  0  0  0  0  0  0  0  0  0  0
   65.9248   33.6473   51.0992 H   0  0  0  0  0  0  0  0  0  0  0  0
   68.0525   30.9025   51.2402 H   0  0  0  0  0  0  0  0  0  0  0  0
   67.0585   32.1227   52.1249 H   0  0  0  0  0  0  0  0  0  0  0  0
   66.0674   29.7143   50.5250 H   0  0  0  0  0  0  0  0  0  0  0  0
   65.9265   30.0048   52.3019 H   0  0  0  0  0  0  0  0  0  0  0  0
   64.1695   28.7690   52.7276 H   0  0  0  0  0  0  0  0  0  0  0  0
   59.9157   30.9791   49.6838 H   0  0  0  0  0  0  0  0  0  0  0  0
   57.4500   31.3069   49.5616 H   0  0  0  0  0  0  0  0  0  0  0  0
   52.4797   29.1374   53.8194 H   0  0  0  0  0  0  0  0  0  0  0  0
   50.2294   30.5894   53.4715 H   0  0  0  0  0  0  0  0  0  0  0  0
  1  2  2  0
  2  3  1  0
  3  4  1  0
  4  5  2  0
  5  6  1  0
  6  7  2  0
  7  8  1  0
  8  9  1  0
  9 10  1  0
 10 11  1  0
 11 12  1  0
 12 13  1  0
 13 14  1  0
 14 15  1  0
 15 16  1  0
 10 17  2  0
 17 18  1  0
 18 19  2  0
  7 20  1  0
 20 21  2  0
  2 22  1  0
 22 23  2  0
 23 24  1  0
 24 25  2  0
 25 26  1  0
 25 27  1  0
 21  4  1  0
 27 22  1  0
 18  8  1  0
 16 11  1  0
  3 28  1  0
  5 29  1  0
  6 30  1  0
 12 31  1  0
 12 32  1  0
 13 33  1  0
 13 34  1  0
 15 35  1  0
 15 36  1  0
 16 37  1  0
 16 38  1  0
 17 39  1  0
 20 40  1  0
 21 41  1  0
 23 42  1  0
 24 43  1  0
M  CHG  3   9  -1  26  -1  27  -1
M  END
>  <UniqueID>  (71) 
63

>  <SMILES>  (71) 
O=C(Nc1ccc(-n2[n-]c(N3CCOCC3)cc2=O)cc1)c1ccc([O-])[n-]1

>  <Energy>  (71) 
113.00319006596513

>  <Genealogy>  (71) 
O=C(Nc1ccc(-n2[n-]c(N3CCOCC3)cc2=O)cc1)c1ccc([O-])[n-]1 (protonated)
O=C(Nc1ccc(-n2[n-]c(N3CCOCC3)cc2=O)cc1)c1ccc([O-])[n-]1 (3D coordinates assigned)
O=C(Nc1ccc(-n2[n-]c(N3CCOCC3)cc2=O)cc1)c1ccc([O-])[n-]1 (nonaromatic ring conformer: 113.00319006596513 kcal/mol)

>  <smiles>  (71) 
O=C(Nc1ccc(-n2[nH]c(N3CCOCC3)cc2=O)cc1)c1ccc(O)[nH]1

>  <score_type>  (71) 
oracle

>  <origin>  (71) 
adg

>  <m_score__min__energy>  (71) 
-12.539999999999999

>  <m_primary>  (71) 
energy

$$$$
71:0
     RDKit          3D

 44 45  0  0  0  0  0  0  0  0999 V2000
   61.0650   26.9980   45.5210 H   0  0  0  0  0  0  0  0  0  0  0  0
   60.4390   26.3920   46.0340 O   0  0  0  0  0  0  0  0  0  0  0  0
   59.0470   26.5110   45.9940 C   0  0  0  0  0  0  0  0  0  0  0  0
   58.2870   25.3410   46.0990 C   0  0  0  0  0  0  0  0  0  0  0  0
   58.7971   24.3703   46.1853 H   0  0  0  0  0  0  0  0  0  0  0  0
   56.8850   25.3860   46.0960 C   0  0  0  0  0  0  0  0  0  0  0  0
   56.0990   24.1050   46.2490 C   0  0  0  0  0  0  0  0  0  0  0  0
   55.0329   24.3195   46.0831 H   0  0  0  0  0  0  0  0  0  0  0  0
   56.2712   23.7175   47.2640 H   0  0  0  0  0  0  0  0  0  0  0  0
   56.5520   23.0350   45.2470 C   0  0  0  0  0  0  0  0  0  0  0  0
   56.7826   22.1088   45.7939 H   0  0  0  0  0  0  0  0  0  0  0  0
   57.4408   23.4121   44.7199 H   0  0  0  0  0  0  0  0  0  0  0  0
   55.4910   22.7470   44.2290 C   0  0  0  0  0  0  0  0  0  0  0  0
   55.8010   22.2470   43.1160 O   0  0  0  0  0  0  0  0  0  0  0  0
   54.1570   22.9900   44.5270 O   0  0  0  0  0  0  0  0  0  0  0  0
   56.2400   26.6300   45.9940 C   0  0  0  0  0  0  0  0  0  0  0  0
   54.8520   26.7150   45.9990 O   0  0  0  0  0  0  0  0  0  0  0  0
   56.9920   27.8040   45.8800 C   0  0  0  0  0  0  0  0  0  0  0  0
   56.4771   28.7719   45.7900 H   0  0  0  0  0  0  0  0  0  0  0  0
   58.3990   27.7630   45.8790 C   0  0  0  0  0  0  0  0  0  0  0  0
   59.1800   29.0110   45.7010 C   0  0  0  0  0  0  0  0  0  0  0  0
   59.9628   29.2542   46.4345 H   0  0  0  0  0  0  0  0  0  0  0  0
   58.9690   29.8530   44.6820 C   0  0  0  0  0  0  0  0  0  0  0  0
   59.4385   29.6426   43.7097 H   0  0  0  0  0  0  0  0  0  0  0  0
   58.1280   31.0510   44.8240 C   0  0  0  0  0  0  0  0  0  0  0  0
   56.8760   30.9190   44.8860 O   0  0  0  0  0  0  0  0  0  0  0  0
   58.7130   32.3210   44.8920 O   0  0  0  0  0  0  0  0  0  0  0  0
   57.9900   33.5130   45.2090 C   0  0  0  0  0  0  0  0  0  0  0  0
   57.0705   33.5604   44.6070 H   0  0  0  0  0  0  0  0  0  0  0  0
   57.6180   33.4850   46.6970 C   0  0  0  0  0  0  0  0  0  0  0  0
   57.0280   34.3832   46.9317 H   0  0  0  0  0  0  0  0  0  0  0  0
   57.0411   32.5673   46.8839 H   0  0  0  0  0  0  0  0  0  0  0  0
   58.8630   33.4560   47.6080 C   0  0  0  0  0  0  0  0  0  0  0  0
   58.6086   33.9419   48.5615 H   0  0  0  0  0  0  0  0  0  0  0  0
   59.1435   32.4006   47.7406 H   0  0  0  0  0  0  0  0  0  0  0  0
   60.0830   34.1780   47.0020 C   0  0  0  0  0  0  0  0  0  0  0  0
   60.6848   34.6065   47.8170 H   0  0  0  0  0  0  0  0  0  0  0  0
   60.6653   33.4434   46.4264 H   0  0  0  0  0  0  0  0  0  0  0  0
   59.6610   35.3030   46.0520 C   0  0  0  0  0  0  0  0  0  0  0  0
   59.0563   36.0328   46.6104 H   0  0  0  0  0  0  0  0  0  0  0  0
   60.5715   35.7707   45.6492 H   0  0  0  0  0  0  0  0  0  0  0  0
   58.8310   34.7690   44.8670 C   0  0  0  0  0  0  0  0  0  0  0  0
   58.1474   35.5646   44.5357 H   0  0  0  0  0  0  0  0  0  0  0  0
   59.5441   34.4738   44.0832 H   0  0  0  0  0  0  0  0  0  0  0  0
  1  2  1  0
  2  3  1  0
  3  4  2  0
  4  5  1  0
  4  6  1  0
  6  7  1  0
  7  8  1  0
  7  9  1  0
  7 10  1  0
 10 11  1  0
 10 12  1  0
 10 13  1  0
 13 14  2  0
 13 15  1  0
  6 16  2  0
 16 17  1  0
 16 18  1  0
 18 19  1  0
 18 20  2  0
 20 21  1  0
 21 22  1  0
 21 23  2  0
 23 24  1  0
 23 25  1  0
 25 26  2  0
 25 27  1  0
 27 28  1  0
 28 29  1  0
 28 30  1  0
 30 31  1  0
 30 32  1  0
 30 33  1  0
 33 34  1  0
 33 35  1  0
 33 36  1  0
 36 37  1  0
 36 38  1  0
 36 39  1  0
 39 40  1  0
 39 41  1  0
 39 42  1  0
 42 43  1  0
 42 44  1  0
 20  3  1  0
 42 28  1  0
M  CHG  2  15  -1  17  -1
M  END
>  <UniqueID>  (72) 
64

>  <SMILES>  (72) 
O=C([O-])CCc1cc(O)c(/C=C/C(=O)OC2CCCCC2)cc1[O-]

>  <Energy>  (72) 
43.744057689524794

>  <Genealogy>  (72) 
O=C([O-])CCc1cc(O)c(C=CC(=O)OC2CCCCC2)cc1[O-] (protonated)
O=C([O-])CCc1cc(O)c(/C=C/C(=O)OC2CCCCC2)cc1[O-] (cis-trans isomerization)
O=C([O-])CCc1cc(O)c(/C=C/C(=O)OC2CCCCC2)cc1[O-] (3D coordinates assigned)
O=C([O-])CCc1cc(O)c(/C=C/C(=O)OC2CCCCC2)cc1[O-] (nonaromatic ring conformer: 43.744057689524794 kcal/mol)

>  <smiles>  (72) 
O=C(O)CCc1cc(O)c(C=CC(=O)OC2CCCCC2)cc1O

>  <score_type>  (72) 
oracle

>  <origin>  (72) 
adg

>  <m_score__min__energy>  (72) 
-13.529999999999999

>  <m_primary>  (72) 
energy

$$$$
72:0
     RDKit          3D

 63 67  0  0  0  0  0  0  0  0999 V2000
   61.3370   28.9010   44.5850 O   0  0  0  0  0  0  0  0  0  0  0  0
   60.1930   29.1160   45.0680 C   0  0  0  0  0  0  0  0  0  0  0  0
   58.9900   28.4880   44.4240 C   0  0  0  0  0  0  0  0  0  0  0  0
   58.3820   27.4650   45.3450 C   0  0  0  0  0  0  0  0  0  0  0  0
   59.1650   26.8520   46.3410 C   0  0  0  0  0  0  0  0  0  0  0  0
   58.5870   25.9380   47.2280 C   0  0  0  0  0  0  0  0  0  0  0  0
   57.2270   25.6270   47.1280 C   0  0  0  0  0  0  0  0  0  0  0  0
   56.4410   26.2180   46.1240 C   0  0  0  0  0  0  0  0  0  0  0  0
   55.0470   25.9150   45.9850 N   0  0  0  0  0  0  0  0  0  0  0  0
   54.4140   24.3180   45.7240 S   0  0  0  0  0  0  0  0  0  0  0  0
   54.0690   23.7000   47.0530 O   0  0  0  0  0  0  0  0  0  0  0  0
   53.1540   24.4290   44.9040 O   0  0  0  0  0  0  0  0  0  0  0  0
   55.5660   23.3000   44.8510 C   0  0  0  0  0  0  0  0  0  0  0  0
   55.5130   23.2630   43.4500 C   0  0  0  0  0  0  0  0  0  0  0  0
   56.4560   22.5280   42.7270 C   0  0  0  0  0  0  0  0  0  0  0  0
   57.4520   21.8140   43.4010 C   0  0  0  0  0  0  0  0  0  0  0  0
   57.5000   21.8290   44.7950 C   0  0  0  0  0  0  0  0  0  0  0  0
   56.5640   22.5700   45.5220 C   0  0  0  0  0  0  0  0  0  0  0  0
   56.6530   22.5840   46.8740 F   0  0  0  0  0  0  0  0  0  0  0  0
   57.0170   27.1520   45.2540 C   0  0  0  0  0  0  0  0  0  0  0  0
   60.0560   29.9300   46.2450 N   0  0  0  0  0  0  0  0  0  0  0  0
   60.9850   29.7430   47.3610 C   0  0  0  0  0  0  0  0  0  0  0  0
   60.2370   29.9100   48.6840 C   0  0  0  0  0  0  0  0  0  0  0  0
   59.4330   31.1370   48.6610 N   0  0  0  0  0  0  0  0  0  0  0  0
   59.1530   31.7950   49.9030 C   0  0  0  0  0  0  0  0  0  0  0  0
   58.0910   31.5180   50.5270 O   0  0  0  0  0  0  0  0  0  0  0  0
   60.0490   32.8950   50.4140 C   0  0  2  0  0  0  0  0  0  0  0  0
   59.6360   34.2550   49.8130 C   0  0  0  0  0  0  0  0  0  0  0  0
   60.0520   34.3530   48.4470 O   0  0  0  0  0  0  0  0  0  0  0  0
   61.2850   33.8430   48.0290 C   0  0  0  0  0  0  0  0  0  0  0  0
   61.7970   34.1560   46.7670 C   0  0  0  0  0  0  0  0  0  0  0  0
   63.0420   33.6500   46.3780 C   0  0  0  0  0  0  0  0  0  0  0  0
   63.7780   32.8430   47.2540 C   0  0  0  0  0  0  0  0  0  0  0  0
   63.2570   32.5110   48.5120 C   0  0  0  0  0  0  0  0  0  0  0  0
   61.9980   32.9930   48.8870 C   0  0  0  0  0  0  0  0  0  0  0  0
   61.4210   32.6100   50.1070 O   0  0  0  0  0  0  0  0  0  0  0  0
   58.5180   31.3500   47.5380 C   0  0  0  0  0  0  0  0  0  0  0  0
   59.2500   31.1560   46.2080 C   0  0  0  0  0  0  0  0  0  0  0  0
   58.2459   29.2682   44.2057 H   0  0  0  0  0  0  0  0  0  0  0  0
   59.2994   27.9928   43.4918 H   0  0  0  0  0  0  0  0  0  0  0  0
   60.2353   27.0926   46.4221 H   0  0  0  0  0  0  0  0  0  0  0  0
   59.2031   25.4629   48.0056 H   0  0  0  0  0  0  0  0  0  0  0  0
   56.7720   24.9189   47.8362 H   0  0  0  0  0  0  0  0  0  0  0  0
   54.7249   23.8156   42.9176 H   0  0  0  0  0  0  0  0  0  0  0  0
   56.4151   22.5109   41.6279 H   0  0  0  0  0  0  0  0  0  0  0  0
   58.1980   21.2403   42.8315 H   0  0  0  0  0  0  0  0  0  0  0  0
   58.2764   21.2563   45.3234 H   0  0  0  0  0  0  0  0  0  0  0  0
   56.3942   27.6446   44.4928 H   0  0  0  0  0  0  0  0  0  0  0  0
   61.4192   28.7336   47.3108 H   0  0  0  0  0  0  0  0  0  0  0  0
   61.7877   30.4925   47.2979 H   0  0  0  0  0  0  0  0  0  0  0  0
   59.5753   29.0450   48.8388 H   0  0  0  0  0  0  0  0  0  0  0  0
   60.9680   29.9756   49.5034 H   0  0  0  0  0  0  0  0  0  0  0  0
   59.9393   32.9493   51.5072 H   0  0  0  0  0  0  0  0  0  0  0  0
   58.5418   34.3552   49.8651 H   0  0  0  0  0  0  0  0  0  0  0  0
   60.1211   35.0573   50.3883 H   0  0  0  0  0  0  0  0  0  0  0  0
   61.2234   34.7977   46.0821 H   0  0  0  0  0  0  0  0  0  0  0  0
   63.4435   33.8867   45.3816 H   0  0  0  0  0  0  0  0  0  0  0  0
   64.7679   32.4685   46.9540 H   0  0  0  0  0  0  0  0  0  0  0  0
   63.8340   31.8757   49.2001 H   0  0  0  0  0  0  0  0  0  0  0  0
   57.6895   30.6294   47.6040 H   0  0  0  0  0  0  0  0  0  0  0  0
   58.1299   32.3782   47.5846 H   0  0  0  0  0  0  0  0  0  0  0  0
   58.5125   31.0812   45.3953 H   0  0  0  0  0  0  0  0  0  0  0  0
   59.9139   32.0160   46.0359 H   0  0  0  0  0  0  0  0  0  0  0  0
  1  2  2  0
  2  3  1  0
  3  4  1  0
  4  5  2  0
  5  6  1  0
  6  7  2  0
  7  8  1  0
  8  9  1  0
  9 10  1  0
 10 11  2  0
 10 12  2  0
 10 13  1  0
 13 14  2  0
 14 15  1  0
 15 16  2  0
 16 17  1  0
 17 18  2  0
 18 19  1  0
  8 20  2  0
  2 21  1  0
 21 22  1  0
 22 23  1  0
 23 24  1  0
 24 25  1  0
 25 26  2  0
 25 27  1  0
 27 28  1  0
 28 29  1  0
 29 30  1  0
 30 31  2  0
 31 32  1  0
 32 33  2  0
 33 34  1  0
 34 35  2  0
 35 36  1  0
 24 37  1  0
 37 38  1  0
 20  4  1  0
 38 21  1  0
 18 13  1  0
 36 27  1  0
 35 30  1  0
  3 39  1  0
  3 40  1  0
  5 41  1  0
  6 42  1  0
  7 43  1  0
 14 44  1  0
 15 45  1  0
 16 46  1  0
 17 47  1  0
 20 48  1  0
 22 49  1  0
 22 50  1  0
 23 51  1  0
 23 52  1  0
 27 53  1  1
 28 54  1  0
 28 55  1  0
 31 56  1  0
 32 57  1  0
 33 58  1  0
 34 59  1  0
 37 60  1  0
 37 61  1  0
 38 62  1  0
 38 63  1  0
M  CHG  1   9  -1
M  END
>  <UniqueID>  (73) 
65

>  <SMILES>  (73) 
O=C(Cc1cccc([N-]S(=O)(=O)c2ccccc2F)c1)N1CCN(C(=O)[C@@H]2COc3ccccc3O2)CC1

>  <Energy>  (73) 
78.64456156767004

>  <Genealogy>  (73) 
O=C(Cc1cccc([N-]S(=O)(=O)c2ccccc2F)c1)N1CCN(C(=O)C2COc3ccccc3O2)CC1 (protonated)
O=C(Cc1cccc([N-]S(=O)(=O)c2ccccc2F)c1)N1CCN(C(=O)[C@@H]2COc3ccccc3O2)CC1 (chirality)
O=C(Cc1cccc([N-]S(=O)(=O)c2ccccc2F)c1)N1CCN(C(=O)[C@@H]2COc3ccccc3O2)CC1 (3D coordinates assigned)
O=C(Cc1cccc([N-]S(=O)(=O)c2ccccc2F)c1)N1CCN(C(=O)[C@@H]2COc3ccccc3O2)CC1 (nonaromatic ring conformer: 78.64456156767004 kcal/mol)

>  <smiles>  (73) 
O=C(Cc1cccc(NS(=O)(=O)c2ccccc2F)c1)N1CCN(C(=O)C2COc3ccccc3O2)CC1

>  <score_type>  (73) 
oracle

>  <origin>  (73) 
adg

>  <m_score__min__energy>  (73) 
-12.01

>  <m_primary>  (73) 
energy

$$$$
73:0
     RDKit          3D

 44 46  0  0  0  0  0  0  0  0999 V2000
   64.1450   32.6980   48.5940 C   0  0  0  0  0  0  0  0  0  0  0  0
   62.8210   33.3100   48.2490 C   0  0  0  0  0  0  0  0  0  0  0  0
   62.4420   33.4560   46.9060 C   0  0  0  0  0  0  0  0  0  0  0  0
   61.1900   33.9840   46.5790 C   0  0  0  0  0  0  0  0  0  0  0  0
   60.3000   34.3780   47.5900 C   0  0  0  0  0  0  0  0  0  0  0  0
   58.9370   34.9080   47.2230 C   0  0  0  0  0  0  0  0  0  0  0  0
   57.9880   33.8560   47.0600 O   0  0  0  0  0  0  0  0  0  0  0  0
   57.9770   32.9630   45.9750 C   0  0  0  0  0  0  0  0  0  0  0  0
   57.5170   33.2820   44.6970 C   0  0  0  0  0  0  0  0  0  0  0  0
   57.7250   31.9380   43.7230 S   0  0  0  0  0  0  0  0  0  0  0  0
   58.3810   30.9220   44.9020 C   0  0  0  0  0  0  0  0  0  0  0  0
   58.9370   29.5430   44.6480 C   0  0  0  0  0  0  0  0  0  0  0  0
   58.0800   28.4940   45.2490 N   0  0  0  0  0  0  0  0  0  0  0  0
   58.6270   27.3840   45.8610 C   0  0  0  0  0  0  0  0  0  0  0  0
   60.1190   27.2250   46.0500 C   0  0  0  0  0  0  0  0  0  0  0  0
   57.7870   26.3850   46.3700 C   0  0  0  0  0  0  0  0  0  0  0  0
   56.4120   26.5240   46.2330 C   0  0  0  0  0  0  0  0  0  0  0  0
   55.6360   25.6410   46.6810 O   0  0  0  0  0  0  0  0  0  0  0  0
   55.9060   27.6170   45.6170 N   0  0  0  0  0  0  0  0  0  0  0  0
   56.7140   28.5900   45.1250 C   0  0  0  0  0  0  0  0  0  0  0  0
   56.1830   29.5880   44.5590 O   0  0  0  0  0  0  0  0  0  0  0  0
   58.4470   31.6430   46.0970 C   0  0  0  0  0  0  0  0  0  0  0  0
   59.0960   31.1500   47.3610 C   0  0  0  0  0  0  0  0  0  0  0  0
   60.6660   34.2000   48.9350 C   0  0  0  0  0  0  0  0  0  0  0  0
   61.9200   33.6760   49.2630 C   0  0  0  0  0  0  0  0  0  0  0  0
   64.2522   32.6484   49.6876 H   0  0  0  0  0  0  0  0  0  0  0  0
   64.2004   31.6829   48.1738 H   0  0  0  0  0  0  0  0  0  0  0  0
   64.9541   33.3135   48.1738 H   0  0  0  0  0  0  0  0  0  0  0  0
   63.1339   33.1533   46.1063 H   0  0  0  0  0  0  0  0  0  0  0  0
   60.9005   34.0914   45.5232 H   0  0  0  0  0  0  0  0  0  0  0  0
   58.5896   35.5810   48.0208 H   0  0  0  0  0  0  0  0  0  0  0  0
   59.0236   35.4429   46.2657 H   0  0  0  0  0  0  0  0  0  0  0  0
   57.0923   34.2475   44.3848 H   0  0  0  0  0  0  0  0  0  0  0  0
   58.9981   29.3764   43.5624 H   0  0  0  0  0  0  0  0  0  0  0  0
   59.9335   29.4817   45.1097 H   0  0  0  0  0  0  0  0  0  0  0  0
   60.3519   27.2002   47.1248 H   0  0  0  0  0  0  0  0  0  0  0  0
   60.4500   26.2865   45.5813 H   0  0  0  0  0  0  0  0  0  0  0  0
   60.6404   28.0727   45.5813 H   0  0  0  0  0  0  0  0  0  0  0  0
   58.2108   25.5024   46.8714 H   0  0  0  0  0  0  0  0  0  0  0  0
   58.5602   31.5570   48.2312 H   0  0  0  0  0  0  0  0  0  0  0  0
   59.0580   30.0510   47.3882 H   0  0  0  0  0  0  0  0  0  0  0  0
   60.1445   31.4814   47.3882 H   0  0  0  0  0  0  0  0  0  0  0  0
   59.9619   34.4745   49.7343 H   0  0  0  0  0  0  0  0  0  0  0  0
   62.2022   33.5498   50.3187 H   0  0  0  0  0  0  0  0  0  0  0  0
  1  2  1  0
  2  3  2  0
  3  4  1  0
  4  5  2  0
  5  6  1  0
  6  7  1  0
  7  8  1  0
  8  9  2  0
  9 10  1  0
 10 11  1  0
 11 12  1  0
 12 13  1  0
 13 14  1  0
 14 15  1  0
 14 16  2  0
 16 17  1  0
 17 18  2  0
 17 19  1  0
 19 20  1  0
 20 21  2  0
 11 22  2  0
 22 23  1  0
  5 24  1  0
 24 25  2  0
 25  2  1  0
 22  8  1  0
 20 13  1  0
  1 26  1  0
  1 27  1  0
  1 28  1  0
  3 29  1  0
  4 30  1  0
  6 31  1  0
  6 32  1  0
  9 33  1  0
 12 34  1  0
 12 35  1  0
 15 36  1  0
 15 37  1  0
 15 38  1  0
 16 39  1  0
 23 40  1  0
 23 41  1  0
 23 42  1  0
 24 43  1  0
 25 44  1  0
M  CHG  1  19  -1
M  END
>  <UniqueID>  (74) 
66

>  <SMILES>  (74) 
Cc1ccc(COc2csc(Cn3c(C)cc(=O)[n-]c3=O)c2C)cc1

>  <Energy>  (74) 
75.39437643897455

>  <Genealogy>  (74) 
Cc1ccc(COc2csc(Cn3c(C)cc(=O)[n-]c3=O)c2C)cc1 (protonated)
Cc1ccc(COc2csc(Cn3c(C)cc(=O)[n-]c3=O)c2C)cc1 (3D coordinates assigned)
Cc1ccc(COc2csc(Cn3c(C)cc(=O)[n-]c3=O)c2C)cc1 (optimized conformer: 75.39437643897455 kcal/mol)

>  <smiles>  (74) 
Cc1ccc(COc2csc(Cn3c(C)cc(=O)[nH]c3=O)c2C)cc1

>  <score_type>  (74) 
oracle

>  <origin>  (74) 
adg

>  <m_score__min__energy>  (74) 
-10.390000000000001

>  <m_primary>  (74) 
energy

$$$$
74:0
     RDKit          3D

 44 46  0  0  0  0  0  0  0  0999 V2000
   57.3070   28.8570   43.3010 O   0  0  0  0  0  0  0  0  0  0  0  0
   56.7230   29.2500   44.6280 S   0  0  0  0  0  0  0  0  0  0  0  0
   55.3600   29.8460   44.4090 O   0  0  0  0  0  0  0  0  0  0  0  0
   56.5800   27.8370   45.6300 N   0  0  0  0  0  0  0  0  0  0  0  0
   57.8160   27.0600   45.5720 C   0  0  0  0  0  0  0  0  0  0  0  0
   57.5300   25.7280   44.9440 C   0  0  0  0  0  0  0  0  0  0  0  0
   57.4630   24.5710   45.7310 C   0  0  0  0  0  0  0  0  0  0  0  0
   57.2330   23.3320   45.1320 C   0  0  0  0  0  0  0  0  0  0  0  0
   57.0820   23.2590   43.7450 C   0  0  0  0  0  0  0  0  0  0  0  0
   56.7920   21.7070   42.9800 Cl  0  0  0  0  0  0  0  0  0  0  0  0
   57.1640   24.3880   42.9890 N   0  0  0  0  0  0  0  0  0  0  0  0
   57.3890   25.6070   43.5530 C   0  0  0  0  0  0  0  0  0  0  0  0
   57.7840   30.4270   45.3970 C   0  0  0  0  0  0  0  0  0  0  0  0
   58.8180   30.0070   46.2440 C   0  0  0  0  0  0  0  0  0  0  0  0
   59.6620   30.9450   46.8420 C   0  0  0  0  0  0  0  0  0  0  0  0
   59.4810   32.3200   46.6060 C   0  0  0  0  0  0  0  0  0  0  0  0
   60.3540   33.2920   47.2100 N   0  0  0  0  0  0  0  0  0  0  0  0
   59.8580   34.4000   48.0280 C   0  0  0  0  0  0  0  0  0  0  0  0
   60.2410   34.2290   49.5150 C   0  0  0  0  0  0  0  0  0  0  0  0
   61.5930   33.5220   49.7810 C   0  0  0  0  0  0  0  0  0  0  0  0
   62.6540   33.7790   48.7060 C   0  0  0  0  0  0  0  0  0  0  0  0
   62.0730   33.0970   47.1680 S   0  0  0  0  0  0  0  0  0  0  0  0
   62.4340   31.6380   47.0950 O   0  0  0  0  0  0  0  0  0  0  0  0
   62.6600   33.8370   46.0000 O   0  0  0  0  0  0  0  0  0  0  0  0
   58.4400   32.7350   45.7590 C   0  0  0  0  0  0  0  0  0  0  0  0
   57.5960   31.7950   45.1620 C   0  0  0  0  0  0  0  0  0  0  0  0
   58.5618   27.5988   44.9691 H   0  0  0  0  0  0  0  0  0  0  0  0
   58.2093   26.9133   46.5887 H   0  0  0  0  0  0  0  0  0  0  0  0
   57.5917   24.6393   46.8213 H   0  0  0  0  0  0  0  0  0  0  0  0
   57.1712   22.4214   45.7460 H   0  0  0  0  0  0  0  0  0  0  0  0
   57.0570   24.3210   41.9520 H   0  0  0  0  0  0  0  0  0  0  0  0
   57.4605   26.5006   42.9155 H   0  0  0  0  0  0  0  0  0  0  0  0
   58.9655   28.9344   46.4386 H   0  0  0  0  0  0  0  0  0  0  0  0
   60.4741   30.6064   47.5022 H   0  0  0  0  0  0  0  0  0  0  0  0
   60.2901   35.3401   47.6545 H   0  0  0  0  0  0  0  0  0  0  0  0
   58.7604   34.4145   47.9562 H   0  0  0  0  0  0  0  0  0  0  0  0
   60.2871   35.2295   49.9698 H   0  0  0  0  0  0  0  0  0  0  0  0
   59.4698   33.5772   49.9512 H   0  0  0  0  0  0  0  0  0  0  0  0
   61.9850   33.8772   50.7455 H   0  0  0  0  0  0  0  0  0  0  0  0
   61.3922   32.4405   49.7771 H   0  0  0  0  0  0  0  0  0  0  0  0
   62.8155   34.8614   48.5949 H   0  0  0  0  0  0  0  0  0  0  0  0
   63.6050   33.3067   48.9933 H   0  0  0  0  0  0  0  0  0  0  0  0
   58.2883   33.8070   45.5645 H   0  0  0  0  0  0  0  0  0  0  0  0
   56.7804   32.1307   44.5046 H   0  0  0  0  0  0  0  0  0  0  0  0
  1  2  2  0
  2  3  2  0
  2  4  1  0
  4  5  1  0
  5  6  1  0
  6  7  2  0
  7  8  1  0
  8  9  2  0
  9 10  1  0
  9 11  1  0
 11 12  2  0
  2 13  1  0
 13 14  2  0
 14 15  1  0
 15 16  2  0
 16 17  1  0
 17 18  1  0
 18 19  1  0
 19 20  1  0
 20 21  1  0
 21 22  1  0
 22 23  2  0
 22 24  2  0
 16 25  1  0
 25 26  2  0
 12  6  1  0
 26 13  1  0
 22 17  1  0
  5 27  1  0
  5 28  1  0
  7 29  1  0
  8 30  1  0
 11 31  1  0
 12 32  1  0
 14 33  1  0
 15 34  1  0
 18 35  1  0
 18 36  1  0
 19 37  1  0
 19 38  1  0
 20 39  1  0
 20 40  1  0
 21 41  1  0
 21 42  1  0
 25 43  1  0
 26 44  1  0
M  CHG  2   4  -1  11   1
M  END
>  <UniqueID>  (75) 
67

>  <SMILES>  (75) 
O=S(=O)([N-]Cc1ccc(Cl)[nH+]c1)c1ccc(N2CCCCS2(=O)=O)cc1

>  <Energy>  (75) 
47.49516888760379

>  <Genealogy>  (75) 
O=S(=O)([N-]Cc1ccc(Cl)[nH+]c1)c1ccc(N2CCCCS2(=O)=O)cc1 (protonated)
O=S(=O)([N-]Cc1ccc(Cl)[nH+]c1)c1ccc(N2CCCCS2(=O)=O)cc1 (3D coordinates assigned)
O=S(=O)([N-]Cc1ccc(Cl)[nH+]c1)c1ccc(N2CCCCS2(=O)=O)cc1 (nonaromatic ring conformer: 47.49516888760379 kcal/mol)

>  <smiles>  (75) 
O=S(=O)(NCc1ccc(Cl)nc1)c1ccc(N2CCCCS2(=O)=O)cc1

>  <score_type>  (75) 
oracle

>  <origin>  (75) 
adg

>  <m_score__min__energy>  (75) 
-8.9299999999999997

>  <m_primary>  (75) 
energy

$$$$
75:0
     RDKit          3D

 40 41  0  0  0  0  0  0  0  0999 V2000
   59.3870   34.9770   45.4830 C   0  0  0  0  0  0  0  0  0  0  0  0
   58.6180   34.1700   46.5240 C   0  0  0  0  0  0  0  0  0  0  0  0
   58.1940   32.8510   45.9610 C   0  0  0  0  0  0  0  0  0  0  0  0
   58.2240   31.6340   46.6330 C   0  0  0  0  0  0  0  0  0  0  0  0
   57.8570   30.5500   45.8280 C   0  0  0  0  0  0  0  0  0  0  0  0
   57.5390   30.9180   44.5250 C   0  0  0  0  0  0  0  0  0  0  0  0
   57.1970   29.9760   43.4150 C   0  0  0  0  0  0  0  0  0  0  0  0
   57.4500   28.6010   43.8320 N   0  0  0  0  0  0  0  0  0  0  0  0
   58.7470   28.1520   44.2510 C   0  0  0  0  0  0  0  0  0  0  0  0
   59.7540   28.8990   44.1180 O   0  0  0  0  0  0  0  0  0  0  0  0
   58.9030   26.8100   44.9000 C   0  0  0  0  0  0  0  0  0  0  0  0
   59.2830   26.9780   46.3750 C   0  0  0  0  0  0  0  0  0  0  0  0
   58.0510   27.0300   47.2910 C   0  0  0  0  0  0  0  0  0  0  0  0
   57.0630   26.0000   46.9230 N   0  0  0  0  0  0  0  0  0  0  0  0
   57.1920   24.7350   47.4270 C   0  0  0  0  0  0  0  0  0  0  0  0
   56.2630   23.7470   47.1100 C   0  0  0  0  0  0  0  0  0  0  0  0
   55.2030   24.0770   46.2710 C   0  0  0  0  0  0  0  0  0  0  0  0
   54.3440   23.2090   45.9620 O   0  0  0  0  0  0  0  0  0  0  0  0
   55.0950   25.3380   45.7840 N   0  0  0  0  0  0  0  0  0  0  0  0
   56.0050   26.2960   46.1000 C   0  0  0  0  0  0  0  0  0  0  0  0
   55.8640   27.4550   45.6240 O   0  0  0  0  0  0  0  0  0  0  0  0
   57.7400   32.5810   44.3630 S   0  0  0  0  0  0  0  0  0  0  0  0
   60.0602   35.6834   45.9907 H   0  0  0  0  0  0  0  0  0  0  0  0
   59.9779   34.2952   44.8538 H   0  0  0  0  0  0  0  0  0  0  0  0
   58.6775   35.5344   44.8538 H   0  0  0  0  0  0  0  0  0  0  0  0
   59.2638   33.9990   47.3979 H   0  0  0  0  0  0  0  0  0  0  0  0
   57.7208   34.7346   46.8178 H   0  0  0  0  0  0  0  0  0  0  0  0
   58.5077   31.5336   47.6910 H   0  0  0  0  0  0  0  0  0  0  0  0
   57.8234   29.5115   46.1892 H   0  0  0  0  0  0  0  0  0  0  0  0
   56.1338   30.0885   43.1563 H   0  0  0  0  0  0  0  0  0  0  0  0
   57.8205   30.2083   42.5391 H   0  0  0  0  0  0  0  0  0  0  0  0
   56.6430   27.9380   43.8800 H   0  0  0  0  0  0  0  0  0  0  0  0
   57.9533   26.2595   44.8296 H   0  0  0  0  0  0  0  0  0  0  0  0
   59.6988   26.2519   44.3850 H   0  0  0  0  0  0  0  0  0  0  0  0
   59.9131   26.1285   46.6771 H   0  0  0  0  0  0  0  0  0  0  0  0
   59.8201   27.9324   46.4780 H   0  0  0  0  0  0  0  0  0  0  0  0
   58.3706   26.8641   48.3304 H   0  0  0  0  0  0  0  0  0  0  0  0
   57.5790   28.0174   47.1805 H   0  0  0  0  0  0  0  0  0  0  0  0
   58.0374   24.4958   48.0889 H   0  0  0  0  0  0  0  0  0  0  0  0
   56.3649   22.7288   47.5137 H   0  0  0  0  0  0  0  0  0  0  0  0
  1  2  1  0
  2  3  1  0
  3  4  2  0
  4  5  1  0
  5  6  2  0
  6  7  1  0
  7  8  1  0
  8  9  1  0
  9 10  2  0
  9 11  1  0
 11 12  1  0
 12 13  1  0
 13 14  1  0
 14 15  1  0
 15 16  2  0
 16 17  1  0
 17 18  2  0
 17 19  1  0
 19 20  1  0
 20 21  2  0
  6 22  1  0
 22  3  1  0
 20 14  1  0
  1 23  1  0
  1 24  1  0
  1 25  1  0
  2 26  1  0
  2 27  1  0
  4 28  1  0
  5 29  1  0
  7 30  1  0
  7 31  1  0
  8 32  1  0
 11 33  1  0
 11 34  1  0
 12 35  1  0
 12 36  1  0
 13 37  1  0
 13 38  1  0
 15 39  1  0
 16 40  1  0
M  CHG  1  19  -1
M  END
>  <UniqueID>  (76) 
68

>  <SMILES>  (76) 
CCc1ccc(CNC(=O)CCCn2ccc(=O)[n-]c2=O)s1

>  <Energy>  (76) 
55.06328256407811

>  <Genealogy>  (76) 
CCc1ccc(CNC(=O)CCCn2ccc(=O)[n-]c2=O)s1 (protonated)
CCc1ccc(CNC(=O)CCCn2ccc(=O)[n-]c2=O)s1 (3D coordinates assigned)
CCc1ccc(CNC(=O)CCCn2ccc(=O)[n-]c2=O)s1 (optimized conformer: 55.06328256407811 kcal/mol)

>  <smiles>  (76) 
CCc1ccc(CNC(=O)CCCn2ccc(=O)[nH]c2=O)s1

>  <score_type>  (76) 
oracle

>  <origin>  (76) 
adg

>  <m_score__min__energy>  (76) 
-9.9199999999999999

>  <m_primary>  (76) 
energy

$$$$
76:0
     RDKit          3D

 29 31  0  0  0  0  0  0  0  0999 V2000
   58.5270   33.1900   51.9140 C   0  0  0  0  0  0  0  0  0  0  0  0
   59.5420   33.1190   50.9180 O   0  0  0  0  0  0  0  0  0  0  0  0
   59.2950   33.0640   49.5390 C   0  0  0  0  0  0  0  0  0  0  0  0
   59.5370   34.1550   48.6830 C   0  0  0  0  0  0  0  0  0  0  0  0
   59.2760   34.0500   47.3140 C   0  0  0  0  0  0  0  0  0  0  0  0
   58.7720   32.8550   46.7730 C   0  0  0  0  0  0  0  0  0  0  0  0
   58.4960   32.7400   45.3650 N   0  0  0  0  0  0  0  0  0  0  0  0
   58.9330   33.5710   44.4180 N   0  0  0  0  0  0  0  0  0  0  0  0
   58.5020   33.2210   43.2050 N   0  0  0  0  0  0  0  0  0  0  0  0
   57.7580   32.1190   43.4080 C   0  0  0  0  0  0  0  0  0  0  0  0
   57.0280   31.3470   42.5190 C   0  0  0  0  0  0  0  0  0  0  0  0
   57.0120   31.5990   41.2860 O   0  0  0  0  0  0  0  0  0  0  0  0
   56.3170   30.2960   43.0280 N   0  0  0  0  0  0  0  0  0  0  0  0
   56.3150   30.0190   44.3740 C   0  0  0  0  0  0  0  0  0  0  0  0
   55.5560   28.9200   44.8710 N   0  0  0  0  0  0  0  0  0  0  0  0
   57.0370   30.7960   45.2430 N   0  0  0  0  0  0  0  0  0  0  0  0
   57.7540   31.8220   44.7250 C   0  0  0  0  0  0  0  0  0  0  0  0
   58.5250   31.7710   47.6320 C   0  0  0  0  0  0  0  0  0  0  0  0
   58.7880   31.8770   49.0000 C   0  0  0  0  0  0  0  0  0  0  0  0
   58.9893   33.1577   52.9116 H   0  0  0  0  0  0  0  0  0  0  0  0
   57.9664   34.1295   51.7999 H   0  0  0  0  0  0  0  0  0  0  0  0
   57.8411   32.3376   51.7999 H   0  0  0  0  0  0  0  0  0  0  0  0
   59.9336   35.0952   49.0938 H   0  0  0  0  0  0  0  0  0  0  0  0
   59.4666   34.9097   46.6547 H   0  0  0  0  0  0  0  0  0  0  0  0
   59.5530   34.3920   44.5910 H   0  0  0  0  0  0  0  0  0  0  0  0
   54.7750   29.0790   45.5460 H   0  0  0  0  0  0  0  0  0  0  0  0
   55.7730   27.9460   44.5640 H   0  0  0  0  0  0  0  0  0  0  0  0
   58.1217   30.8322   47.2246 H   0  0  0  0  0  0  0  0  0  0  0  0
   58.5944   31.0184   49.6598 H   0  0  0  0  0  0  0  0  0  0  0  0
  1  2  1  0
  2  3  1  0
  3  4  2  0
  4  5  1  0
  5  6  2  0
  6  7  1  0
  7  8  1  0
  8  9  2  0
  9 10  1  0
 10 11  1  0
 11 12  2  0
 11 13  1  0
 13 14  1  0
 14 15  1  0
 14 16  2  0
 16 17  1  0
  6 18  1  0
 18 19  2  0
 19  3  1  0
 17  7  1  0
 17 10  2  0
  1 20  1  0
  1 21  1  0
  1 22  1  0
  4 23  1  0
  5 24  1  0
  8 25  1  0
 15 26  1  0
 15 27  1  0
 18 28  1  0
 19 29  1  0
M  CHG  2   8   1  13  -1
M  END
>  <UniqueID>  (77) 
69

>  <SMILES>  (77) 
COc1ccc(-n2[nH+]nc3c(=O)[n-]c(N)nc32)cc1

>  <Energy>  (77) 
82.63544839559282

>  <Genealogy>  (77) 
COc1ccc(-n2[nH+]nc3c(=O)[n-]c(N)nc32)cc1 (protonated)
COc1ccc(-n2[nH+]nc3c(=O)[n-]c(N)nc32)cc1 (3D coordinates assigned)
COc1ccc(-n2[nH+]nc3c(=O)[n-]c(N)nc32)cc1 (optimized conformer: 82.63544839559282 kcal/mol)

>  <smiles>  (77) 
COc1ccc(-n2nnc3c(=O)[nH]c(N)nc32)cc1

>  <score_type>  (77) 
oracle

>  <origin>  (77) 
adg

>  <m_score__min__energy>  (77) 
-7.6900000000000004

>  <m_primary>  (77) 
energy

$$$$
77:0
     RDKit          3D

 41 43  0  0  0  0  0  0  0  0999 V2000
   55.2400   26.3710   46.0030 N   0  0  0  0  0  0  0  0  0  0  0  0
   56.9310   26.1790   46.3030 S   0  0  0  0  0  0  0  0  0  0  0  0
   57.1180   25.3540   47.5440 O   0  0  0  0  0  0  0  0  0  0  0  0
   57.5710   25.4620   45.1470 O   0  0  0  0  0  0  0  0  0  0  0  0
   57.6780   27.7660   46.5060 C   0  0  0  0  0  0  0  0  0  0  0  0
   58.6560   27.9590   47.4930 C   0  0  0  0  0  0  0  0  0  0  0  0
   59.2430   29.2150   47.6830 C   0  0  0  0  0  0  0  0  0  0  0  0
   60.2580   29.3570   48.6870 N   0  0  0  0  0  0  0  0  0  0  0  0
   60.0740   29.8890   50.0040 C   0  0  0  0  0  0  0  0  0  0  0  0
   61.0650   30.2300   50.7050 O   0  0  0  0  0  0  0  0  0  0  0  0
   58.6900   30.0830   50.5370 C   0  0  0  0  0  0  0  0  0  0  0  0
   58.4870   29.2380   52.1430 S   0  0  0  0  0  0  0  0  0  0  0  0
   56.7740   29.7250   52.3560 C   0  0  0  0  0  0  0  0  0  0  0  0
   55.9350   29.0180   53.2170 C   0  0  0  0  0  0  0  0  0  0  0  0
   54.6090   29.4200   53.3540 C   0  0  0  0  0  0  0  0  0  0  0  0
   54.1480   30.5190   52.6190 C   0  0  0  0  0  0  0  0  0  0  0  0
   52.7380   31.0070   52.7610 C   0  0  0  0  0  0  0  0  0  0  0  0
   52.1060   31.1500   51.4120 C   0  0  0  0  0  0  0  0  0  0  0  0
   52.1340   30.2010   50.4600 N   0  0  0  0  0  0  0  0  0  0  0  0
   51.3950   30.7390   49.4650 C   0  0  0  0  0  0  0  0  0  0  0  0
   51.1890   30.1410   48.3760 O   0  0  0  0  0  0  0  0  0  0  0  0
   50.8910   31.9630   49.7300 N   0  0  0  0  0  0  0  0  0  0  0  0
   51.3450   32.2050   50.9690 C   0  0  0  0  0  0  0  0  0  0  0  0
   51.0660   33.3640   51.6830 O   0  0  0  0  0  0  0  0  0  0  0  0
   55.0150   31.1830   51.8080 N   0  0  0  0  0  0  0  0  0  0  0  0
   56.2860   30.7970   51.6790 N   0  0  0  0  0  0  0  0  0  0  0  0
   58.8690   30.2820   46.8490 C   0  0  0  0  0  0  0  0  0  0  0  0
   57.8940   30.0980   45.8670 C   0  0  0  0  0  0  0  0  0  0  0  0
   57.2900   28.8460   45.6940 C   0  0  0  0  0  0  0  0  0  0  0  0
   56.3110   28.6750   44.7150 O   0  0  0  0  0  0  0  0  0  0  0  0
   55.1400   27.0700   45.2340 H   0  0  0  0  0  0  0  0  0  0  0  0
   58.9650   27.1133   48.1249 H   0  0  0  0  0  0  0  0  0  0  0  0
   58.5025   31.1588   50.6696 H   0  0  0  0  0  0  0  0  0  0  0  0
   57.9738   29.6540   49.8207 H   0  0  0  0  0  0  0  0  0  0  0  0
   56.3160   28.1537   53.7807 H   0  0  0  0  0  0  0  0  0  0  0  0
   53.9313   28.8804   54.0319 H   0  0  0  0  0  0  0  0  0  0  0  0
   52.1615   30.2854   53.3584 H   0  0  0  0  0  0  0  0  0  0  0  0
   52.7442   31.9864   53.2618 H   0  0  0  0  0  0  0  0  0  0  0  0
   59.3461   31.2657   46.9702 H   0  0  0  0  0  0  0  0  0  0  0  0
   57.5983   30.9411   45.2253 H   0  0  0  0  0  0  0  0  0  0  0  0
   55.9320   27.7610   44.4970 H   0  0  0  0  0  0  0  0  0  0  0  0
  1  2  1  0
  2  3  2  0
  2  4  2  0
  2  5  1  0
  5  6  2  0
  6  7  1  0
  7  8  1  0
  8  9  1  0
  9 10  2  0
  9 11  1  0
 11 12  1  0
 12 13  1  0
 13 14  2  0
 14 15  1  0
 15 16  2  0
 16 17  1  0
 17 18  1  0
 18 19  1  0
 19 20  1  0
 20 21  2  0
 20 22  1  0
 22 23  1  0
 23 24  1  0
 16 25  1  0
 25 26  2  0
  7 27  2  0
 27 28  1  0
 28 29  2  0
 29 30  1  0
 29  5  1  0
 26 13  1  0
 23 18  2  0
  1 31  1  0
  6 32  1  0
 11 33  1  0
 11 34  1  0
 14 35  1  0
 15 36  1  0
 17 37  1  0
 17 38  1  0
 27 39  1  0
 28 40  1  0
 30 41  1  0
M  CHG  5   1  -1   8  -1  19  -1  22  -1  24  -1
M  END
>  <UniqueID>  (78) 
70

>  <SMILES>  (78) 
[NH-]S(=O)(=O)c1cc([N-]C(=O)CSc2ccc(Cc3[n-]c(=O)[n-]c3[O-])nn2)ccc1O

>  <Energy>  (78) 
70.35001704686952

>  <Genealogy>  (78) 
[NH-]S(=O)(=O)c1cc([N-]C(=O)CSc2ccc(Cc3[n-]c(=O)[n-]c3[O-])nn2)ccc1O (protonated)
[NH-]S(=O)(=O)c1cc([N-]C(=O)CSc2ccc(Cc3[n-]c(=O)[n-]c3[O-])nn2)ccc1O (3D coordinates assigned)
[NH-]S(=O)(=O)c1cc([N-]C(=O)CSc2ccc(Cc3[n-]c(=O)[n-]c3[O-])nn2)ccc1O (optimized conformer: 70.35001704686952 kcal/mol)

>  <smiles>  (78) 
NS(=O)(=O)c1cc(NC(=O)CSc2ccc(Cc3[nH]c(=O)[nH]c3O)nn2)ccc1O

>  <score_type>  (78) 
oracle

>  <origin>  (78) 
adg

>  <m_score__min__energy>  (78) 
-21.850000000000001

>  <m_primary>  (78) 
energy

$$$$
78:0
     RDKit          3D

 71 74  0  0  0  0  0  0  0  0999 V2000
   61.2672   35.2652   49.3890 H   0  0  0  0  0  0  0  0  0  0  0  0
   60.8720   34.4900   48.7160 C   0  0  0  0  0  0  0  0  0  0  0  0
   61.8500   33.5600   48.1050 C   0  0  0  0  0  0  0  0  0  0  0  0
   61.4060   32.4190   47.6700 N   0  0  0  0  0  0  0  0  0  0  0  0
   61.3240   31.3100   48.4790 O   0  0  0  0  0  0  0  0  0  0  0  0
   60.0930   30.6180   48.6440 C   0  0  0  0  0  0  0  0  0  0  0  0
   59.5766   30.9883   49.5419 H   0  0  0  0  0  0  0  0  0  0  0  0
   59.4471   30.7839   47.7692 H   0  0  0  0  0  0  0  0  0  0  0  0
   60.3840   29.1670   48.7950 C   0  0  0  0  0  0  0  0  0  0  0  0
   60.6460   28.6990   49.9330 O   0  0  0  0  0  0  0  0  0  0  0  0
   60.2380   28.2940   47.6740 N   0  0  0  0  0  0  0  0  0  0  0  0
   60.3930   28.8440   46.0400 S   0  0  0  0  0  0  0  0  0  0  0  0
   61.0460   27.7400   45.2540 O   0  0  0  0  0  0  0  0  0  0  0  0
   61.2880   30.0500   45.9920 O   0  0  0  0  0  0  0  0  0  0  0  0
   58.8230   29.2690   45.3150 C   0  0  0  0  0  0  0  0  0  0  0  0
   58.8180   30.3100   44.3690 C   0  0  0  0  0  0  0  0  0  0  0  0
   59.7629   30.8070   44.1040 H   0  0  0  0  0  0  0  0  0  0  0  0
   57.6320   30.7200   43.7630 C   0  0  0  0  0  0  0  0  0  0  0  0
   57.6463   31.5299   43.0188 H   0  0  0  0  0  0  0  0  0  0  0  0
   56.4290   30.1050   44.0990 C   0  0  0  0  0  0  0  0  0  0  0  0
   55.4937   30.4293   43.6194 H   0  0  0  0  0  0  0  0  0  0  0  0
   56.4080   29.0780   45.0430 C   0  0  0  0  0  0  0  0  0  0  0  0
   55.4505   28.6052   45.3070 H   0  0  0  0  0  0  0  0  0  0  0  0
   57.5920   28.6370   45.6630 C   0  0  0  0  0  0  0  0  0  0  0  0
   57.4750   27.5020   46.6660 C   0  0  0  0  0  0  0  0  0  0  0  0
   58.4254   27.4168   47.2132 H   0  0  0  0  0  0  0  0  0  0  0  0
   56.6375   27.7387   47.3387 H   0  0  0  0  0  0  0  0  0  0  0  0
   57.1730   26.1730   46.0120 C   0  0  0  0  0  0  0  0  0  0  0  0
   58.2310   25.2890   45.7330 C   0  0  0  0  0  0  0  0  0  0  0  0
   59.2659   25.5955   45.9454 H   0  0  0  0  0  0  0  0  0  0  0  0
   57.9830   24.0280   45.1900 C   0  0  0  0  0  0  0  0  0  0  0  0
   58.8206   23.3514   44.9649 H   0  0  0  0  0  0  0  0  0  0  0  0
   56.6740   23.6260   44.9330 C   0  0  0  0  0  0  0  0  0  0  0  0
   56.4830   22.6349   44.4956 H   0  0  0  0  0  0  0  0  0  0  0  0
   55.5980   24.4760   45.2280 C   0  0  0  0  0  0  0  0  0  0  0  0
   54.2680   24.0200   44.9220 N   0  0  0  0  0  0  0  0  0  0  0  0
   53.4960   23.0380   45.6340 C   0  0  0  0  0  0  0  0  0  0  0  0
   52.3400   22.7650   45.2070 O   0  0  0  0  0  0  0  0  0  0  0  0
   54.0220   22.3050   46.8180 C   0  0  0  0  0  0  0  0  0  0  0  0
   53.5290   22.5910   48.1030 C   0  0  0  0  0  0  0  0  0  0  0  0
   52.7623   23.3691   48.2321 H   0  0  0  0  0  0  0  0  0  0  0  0
   54.0040   21.8960   49.2170 C   0  0  0  0  0  0  0  0  0  0  0  0
   53.6093   22.1293   50.2169 H   0  0  0  0  0  0  0  0  0  0  0  0
   54.9770   20.9070   49.0680 C   0  0  0  0  0  0  0  0  0  0  0  0
   55.3584   20.3704   49.9492 H   0  0  0  0  0  0  0  0  0  0  0  0
   55.4650   20.6010   47.7950 C   0  0  0  0  0  0  0  0  0  0  0  0
   56.2306   19.8205   47.6743 H   0  0  0  0  0  0  0  0  0  0  0  0
   54.9830   21.2840   46.6740 C   0  0  0  0  0  0  0  0  0  0  0  0
   55.3564   21.0227   45.6729 H   0  0  0  0  0  0  0  0  0  0  0  0
   55.8480   25.7620   45.7530 C   0  0  0  0  0  0  0  0  0  0  0  0
   54.7930   26.6350   46.0040 O   0  0  0  0  0  0  0  0  0  0  0  0
   63.3440   33.8420   48.1590 C   0  0  0  0  0  0  0  0  0  0  0  0
   63.7313   33.5351   49.1418 H   0  0  0  0  0  0  0  0  0  0  0  0
   63.5001   34.9189   47.9982 H   0  0  0  0  0  0  0  0  0  0  0  0
   64.0910   33.0800   47.0710 C   0  0  0  0  0  0  0  0  0  0  0  0
   64.7891   32.3679   47.5354 H   0  0  0  0  0  0  0  0  0  0  0  0
   63.3702   32.5323   46.4461 H   0  0  0  0  0  0  0  0  0  0  0  0
   64.6529   33.7898   46.4461 H   0  0  0  0  0  0  0  0  0  0  0  0
   59.5440   34.4670   48.5180 C   0  0  0  0  0  0  0  0  0  0  0  0
   58.8949   34.6070   49.3950 H   0  0  0  0  0  0  0  0  0  0  0  0
   58.8940   34.2680   47.2120 C   0  0  0  0  0  0  0  0  0  0  0  0
   57.7470   33.4640   47.1270 C   0  0  0  0  0  0  0  0  0  0  0  0
   57.3380   32.9944   48.0337 H   0  0  0  0  0  0  0  0  0  0  0  0
   57.1220   33.2580   45.8920 C   0  0  0  0  0  0  0  0  0  0  0  0
   56.2151   32.6384   45.8316 H   0  0  0  0  0  0  0  0  0  0  0  0
   57.6510   33.8410   44.7310 C   0  0  0  0  0  0  0  0  0  0  0  0
   57.1511   33.6888   43.7630 H   0  0  0  0  0  0  0  0  0  0  0  0
   58.8170   34.6180   44.8030 C   0  0  0  0  0  0  0  0  0  0  0  0
   59.2440   35.0553   43.8884 H   0  0  0  0  0  0  0  0  0  0  0  0
   59.4380   34.8370   46.0410 C   0  0  0  0  0  0  0  0  0  0  0  0
   60.3483   35.4518   46.0992 H   0  0  0  0  0  0  0  0  0  0  0  0
  1  2  1  0
  2  3  1  0
  3  4  2  3
  4  5  1  0
  5  6  1  0
  6  7  1  0
  6  8  1  0
  6  9  1  0
  9 10  2  0
  9 11  1  0
 11 12  1  0
 12 13  2  0
 12 14  2  0
 12 15  1  0
 15 16  2  0
 16 17  1  0
 16 18  1  0
 18 19  1  0
 18 20  2  0
 20 21  1  0
 20 22  1  0
 22 23  1  0
 22 24  2  0
 24 25  1  0
 25 26  1  0
 25 27  1  0
 25 28  1  0
 28 29  2  0
 29 30  1  0
 29 31  1  0
 31 32  1  0
 31 33  2  0
 33 34  1  0
 33 35  1  0
 35 36  1  0
 36 37  1  0
 37 38  2  0
 37 39  1  0
 39 40  2  0
 40 41  1  0
 40 42  1  0
 42 43  1  0
 42 44  2  0
 44 45  1  0
 44 46  1  0
 46 47  1  0
 46 48  2  0
 48 49  1  0
 35 50  2  0
 50 51  1  0
  3 52  1  0
 52 53  1  0
 52 54  1  0
 52 55  1  0
 55 56  1  0
 55 57  1  0
 55 58  1  0
  2 59  2  0
 59 60  1  0
 59 61  1  0
 61 62  2  0
 62 63  1  0
 62 64  1  0
 64 65  1  0
 64 66  2  0
 66 67  1  0
 66 68  1  0
 68 69  1  0
 68 70  2  0
 70 71  1  0
 24 15  1  0
 50 28  1  0
 70 61  1  0
 48 39  1  0
M  CHG  3  11  -1  36  -1  51  -1
M  END
>  <UniqueID>  (79) 
71

>  <SMILES>  (79) 
CCC(/C=C\c1ccccc1)=NOCC(=O)[N-]S(=O)(=O)c1ccccc1Cc1cccc([N-]C(=O)c2ccccc2)c1[O-]

>  <Energy>  (79) 
91.04809748259373

>  <Genealogy>  (79) 
CCC(C=Cc1ccccc1)=NOCC(=O)[N-]S(=O)(=O)c1ccccc1Cc1cccc([N-]C(=O)c2ccccc2)c1[O-] (protonated)
CCC(/C=C\c1ccccc1)=NOCC(=O)[N-]S(=O)(=O)c1ccccc1Cc1cccc([N-]C(=O)c2ccccc2)c1[O-] (cis-trans isomerization)
CCC(/C=C\c1ccccc1)=NOCC(=O)[N-]S(=O)(=O)c1ccccc1Cc1cccc([N-]C(=O)c2ccccc2)c1[O-] (3D coordinates assigned)
CCC(/C=C\c1ccccc1)=NOCC(=O)[N-]S(=O)(=O)c1ccccc1Cc1cccc([N-]C(=O)c2ccccc2)c1[O-] (optimized conformer: 91.04809748259373 kcal/mol)

>  <smiles>  (79) 
CCC(C=Cc1ccccc1)=NOCC(=O)NS(=O)(=O)c1ccccc1Cc1cccc(NC(=O)c2ccccc2)c1O

>  <score_type>  (79) 
oracle

>  <origin>  (79) 
adg

>  <m_score__min__energy>  (79) 
-16.329999999999998

>  <m_primary>  (79) 
energy

$$$$
79:0
     RDKit          3D

 43 45  0  0  0  0  0  0  0  0999 V2000
   57.4260   30.7180   46.0320 O   0  0  0  0  0  0  0  0  0  0  0  0
   57.9160   30.5910   44.8760 C   0  0  0  0  0  0  0  0  0  0  0  0
   58.6560   29.3360   44.5200 C   0  0  0  0  0  0  0  0  0  0  0  0
   58.0870   28.1810   45.2370 N   0  0  0  0  0  0  0  0  0  0  0  0
   58.9300   27.2890   45.8410 C   0  0  0  0  0  0  0  0  0  0  0  0
   58.4280   26.1770   46.5190 C   0  0  0  0  0  0  0  0  0  0  0  0
   57.0520   25.9840   46.6130 C   0  0  0  0  0  0  0  0  0  0  0  0
   56.5630   24.8010   47.2640 N   0  0  0  0  0  0  0  0  0  0  0  0
   56.8770   23.4550   46.8900 C   0  0  0  0  0  0  0  0  0  0  0  0
   57.1860   22.6310   47.7920 O   0  0  0  0  0  0  0  0  0  0  0  0
   56.7740   23.0030   45.4870 C   0  0  0  0  0  0  0  0  0  0  0  0
   55.9040   23.6400   44.5860 C   0  0  0  0  0  0  0  0  0  0  0  0
   55.8560   23.2090   43.2590 C   0  0  0  0  0  0  0  0  0  0  0  0
   56.6780   22.1620   42.8370 C   0  0  0  0  0  0  0  0  0  0  0  0
   57.5380   21.5590   43.7550 C   0  0  0  0  0  0  0  0  0  0  0  0
   57.5640   21.9840   45.0470 N   0  0  0  0  0  0  0  0  0  0  0  0
   56.1890   26.8970   45.9840 C   0  0  0  0  0  0  0  0  0  0  0  0
   54.8100   26.7090   46.0040 O   0  0  0  0  0  0  0  0  0  0  0  0
   56.7270   27.9950   45.2980 C   0  0  0  0  0  0  0  0  0  0  0  0
   55.9460   28.8090   44.7310 O   0  0  0  0  0  0  0  0  0  0  0  0
   57.7830   31.6450   43.9160 N   0  0  0  0  0  0  0  0  0  0  0  0
   57.4660   33.0160   44.3120 C   0  0  0  0  0  0  0  0  0  0  0  0
   58.3400   33.4430   45.4620 C   0  0  0  0  0  0  0  0  0  0  0  0
   59.6610   33.8640   45.2490 C   0  0  0  0  0  0  0  0  0  0  0  0
   60.4470   34.2680   46.3290 C   0  0  0  0  0  0  0  0  0  0  0  0
   59.9060   34.2490   47.6160 C   0  0  0  0  0  0  0  0  0  0  0  0
   58.6250   33.8370   47.8090 N   0  0  0  0  0  0  0  0  0  0  0  0
   57.8400   33.4340   46.7730 C   0  0  0  0  0  0  0  0  0  0  0  0
   58.5772   29.1642   43.4364 H   0  0  0  0  0  0  0  0  0  0  0  0
   59.7110   29.4504   44.8097 H   0  0  0  0  0  0  0  0  0  0  0  0
   60.0170   27.4500   45.7918 H   0  0  0  0  0  0  0  0  0  0  0  0
   59.1182   25.4541   46.9784 H   0  0  0  0  0  0  0  0  0  0  0  0
   55.2666   24.4707   44.9232 H   0  0  0  0  0  0  0  0  0  0  0  0
   55.1717   23.6934   42.5469 H   0  0  0  0  0  0  0  0  0  0  0  0
   56.6477   21.8168   41.7930 H   0  0  0  0  0  0  0  0  0  0  0  0
   58.1963   20.7384   43.4336 H   0  0  0  0  0  0  0  0  0  0  0  0
   58.0310   31.4600   42.9180 H   0  0  0  0  0  0  0  0  0  0  0  0
   57.6352   33.6887   43.4583 H   0  0  0  0  0  0  0  0  0  0  0  0
   56.4128   33.0634   44.6260 H   0  0  0  0  0  0  0  0  0  0  0  0
   60.0773   33.8757   44.2309 H   0  0  0  0  0  0  0  0  0  0  0  0
   61.4837   34.5985   46.1678 H   0  0  0  0  0  0  0  0  0  0  0  0
   60.5164   34.5675   48.4739 H   0  0  0  0  0  0  0  0  0  0  0  0
   56.8095   33.0999   46.9641 H   0  0  0  0  0  0  0  0  0  0  0  0
  1  2  2  0
  2  3  1  0
  3  4  1  0
  4  5  1  0
  5  6  2  0
  6  7  1  0
  7  8  1  0
  8  9  1  0
  9 10  2  0
  9 11  1  0
 11 12  2  0
 12 13  1  0
 13 14  2  0
 14 15  1  0
 15 16  2  0
  7 17  2  0
 17 18  1  0
 17 19  1  0
 19 20  2  0
  2 21  1  0
 21 22  1  0
 22 23  1  0
 23 24  2  0
 24 25  1  0
 25 26  2  0
 26 27  1  0
 27 28  2  0
 19  4  1  0
 28 23  1  0
 16 11  1  0
  3 29  1  0
  3 30  1  0
  5 31  1  0
  6 32  1  0
 12 33  1  0
 13 34  1  0
 14 35  1  0
 15 36  1  0
 21 37  1  0
 22 38  1  0
 22 39  1  0
 24 40  1  0
 25 41  1  0
 26 42  1  0
 28 43  1  0
M  CHG  2   8  -1  18  -1
M  END
>  <UniqueID>  (80) 
72

>  <SMILES>  (80) 
O=C(Cn1ccc([N-]C(=O)c2ccccn2)c([O-])c1=O)NCc1cccnc1

>  <Energy>  (80) 
51.20057946305979

>  <Genealogy>  (80) 
O=C(Cn1ccc([N-]C(=O)c2ccccn2)c([O-])c1=O)NCc1cccnc1 (protonated)
O=C(Cn1ccc([N-]C(=O)c2ccccn2)c([O-])c1=O)NCc1cccnc1 (3D coordinates assigned)
O=C(Cn1ccc([N-]C(=O)c2ccccn2)c([O-])c1=O)NCc1cccnc1 (optimized conformer: 51.20057946305979 kcal/mol)

>  <smiles>  (80) 
O=C(Cn1ccc(NC(=O)c2ccccn2)c(O)c1=O)NCc1cccnc1

>  <score_type>  (80) 
oracle

>  <origin>  (80) 
adg

>  <m_score__min__energy>  (80) 
-14.039999999999999

>  <m_primary>  (80) 
energy

$$$$
80:0
     RDKit          3D

 43 45  0  0  0  0  0  0  0  0999 V2000
   65.1290   32.7470   49.6710 C   0  0  0  0  0  0  0  0  0  0  0  0
   63.9190   33.0530   48.9190 N   0  0  0  0  0  0  0  0  0  0  0  0
   63.7760   32.9590   47.5800 C   0  0  0  0  0  0  0  0  0  0  0  0
   62.5250   33.4350   47.2350 C   0  0  0  0  0  0  0  0  0  0  0  0
   61.9590   33.8130   48.4370 C   0  0  0  0  0  0  0  0  0  0  0  0
   60.7780   34.3520   48.5460 N   0  0  0  0  0  0  0  0  0  0  0  0
   59.4960   33.7140   48.4190 C   0  0  0  0  0  0  0  0  0  0  0  0
   58.8990   33.2630   49.4350 O   0  0  0  0  0  0  0  0  0  0  0  0
   58.8900   33.5400   47.0770 C   0  0  0  0  0  0  0  0  0  0  0  0
   58.9150   34.5880   46.1390 C   0  0  0  0  0  0  0  0  0  0  0  0
   58.3450   34.4180   44.8740 C   0  0  0  0  0  0  0  0  0  0  0  0
   57.7340   33.2100   44.5360 C   0  0  0  0  0  0  0  0  0  0  0  0
   57.6760   32.1630   45.4600 C   0  0  0  0  0  0  0  0  0  0  0  0
   57.0540   30.9640   45.0810 O   0  0  0  0  0  0  0  0  0  0  0  0
   57.6360   29.6880   45.1520 C   0  0  0  0  0  0  0  0  0  0  0  0
   58.8300   29.4560   44.4670 C   0  0  0  0  0  0  0  0  0  0  0  0
   59.4210   28.1940   44.5200 C   0  0  0  0  0  0  0  0  0  0  0  0
   58.8320   27.1950   45.2290 N   0  0  0  0  0  0  0  0  0  0  0  0
   57.6610   27.3720   45.8990 C   0  0  0  0  0  0  0  0  0  0  0  0
   57.1670   26.3640   46.5580 N   0  0  0  0  0  0  0  0  0  0  0  0
   55.9380   25.2690   46.0010 S   0  0  0  0  0  0  0  0  0  0  0  0
   56.5230   24.4450   44.5390 C   0  0  0  0  0  0  0  0  0  0  0  0
   55.6480   24.2410   47.0590 O   0  0  0  0  0  0  0  0  0  0  0  0
   54.6860   26.0300   45.6670 O   0  0  0  0  0  0  0  0  0  0  0  0
   57.0310   28.6320   45.8550 C   0  0  0  0  0  0  0  0  0  0  0  0
   58.2780   32.3230   46.7220 C   0  0  0  0  0  0  0  0  0  0  0  0
   62.8270   33.5840   49.4440 N   0  0  0  0  0  0  0  0  0  0  0  0
   64.9146   32.8012   50.7485 H   0  0  0  0  0  0  0  0  0  0  0  0
   65.4727   31.7337   49.4161 H   0  0  0  0  0  0  0  0  0  0  0  0
   65.9131   33.4751   49.4161 H   0  0  0  0  0  0  0  0  0  0  0  0
   64.5295   32.5686   46.8801 H   0  0  0  0  0  0  0  0  0  0  0  0
   62.0808   33.4984   46.2307 H   0  0  0  0  0  0  0  0  0  0  0  0
   59.3857   35.5467   46.4024 H   0  0  0  0  0  0  0  0  0  0  0  0
   58.3783   35.2391   44.1428 H   0  0  0  0  0  0  0  0  0  0  0  0
   57.2951   33.0808   43.5357 H   0  0  0  0  0  0  0  0  0  0  0  0
   59.3020   30.2640   43.8887 H   0  0  0  0  0  0  0  0  0  0  0  0
   60.3651   28.0068   43.9874 H   0  0  0  0  0  0  0  0  0  0  0  0
   57.1376   23.5794   44.8271 H   0  0  0  0  0  0  0  0  0  0  0  0
   55.6644   24.1029   43.9425 H   0  0  0  0  0  0  0  0  0  0  0  0
   57.1291   25.1428   43.9425 H   0  0  0  0  0  0  0  0  0  0  0  0
   56.0707   28.7881   46.3683 H   0  0  0  0  0  0  0  0  0  0  0  0
   58.2702   31.4884   47.4385 H   0  0  0  0  0  0  0  0  0  0  0  0
   62.7240   33.8120   50.4570 H   0  0  0  0  0  0  0  0  0  0  0  0
  1  2  1  0
  2  3  1  0
  3  4  2  0
  4  5  1  0
  5  6  2  3
  6  7  1  0
  7  8  2  0
  7  9  1  0
  9 10  2  0
 10 11  1  0
 11 12  2  0
 12 13  1  0
 13 14  1  0
 14 15  1  0
 15 16  1  0
 16 17  2  0
 17 18  1  0
 18 19  1  0
 19 20  2  3
 20 21  1  0
 21 22  1  0
 21 23  2  0
 21 24  2  0
 19 25  1  0
 13 26  2  0
  5 27  1  0
 27  2  1  0
 26  9  1  0
 25 15  2  0
  1 28  1  0
  1 29  1  0
  1 30  1  0
  3 31  1  0
  4 32  1  0
 10 33  1  0
 11 34  1  0
 12 35  1  0
 16 36  1  0
 17 37  1  0
 22 38  1  0
 22 39  1  0
 22 40  1  0
 25 41  1  0
 26 42  1  0
 27 43  1  0
M  CHG  1  18  -1
M  END
>  <UniqueID>  (81) 
73

>  <SMILES>  (81) 
Cn1ccc(=NC(=O)c2cccc(Oc3cc[n-]c(=NS(C)(=O)=O)c3)c2)[nH]1

>  <Energy>  (81) 
88.32131230912688

>  <Genealogy>  (81) 
Cn1ccc(=NC(=O)c2cccc(Oc3cc[n-]c(=NS(C)(=O)=O)c3)c2)[nH]1 (protonated)
Cn1ccc(=NC(=O)c2cccc(Oc3cc[n-]c(=NS(C)(=O)=O)c3)c2)[nH]1 (3D coordinates assigned)
Cn1ccc(=NC(=O)c2cccc(Oc3cc[n-]c(=NS(C)(=O)=O)c3)c2)[nH]1 (optimized conformer: 88.32131230912688 kcal/mol)

>  <smiles>  (81) 
Cn1ccc(=NC(=O)c2cccc(Oc3cc[nH]c(=NS(C)(=O)=O)c3)c2)[nH]1

>  <score_type>  (81) 
oracle

>  <origin>  (81) 
adg

>  <m_score__min__energy>  (81) 
-10.470000000000001

>  <m_primary>  (81) 
energy

$$$$
81:0
     RDKit          3D

 24 25  0  0  0  0  0  0  0  0999 V2000
   56.2610   25.2220   47.5330 O   0  0  0  0  0  0  0  0  0  0  0  0
   56.0270   25.4710   46.3210 C   0  0  0  0  0  0  0  0  0  0  0  0
   55.6840   26.8130   45.9480 N   0  0  0  0  0  0  0  0  0  0  0  0
   56.5900   27.8130   45.4600 C   0  0  0  0  0  0  0  0  0  0  0  0
   57.9610   27.5210   45.4360 C   0  0  0  0  0  0  0  0  0  0  0  0
   58.8790   28.4680   44.9720 C   0  0  0  0  0  0  0  0  0  0  0  0
   58.4310   29.7080   44.5130 C   0  0  0  0  0  0  0  0  0  0  0  0
   57.0650   29.9980   44.5010 C   0  0  0  0  0  0  0  0  0  0  0  0
   56.1400   29.0520   44.9560 C   0  0  0  0  0  0  0  0  0  0  0  0
   54.7820   29.3410   44.8740 O   0  0  0  0  0  0  0  0  0  0  0  0
   56.0830   24.3690   45.3320 C   0  0  0  0  0  0  0  0  0  0  0  0
   57.2940   24.0810   44.6830 C   0  0  0  0  0  0  0  0  0  0  0  0
   57.3580   23.0550   43.7380 C   0  0  0  0  0  0  0  0  0  0  0  0
   56.2110   22.3120   43.4570 C   0  0  0  0  0  0  0  0  0  0  0  0
   56.2490   21.3880   42.6040 O   0  0  0  0  0  0  0  0  0  0  0  0
   55.0500   22.5820   44.1100 N   0  0  0  0  0  0  0  0  0  0  0  0
   54.9570   23.5740   45.0370 C   0  0  0  0  0  0  0  0  0  0  0  0
   53.7520   23.7660   45.6990 O   0  0  0  0  0  0  0  0  0  0  0  0
   58.3169   26.5403   45.7846 H   0  0  0  0  0  0  0  0  0  0  0  0
   59.9543   28.2360   44.9686 H   0  0  0  0  0  0  0  0  0  0  0  0
   59.1548   30.4575   44.1604 H   0  0  0  0  0  0  0  0  0  0  0  0
   56.7150   30.9736   44.1325 H   0  0  0  0  0  0  0  0  0  0  0  0
   58.1954   24.6654   44.9196 H   0  0  0  0  0  0  0  0  0  0  0  0
   58.3032   22.8348   43.2203 H   0  0  0  0  0  0  0  0  0  0  0  0
  1  2  2  0
  2  3  1  0
  3  4  1  0
  4  5  2  0
  5  6  1  0
  6  7  2  0
  7  8  1  0
  8  9  2  0
  9 10  1  0
  2 11  1  0
 11 12  1  0
 12 13  2  0
 13 14  1  0
 14 15  2  0
 14 16  1  0
 16 17  1  0
 17 18  1  0
  9  4  1  0
 17 11  2  0
  5 19  1  0
  6 20  1  0
  7 21  1  0
  8 22  1  0
 12 23  1  0
 13 24  1  0
M  CHG  4   3  -1  10  -1  16  -1  18  -1
M  END
>  <UniqueID>  (82) 
74

>  <SMILES>  (82) 
O=C([N-]c1ccccc1[O-])c1ccc(=O)[n-]c1[O-]

>  <Energy>  (82) 
36.5659848229372

>  <Genealogy>  (82) 
O=C([N-]c1ccccc1[O-])c1ccc(=O)[n-]c1[O-] (protonated)
O=C([N-]c1ccccc1[O-])c1ccc(=O)[n-]c1[O-] (3D coordinates assigned)
O=C([N-]c1ccccc1[O-])c1ccc(=O)[n-]c1[O-] (optimized conformer: 36.5659848229372 kcal/mol)

>  <smiles>  (82) 
O=C(Nc1ccccc1O)c1ccc(=O)[nH]c1O

>  <score_type>  (82) 
oracle

>  <origin>  (82) 
adg

>  <m_score__min__energy>  (82) 
-16.609999999999999

>  <m_primary>  (82) 
energy

$$$$
82:0
     RDKit          3D

 27 28  0  0  0  0  0  0  0  0999 V2000
   55.5200   28.0550   45.1780 H   0  0  0  0  0  0  0  0  0  0  0  0
   55.1810   28.9890   44.8590 N   0  0  0  0  0  0  0  0  0  0  0  0
   56.5690   29.8810   44.3400 S   0  0  0  0  0  0  0  0  0  0  0  0
   56.5970   29.8980   42.8380 O   0  0  0  0  0  0  0  0  0  0  0  0
   56.4850   31.2890   44.8550 O   0  0  0  0  0  0  0  0  0  0  0  0
   58.0300   29.1170   44.9590 C   0  0  0  0  0  0  0  0  0  0  0  0
   59.2820   29.4590   44.4360 C   0  0  0  0  0  0  0  0  0  0  0  0
   59.3550   30.2038   43.6299 H   0  0  0  0  0  0  0  0  0  0  0  0
   60.4390   28.8570   44.9350 C   0  0  0  0  0  0  0  0  0  0  0  0
   61.4207   29.1257   44.5179 H   0  0  0  0  0  0  0  0  0  0  0  0
   60.3530   27.9140   45.9630 C   0  0  0  0  0  0  0  0  0  0  0  0
   61.2685   27.4430   46.3503 H   0  0  0  0  0  0  0  0  0  0  0  0
   59.1030   27.5630   46.5060 C   0  0  0  0  0  0  0  0  0  0  0  0
   59.0090   26.5660   47.6000 C   0  0  0  0  0  0  0  0  0  0  0  0
   60.0220   26.3260   48.3130 O   0  0  0  0  0  0  0  0  0  0  0  0
   57.7660   25.8830   47.8370 N   0  0  0  0  0  0  0  0  0  0  0  0
   56.8750   25.5210   46.9600 C   0  0  0  0  0  0  0  0  0  0  0  0
   55.8610   26.3340   46.5930 N   0  0  0  0  0  0  0  0  0  0  0  0
   55.0550   25.7910   45.6820 N   0  0  0  0  0  0  0  0  0  0  0  0
   55.4130   24.5370   45.3280 C   0  0  0  0  0  0  0  0  0  0  0  0
   54.7110   23.7450   44.2780 C   0  0  0  0  0  0  0  0  0  0  0  0
   54.0538   23.0036   44.7560 H   0  0  0  0  0  0  0  0  0  0  0  0
   54.1085   24.4193   43.6516 H   0  0  0  0  0  0  0  0  0  0  0  0
   55.4527   23.2278   43.6516 H   0  0  0  0  0  0  0  0  0  0  0  0
   56.8080   24.0460   46.1340 S   0  0  0  0  0  0  0  0  0  0  0  0
   57.9430   28.1760   45.9950 C   0  0  0  0  0  0  0  0  0  0  0  0
   56.9594   27.9143   46.4123 H   0  0  0  0  0  0  0  0  0  0  0  0
  1  2  1  0
  2  3  1  0
  3  4  2  0
  3  5  2  0
  3  6  1  0
  6  7  2  0
  7  8  1  0
  7  9  1  0
  9 10  1  0
  9 11  2  0
 11 12  1  0
 11 13  1  0
 13 14  1  0
 14 15  2  0
 14 16  1  0
 16 17  2  0
 17 18  1  0
 18 19  1  0
 19 20  2  0
 20 21  1  0
 21 22  1  0
 21 23  1  0
 21 24  1  0
 20 25  1  0
 13 26  2  0
 26 27  1  0
 26  6  1  0
 25 17  1  0
M  CHG  2   2  -1  18  -1
M  END
>  <UniqueID>  (83) 
75

>  <SMILES>  (83) 
Cc1n[n-]/c(=N/C(=O)c2cccc(S([NH-])(=O)=O)c2)s1

>  <Energy>  (83) 
64.31895030775392

>  <Genealogy>  (83) 
Cc1n[n-]c(=NC(=O)c2cccc(S([NH-])(=O)=O)c2)s1 (protonated)
Cc1n[n-]/c(=N/C(=O)c2cccc(S([NH-])(=O)=O)c2)s1 (cis-trans isomerization)
Cc1n[n-]/c(=N/C(=O)c2cccc(S([NH-])(=O)=O)c2)s1 (3D coordinates assigned)
Cc1n[n-]/c(=N/C(=O)c2cccc(S([NH-])(=O)=O)c2)s1 (optimized conformer: 64.31895030775392 kcal/mol)

>  <smiles>  (83) 
Cc1n[nH]c(=NC(=O)c2cccc(S(N)(=O)=O)c2)s1

>  <score_type>  (83) 
oracle

>  <origin>  (83) 
adg

>  <m_score__min__energy>  (83) 
-12.35

>  <m_primary>  (83) 
energy

$$$$
83:0
     RDKit          3D

 40 42  0  0  0  0  0  0  0  0999 V2000
   66.1680   33.0520   48.5610 H   0  0  0  0  0  0  0  0  0  0  0  0
   65.5460   33.0800   49.3610 O   0  0  0  0  0  0  0  0  0  0  0  0
   64.1950   33.3900   49.2210 C   0  0  0  0  0  0  0  0  0  0  0  0
   63.6140   33.4940   47.9510 C   0  0  0  0  0  0  0  0  0  0  0  0
   64.2268   33.3324   47.0519 H   0  0  0  0  0  0  0  0  0  0  0  0
   62.2560   33.8030   47.8240 C   0  0  0  0  0  0  0  0  0  0  0  0
   61.8086   33.9011   46.8239 H   0  0  0  0  0  0  0  0  0  0  0  0
   61.4590   33.9890   48.9680 C   0  0  0  0  0  0  0  0  0  0  0  0
   60.0240   34.3360   48.8660 C   0  0  0  0  0  0  0  0  0  0  0  0
   59.4560   34.4222   49.8041 H   0  0  0  0  0  0  0  0  0  0  0  0
   59.3600   34.5540   47.7190 C   0  0  0  0  0  0  0  0  0  0  0  0
   59.1277   35.5970   47.4578 H   0  0  0  0  0  0  0  0  0  0  0  0
   58.9170   33.5010   46.7800 C   0  0  0  0  0  0  0  0  0  0  0  0
   57.8440   33.7620   45.9150 C   0  0  0  0  0  0  0  0  0  0  0  0
   57.3431   34.7409   45.9441 H   0  0  0  0  0  0  0  0  0  0  0  0
   57.4080   32.7840   45.0160 C   0  0  0  0  0  0  0  0  0  0  0  0
   56.5807   33.0058   44.3257 H   0  0  0  0  0  0  0  0  0  0  0  0
   58.0190   31.5220   44.9890 C   0  0  0  0  0  0  0  0  0  0  0  0
   57.5870   30.4920   43.9800 C   0  0  0  0  0  0  0  0  0  0  0  0
   58.2971   30.4860   43.1399 H   0  0  0  0  0  0  0  0  0  0  0  0
   56.5794   30.7444   43.6179 H   0  0  0  0  0  0  0  0  0  0  0  0
   57.5540   29.1230   44.6150 C   0  0  0  0  0  0  0  0  0  0  0  0
   58.7580   28.4320   44.8380 C   0  0  0  0  0  0  0  0  0  0  0  0
   59.7119   28.8778   44.5196 H   0  0  0  0  0  0  0  0  0  0  0  0
   58.7490   27.1820   45.4620 C   0  0  0  0  0  0  0  0  0  0  0  0
   59.6945   26.6449   45.6283 H   0  0  0  0  0  0  0  0  0  0  0  0
   57.5430   26.6130   45.8750 C   0  0  0  0  0  0  0  0  0  0  0  0
   57.5394   25.6276   46.3639 H   0  0  0  0  0  0  0  0  0  0  0  0
   56.3400   27.2940   45.6680 C   0  0  0  0  0  0  0  0  0  0  0  0
   55.1440   26.7220   46.0880 O   0  0  0  0  0  0  0  0  0  0  0  0
   56.3400   28.5480   45.0430 C   0  0  0  0  0  0  0  0  0  0  0  0
   55.1340   29.2150   44.8510 O   0  0  0  0  0  0  0  0  0  0  0  0
   59.0730   31.2500   45.8760 C   0  0  0  0  0  0  0  0  0  0  0  0
   59.5572   30.2624   45.8638 H   0  0  0  0  0  0  0  0  0  0  0  0
   59.5100   32.2270   46.7740 C   0  0  0  0  0  0  0  0  0  0  0  0
   60.3221   31.9979   47.4797 H   0  0  0  0  0  0  0  0  0  0  0  0
   62.0550   33.9110   50.2360 C   0  0  0  0  0  0  0  0  0  0  0  0
   61.4504   34.0932   51.1367 H   0  0  0  0  0  0  0  0  0  0  0  0
   63.4130   33.6030   50.3610 C   0  0  0  0  0  0  0  0  0  0  0  0
   63.8682   33.5279   51.3596 H   0  0  0  0  0  0  0  0  0  0  0  0
  1  2  1  0
  2  3  1  0
  3  4  2  0
  4  5  1  0
  4  6  1  0
  6  7  1  0
  6  8  2  0
  8  9  1  0
  9 10  1  0
  9 11  2  0
 11 12  1  0
 11 13  1  0
 13 14  2  0
 14 15  1  0
 14 16  1  0
 16 17  1  0
 16 18  2  0
 18 19  1  0
 19 20  1  0
 19 21  1  0
 19 22  1  0
 22 23  2  0
 23 24  1  0
 23 25  1  0
 25 26  1  0
 25 27  2  0
 27 28  1  0
 27 29  1  0
 29 30  1  0
 29 31  2  0
 31 32  1  0
 18 33  1  0
 33 34  1  0
 33 35  2  0
 35 36  1  0
  8 37  1  0
 37 38  1  0
 37 39  2  0
 39 40  1  0
 39  3  1  0
 35 13  1  0
 31 22  1  0
M  CHG  2  30  -1  32  -1
M  END
>  <UniqueID>  (84) 
76

>  <SMILES>  (84) 
[O-]c1cccc(Cc2ccc(/C=C\c3ccc(O)cc3)cc2)c1[O-]

>  <Energy>  (84) 
51.262913432878676

>  <Genealogy>  (84) 
[O-]c1cccc(Cc2ccc(C=Cc3ccc(O)cc3)cc2)c1[O-] (protonated)
[O-]c1cccc(Cc2ccc(/C=C\c3ccc(O)cc3)cc2)c1[O-] (cis-trans isomerization)
[O-]c1cccc(Cc2ccc(/C=C\c3ccc(O)cc3)cc2)c1[O-] (3D coordinates assigned)
[O-]c1cccc(Cc2ccc(/C=C\c3ccc(O)cc3)cc2)c1[O-] (optimized conformer: 51.262913432878676 kcal/mol)

>  <smiles>  (84) 
Oc1ccc(C=Cc2ccc(Cc3cccc(O)c3O)cc2)cc1

>  <score_type>  (84) 
oracle

>  <origin>  (84) 
adg

>  <m_score__min__energy>  (84) 
-16.039999999999999

>  <m_primary>  (84) 
energy

$$$$
84:0
     RDKit          3D

 38 39  0  0  0  0  0  0  0  0999 V2000
   57.5170   20.7510   42.8990 N   0  0  0  0  0  0  0  0  0  0  0  0
   56.4740   21.9470   43.5810 S   0  0  0  0  0  0  0  0  0  0  0  0
   55.5440   21.3010   44.5690 O   0  0  0  0  0  0  0  0  0  0  0  0
   55.6540   22.5760   42.4880 O   0  0  0  0  0  0  0  0  0  0  0  0
   57.4360   23.1780   44.3960 C   0  0  0  0  0  0  0  0  0  0  0  0
   58.6760   22.8520   44.9570 C   0  0  0  0  0  0  0  0  0  0  0  0
   59.4240   23.8260   45.6210 C   0  0  0  0  0  0  0  0  0  0  0  0
   58.9370   25.1320   45.7280 C   0  0  0  0  0  0  0  0  0  0  0  0
   57.6950   25.4790   45.1660 C   0  0  0  0  0  0  0  0  0  0  0  0
   57.1840   26.8660   45.2970 C   0  0  0  0  0  0  0  0  0  0  0  0
   56.2410   27.1010   46.1000 O   0  0  0  0  0  0  0  0  0  0  0  0
   57.7700   27.9430   44.5440 N   0  0  0  0  0  0  0  0  0  0  0  0
   57.1670   29.2380   44.4040 C   0  0  0  0  0  0  0  0  0  0  0  0
   56.0150   29.4600   44.8680 O   0  0  0  0  0  0  0  0  0  0  0  0
   57.8760   30.2810   43.7200 N   0  0  0  0  0  0  0  0  0  0  0  0
   57.3040   31.6070   43.4980 C   0  0  0  0  0  0  0  0  0  0  0  0
   57.8310   32.5790   44.5180 C   0  0  0  0  0  0  0  0  0  0  0  0
   57.4630   32.4700   45.8690 C   0  0  0  0  0  0  0  0  0  0  0  0
   57.9410   33.3910   46.8070 C   0  0  0  0  0  0  0  0  0  0  0  0
   58.7880   34.4270   46.4020 C   0  0  0  0  0  0  0  0  0  0  0  0
   59.1550   34.5450   45.0580 C   0  0  0  0  0  0  0  0  0  0  0  0
   58.6790   33.6260   44.1180 C   0  0  0  0  0  0  0  0  0  0  0  0
   56.9440   24.4860   44.5100 C   0  0  0  0  0  0  0  0  0  0  0  0
   58.1120   20.3860   43.6770 H   0  0  0  0  0  0  0  0  0  0  0  0
   56.9110   19.9600   42.5860 H   0  0  0  0  0  0  0  0  0  0  0  0
   59.0624   21.8254   44.8745 H   0  0  0  0  0  0  0  0  0  0  0  0
   60.3981   23.5654   46.0606 H   0  0  0  0  0  0  0  0  0  0  0  0
   59.5294   25.8940   46.2556 H   0  0  0  0  0  0  0  0  0  0  0  0
   58.7050   27.7980   44.1010 H   0  0  0  0  0  0  0  0  0  0  0  0
   58.8440   30.0920   43.3780 H   0  0  0  0  0  0  0  0  0  0  0  0
   57.5751   31.9554   42.4905 H   0  0  0  0  0  0  0  0  0  0  0  0
   56.2098   31.5458   43.5932 H   0  0  0  0  0  0  0  0  0  0  0  0
   56.7959   31.6568   46.1909 H   0  0  0  0  0  0  0  0  0  0  0  0
   57.6503   33.3001   47.8640 H   0  0  0  0  0  0  0  0  0  0  0  0
   59.1657   35.1493   47.1407 H   0  0  0  0  0  0  0  0  0  0  0  0
   59.8192   35.3620   44.7397 H   0  0  0  0  0  0  0  0  0  0  0  0
   58.9693   33.7228   43.0614 H   0  0  0  0  0  0  0  0  0  0  0  0
   55.9622   24.7382   44.0828 H   0  0  0  0  0  0  0  0  0  0  0  0
  1  2  1  0
  2  3  2  0
  2  4  2  0
  2  5  1  0
  5  6  2  0
  6  7  1  0
  7  8  2  0
  8  9  1  0
  9 10  1  0
 10 11  2  0
 10 12  1  0
 12 13  1  0
 13 14  2  0
 13 15  1  0
 15 16  1  0
 16 17  1  0
 17 18  2  0
 18 19  1  0
 19 20  2  0
 20 21  1  0
 21 22  2  0
  9 23  2  0
 23  5  1  0
 22 17  1  0
  1 24  1  0
  1 25  1  0
  6 26  1  0
  7 27  1  0
  8 28  1  0
 12 29  1  0
 15 30  1  0
 16 31  1  0
 16 32  1  0
 18 33  1  0
 19 34  1  0
 20 35  1  0
 21 36  1  0
 22 37  1  0
 23 38  1  0
M  END
>  <UniqueID>  (85) 
77

>  <SMILES>  (85) 
NS(=O)(=O)c1cccc(C(=O)NC(=O)NCc2ccccc2)c1

>  <Energy>  (85) 
36.730666303543586

>  <Genealogy>  (85) 
NS(=O)(=O)c1cccc(C(=O)NC(=O)NCc2ccccc2)c1 (3D coordinates assigned)
NS(=O)(=O)c1cccc(C(=O)NC(=O)NCc2ccccc2)c1 (optimized conformer: 36.730666303543586 kcal/mol)

>  <smiles>  (85) 
NS(=O)(=O)c1cccc(C(=O)NC(=O)NCc2ccccc2)c1

>  <score_type>  (85) 
oracle

>  <origin>  (85) 
adg

>  <m_score__min__energy>  (85) 
-9.4499999999999993

>  <m_primary>  (85) 
energy

$$$$
85:0
     RDKit          3D

 54 57  0  0  1  0  0  0  0  0999 V2000
   63.5170   32.7790   47.1590 O   0  0  0  0  0  0  0  0  0  0  0  0
   62.3190   32.3310   47.2310 C   0  0  0  0  0  0  0  0  0  0  0  0
   62.0190   30.9600   47.2950 N   0  0  0  0  0  0  0  0  0  0  0  0
   60.9370   30.5440   47.8540 C   0  0  0  0  0  0  0  0  0  0  0  0
   60.9980   30.3640   49.3330 C   0  0  0  0  0  0  0  0  0  0  0  0
   59.6420   30.6420   49.9250 C   0  0  0  0  0  0  0  0  0  0  0  0
   58.9370   31.7590   49.6900 N   0  0  0  0  0  0  0  0  0  0  0  0
   57.7920   31.6800   50.3640 N   0  0  0  0  0  0  0  0  0  0  0  0
   57.7700   30.5050   51.0310 C   0  0  0  0  0  0  0  0  0  0  0  0
   56.8720   30.0550   51.7760 O   0  0  0  0  0  0  0  0  0  0  0  0
   58.9310   29.8450   50.7610 N   0  0  0  0  0  0  0  0  0  0  0  0
   59.7630   30.3090   47.0470 C   0  0  0  0  0  0  0  0  0  0  0  0
   59.3600   31.3220   46.3620 O   0  0  0  0  0  0  0  0  0  0  0  0
   59.0190   29.1280   46.9170 N   0  0  0  0  0  0  0  0  0  0  0  0
   59.2690   27.8670   47.5570 C   0  0  0  0  0  0  0  0  0  0  0  0
   58.0500   26.9400   47.4320 C   0  0  0  0  0  0  0  0  0  0  0  0
   57.6500   26.7470   46.0550 N   0  0  0  0  0  0  0  0  0  0  0  0
   57.1440   25.4940   45.6200 C   0  0  0  0  0  0  0  0  0  0  0  0
   57.9440   24.4370   45.2320 C   0  0  0  0  0  0  0  0  0  0  0  0
   57.3180   23.2670   44.8290 C   0  0  0  0  0  0  0  0  0  0  0  0
   55.9360   23.1330   44.8050 C   0  0  0  0  0  0  0  0  0  0  0  0
   55.1480   24.2100   45.1990 C   0  0  0  0  0  0  0  0  0  0  0  0
   55.7510   25.3730   45.6000 C   0  0  0  0  0  0  0  0  0  0  0  0
   54.9370   26.4460   45.9940 O   0  0  0  0  0  0  0  0  0  0  0  0
   57.7970   27.8990   45.1720 C   0  0  0  0  0  0  0  0  0  0  0  0
   57.8410   29.1650   46.0200 C   0  0  0  0  0  0  0  0  0  0  0  0
   61.2550   33.3410   47.2400 C   0  0  0  0  0  0  0  0  0  0  0  0
   60.8410   33.8540   46.0260 C   0  0  0  0  0  0  0  0  0  0  0  0
   59.8350   34.8220   45.9700 C   0  0  0  0  0  0  0  0  0  0  0  0
   59.2600   35.2610   47.1530 C   0  0  0  0  0  0  0  0  0  0  0  0
   59.6650   34.7550   48.3900 C   0  0  0  0  0  0  0  0  0  0  0  0
   60.6720   33.7880   48.4070 C   0  0  0  0  0  0  0  0  0  0  0  0
   61.2954   29.3308   49.5653 H   0  0  0  0  0  0  0  0  0  0  0  0
   61.7354   31.0605   49.7586 H   0  0  0  0  0  0  0  0  0  0  0  0
   57.0410   32.3750   50.3930 H   0  0  0  0  0  0  0  0  0  0  0  0
   59.2400   28.9120   51.1120 H   0  0  0  0  0  0  0  0  0  0  0  0
   60.1371   27.3872   47.0815 H   0  0  0  0  0  0  0  0  0  0  0  0
   59.4672   28.0465   48.6240 H   0  0  0  0  0  0  0  0  0  0  0  0
   58.3022   25.9622   47.8682 H   0  0  0  0  0  0  0  0  0  0  0  0
   57.2109   27.4112   47.9649 H   0  0  0  0  0  0  0  0  0  0  0  0
   59.0408   24.5205   45.2423 H   0  0  0  0  0  0  0  0  0  0  0  0
   57.9387   22.4141   44.5170 H   0  0  0  0  0  0  0  0  0  0  0  0
   55.4716   22.1904   44.4797 H   0  0  0  0  0  0  0  0  0  0  0  0
   54.0511   24.1284   45.1886 H   0  0  0  0  0  0  0  0  0  0  0  0
   54.0310   26.2480   46.3990 H   0  0  0  0  0  0  0  0  0  0  0  0
   58.7298   27.8070   44.5963 H   0  0  0  0  0  0  0  0  0  0  0  0
   56.9481   27.9458   44.4740 H   0  0  0  0  0  0  0  0  0  0  0  0
   57.9111   30.0433   45.3614 H   0  0  0  0  0  0  0  0  0  0  0  0
   56.9252   29.2279   46.6260 H   0  0  0  0  0  0  0  0  0  0  0  0
   61.3072   33.4974   45.0957 H   0  0  0  0  0  0  0  0  0  0  0  0
   59.5045   35.2293   45.0031 H   0  0  0  0  0  0  0  0  0  0  0  0
   58.4683   36.0238   47.1163 H   0  0  0  0  0  0  0  0  0  0  0  0
   59.2039   35.1081   49.3242 H   0  0  0  0  0  0  0  0  0  0  0  0
   61.0068   33.3747   49.3699 H   0  0  0  0  0  0  0  0  0  0  0  0
  1  2  2  0
  2  3  1  0
  3  4  2  0
  4  5  1  0
  5  6  1  0
  6  7  2  0
  7  8  1  0
  8  9  1  0
  9 10  2  0
  9 11  1  0
  4 12  1  0
 12 13  2  0
 12 14  1  0
 14 15  1  0
 15 16  1  0
 16 17  1  0
 17 18  1  0
 18 19  2  0
 19 20  1  0
 20 21  2  0
 21 22  1  0
 22 23  2  0
 23 24  1  0
 17 25  1  0
 25 26  1  0
  2 27  1  0
 27 28  2  0
 28 29  1  0
 29 30  2  0
 30 31  1  0
 31 32  2  0
 11  6  1  0
 26 14  1  0
 32 27  1  0
 23 18  1  0
  5 33  1  0
  5 34  1  0
  8 35  1  0
 11 36  1  0
 15 37  1  0
 15 38  1  0
 16 39  1  0
 16 40  1  0
 19 41  1  0
 20 42  1  0
 21 43  1  0
 22 44  1  0
 24 45  1  0
 25 46  1  0
 25 47  1  0
 26 48  1  0
 26 49  1  0
 28 50  1  0
 29 51  1  0
 30 52  1  0
 31 53  1  0
 32 54  1  0
M  END
>  <smiles>  (86) 
O=C(N=C(Cc1n[nH]c(=O)[nH]1)C(=O)N1CCN(c2ccccc2O)CC1)c1ccccc1

>  <score_type>  (86) 
oracle

>  <origin>  (86) 
adg

>  <m_score__min__energy>  (86) 
-10.51

>  <m_primary>  (86) 
energy

$$$$
86:0
     RDKit          3D

 33 34  0  0  0  0  0  0  0  0999 V2000
   56.8311   28.1748   42.8761 H   0  0  0  0  0  0  0  0  0  0  0  0
   56.9540   29.0120   43.5790 C   0  0  0  0  0  0  0  0  0  0  0  0
   57.0130   30.6450   43.1720 S   0  0  0  0  0  0  0  0  0  0  0  0
   57.2240   31.1330   44.7640 C   0  0  0  0  0  0  0  0  0  0  0  0
   57.2990   32.3780   45.1300 N   0  0  0  0  0  0  0  0  0  0  0  0
   58.1520   33.3650   44.5320 C   0  0  0  0  0  0  0  0  0  0  0  0
   58.5460   33.2460   43.3400 O   0  0  0  0  0  0  0  0  0  0  0  0
   58.5870   34.5500   45.3370 C   0  0  0  0  0  0  0  0  0  0  0  0
   57.9402   35.4058   45.0936 H   0  0  0  0  0  0  0  0  0  0  0  0
   59.6354   34.7726   45.0895 H   0  0  0  0  0  0  0  0  0  0  0  0
   58.4760   34.2100   47.1310 S   0  0  0  0  0  0  0  0  0  0  0  0
   59.8260   33.0270   47.1540 C   0  0  0  0  0  0  0  0  0  0  0  0
   61.0760   33.4370   47.4940 N   0  0  0  0  0  0  0  0  0  0  0  0
   62.1240   32.5710   47.4910 C   0  0  0  0  0  0  0  0  0  0  0  0
   63.4870   33.0470   47.8770 C   0  0  0  0  0  0  0  0  0  0  0  0
   63.5685   33.0755   48.9736 H   0  0  0  0  0  0  0  0  0  0  0  0
   64.2440   32.3600   47.4708 H   0  0  0  0  0  0  0  0  0  0  0  0
   63.6517   34.0559   47.4708 H   0  0  0  0  0  0  0  0  0  0  0  0
   61.9160   31.2370   47.1260 C   0  0  0  0  0  0  0  0  0  0  0  0
   62.7553   30.5265   47.0982 H   0  0  0  0  0  0  0  0  0  0  0  0
   60.6210   30.8230   46.7970 C   0  0  0  0  0  0  0  0  0  0  0  0
   60.3660   29.4110   46.3630 C   0  0  0  0  0  0  0  0  0  0  0  0
   60.2503   28.7701   47.2495 H   0  0  0  0  0  0  0  0  0  0  0  0
   59.4465   29.3730   45.7605 H   0  0  0  0  0  0  0  0  0  0  0  0
   61.2142   29.0537   45.7605 H   0  0  0  0  0  0  0  0  0  0  0  0
   59.6020   31.7280   46.8150 N   0  0  0  0  0  0  0  0  0  0  0  0
   58.6340   31.4260   46.5620 H   0  0  0  0  0  0  0  0  0  0  0  0
   57.2440   30.0860   45.6180 N   0  0  0  0  0  0  0  0  0  0  0  0
   57.0880   28.9070   44.9610 C   0  0  0  0  0  0  0  0  0  0  0  0
   57.0950   27.5970   45.6780 C   0  0  0  0  0  0  0  0  0  0  0  0
   57.0941   27.7733   46.7638 H   0  0  0  0  0  0  0  0  0  0  0  0
   56.1999   27.0216   45.3992 H   0  0  0  0  0  0  0  0  0  0  0  0
   57.9962   27.0312   45.3992 H   0  0  0  0  0  0  0  0  0  0  0  0
  1  2  1  0
  2  3  1  0
  3  4  1  0
  4  5  2  0
  5  6  1  0
  6  7  2  0
  6  8  1  0
  8  9  1  0
  8 10  1  0
  8 11  1  0
 11 12  1  0
 12 13  2  0
 13 14  1  0
 14 15  1  0
 15 16  1  0
 15 17  1  0
 15 18  1  0
 14 19  2  0
 19 20  1  0
 19 21  1  0
 21 22  1  0
 22 23  1  0
 22 24  1  0
 22 25  1  0
 21 26  2  0
 26 27  1  0
  4 28  1  0
 28 29  1  0
 29 30  1  0
 30 31  1  0
 30 32  1  0
 30 33  1  0
 29  2  2  0
 26 12  1  0
M  CHG  2  26   1  28  -1
M  END
>  <UniqueID>  (87) 
78

>  <SMILES>  (87) 
Cc1cc(C)[nH+]c(SCC(=O)/N=c2\[n-]c(C)cs2)n1

>  <Energy>  (87) 
55.279432721098715

>  <Genealogy>  (87) 
Cc1cc(C)[nH+]c(SCC(=O)N=c2[n-]c(C)cs2)n1 (protonated)
Cc1cc(C)[nH+]c(SCC(=O)/N=c2\[n-]c(C)cs2)n1 (cis-trans isomerization)
Cc1cc(C)[nH+]c(SCC(=O)/N=c2\[n-]c(C)cs2)n1 (3D coordinates assigned)
Cc1cc(C)[nH+]c(SCC(=O)/N=c2\[n-]c(C)cs2)n1 (optimized conformer: 55.279432721098715 kcal/mol)

>  <smiles>  (87) 
Cc1cc(C)nc(SCC(=O)N=c2[nH]c(C)cs2)n1

>  <score_type>  (87) 
oracle

>  <origin>  (87) 
adg

>  <m_score__min__energy>  (87) 
-7.9699999999999998

>  <m_primary>  (87) 
energy

$$$$
87:0
     RDKit          3D

 73 77  0  0  0  0  0  0  0  0999 V2000
   57.2340   19.8800   43.4410 H   0  0  0  0  0  0  0  0  0  0  0  0
   56.9260   20.7490   42.9390 N   0  0  0  0  0  0  0  0  0  0  0  0
   56.4680   21.7770   43.5680 C   0  0  0  0  0  0  0  0  0  0  0  0
   55.4890   21.6210   44.5000 N   0  0  0  0  0  0  0  0  0  0  0  0
   54.9570   22.6780   45.1740 C   0  0  0  0  0  0  0  0  0  0  0  0
   53.9110   22.4070   46.2140 C   0  0  0  0  0  0  0  0  0  0  0  0
   54.3515   22.5211   47.2155 H   0  0  0  0  0  0  0  0  0  0  0  0
   53.0819   23.1200   46.0947 H   0  0  0  0  0  0  0  0  0  0  0  0
   53.5324   21.3811   46.0947 H   0  0  0  0  0  0  0  0  0  0  0  0
   55.4220   23.9880   44.9060 C   0  0  0  0  0  0  0  0  0  0  0  0
   54.8340   25.2060   45.5740 C   0  0  0  0  0  0  0  0  0  0  0  0
   54.4380   25.8821   44.8020 H   0  0  0  0  0  0  0  0  0  0  0  0
   54.0323   24.8775   46.2517 H   0  0  0  0  0  0  0  0  0  0  0  0
   55.8390   25.9170   46.3590 N   0  0  0  0  0  0  0  0  0  0  0  0
   56.6390   26.9770   45.8260 C   0  0  0  0  0  0  0  0  0  0  0  0
   56.0780   27.9470   45.2530 O   0  0  0  0  0  0  0  0  0  0  0  0
   58.0730   26.9420   45.8910 N   0  0  0  0  0  0  0  0  0  0  0  0
   58.8180   26.6680   47.1180 C   0  0  0  0  0  0  0  0  0  0  0  0
   58.2838   25.9023   47.6996 H   0  0  0  0  0  0  0  0  0  0  0  0
   59.8232   26.3140   46.8455 H   0  0  0  0  0  0  0  0  0  0  0  0
   58.9620   27.9430   47.9750 C   0  0  1  0  0  0  0  0  0  0  0  0
   58.0101   28.0344   48.5186 H   0  0  0  0  0  0  0  0  0  0  0  0
   60.1030   27.8440   48.9390 C   0  0  0  0  0  0  0  0  0  0  0  0
   61.1310   27.1670   48.6330 O   0  0  0  0  0  0  0  0  0  0  0  0
   60.0770   28.6070   50.1630 N   0  0  0  0  0  0  0  0  0  0  0  0
   60.4890   27.8980   51.3910 C   0  0  0  0  0  0  0  0  0  0  0  0
   59.8897   28.2705   52.2349 H   0  0  0  0  0  0  0  0  0  0  0  0
   60.3264   26.8214   51.2343 H   0  0  0  0  0  0  0  0  0  0  0  0
   61.9460   28.1100   51.6980 C   0  0  0  0  0  0  0  0  0  0  0  0
   62.5440   29.3500   51.4170 C   0  0  0  0  0  0  0  0  0  0  0  0
   61.9285   30.1847   51.0503 H   0  0  0  0  0  0  0  0  0  0  0  0
   63.9200   29.5270   51.6020 C   0  0  0  0  0  0  0  0  0  0  0  0
   64.3814   30.5024   51.3880 H   0  0  0  0  0  0  0  0  0  0  0  0
   64.7110   28.4650   52.0590 C   0  0  0  0  0  0  0  0  0  0  0  0
   65.7942   28.6034   52.1910 H   0  0  0  0  0  0  0  0  0  0  0  0
   64.1250   27.2310   52.3470 C   0  0  0  0  0  0  0  0  0  0  0  0
   65.1240   25.8950   52.8900 Cl  0  0  0  0  0  0  0  0  0  0  0  0
   62.7470   27.0480   52.1660 C   0  0  0  0  0  0  0  0  0  0  0  0
   62.2892   26.0731   52.3897 H   0  0  0  0  0  0  0  0  0  0  0  0
   59.6210   29.9980   50.1630 C   0  0  0  0  0  0  0  0  0  0  0  0
   59.1760   30.6070   51.3610 C   0  0  0  0  0  0  0  0  0  0  0  0
   59.1625   30.0178   52.2898 H   0  0  0  0  0  0  0  0  0  0  0  0
   58.7550   31.9340   51.3920 C   0  0  0  0  0  0  0  0  0  0  0  0
   58.4323   32.3871   52.3409 H   0  0  0  0  0  0  0  0  0  0  0  0
   58.7430   32.6840   50.2250 C   0  0  0  0  0  0  0  0  0  0  0  0
   58.4207   33.7353   50.2530 H   0  0  0  0  0  0  0  0  0  0  0  0
   59.1370   32.1120   49.0190 C   0  0  0  0  0  0  0  0  0  0  0  0
   59.0879   32.7076   48.0955 H   0  0  0  0  0  0  0  0  0  0  0  0
   59.5970   30.7840   48.9630 C   0  0  0  0  0  0  0  0  0  0  0  0
   59.9730   30.2540   47.6720 N   0  0  0  0  0  0  0  0  0  0  0  0
   60.8310   31.0230   46.7470 C   0  0  0  0  0  0  0  0  0  0  0  0
   61.7964   31.2184   47.2366 H   0  0  0  0  0  0  0  0  0  0  0  0
   60.9646   30.4284   45.8313 H   0  0  0  0  0  0  0  0  0  0  0  0
   60.1990   32.3490   46.3600 C   0  0  0  0  0  0  0  0  0  0  0  0
   58.9800   32.3070   45.6560 C   0  0  0  0  0  0  0  0  0  0  0  0
   58.5213   31.3351   45.4215 H   0  0  0  0  0  0  0  0  0  0  0  0
   58.3480   33.4810   45.2530 C   0  0  0  0  0  0  0  0  0  0  0  0
   57.3763   33.4343   44.7396 H   0  0  0  0  0  0  0  0  0  0  0  0
   58.9460   34.7130   45.5000 C   0  0  0  0  0  0  0  0  0  0  0  0
   58.4780   35.6355   45.1258 H   0  0  0  0  0  0  0  0  0  0  0  0
   60.1390   34.7800   46.2220 C   0  0  0  0  0  0  0  0  0  0  0  0
   60.6067   35.7586   46.4054 H   0  0  0  0  0  0  0  0  0  0  0  0
   60.7540   33.6120   46.7200 C   0  0  0  0  0  0  0  0  0  0  0  0
   61.9700   33.7460   47.6180 C   0  0  0  0  0  0  0  0  0  0  0  0
   62.3030   32.5370   48.2040 F   0  0  0  0  0  0  0  0  0  0  0  0
   61.7180   34.6560   48.6240 F   0  0  0  0  0  0  0  0  0  0  0  0
   63.0640   34.1690   46.8840 F   0  0  0  0  0  0  0  0  0  0  0  0
   59.1990   29.1660   47.1320 C   0  0  0  0  0  0  0  0  0  0  0  0
   58.7120   29.2490   45.9630 O   0  0  0  0  0  0  0  0  0  0  0  0
   56.4440   24.1520   43.9530 C   0  0  0  0  0  0  0  0  0  0  0  0
   56.8260   25.1593   43.7305 H   0  0  0  0  0  0  0  0  0  0  0  0
   56.9760   23.0490   43.2890 C   0  0  0  0  0  0  0  0  0  0  0  0
   57.7851   23.1773   42.5549 H   0  0  0  0  0  0  0  0  0  0  0  0
  1  2  1  0
  2  3  2  0
  3  4  1  0
  4  5  1  0
  5  6  1  0
  6  7  1  0
  6  8  1  0
  6  9  1  0
  5 10  2  0
 10 11  1  0
 11 12  1  0
 11 13  1  0
 11 14  1  0
 14 15  1  0
 15 16  2  0
 15 17  1  0
 17 18  1  0
 18 19  1  0
 18 20  1  0
 18 21  1  0
 21 22  1  1
 21 23  1  0
 23 24  2  0
 23 25  1  0
 25 26  1  0
 26 27  1  0
 26 28  1  0
 26 29  1  0
 29 30  2  0
 30 31  1  0
 30 32  1  0
 32 33  1  0
 32 34  2  0
 34 35  1  0
 34 36  1  0
 36 37  1  0
 36 38  2  0
 38 39  1  0
 25 40  1  0
 40 41  2  0
 41 42  1  0
 41 43  1  0
 43 44  1  0
 43 45  2  0
 45 46  1  0
 45 47  1  0
 47 48  1  0
 47 49  2  0
 49 50  1  0
 50 51  1  0
 51 52  1  0
 51 53  1  0
 51 54  1  0
 54 55  2  0
 55 56  1  0
 55 57  1  0
 57 58  1  0
 57 59  2  0
 59 60  1  0
 59 61  1  0
 61 62  1  0
 61 63  2  0
 63 64  1  0
 64 65  1  0
 64 66  1  0
 64 67  1  0
 50 68  1  0
 68 69  2  0
 10 70  1  0
 70 71  1  0
 70 72  2  0
 72 73  1  0
 72  3  1  0
 68 21  1  0
 38 29  1  0
 49 40  1  0
 63 54  1  0
M  CHG  3   4  -1  14  -1  17  -1
M  END
>  <UniqueID>  (88) 
79

>  <SMILES>  (88) 
[H]/N=c1/ccc(C[N-]C(=O)[N-]C[C@H]2C(=O)N(Cc3cccc(Cl)c3)c3ccccc3N(Cc3ccccc3C(F)(F)F)C2=O)c(C)[n-]1

>  <Energy>  (88) 
108.11857471579388

>  <Genealogy>  (88) 
Cc1[n-]c(=N)ccc1C[N-]C(=O)[N-]CC1C(=O)N(Cc2cccc(Cl)c2)c2ccccc2N(Cc2ccccc2C(F)(F)F)C1=O (protonated)
Cc1[n-]c(=N)ccc1C[N-]C(=O)[N-]C[C@H]1C(=O)N(Cc2cccc(Cl)c2)c2ccccc2N(Cc2ccccc2C(F)(F)F)C1=O (chirality)
[H]/N=c1/ccc(C[N-]C(=O)[N-]C[C@H]2C(=O)N(Cc3cccc(Cl)c3)c3ccccc3N(Cc3ccccc3C(F)(F)F)C2=O)c(C)[n-]1 (cis-trans isomerization)
[H]/N=c1/ccc(C[N-]C(=O)[N-]C[C@H]2C(=O)N(Cc3cccc(Cl)c3)c3ccccc3N(Cc3ccccc3C(F)(F)F)C2=O)c(C)[n-]1 (3D coordinates assigned)
[H]/N=c1/ccc(C[N-]C(=O)[N-]C[C@H]2C(=O)N(Cc3cccc(Cl)c3)c3ccccc3N(Cc3ccccc3C(F)(F)F)C2=O)c(C)[n-]1 (nonaromatic ring conformer: 108.11857471579388 kcal/mol)

>  <smiles>  (88) 
Cc1[nH]c(=N)ccc1CNC(=O)NCC1C(=O)N(Cc2cccc(Cl)c2)c2ccccc2N(Cc2ccccc2C(F)(F)F)C1=O

>  <score_type>  (88) 
oracle

>  <origin>  (88) 
adg

>  <m_score__min__energy>  (88) 
-11.81

>  <m_primary>  (88) 
energy

$$$$
88:0
     RDKit          3D

 56 59  0  0  0  0  0  0  0  0999 V2000
   60.0630   27.5240   48.2910 C   0  0  0  0  0  0  0  0  0  0  0  0
   58.9970   27.8380   47.4040 O   0  0  0  0  0  0  0  0  0  0  0  0
   58.3960   26.9200   46.5300 C   0  0  0  0  0  0  0  0  0  0  0  0
   57.7920   25.7330   46.9920 C   0  0  0  0  0  0  0  0  0  0  0  0
   57.2180   24.8360   46.0870 C   0  0  0  0  0  0  0  0  0  0  0  0
   57.2370   25.1120   44.7170 C   0  0  0  0  0  0  0  0  0  0  0  0
   57.8370   26.2840   44.2470 C   0  0  0  0  0  0  0  0  0  0  0  0
   58.4050   27.1930   45.1470 C   0  0  0  0  0  0  0  0  0  0  0  0
   59.0550   28.3680   44.6460 N   0  0  0  0  0  0  0  0  0  0  0  0
   58.6270   29.5800   44.8320 C   0  0  0  0  0  0  0  0  0  0  0  0
   57.5180   30.0010   44.1740 N   0  0  0  0  0  0  0  0  0  0  0  0
   57.0400   31.2610   44.3380 C   0  0  0  0  0  0  0  0  0  0  0  0
   57.6780   32.1470   45.2080 C   0  0  0  0  0  0  0  0  0  0  0  0
   57.0720   33.7950   45.3380 Cl  0  0  0  0  0  0  0  0  0  0  0  0
   58.8100   31.6930   45.9140 C   0  0  0  0  0  0  0  0  0  0  0  0
   59.4760   32.5380   46.9370 C   0  0  0  0  0  0  0  0  0  0  0  0
   60.0280   33.7710   46.5530 C   0  0  0  0  0  0  0  0  0  0  0  0
   60.7520   34.5360   47.4660 C   0  0  0  0  0  0  0  0  0  0  0  0
   60.9270   34.0640   48.7630 C   0  0  0  0  0  0  0  0  0  0  0  0
   60.3620   32.8880   49.1400 N   0  0  0  0  0  0  0  0  0  0  0  0
   59.6220   32.1320   48.2850 C   0  0  0  0  0  0  0  0  0  0  0  0
   58.8910   30.6090   48.9060 S   0  0  0  0  0  0  0  0  0  0  0  0
   58.6340   31.2050   50.6260 C   0  0  0  0  0  0  0  0  0  0  0  0
   57.4100   30.6530   51.2990 C   0  0  0  0  0  0  0  0  0  0  0  0
   57.3760   29.4530   51.6690 O   0  0  0  0  0  0  0  0  0  0  0  0
   56.2980   31.5230   51.5660 N   0  0  0  0  0  0  0  0  0  0  0  0
   55.0940   31.1040   52.2350 C   0  0  0  0  0  0  0  0  0  0  0  0
   55.1880   30.2320   53.3320 C   0  0  0  0  0  0  0  0  0  0  0  0
   54.0340   29.7900   53.9850 C   0  0  0  0  0  0  0  0  0  0  0  0
   52.7750   30.2190   53.5520 C   0  0  0  0  0  0  0  0  0  0  0  0
   52.6670   31.1120   52.4770 C   0  0  0  0  0  0  0  0  0  0  0  0
   51.0900   31.6430   51.9020 S   0  0  0  0  0  0  0  0  0  0  0  0
   50.9820   33.3630   52.0270 N   0  0  0  0  0  0  0  0  0  0  0  0
   50.0120   31.0080   52.7350 O   0  0  0  0  0  0  0  0  0  0  0  0
   50.8970   31.2390   50.4680 O   0  0  0  0  0  0  0  0  0  0  0  0
   53.8260   31.5640   51.8320 C   0  0  0  0  0  0  0  0  0  0  0  0
   59.2590   30.4260   45.6920 N   0  0  0  0  0  0  0  0  0  0  0  0
   59.7173   27.6258   49.3303 H   0  0  0  0  0  0  0  0  0  0  0  0
   60.3944   26.4901   48.1145 H   0  0  0  0  0  0  0  0  0  0  0  0
   60.9020   28.2132   48.1145 H   0  0  0  0  0  0  0  0  0  0  0  0
   57.7724   25.5119   48.0694 H   0  0  0  0  0  0  0  0  0  0  0  0
   56.7501   23.9105   46.4538 H   0  0  0  0  0  0  0  0  0  0  0  0
   56.7794   24.4064   44.0079 H   0  0  0  0  0  0  0  0  0  0  0  0
   57.8628   26.4923   43.1672 H   0  0  0  0  0  0  0  0  0  0  0  0
   56.1469   31.5849   43.7835 H   0  0  0  0  0  0  0  0  0  0  0  0
   59.8880   34.1355   45.5246 H   0  0  0  0  0  0  0  0  0  0  0  0
   61.1806   35.5030   47.1641 H   0  0  0  0  0  0  0  0  0  0  0  0
   61.5231   34.6435   49.4833 H   0  0  0  0  0  0  0  0  0  0  0  0
   59.5127   30.9203   51.2234 H   0  0  0  0  0  0  0  0  0  0  0  0
   58.4923   32.2940   50.5624 H   0  0  0  0  0  0  0  0  0  0  0  0
   56.4390   32.5480   51.4060 H   0  0  0  0  0  0  0  0  0  0  0  0
   56.1758   29.8949   53.6793 H   0  0  0  0  0  0  0  0  0  0  0  0
   54.1160   29.1037   54.8407 H   0  0  0  0  0  0  0  0  0  0  0  0
   51.8677   29.8548   54.0562 H   0  0  0  0  0  0  0  0  0  0  0  0
   49.9660   33.6050   52.0050 H   0  0  0  0  0  0  0  0  0  0  0  0
   53.7444   32.2839   51.0043 H   0  0  0  0  0  0  0  0  0  0  0  0
  1  2  1  0
  2  3  1  0
  3  4  2  0
  4  5  1  0
  5  6  2  0
  6  7  1  0
  7  8  2  0
  8  9  1  0
  9 10  2  3
 10 11  1  0
 11 12  2  0
 12 13  1  0
 13 14  1  0
 13 15  2  0
 15 16  1  0
 16 17  2  0
 17 18  1  0
 18 19  2  0
 19 20  1  0
 20 21  2  0
 21 22  1  0
 22 23  1  0
 23 24  1  0
 24 25  2  0
 24 26  1  0
 26 27  1  0
 27 28  2  0
 28 29  1  0
 29 30  2  0
 30 31  1  0
 31 32  1  0
 32 33  1  0
 32 34  2  0
 32 35  2  0
 31 36  2  0
 15 37  1  0
  8  3  1  0
 37 10  1  0
 21 16  1  0
 36 27  1  0
  1 38  1  0
  1 39  1  0
  1 40  1  0
  4 41  1  0
  5 42  1  0
  6 43  1  0
  7 44  1  0
 12 45  1  0
 17 46  1  0
 18 47  1  0
 19 48  1  0
 23 49  1  0
 23 50  1  0
 26 51  1  0
 28 52  1  0
 29 53  1  0
 30 54  1  0
 33 55  1  0
 36 56  1  0
M  CHG  2  33  -1  37  -1
M  END
>  <UniqueID>  (89) 
80

>  <SMILES>  (89) 
COc1ccccc1N=c1ncc(Cl)c(-c2cccnc2SCC(=O)Nc2cccc(S([NH-])(=O)=O)c2)[n-]1

>  <Energy>  (89) 
74.3232954198097

>  <Genealogy>  (89) 
COc1ccccc1N=c1ncc(Cl)c(-c2cccnc2SCC(=O)Nc2cccc(S([NH-])(=O)=O)c2)[n-]1 (protonated)
COc1ccccc1N=c1ncc(Cl)c(-c2cccnc2SCC(=O)Nc2cccc(S([NH-])(=O)=O)c2)[n-]1 (3D coordinates assigned)
COc1ccccc1N=c1ncc(Cl)c(-c2cccnc2SCC(=O)Nc2cccc(S([NH-])(=O)=O)c2)[n-]1 (optimized conformer: 74.3232954198097 kcal/mol)

>  <smiles>  (89) 
COc1ccccc1N=c1ncc(Cl)c(-c2cccnc2SCC(=O)Nc2cccc(S(N)(=O)=O)c2)[nH]1

>  <score_type>  (89) 
oracle

>  <origin>  (89) 
adg

>  <m_score__min__energy>  (89) 
-15.529999999999999

>  <m_primary>  (89) 
energy

$$$$
89:0
     RDKit          3D

 37 39  0  0  0  0  0  0  0  0999 V2000
   58.0600   26.0130   47.9330 H   0  0  0  0  0  0  0  0  0  0  0  0
   58.0650   25.9990   46.8880 N   0  0  0  0  0  0  0  0  0  0  0  0
   57.6240   27.0050   46.2020 C   0  0  0  0  0  0  0  0  0  0  0  0
   56.3070   27.2350   46.0060 N   0  0  0  0  0  0  0  0  0  0  0  0
   56.3030   28.3570   45.2610 C   0  0  0  0  0  0  0  0  0  0  0  0
   55.1440   28.9850   44.8220 O   0  0  0  0  0  0  0  0  0  0  0  0
   57.5910   28.7830   45.0100 C   0  0  0  0  0  0  0  0  0  0  0  0
   57.9810   30.0360   44.2800 C   0  0  0  0  0  0  0  0  0  0  0  0
   58.9182   29.8597   43.7317 H   0  0  0  0  0  0  0  0  0  0  0  0
   57.1784   30.3054   43.5777 H   0  0  0  0  0  0  0  0  0  0  0  0
   58.1790   31.1600   45.2470 C   0  0  0  0  0  0  0  0  0  0  0  0
   58.4990   32.7580   44.8240 S   0  0  0  0  0  0  0  0  0  0  0  0
   58.5420   33.3430   46.3990 C   0  0  0  0  0  0  0  0  0  0  0  0
   58.8710   34.7460   46.7860 C   0  0  0  0  0  0  0  0  0  0  0  0
   58.8904   34.8289   47.8827 H   0  0  0  0  0  0  0  0  0  0  0  0
   59.8570   35.0167   46.3803 H   0  0  0  0  0  0  0  0  0  0  0  0
   58.1081   35.4268   46.3803 H   0  0  0  0  0  0  0  0  0  0  0  0
   58.3310   32.2880   47.2800 C   0  0  0  0  0  0  0  0  0  0  0  0
   58.3330   32.4027   48.3740 H   0  0  0  0  0  0  0  0  0  0  0  0
   58.1160   31.0660   46.6340 C   0  0  0  0  0  0  0  0  0  0  0  0
   57.9171   30.1254   47.1686 H   0  0  0  0  0  0  0  0  0  0  0  0
   58.4330   27.9250   45.6240 N   0  0  0  0  0  0  0  0  0  0  0  0
   59.8990   27.9520   45.6320 C   0  0  0  0  0  0  0  0  0  0  0  0
   60.2776   26.9341   45.8065 H   0  0  0  0  0  0  0  0  0  0  0  0
   60.2504   28.3294   44.6604 H   0  0  0  0  0  0  0  0  0  0  0  0
   60.4120   28.8650   46.7210 C   0  0  0  0  0  0  0  0  0  0  0  0
   61.0400   30.0750   46.3710 C   0  0  0  0  0  0  0  0  0  0  0  0
   61.1490   30.3457   45.3104 H   0  0  0  0  0  0  0  0  0  0  0  0
   61.5260   30.9350   47.3580 C   0  0  0  0  0  0  0  0  0  0  0  0
   62.0068   31.8825   47.0733 H   0  0  0  0  0  0  0  0  0  0  0  0
   61.4020   30.5930   48.7060 C   0  0  0  0  0  0  0  0  0  0  0  0
   61.7823   31.2731   49.4824 H   0  0  0  0  0  0  0  0  0  0  0  0
   60.7960   29.3890   49.0700 C   0  0  0  0  0  0  0  0  0  0  0  0
   60.7025   29.1224   50.1331 H   0  0  0  0  0  0  0  0  0  0  0  0
   60.3060   28.5180   48.0860 C   0  0  0  0  0  0  0  0  0  0  0  0
   59.7160   27.3120   48.4650 O   0  0  0  0  0  0  0  0  0  0  0  0
   59.2220   26.7290   47.7990 H   0  0  0  0  0  0  0  0  0  0  0  0
  1  2  1  0
  2  3  2  0
  3  4  1  0
  4  5  1  0
  5  6  1  0
  5  7  2  0
  7  8  1  0
  8  9  1  0
  8 10  1  0
  8 11  1  0
 11 12  1  0
 12 13  1  0
 13 14  1  0
 14 15  1  0
 14 16  1  0
 14 17  1  0
 13 18  2  0
 18 19  1  0
 18 20  1  0
 20 21  1  0
  7 22  1  0
 22 23  1  0
 23 24  1  0
 23 25  1  0
 23 26  1  0
 26 27  2  0
 27 28  1  0
 27 29  1  0
 29 30  1  0
 29 31  2  0
 31 32  1  0
 31 33  1  0
 33 34  1  0
 33 35  2  0
 35 36  1  0
 36 37  1  0
 22  3  1  0
 35 26  1  0
 20 11  2  0
M  CHG  2   4  -1   6  -1
M  END
>  <UniqueID>  (90) 
81

>  <SMILES>  (90) 
[H]/N=c1\[n-]c([O-])c(Cc2ccc(C)s2)n1Cc1ccccc1O

>  <Energy>  (90) 
92.32079502228333

>  <Genealogy>  (90) 
Cc1ccc(Cc2c([O-])[n-]c(=N)n2Cc2ccccc2O)s1 (protonated)
[H]/N=c1\[n-]c([O-])c(Cc2ccc(C)s2)n1Cc1ccccc1O (cis-trans isomerization)
[H]/N=c1\[n-]c([O-])c(Cc2ccc(C)s2)n1Cc1ccccc1O (3D coordinates assigned)
[H]/N=c1\[n-]c([O-])c(Cc2ccc(C)s2)n1Cc1ccccc1O (optimized conformer: 92.32079502228333 kcal/mol)

>  <smiles>  (90) 
Cc1ccc(Cc2c(O)[nH]c(=N)n2Cc2ccccc2O)s1

>  <score_type>  (90) 
oracle

>  <origin>  (90) 
adg

>  <m_score__min__energy>  (90) 
-11.94

>  <m_primary>  (90) 
energy

$$$$
90:0
     RDKit          3D

 41 43  0  0  0  0  0  0  0  0999 V2000
   54.8430   25.9750   45.9860 N   0  0  0  0  0  0  0  0  0  0  0  0
   55.7140   25.2180   45.8900 C   0  0  0  0  0  0  0  0  0  0  0  0
   56.7960   24.2770   45.7700 C   0  0  0  0  0  0  0  0  0  0  0  0
   56.5890   22.6540   45.3880 S   0  0  0  0  0  0  0  0  0  0  0  0
   58.2240   22.2720   45.3150 C   0  0  0  0  0  0  0  0  0  0  0  0
   58.9560   23.4220   45.5810 C   0  0  0  0  0  0  0  0  0  0  0  0
   58.1630   24.5540   45.8410 C   0  0  0  0  0  0  0  0  0  0  0  0
   58.7420   25.8860   46.1390 C   0  0  0  0  0  0  0  0  0  0  0  0
   58.8590   26.3390   47.4620 C   0  0  0  0  0  0  0  0  0  0  0  0
   59.4020   27.5970   47.7370 C   0  0  0  0  0  0  0  0  0  0  0  0
   59.8570   28.4270   46.6920 C   0  0  0  0  0  0  0  0  0  0  0  0
   60.4010   29.8320   46.9340 C   0  0  2  0  0  0  0  0  0  0  0  0
   60.2050   30.4050   48.3340 C   0  0  0  0  0  0  0  0  0  0  0  0
   60.2570   31.8660   48.2100 N   0  0  0  0  0  0  0  0  0  0  0  0
   60.0910   32.2110   46.7890 C   0  0  0  0  0  0  0  0  0  0  0  0
   59.8710   30.9170   45.9980 C   0  0  2  0  0  0  0  0  0  0  0  0
   58.4230   30.7320   45.5840 C   0  0  0  0  0  0  0  0  0  0  0  0
   57.5200   31.1340   46.3670 O   0  0  0  0  0  0  0  0  0  0  0  0
   58.0740   30.1490   44.3150 N   0  0  0  0  0  0  0  0  0  0  0  0
   56.7320   30.0670   43.8120 C   0  0  0  0  0  0  0  0  0  0  0  0
   56.4870   29.4880   42.5320 N   0  0  0  0  0  0  0  0  0  0  0  0
   55.7620   30.5090   44.4850 O   0  0  0  0  0  0  0  0  0  0  0  0
   59.7350   27.9670   45.3690 C   0  0  0  0  0  0  0  0  0  0  0  0
   59.1940   26.7080   45.0960 C   0  0  0  0  0  0  0  0  0  0  0  0
   58.6434   21.2794   45.0940 H   0  0  0  0  0  0  0  0  0  0  0  0
   60.0557   23.4453   45.5877 H   0  0  0  0  0  0  0  0  0  0  0  0
   58.5204   25.6984   48.2897 H   0  0  0  0  0  0  0  0  0  0  0  0
   59.4751   27.9429   48.7786 H   0  0  0  0  0  0  0  0  0  0  0  0
   61.4642   29.6210   46.7467 H   0  0  0  0  0  0  0  0  0  0  0  0
   59.2295   30.0944   48.7363 H   0  0  0  0  0  0  0  0  0  0  0  0
   60.9840   30.0410   49.0200 H   0  0  0  0  0  0  0  0  0  0  0  0
   61.1820   32.2170   48.5550 H   0  0  0  0  0  0  0  0  0  0  0  0
   59.4970   32.3050   48.7810 H   0  0  0  0  0  0  0  0  0  0  0  0
   59.2212   32.8732   46.6669 H   0  0  0  0  0  0  0  0  0  0  0  0
   60.9872   32.7312   46.4198 H   0  0  0  0  0  0  0  0  0  0  0  0
   60.3950   30.9031   45.0310 H   0  0  0  0  0  0  0  0  0  0  0  0
   58.8360   29.7900   43.6990 H   0  0  0  0  0  0  0  0  0  0  0  0
   55.5140   29.4270   42.1570 H   0  0  0  0  0  0  0  0  0  0  0  0
   57.2750   29.1180   41.9560 H   0  0  0  0  0  0  0  0  0  0  0  0
   60.0696   28.6062   44.5386 H   0  0  0  0  0  0  0  0  0  0  0  0
   59.1220   26.3588   44.0554 H   0  0  0  0  0  0  0  0  0  0  0  0
  1  2  3  0
  2  3  1  0
  3  4  1  0
  4  5  1  0
  5  6  2  0
  6  7  1  0
  7  8  1  0
  8  9  2  0
  9 10  1  0
 10 11  2  0
 11 12  1  0
 12 13  1  0
 13 14  1  0
 14 15  1  0
 15 16  1  0
 16 17  1  0
 17 18  2  0
 17 19  1  0
 19 20  1  0
 20 21  1  0
 20 22  2  0
 11 23  1  0
 23 24  2  0
  7  3  2  0
 24  8  1  0
 16 12  1  0
  5 25  1  0
  6 26  1  0
  9 27  1  0
 10 28  1  0
 12 29  1  6
 13 30  1  0
 13 31  1  0
 14 32  1  0
 14 33  1  0
 15 34  1  0
 15 35  1  0
 16 36  1  6
 19 37  1  0
 21 38  1  0
 21 39  1  0
 23 40  1  0
 24 41  1  0
M  CHG  1  14   1
M  END
>  <UniqueID>  (91) 
82

>  <SMILES>  (91) 
N#Cc1sccc1-c1ccc([C@@H]2C[NH2+]C[C@@H]2C(=O)NC(N)=O)cc1

>  <Energy>  (91) 
78.38061562802771

>  <Genealogy>  (91) 
N#Cc1sccc1-c1ccc(C2C[NH2+]CC2C(=O)NC(N)=O)cc1 (protonated)
N#Cc1sccc1-c1ccc([C@@H]2C[NH2+]C[C@@H]2C(=O)NC(N)=O)cc1 (chirality)
N#Cc1sccc1-c1ccc([C@@H]2C[NH2+]C[C@@H]2C(=O)NC(N)=O)cc1 (3D coordinates assigned)
N#Cc1sccc1-c1ccc([C@@H]2C[NH2+]C[C@@H]2C(=O)NC(N)=O)cc1 (nonaromatic ring conformer: 78.38061562802771 kcal/mol)

>  <smiles>  (91) 
N#Cc1sccc1-c1ccc(C2CNCC2C(=O)NC(N)=O)cc1

>  <score_type>  (91) 
oracle

>  <origin>  (91) 
adg

>  <m_score__min__energy>  (91) 
-6.5899999999999999

>  <m_primary>  (91) 
energy

$$$$
91:0
     RDKit          3D

 39 41  0  0  0  0  0  0  0  0999 V2000
   57.2930   33.3200   47.1230 N   0  0  0  0  0  0  0  0  0  0  0  0
   57.7930   33.4280   45.4720 S   0  0  0  0  0  0  0  0  0  0  0  0
   59.2640   33.7280   45.4080 O   0  0  0  0  0  0  0  0  0  0  0  0
   57.0420   34.5430   44.8000 O   0  0  0  0  0  0  0  0  0  0  0  0
   57.4670   31.9000   44.6600 C   0  0  0  0  0  0  0  0  0  0  0  0
   57.2650   31.8560   43.2750 C   0  0  0  0  0  0  0  0  0  0  0  0
   57.0050   30.6380   42.6420 C   0  0  0  0  0  0  0  0  0  0  0  0
   56.9300   29.4600   43.3910 C   0  0  0  0  0  0  0  0  0  0  0  0
   57.1000   29.4950   44.7840 C   0  0  0  0  0  0  0  0  0  0  0  0
   57.0330   28.2420   45.5620 C   0  0  0  0  0  0  0  0  0  0  0  0
   55.9210   27.4870   45.6300 N   0  0  0  0  0  0  0  0  0  0  0  0
   56.3010   26.4310   46.3750 C   0  0  0  0  0  0  0  0  0  0  0  0
   55.5210   25.4850   46.6610 O   0  0  0  0  0  0  0  0  0  0  0  0
   57.5810   26.4680   46.7910 N   0  0  0  0  0  0  0  0  0  0  0  0
   58.0490   27.6210   46.2790 C   0  0  0  0  0  0  0  0  0  0  0  0
   59.4010   28.1370   46.5710 C   0  0  0  0  0  0  0  0  0  0  0  0
   60.4160   27.4520   46.2740 O   0  0  0  0  0  0  0  0  0  0  0  0
   59.5620   29.4370   47.1590 N   0  0  0  0  0  0  0  0  0  0  0  0
   60.8760   30.0170   47.4270 C   0  0  0  0  0  0  0  0  0  0  0  0
   60.7450   31.4810   47.7510 C   0  0  0  0  0  0  0  0  0  0  0  0
   59.7740   31.9280   48.6630 C   0  0  0  0  0  0  0  0  0  0  0  0
   59.6750   33.2880   48.9740 C   0  0  0  0  0  0  0  0  0  0  0  0
   60.5450   34.2070   48.3810 C   0  0  0  0  0  0  0  0  0  0  0  0
   61.5160   33.7680   47.4770 C   0  0  0  0  0  0  0  0  0  0  0  0
   61.6190   32.4100   47.1630 C   0  0  0  0  0  0  0  0  0  0  0  0
   57.3930   30.7190   45.4090 C   0  0  0  0  0  0  0  0  0  0  0  0
   56.3920   33.8410   47.2040 H   0  0  0  0  0  0  0  0  0  0  0  0
   57.3111   32.7826   42.6841 H   0  0  0  0  0  0  0  0  0  0  0  0
   56.8590   30.6059   41.5522 H   0  0  0  0  0  0  0  0  0  0  0  0
   56.7370   28.5017   42.8867 H   0  0  0  0  0  0  0  0  0  0  0  0
   58.7160   29.9850   47.4340 H   0  0  0  0  0  0  0  0  0  0  0  0
   61.3352   29.4963   48.2802 H   0  0  0  0  0  0  0  0  0  0  0  0
   61.5061   29.9037   46.5325 H   0  0  0  0  0  0  0  0  0  0  0  0
   59.0900   31.2064   49.1336 H   0  0  0  0  0  0  0  0  0  0  0  0
   58.9116   33.6346   49.6861 H   0  0  0  0  0  0  0  0  0  0  0  0
   60.4654   35.2764   48.6260 H   0  0  0  0  0  0  0  0  0  0  0  0
   62.2005   34.4925   47.0117 H   0  0  0  0  0  0  0  0  0  0  0  0
   62.3867   32.0678   46.4534 H   0  0  0  0  0  0  0  0  0  0  0  0
   57.5656   30.7497   46.4949 H   0  0  0  0  0  0  0  0  0  0  0  0
  1  2  1  0
  2  3  2  0
  2  4  2  0
  2  5  1  0
  5  6  2  0
  6  7  1  0
  7  8  2  0
  8  9  1  0
  9 10  1  0
 10 11  1  0
 11 12  1  0
 12 13  2  0
 12 14  1  0
 14 15  1  0
 15 16  1  0
 16 17  2  0
 16 18  1  0
 18 19  1  0
 19 20  1  0
 20 21  2  0
 21 22  1  0
 22 23  2  0
 23 24  1  0
 24 25  2  0
  9 26  2  0
 26  5  1  0
 15 10  2  0
 25 20  1  0
  1 27  1  0
  6 28  1  0
  7 29  1  0
  8 30  1  0
 18 31  1  0
 19 32  1  0
 19 33  1  0
 21 34  1  0
 22 35  1  0
 23 36  1  0
 24 37  1  0
 25 38  1  0
 26 39  1  0
M  CHG  3   1  -1  11  -1  14  -1
M  END
>  <UniqueID>  (92) 
83

>  <SMILES>  (92) 
[NH-]S(=O)(=O)c1cccc(-c2[n-]c(=O)[n-]c2C(=O)NCc2ccccc2)c1

>  <Energy>  (92) 
72.45234442204367

>  <Genealogy>  (92) 
[NH-]S(=O)(=O)c1cccc(-c2[n-]c(=O)[n-]c2C(=O)NCc2ccccc2)c1 (protonated)
[NH-]S(=O)(=O)c1cccc(-c2[n-]c(=O)[n-]c2C(=O)NCc2ccccc2)c1 (3D coordinates assigned)
[NH-]S(=O)(=O)c1cccc(-c2[n-]c(=O)[n-]c2C(=O)NCc2ccccc2)c1 (optimized conformer: 72.45234442204367 kcal/mol)

>  <smiles>  (92) 
NS(=O)(=O)c1cccc(-c2[nH]c(=O)[nH]c2C(=O)NCc2ccccc2)c1

>  <score_type>  (92) 
oracle

>  <origin>  (92) 
adg

>  <m_score__min__energy>  (92) 
-13.09

>  <m_primary>  (92) 
energy

$$$$
92:0
     RDKit          3D

 31 32  0  0  0  0  0  0  0  0999 V2000
   56.2714   23.6316   45.0030 H   0  0  0  0  0  0  0  0  0  0  0  0
   55.8260   24.5810   45.3350 C   0  0  0  0  0  0  0  0  0  0  0  0
   54.5040   24.8620   45.6120 C   0  0  0  0  0  0  0  0  0  0  0  0
   53.3690   23.8960   45.5490 C   0  0  0  0  0  0  0  0  0  0  0  0
   53.0567   23.6302   46.5697 H   0  0  0  0  0  0  0  0  0  0  0  0
   52.5246   24.3567   45.0154 H   0  0  0  0  0  0  0  0  0  0  0  0
   53.6888   22.9888   45.0154 H   0  0  0  0  0  0  0  0  0  0  0  0
   54.3950   26.1160   45.9860 O   0  0  0  0  0  0  0  0  0  0  0  0
   55.5530   26.7090   45.9800 N   0  0  0  0  0  0  0  0  0  0  0  0
   56.4530   25.7920   45.5790 C   0  0  0  0  0  0  0  0  0  0  0  0
   57.7260   26.0530   45.5090 N   0  0  0  0  0  0  0  0  0  0  0  0
   58.5660   26.6030   46.5360 C   0  0  0  0  0  0  0  0  0  0  0  0
   58.7410   26.0040   47.6310 O   0  0  0  0  0  0  0  0  0  0  0  0
   59.2350   27.9190   46.3030 C   0  0  0  0  0  0  0  0  0  0  0  0
   60.1493   27.9707   46.9124 H   0  0  0  0  0  0  0  0  0  0  0  0
   59.4795   28.0037   45.2339 H   0  0  0  0  0  0  0  0  0  0  0  0
   58.1330   29.3030   46.7600 S   0  0  0  0  0  0  0  0  0  0  0  0
   57.5950   29.6320   45.0770 C   0  0  0  0  0  0  0  0  0  0  0  0
   57.7170   30.8120   44.4380 N   0  0  0  0  0  0  0  0  0  0  0  0
   58.4190   32.0130   44.8840 C   0  0  0  0  0  0  0  0  0  0  0  0
   58.4354   32.0411   45.9835 H   0  0  0  0  0  0  0  0  0  0  0  0
   59.4505   31.9979   44.5022 H   0  0  0  0  0  0  0  0  0  0  0  0
   57.8997   32.9044   44.5022 H   0  0  0  0  0  0  0  0  0  0  0  0
   57.1730   30.5680   43.2260 C   0  0  0  0  0  0  0  0  0  0  0  0
   57.0620   31.5710   42.1240 C   0  0  0  0  0  0  0  0  0  0  0  0
   56.9506   32.5773   42.5540 H   0  0  0  0  0  0  0  0  0  0  0  0
   57.9695   31.5358   41.5034 H   0  0  0  0  0  0  0  0  0  0  0  0
   56.1841   31.3382   41.5034 H   0  0  0  0  0  0  0  0  0  0  0  0
   56.7160   29.3010   43.1320 N   0  0  0  0  0  0  0  0  0  0  0  0
   56.9890   28.7240   44.2930 N   0  0  0  0  0  0  0  0  0  0  0  0
   56.7570   27.7360   44.5360 H   0  0  0  0  0  0  0  0  0  0  0  0
  1  2  1  0
  2  3  2  0
  3  4  1  0
  4  5  1  0
  4  6  1  0
  4  7  1  0
  3  8  1  0
  8  9  1  0
  9 10  1  0
 10 11  2  0
 11 12  1  0
 12 13  2  0
 12 14  1  0
 14 15  1  0
 14 16  1  0
 14 17  1  0
 17 18  1  0
 18 19  1  0
 19 20  1  0
 20 21  1  0
 20 22  1  0
 20 23  1  0
 19 24  1  0
 24 25  1  0
 25 26  1  0
 25 27  1  0
 25 28  1  0
 24 29  2  0
 29 30  1  0
 30 31  1  0
 10  2  1  0
 30 18  2  0
M  CHG  2   9  -1  30   1
M  END
>  <UniqueID>  (93) 
84

>  <SMILES>  (93) 
Cc1c/c(=N\C(=O)CSc2[nH+]nc(C)n2C)[n-]o1

>  <Energy>  (93) 
90.99185316362492

>  <Genealogy>  (93) 
Cc1cc(=NC(=O)CSc2[nH+]nc(C)n2C)[n-]o1 (protonated)
Cc1c/c(=N\C(=O)CSc2[nH+]nc(C)n2C)[n-]o1 (cis-trans isomerization)
Cc1c/c(=N\C(=O)CSc2[nH+]nc(C)n2C)[n-]o1 (3D coordinates assigned)
Cc1c/c(=N\C(=O)CSc2[nH+]nc(C)n2C)[n-]o1 (optimized conformer: 90.99185316362492 kcal/mol)

>  <smiles>  (93) 
Cc1cc(=NC(=O)CSc2nnc(C)n2C)[nH]o1

>  <score_type>  (93) 
oracle

>  <origin>  (93) 
adg

>  <m_score__min__energy>  (93) 
-7.79

>  <m_primary>  (93) 
energy

$$$$
93:0
     RDKit          3D

 42 44  0  0  0  0  0  0  0  0999 V2000
   66.3200   31.1780   50.8660 N   0  0  0  0  0  0  0  0  0  0  0  0
   66.1740   32.4440   50.2140 C   0  0  0  0  0  0  0  0  0  0  0  0
   67.2040   33.0460   49.8050 O   0  0  0  0  0  0  0  0  0  0  0  0
   64.8380   33.0480   50.0220 C   0  0  0  0  0  0  0  0  0  0  0  0
   64.2770   33.1740   48.7390 C   0  0  0  0  0  0  0  0  0  0  0  0
   63.0180   33.7610   48.5830 C   0  0  0  0  0  0  0  0  0  0  0  0
   62.4990   33.9130   47.2880 O   0  0  0  0  0  0  0  0  0  0  0  0
   61.2340   33.4760   46.8680 C   0  0  0  0  0  0  0  0  0  0  0  0
   60.4490   34.2280   45.9760 C   0  0  0  0  0  0  0  0  0  0  0  0
   59.1880   33.7620   45.5860 C   0  0  0  0  0  0  0  0  0  0  0  0
   58.6940   32.5510   46.0850 C   0  0  0  0  0  0  0  0  0  0  0  0
   57.3940   32.1140   45.6610 N   0  0  0  0  0  0  0  0  0  0  0  0
   57.0880   30.9220   44.4400 S   0  0  0  0  0  0  0  0  0  0  0  0
   57.8520   31.2820   43.1930 O   0  0  0  0  0  0  0  0  0  0  0  0
   55.6210   30.9120   44.1180 O   0  0  0  0  0  0  0  0  0  0  0  0
   57.5500   29.3260   45.0240 C   0  0  0  0  0  0  0  0  0  0  0  0
   58.9050   28.9850   45.1070 C   0  0  0  0  0  0  0  0  0  0  0  0
   59.2820   27.7200   45.5640 C   0  0  0  0  0  0  0  0  0  0  0  0
   58.3090   26.7890   45.9420 C   0  0  0  0  0  0  0  0  0  0  0  0
   56.9430   27.1200   45.8730 C   0  0  0  0  0  0  0  0  0  0  0  0
   55.9090   26.1470   46.2870 C   0  0  0  0  0  0  0  0  0  0  0  0
   54.6950   26.3370   45.9950 O   0  0  0  0  0  0  0  0  0  0  0  0
   56.2620   25.0120   47.0090 O   0  0  0  0  0  0  0  0  0  0  0  0
   56.5720   28.3960   45.4080 C   0  0  0  0  0  0  0  0  0  0  0  0
   59.4740   31.8080   46.9880 C   0  0  0  0  0  0  0  0  0  0  0  0
   60.7320   32.2790   47.3840 C   0  0  0  0  0  0  0  0  0  0  0  0
   62.3360   34.2300   49.7170 C   0  0  0  0  0  0  0  0  0  0  0  0
   62.9230   34.0910   50.9760 C   0  0  0  0  0  0  0  0  0  0  0  0
   64.1460   33.5110   51.0990 N   0  0  0  0  0  0  0  0  0  0  0  0
   65.4980   30.6760   51.2630 H   0  0  0  0  0  0  0  0  0  0  0  0
   67.2740   30.7720   51.0100 H   0  0  0  0  0  0  0  0  0  0  0  0
   64.8282   32.8111   47.8590 H   0  0  0  0  0  0  0  0  0  0  0  0
   60.8265   35.1840   45.5841 H   0  0  0  0  0  0  0  0  0  0  0  0
   58.5812   34.3513   44.8828 H   0  0  0  0  0  0  0  0  0  0  0  0
   59.6740   29.7141   44.8120 H   0  0  0  0  0  0  0  0  0  0  0  0
   60.3478   27.4551   45.6268 H   0  0  0  0  0  0  0  0  0  0  0  0
   58.6132   25.7926   46.2951 H   0  0  0  0  0  0  0  0  0  0  0  0
   55.5075   28.6659   45.3453 H   0  0  0  0  0  0  0  0  0  0  0  0
   59.0954   30.8544   47.3845 H   0  0  0  0  0  0  0  0  0  0  0  0
   61.3287   31.7025   48.1062 H   0  0  0  0  0  0  0  0  0  0  0  0
   61.3481   34.7027   49.6144 H   0  0  0  0  0  0  0  0  0  0  0  0
   62.3944   34.4518   51.8707 H   0  0  0  0  0  0  0  0  0  0  0  0
  1  2  1  0
  2  3  2  0
  2  4  1  0
  4  5  2  0
  5  6  1  0
  6  7  1  0
  7  8  1  0
  8  9  2  0
  9 10  1  0
 10 11  2  0
 11 12  1  0
 12 13  1  0
 13 14  2  0
 13 15  2  0
 13 16  1  0
 16 17  2  0
 17 18  1  0
 18 19  2  0
 19 20  1  0
 20 21  1  0
 21 22  2  0
 21 23  1  0
 20 24  2  0
 11 25  1  0
 25 26  2  0
  6 27  2  0
 27 28  1  0
 28 29  2  0
 29  4  1  0
 26  8  1  0
 24 16  1  0
  1 30  1  0
  1 31  1  0
  5 32  1  0
  9 33  1  0
 10 34  1  0
 17 35  1  0
 18 36  1  0
 19 37  1  0
 24 38  1  0
 25 39  1  0
 26 40  1  0
 27 41  1  0
 28 42  1  0
M  CHG  2  12  -1  23  -1
M  END
>  <UniqueID>  (94) 
85

>  <SMILES>  (94) 
NC(=O)c1cc(Oc2ccc([N-]S(=O)(=O)c3cccc(C(=O)[O-])c3)cc2)ccn1

>  <Energy>  (94) 
54.99391482811776

>  <Genealogy>  (94) 
NC(=O)c1cc(Oc2ccc([N-]S(=O)(=O)c3cccc(C(=O)[O-])c3)cc2)ccn1 (protonated)
NC(=O)c1cc(Oc2ccc([N-]S(=O)(=O)c3cccc(C(=O)[O-])c3)cc2)ccn1 (3D coordinates assigned)
NC(=O)c1cc(Oc2ccc([N-]S(=O)(=O)c3cccc(C(=O)[O-])c3)cc2)ccn1 (optimized conformer: 54.99391482811776 kcal/mol)

>  <smiles>  (94) 
NC(=O)c1cc(Oc2ccc(NS(=O)(=O)c3cccc(C(=O)O)c3)cc2)ccn1

>  <score_type>  (94) 
oracle

>  <origin>  (94) 
adg

>  <m_score__min__energy>  (94) 
-13.789999999999999

>  <m_primary>  (94) 
energy

$$$$
94:0
     RDKit          3D

 50 53  0  0  0  0  0  0  0  0999 V2000
   58.9200   27.3480   45.0650 H   0  0  0  0  0  0  0  0  0  0  0  0
   58.6820   26.5260   44.5230 O   0  0  0  0  0  0  0  0  0  0  0  0
   57.4910   25.8320   44.7340 C   0  0  0  0  0  0  0  0  0  0  0  0
   57.1040   24.8040   43.8670 C   0  0  0  0  0  0  0  0  0  0  0  0
   57.7505   24.5298   43.0203 H   0  0  0  0  0  0  0  0  0  0  0  0
   55.8970   24.1220   44.0720 C   0  0  0  0  0  0  0  0  0  0  0  0
   55.4610   23.0640   43.1310 C   0  0  0  0  0  0  0  0  0  0  0  0
   54.6090   23.3380   42.2460 O   0  0  0  0  0  0  0  0  0  0  0  0
   56.0110   21.7390   43.1700 N   0  0  0  0  0  0  0  0  0  0  0  0
   56.4920   21.0560   44.3370 C   0  0  0  0  0  0  0  0  0  0  0  0
   57.6430   21.5340   44.9770 C   0  0  0  0  0  0  0  0  0  0  0  0
   58.1601   22.4209   44.5820 H   0  0  0  0  0  0  0  0  0  0  0  0
   58.1380   20.8900   46.1150 C   0  0  0  0  0  0  0  0  0  0  0  0
   59.0355   21.2778   46.6192 H   0  0  0  0  0  0  0  0  0  0  0  0
   57.4930   19.7530   46.6130 C   0  0  0  0  0  0  0  0  0  0  0  0
   57.9730   19.1300   47.7170 F   0  0  0  0  0  0  0  0  0  0  0  0
   56.3580   19.2550   45.9670 C   0  0  0  0  0  0  0  0  0  0  0  0
   55.8536   18.3583   46.3561 H   0  0  0  0  0  0  0  0  0  0  0  0
   55.8630   19.8950   44.8270 C   0  0  0  0  0  0  0  0  0  0  0  0
   54.9796   19.4906   44.3111 H   0  0  0  0  0  0  0  0  0  0  0  0
   55.1190   24.4610   45.1890 C   0  0  0  0  0  0  0  0  0  0  0  0
   54.1876   23.9131   45.3944 H   0  0  0  0  0  0  0  0  0  0  0  0
   55.5110   25.4630   46.0180 N   0  0  0  0  0  0  0  0  0  0  0  0
   56.6600   26.1660   45.8110 C   0  0  0  0  0  0  0  0  0  0  0  0
   56.9960   27.1370   46.6100 N   0  0  0  0  0  0  0  0  0  0  0  0
   57.4380   28.4350   46.1800 C   0  0  0  0  0  0  0  0  0  0  0  0
   58.6340   29.0130   46.6650 C   0  0  0  0  0  0  0  0  0  0  0  0
   59.6380   28.1530   47.8970 S   0  0  0  0  0  0  0  0  0  0  0  0
   60.5060   27.1180   46.6750 C   0  0  0  0  0  0  0  0  0  0  0  0
   61.1278   26.3766   47.1981 H   0  0  0  0  0  0  0  0  0  0  0  0
   59.7690   26.5991   46.0445 H   0  0  0  0  0  0  0  0  0  0  0  0
   61.1454   27.7533   46.0445 H   0  0  0  0  0  0  0  0  0  0  0  0
   59.0260   30.2820   46.1920 C   0  0  0  0  0  0  0  0  0  0  0  0
   60.6100   31.0250   46.6280 S   0  0  0  0  0  0  0  0  0  0  0  0
   60.0090   31.7760   48.1430 C   0  0  0  0  0  0  0  0  0  0  0  0
   59.1660   31.0540   48.9940 C   0  0  0  0  0  0  0  0  0  0  0  0
   58.8656   30.0296   48.7289 H   0  0  0  0  0  0  0  0  0  0  0  0
   58.7040   31.6310   50.1810 C   0  0  0  0  0  0  0  0  0  0  0  0
   58.0313   31.0647   50.8419 H   0  0  0  0  0  0  0  0  0  0  0  0
   59.0970   32.9290   50.5290 C   0  0  0  0  0  0  0  0  0  0  0  0
   58.5180   33.6530   52.0170 Cl  0  0  0  0  0  0  0  0  0  0  0  0
   59.9600   33.6440   49.6900 C   0  0  0  0  0  0  0  0  0  0  0  0
   60.2758   34.6612   49.9651 H   0  0  0  0  0  0  0  0  0  0  0  0
   60.4210   33.0670   48.5030 C   0  0  0  0  0  0  0  0  0  0  0  0
   61.1077   33.6264   47.8507 H   0  0  0  0  0  0  0  0  0  0  0  0
   58.2010   30.9540   45.2850 C   0  0  0  0  0  0  0  0  0  0  0  0
   58.5030   31.9383   44.8979 H   0  0  0  0  0  0  0  0  0  0  0  0
   57.0310   30.4010   44.8790 N   0  0  0  0  0  0  0  0  0  0  0  0
   56.6310   29.1750   45.3040 C   0  0  0  0  0  0  0  0  0  0  0  0
   55.5370   28.7050   44.8960 O   0  0  0  0  0  0  0  0  0  0  0  0
  1  2  1  0
  2  3  1  0
  3  4  2  0
  4  5  1  0
  4  6  1  0
  6  7  1  0
  7  8  2  0
  7  9  1  0
  9 10  1  0
 10 11  2  0
 11 12  1  0
 11 13  1  0
 13 14  1  0
 13 15  2  0
 15 16  1  0
 15 17  1  0
 17 18  1  0
 17 19  2  0
 19 20  1  0
  6 21  2  0
 21 22  1  0
 21 23  1  0
 23 24  1  0
 24 25  2  0
 25 26  1  0
 26 27  2  0
 27 28  1  0
 28 29  1  0
 29 30  1  0
 29 31  1  0
 29 32  1  0
 27 33  1  0
 33 34  1  0
 34 35  1  0
 35 36  2  0
 36 37  1  0
 36 38  1  0
 38 39  1  0
 38 40  2  0
 40 41  1  0
 40 42  1  0
 42 43  1  0
 42 44  2  0
 44 45  1  0
 33 46  2  0
 46 47  1  0
 46 48  1  0
 48 49  1  0
 49 50  2  0
 24  3  1  0
 49 26  1  0
 19 10  1  0
 44 35  1  0
M  CHG  3   9  -1  23  -1  48  -1
M  END
>  <UniqueID>  (95) 
86

>  <SMILES>  (95) 
CSc1c(Sc2ccc(Cl)cc2)c[n-]c(=O)c1/N=c1\[n-]cc(C(=O)[N-]c2ccc(F)cc2)cc1O

>  <Energy>  (95) 
65.2970245760294

>  <Genealogy>  (95) 
CSc1c(Sc2ccc(Cl)cc2)c[n-]c(=O)c1N=c1[n-]cc(C(=O)[N-]c2ccc(F)cc2)cc1O (protonated)
CSc1c(Sc2ccc(Cl)cc2)c[n-]c(=O)c1/N=c1\[n-]cc(C(=O)[N-]c2ccc(F)cc2)cc1O (cis-trans isomerization)
CSc1c(Sc2ccc(Cl)cc2)c[n-]c(=O)c1/N=c1\[n-]cc(C(=O)[N-]c2ccc(F)cc2)cc1O (3D coordinates assigned)
CSc1c(Sc2ccc(Cl)cc2)c[n-]c(=O)c1/N=c1\[n-]cc(C(=O)[N-]c2ccc(F)cc2)cc1O (optimized conformer: 65.2970245760294 kcal/mol)

>  <smiles>  (95) 
CSc1c(Sc2ccc(Cl)cc2)c[nH]c(=O)c1N=c1[nH]cc(C(=O)Nc2ccc(F)cc2)cc1O

>  <score_type>  (95) 
oracle

>  <origin>  (95) 
adg

>  <m_score__min__energy>  (95) 
-13.609999999999999

>  <m_primary>  (95) 
energy

$$$$
95:0
     RDKit          3D

 71 75  0  0  0  0  0  0  0  0999 V2000
   60.0790   34.3250   49.5730 C   0  0  0  0  0  0  0  0  0  0  0  0
   59.9910   34.8850   48.2670 O   0  0  0  0  0  0  0  0  0  0  0  0
   59.3250   34.2800   47.1910 C   0  0  0  0  0  0  0  0  0  0  0  0
   59.6400   34.5660   45.8500 C   0  0  0  0  0  0  0  0  0  0  0  0
   58.9820   33.8960   44.8140 C   0  0  0  0  0  0  0  0  0  0  0  0
   58.0030   32.9310   45.1000 C   0  0  0  0  0  0  0  0  0  0  0  0
   57.4310   32.0810   43.9970 C   0  0  0  0  0  0  0  0  0  0  0  0
   56.2850   31.3350   44.5120 N   0  0  0  0  0  0  0  0  0  0  0  0
   56.2250   29.9060   44.4800 C   0  0  0  0  0  0  0  0  0  0  0  0
   55.1890   29.3060   44.8780 O   0  0  0  0  0  0  0  0  0  0  0  0
   57.3580   29.1180   43.8950 C   0  0  0  0  0  0  0  0  0  0  0  0
   58.2900   28.5850   45.0030 C   0  0  1  0  0  0  0  0  0  0  0  0
   58.7980   29.7620   45.9010 C   0  0  0  0  0  0  0  0  0  0  0  0
   59.6770   29.1290   46.9600 C   0  0  1  0  0  0  0  0  0  0  0  0
   60.2970   29.8860   48.0730 C   0  0  0  0  0  0  0  0  0  0  0  0
   61.0310   31.0690   48.0580 C   0  0  0  0  0  0  0  0  0  0  0  0
   61.7450   31.4280   49.2160 C   0  0  0  0  0  0  0  0  0  0  0  0
   62.4940   32.6510   49.2130 N   0  0  0  0  0  0  0  0  0  0  0  0
   63.8750   32.7910   48.8500 C   0  0  0  0  0  0  0  0  0  0  0  0
   64.1580   33.3220   47.7430 O   0  0  0  0  0  0  0  0  0  0  0  0
   64.9720   32.3750   49.7560 C   0  0  0  0  0  0  0  0  0  0  0  0
   66.1680   33.1130   49.8220 C   0  0  0  0  0  0  0  0  0  0  0  0
   67.1920   32.7210   50.6880 C   0  0  0  0  0  0  0  0  0  0  0  0
   67.0310   31.5960   51.5010 C   0  0  0  0  0  0  0  0  0  0  0  0
   65.8440   30.8480   51.4420 C   0  0  0  0  0  0  0  0  0  0  0  0
   65.6630   29.6840   52.2570 N   0  0  0  0  0  0  0  0  0  0  0  0
   65.8920   28.3330   51.8300 C   0  0  0  0  0  0  0  0  0  0  0  0
   67.1670   27.9220   51.1550 C   0  0  0  0  0  0  0  0  0  0  0  0
   65.0030   27.4650   52.0410 O   0  0  0  0  0  0  0  0  0  0  0  0
   64.8350   31.2220   50.5490 C   0  0  0  0  0  0  0  0  0  0  0  0
   61.7650   30.5500   50.3310 C   0  0  0  0  0  0  0  0  0  0  0  0
   61.0510   29.3390   50.3030 C   0  0  0  0  0  0  0  0  0  0  0  0
   60.3260   29.0310   49.1560 C   0  0  0  0  0  0  0  0  0  0  0  0
   59.5690   27.8850   48.9190 O   0  0  0  0  0  0  0  0  0  0  0  0
   58.8100   28.1650   47.7480 C   0  0  2  0  0  0  0  0  0  0  0  0
   58.3350   27.0250   46.8470 C   0  0  2  0  0  0  0  0  0  0  0  0
   59.4370   26.0410   46.4070 C   0  0  0  0  0  0  0  0  0  0  0  0
   58.9020   25.1300   45.4850 O   0  0  0  0  0  0  0  0  0  0  0  0
   57.5970   27.5660   45.7420 O   0  0  0  0  0  0  0  0  0  0  0  0
   57.6700   32.6720   46.4370 C   0  0  0  0  0  0  0  0  0  0  0  0
   58.3170   33.3520   47.4710 C   0  0  0  0  0  0  0  0  0  0  0  0
   59.9540   35.1206   50.3223 H   0  0  0  0  0  0  0  0  0  0  0  0
   59.2882   33.5715   49.7029 H   0  0  0  0  0  0  0  0  0  0  0  0
   61.0628   33.8503   49.7029 H   0  0  0  0  0  0  0  0  0  0  0  0
   60.4066   35.3193   45.6157 H   0  0  0  0  0  0  0  0  0  0  0  0
   59.2330   34.1264   43.7681 H   0  0  0  0  0  0  0  0  0  0  0  0
   57.1077   32.7250   43.1659 H   0  0  0  0  0  0  0  0  0  0  0  0
   58.1971   31.3793   43.6354 H   0  0  0  0  0  0  0  0  0  0  0  0
   56.9502   28.2681   43.3281 H   0  0  0  0  0  0  0  0  0  0  0  0
   57.9399   29.7777   43.2346 H   0  0  0  0  0  0  0  0  0  0  0  0
   59.1895   28.1265   44.5663 H   0  0  0  0  0  0  0  0  0  0  0  0
   59.3782   30.4781   45.3006 H   0  0  0  0  0  0  0  0  0  0  0  0
   57.9610   30.3165   46.3504 H   0  0  0  0  0  0  0  0  0  0  0  0
   60.5045   28.7980   46.3153 H   0  0  0  0  0  0  0  0  0  0  0  0
   61.0522   31.7075   47.1625 H   0  0  0  0  0  0  0  0  0  0  0  0
   66.2976   34.0030   49.1887 H   0  0  0  0  0  0  0  0  0  0  0  0
   68.1268   33.2992   50.7299 H   0  0  0  0  0  0  0  0  0  0  0  0
   67.8355   31.2958   52.1885 H   0  0  0  0  0  0  0  0  0  0  0  0
   67.9228   27.6784   51.9162 H   0  0  0  0  0  0  0  0  0  0  0  0
   66.9810   27.0383   50.5269 H   0  0  0  0  0  0  0  0  0  0  0  0
   67.5321   28.7480   50.5269 H   0  0  0  0  0  0  0  0  0  0  0  0
   63.9257   30.6085   50.4662 H   0  0  0  0  0  0  0  0  0  0  0  0
   62.3449   30.8196   51.2260 H   0  0  0  0  0  0  0  0  0  0  0  0
   61.0652   28.6543   51.1638 H   0  0  0  0  0  0  0  0  0  0  0  0
   57.8375   28.5411   48.0983 H   0  0  0  0  0  0  0  0  0  0  0  0
   57.6692   26.3941   47.4542 H   0  0  0  0  0  0  0  0  0  0  0  0
   60.2612   26.5980   45.9376 H   0  0  0  0  0  0  0  0  0  0  0  0
   59.8181   25.4975   47.2841 H   0  0  0  0  0  0  0  0  0  0  0  0
   58.1120   25.5810   45.0820 H   0  0  0  0  0  0  0  0  0  0  0  0
   56.8943   31.9286   46.6730 H   0  0  0  0  0  0  0  0  0  0  0  0
   58.0312   33.1559   48.5150 H   0  0  0  0  0  0  0  0  0  0  0  0
  1  2  1  0
  2  3  1  0
  3  4  2  0
  4  5  1  0
  5  6  2  0
  6  7  1  0
  7  8  1  0
  8  9  1  0
  9 10  2  0
  9 11  1  0
 11 12  1  0
 12 13  1  0
 13 14  1  0
 14 15  1  0
 15 16  2  0
 16 17  1  0
 17 18  1  0
 18 19  1  0
 19 20  2  0
 19 21  1  0
 21 22  2  0
 22 23  1  0
 23 24  2  0
 24 25  1  0
 25 26  1  0
 26 27  1  0
 27 28  1  0
 27 29  2  0
 25 30  2  0
 17 31  2  0
 31 32  1  0
 32 33  2  0
 33 34  1  0
 34 35  1  0
 35 36  1  0
 36 37  1  0
 37 38  1  0
 36 39  1  0
  6 40  1  0
 40 41  2  0
 41  3  1  0
 39 12  1  0
 35 14  1  0
 33 15  1  0
 30 21  1  0
  1 42  1  0
  1 43  1  0
  1 44  1  0
  4 45  1  0
  5 46  1  0
  7 47  1  0
  7 48  1  0
 11 49  1  0
 11 50  1  0
 12 51  1  6
 13 52  1  0
 13 53  1  0
 14 54  1  6
 16 55  1  0
 22 56  1  0
 23 57  1  0
 24 58  1  0
 28 59  1  0
 28 60  1  0
 28 61  1  0
 30 62  1  0
 31 63  1  0
 32 64  1  0
 35 65  1  1
 36 66  1  1
 37 67  1  0
 37 68  1  0
 38 69  1  0
 40 70  1  0
 41 71  1  0
M  CHG  3   8  -1  18  -1  26  -1
M  END
>  <UniqueID>  (96) 
87

>  <SMILES>  (96) 
COc1ccc(C[N-]C(=O)C[C@H]2C[C@H]3c4cc([N-]C(=O)c5cccc([N-]C(C)=O)c5)ccc4OC3C(CO)O2)cc1

>  <Energy>  (96) 
121.74186264818616

>  <Genealogy>  (96) 
COc1ccc(C[N-]C(=O)CC2CC3c4cc([N-]C(=O)c5cccc([N-]C(C)=O)c5)ccc4OC3C(CO)O2)cc1 (protonated)
COc1ccc(C[N-]C(=O)C[C@H]2C[C@H]3c4cc([N-]C(=O)c5cccc([N-]C(C)=O)c5)ccc4OC3C(CO)O2)cc1 (chirality)
COc1ccc(C[N-]C(=O)C[C@H]2C[C@H]3c4cc([N-]C(=O)c5cccc([N-]C(C)=O)c5)ccc4OC3C(CO)O2)cc1 (3D coordinates assigned)
COc1ccc(C[N-]C(=O)C[C@H]2C[C@H]3c4cc([N-]C(=O)c5cccc([N-]C(C)=O)c5)ccc4OC3C(CO)O2)cc1 (nonaromatic ring conformer: 121.74186264818616 kcal/mol)

>  <smiles>  (96) 
COc1ccc(CNC(=O)CC2CC3c4cc(NC(=O)c5cccc(NC(C)=O)c5)ccc4OC3C(CO)O2)cc1

>  <score_type>  (96) 
oracle

>  <origin>  (96) 
adg

>  <m_score__min__energy>  (96) 
-15.529999999999999

>  <m_primary>  (96) 
energy

$$$$
