0:0
     RDKit          3D

 36 38  0  0  0  0  0  0  0  0999 V2000
   57.0230   33.4660   46.2680 C   0  0  0  0  0  0  0  0  0  0  0  0
   58.3590   32.9090   46.4730 N   0  0  0  0  0  0  0  0  0  0  0  0
   58.5850   31.5000   46.3070 C   0  0  0  0  0  0  0  0  0  0  0  0
   58.0360   30.8380   45.1960 C   0  0  0  0  0  0  0  0  0  0  0  0
   58.2150   29.4650   45.0220 C   0  0  0  0  0  0  0  0  0  0  0  0
   58.9450   28.7320   45.9590 C   0  0  0  0  0  0  0  0  0  0  0  0
   59.1390   27.3180   45.7750 C   0  0  0  0  0  0  0  0  0  0  0  0
   59.2950   26.1800   45.6270 N   0  0  0  0  0  0  0  0  0  0  0  0
   59.4960   29.3760   47.0730 C   0  0  0  0  0  0  0  0  0  0  0  0
   59.3120   30.7580   47.2700 C   0  0  0  0  0  0  0  0  0  0  0  0
   59.9790   31.4210   48.4610 C   0  0  2  0  0  0  0  0  0  0  0  0
   59.0690   32.3190   49.1850 N   0  0  0  0  0  0  0  0  0  0  0  0
   58.1480   31.8500   50.1770 C   0  0  0  0  0  0  0  0  0  0  0  0
   58.1170   30.6360   50.5120 O   0  0  0  0  0  0  0  0  0  0  0  0
   61.2330   32.1340   47.9900 C   0  0  0  0  0  0  0  0  0  0  0  0
   62.4830   31.6150   48.3820 C   0  0  0  0  0  0  0  0  0  0  0  0
   63.6710   32.2050   47.9480 C   0  0  0  0  0  0  0  0  0  0  0  0
   63.6320   33.3180   47.1130 C   0  0  0  0  0  0  0  0  0  0  0  0
   62.4060   33.8420   46.7060 C   0  0  0  0  0  0  0  0  0  0  0  0
   61.1990   33.2570   47.1230 C   0  0  0  0  0  0  0  0  0  0  0  0
   59.6920   34.0180   46.5900 S   0  0  0  0  0  0  0  0  0  0  0  0
   59.3500   35.1000   47.5740 O   0  0  0  0  0  0  0  0  0  0  0  0
   59.9050   34.6310   45.2340 O   0  0  0  0  0  0  0  0  0  0  0  0
   56.5537   33.6617   47.2434 H   0  0  0  0  0  0  0  0  0  0  0  0
   57.1006   34.4067   45.7032 H   0  0  0  0  0  0  0  0  0  0  0  0
   56.4094   32.7487   45.7032 H   0  0  0  0  0  0  0  0  0  0  0  0
   57.4581   31.4089   44.4543 H   0  0  0  0  0  0  0  0  0  0  0  0
   57.7808   28.9604   44.1463 H   0  0  0  0  0  0  0  0  0  0  0  0
   60.0795   28.7957   47.8030 H   0  0  0  0  0  0  0  0  0  0  0  0
   60.2594   30.6441   49.1875 H   0  0  0  0  0  0  0  0  0  0  0  0
   58.9450   33.3040   48.8630 H   0  0  0  0  0  0  0  0  0  0  0  0
   57.4571   32.5610   50.6536 H   0  0  0  0  0  0  0  0  0  0  0  0
   62.5230   30.7334   49.0386 H   0  0  0  0  0  0  0  0  0  0  0  0
   64.6389   31.7902   48.2660 H   0  0  0  0  0  0  0  0  0  0  0  0
   64.5689   33.7842   46.7742 H   0  0  0  0  0  0  0  0  0  0  0  0
   62.3835   34.7247   46.0500 H   0  0  0  0  0  0  0  0  0  0  0  0
  1  2  1  0
  2  3  1  0
  3  4  2  0
  4  5  1  0
  5  6  2  0
  6  7  1  0
  7  8  3  0
  6  9  1  0
  9 10  2  0
 10 11  1  0
 11 12  1  0
 12 13  1  0
 13 14  2  0
 11 15  1  0
 15 16  2  0
 16 17  1  0
 17 18  2  0
 18 19  1  0
 19 20  2  0
 20 21  1  0
 21 22  2  0
 21 23  2  0
 21  2  1  0
 10  3  1  0
 20 15  1  0
  1 24  1  0
  1 25  1  0
  1 26  1  0
  4 27  1  0
  5 28  1  0
  9 29  1  0
 11 30  1  1
 12 31  1  0
 13 32  1  0
 16 33  1  0
 17 34  1  0
 18 35  1  0
 19 36  1  0
M  END
>  <UniqueID>  (1) 
1

>  <SMILES>  (1) 
CN1c2ccc(C#N)cc2[C@H](NC=O)c2ccccc2S1(=O)=O

>  <Energy>  (1) 
50.958341558940454

>  <Genealogy>  (1) 
CN1c2ccc(C#N)cc2[C@H](NC=O)c2ccccc2S1(=O)=O (chirality)
CN1c2ccc(C#N)cc2[C@H](NC=O)c2ccccc2S1(=O)=O (3D coordinates assigned)
CN1c2ccc(C#N)cc2[C@H](NC=O)c2ccccc2S1(=O)=O (nonaromatic ring conformer: 50.958341558940454 kcal/mol)

>  <smiles>  (1) 
CN1c2ccc(C#N)cc2C(NC=O)c2ccccc2S1(=O)=O

>  <score_type>  (1) 
oracle

>  <origin>  (1) 
adg

>  <m_score__min__energy>  (1) 
-7.2300000000000004

>  <m_primary>  (1) 
energy

$$$$
1:0
     RDKit          3D

 35 36  0  0  0  0  0  0  0  0999 V2000
   63.1410   33.8290   48.2760 C   0  0  0  0  0  0  0  0  0  0  0  0
   61.7970   34.1470   48.9220 C   0  0  0  0  0  0  0  0  0  0  0  0
   60.6880   34.0710   47.9090 C   0  0  0  0  0  0  0  0  0  0  0  0
   60.9640   34.2440   46.5440 C   0  0  0  0  0  0  0  0  0  0  0  0
   59.9400   34.1370   45.5980 C   0  0  0  0  0  0  0  0  0  0  0  0
   58.6270   33.8360   45.9990 C   0  0  0  0  0  0  0  0  0  0  0  0
   57.5360   33.7170   45.0030 C   0  0  0  0  0  0  0  0  0  0  0  0
   56.7100   34.6590   44.8760 O   0  0  0  0  0  0  0  0  0  0  0  0
   57.4170   32.5800   44.1370 N   0  0  0  0  0  0  0  0  0  0  0  0
   57.2480   31.2160   44.5500 C   0  0  0  0  0  0  0  0  0  0  0  0
   58.2750   30.5940   45.2700 C   0  0  0  0  0  0  0  0  0  0  0  0
   58.1470   29.2630   45.6790 C   0  0  0  0  0  0  0  0  0  0  0  0
   56.9920   28.5350   45.3600 C   0  0  0  0  0  0  0  0  0  0  0  0
   56.8340   26.8560   45.8620 S   0  0  0  0  0  0  0  0  0  0  0  0
   55.1600   26.4420   45.9780 N   0  0  0  0  0  0  0  0  0  0  0  0
   57.4940   26.6600   47.1990 O   0  0  0  0  0  0  0  0  0  0  0  0
   57.5020   25.9580   44.8580 O   0  0  0  0  0  0  0  0  0  0  0  0
   55.9760   29.1440   44.6120 C   0  0  0  0  0  0  0  0  0  0  0  0
   56.1050   30.4760   44.2030 C   0  0  0  0  0  0  0  0  0  0  0  0
   58.3540   33.6690   47.3670 C   0  0  0  0  0  0  0  0  0  0  0  0
   59.3770   33.7750   48.3130 C   0  0  0  0  0  0  0  0  0  0  0  0
   63.8918   33.6514   49.0601 H   0  0  0  0  0  0  0  0  0  0  0  0
   63.0436   32.9291   47.6509 H   0  0  0  0  0  0  0  0  0  0  0  0
   63.4572   34.6771   47.6509 H   0  0  0  0  0  0  0  0  0  0  0  0
   61.6021   33.4215   49.7256 H   0  0  0  0  0  0  0  0  0  0  0  0
   61.8338   35.1680   49.3296 H   0  0  0  0  0  0  0  0  0  0  0  0
   61.9907   34.4648   46.2168 H   0  0  0  0  0  0  0  0  0  0  0  0
   60.1637   34.2896   44.5318 H   0  0  0  0  0  0  0  0  0  0  0  0
   59.1883   31.1558   45.5155 H   0  0  0  0  0  0  0  0  0  0  0  0
   58.9550   28.7856   46.2528 H   0  0  0  0  0  0  0  0  0  0  0  0
   54.7380   27.0810   46.6900 H   0  0  0  0  0  0  0  0  0  0  0  0
   55.0741   28.5734   44.3454 H   0  0  0  0  0  0  0  0  0  0  0  0
   55.3084   30.9457   43.6074 H   0  0  0  0  0  0  0  0  0  0  0  0
   57.3268   33.4531   47.6960 H   0  0  0  0  0  0  0  0  0  0  0  0
   59.1536   33.6257   49.3797 H   0  0  0  0  0  0  0  0  0  0  0  0
  1  2  1  0
  2  3  1  0
  3  4  2  0
  4  5  1  0
  5  6  2  0
  6  7  1  0
  7  8  2  0
  7  9  1  0
  9 10  1  0
 10 11  2  0
 11 12  1  0
 12 13  2  0
 13 14  1  0
 14 15  1  0
 14 16  2  0
 14 17  2  0
 13 18  1  0
 18 19  2  0
  6 20  1  0
 20 21  2  0
 21  3  1  0
 19 10  1  0
  1 22  1  0
  1 23  1  0
  1 24  1  0
  2 25  1  0
  2 26  1  0
  4 27  1  0
  5 28  1  0
 11 29  1  0
 12 30  1  0
 15 31  1  0
 18 32  1  0
 19 33  1  0
 20 34  1  0
 21 35  1  0
M  CHG  2   9  -1  15  -1
M  END
>  <UniqueID>  (2) 
2

>  <SMILES>  (2) 
CCc1ccc(C(=O)[N-]c2ccc(S([NH-])(=O)=O)cc2)cc1

>  <Energy>  (2) 
38.50235039444773

>  <Genealogy>  (2) 
CCc1ccc(C(=O)[N-]c2ccc(S([NH-])(=O)=O)cc2)cc1 (protonated)
CCc1ccc(C(=O)[N-]c2ccc(S([NH-])(=O)=O)cc2)cc1 (3D coordinates assigned)
CCc1ccc(C(=O)[N-]c2ccc(S([NH-])(=O)=O)cc2)cc1 (optimized conformer: 38.50235039444773 kcal/mol)

>  <smiles>  (2) 
CCc1ccc(C(=O)Nc2ccc(S(N)(=O)=O)cc2)cc1

>  <score_type>  (2) 
oracle

>  <origin>  (2) 
adg

>  <m_score__min__energy>  (2) 
-11.640000000000001

>  <m_primary>  (2) 
energy

$$$$
2:0
     RDKit          3D

 78 82  0  0  0  0  0  0  0  0999 V2000
   57.5340   29.6890   54.1580 O   0  0  0  0  0  0  0  0  0  0  0  0
   58.6960   30.0100   53.7880 C   0  0  0  0  0  0  0  0  0  0  0  0
   59.8340   29.3400   54.3370 N   0  0  0  0  0  0  0  0  0  0  0  0
   60.7660   28.5380   53.5510 C   0  0  0  0  0  0  0  0  0  0  0  0
   60.0260   27.8240   52.4150 C   0  0  0  0  0  0  0  0  0  0  0  0
   60.9530   27.3510   51.3720 N   0  0  0  0  0  0  0  0  0  0  0  0
   60.6410   27.8870   50.0350 C   0  0  0  0  0  0  0  0  0  0  0  0
   60.7450   26.7810   48.9870 C   0  0  0  0  0  0  0  0  0  0  0  0
   59.7550   26.9780   47.9360 N   0  0  0  0  0  0  0  0  0  0  0  0
   59.6900   26.1510   46.7680 C   0  0  0  0  0  0  0  0  0  0  0  0
   60.7550   25.8130   46.1860 O   0  0  0  0  0  0  0  0  0  0  0  0
   58.3890   25.6710   46.2520 C   0  0  0  0  0  0  0  0  0  0  0  0
   58.3280   24.4410   45.5690 C   0  0  0  0  0  0  0  0  0  0  0  0
   57.1160   23.9610   45.0720 C   0  0  0  0  0  0  0  0  0  0  0  0
   55.9520   24.7130   45.2270 C   0  0  0  0  0  0  0  0  0  0  0  0
   55.9950   25.9500   45.8770 C   0  0  0  0  0  0  0  0  0  0  0  0
   54.8270   26.6960   45.9980 O   0  0  0  0  0  0  0  0  0  0  0  0
   57.2080   26.4350   46.4000 C   0  0  0  0  0  0  0  0  0  0  0  0
   57.2480   27.6750   47.0430 O   0  0  0  0  0  0  0  0  0  0  0  0
   58.8860   31.0860   52.7960 C   0  0  0  0  0  0  0  0  0  0  0  0
   57.8900   32.0520   52.5840 C   0  0  0  0  0  0  0  0  0  0  0  0
   58.0940   33.0860   51.6670 C   0  0  0  0  0  0  0  0  0  0  0  0
   59.3010   33.1880   50.9640 C   0  0  0  0  0  0  0  0  0  0  0  0
   59.4550   34.2420   50.0500 O   0  0  0  0  0  0  0  0  0  0  0  0
   59.7190   34.0920   48.6790 C   0  0  0  0  0  0  0  0  0  0  0  0
   58.6470   33.8440   47.8130 C   0  0  0  0  0  0  0  0  0  0  0  0
   58.8650   33.7090   46.4390 C   0  0  0  0  0  0  0  0  0  0  0  0
   60.1600   33.8040   45.9250 C   0  0  0  0  0  0  0  0  0  0  0  0
   61.2390   34.0260   46.7830 C   0  0  0  0  0  0  0  0  0  0  0  0
   61.0240   34.1610   48.1570 C   0  0  0  0  0  0  0  0  0  0  0  0
   60.3300   32.2540   51.2220 C   0  0  0  0  0  0  0  0  0  0  0  0
   61.6390   32.4210   50.6800 N   0  0  0  0  0  0  0  0  0  0  0  0
   62.3740   31.2140   49.6800 S   0  0  0  0  0  0  0  0  0  0  0  0
   63.6370   31.7770   49.0930 O   0  0  0  0  0  0  0  0  0  0  0  0
   62.7220   29.9990   50.4910 O   0  0  0  0  0  0  0  0  0  0  0  0
   61.2440   30.7680   48.4080 C   0  0  0  0  0  0  0  0  0  0  0  0
   59.8810   30.6640   48.7020 C   0  0  0  0  0  0  0  0  0  0  0  0
   58.9610   30.3620   47.6960 C   0  0  0  0  0  0  0  0  0  0  0  0
   59.3910   30.1610   46.3710 C   0  0  0  0  0  0  0  0  0  0  0  0
   58.4090   29.8780   45.2930 C   0  0  0  0  0  0  0  0  0  0  0  0
   58.5210   28.7100   44.5110 C   0  0  0  0  0  0  0  0  0  0  0  0
   57.5860   28.4370   43.5070 C   0  0  0  0  0  0  0  0  0  0  0  0
   56.5320   29.3240   43.2720 C   0  0  0  0  0  0  0  0  0  0  0  0
   56.4120   30.4860   44.0390 C   0  0  0  0  0  0  0  0  0  0  0  0
   57.3440   30.7660   45.0430 C   0  0  0  0  0  0  0  0  0  0  0  0
   60.7680   30.2420   46.0860 C   0  0  0  0  0  0  0  0  0  0  0  0
   61.6860   30.5360   47.0990 C   0  0  0  0  0  0  0  0  0  0  0  0
   60.0980   31.1850   52.0930 C   0  0  0  0  0  0  0  0  0  0  0  0
   61.5391   29.1941   53.1245 H   0  0  0  0  0  0  0  0  0  0  0  0
   61.2298   27.7849   54.2050 H   0  0  0  0  0  0  0  0  0  0  0  0
   59.4853   26.9603   52.8295 H   0  0  0  0  0  0  0  0  0  0  0  0
   59.3305   28.5415   51.9552 H   0  0  0  0  0  0  0  0  0  0  0  0
   60.8650   26.3080   51.3330 H   0  0  0  0  0  0  0  0  0  0  0  0
   59.6184   28.2924   50.0354 H   0  0  0  0  0  0  0  0  0  0  0  0
   61.3599   28.6828   49.7902 H   0  0  0  0  0  0  0  0  0  0  0  0
   61.7515   26.7963   48.5435 H   0  0  0  0  0  0  0  0  0  0  0  0
   60.5591   25.8120   49.4733 H   0  0  0  0  0  0  0  0  0  0  0  0
   59.2461   23.8522   45.4258 H   0  0  0  0  0  0  0  0  0  0  0  0
   57.0786   22.9893   44.5578 H   0  0  0  0  0  0  0  0  0  0  0  0
   54.9969   24.3317   44.8366 H   0  0  0  0  0  0  0  0  0  0  0  0
   58.0270   27.9580   47.6250 H   0  0  0  0  0  0  0  0  0  0  0  0
   56.9442   31.9946   53.1426 H   0  0  0  0  0  0  0  0  0  0  0  0
   57.2993   33.8269   51.4955 H   0  0  0  0  0  0  0  0  0  0  0  0
   57.6275   33.7549   48.2163 H   0  0  0  0  0  0  0  0  0  0  0  0
   58.0166   33.5279   45.7626 H   0  0  0  0  0  0  0  0  0  0  0  0
   60.3302   33.7038   44.8429 H   0  0  0  0  0  0  0  0  0  0  0  0
   62.2590   34.0947   46.3769 H   0  0  0  0  0  0  0  0  0  0  0  0
   61.8772   34.3217   48.8325 H   0  0  0  0  0  0  0  0  0  0  0  0
   59.5311   30.8212   49.7329 H   0  0  0  0  0  0  0  0  0  0  0  0
   57.8917   30.2805   47.9410 H   0  0  0  0  0  0  0  0  0  0  0  0
   59.3491   28.0089   44.6917 H   0  0  0  0  0  0  0  0  0  0  0  0
   57.6805   27.5233   42.9019 H   0  0  0  0  0  0  0  0  0  0  0  0
   55.7966   29.1075   42.4831 H   0  0  0  0  0  0  0  0  0  0  0  0
   55.5815   31.1827   43.8522 H   0  0  0  0  0  0  0  0  0  0  0  0
   57.2453   31.6842   45.6407 H   0  0  0  0  0  0  0  0  0  0  0  0
   61.1239   30.0727   45.0590 H   0  0  0  0  0  0  0  0  0  0  0  0
   62.7601   30.5853   46.8670 H   0  0  0  0  0  0  0  0  0  0  0  0
   60.8715   30.4148   52.2288 H   0  0  0  0  0  0  0  0  0  0  0  0
  1  2  2  0
  2  3  1  0
  3  4  1  0
  4  5  1  0
  5  6  1  0
  6  7  1  0
  7  8  1  0
  8  9  1  0
  9 10  1  0
 10 11  2  0
 10 12  1  0
 12 13  2  0
 13 14  1  0
 14 15  2  0
 15 16  1  0
 16 17  1  0
 16 18  2  0
 18 19  1  0
  2 20  1  0
 20 21  2  0
 21 22  1  0
 22 23  2  0
 23 24  1  0
 24 25  1  0
 25 26  2  0
 26 27  1  0
 27 28  2  0
 28 29  1  0
 29 30  2  0
 23 31  1  0
 31 32  1  0
 32 33  1  0
 33 34  2  0
 33 35  2  0
 33 36  1  0
 36 37  2  0
 37 38  1  0
 38 39  2  0
 39 40  1  0
 40 41  2  0
 41 42  1  0
 42 43  2  0
 43 44  1  0
 44 45  2  0
 39 46  1  0
 46 47  2  0
 31 48  2  0
 18 12  1  0
 48 20  1  0
 30 25  1  0
 47 36  1  0
 45 40  1  0
  4 49  1  0
  4 50  1  0
  5 51  1  0
  5 52  1  0
  6 53  1  0
  7 54  1  0
  7 55  1  0
  8 56  1  0
  8 57  1  0
 13 58  1  0
 14 59  1  0
 15 60  1  0
 19 61  1  0
 21 62  1  0
 22 63  1  0
 26 64  1  0
 27 65  1  0
 28 66  1  0
 29 67  1  0
 30 68  1  0
 37 69  1  0
 38 70  1  0
 41 71  1  0
 42 72  1  0
 43 73  1  0
 44 74  1  0
 45 75  1  0
 46 76  1  0
 47 77  1  0
 48 78  1  0
M  CHG  4   3  -1   9  -1  17  -1  32  -1
M  END
>  <UniqueID>  (3) 
3

>  <SMILES>  (3) 
O=C([N-]CCNCC[N-]C(=O)c1cccc([O-])c1O)c1ccc(Oc2ccccc2)c([N-]S(=O)(=O)c2ccc(-c3ccccc3)cc2)c1

>  <Energy>  (3) 
93.82577553393457

>  <Genealogy>  (3) 
O=C([N-]CCNCC[N-]C(=O)c1cccc([O-])c1O)c1ccc(Oc2ccccc2)c([N-]S(=O)(=O)c2ccc(-c3ccccc3)cc2)c1 (protonated)
O=C([N-]CCNCC[N-]C(=O)c1cccc([O-])c1O)c1ccc(Oc2ccccc2)c([N-]S(=O)(=O)c2ccc(-c3ccccc3)cc2)c1 (3D coordinates assigned)
O=C([N-]CCNCC[N-]C(=O)c1cccc([O-])c1O)c1ccc(Oc2ccccc2)c([N-]S(=O)(=O)c2ccc(-c3ccccc3)cc2)c1 (optimized conformer: 93.82577553393457 kcal/mol)

>  <smiles>  (3) 
O=C(NCCNCCNC(=O)c1cccc(O)c1O)c1ccc(Oc2ccccc2)c(NS(=O)(=O)c2ccc(-c3ccccc3)cc2)c1

>  <score_type>  (3) 
oracle

>  <origin>  (3) 
adg

>  <m_score__min__energy>  (3) 
-20.390000000000001

>  <m_primary>  (3) 
energy

$$$$
3:0
     RDKit          3D

 35 36  0  0  0  0  0  0  0  0999 V2000
   56.7000   30.2660   42.9670 C   0  0  0  0  0  0  0  0  0  0  0  0
   55.9920   29.8190   44.2010 C   0  0  0  0  0  0  0  0  0  0  0  0
   54.8310   29.3360   44.1130 O   0  0  0  0  0  0  0  0  0  0  0  0
   56.6490   29.8900   45.4350 O   0  0  0  0  0  0  0  0  0  0  0  0
   58.0660   29.9920   45.5650 C   0  0  0  0  0  0  0  0  0  0  0  0
   58.7160   28.6040   45.5240 C   0  0  2  0  0  0  0  0  0  0  0  0
   57.9570   27.7440   44.7100 O   0  0  0  0  0  0  0  0  0  0  0  0
   58.2150   26.4320   45.1650 C   0  0  2  0  0  0  0  0  0  0  0  0
   57.0100   25.5900   45.0160 N   0  0  0  0  0  0  0  0  0  0  0  0
   57.0160   24.5820   44.0920 C   0  0  0  0  0  0  0  0  0  0  0  0
   55.9030   23.7460   43.9270 C   0  0  0  0  0  0  0  0  0  0  0  0
   55.9060   22.6620   42.9210 C   0  0  0  0  0  0  0  0  0  0  0  0
   56.1110   21.4650   43.2570 O   0  0  0  0  0  0  0  0  0  0  0  0
   54.7890   23.9700   44.7470 C   0  0  0  0  0  0  0  0  0  0  0  0
   53.7560   23.2560   44.6460 O   0  0  0  0  0  0  0  0  0  0  0  0
   54.8200   24.9650   45.6660 N   0  0  0  0  0  0  0  0  0  0  0  0
   55.9060   25.7660   45.8140 C   0  0  0  0  0  0  0  0  0  0  0  0
   55.8830   26.6640   46.6980 O   0  0  0  0  0  0  0  0  0  0  0  0
   58.6740   26.4810   46.6330 C   0  0  1  0  0  0  0  0  0  0  0  0
   59.9060   25.8240   46.7890 O   0  0  0  0  0  0  0  0  0  0  0  0
   58.7910   27.9690   46.9130 C   0  0  1  0  0  0  0  0  0  0  0  0
   59.9610   28.3220   47.6150 O   0  0  0  0  0  0  0  0  0  0  0  0
   57.5997   30.8341   43.2459 H   0  0  0  0  0  0  0  0  0  0  0  0
   56.9907   29.3874   42.3724 H   0  0  0  0  0  0  0  0  0  0  0  0
   56.0318   30.9063   42.3724 H   0  0  0  0  0  0  0  0  0  0  0  0
   58.4615   30.6003   44.7382 H   0  0  0  0  0  0  0  0  0  0  0  0
   58.2992   30.4630   46.5313 H   0  0  0  0  0  0  0  0  0  0  0  0
   59.7332   28.7391   45.1276 H   0  0  0  0  0  0  0  0  0  0  0  0
   59.0157   25.9848   44.5576 H   0  0  0  0  0  0  0  0  0  0  0  0
   57.9083   24.4247   43.4683 H   0  0  0  0  0  0  0  0  0  0  0  0
   55.7265   22.9044   41.8632 H   0  0  0  0  0  0  0  0  0  0  0  0
   57.9845   25.9759   47.3255 H   0  0  0  0  0  0  0  0  0  0  0  0
   60.3230   26.2020   47.6070 H   0  0  0  0  0  0  0  0  0  0  0  0
   57.9956   28.3239   47.5848 H   0  0  0  0  0  0  0  0  0  0  0  0
   60.7120   27.7710   47.2720 H   0  0  0  0  0  0  0  0  0  0  0  0
  1  2  1  0
  2  3  2  0
  2  4  1  0
  4  5  1  0
  5  6  1  0
  6  7  1  0
  7  8  1  0
  8  9  1  0
  9 10  1  0
 10 11  2  0
 11 12  1  0
 12 13  2  0
 11 14  1  0
 14 15  2  0
 14 16  1  0
 16 17  1  0
 17 18  2  0
  8 19  1  0
 19 20  1  0
 19 21  1  0
 21 22  1  0
 21  6  1  0
 17  9  1  0
  1 23  1  0
  1 24  1  0
  1 25  1  0
  5 26  1  0
  5 27  1  0
  6 28  1  6
  8 29  1  6
 10 30  1  0
 12 31  1  0
 19 32  1  1
 20 33  1  0
 21 34  1  1
 22 35  1  0
M  CHG  1  16  -1
M  END
>  <UniqueID>  (4) 
4

>  <SMILES>  (4) 
CC(=O)OC[C@@H]1O[C@H](n2cc(C=O)c(=O)[n-]c2=O)C(O)C1O

>  <Energy>  (4) 
38.978983464591124

>  <Genealogy>  (4) 
CC(=O)OCC1OC(n2cc(C=O)c(=O)[n-]c2=O)C(O)C1O (protonated)
CC(=O)OC[C@@H]1O[C@H](n2cc(C=O)c(=O)[n-]c2=O)C(O)C1O (chirality)
CC(=O)OC[C@@H]1O[C@H](n2cc(C=O)c(=O)[n-]c2=O)C(O)C1O (3D coordinates assigned)
CC(=O)OC[C@@H]1O[C@H](n2cc(C=O)c(=O)[n-]c2=O)C(O)C1O (nonaromatic ring conformer: 38.978983464591124 kcal/mol)

>  <smiles>  (4) 
CC(=O)OCC1OC(n2cc(C=O)c(=O)[nH]c2=O)C(O)C1O

>  <score_type>  (4) 
oracle

>  <origin>  (4) 
adg

>  <m_score__min__energy>  (4) 
-8.5399999999999991

>  <m_primary>  (4) 
energy

$$$$
4:0
     RDKit          3D

 64 68  0  0  0  0  0  0  0  0999 V2000
   56.7729   34.7420   46.1122 H   0  0  0  0  0  0  0  0  0  0  0  0
   57.4640   33.8950   45.9900 C   0  0  0  0  0  0  0  0  0  0  0  0
   57.0200   32.7360   45.4400 N   0  0  0  0  0  0  0  0  0  0  0  0
   57.8480   31.6750   45.2750 C   0  0  0  0  0  0  0  0  0  0  0  0
   57.3840   30.5760   44.7530 N   0  0  0  0  0  0  0  0  0  0  0  0
   57.5770   29.2560   45.2850 C   0  0  0  0  0  0  0  0  0  0  0  0
   58.7970   28.9370   45.8910 C   0  0  0  0  0  0  0  0  0  0  0  0
   59.5888   29.6973   45.9617 H   0  0  0  0  0  0  0  0  0  0  0  0
   59.0140   27.6560   46.4070 C   0  0  0  0  0  0  0  0  0  0  0  0
   59.9867   27.4048   46.8550 H   0  0  0  0  0  0  0  0  0  0  0  0
   57.9980   26.6880   46.3570 C   0  0  0  0  0  0  0  0  0  0  0  0
   58.2440   25.3220   46.8680 C   0  0  0  0  0  0  0  0  0  0  0  0
   58.1100   25.0910   48.1000 O   0  0  0  0  0  0  0  0  0  0  0  0
   58.7230   24.2740   46.0170 N   0  0  0  0  0  0  0  0  0  0  0  0
   57.9120   23.4230   45.1950 C   0  0  0  0  0  0  0  0  0  0  0  0
   58.4500   22.3050   44.5320 C   0  0  0  0  0  0  0  0  0  0  0  0
   59.5031   22.0286   44.6890 H   0  0  0  0  0  0  0  0  0  0  0  0
   57.6500   21.5440   43.6740 C   0  0  0  0  0  0  0  0  0  0  0  0
   58.0725   20.6649   43.1654 H   0  0  0  0  0  0  0  0  0  0  0  0
   56.3140   21.8980   43.4610 C   0  0  0  0  0  0  0  0  0  0  0  0
   55.6940   21.3078   42.7702 H   0  0  0  0  0  0  0  0  0  0  0  0
   55.7630   23.0010   44.1240 C   0  0  0  0  0  0  0  0  0  0  0  0
   54.4040   23.3680   43.8520 N   0  0  0  0  0  0  0  0  0  0  0  0
   53.3490   23.4120   44.8190 C   0  0  0  0  0  0  0  0  0  0  0  0
   52.7100   24.4790   45.0130 O   0  0  0  0  0  0  0  0  0  0  0  0
   52.9810   22.2370   45.5480 N   0  0  0  0  0  0  0  0  0  0  0  0
   53.8730   21.4050   46.3020 C   0  0  0  0  0  0  0  0  0  0  0  0
   53.9970   20.0290   46.0410 C   0  0  0  0  0  0  0  0  0  0  0  0
   53.4080   19.5674   45.2348 H   0  0  0  0  0  0  0  0  0  0  0  0
   54.8680   19.2470   46.8050 C   0  0  0  0  0  0  0  0  0  0  0  0
   54.9566   18.1691   46.6041 H   0  0  0  0  0  0  0  0  0  0  0  0
   55.6270   19.8310   47.8240 C   0  0  0  0  0  0  0  0  0  0  0  0
   56.3058   19.2083   48.4252 H   0  0  0  0  0  0  0  0  0  0  0  0
   55.5280   21.2090   48.0850 C   0  0  0  0  0  0  0  0  0  0  0  0
   56.3730   21.8210   49.1750 C   0  0  0  0  0  0  0  0  0  0  0  0
   55.6530   21.8360   50.3560 F   0  0  0  0  0  0  0  0  0  0  0  0
   57.5440   21.1090   49.3720 F   0  0  0  0  0  0  0  0  0  0  0  0
   56.7060   23.1200   48.8340 F   0  0  0  0  0  0  0  0  0  0  0  0
   54.6640   21.9930   47.2970 C   0  0  0  0  0  0  0  0  0  0  0  0
   54.6096   23.0788   47.4646 H   0  0  0  0  0  0  0  0  0  0  0  0
   56.5730   23.7700   44.9780 C   0  0  0  0  0  0  0  0  0  0  0  0
   56.1507   24.6527   45.4805 H   0  0  0  0  0  0  0  0  0  0  0  0
   56.7580   27.0240   45.7910 C   0  0  0  0  0  0  0  0  0  0  0  0
   55.9484   26.2797   45.7654 H   0  0  0  0  0  0  0  0  0  0  0  0
   56.5470   28.2990   45.2600 C   0  0  0  0  0  0  0  0  0  0  0  0
   55.5716   28.5551   44.8208 H   0  0  0  0  0  0  0  0  0  0  0  0
   59.1370   31.7580   45.7030 N   0  0  0  0  0  0  0  0  0  0  0  0
   59.6330   32.8850   46.2810 C   0  0  0  0  0  0  0  0  0  0  0  0
   61.0310   32.8590   46.7610 C   0  0  0  0  0  0  0  0  0  0  0  0
   61.9600   33.8250   46.3320 C   0  0  0  0  0  0  0  0  0  0  0  0
   61.6590   34.5836   45.5945 H   0  0  0  0  0  0  0  0  0  0  0  0
   63.2640   33.8260   46.8380 C   0  0  0  0  0  0  0  0  0  0  0  0
   63.9895   34.5745   46.4868 H   0  0  0  0  0  0  0  0  0  0  0  0
   63.6450   32.8770   47.7890 C   0  0  0  0  0  0  0  0  0  0  0  0
   64.6705   32.8786   48.1869 H   0  0  0  0  0  0  0  0  0  0  0  0
   62.7230   31.9240   48.2360 C   0  0  0  0  0  0  0  0  0  0  0  0
   63.0241   31.1779   48.9862 H   0  0  0  0  0  0  0  0  0  0  0  0
   61.4190   31.9190   47.7300 C   0  0  0  0  0  0  0  0  0  0  0  0
   60.6940   31.1755   48.0926 H   0  0  0  0  0  0  0  0  0  0  0  0
   58.7970   34.0190   46.4030 C   0  0  0  0  0  0  0  0  0  0  0  0
   59.2760   35.3310   46.9630 C   0  0  0  0  0  0  0  0  0  0  0  0
   59.2604   35.2881   48.0621 H   0  0  0  0  0  0  0  0  0  0  0  0
   60.3026   35.5239   46.6182 H   0  0  0  0  0  0  0  0  0  0  0  0
   58.6152   36.1400   46.6182 H   0  0  0  0  0  0  0  0  0  0  0  0
  1  2  1  0
  2  3  1  0
  3  4  1  0
  4  5  2  0
  5  6  1  0
  6  7  2  0
  7  8  1  0
  7  9  1  0
  9 10  1  0
  9 11  2  0
 11 12  1  0
 12 13  2  0
 12 14  1  0
 14 15  1  0
 15 16  2  0
 16 17  1  0
 16 18  1  0
 18 19  1  0
 18 20  2  0
 20 21  1  0
 20 22  1  0
 22 23  1  0
 23 24  1  0
 24 25  2  0
 24 26  1  0
 26 27  1  0
 27 28  2  0
 28 29  1  0
 28 30  1  0
 30 31  1  0
 30 32  2  0
 32 33  1  0
 32 34  1  0
 34 35  1  0
 35 36  1  0
 35 37  1  0
 35 38  1  0
 34 39  2  0
 39 40  1  0
 22 41  2  0
 41 42  1  0
 11 43  1  0
 43 44  1  0
 43 45  2  0
 45 46  1  0
  4 47  1  0
 47 48  2  0
 48 49  1  0
 49 50  2  0
 50 51  1  0
 50 52  1  0
 52 53  1  0
 52 54  2  0
 54 55  1  0
 54 56  1  0
 56 57  1  0
 56 58  2  0
 58 59  1  0
 48 60  1  0
 60 61  1  0
 61 62  1  0
 61 63  1  0
 61 64  1  0
 60  2  2  0
 45  6  1  0
 58 49  1  0
 41 15  1  0
 39 27  1  0
M  CHG  4   3  -1  14  -1  23  -1  26  -1
M  END
>  <UniqueID>  (5) 
5

>  <SMILES>  (5) 
Cc1c[n-]/c(=N/c2ccc(C(=O)[N-]c3cccc([N-]C(=O)[N-]c4cccc(C(F)(F)F)c4)c3)cc2)nc1-c1ccccc1

>  <Energy>  (5) 
99.96038790826829

>  <Genealogy>  (5) 
Cc1c[n-]c(=Nc2ccc(C(=O)[N-]c3cccc([N-]C(=O)[N-]c4cccc(C(F)(F)F)c4)c3)cc2)nc1-c1ccccc1 (protonated)
Cc1c[n-]/c(=N/c2ccc(C(=O)[N-]c3cccc([N-]C(=O)[N-]c4cccc(C(F)(F)F)c4)c3)cc2)nc1-c1ccccc1 (cis-trans isomerization)
Cc1c[n-]/c(=N/c2ccc(C(=O)[N-]c3cccc([N-]C(=O)[N-]c4cccc(C(F)(F)F)c4)c3)cc2)nc1-c1ccccc1 (3D coordinates assigned)
Cc1c[n-]/c(=N/c2ccc(C(=O)[N-]c3cccc([N-]C(=O)[N-]c4cccc(C(F)(F)F)c4)c3)cc2)nc1-c1ccccc1 (optimized conformer: 99.96038790826829 kcal/mol)

>  <smiles>  (5) 
Cc1c[nH]c(=Nc2ccc(C(=O)Nc3cccc(NC(=O)Nc4cccc(C(F)(F)F)c4)c3)cc2)nc1-c1ccccc1

>  <score_type>  (5) 
oracle

>  <origin>  (5) 
adg

>  <m_score__min__energy>  (5) 
-15.199999999999999

>  <m_primary>  (5) 
energy

$$$$
5:0
     RDKit          3D

 49 52  0  0  0  0  0  0  0  0999 V2000
   64.4422   34.6546   47.1039 H   0  0  0  0  0  0  0  0  0  0  0  0
   63.7520   33.9180   47.5410 C   0  0  0  0  0  0  0  0  0  0  0  0
   63.6740   33.7700   48.9290 C   0  0  0  0  0  0  0  0  0  0  0  0
   64.3007   34.3927   49.5843 H   0  0  0  0  0  0  0  0  0  0  0  0
   62.7990   32.8300   49.4850 C   0  0  0  0  0  0  0  0  0  0  0  0
   62.7237   32.7301   50.5779 H   0  0  0  0  0  0  0  0  0  0  0  0
   62.0160   32.0130   48.6510 C   0  0  0  0  0  0  0  0  0  0  0  0
   61.1090   31.0510   49.2120 N   0  0  0  0  0  0  0  0  0  0  0  0
   61.4810   29.8030   49.4580 N   0  0  0  0  0  0  0  0  0  0  0  0
   60.3790   29.1020   49.7960 C   0  0  0  0  0  0  0  0  0  0  0  0
   60.4040   27.6730   50.2180 C   0  0  0  0  0  0  0  0  0  0  0  0
   60.4050   27.6150   51.3165 H   0  0  0  0  0  0  0  0  0  0  0  0
   59.5147   27.1589   49.8245 H   0  0  0  0  0  0  0  0  0  0  0  0
   61.3107   27.1903   49.8245 H   0  0  0  0  0  0  0  0  0  0  0  0
   59.2640   29.9170   49.7710 C   0  0  0  0  0  0  0  0  0  0  0  0
   58.2194   29.6462   49.9841 H   0  0  0  0  0  0  0  0  0  0  0  0
   59.7690   31.1500   49.4160 C   0  0  0  0  0  0  0  0  0  0  0  0
   59.0440   32.2320   49.3550 N   0  0  0  0  0  0  0  0  0  0  0  0
   59.2870   33.3890   48.5470 C   0  0  0  0  0  0  0  0  0  0  0  0
   59.8290   34.4050   49.0640 O   0  0  0  0  0  0  0  0  0  0  0  0
   58.8480   33.4220   47.1340 C   0  0  0  0  0  0  0  0  0  0  0  0
   59.4330   34.3190   46.2240 C   0  0  0  0  0  0  0  0  0  0  0  0
   60.2328   34.9956   46.5594 H   0  0  0  0  0  0  0  0  0  0  0  0
   59.0030   34.3550   44.8950 C   0  0  0  0  0  0  0  0  0  0  0  0
   59.4663   35.0596   44.1886 H   0  0  0  0  0  0  0  0  0  0  0  0
   57.9870   33.5000   44.4590 C   0  0  0  0  0  0  0  0  0  0  0  0
   57.6636   33.5262   43.4079 H   0  0  0  0  0  0  0  0  0  0  0  0
   57.3790   32.6110   45.3520 C   0  0  0  0  0  0  0  0  0  0  0  0
   56.3200   31.7700   44.8720 N   0  0  0  0  0  0  0  0  0  0  0  0
   56.4880   30.0950   44.4540 S   0  0  0  0  0  0  0  0  0  0  0  0
   56.6460   29.9730   42.9640 O   0  0  0  0  0  0  0  0  0  0  0  0
   55.2470   29.3550   44.8690 O   0  0  0  0  0  0  0  0  0  0  0  0
   57.9170   29.4340   45.2390 C   0  0  0  0  0  0  0  0  0  0  0  0
   59.2030   29.8670   44.8810 C   0  0  0  0  0  0  0  0  0  0  0  0
   59.3269   30.6480   44.1164 H   0  0  0  0  0  0  0  0  0  0  0  0
   60.3280   29.3060   45.4960 C   0  0  0  0  0  0  0  0  0  0  0  0
   61.3354   29.6436   45.2111 H   0  0  0  0  0  0  0  0  0  0  0  0
   60.1730   28.3160   46.4730 C   0  0  0  0  0  0  0  0  0  0  0  0
   61.0584   27.8762   46.9553 H   0  0  0  0  0  0  0  0  0  0  0  0
   58.8940   27.8860   46.8360 C   0  0  0  0  0  0  0  0  0  0  0  0
   58.7726   27.1114   47.6075 H   0  0  0  0  0  0  0  0  0  0  0  0
   57.7690   28.4400   46.2190 C   0  0  0  0  0  0  0  0  0  0  0  0
   56.7635   28.0957   46.5025 H   0  0  0  0  0  0  0  0  0  0  0  0
   57.8160   32.5730   46.6900 C   0  0  0  0  0  0  0  0  0  0  0  0
   57.3461   31.8725   47.3961 H   0  0  0  0  0  0  0  0  0  0  0  0
   62.0820   32.1840   47.2620 C   0  0  0  0  0  0  0  0  0  0  0  0
   61.4471   31.5726   46.6039 H   0  0  0  0  0  0  0  0  0  0  0  0
   62.9520   33.1290   46.7090 C   0  0  0  0  0  0  0  0  0  0  0  0
   63.0070   33.2518   45.6173 H   0  0  0  0  0  0  0  0  0  0  0  0
  1  2  1  0
  2  3  2  0
  3  4  1  0
  3  5  1  0
  5  6  1  0
  5  7  2  0
  7  8  1  0
  8  9  1  0
  9 10  1  0
 10 11  1  0
 11 12  1  0
 11 13  1  0
 11 14  1  0
 10 15  2  0
 15 16  1  0
 15 17  1  0
 17 18  2  0
 18 19  1  0
 19 20  2  0
 19 21  1  0
 21 22  2  0
 22 23  1  0
 22 24  1  0
 24 25  1  0
 24 26  2  0
 26 27  1  0
 26 28  1  0
 28 29  1  0
 29 30  1  0
 30 31  2  0
 30 32  2  0
 30 33  1  0
 33 34  2  0
 34 35  1  0
 34 36  1  0
 36 37  1  0
 36 38  2  0
 38 39  1  0
 38 40  1  0
 40 41  1  0
 40 42  2  0
 42 43  1  0
 28 44  2  0
 44 45  1  0
  7 46  1  0
 46 47  1  0
 46 48  2  0
 48 49  1  0
 48  2  1  0
 17  8  1  0
 44 21  1  0
 42 33  1  0
M  CHG  2   9  -1  29  -1
M  END
>  <UniqueID>  (6) 
6

>  <SMILES>  (6) 
Cc1c/c(=N/C(=O)c2cccc([N-]S(=O)(=O)c3ccccc3)c2)n(-c2ccccc2)[n-]1

>  <Energy>  (6) 
102.06961813775436

>  <Genealogy>  (6) 
Cc1cc(=NC(=O)c2cccc([N-]S(=O)(=O)c3ccccc3)c2)n(-c2ccccc2)[n-]1 (protonated)
Cc1c/c(=N/C(=O)c2cccc([N-]S(=O)(=O)c3ccccc3)c2)n(-c2ccccc2)[n-]1 (cis-trans isomerization)
Cc1c/c(=N/C(=O)c2cccc([N-]S(=O)(=O)c3ccccc3)c2)n(-c2ccccc2)[n-]1 (3D coordinates assigned)
Cc1c/c(=N/C(=O)c2cccc([N-]S(=O)(=O)c3ccccc3)c2)n(-c2ccccc2)[n-]1 (optimized conformer: 102.06961813775436 kcal/mol)

>  <smiles>  (6) 
Cc1cc(=NC(=O)c2cccc(NS(=O)(=O)c3ccccc3)c2)n(-c2ccccc2)[nH]1

>  <score_type>  (6) 
oracle

>  <origin>  (6) 
adg

>  <m_score__min__energy>  (6) 
-12.390000000000001

>  <m_primary>  (6) 
energy

$$$$
6:0
     RDKit          3D

 30 32  0  0  0  0  0  0  0  0999 V2000
   60.6660   26.1660   46.4040 C   0  0  0  0  0  0  0  0  0  0  0  0
   59.8790   27.3380   45.9000 C   0  0  0  0  0  0  0  0  0  0  0  0
   60.5500   28.4820   45.4070 C   0  0  0  0  0  0  0  0  0  0  0  0
   59.8280   29.5730   44.8980 C   0  0  0  0  0  0  0  0  0  0  0  0
   58.4340   29.4950   44.8820 C   0  0  0  0  0  0  0  0  0  0  0  0
   57.7700   28.3680   45.3450 C   0  0  0  0  0  0  0  0  0  0  0  0
   58.4710   27.2750   45.8540 C   0  0  0  0  0  0  0  0  0  0  0  0
   56.4800   28.4340   45.2350 N   0  0  0  0  0  0  0  0  0  0  0  0
   56.2720   29.7150   44.6520 C   0  0  0  0  0  0  0  0  0  0  0  0
   55.1390   30.1780   44.3550 O   0  0  0  0  0  0  0  0  0  0  0  0
   57.5470   30.3840   44.4470 C   0  0  0  0  0  0  0  0  0  0  0  0
   57.7930   31.6960   43.7630 C   0  0  0  0  0  0  0  0  0  0  0  0
   58.1540   32.7440   44.7740 C   0  0  0  0  0  0  0  0  0  0  0  0
   57.7870   32.6020   46.1210 C   0  0  0  0  0  0  0  0  0  0  0  0
   58.1740   33.5790   47.0410 C   0  0  0  0  0  0  0  0  0  0  0  0
   58.9240   34.6760   46.6170 C   0  0  0  0  0  0  0  0  0  0  0  0
   59.2790   34.7810   45.2700 C   0  0  0  0  0  0  0  0  0  0  0  0
   58.8950   33.8210   44.3880 N   0  0  0  0  0  0  0  0  0  0  0  0
   60.6641   26.1688   47.5040 H   0  0  0  0  0  0  0  0  0  0  0  0
   60.2101   25.2339   46.0389 H   0  0  0  0  0  0  0  0  0  0  0  0
   61.7013   26.2353   46.0389 H   0  0  0  0  0  0  0  0  0  0  0  0
   61.6493   28.5169   45.4228 H   0  0  0  0  0  0  0  0  0  0  0  0
   60.3472   30.4666   44.5213 H   0  0  0  0  0  0  0  0  0  0  0  0
   57.9368   26.3826   46.2120 H   0  0  0  0  0  0  0  0  0  0  0  0
   58.6188   31.5830   43.0452 H   0  0  0  0  0  0  0  0  0  0  0  0
   56.8784   32.0043   43.2353 H   0  0  0  0  0  0  0  0  0  0  0  0
   57.2009   31.7307   46.4487 H   0  0  0  0  0  0  0  0  0  0  0  0
   57.8877   33.4835   48.0988 H   0  0  0  0  0  0  0  0  0  0  0  0
   59.2325   35.4498   47.3353 H   0  0  0  0  0  0  0  0  0  0  0  0
   59.8699   35.6415   44.9229 H   0  0  0  0  0  0  0  0  0  0  0  0
  1  2  1  0
  2  3  1  0
  3  4  2  0
  4  5  1  0
  5  6  1  0
  6  7  1  0
  6  8  2  0
  8  9  1  0
  9 10  2  0
  9 11  1  0
 11 12  1  0
 12 13  1  0
 13 14  2  0
 14 15  1  0
 15 16  2  0
 16 17  1  0
 17 18  2  0
  7  2  2  0
 18 13  1  0
 11  5  2  0
  1 19  1  0
  1 20  1  0
  1 21  1  0
  3 22  1  0
  4 23  1  0
  7 24  1  0
 12 25  1  0
 12 26  1  0
 14 27  1  0
 15 28  1  0
 16 29  1  0
 17 30  1  0
M  END
>  <UniqueID>  (7) 
7

>  <SMILES>  (7) 
Cc1ccc2c(c1)=NC(=O)C=2Cc1ccccn1

>  <Energy>  (7) 
62.587636431272465

>  <Genealogy>  (7) 
Cc1ccc2c(c1)=NC(=O)C=2Cc1ccccn1 (3D coordinates assigned)
Cc1ccc2c(c1)=NC(=O)C=2Cc1ccccn1 (nonaromatic ring conformer: 62.587636431272465 kcal/mol)

>  <smiles>  (7) 
Cc1ccc2c(c1)=NC(=O)C=2Cc1ccccn1

>  <score_type>  (7) 
oracle

>  <origin>  (7) 
adg

>  <m_score__min__energy>  (7) 
-7.46

>  <m_primary>  (7) 
energy

$$$$
7:0
     RDKit          3D

 45 48  0  0  1  0  0  0  0  0999 V2000
   57.3970   28.3540   43.4830 N   0  0  0  0  0  0  0  0  0  0  0  0
   56.4740   29.7520   43.8790 S   0  0  0  0  0  0  0  0  0  0  0  0
   55.9080   30.3450   42.6170 O   0  0  0  0  0  0  0  0  0  0  0  0
   55.3620   29.3180   44.8010 O   0  0  0  0  0  0  0  0  0  0  0  0
   57.4330   30.9400   44.7390 C   0  0  0  0  0  0  0  0  0  0  0  0
   58.2670   30.5870   45.7880 C   0  0  0  0  0  0  0  0  0  0  0  0
   59.0300   31.5240   46.4740 C   0  0  0  0  0  0  0  0  0  0  0  0
   58.9310   32.8400   46.0730 C   0  0  0  0  0  0  0  0  0  0  0  0
   59.6560   33.9000   46.6890 N   0  0  0  0  0  0  0  0  0  0  0  0
   60.2070   33.8370   47.8430 C   0  0  0  0  0  0  0  0  0  0  0  0
   59.4070   33.9230   48.9210 N   0  0  0  0  0  0  0  0  0  0  0  0
   59.9700   33.8600   50.1400 C   0  0  0  0  0  0  0  0  0  0  0  0
   59.2950   33.9330   51.2380 N   0  0  0  0  0  0  0  0  0  0  0  0
   58.4690   32.8280   51.5940 C   0  0  0  0  0  0  0  0  0  0  0  0
   57.3430   32.9510   52.3810 C   0  0  0  0  0  0  0  0  0  0  0  0
   56.6420   31.7900   52.6420 C   0  0  0  0  0  0  0  0  0  0  0  0
   57.0230   30.5560   52.1540 C   0  0  0  0  0  0  0  0  0  0  0  0
   58.1460   30.4360   51.3700 C   0  0  0  0  0  0  0  0  0  0  0  0
   58.8660   31.5840   51.0950 C   0  0  0  0  0  0  0  0  0  0  0  0
   61.3130   33.7120   50.2700 N   0  0  0  0  0  0  0  0  0  0  0  0
   62.1350   33.6240   49.2100 C   0  0  0  0  0  0  0  0  0  0  0  0
   63.4930   33.4750   49.4030 C   0  0  0  0  0  0  0  0  0  0  0  0
   64.3250   33.3870   48.2950 C   0  0  0  0  0  0  0  0  0  0  0  0
   63.7620   33.4500   47.0390 C   0  0  0  0  0  0  0  0  0  0  0  0
   62.3940   33.5990   46.8540 C   0  0  0  0  0  0  0  0  0  0  0  0
   61.5710   33.6880   47.9570 C   0  0  0  0  0  0  0  0  0  0  0  0
   58.0950   33.2170   45.0170 C   0  0  0  0  0  0  0  0  0  0  0  0
   57.3470   32.2800   44.3490 C   0  0  0  0  0  0  0  0  0  0  0  0
   56.8280   27.5620   43.1290 H   0  0  0  0  0  0  0  0  0  0  0  0
   58.2190   28.5870   42.9100 H   0  0  0  0  0  0  0  0  0  0  0  0
   58.3269   29.5302   46.0874 H   0  0  0  0  0  0  0  0  0  0  0  0
   59.6875   31.2277   47.3046 H   0  0  0  0  0  0  0  0  0  0  0  0
   58.3730   34.0370   48.8450 H   0  0  0  0  0  0  0  0  0  0  0  0
   57.0199   33.9237   52.7802 H   0  0  0  0  0  0  0  0  0  0  0  0
   55.7390   31.8513   53.2672 H   0  0  0  0  0  0  0  0  0  0  0  0
   56.4251   29.6644   52.3937 H   0  0  0  0  0  0  0  0  0  0  0  0
   58.4613   29.4591   50.9746 H   0  0  0  0  0  0  0  0  0  0  0  0
   59.7694   31.5170   50.4710 H   0  0  0  0  0  0  0  0  0  0  0  0
   61.7620   33.6620   51.2250 H   0  0  0  0  0  0  0  0  0  0  0  0
   63.9103   33.4266   50.4196 H   0  0  0  0  0  0  0  0  0  0  0  0
   65.4118   33.2693   48.4174 H   0  0  0  0  0  0  0  0  0  0  0  0
   64.4155   33.3802   46.1569 H   0  0  0  0  0  0  0  0  0  0  0  0
   61.9716   33.6455   45.8394 H   0  0  0  0  0  0  0  0  0  0  0  0
   58.0365   34.2743   44.7191 H   0  0  0  0  0  0  0  0  0  0  0  0
   56.6896   32.5787   43.5192 H   0  0  0  0  0  0  0  0  0  0  0  0
  1  2  1  0
  2  3  2  0
  2  4  2  0
  2  5  1  0
  5  6  2  0
  6  7  1  0
  7  8  2  0
  8  9  1  0
  9 10  2  0
 10 11  1  0
 11 12  1  0
 12 13  2  0
 13 14  1  0
 14 15  2  0
 15 16  1  0
 16 17  2  0
 17 18  1  0
 18 19  2  0
 12 20  1  0
 20 21  1  0
 21 22  2  0
 22 23  1  0
 23 24  2  0
 24 25  1  0
 25 26  2  0
  8 27  1  0
 27 28  2  0
 28  5  1  0
 26 10  1  0
 19 14  1  0
 26 21  1  0
  1 29  1  0
  1 30  1  0
  6 31  1  0
  7 32  1  0
 11 33  1  0
 15 34  1  0
 16 35  1  0
 17 36  1  0
 18 37  1  0
 19 38  1  0
 20 39  1  0
 22 40  1  0
 23 41  1  0
 24 42  1  0
 25 43  1  0
 27 44  1  0
 28 45  1  0
M  END
>  <smiles>  (8) 
NS(=O)(=O)c1ccc(N=c2[nH]c(=Nc3ccccc3)[nH]c3ccccc23)cc1

>  <score_type>  (8) 
oracle

>  <origin>  (8) 
adg

>  <m_score__min__energy>  (8) 
-9.75

>  <m_primary>  (8) 
energy

$$$$
8:0
     RDKit          3D

 72 75  0  0  0  0  0  0  0  0999 V2000
   68.5530   33.5770   51.5790 C   0  0  0  0  0  0  0  0  0  0  0  0
   67.9650   32.7320   50.5950 O   0  0  0  0  0  0  0  0  0  0  0  0
   66.6260   32.3140   50.6010 C   0  0  0  0  0  0  0  0  0  0  0  0
   66.2060   31.1690   51.3030 C   0  0  0  0  0  0  0  0  0  0  0  0
   64.8630   30.7990   51.2730 C   0  0  0  0  0  0  0  0  0  0  0  0
   63.9470   31.5660   50.5570 C   0  0  0  0  0  0  0  0  0  0  0  0
   64.3840   32.7100   49.8700 C   0  0  0  0  0  0  0  0  0  0  0  0
   63.4490   33.5110   49.1170 N   0  0  0  0  0  0  0  0  0  0  0  0
   62.2350   34.0370   49.7610 C   0  0  0  0  0  0  0  0  0  0  0  0
   61.1350   34.3240   48.7250 C   0  0  0  0  0  0  0  0  0  0  0  0
   61.1210   33.2690   47.5800 C   0  0  0  0  0  0  0  0  0  0  0  0
   60.8240   31.8380   48.1180 C   0  0  0  0  0  0  0  0  0  0  0  0
   59.4360   31.7150   48.7580 C   0  0  0  0  0  0  0  0  0  0  0  0
   58.3000   32.2920   47.8850 C   0  0  0  0  0  0  0  0  0  0  0  0
   58.7740   32.8850   46.6270 N   0  0  0  0  0  0  0  0  0  0  0  0
   57.8490   33.0000   45.5330 C   0  0  0  0  0  0  0  0  0  0  0  0
   56.6110   32.8830   45.7540 O   0  0  0  0  0  0  0  0  0  0  0  0
   58.3240   33.0670   44.1070 C   0  0  0  0  0  0  0  0  0  0  0  0
   57.8680   31.9170   43.3130 N   0  0  0  0  0  0  0  0  0  0  0  0
   57.7490   32.0820   41.8570 C   0  0  0  0  0  0  0  0  0  0  0  0
   57.6410   30.6210   43.9300 C   0  0  0  0  0  0  0  0  0  0  0  0
   56.3410   30.1970   44.2650 C   0  0  0  0  0  0  0  0  0  0  0  0
   56.1260   28.9600   44.8780 C   0  0  0  0  0  0  0  0  0  0  0  0
   57.2010   28.0950   45.1800 C   0  0  0  0  0  0  0  0  0  0  0  0
   56.9540   26.7680   45.9260 C   0  0  0  0  0  0  0  0  0  0  0  0
   55.6060   26.7130   46.3510 O   0  0  0  0  0  0  0  0  0  0  0  0
   57.1440   25.5290   44.9960 C   0  0  0  0  0  0  0  0  0  0  0  0
   58.0620   24.6540   45.5550 F   0  0  0  0  0  0  0  0  0  0  0  0
   57.6100   25.8750   43.7380 F   0  0  0  0  0  0  0  0  0  0  0  0
   55.9420   24.8550   44.8540 F   0  0  0  0  0  0  0  0  0  0  0  0
   57.9120   26.6860   47.1540 C   0  0  0  0  0  0  0  0  0  0  0  0
   57.8560   27.8580   47.8900 F   0  0  0  0  0  0  0  0  0  0  0  0
   57.5470   25.6370   47.9800 F   0  0  0  0  0  0  0  0  0  0  0  0
   59.2240   26.5020   46.7510 F   0  0  0  0  0  0  0  0  0  0  0  0
   58.5030   28.5390   44.8670 C   0  0  0  0  0  0  0  0  0  0  0  0
   58.7150   29.7660   44.2350 C   0  0  0  0  0  0  0  0  0  0  0  0
   60.0060   33.6320   46.6190 C   0  0  0  0  0  0  0  0  0  0  0  0
   60.1260   34.6420   45.8740 O   0  0  0  0  0  0  0  0  0  0  0  0
   62.5080   33.2600   46.8400 C   0  0  0  0  0  0  0  0  0  0  0  0
   63.6710   33.8010   47.6950 C   0  0  0  0  0  0  0  0  0  0  0  0
   65.7110   33.0420   49.9020 N   0  0  0  0  0  0  0  0  0  0  0  0
   68.2951   33.2064   52.5820 H   0  0  0  0  0  0  0  0  0  0  0  0
   69.6463   33.5757   51.4575 H   0  0  0  0  0  0  0  0  0  0  0  0
   68.1718   34.6017   51.4575 H   0  0  0  0  0  0  0  0  0  0  0  0
   66.9329   30.5702   51.8715 H   0  0  0  0  0  0  0  0  0  0  0  0
   64.5266   29.9023   51.8141 H   0  0  0  0  0  0  0  0  0  0  0  0
   62.8860   31.2769   50.5298 H   0  0  0  0  0  0  0  0  0  0  0  0
   61.8626   33.2961   50.4837 H   0  0  0  0  0  0  0  0  0  0  0  0
   62.4902   34.9793   50.2679 H   0  0  0  0  0  0  0  0  0  0  0  0
   60.1585   34.3113   49.2313 H   0  0  0  0  0  0  0  0  0  0  0  0
   61.3389   35.3079   48.2773 H   0  0  0  0  0  0  0  0  0  0  0  0
   60.8879   31.1282   47.2801 H   0  0  0  0  0  0  0  0  0  0  0  0
   61.5671   31.6191   48.8989 H   0  0  0  0  0  0  0  0  0  0  0  0
   59.2293   30.6498   48.9384 H   0  0  0  0  0  0  0  0  0  0  0  0
   59.4568   32.3003   49.6891 H   0  0  0  0  0  0  0  0  0  0  0  0
   57.5981   31.4798   47.6448 H   0  0  0  0  0  0  0  0  0  0  0  0
   57.8229   33.0967   48.4636 H   0  0  0  0  0  0  0  0  0  0  0  0
   57.9377   33.9892   43.6483 H   0  0  0  0  0  0  0  0  0  0  0  0
   59.4239   33.0541   44.1175 H   0  0  0  0  0  0  0  0  0  0  0  0
   57.1185   32.9562   41.6374 H   0  0  0  0  0  0  0  0  0  0  0  0
   58.7482   32.2320   41.4221 H   0  0  0  0  0  0  0  0  0  0  0  0
   57.2913   31.1813   41.4221 H   0  0  0  0  0  0  0  0  0  0  0  0
   55.4832   30.8482   44.0412 H   0  0  0  0  0  0  0  0  0  0  0  0
   55.1000   28.6539   45.1302 H   0  0  0  0  0  0  0  0  0  0  0  0
   55.5150   26.0780   47.1090 H   0  0  0  0  0  0  0  0  0  0  0  0
   59.3660   27.9078   45.1253 H   0  0  0  0  0  0  0  0  0  0  0  0
   59.7391   30.0688   43.9713 H   0  0  0  0  0  0  0  0  0  0  0  0
   62.7412   32.2242   46.5523 H   0  0  0  0  0  0  0  0  0  0  0  0
   62.4121   33.9262   45.9700 H   0  0  0  0  0  0  0  0  0  0  0  0
   64.6086   33.3252   47.3716 H   0  0  0  0  0  0  0  0  0  0  0  0
   63.7303   34.8913   47.5617 H   0  0  0  0  0  0  0  0  0  0  0  0
   66.0510   33.8670   49.3580 H   0  0  0  0  0  0  0  0  0  0  0  0
  1  2  1  0
  2  3  1  0
  3  4  2  0
  4  5  1  0
  5  6  2  0
  6  7  1  0
  7  8  1  0
  8  9  1  0
  9 10  1  0
 10 11  1  0
 11 12  1  0
 12 13  1  0
 13 14  1  0
 14 15  1  0
 15 16  1  0
 16 17  2  0
 16 18  1  0
 18 19  1  0
 19 20  1  0
 19 21  1  0
 21 22  2  0
 22 23  1  0
 23 24  2  0
 24 25  1  0
 25 26  1  0
 25 27  1  0
 27 28  1  0
 27 29  1  0
 27 30  1  0
 25 31  1  0
 31 32  1  0
 31 33  1  0
 31 34  1  0
 24 35  1  0
 35 36  2  0
 15 37  1  0
 37 38  2  0
 11 39  1  0
 39 40  1  0
  7 41  2  0
 41  3  1  0
 40  8  1  0
 37 11  1  0
 36 21  1  0
  1 42  1  0
  1 43  1  0
  1 44  1  0
  4 45  1  0
  5 46  1  0
  6 47  1  0
  9 48  1  0
  9 49  1  0
 10 50  1  0
 10 51  1  0
 12 52  1  0
 12 53  1  0
 13 54  1  0
 13 55  1  0
 14 56  1  0
 14 57  1  0
 18 58  1  0
 18 59  1  0
 20 60  1  0
 20 61  1  0
 20 62  1  0
 22 63  1  0
 23 64  1  0
 26 65  1  0
 35 66  1  0
 36 67  1  0
 39 68  1  0
 39 69  1  0
 40 70  1  0
 40 71  1  0
 41 72  1  0
M  CHG  1  41   1
M  END
>  <UniqueID>  (9) 
8

>  <SMILES>  (9) 
COc1cccc(N2CCC3(CCCN(C(=O)CN(C)c4ccc(C(O)(C(F)(F)F)C(F)(F)F)cc4)C3=O)CC2)[nH+]1

>  <Energy>  (9) 
101.07369698395387

>  <Genealogy>  (9) 
COc1cccc(N2CCC3(CCCN(C(=O)CN(C)c4ccc(C(O)(C(F)(F)F)C(F)(F)F)cc4)C3=O)CC2)[nH+]1 (protonated)
COc1cccc(N2CCC3(CCCN(C(=O)CN(C)c4ccc(C(O)(C(F)(F)F)C(F)(F)F)cc4)C3=O)CC2)[nH+]1 (3D coordinates assigned)
COc1cccc(N2CCC3(CCCN(C(=O)CN(C)c4ccc(C(O)(C(F)(F)F)C(F)(F)F)cc4)C3=O)CC2)[nH+]1 (nonaromatic ring conformer: 101.07369698395387 kcal/mol)

>  <smiles>  (9) 
COc1cccc(N2CCC3(CCCN(C(=O)CN(C)c4ccc(C(O)(C(F)(F)F)C(F)(F)F)cc4)C3=O)CC2)n1

>  <score_type>  (9) 
oracle

>  <origin>  (9) 
adg

>  <m_score__min__energy>  (9) 
-8.5999999999999996

>  <m_primary>  (9) 
energy

$$$$
9:0
     RDKit          3D

 42 44  0  0  1  0  0  0  0  0999 V2000
   61.0080   33.5690   50.9570 C   0  0  0  0  0  0  0  0  0  0  0  0
   60.9700   33.7440   49.4860 C   0  0  0  0  0  0  0  0  0  0  0  0
   59.8080   33.9710   48.8040 C   0  0  0  0  0  0  0  0  0  0  0  0
   59.7490   34.1370   47.4450 C   0  0  0  0  0  0  0  0  0  0  0  0
   58.6400   34.3480   46.8490 N   0  0  0  0  0  0  0  0  0  0  0  0
   58.3290   34.0560   45.2010 S   0  0  0  0  0  0  0  0  0  0  0  0
   59.3850   34.5690   44.2650 O   0  0  0  0  0  0  0  0  0  0  0  0
   57.0660   34.8450   44.8690 O   0  0  0  0  0  0  0  0  0  0  0  0
   57.9810   32.3700   44.9120 C   0  0  0  0  0  0  0  0  0  0  0  0
   57.5300   31.8680   43.7170 C   0  0  0  0  0  0  0  0  0  0  0  0
   57.2870   30.5170   43.5760 C   0  0  0  0  0  0  0  0  0  0  0  0
   57.4810   29.6230   44.6080 C   0  0  0  0  0  0  0  0  0  0  0  0
   57.2280   28.2270   44.4590 N   0  0  0  0  0  0  0  0  0  0  0  0
   58.2830   27.3330   44.7780 C   0  0  0  0  0  0  0  0  0  0  0  0
   59.3990   27.7320   45.1770 O   0  0  0  0  0  0  0  0  0  0  0  0
   58.0400   25.9200   44.6330 C   0  0  0  0  0  0  0  0  0  0  0  0
   57.3880   25.1810   43.6960 C   0  0  0  0  0  0  0  0  0  0  0  0
   57.3300   23.8590   43.8350 C   0  0  0  0  0  0  0  0  0  0  0  0
   57.9360   23.3060   44.9290 C   0  0  0  0  0  0  0  0  0  0  0  0
   58.6450   24.7060   45.8430 S   0  0  0  0  0  0  0  0  0  0  0  0
   57.9370   30.1210   45.8230 C   0  0  0  0  0  0  0  0  0  0  0  0
   58.1760   31.4740   45.9440 C   0  0  0  0  0  0  0  0  0  0  0  0
   60.9140   34.0680   46.7680 N   0  0  0  0  0  0  0  0  0  0  0  0
   62.0880   33.8420   47.4280 C   0  0  0  0  0  0  0  0  0  0  0  0
   63.3420   33.7770   46.6230 C   0  0  0  0  0  0  0  0  0  0  0  0
   62.1080   33.6820   48.7780 N   0  0  0  0  0  0  0  0  0  0  0  0
   60.7990   34.5317   51.4463 H   0  0  0  0  0  0  0  0  0  0  0  0
   60.2489   32.8321   51.2583 H   0  0  0  0  0  0  0  0  0  0  0  0
   62.0043   33.2133   51.2583 H   0  0  0  0  0  0  0  0  0  0  0  0
   58.8700   34.0233   49.3762 H   0  0  0  0  0  0  0  0  0  0  0  0
   57.3614   32.5460   42.8673 H   0  0  0  0  0  0  0  0  0  0  0  0
   56.9263   30.1403   42.6075 H   0  0  0  0  0  0  0  0  0  0  0  0
   56.3020   27.8570   44.1280 H   0  0  0  0  0  0  0  0  0  0  0  0
   56.9138   25.6707   42.8327 H   0  0  0  0  0  0  0  0  0  0  0  0
   56.8119   23.2318   43.0946 H   0  0  0  0  0  0  0  0  0  0  0  0
   57.9838   22.2405   45.1980 H   0  0  0  0  0  0  0  0  0  0  0  0
   58.1047   29.4461   46.6753 H   0  0  0  0  0  0  0  0  0  0  0  0
   58.5393   31.8574   46.9089 H   0  0  0  0  0  0  0  0  0  0  0  0
   60.9480   34.1860   45.7230 H   0  0  0  0  0  0  0  0  0  0  0  0
   64.2092   33.7320   47.2982 H   0  0  0  0  0  0  0  0  0  0  0  0
   63.3243   32.8786   45.9886 H   0  0  0  0  0  0  0  0  0  0  0  0
   63.4173   34.6724   45.9886 H   0  0  0  0  0  0  0  0  0  0  0  0
  1  2  1  0
  2  3  2  0
  3  4  1  0
  4  5  2  0
  5  6  1  0
  6  7  2  0
  6  8  2  0
  6  9  1  0
  9 10  2  0
 10 11  1  0
 11 12  2  0
 12 13  1  0
 13 14  1  0
 14 15  2  0
 14 16  1  0
 16 17  2  0
 17 18  1  0
 18 19  2  0
 19 20  1  0
 12 21  1  0
 21 22  2  0
  4 23  1  0
 23 24  1  0
 24 25  1  0
 24 26  2  0
 26  2  1  0
 22  9  1  0
 20 16  1  0
  1 27  1  0
  1 28  1  0
  1 29  1  0
  3 30  1  0
 10 31  1  0
 11 32  1  0
 13 33  1  0
 17 34  1  0
 18 35  1  0
 19 36  1  0
 21 37  1  0
 22 38  1  0
 23 39  1  0
 25 40  1  0
 25 41  1  0
 25 42  1  0
M  END
>  <smiles>  (10) 
Cc1cc(=NS(=O)(=O)c2ccc(NC(=O)c3cccs3)cc2)[nH]c(C)n1

>  <score_type>  (10) 
oracle

>  <origin>  (10) 
adg

>  <m_score__min__energy>  (10) 
-8.3699999999999992

>  <m_primary>  (10) 
energy

$$$$
10:0
     RDKit          3D

 39 41  0  0  0  0  0  0  0  0999 V2000
   57.4020   26.9450   47.1290 O   0  0  0  0  0  0  0  0  0  0  0  0
   56.7260   26.9820   45.7870 S   0  0  0  0  0  0  0  0  0  0  0  0
   57.3130   25.9040   44.9200 O   0  0  0  0  0  0  0  0  0  0  0  0
   55.0800   26.7110   45.9810 O   0  0  0  0  0  0  0  0  0  0  0  0
   56.9750   28.5560   45.0370 C   0  0  0  0  0  0  0  0  0  0  0  0
   55.8800   29.3030   44.5810 C   0  0  0  0  0  0  0  0  0  0  0  0
   56.0790   30.5600   44.0020 C   0  0  0  0  0  0  0  0  0  0  0  0
   57.3680   31.0950   43.8960 C   0  0  0  0  0  0  0  0  0  0  0  0
   57.5450   32.3790   43.2790 N   0  0  0  0  0  0  0  0  0  0  0  0
   57.6040   33.5020   43.8910 N   0  0  0  0  0  0  0  0  0  0  0  0
   58.3220   33.7520   45.1110 C   0  0  0  0  0  0  0  0  0  0  0  0
   57.9590   33.1250   46.3140 C   0  0  0  0  0  0  0  0  0  0  0  0
   58.6660   33.3930   47.4890 C   0  0  0  0  0  0  0  0  0  0  0  0
   59.7400   34.3010   47.4790 C   0  0  0  0  0  0  0  0  0  0  0  0
   60.4750   34.5980   48.6790 N   0  0  0  0  0  0  0  0  0  0  0  0
   61.8020   34.1180   48.9550 C   0  0  0  0  0  0  0  0  0  0  0  0
   62.3460   34.1750   50.2530 C   0  0  0  0  0  0  0  0  0  0  0  0
   63.6290   33.6770   50.5010 C   0  0  0  0  0  0  0  0  0  0  0  0
   64.3720   33.1070   49.4640 C   0  0  0  0  0  0  0  0  0  0  0  0
   63.8300   33.0250   48.1790 C   0  0  0  0  0  0  0  0  0  0  0  0
   62.5470   33.5210   47.9270 C   0  0  0  0  0  0  0  0  0  0  0  0
   60.0530   34.9750   46.2910 C   0  0  0  0  0  0  0  0  0  0  0  0
   59.3460   34.7060   45.1150 C   0  0  0  0  0  0  0  0  0  0  0  0
   58.4680   30.3320   44.3260 C   0  0  0  0  0  0  0  0  0  0  0  0
   58.2700   29.0760   44.9070 C   0  0  0  0  0  0  0  0  0  0  0  0
   54.8615   28.8992   44.6790 H   0  0  0  0  0  0  0  0  0  0  0  0
   55.2172   31.1320   43.6275 H   0  0  0  0  0  0  0  0  0  0  0  0
   57.1147   32.4201   46.3313 H   0  0  0  0  0  0  0  0  0  0  0  0
   58.3814   32.8917   48.4258 H   0  0  0  0  0  0  0  0  0  0  0  0
   60.0180   35.2110   49.3910 H   0  0  0  0  0  0  0  0  0  0  0  0
   61.7597   34.6127   51.0744 H   0  0  0  0  0  0  0  0  0  0  0  0
   64.0539   33.7341   51.5140 H   0  0  0  0  0  0  0  0  0  0  0  0
   65.3840   32.7227   49.6595 H   0  0  0  0  0  0  0  0  0  0  0  0
   64.4130   32.5699   47.3647 H   0  0  0  0  0  0  0  0  0  0  0  0
   62.1193   33.4426   46.9166 H   0  0  0  0  0  0  0  0  0  0  0  0
   60.8610   35.7214   46.2835 H   0  0  0  0  0  0  0  0  0  0  0  0
   59.5955   35.2461   44.1898 H   0  0  0  0  0  0  0  0  0  0  0  0
   59.4883   30.7249   44.2048 H   0  0  0  0  0  0  0  0  0  0  0  0
   59.1330   28.4942   45.2631 H   0  0  0  0  0  0  0  0  0  0  0  0
  1  2  2  0
  2  3  2  0
  2  4  1  0
  2  5  1  0
  5  6  2  0
  6  7  1  0
  7  8  2  0
  8  9  1  0
  9 10  2  3
 10 11  1  0
 11 12  2  0
 12 13  1  0
 13 14  2  0
 14 15  1  0
 15 16  1  0
 16 17  2  0
 17 18  1  0
 18 19  2  0
 19 20  1  0
 20 21  2  0
 14 22  1  0
 22 23  2  0
  8 24  1  0
 24 25  2  0
 25  5  1  0
 23 11  1  0
 21 16  1  0
  6 26  1  0
  7 27  1  0
 12 28  1  0
 13 29  1  0
 15 30  1  0
 17 31  1  0
 18 32  1  0
 19 33  1  0
 20 34  1  0
 21 35  1  0
 22 36  1  0
 23 37  1  0
 24 38  1  0
 25 39  1  0
M  CHG  1   4  -1
M  END
>  <UniqueID>  (11) 
9

>  <SMILES>  (11) 
O=S(=O)([O-])c1ccc(N=Nc2ccc(Nc3ccccc3)cc2)cc1

>  <Energy>  (11) 
60.789223498108925

>  <Genealogy>  (11) 
O=S(=O)([O-])c1ccc(N=Nc2ccc(Nc3ccccc3)cc2)cc1 (3D coordinates assigned)
O=S(=O)([O-])c1ccc(N=Nc2ccc(Nc3ccccc3)cc2)cc1 (optimized conformer: 60.789223498108925 kcal/mol)

>  <smiles>  (11) 
O=S(=O)([O-])c1ccc(N=Nc2ccc(Nc3ccccc3)cc2)cc1

>  <score_type>  (11) 
oracle

>  <origin>  (11) 
adg

>  <m_score__min__energy>  (11) 
-12.199999999999999

>  <m_primary>  (11) 
energy

$$$$
11:0
     RDKit          3D

 61 64  0  0  0  0  0  0  0  0999 V2000
   63.4820   33.2550   47.7910 C   0  0  0  0  0  0  0  0  0  0  0  0
   62.7930   33.4270   49.0270 O   0  0  0  0  0  0  0  0  0  0  0  0
   62.4610   32.3890   49.9140 C   0  0  0  0  0  0  0  0  0  0  0  0
   63.2430   31.2180   49.9850 C   0  0  0  0  0  0  0  0  0  0  0  0
   62.9150   30.1920   50.8740 C   0  0  0  0  0  0  0  0  0  0  0  0
   61.7890   30.3050   51.6970 C   0  0  0  0  0  0  0  0  0  0  0  0
   61.4750   29.2290   52.7040 C   0  0  0  0  0  0  0  0  0  0  0  0
   60.4500   28.2420   52.1340 C   0  0  0  0  0  0  0  0  0  0  0  0
   59.9000   28.7310   50.8730 N   0  0  0  0  0  0  0  0  0  0  0  0
   60.2700   28.1320   49.6200 C   0  0  0  0  0  0  0  0  0  0  0  0
   60.9290   27.0570   49.6230 O   0  0  0  0  0  0  0  0  0  0  0  0
   59.8860   28.7440   48.3200 C   0  0  0  0  0  0  0  0  0  0  0  0
   60.8030   29.5640   47.6390 C   0  0  0  0  0  0  0  0  0  0  0  0
   60.4580   30.1730   46.4290 C   0  0  0  0  0  0  0  0  0  0  0  0
   59.1890   29.9750   45.8840 C   0  0  0  0  0  0  0  0  0  0  0  0
   58.8350   30.5700   44.7150 N   0  0  0  0  0  0  0  0  0  0  0  0
   57.5980   30.4000   44.1720 C   0  0  0  0  0  0  0  0  0  0  0  0
   57.2650   31.1030   42.8840 C   0  0  0  0  0  0  0  0  0  0  0  0
   58.1410   32.7030   42.7900 S   0  0  0  0  0  0  0  0  0  0  0  0
   57.3430   33.4740   44.2470 C   0  0  0  0  0  0  0  0  0  0  0  0
   58.3060   33.5110   45.4030 C   0  0  0  0  0  0  0  0  0  0  0  0
   59.5570   34.1340   45.2530 C   0  0  0  0  0  0  0  0  0  0  0  0
   60.4470   34.1960   46.3310 C   0  0  0  0  0  0  0  0  0  0  0  0
   60.0940   33.6360   47.5650 C   0  0  0  0  0  0  0  0  0  0  0  0
   58.8500   33.0120   47.7220 C   0  0  0  0  0  0  0  0  0  0  0  0
   58.5180   32.4440   48.9070 F   0  0  0  0  0  0  0  0  0  0  0  0
   57.9570   32.9490   46.6480 C   0  0  0  0  0  0  0  0  0  0  0  0
   56.6720   29.5800   44.8400 C   0  0  0  0  0  0  0  0  0  0  0  0
   55.5190   29.3910   44.3730 O   0  0  0  0  0  0  0  0  0  0  0  0
   57.0260   28.9860   46.0100 N   0  0  0  0  0  0  0  0  0  0  0  0
   58.2590   29.1630   46.5520 C   0  0  0  0  0  0  0  0  0  0  0  0
   58.6040   28.5540   47.7640 C   0  0  0  0  0  0  0  0  0  0  0  0
   61.0030   31.4640   51.6320 C   0  0  0  0  0  0  0  0  0  0  0  0
   61.3240   32.5100   50.7580 C   0  0  0  0  0  0  0  0  0  0  0  0
   60.4760   33.6320   50.7820 O   0  0  0  0  0  0  0  0  0  0  0  0
   59.2640   33.7600   51.5170 C   0  0  0  0  0  0  0  0  0  0  0  0
   64.5317   32.9930   47.9897 H   0  0  0  0  0  0  0  0  0  0  0  0
   63.0055   32.4483   47.2147 H   0  0  0  0  0  0  0  0  0  0  0  0
   63.4405   34.1911   47.2147 H   0  0  0  0  0  0  0  0  0  0  0  0
   64.1220   31.1112   49.3324 H   0  0  0  0  0  0  0  0  0  0  0  0
   63.5444   29.2914   50.9274 H   0  0  0  0  0  0  0  0  0  0  0  0
   62.3989   28.6870   52.9544 H   0  0  0  0  0  0  0  0  0  0  0  0
   61.0538   29.6978   53.6056 H   0  0  0  0  0  0  0  0  0  0  0  0
   60.9410   27.2730   51.9609 H   0  0  0  0  0  0  0  0  0  0  0  0
   59.6280   28.1330   52.8568 H   0  0  0  0  0  0  0  0  0  0  0  0
   59.2050   29.5070   50.8900 H   0  0  0  0  0  0  0  0  0  0  0  0
   61.8043   29.7283   48.0637 H   0  0  0  0  0  0  0  0  0  0  0  0
   61.1876   30.8088   45.9061 H   0  0  0  0  0  0  0  0  0  0  0  0
   57.5705   30.4717   42.0366 H   0  0  0  0  0  0  0  0  0  0  0  0
   56.1810   31.2859   42.8462 H   0  0  0  0  0  0  0  0  0  0  0  0
   57.0377   34.5002   43.9944 H   0  0  0  0  0  0  0  0  0  0  0  0
   56.4611   32.8811   44.5311 H   0  0  0  0  0  0  0  0  0  0  0  0
   59.8374   34.5744   44.2848 H   0  0  0  0  0  0  0  0  0  0  0  0
   61.4247   34.6850   46.2090 H   0  0  0  0  0  0  0  0  0  0  0  0
   60.7944   33.6862   48.4117 H   0  0  0  0  0  0  0  0  0  0  0  0
   56.9799   32.4598   46.7747 H   0  0  0  0  0  0  0  0  0  0  0  0
   57.8701   27.9228   48.2865 H   0  0  0  0  0  0  0  0  0  0  0  0
   60.1181   31.5534   52.2793 H   0  0  0  0  0  0  0  0  0  0  0  0
   59.4844   33.7367   52.5944 H   0  0  0  0  0  0  0  0  0  0  0  0
   58.7798   34.7143   51.2623 H   0  0  0  0  0  0  0  0  0  0  0  0
   58.5911   32.9279   51.2623 H   0  0  0  0  0  0  0  0  0  0  0  0
  1  2  1  0
  2  3  1  0
  3  4  2  0
  4  5  1  0
  5  6  2  0
  6  7  1  0
  7  8  1  0
  8  9  1  0
  9 10  1  0
 10 11  2  0
 10 12  1  0
 12 13  2  0
 13 14  1  0
 14 15  2  0
 15 16  1  0
 16 17  2  0
 17 18  1  0
 18 19  1  0
 19 20  1  0
 20 21  1  0
 21 22  2  0
 22 23  1  0
 23 24  2  0
 24 25  1  0
 25 26  1  0
 25 27  2  0
 17 28  1  0
 28 29  2  0
 28 30  1  0
 30 31  1  0
 31 32  2  0
  6 33  1  0
 33 34  2  0
 34 35  1  0
 35 36  1  0
 34  3  1  0
 32 12  1  0
 31 15  1  0
 27 21  1  0
  1 37  1  0
  1 38  1  0
  1 39  1  0
  4 40  1  0
  5 41  1  0
  7 42  1  0
  7 43  1  0
  8 44  1  0
  8 45  1  0
  9 46  1  0
 13 47  1  0
 14 48  1  0
 18 49  1  0
 18 50  1  0
 20 51  1  0
 20 52  1  0
 22 53  1  0
 23 54  1  0
 24 55  1  0
 27 56  1  0
 32 57  1  0
 33 58  1  0
 36 59  1  0
 36 60  1  0
 36 61  1  0
M  CHG  1  30  -1
M  END
>  <UniqueID>  (12) 
10

>  <SMILES>  (12) 
COc1ccc(CCNC(=O)c2ccc3nc(CSCc4cccc(F)c4)c(=O)[n-]c3c2)cc1OC

>  <Energy>  (12) 
66.1084784866496

>  <Genealogy>  (12) 
COc1ccc(CCNC(=O)c2ccc3nc(CSCc4cccc(F)c4)c(=O)[n-]c3c2)cc1OC (protonated)
COc1ccc(CCNC(=O)c2ccc3nc(CSCc4cccc(F)c4)c(=O)[n-]c3c2)cc1OC (3D coordinates assigned)
COc1ccc(CCNC(=O)c2ccc3nc(CSCc4cccc(F)c4)c(=O)[n-]c3c2)cc1OC (optimized conformer: 66.1084784866496 kcal/mol)

>  <smiles>  (12) 
COc1ccc(CCNC(=O)c2ccc3nc(CSCc4cccc(F)c4)c(=O)[nH]c3c2)cc1OC

>  <score_type>  (12) 
oracle

>  <origin>  (12) 
adg

>  <m_score__min__energy>  (12) 
-10.9

>  <m_primary>  (12) 
energy

$$$$
12:0
     RDKit          3D

 37 39  0  0  0  0  0  0  0  0999 V2000
   54.6510   24.1410   45.2640 C   0  0  0  0  0  0  0  0  0  0  0  0
   55.2520   24.8180   46.4050 N   0  0  0  0  0  0  0  0  0  0  0  0
   56.6530   25.0110   46.6530 C   0  0  0  0  0  0  0  0  0  0  0  0
   57.2920   24.0590   47.1760 O   0  0  0  0  0  0  0  0  0  0  0  0
   57.3740   26.2710   46.3280 C   0  0  0  0  0  0  0  0  0  0  0  0
   56.6610   27.4190   45.9380 C   0  0  0  0  0  0  0  0  0  0  0  0
   57.3460   28.5980   45.6320 C   0  0  0  0  0  0  0  0  0  0  0  0
   56.6080   29.7280   45.2490 O   0  0  0  0  0  0  0  0  0  0  0  0
   57.0650   30.7250   44.3760 C   0  0  0  0  0  0  0  0  0  0  0  0
   56.9300   30.5470   42.9850 C   0  0  0  0  0  0  0  0  0  0  0  0
   57.3760   31.5390   42.0860 C   0  0  0  0  0  0  0  0  0  0  0  0
   57.9800   32.7140   42.5640 C   0  0  0  0  0  0  0  0  0  0  0  0
   58.1290   32.8580   43.9420 C   0  0  0  0  0  0  0  0  0  0  0  0
   58.7090   33.8800   44.5920 N   0  0  0  0  0  0  0  0  0  0  0  0
   58.6600   33.5530   45.9030 C   0  0  0  0  0  0  0  0  0  0  0  0
   59.1550   34.4420   47.0010 C   0  0  0  0  0  0  0  0  0  0  0  0
   59.6420   35.6970   46.4410 N   0  0  0  0  0  0  0  0  0  0  0  0
   58.0330   32.3250   46.0910 C   0  0  0  0  0  0  0  0  0  0  0  0
   57.6940   31.8970   44.8210 C   0  0  0  0  0  0  0  0  0  0  0  0
   58.7450   28.6280   45.7480 C   0  0  0  0  0  0  0  0  0  0  0  0
   59.4230   27.4750   46.1410 C   0  0  0  0  0  0  0  0  0  0  0  0
   58.7310   26.3390   46.4180 N   0  0  0  0  0  0  0  0  0  0  0  0
   53.9603   23.3630   45.6214 H   0  0  0  0  0  0  0  0  0  0  0  0
   54.0977   24.8706   44.6545 H   0  0  0  0  0  0  0  0  0  0  0  0
   55.4411   23.6781   44.6545 H   0  0  0  0  0  0  0  0  0  0  0  0
   55.5633   27.3887   45.8738 H   0  0  0  0  0  0  0  0  0  0  0  0
   56.4724   29.6255   42.5958 H   0  0  0  0  0  0  0  0  0  0  0  0
   57.2499   31.3913   41.0033 H   0  0  0  0  0  0  0  0  0  0  0  0
   58.3247   33.4963   41.8717 H   0  0  0  0  0  0  0  0  0  0  0  0
   59.1190   34.7450   44.1720 H   0  0  0  0  0  0  0  0  0  0  0  0
   58.3324   34.6497   47.7011 H   0  0  0  0  0  0  0  0  0  0  0  0
   59.9766   33.9390   47.5320 H   0  0  0  0  0  0  0  0  0  0  0  0
   60.6870   35.6530   46.4010 H   0  0  0  0  0  0  0  0  0  0  0  0
   59.4010   36.4600   47.1140 H   0  0  0  0  0  0  0  0  0  0  0  0
   57.8474   31.8072   47.0436 H   0  0  0  0  0  0  0  0  0  0  0  0
   59.3006   29.5522   45.5309 H   0  0  0  0  0  0  0  0  0  0  0  0
   60.5196   27.4850   46.2269 H   0  0  0  0  0  0  0  0  0  0  0  0
  1  2  1  0
  2  3  1  0
  3  4  2  0
  3  5  1  0
  5  6  2  0
  6  7  1  0
  7  8  1  0
  8  9  1  0
  9 10  2  0
 10 11  1  0
 11 12  2  0
 12 13  1  0
 13 14  1  0
 14 15  1  0
 15 16  1  0
 16 17  1  0
 15 18  2  0
 18 19  1  0
  7 20  2  0
 20 21  1  0
 21 22  2  0
 22  5  1  0
 19  9  1  0
 19 13  2  0
  1 23  1  0
  1 24  1  0
  1 25  1  0
  6 26  1  0
 10 27  1  0
 11 28  1  0
 12 29  1  0
 14 30  1  0
 16 31  1  0
 16 32  1  0
 17 33  1  0
 17 34  1  0
 18 35  1  0
 20 36  1  0
 21 37  1  0
M  CHG  1   2  -1
M  END
>  <UniqueID>  (13) 
11

>  <SMILES>  (13) 
C[N-]C(=O)c1cc(Oc2cccc3[nH]c(CN)cc23)ccn1

>  <Energy>  (13) 
77.53647765512024

>  <Genealogy>  (13) 
C[N-]C(=O)c1cc(Oc2cccc3[nH]c(CN)cc23)ccn1 (protonated)
C[N-]C(=O)c1cc(Oc2cccc3[nH]c(CN)cc23)ccn1 (3D coordinates assigned)
C[N-]C(=O)c1cc(Oc2cccc3[nH]c(CN)cc23)ccn1 (optimized conformer: 77.53647765512024 kcal/mol)

>  <smiles>  (13) 
CNC(=O)c1cc(Oc2cccc3[nH]c(CN)cc23)ccn1

>  <score_type>  (13) 
oracle

>  <origin>  (13) 
adg

>  <m_score__min__energy>  (13) 
-9.3800000000000008

>  <m_primary>  (13) 
energy

$$$$
13:0
     RDKit          3D

 45 47  0  0  0  0  0  0  0  0999 V2000
   60.6800   26.6410   46.2140 F   0  0  0  0  0  0  0  0  0  0  0  0
   59.7690   27.6310   45.8900 C   0  0  0  0  0  0  0  0  0  0  0  0
   60.3740   28.5440   45.0440 F   0  0  0  0  0  0  0  0  0  0  0  0
   58.7000   27.0530   45.2300 F   0  0  0  0  0  0  0  0  0  0  0  0
   59.2710   28.3300   47.1600 C   0  0  0  0  0  0  0  0  0  0  0  0
   59.6460   27.5830   48.2640 F   0  0  0  0  0  0  0  0  0  0  0  0
   57.8860   28.3760   47.1380 F   0  0  0  0  0  0  0  0  0  0  0  0
   59.8360   29.7340   47.2630 C   0  0  0  0  0  0  0  0  0  0  0  0
   61.1210   29.9430   47.7870 C   0  0  0  0  0  0  0  0  0  0  0  0
   61.6520   31.2280   47.8550 C   0  0  0  0  0  0  0  0  0  0  0  0
   60.9190   32.3170   47.3860 C   0  0  0  0  0  0  0  0  0  0  0  0
   59.6360   32.1480   46.8180 C   0  0  0  0  0  0  0  0  0  0  0  0
   58.8660   33.3900   46.3020 C   0  0  0  0  0  0  0  0  0  0  0  0
   57.3770   33.0670   45.9420 C   0  0  0  0  0  0  0  0  0  0  0  0
   57.2100   32.6380   44.5480 N   0  0  0  0  0  0  0  0  0  0  0  0
   56.9520   31.2800   44.1650 C   0  0  0  0  0  0  0  0  0  0  0  0
   56.7880   30.3260   45.0120 N   0  0  0  0  0  0  0  0  0  0  0  0
   56.5580   29.0770   44.2970 C   0  0  0  0  0  0  0  0  0  0  0  0
   56.6170   29.4490   42.8050 C   0  0  0  0  0  0  0  0  0  0  0  0
   56.8670   30.8760   42.8140 N   0  0  0  0  0  0  0  0  0  0  0  0
   58.9240   34.5180   47.3710 C   0  0  0  0  0  0  0  0  0  0  0  0
   59.6480   35.7030   46.7430 C   0  0  0  0  0  0  0  0  0  0  0  0
   59.6180   35.4800   45.2430 C   0  0  0  0  0  0  0  0  0  0  0  0
   59.5810   33.9730   45.0530 C   0  0  0  0  0  0  0  0  0  0  0  0
   59.1080   30.8340   46.7700 C   0  0  0  0  0  0  0  0  0  0  0  0
   61.7116   29.0871   48.1458 H   0  0  0  0  0  0  0  0  0  0  0  0
   62.6542   31.3847   48.2806 H   0  0  0  0  0  0  0  0  0  0  0  0
   61.3475   33.3274   47.4594 H   0  0  0  0  0  0  0  0  0  0  0  0
   57.0222   32.2621   46.6025 H   0  0  0  0  0  0  0  0  0  0  0  0
   56.7953   33.9909   46.0766 H   0  0  0  0  0  0  0  0  0  0  0  0
   57.2880   33.3470   43.7850 H   0  0  0  0  0  0  0  0  0  0  0  0
   57.3392   28.3425   44.5425 H   0  0  0  0  0  0  0  0  0  0  0  0
   55.5954   28.6192   44.5687 H   0  0  0  0  0  0  0  0  0  0  0  0
   57.4326   28.9115   42.2991 H   0  0  0  0  0  0  0  0  0  0  0  0
   55.6977   29.1817   42.2634 H   0  0  0  0  0  0  0  0  0  0  0  0
   56.9800   31.4880   41.9770 H   0  0  0  0  0  0  0  0  0  0  0  0
   57.9051   34.8118   47.6635 H   0  0  0  0  0  0  0  0  0  0  0  0
   59.4521   34.1729   48.2721 H   0  0  0  0  0  0  0  0  0  0  0  0
   59.1336   36.6413   46.9981 H   0  0  0  0  0  0  0  0  0  0  0  0
   60.6810   35.7798   47.1132 H   0  0  0  0  0  0  0  0  0  0  0  0
   58.7226   35.9442   44.8039 H   0  0  0  0  0  0  0  0  0  0  0  0
   60.4906   35.9307   44.7476 H   0  0  0  0  0  0  0  0  0  0  0  0
   59.0212   33.7184   44.1410 H   0  0  0  0  0  0  0  0  0  0  0  0
   60.5949   33.5601   44.9454 H   0  0  0  0  0  0  0  0  0  0  0  0
   58.1094   30.6699   46.3390 H   0  0  0  0  0  0  0  0  0  0  0  0
  1  2  1  0
  2  3  1  0
  2  4  1  0
  2  5  1  0
  5  6  1  0
  5  7  1  0
  5  8  1  0
  8  9  2  0
  9 10  1  0
 10 11  2  0
 11 12  1  0
 12 13  1  0
 13 14  1  0
 14 15  1  0
 15 16  1  0
 16 17  2  0
 17 18  1  0
 18 19  1  0
 19 20  1  0
 13 21  1  0
 21 22  1  0
 22 23  1  0
 23 24  1  0
 12 25  2  0
 25  8  1  0
 24 13  1  0
 20 16  1  0
  9 26  1  0
 10 27  1  0
 11 28  1  0
 14 29  1  0
 14 30  1  0
 15 31  1  0
 18 32  1  0
 18 33  1  0
 19 34  1  0
 19 35  1  0
 20 36  1  0
 21 37  1  0
 21 38  1  0
 22 39  1  0
 22 40  1  0
 23 41  1  0
 23 42  1  0
 24 43  1  0
 24 44  1  0
 25 45  1  0
M  END
>  <UniqueID>  (14) 
12

>  <SMILES>  (14) 
FC(F)(F)C(F)(F)c1cccc(C2(CNC3=NCCN3)CCCC2)c1

>  <Energy>  (14) 
64.2497675191297

>  <Genealogy>  (14) 
FC(F)(F)C(F)(F)c1cccc(C2(CNC3=NCCN3)CCCC2)c1 (3D coordinates assigned)
FC(F)(F)C(F)(F)c1cccc(C2(CNC3=NCCN3)CCCC2)c1 (nonaromatic ring conformer: 64.2497675191297 kcal/mol)

>  <smiles>  (14) 
FC(F)(F)C(F)(F)c1cccc(C2(CNC3=NCCN3)CCCC2)c1

>  <score_type>  (14) 
oracle

>  <origin>  (14) 
adg

>  <m_score__min__energy>  (14) 
-7.2999999999999998

>  <m_primary>  (14) 
energy

$$$$
14:0
     RDKit          3D

 43 45  0  0  0  0  0  0  0  0999 V2000
   59.9920   35.0000   46.8210 O   0  0  0  0  0  0  0  0  0  0  0  0
   60.0370   33.8310   47.2990 C   0  0  0  0  0  0  0  0  0  0  0  0
   61.2500   33.4260   48.1120 C   0  0  0  0  0  0  0  0  0  0  0  0
   62.4140   32.9850   47.1850 C   0  0  0  0  0  0  0  0  0  0  0  0
   63.7990   33.4160   47.6970 C   0  0  0  0  0  0  0  0  0  0  0  0
   63.8500   33.3550   49.1650 N   0  0  0  0  0  0  0  0  0  0  0  0
   64.9200   32.6830   49.8550 C   0  0  0  0  0  0  0  0  0  0  0  0
   64.6840   31.5130   50.5970 C   0  0  0  0  0  0  0  0  0  0  0  0
   65.7440   30.9010   51.2710 C   0  0  0  0  0  0  0  0  0  0  0  0
   67.0210   31.4590   51.2110 C   0  0  0  0  0  0  0  0  0  0  0  0
   67.2190   32.6320   50.4810 C   0  0  0  0  0  0  0  0  0  0  0  0
   66.1750   33.2140   49.8300 N   0  0  0  0  0  0  0  0  0  0  0  0
   62.8480   34.0940   49.9490 C   0  0  0  0  0  0  0  0  0  0  0  0
   61.6720   34.5550   49.0740 C   0  0  0  0  0  0  0  0  0  0  0  0
   58.9640   32.9040   47.0180 N   0  0  0  0  0  0  0  0  0  0  0  0
   59.2490   31.4540   46.9530 C   0  0  0  0  0  0  0  0  0  0  0  0
   58.1050   30.6280   46.3500 C   0  0  0  0  0  0  0  0  0  0  0  0
   57.5150   31.3880   44.8490 S   0  0  0  0  0  0  0  0  0  0  0  0
   56.1730   30.8200   44.4850 O   0  0  0  0  0  0  0  0  0  0  0  0
   58.4890   31.1370   43.7320 O   0  0  0  0  0  0  0  0  0  0  0  0
   57.3760   33.1410   45.1500 C   0  0  0  0  0  0  0  0  0  0  0  0
   57.6440   33.4290   46.6250 C   0  0  0  0  0  0  0  0  0  0  0  0
   60.9791   32.5579   48.7310 H   0  0  0  0  0  0  0  0  0  0  0  0
   62.3983   31.8882   47.1031 H   0  0  0  0  0  0  0  0  0  0  0  0
   62.2595   33.4765   46.2131 H   0  0  0  0  0  0  0  0  0  0  0  0
   64.5637   32.7438   47.2805 H   0  0  0  0  0  0  0  0  0  0  0  0
   63.9884   34.4517   47.3783 H   0  0  0  0  0  0  0  0  0  0  0  0
   63.6730   31.0825   50.6468 H   0  0  0  0  0  0  0  0  0  0  0  0
   65.5717   29.9805   51.8481 H   0  0  0  0  0  0  0  0  0  0  0  0
   67.8624   30.9800   51.7331 H   0  0  0  0  0  0  0  0  0  0  0  0
   68.2195   33.0864   50.4318 H   0  0  0  0  0  0  0  0  0  0  0  0
   62.4649   33.4396   50.7459 H   0  0  0  0  0  0  0  0  0  0  0  0
   63.3323   34.9864   50.3720 H   0  0  0  0  0  0  0  0  0  0  0  0
   60.8212   34.8200   49.7189 H   0  0  0  0  0  0  0  0  0  0  0  0
   61.9838   35.4305   48.4855 H   0  0  0  0  0  0  0  0  0  0  0  0
   60.1481   31.3039   46.3372 H   0  0  0  0  0  0  0  0  0  0  0  0
   59.3866   31.1063   47.9875 H   0  0  0  0  0  0  0  0  0  0  0  0
   58.4691   29.6148   46.1246 H   0  0  0  0  0  0  0  0  0  0  0  0
   57.2788   30.5798   47.0746 H   0  0  0  0  0  0  0  0  0  0  0  0
   58.1110   33.6781   44.5325 H   0  0  0  0  0  0  0  0  0  0  0  0
   56.3615   33.4775   44.8901 H   0  0  0  0  0  0  0  0  0  0  0  0
   57.6215   34.5160   46.7922 H   0  0  0  0  0  0  0  0  0  0  0  0
   56.8689   32.9378   47.2317 H   0  0  0  0  0  0  0  0  0  0  0  0
  1  2  2  0
  2  3  1  0
  3  4  1  0
  4  5  1  0
  5  6  1  0
  6  7  1  0
  7  8  2  0
  8  9  1  0
  9 10  2  0
 10 11  1  0
 11 12  2  0
  6 13  1  0
 13 14  1  0
  2 15  1  0
 15 16  1  0
 16 17  1  0
 17 18  1  0
 18 19  2  0
 18 20  2  0
 18 21  1  0
 21 22  1  0
 14  3  1  0
 22 15  1  0
 12  7  1  0
  3 23  1  0
  4 24  1  0
  4 25  1  0
  5 26  1  0
  5 27  1  0
  8 28  1  0
  9 29  1  0
 10 30  1  0
 11 31  1  0
 13 32  1  0
 13 33  1  0
 14 34  1  0
 14 35  1  0
 16 36  1  0
 16 37  1  0
 17 38  1  0
 17 39  1  0
 21 40  1  0
 21 41  1  0
 22 42  1  0
 22 43  1  0
M  END
>  <UniqueID>  (15) 
13

>  <SMILES>  (15) 
O=C(C1CCN(c2ccccn2)CC1)N1CCS(=O)(=O)CC1

>  <Energy>  (15) 
46.1509928044411

>  <Genealogy>  (15) 
O=C(C1CCN(c2ccccn2)CC1)N1CCS(=O)(=O)CC1 (3D coordinates assigned)
O=C(C1CCN(c2ccccn2)CC1)N1CCS(=O)(=O)CC1 (nonaromatic ring conformer: 46.1509928044411 kcal/mol)

>  <smiles>  (15) 
O=C(C1CCN(c2ccccn2)CC1)N1CCS(=O)(=O)CC1

>  <score_type>  (15) 
oracle

>  <origin>  (15) 
adg

>  <m_score__min__energy>  (15) 
-7.7699999999999996

>  <m_primary>  (15) 
energy

$$$$
15:0
     RDKit          3D

 22 23  0  0  0  0  0  0  0  0999 V2000
   59.3280   29.6750   46.7350 O   0  0  0  0  0  0  0  0  0  0  0  0
   58.2520   29.3600   46.1580 C   0  0  0  0  0  0  0  0  0  0  0  0
   57.8150   28.0350   46.2160 C   0  0  0  0  0  0  0  0  0  0  0  0
   56.6160   27.6970   45.5910 C   0  0  0  0  0  0  0  0  0  0  0  0
   56.1390   26.3880   45.6250 O   0  0  0  0  0  0  0  0  0  0  0  0
   55.9050   28.6500   44.9430 N   0  0  0  0  0  0  0  0  0  0  0  0
   56.3350   29.9380   44.8850 C   0  0  0  0  0  0  0  0  0  0  0  0
   55.6430   30.7860   44.2560 O   0  0  0  0  0  0  0  0  0  0  0  0
   57.5100   30.3030   45.4930 N   0  0  0  0  0  0  0  0  0  0  0  0
   57.9630   31.6710   45.4320 C   0  0  0  0  0  0  0  0  0  0  0  0
   58.1510   32.3010   44.1900 C   0  0  0  0  0  0  0  0  0  0  0  0
   58.5920   33.6280   44.1320 C   0  0  0  0  0  0  0  0  0  0  0  0
   58.8450   34.3330   45.3130 C   0  0  0  0  0  0  0  0  0  0  0  0
   59.2720   35.6190   45.2560 F   0  0  0  0  0  0  0  0  0  0  0  0
   58.6600   33.7130   46.5520 C   0  0  0  0  0  0  0  0  0  0  0  0
   58.2210   32.3870   46.6130 C   0  0  0  0  0  0  0  0  0  0  0  0
   58.4058   27.2726   46.7449 H   0  0  0  0  0  0  0  0  0  0  0  0
   55.8890   25.8940   44.7760 H   0  0  0  0  0  0  0  0  0  0  0  0
   57.9508   31.7490   43.2598 H   0  0  0  0  0  0  0  0  0  0  0  0
   58.7396   34.1164   43.1575 H   0  0  0  0  0  0  0  0  0  0  0  0
   58.8600   34.2689   47.4799 H   0  0  0  0  0  0  0  0  0  0  0  0
   58.0770   31.9022   47.5899 H   0  0  0  0  0  0  0  0  0  0  0  0
  1  2  2  0
  2  3  1  0
  3  4  2  0
  4  5  1  0
  4  6  1  0
  6  7  1  0
  7  8  2  0
  7  9  1  0
  9 10  1  0
 10 11  2  0
 11 12  1  0
 12 13  2  0
 13 14  1  0
 13 15  1  0
 15 16  2  0
  9  2  1  0
 16 10  1  0
  3 17  1  0
  5 18  1  0
 11 19  1  0
 12 20  1  0
 15 21  1  0
 16 22  1  0
M  CHG  1   6  -1
M  END
>  <UniqueID>  (16) 
14

>  <SMILES>  (16) 
O=c1cc(O)[n-]c(=O)n1-c1ccc(F)cc1

>  <Energy>  (16) 
33.520756163333616

>  <Genealogy>  (16) 
O=c1cc(O)[n-]c(=O)n1-c1ccc(F)cc1 (protonated)
O=c1cc(O)[n-]c(=O)n1-c1ccc(F)cc1 (3D coordinates assigned)
O=c1cc(O)[n-]c(=O)n1-c1ccc(F)cc1 (optimized conformer: 33.520756163333616 kcal/mol)

>  <smiles>  (16) 
O=c1cc(O)[nH]c(=O)n1-c1ccc(F)cc1

>  <score_type>  (16) 
oracle

>  <origin>  (16) 
adg

>  <m_score__min__energy>  (16) 
-7.0499999999999998

>  <m_primary>  (16) 
energy

$$$$
16:0
     RDKit          3D

 45 48  0  0  0  0  0  0  0  0999 V2000
   57.0340   30.6180   43.3820 O   0  0  0  0  0  0  0  0  0  0  0  0
   57.2630   29.9630   44.4330 C   0  0  0  0  0  0  0  0  0  0  0  0
   57.3960   30.6760   45.6700 N   0  0  0  0  0  0  0  0  0  0  0  0
   58.6260   30.9750   46.3480 C   0  0  0  0  0  0  0  0  0  0  0  0
   59.7610   30.1590   46.2070 C   0  0  0  0  0  0  0  0  0  0  0  0
   60.9470   30.4790   46.8710 C   0  0  0  0  0  0  0  0  0  0  0  0
   61.0260   31.6330   47.6660 C   0  0  0  0  0  0  0  0  0  0  0  0
   62.2740   31.9670   48.3890 C   0  0  0  0  0  0  0  0  0  0  0  0
   62.5520   31.3290   49.6070 C   0  0  0  0  0  0  0  0  0  0  0  0
   63.7320   31.6230   50.2900 C   0  0  0  0  0  0  0  0  0  0  0  0
   64.6090   32.5290   49.7830 N   0  0  0  0  0  0  0  0  0  0  0  0
   64.3630   33.1730   48.6110 C   0  0  0  0  0  0  0  0  0  0  0  0
   63.1940   32.9110   47.8880 C   0  0  0  0  0  0  0  0  0  0  0  0
   62.8930   33.8260   46.4140 Cl  0  0  0  0  0  0  0  0  0  0  0  0
   59.8960   32.4550   47.7950 C   0  0  0  0  0  0  0  0  0  0  0  0
   58.7070   32.1340   47.1300 C   0  0  0  0  0  0  0  0  0  0  0  0
   57.6280   32.9450   47.2620 F   0  0  0  0  0  0  0  0  0  0  0  0
   57.3380   28.4840   44.3650 C   0  0  0  0  0  0  0  0  0  0  0  0
   57.0090   27.7100   45.4900 C   0  0  0  0  0  0  0  0  0  0  0  0
   57.0710   26.3140   45.4330 C   0  0  0  0  0  0  0  0  0  0  0  0
   57.4690   25.6690   44.2510 C   0  0  0  0  0  0  0  0  0  0  0  0
   57.5340   24.2300   44.1940 N   0  0  0  0  0  0  0  0  0  0  0  0
   56.6570   23.5600   43.3830 C   0  0  0  0  0  0  0  0  0  0  0  0
   56.6790   22.1670   43.3060 C   0  0  0  0  0  0  0  0  0  0  0  0
   57.6060   21.4540   44.0630 C   0  0  0  0  0  0  0  0  0  0  0  0
   58.5000   22.1380   44.8830 C   0  0  0  0  0  0  0  0  0  0  0  0
   58.4580   23.5360   44.9380 C   0  0  0  0  0  0  0  0  0  0  0  0
   59.2880   24.1460   45.6670 O   0  0  0  0  0  0  0  0  0  0  0  0
   57.8220   26.4420   43.1340 C   0  0  0  0  0  0  0  0  0  0  0  0
   57.7610   27.8370   43.1920 C   0  0  0  0  0  0  0  0  0  0  0  0
   59.7151   29.2633   45.5702 H   0  0  0  0  0  0  0  0  0  0  0  0
   61.8242   29.8230   46.7704 H   0  0  0  0  0  0  0  0  0  0  0  0
   61.8415   30.5991   50.0222 H   0  0  0  0  0  0  0  0  0  0  0  0
   63.9536   31.1197   51.2426 H   0  0  0  0  0  0  0  0  0  0  0  0
   65.4870   32.7390   50.3080 H   0  0  0  0  0  0  0  0  0  0  0  0
   65.0887   33.9057   48.2282 H   0  0  0  0  0  0  0  0  0  0  0  0
   59.9450   33.3571   48.4226 H   0  0  0  0  0  0  0  0  0  0  0  0
   56.7004   28.2053   46.4224 H   0  0  0  0  0  0  0  0  0  0  0  0
   56.8065   25.7181   46.3190 H   0  0  0  0  0  0  0  0  0  0  0  0
   55.9272   24.1263   42.7857 H   0  0  0  0  0  0  0  0  0  0  0  0
   55.9704   21.6363   42.6531 H   0  0  0  0  0  0  0  0  0  0  0  0
   57.6317   20.3554   44.0133 H   0  0  0  0  0  0  0  0  0  0  0  0
   59.2351   21.5827   45.4841 H   0  0  0  0  0  0  0  0  0  0  0  0
   58.1486   25.9470   42.2075 H   0  0  0  0  0  0  0  0  0  0  0  0
   58.0464   28.4329   42.3125 H   0  0  0  0  0  0  0  0  0  0  0  0
  1  2  2  0
  2  3  1  0
  3  4  1  0
  4  5  2  0
  5  6  1  0
  6  7  2  0
  7  8  1  0
  8  9  2  0
  9 10  1  0
 10 11  2  0
 11 12  1  0
 12 13  2  0
 13 14  1  0
  7 15  1  0
 15 16  2  0
 16 17  1  0
  2 18  1  0
 18 19  2  0
 19 20  1  0
 20 21  2  0
 21 22  1  0
 22 23  1  0
 23 24  2  0
 24 25  1  0
 25 26  2  0
 26 27  1  0
 27 28  2  0
 21 29  1  0
 29 30  2  0
 16  4  1  0
 30 18  1  0
 13  8  1  0
 27 22  1  0
  5 31  1  0
  6 32  1  0
  9 33  1  0
 10 34  1  0
 11 35  1  0
 12 36  1  0
 15 37  1  0
 19 38  1  0
 20 39  1  0
 23 40  1  0
 24 41  1  0
 25 42  1  0
 26 43  1  0
 29 44  1  0
 30 45  1  0
M  CHG  2   3  -1  11   1
M  END
>  <UniqueID>  (17) 
15

>  <SMILES>  (17) 
O=C([N-]c1ccc(-c2cc[nH+]cc2Cl)cc1F)c1ccc(-n2ccccc2=O)cc1

>  <Energy>  (17) 
73.48548049309464

>  <Genealogy>  (17) 
O=C([N-]c1ccc(-c2cc[nH+]cc2Cl)cc1F)c1ccc(-n2ccccc2=O)cc1 (protonated)
O=C([N-]c1ccc(-c2cc[nH+]cc2Cl)cc1F)c1ccc(-n2ccccc2=O)cc1 (3D coordinates assigned)
O=C([N-]c1ccc(-c2cc[nH+]cc2Cl)cc1F)c1ccc(-n2ccccc2=O)cc1 (optimized conformer: 73.48548049309464 kcal/mol)

>  <smiles>  (17) 
O=C(Nc1ccc(-c2ccncc2Cl)cc1F)c1ccc(-n2ccccc2=O)cc1

>  <score_type>  (17) 
oracle

>  <origin>  (17) 
adg

>  <m_score__min__energy>  (17) 
-9.0299999999999994

>  <m_primary>  (17) 
energy

$$$$
17:0
     RDKit          3D

 47 50  0  0  0  0  0  0  0  0999 V2000
   58.5050   34.3220   52.6840 C   0  0  0  0  0  0  0  0  0  0  0  0
   58.8410   33.0670   51.9360 C   0  0  0  0  0  0  0  0  0  0  0  0
   57.8360   32.3480   51.2720 C   0  0  0  0  0  0  0  0  0  0  0  0
   58.1420   31.1550   50.6110 C   0  0  0  0  0  0  0  0  0  0  0  0
   59.4550   30.6600   50.6120 C   0  0  0  0  0  0  0  0  0  0  0  0
   59.7640   29.3480   49.9440 C   0  0  0  0  0  0  0  0  0  0  0  0
   58.9450   29.1930   48.7480 N   0  0  0  0  0  0  0  0  0  0  0  0
   59.4180   29.4730   47.4260 C   0  0  0  0  0  0  0  0  0  0  0  0
   60.2840   28.7250   46.8910 O   0  0  0  0  0  0  0  0  0  0  0  0
   58.8270   30.5800   46.6450 C   0  0  0  0  0  0  0  0  0  0  0  0
   59.0340   31.8890   47.1050 C   0  0  0  0  0  0  0  0  0  0  0  0
   58.6070   32.9750   46.3410 C   0  0  0  0  0  0  0  0  0  0  0  0
   58.9480   34.6460   46.8840 S   0  0  0  0  0  0  0  0  0  0  0  0
   60.5260   34.1770   47.5970 C   0  0  0  0  0  0  0  0  0  0  0  0
   60.7080   34.2170   48.9850 C   0  0  0  0  0  0  0  0  0  0  0  0
   61.9460   33.8730   49.5390 C   0  0  0  0  0  0  0  0  0  0  0  0
   63.0040   33.4860   48.7060 C   0  0  0  0  0  0  0  0  0  0  0  0
   64.5570   33.0590   49.4000 Cl  0  0  0  0  0  0  0  0  0  0  0  0
   62.8190   33.4410   47.3190 C   0  0  0  0  0  0  0  0  0  0  0  0
   61.5820   33.7840   46.7650 C   0  0  0  0  0  0  0  0  0  0  0  0
   57.9660   32.7690   45.1630 N   0  0  0  0  0  0  0  0  0  0  0  0
   57.7100   31.5220   44.6930 C   0  0  0  0  0  0  0  0  0  0  0  0
   57.0280   31.3700   43.4800 C   0  0  0  0  0  0  0  0  0  0  0  0
   56.7340   30.0950   42.9950 C   0  0  0  0  0  0  0  0  0  0  0  0
   57.1090   28.9650   43.7230 C   0  0  0  0  0  0  0  0  0  0  0  0
   57.7950   29.1020   44.9340 C   0  0  0  0  0  0  0  0  0  0  0  0
   58.1250   30.3810   45.4280 C   0  0  0  0  0  0  0  0  0  0  0  0
   60.4570   31.3680   51.2950 C   0  0  0  0  0  0  0  0  0  0  0  0
   60.1500   32.5620   51.9560 C   0  0  0  0  0  0  0  0  0  0  0  0
   58.5566   34.1291   53.7657 H   0  0  0  0  0  0  0  0  0  0  0  0
   59.2235   35.1112   52.4176 H   0  0  0  0  0  0  0  0  0  0  0  0
   57.4883   34.6466   52.4176 H   0  0  0  0  0  0  0  0  0  0  0  0
   56.8025   32.7247   51.2715 H   0  0  0  0  0  0  0  0  0  0  0  0
   57.3491   30.6011   50.0871 H   0  0  0  0  0  0  0  0  0  0  0  0
   60.8273   29.3236   49.6632 H   0  0  0  0  0  0  0  0  0  0  0  0
   59.5437   28.5266   50.6417 H   0  0  0  0  0  0  0  0  0  0  0  0
   59.5339   32.0592   48.0699 H   0  0  0  0  0  0  0  0  0  0  0  0
   59.8774   34.5190   49.6399 H   0  0  0  0  0  0  0  0  0  0  0  0
   62.0887   33.9064   50.6292 H   0  0  0  0  0  0  0  0  0  0  0  0
   63.6482   33.1353   46.6640 H   0  0  0  0  0  0  0  0  0  0  0  0
   61.4380   33.7452   45.6752 H   0  0  0  0  0  0  0  0  0  0  0  0
   56.7229   32.2583   42.9074 H   0  0  0  0  0  0  0  0  0  0  0  0
   56.2057   29.9804   42.0370 H   0  0  0  0  0  0  0  0  0  0  0  0
   56.8640   27.9623   43.3427 H   0  0  0  0  0  0  0  0  0  0  0  0
   58.0791   28.2059   45.5052 H   0  0  0  0  0  0  0  0  0  0  0  0
   61.4871   30.9823   51.3103 H   0  0  0  0  0  0  0  0  0  0  0  0
   60.9389   33.1079   52.4943 H   0  0  0  0  0  0  0  0  0  0  0  0
  1  2  1  0
  2  3  2  0
  3  4  1  0
  4  5  2  0
  5  6  1  0
  6  7  1  0
  7  8  1  0
  8  9  2  0
  8 10  1  0
 10 11  2  0
 11 12  1  0
 12 13  1  0
 13 14  1  0
 14 15  2  0
 15 16  1  0
 16 17  2  0
 17 18  1  0
 17 19  1  0
 19 20  2  0
 12 21  2  0
 21 22  1  0
 22 23  2  0
 23 24  1  0
 24 25  2  0
 25 26  1  0
 26 27  2  0
  5 28  1  0
 28 29  2  0
 29  2  1  0
 27 10  1  0
 20 14  1  0
 27 22  1  0
  1 30  1  0
  1 31  1  0
  1 32  1  0
  3 33  1  0
  4 34  1  0
  6 35  1  0
  6 36  1  0
 11 37  1  0
 15 38  1  0
 16 39  1  0
 19 40  1  0
 20 41  1  0
 23 42  1  0
 24 43  1  0
 25 44  1  0
 26 45  1  0
 28 46  1  0
 29 47  1  0
M  CHG  1   7  -1
M  END
>  <UniqueID>  (18) 
16

>  <SMILES>  (18) 
Cc1ccc(C[N-]C(=O)c2cc(Sc3ccc(Cl)cc3)nc3ccccc23)cc1

>  <Energy>  (18) 
53.48780617046941

>  <Genealogy>  (18) 
Cc1ccc(C[N-]C(=O)c2cc(Sc3ccc(Cl)cc3)nc3ccccc23)cc1 (protonated)
Cc1ccc(C[N-]C(=O)c2cc(Sc3ccc(Cl)cc3)nc3ccccc23)cc1 (3D coordinates assigned)
Cc1ccc(C[N-]C(=O)c2cc(Sc3ccc(Cl)cc3)nc3ccccc23)cc1 (optimized conformer: 53.48780617046941 kcal/mol)

>  <smiles>  (18) 
Cc1ccc(CNC(=O)c2cc(Sc3ccc(Cl)cc3)nc3ccccc23)cc1

>  <score_type>  (18) 
oracle

>  <origin>  (18) 
adg

>  <m_score__min__energy>  (18) 
-11.140000000000001

>  <m_primary>  (18) 
energy

$$$$
18:0
     RDKit          3D

 41 43  0  0  0  0  0  0  0  0999 V2000
   57.6090   33.7380   46.3030 C   0  0  0  0  0  0  0  0  0  0  0  0
   58.4160   33.2740   45.1180 C   0  0  0  0  0  0  0  0  0  0  0  0
   59.4430   34.1970   44.5080 C   0  0  0  0  0  0  0  0  0  0  0  0
   58.1880   32.0350   44.6310 C   0  0  0  0  0  0  0  0  0  0  0  0
   56.9390   31.2260   44.8890 C   0  0  0  0  0  0  0  0  0  0  0  0
   57.2490   29.8360   45.4080 C   0  0  0  0  0  0  0  0  0  0  0  0
   56.3410   28.7780   45.1990 C   0  0  0  0  0  0  0  0  0  0  0  0
   55.1570   28.9810   44.4970 O   0  0  0  0  0  0  0  0  0  0  0  0
   56.6170   27.5040   45.6930 C   0  0  0  0  0  0  0  0  0  0  0  0
   57.7880   27.2510   46.4150 C   0  0  0  0  0  0  0  0  0  0  0  0
   58.0300   25.9630   46.8950 O   0  0  0  0  0  0  0  0  0  0  0  0
   58.7050   28.2990   46.6510 C   0  0  0  0  0  0  0  0  0  0  0  0
   59.9010   28.1180   47.3770 C   0  0  0  0  0  0  0  0  0  0  0  0
   60.2180   26.9950   47.8540 O   0  0  0  0  0  0  0  0  0  0  0  0
   60.7560   29.2000   47.5770 C   0  0  0  0  0  0  0  0  0  0  0  0
   60.4160   30.4530   47.0480 C   0  0  0  0  0  0  0  0  0  0  0  0
   61.2980   31.6310   47.2230 C   0  0  0  0  0  0  0  0  0  0  0  0
   62.6930   31.4770   47.1240 C   0  0  0  0  0  0  0  0  0  0  0  0
   63.5400   32.5790   47.2760 C   0  0  0  0  0  0  0  0  0  0  0  0
   63.0060   33.8450   47.5230 C   0  0  0  0  0  0  0  0  0  0  0  0
   61.6220   34.0130   47.6150 C   0  0  0  0  0  0  0  0  0  0  0  0
   60.7700   32.9150   47.4650 C   0  0  0  0  0  0  0  0  0  0  0  0
   59.2850   30.5910   46.3610 O   0  0  0  0  0  0  0  0  0  0  0  0
   58.4290   29.5940   46.1430 C   0  0  0  0  0  0  0  0  0  0  0  0
   58.1197   33.4444   47.2320 H   0  0  0  0  0  0  0  0  0  0  0  0
   57.5068   34.8328   46.2710 H   0  0  0  0  0  0  0  0  0  0  0  0
   56.6114   33.2755   46.2710 H   0  0  0  0  0  0  0  0  0  0  0  0
   60.0041   34.7013   45.3085 H   0  0  0  0  0  0  0  0  0  0  0  0
   60.1370   33.6131   43.8855 H   0  0  0  0  0  0  0  0  0  0  0  0
   58.9362   34.9491   43.8855 H   0  0  0  0  0  0  0  0  0  0  0  0
   58.9681   31.5826   44.0011 H   0  0  0  0  0  0  0  0  0  0  0  0
   56.3245   31.7525   45.6340 H   0  0  0  0  0  0  0  0  0  0  0  0
   56.4064   31.1164   43.9328 H   0  0  0  0  0  0  0  0  0  0  0  0
   55.9039   26.6862   45.5125 H   0  0  0  0  0  0  0  0  0  0  0  0
   58.8560   25.7430   47.4380 H   0  0  0  0  0  0  0  0  0  0  0  0
   61.6894   29.0721   48.1449 H   0  0  0  0  0  0  0  0  0  0  0  0
   63.1202   30.4829   46.9257 H   0  0  0  0  0  0  0  0  0  0  0  0
   64.6296   32.4481   47.2008 H   0  0  0  0  0  0  0  0  0  0  0  0
   63.6746   34.7099   47.6451 H   0  0  0  0  0  0  0  0  0  0  0  0
   61.2019   35.0115   47.8059 H   0  0  0  0  0  0  0  0  0  0  0  0
   59.6811   33.0540   47.5363 H   0  0  0  0  0  0  0  0  0  0  0  0
  1  2  1  0
  2  3  1  0
  2  4  2  3
  4  5  1  0
  5  6  1  0
  6  7  2  0
  7  8  1  0
  7  9  1  0
  9 10  2  0
 10 11  1  0
 10 12  1  0
 12 13  1  0
 13 14  2  0
 13 15  1  0
 15 16  2  0
 16 17  1  0
 17 18  2  0
 18 19  1  0
 19 20  2  0
 20 21  1  0
 21 22  2  0
 16 23  1  0
 23 24  1  0
 24  6  1  0
 24 12  2  0
 22 17  1  0
  1 25  1  0
  1 26  1  0
  1 27  1  0
  3 28  1  0
  3 29  1  0
  3 30  1  0
  4 31  1  0
  5 32  1  0
  5 33  1  0
  9 34  1  0
 11 35  1  0
 15 36  1  0
 18 37  1  0
 19 38  1  0
 20 39  1  0
 21 40  1  0
 22 41  1  0
M  CHG  1   8  -1
M  END
>  <UniqueID>  (19) 
17

>  <SMILES>  (19) 
CC(C)=CCc1c([O-])cc(O)c2c(=O)cc(-c3ccccc3)oc12

>  <Energy>  (19) 
49.33744849602966

>  <Genealogy>  (19) 
CC(C)=CCc1c([O-])cc(O)c2c(=O)cc(-c3ccccc3)oc12 (protonated)
CC(C)=CCc1c([O-])cc(O)c2c(=O)cc(-c3ccccc3)oc12 (3D coordinates assigned)
CC(C)=CCc1c([O-])cc(O)c2c(=O)cc(-c3ccccc3)oc12 (optimized conformer: 49.33744849602966 kcal/mol)

>  <smiles>  (19) 
CC(C)=CCc1c(O)cc(O)c2c(=O)cc(-c3ccccc3)oc12

>  <score_type>  (19) 
oracle

>  <origin>  (19) 
adg

>  <m_score__min__energy>  (19) 
-9.9900000000000002

>  <m_primary>  (19) 
energy

$$$$
19:0
     RDKit          3D

 31 32  0  0  0  0  0  0  0  0999 V2000
   58.2080   23.7910   45.2030 C   0  0  0  0  0  0  0  0  0  0  0  0
   58.6620   24.8600   46.0270 O   0  0  0  0  0  0  0  0  0  0  0  0
   58.4530   26.2240   45.7590 C   0  0  0  0  0  0  0  0  0  0  0  0
   59.5070   27.0520   45.3260 C   0  0  0  0  0  0  0  0  0  0  0  0
   59.2840   28.3990   45.0410 C   0  0  0  0  0  0  0  0  0  0  0  0
   58.0040   28.9500   45.1710 C   0  0  0  0  0  0  0  0  0  0  0  0
   57.7770   30.3790   44.8550 C   0  0  0  0  0  0  0  0  0  0  0  0
   57.6250   30.7310   43.6550 O   0  0  0  0  0  0  0  0  0  0  0  0
   57.7720   31.3930   45.8710 N   0  0  0  0  0  0  0  0  0  0  0  0
   58.8130   32.3520   46.1150 C   0  0  0  0  0  0  0  0  0  0  0  0
   60.0490   31.9650   46.6640 C   0  0  0  0  0  0  0  0  0  0  0  0
   61.0480   32.9150   46.8980 C   0  0  0  0  0  0  0  0  0  0  0  0
   62.5920   32.4180   47.5650 Cl  0  0  0  0  0  0  0  0  0  0  0  0
   60.8130   34.2610   46.6040 C   0  0  0  0  0  0  0  0  0  0  0  0
   59.5800   34.6580   46.0850 C   0  0  0  0  0  0  0  0  0  0  0  0
   58.5770   33.7120   45.8450 C   0  0  0  0  0  0  0  0  0  0  0  0
   57.0370   34.2430   45.1840 Cl  0  0  0  0  0  0  0  0  0  0  0  0
   56.9540   28.1360   45.6260 C   0  0  0  0  0  0  0  0  0  0  0  0
   57.1600   26.7760   45.9200 C   0  0  0  0  0  0  0  0  0  0  0  0
   56.0470   25.9770   46.3720 N   0  0  0  0  0  0  0  0  0  0  0  0
   56.2140   25.0160   47.1530 O   0  0  0  0  0  0  0  0  0  0  0  0
   54.7640   26.2870   45.9800 O   0  0  0  0  0  0  0  0  0  0  0  0
   57.8565   22.9634   45.8367 H   0  0  0  0  0  0  0  0  0  0  0  0
   57.3817   24.1430   44.5679 H   0  0  0  0  0  0  0  0  0  0  0  0
   59.0351   23.4408   44.5679 H   0  0  0  0  0  0  0  0  0  0  0  0
   60.5171   26.6317   45.2114 H   0  0  0  0  0  0  0  0  0  0  0  0
   60.1204   29.0330   44.7116 H   0  0  0  0  0  0  0  0  0  0  0  0
   60.2307   30.9085   46.9107 H   0  0  0  0  0  0  0  0  0  0  0  0
   61.6006   35.0080   46.7819 H   0  0  0  0  0  0  0  0  0  0  0  0
   59.3955   35.7196   45.8635 H   0  0  0  0  0  0  0  0  0  0  0  0
   55.9516   28.5701   45.7549 H   0  0  0  0  0  0  0  0  0  0  0  0
  1  2  1  0
  2  3  1  0
  3  4  2  0
  4  5  1  0
  5  6  2  0
  6  7  1  0
  7  8  2  0
  7  9  1  0
  9 10  1  0
 10 11  2  0
 11 12  1  0
 12 13  1  0
 12 14  2  0
 14 15  1  0
 15 16  2  0
 16 17  1  0
  6 18  1  0
 18 19  2  0
 19 20  1  0
 20 21  2  0
 20 22  1  0
 19  3  1  0
 16 10  1  0
  1 23  1  0
  1 24  1  0
  1 25  1  0
  4 26  1  0
  5 27  1  0
 11 28  1  0
 14 29  1  0
 15 30  1  0
 18 31  1  0
M  CHG  3   9  -1  20   1  22  -1
M  END
>  <UniqueID>  (20) 
18

>  <SMILES>  (20) 
COc1ccc(C(=O)[N-]c2cc(Cl)ccc2Cl)cc1[N+](=O)[O-]

>  <Energy>  (20) 
41.24395188050524

>  <Genealogy>  (20) 
COc1ccc(C(=O)[N-]c2cc(Cl)ccc2Cl)cc1[N+](=O)[O-] (protonated)
COc1ccc(C(=O)[N-]c2cc(Cl)ccc2Cl)cc1[N+](=O)[O-] (3D coordinates assigned)
COc1ccc(C(=O)[N-]c2cc(Cl)ccc2Cl)cc1[N+](=O)[O-] (optimized conformer: 41.24395188050524 kcal/mol)

>  <smiles>  (20) 
COc1ccc(C(=O)Nc2cc(Cl)ccc2Cl)cc1[N+](=O)[O-]

>  <score_type>  (20) 
oracle

>  <origin>  (20) 
adg

>  <m_score__min__energy>  (20) 
-8.8699999999999992

>  <m_primary>  (20) 
energy

$$$$
20:0
     RDKit          3D

 34 36  0  0  0  0  0  0  0  0999 V2000
   55.6348   24.4292   46.7809 H   0  0  0  0  0  0  0  0  0  0  0  0
   56.2820   25.2580   46.4580 C   0  0  0  0  0  0  0  0  0  0  0  0
   55.7300   26.4230   46.0270 N   0  0  0  0  0  0  0  0  0  0  0  0
   56.4940   27.4770   45.6190 C   0  0  0  0  0  0  0  0  0  0  0  0
   55.9000   28.7060   45.1660 N   0  0  0  0  0  0  0  0  0  0  0  0
   56.4960   29.6970   44.5660 C   0  0  0  0  0  0  0  0  0  0  0  0
   57.0220   30.7400   45.2640 N   0  0  0  0  0  0  0  0  0  0  0  0
   57.6460   31.7790   44.6470 C   0  0  0  0  0  0  0  0  0  0  0  0
   58.1960   32.8800   45.4630 C   0  0  0  0  0  0  0  0  0  0  0  0
   58.4160   34.1830   45.0480 C   0  0  0  0  0  0  0  0  0  0  0  0
   58.1969   34.5760   44.0442 H   0  0  0  0  0  0  0  0  0  0  0  0
   58.9400   34.8940   46.0650 N   0  0  0  0  0  0  0  0  0  0  0  0
   59.0440   34.0830   47.1070 N   0  0  0  0  0  0  0  0  0  0  0  0
   59.6250   34.4760   48.3870 C   0  0  0  0  0  0  0  0  0  0  0  0
   59.0450   34.0219   49.2040 H   0  0  0  0  0  0  0  0  0  0  0  0
   59.5983   35.5724   48.4717 H   0  0  0  0  0  0  0  0  0  0  0  0
   61.0710   34.0060   48.4750 C   0  0  0  0  0  0  0  0  0  0  0  0
   61.3621   33.9114   49.5315 H   0  0  0  0  0  0  0  0  0  0  0  0
   61.1700   33.0294   47.9785 H   0  0  0  0  0  0  0  0  0  0  0  0
   61.7253   34.7377   47.9785 H   0  0  0  0  0  0  0  0  0  0  0  0
   58.6130   32.8500   46.7800 C   0  0  0  0  0  0  0  0  0  0  0  0
   58.5959   31.9733   47.4442 H   0  0  0  0  0  0  0  0  0  0  0  0
   57.7470   31.7690   43.2480 C   0  0  0  0  0  0  0  0  0  0  0  0
   58.2470   32.5965   42.7234 H   0  0  0  0  0  0  0  0  0  0  0  0
   57.2230   30.7300   42.5440 N   0  0  0  0  0  0  0  0  0  0  0  0
   57.2990   30.7250   41.5040 H   0  0  0  0  0  0  0  0  0  0  0  0
   56.6010   29.6970   43.1730 C   0  0  0  0  0  0  0  0  0  0  0  0
   56.1825   28.8652   42.5875 H   0  0  0  0  0  0  0  0  0  0  0  0
   57.8890   27.3640   45.6400 C   0  0  0  0  0  0  0  0  0  0  0  0
   58.5182   28.2051   45.3133 H   0  0  0  0  0  0  0  0  0  0  0  0
   58.4760   26.1750   46.0790 C   0  0  0  0  0  0  0  0  0  0  0  0
   59.5713   26.0760   46.0999 H   0  0  0  0  0  0  0  0  0  0  0  0
   57.6700   25.1130   46.4910 C   0  0  0  0  0  0  0  0  0  0  0  0
   58.1231   24.1725   46.8377 H   0  0  0  0  0  0  0  0  0  0  0  0
  1  2  1  0
  2  3  2  0
  3  4  1  0
  4  5  1  0
  5  6  2  0
  6  7  1  0
  7  8  1  0
  8  9  1  0
  9 10  1  0
 10 11  1  0
 10 12  2  0
 12 13  1  0
 13 14  1  0
 14 15  1  0
 14 16  1  0
 14 17  1  0
 17 18  1  0
 17 19  1  0
 17 20  1  0
 13 21  1  0
 21 22  1  0
  8 23  2  0
 23 24  1  0
 23 25  1  0
 25 26  1  0
 25 27  2  0
 27 28  1  0
  4 29  2  0
 29 30  1  0
 29 31  1  0
 31 32  1  0
 31 33  2  0
 33 34  1  0
 33  2  1  0
 27  6  1  0
 21  9  2  0
M  CHG  2   7  -1  25   1
M  END
>  <UniqueID>  (21) 
19

>  <SMILES>  (21) 
CCn1cc(-c2c[nH+]c/c(=N/c3ccccn3)[n-]2)cn1

>  <Energy>  (21) 
67.21514543017983

>  <Genealogy>  (21) 
CCn1cc(-c2c[nH+]cc(=Nc3ccccn3)[n-]2)cn1 (protonated)
CCn1cc(-c2c[nH+]c/c(=N/c3ccccn3)[n-]2)cn1 (cis-trans isomerization)
CCn1cc(-c2c[nH+]c/c(=N/c3ccccn3)[n-]2)cn1 (3D coordinates assigned)
CCn1cc(-c2c[nH+]c/c(=N/c3ccccn3)[n-]2)cn1 (optimized conformer: 67.21514543017983 kcal/mol)

>  <smiles>  (21) 
CCn1cc(-c2cncc(=Nc3ccccn3)[nH]2)cn1

>  <score_type>  (21) 
oracle

>  <origin>  (21) 
adg

>  <m_score__min__energy>  (21) 
-7.7199999999999998

>  <m_primary>  (21) 
energy

$$$$
21:0
     RDKit          3D

 59 64  0  0  1  0  0  0  0  0999 V2000
   54.1740   20.8320   48.2540 C   0  0  0  0  0  0  0  0  0  0  0  0
   55.2660   21.8070   47.9590 C   0  0  0  0  0  0  0  0  0  0  0  0
   56.4580   21.8070   48.5440 N   0  0  0  0  0  0  0  0  0  0  0  0
   57.1540   22.7940   48.0480 N   0  0  0  0  0  0  0  0  0  0  0  0
   56.4810   23.4980   47.1180 C   0  0  0  0  0  0  0  0  0  0  0  0
   56.9430   24.6240   46.2950 C   0  0  0  0  0  0  0  0  0  0  0  0
   57.1160   25.8880   46.8540 C   0  0  0  0  0  0  0  0  0  0  0  0
   57.4910   27.0000   46.1350 C   0  0  0  0  0  0  0  0  0  0  0  0
   57.7240   26.8870   44.7510 C   0  0  0  0  0  0  0  0  0  0  0  0
   58.2020   27.9380   44.0440 N   0  0  0  0  0  0  0  0  0  0  0  0
   58.0420   29.1510   44.1470 C   0  0  0  0  0  0  0  0  0  0  0  0
   57.0450   29.7510   43.3790 C   0  0  0  0  0  0  0  0  0  0  0  0
   56.7810   31.0980   43.4060 C   0  0  0  0  0  0  0  0  0  0  0  0
   57.5360   31.8470   44.2230 N   0  0  0  0  0  0  0  0  0  0  0  0
   58.5030   31.2860   44.9720 C   0  0  0  0  0  0  0  0  0  0  0  0
   59.2220   32.1410   45.7770 C   0  0  0  0  0  0  0  0  0  0  0  0
   60.2120   31.5840   46.5480 C   0  0  0  0  0  0  0  0  0  0  0  0
   60.9860   32.4930   47.3900 C   0  0  0  0  0  0  0  0  0  0  0  0
   60.2650   33.3060   48.2380 C   0  0  0  0  0  0  0  0  0  0  0  0
   60.9870   34.1660   49.0360 C   0  0  0  0  0  0  0  0  0  0  0  0
   62.3540   34.2160   48.9920 C   0  0  0  0  0  0  0  0  0  0  0  0
   63.0430   33.3900   48.1320 C   0  0  0  0  0  0  0  0  0  0  0  0
   62.3660   32.5110   47.3150 C   0  0  0  0  0  0  0  0  0  0  0  0
   60.5320   30.2760   46.5790 C   0  0  0  0  0  0  0  0  0  0  0  0
   59.7850   29.4190   45.7500 C   0  0  0  0  0  0  0  0  0  0  0  0
   58.7950   29.9370   44.9690 C   0  0  0  0  0  0  0  0  0  0  0  0
   57.5570   25.6230   44.1600 C   0  0  0  0  0  0  0  0  0  0  0  0
   57.1710   24.5230   44.9450 C   0  0  0  0  0  0  0  0  0  0  0  0
   57.0060   23.3250   44.1830 N   0  0  0  0  0  0  0  0  0  0  0  0
   57.8710   22.2750   44.2280 C   0  0  0  0  0  0  0  0  0  0  0  0
   57.4030   21.3310   43.3380 C   0  0  0  0  0  0  0  0  0  0  0  0
   56.2790   21.8200   42.7790 N   0  0  0  0  0  0  0  0  0  0  0  0
   56.0160   23.0440   43.2830 C   0  0  0  0  0  0  0  0  0  0  0  0
   55.2400   22.8650   47.0470 C   0  0  0  0  0  0  0  0  0  0  0  0
   54.0680   23.1290   46.2060 C   0  0  0  0  0  0  0  0  0  0  0  0
   54.0587   20.7291   49.3431 H   0  0  0  0  0  0  0  0  0  0  0  0
   53.2313   21.1943   47.8181 H   0  0  0  0  0  0  0  0  0  0  0  0
   54.4276   19.8544   47.8181 H   0  0  0  0  0  0  0  0  0  0  0  0
   58.1410   22.9720   48.4120 H   0  0  0  0  0  0  0  0  0  0  0  0
   56.9426   26.0043   47.9340 H   0  0  0  0  0  0  0  0  0  0  0  0
   57.6080   27.9710   46.6384 H   0  0  0  0  0  0  0  0  0  0  0  0
   56.4395   29.1131   42.7183 H   0  0  0  0  0  0  0  0  0  0  0  0
   55.9876   31.5419   42.7867 H   0  0  0  0  0  0  0  0  0  0  0  0
   57.3280   32.8730   44.2360 H   0  0  0  0  0  0  0  0  0  0  0  0
   59.0128   33.2206   45.8012 H   0  0  0  0  0  0  0  0  0  0  0  0
   59.1662   33.2698   48.2757 H   0  0  0  0  0  0  0  0  0  0  0  0
   60.4497   34.8312   49.7280 H   0  0  0  0  0  0  0  0  0  0  0  0
   62.9012   34.9145   49.6422 H   0  0  0  0  0  0  0  0  0  0  0  0
   64.1416   33.4323   48.0971 H   0  0  0  0  0  0  0  0  0  0  0  0
   62.9061   31.8454   46.6256 H   0  0  0  0  0  0  0  0  0  0  0  0
   61.3393   29.8957   47.2221 H   0  0  0  0  0  0  0  0  0  0  0  0
   59.9981   28.3400   45.7322 H   0  0  0  0  0  0  0  0  0  0  0  0
   57.7287   25.4943   43.0811 H   0  0  0  0  0  0  0  0  0  0  0  0
   58.7715   22.1947   44.8546 H   0  0  0  0  0  0  0  0  0  0  0  0
   57.8640   20.3556   43.1235 H   0  0  0  0  0  0  0  0  0  0  0  0
   55.1670   23.6920   43.0198 H   0  0  0  0  0  0  0  0  0  0  0  0
   53.1948   23.3257   46.8453 H   0  0  0  0  0  0  0  0  0  0  0  0
   54.2624   24.0059   45.5709 H   0  0  0  0  0  0  0  0  0  0  0  0
   53.8677   22.2535   45.5709 H   0  0  0  0  0  0  0  0  0  0  0  0
  1  2  1  0
  2  3  2  0
  3  4  1  0
  4  5  1  0
  5  6  1  0
  6  7  2  0
  7  8  1  0
  8  9  2  0
  9 10  1  0
 10 11  2  0
 11 12  1  0
 12 13  2  0
 13 14  1  0
 14 15  1  0
 15 16  2  0
 16 17  1  0
 17 18  1  0
 18 19  2  0
 19 20  1  0
 20 21  2  0
 21 22  1  0
 22 23  2  0
 17 24  2  0
 24 25  1  0
 25 26  2  0
  9 27  1  0
 27 28  2  0
 28 29  1  0
 29 30  1  0
 30 31  2  0
 31 32  1  0
 32 33  2  0
  5 34  2  0
 34 35  1  0
 34  2  1  0
 28  6  1  0
 33 29  1  0
 26 11  1  0
 26 15  1  0
 23 18  1  0
  1 36  1  0
  1 37  1  0
  1 38  1  0
  4 39  1  0
  7 40  1  0
  8 41  1  0
 12 42  1  0
 13 43  1  0
 14 44  1  0
 16 45  1  0
 19 46  1  0
 20 47  1  0
 21 48  1  0
 22 49  1  0
 23 50  1  0
 24 51  1  0
 25 52  1  0
 27 53  1  0
 30 54  1  0
 31 55  1  0
 33 56  1  0
 35 57  1  0
 35 58  1  0
 35 59  1  0
M  END
>  <smiles>  (22) 
Cc1n[nH]c(-c2ccc(N=c3cc[nH]c4cc(-c5ccccc5)ccc34)cc2-n2ccnc2)c1C

>  <score_type>  (22) 
oracle

>  <origin>  (22) 
adg

>  <m_score__min__energy>  (22) 
-10.07

>  <m_primary>  (22) 
energy

$$$$
22:0
     RDKit          3D

 60 63  0  0  0  0  0  0  0  0999 V2000
   57.0200   34.2830   45.2450 O   0  0  0  0  0  0  0  0  0  0  0  0
   58.2420   34.1990   44.9440 C   0  0  0  0  0  0  0  0  0  0  0  0
   59.1950   35.2510   45.4250 C   0  0  0  0  0  0  0  0  0  0  0  0
   60.0170   34.7150   46.5060 N   0  0  0  0  0  0  0  0  0  0  0  0
   61.1880   34.0670   46.3620 C   0  0  0  0  0  0  0  0  0  0  0  0
   61.5960   33.5670   47.5840 C   0  0  0  0  0  0  0  0  0  0  0  0
   63.0430   32.5960   47.8970 S   0  0  0  0  0  0  0  0  0  0  0  0
   64.1440   33.0590   46.9860 O   0  0  0  0  0  0  0  0  0  0  0  0
   62.7320   31.1580   47.5880 O   0  0  0  0  0  0  0  0  0  0  0  0
   63.6330   32.7120   49.5390 N   0  0  0  0  0  0  0  0  0  0  0  0
   65.0360   33.1220   49.5960 C   0  0  0  0  0  0  0  0  0  0  0  0
   65.6490   32.4330   50.8010 C   0  0  0  0  0  0  0  0  0  0  0  0
   64.8140   31.1850   51.0010 C   0  0  0  0  0  0  0  0  0  0  0  0
   63.4980   31.4530   50.2830 C   0  0  0  0  0  0  0  0  0  0  0  0
   60.6260   33.9410   48.5070 C   0  0  0  0  0  0  0  0  0  0  0  0
   60.5970   33.5410   50.2310 S   0  0  0  0  0  0  0  0  0  0  0  0
   61.8460   34.0820   50.8690 O   0  0  0  0  0  0  0  0  0  0  0  0
   59.4040   34.2060   50.8570 O   0  0  0  0  0  0  0  0  0  0  0  0
   60.4930   31.8270   50.5650 N   0  0  0  0  0  0  0  0  0  0  0  0
   59.4130   31.4960   51.5030 C   0  0  0  0  0  0  0  0  0  0  0  0
   58.6490   30.3040   50.9380 C   0  0  0  0  0  0  0  0  0  0  0  0
   59.4430   29.8450   49.7330 C   0  0  0  0  0  0  0  0  0  0  0  0
   60.2950   31.0370   49.3490 C   0  0  0  0  0  0  0  0  0  0  0  0
   59.6620   34.6380   47.8030 C   0  0  0  0  0  0  0  0  0  0  0  0
   58.7170   33.1220   44.1230 N   0  0  0  0  0  0  0  0  0  0  0  0
   58.0010   31.8860   43.9440 C   0  0  0  0  0  0  0  0  0  0  0  0
   57.3890   31.6080   42.7080 C   0  0  0  0  0  0  0  0  0  0  0  0
   56.6420   30.4440   42.5290 C   0  0  0  0  0  0  0  0  0  0  0  0
   56.4810   29.5490   43.5830 C   0  0  0  0  0  0  0  0  0  0  0  0
   57.0680   29.8120   44.8220 C   0  0  0  0  0  0  0  0  0  0  0  0
   57.8430   30.9720   45.0190 C   0  0  0  0  0  0  0  0  0  0  0  0
   58.4620   31.2440   46.3760 C   0  0  0  0  0  0  0  0  0  0  0  0
   58.3420   30.1300   47.1870 F   0  0  0  0  0  0  0  0  0  0  0  0
   57.8400   32.3030   47.0150 F   0  0  0  0  0  0  0  0  0  0  0  0
   59.7990   31.5520   46.2150 F   0  0  0  0  0  0  0  0  0  0  0  0
   59.8436   35.5642   44.5936 H   0  0  0  0  0  0  0  0  0  0  0  0
   58.6252   36.1158   45.7958 H   0  0  0  0  0  0  0  0  0  0  0  0
   61.7368   33.9528   45.4155 H   0  0  0  0  0  0  0  0  0  0  0  0
   65.5577   32.8134   48.6781 H   0  0  0  0  0  0  0  0  0  0  0  0
   65.1231   34.2152   49.6815 H   0  0  0  0  0  0  0  0  0  0  0  0
   66.6986   32.1693   50.6040 H   0  0  0  0  0  0  0  0  0  0  0  0
   65.6501   33.0784   51.6917 H   0  0  0  0  0  0  0  0  0  0  0  0
   65.3189   30.3111   50.5636 H   0  0  0  0  0  0  0  0  0  0  0  0
   64.6583   30.9662   52.0677 H   0  0  0  0  0  0  0  0  0  0  0  0
   63.2787   30.6301   49.5868 H   0  0  0  0  0  0  0  0  0  0  0  0
   62.6752   31.5257   51.0094 H   0  0  0  0  0  0  0  0  0  0  0  0
   59.8370   31.2368   52.4844 H   0  0  0  0  0  0  0  0  0  0  0  0
   58.7397   32.3565   51.6305 H   0  0  0  0  0  0  0  0  0  0  0  0
   58.5858   29.4993   51.6853 H   0  0  0  0  0  0  0  0  0  0  0  0
   57.6175   30.5733   50.6670 H   0  0  0  0  0  0  0  0  0  0  0  0
   60.0767   28.9841   49.9924 H   0  0  0  0  0  0  0  0  0  0  0  0
   58.7920   29.5191   48.9084 H   0  0  0  0  0  0  0  0  0  0  0  0
   61.2648   30.6979   48.9560 H   0  0  0  0  0  0  0  0  0  0  0  0
   59.8057   31.6350   48.5661 H   0  0  0  0  0  0  0  0  0  0  0  0
   58.7451   35.0646   48.2358 H   0  0  0  0  0  0  0  0  0  0  0  0
   59.6400   33.2410   43.6510 H   0  0  0  0  0  0  0  0  0  0  0  0
   57.5009   32.3163   41.8739 H   0  0  0  0  0  0  0  0  0  0  0  0
   56.1794   30.2328   41.5536 H   0  0  0  0  0  0  0  0  0  0  0  0
   55.8899   28.6325   43.4393 H   0  0  0  0  0  0  0  0  0  0  0  0
   56.9239   29.1061   45.6532 H   0  0  0  0  0  0  0  0  0  0  0  0
  1  2  2  0
  2  3  1  0
  3  4  1  0
  4  5  1  0
  5  6  2  0
  6  7  1  0
  7  8  2  0
  7  9  2  0
  7 10  1  0
 10 11  1  0
 11 12  1  0
 12 13  1  0
 13 14  1  0
  6 15  1  0
 15 16  1  0
 16 17  2  0
 16 18  2  0
 16 19  1  0
 19 20  1  0
 20 21  1  0
 21 22  1  0
 22 23  1  0
 15 24  2  0
  2 25  1  0
 25 26  1  0
 26 27  2  0
 27 28  1  0
 28 29  2  0
 29 30  1  0
 30 31  2  0
 31 32  1  0
 32 33  1  0
 32 34  1  0
 32 35  1  0
 24  4  1  0
 31 26  1  0
 14 10  1  0
 23 19  1  0
  3 36  1  0
  3 37  1  0
  5 38  1  0
 11 39  1  0
 11 40  1  0
 12 41  1  0
 12 42  1  0
 13 43  1  0
 13 44  1  0
 14 45  1  0
 14 46  1  0
 20 47  1  0
 20 48  1  0
 21 49  1  0
 21 50  1  0
 22 51  1  0
 22 52  1  0
 23 53  1  0
 23 54  1  0
 24 55  1  0
 25 56  1  0
 27 57  1  0
 28 58  1  0
 29 59  1  0
 30 60  1  0
M  END
>  <UniqueID>  (23) 
20

>  <SMILES>  (23) 
O=C(Cn1cc(S(=O)(=O)N2CCCC2)c(S(=O)(=O)N2CCCC2)c1)Nc1ccccc1C(F)(F)F

>  <Energy>  (23) 
94.61981468302344

>  <Genealogy>  (23) 
O=C(Cn1cc(S(=O)(=O)N2CCCC2)c(S(=O)(=O)N2CCCC2)c1)Nc1ccccc1C(F)(F)F (3D coordinates assigned)
O=C(Cn1cc(S(=O)(=O)N2CCCC2)c(S(=O)(=O)N2CCCC2)c1)Nc1ccccc1C(F)(F)F (nonaromatic ring conformer: 94.61981468302344 kcal/mol)

>  <smiles>  (23) 
O=C(Cn1cc(S(=O)(=O)N2CCCC2)c(S(=O)(=O)N2CCCC2)c1)Nc1ccccc1C(F)(F)F

>  <score_type>  (23) 
oracle

>  <origin>  (23) 
adg

>  <m_score__min__energy>  (23) 
-9.5099999999999998

>  <m_primary>  (23) 
energy

$$$$
23:0
     RDKit          3D

 44 46  0  0  0  0  0  0  0  0999 V2000
   57.4050   31.6700   42.3230 C   0  0  0  0  0  0  0  0  0  0  0  0
   58.1460   32.0540   43.6000 C   0  0  0  0  0  0  0  0  0  0  0  0
   57.7690   33.4560   44.1080 C   0  0  0  0  0  0  0  0  0  0  0  0
   58.1220   33.7100   45.5570 C   0  0  0  0  0  0  0  0  0  0  0  0
   57.4340   34.5170   46.2400 O   0  0  0  0  0  0  0  0  0  0  0  0
   59.3450   33.1200   46.1630 C   0  0  0  0  0  0  0  0  0  0  0  0
   60.5470   33.8400   46.0460 C   0  0  0  0  0  0  0  0  0  0  0  0
   61.6070   33.5550   46.8380 N   0  0  0  0  0  0  0  0  0  0  0  0
   61.5690   32.5780   47.7760 C   0  0  0  0  0  0  0  0  0  0  0  0
   62.6890   32.3490   48.5940 C   0  0  0  0  0  0  0  0  0  0  0  0
   64.1460   33.3200   48.4270 Cl  0  0  0  0  0  0  0  0  0  0  0  0
   62.6530   31.3380   49.5580 C   0  0  0  0  0  0  0  0  0  0  0  0
   61.5110   30.5510   49.7080 C   0  0  0  0  0  0  0  0  0  0  0  0
   60.3970   30.7660   48.8970 C   0  0  0  0  0  0  0  0  0  0  0  0
   60.4050   31.7880   47.9220 C   0  0  0  0  0  0  0  0  0  0  0  0
   59.3050   32.0060   47.0550 C   0  0  0  0  0  0  0  0  0  0  0  0
   58.3170   31.1470   47.0910 N   0  0  0  0  0  0  0  0  0  0  0  0
   58.1650   29.9010   46.3980 C   0  0  0  0  0  0  0  0  0  0  0  0
   58.9820   28.8020   46.6900 C   0  0  0  0  0  0  0  0  0  0  0  0
   58.6940   27.5830   46.1630 N   0  0  0  0  0  0  0  0  0  0  0  0
   57.6190   27.4070   45.3460 C   0  0  0  0  0  0  0  0  0  0  0  0
   57.3360   26.2370   44.8530 N   0  0  0  0  0  0  0  0  0  0  0  0
   56.9860   25.0570   45.6410 C   0  0  0  0  0  0  0  0  0  0  0  0
   55.5710   25.1400   46.1210 C   0  0  0  0  0  0  0  0  0  0  0  0
   54.8320   26.3470   45.9540 N   0  0  0  0  0  0  0  0  0  0  0  0
   55.0330   24.1460   46.6800 O   0  0  0  0  0  0  0  0  0  0  0  0
   56.8120   28.4620   45.0590 N   0  0  0  0  0  0  0  0  0  0  0  0
   57.0540   29.6930   45.5790 C   0  0  0  0  0  0  0  0  0  0  0  0
   56.4561   31.1783   42.5834 H   0  0  0  0  0  0  0  0  0  0  0  0
   57.1990   32.5749   41.7324 H   0  0  0  0  0  0  0  0  0  0  0  0
   58.0255   30.9800   41.7324 H   0  0  0  0  0  0  0  0  0  0  0  0
   57.9030   31.3195   44.3820 H   0  0  0  0  0  0  0  0  0  0  0  0
   59.2215   32.0629   43.3694 H   0  0  0  0  0  0  0  0  0  0  0  0
   58.2947   34.1989   43.4902 H   0  0  0  0  0  0  0  0  0  0  0  0
   56.6744   33.5341   44.0326 H   0  0  0  0  0  0  0  0  0  0  0  0
   60.6270   34.6454   45.3011 H   0  0  0  0  0  0  0  0  0  0  0  0
   63.5282   31.1621   50.2008 H   0  0  0  0  0  0  0  0  0  0  0  0
   61.4891   29.7573   50.4693 H   0  0  0  0  0  0  0  0  0  0  0  0
   59.5046   30.1343   49.0176 H   0  0  0  0  0  0  0  0  0  0  0  0
   59.8566   28.9253   47.3457 H   0  0  0  0  0  0  0  0  0  0  0  0
   57.1032   24.1587   45.0170 H   0  0  0  0  0  0  0  0  0  0  0  0
   57.6525   25.0056   46.5145 H   0  0  0  0  0  0  0  0  0  0  0  0
   55.1590   27.0880   45.2950 H   0  0  0  0  0  0  0  0  0  0  0  0
   56.3734   30.5275   45.3544 H   0  0  0  0  0  0  0  0  0  0  0  0
  1  2  1  0
  2  3  1  0
  3  4  1  0
  4  5  2  0
  4  6  1  0
  6  7  2  0
  7  8  1  0
  8  9  1  0
  9 10  2  0
 10 11  1  0
 10 12  1  0
 12 13  2  0
 13 14  1  0
 14 15  2  0
 15 16  1  0
 16 17  2  3
 17 18  1  0
 18 19  1  0
 19 20  2  0
 20 21  1  0
 21 22  2  3
 22 23  1  0
 23 24  1  0
 24 25  1  0
 24 26  2  0
 21 27  1  0
 27 28  1  0
 16  6  1  0
 28 18  2  0
 15  9  1  0
  1 29  1  0
  1 30  1  0
  1 31  1  0
  2 32  1  0
  2 33  1  0
  3 34  1  0
  3 35  1  0
  7 36  1  0
 12 37  1  0
 13 38  1  0
 14 39  1  0
 19 40  1  0
 23 41  1  0
 23 42  1  0
 25 43  1  0
 28 44  1  0
M  CHG  3   8  -1  25  -1  27  -1
M  END
>  <UniqueID>  (24) 
21

>  <SMILES>  (24) 
CCCC(=O)c1c[n-]c2c(Cl)cccc2c1=Nc1cnc(=NCC([NH-])=O)[n-]c1

>  <Energy>  (24) 
67.80669815920118

>  <Genealogy>  (24) 
CCCC(=O)c1c[n-]c2c(Cl)cccc2c1=Nc1cnc(=NCC([NH-])=O)[n-]c1 (protonated)
CCCC(=O)c1c[n-]c2c(Cl)cccc2c1=Nc1cnc(=NCC([NH-])=O)[n-]c1 (3D coordinates assigned)
CCCC(=O)c1c[n-]c2c(Cl)cccc2c1=Nc1cnc(=NCC([NH-])=O)[n-]c1 (optimized conformer: 67.80669815920118 kcal/mol)

>  <smiles>  (24) 
CCCC(=O)c1c[nH]c2c(Cl)cccc2c1=Nc1cnc(=NCC(N)=O)[nH]c1

>  <score_type>  (24) 
oracle

>  <origin>  (24) 
adg

>  <m_score__min__energy>  (24) 
-13.720000000000001

>  <m_primary>  (24) 
energy

$$$$
24:0
     RDKit          3D

 38 39  0  0  0  0  0  0  0  0999 V2000
   58.5230   26.6160   44.1630 O   0  0  0  0  0  0  0  0  0  0  0  0
   58.3870   27.8230   44.4980 C   0  0  0  0  0  0  0  0  0  0  0  0
   59.4920   28.5570   44.9170 C   0  0  0  0  0  0  0  0  0  0  0  0
   59.3100   29.8880   45.2840 C   0  0  0  0  0  0  0  0  0  0  0  0
   58.0650   30.4540   45.2490 N   0  0  0  0  0  0  0  0  0  0  0  0
   57.8960   31.8580   45.6610 C   0  0  0  0  0  0  0  0  0  0  0  0
   57.7270   32.7980   44.4510 C   0  0  0  0  0  0  0  0  0  0  0  0
   57.6590   34.2860   44.8260 C   0  0  0  0  0  0  0  0  0  0  0  0
   59.2650   34.9570   45.3910 S   0  0  0  0  0  0  0  0  0  0  0  0
   58.9550   34.8890   47.1950 C   0  0  0  0  0  0  0  0  0  0  0  0
   59.9960   34.0370   47.8690 C   0  0  0  0  0  0  0  0  0  0  0  0
   59.7140   33.4260   49.0990 C   0  0  0  0  0  0  0  0  0  0  0  0
   60.6740   32.6340   49.7300 C   0  0  0  0  0  0  0  0  0  0  0  0
   61.9210   32.4340   49.1340 C   0  0  0  0  0  0  0  0  0  0  0  0
   62.2150   33.0130   47.8880 C   0  0  0  0  0  0  0  0  0  0  0  0
   63.5770   32.8180   47.2730 C   0  0  0  0  0  0  0  0  0  0  0  0
   63.7330   31.5040   46.8640 F   0  0  0  0  0  0  0  0  0  0  0  0
   64.5500   33.1140   48.2100 F   0  0  0  0  0  0  0  0  0  0  0  0
   63.7520   33.6370   46.1710 F   0  0  0  0  0  0  0  0  0  0  0  0
   61.2520   33.8340   47.2700 C   0  0  0  0  0  0  0  0  0  0  0  0
   56.9950   29.7130   44.8170 C   0  0  0  0  0  0  0  0  0  0  0  0
   55.8440   30.2270   44.7510 O   0  0  0  0  0  0  0  0  0  0  0  0
   57.1640   28.4120   44.4490 N   0  0  0  0  0  0  0  0  0  0  0  0
   60.4896   28.0953   44.9576 H   0  0  0  0  0  0  0  0  0  0  0  0
   60.1739   30.4888   45.6045 H   0  0  0  0  0  0  0  0  0  0  0  0
   57.0032   31.9360   46.2989 H   0  0  0  0  0  0  0  0  0  0  0  0
   58.8016   32.1640   46.2053 H   0  0  0  0  0  0  0  0  0  0  0  0
   58.5817   32.6496   43.7747 H   0  0  0  0  0  0  0  0  0  0  0  0
   56.7669   32.5426   43.9789 H   0  0  0  0  0  0  0  0  0  0  0  0
   57.3328   34.8552   43.9430 H   0  0  0  0  0  0  0  0  0  0  0  0
   56.9507   34.3819   45.6621 H   0  0  0  0  0  0  0  0  0  0  0  0
   58.9949   35.9072   47.6092 H   0  0  0  0  0  0  0  0  0  0  0  0
   57.9620   34.4502   47.3724 H   0  0  0  0  0  0  0  0  0  0  0  0
   58.7303   33.5718   49.5693 H   0  0  0  0  0  0  0  0  0  0  0  0
   60.4480   32.1659   50.6994 H   0  0  0  0  0  0  0  0  0  0  0  0
   62.6778   31.8193   49.6432 H   0  0  0  0  0  0  0  0  0  0  0  0
   61.4841   34.3204   46.3111 H   0  0  0  0  0  0  0  0  0  0  0  0
   56.3400   27.8570   44.1240 H   0  0  0  0  0  0  0  0  0  0  0  0
  1  2  2  0
  2  3  1  0
  3  4  2  0
  4  5  1  0
  5  6  1  0
  6  7  1  0
  7  8  1  0
  8  9  1  0
  9 10  1  0
 10 11  1  0
 11 12  2  0
 12 13  1  0
 13 14  2  0
 14 15  1  0
 15 16  1  0
 16 17  1  0
 16 18  1  0
 16 19  1  0
 15 20  2  0
  5 21  1  0
 21 22  2  0
 21 23  1  0
 23  2  1  0
 20 11  1  0
  3 24  1  0
  4 25  1  0
  6 26  1  0
  6 27  1  0
  7 28  1  0
  7 29  1  0
  8 30  1  0
  8 31  1  0
 10 32  1  0
 10 33  1  0
 12 34  1  0
 13 35  1  0
 14 36  1  0
 20 37  1  0
 23 38  1  0
M  END
>  <UniqueID>  (25) 
22

>  <SMILES>  (25) 
O=c1ccn(CCCSCc2cccc(C(F)(F)F)c2)c(=O)[nH]1

>  <Energy>  (25) 
32.56150990683862

>  <Genealogy>  (25) 
O=c1ccn(CCCSCc2cccc(C(F)(F)F)c2)c(=O)[nH]1 (3D coordinates assigned)
O=c1ccn(CCCSCc2cccc(C(F)(F)F)c2)c(=O)[nH]1 (optimized conformer: 32.56150990683862 kcal/mol)

>  <smiles>  (25) 
O=c1ccn(CCCSCc2cccc(C(F)(F)F)c2)c(=O)[nH]1

>  <score_type>  (25) 
oracle

>  <origin>  (25) 
adg

>  <m_score__min__energy>  (25) 
-7.7199999999999998

>  <m_primary>  (25) 
energy

$$$$
25:0
     RDKit          3D

 59 61  0  0  0  0  0  0  0  0999 V2000
   57.5106   20.9095   47.4811 H   0  0  0  0  0  0  0  0  0  0  0  0
   56.9740   21.7540   47.0240 C   0  0  0  0  0  0  0  0  0  0  0  0
   55.8530   21.6050   46.2920 N   0  0  0  0  0  0  0  0  0  0  0  0
   55.5270   22.8580   45.9220 C   0  0  0  0  0  0  0  0  0  0  0  0
   54.3920   23.1470   45.0300 C   0  0  0  0  0  0  0  0  0  0  0  0
   54.5530   23.9390   44.0620 O   0  0  0  0  0  0  0  0  0  0  0  0
   53.1030   22.5870   45.2850 N   0  0  0  0  0  0  0  0  0  0  0  0
   51.9360   23.3940   45.6100 C   0  0  0  0  0  0  0  0  0  0  0  0
   52.2148   24.1590   46.3496 H   0  0  0  0  0  0  0  0  0  0  0  0
   51.1499   22.7471   46.0266 H   0  0  0  0  0  0  0  0  0  0  0  0
   51.4160   24.0730   44.3510 C   0  0  0  0  0  0  0  0  0  0  0  0
   50.7691   24.9177   44.6305 H   0  0  0  0  0  0  0  0  0  0  0  0
   52.2646   24.4421   43.7563 H   0  0  0  0  0  0  0  0  0  0  0  0
   50.8385   23.3499   43.7563 H   0  0  0  0  0  0  0  0  0  0  0  0
   56.4610   23.7390   46.4520 C   0  0  0  0  0  0  0  0  0  0  0  0
   56.4660   25.2150   46.3980 C   0  0  0  0  0  0  0  0  0  0  0  0
   55.3770   25.8460   46.3660 O   0  0  0  0  0  0  0  0  0  0  0  0
   57.7090   25.9320   46.4740 N   0  0  0  0  0  0  0  0  0  0  0  0
   58.5570   25.4240   46.8150 H   0  0  0  0  0  0  0  0  0  0  0  0
   57.8300   27.3400   46.2100 C   0  0  0  0  0  0  0  0  0  0  0  0
   58.3630   28.1820   47.1970 C   0  0  0  0  0  0  0  0  0  0  0  0
   58.6738   27.7609   48.1645 H   0  0  0  0  0  0  0  0  0  0  0  0
   58.5020   29.5520   46.9600 C   0  0  0  0  0  0  0  0  0  0  0  0
   58.9063   30.2071   47.7457 H   0  0  0  0  0  0  0  0  0  0  0  0
   58.1280   30.0910   45.7260 C   0  0  0  0  0  0  0  0  0  0  0  0
   58.2650   31.4200   45.4940 N   0  0  0  0  0  0  0  0  0  0  0  0
   57.9420   32.0150   44.3140 C   0  0  0  0  0  0  0  0  0  0  0  0
   58.1260   33.3070   44.2520 N   0  0  0  0  0  0  0  0  0  0  0  0
   59.0350   34.2020   44.9650 C   0  0  0  0  0  0  0  0  0  0  0  0
   60.0375   33.7507   45.0018 H   0  0  0  0  0  0  0  0  0  0  0  0
   59.0817   35.1667   44.4385 H   0  0  0  0  0  0  0  0  0  0  0  0
   58.5270   34.4290   46.3920 C   0  0  0  0  0  0  0  0  0  0  0  0
   58.5381   35.5084   46.6035 H   0  0  0  0  0  0  0  0  0  0  0  0
   57.5093   34.0165   46.4555 H   0  0  0  0  0  0  0  0  0  0  0  0
   59.3870   33.7140   47.4380 C   0  0  0  0  0  0  0  0  0  0  0  0
   58.8999   33.7769   48.4223 H   0  0  0  0  0  0  0  0  0  0  0  0
   59.5060   32.6556   47.1629 H   0  0  0  0  0  0  0  0  0  0  0  0
   60.6530   34.3400   47.4940 O   0  0  0  0  0  0  0  0  0  0  0  0
   61.6880   33.3760   47.5820 C   0  0  0  0  0  0  0  0  0  0  0  0
   62.0306   33.2796   48.6228 H   0  0  0  0  0  0  0  0  0  0  0  0
   62.8460   33.8300   46.6930 C   0  0  0  0  0  0  0  0  0  0  0  0
   63.6852   34.1590   47.3235 H   0  0  0  0  0  0  0  0  0  0  0  0
   63.1708   32.9927   46.0579 H   0  0  0  0  0  0  0  0  0  0  0  0
   62.5152   34.6650   46.0579 H   0  0  0  0  0  0  0  0  0  0  0  0
   61.1680   32.0150   47.1130 C   0  0  0  0  0  0  0  0  0  0  0  0
   60.9300   31.3921   47.9878 H   0  0  0  0  0  0  0  0  0  0  0  0
   60.2611   32.1579   46.5070 H   0  0  0  0  0  0  0  0  0  0  0  0
   61.9391   31.5168   46.5070 H   0  0  0  0  0  0  0  0  0  0  0  0
   57.4370   31.1980   43.2500 C   0  0  0  0  0  0  0  0  0  0  0  0
   57.0490   31.7040   41.8830 C   0  0  0  0  0  0  0  0  0  0  0  0
   56.3828   32.5728   41.9891 H   0  0  0  0  0  0  0  0  0  0  0  0
   57.9534   32.0006   41.3315 H   0  0  0  0  0  0  0  0  0  0  0  0
   56.5279   30.9076   41.3315 H   0  0  0  0  0  0  0  0  0  0  0  0
   57.2800   29.8180   43.4870 C   0  0  0  0  0  0  0  0  0  0  0  0
   56.8829   29.1732   42.6892 H   0  0  0  0  0  0  0  0  0  0  0  0
   57.6210   29.2560   44.7200 C   0  0  0  0  0  0  0  0  0  0  0  0
   57.4740   27.8800   44.9610 C   0  0  0  0  0  0  0  0  0  0  0  0
   57.0797   27.2235   44.1714 H   0  0  0  0  0  0  0  0  0  0  0  0
   57.3770   23.0360   47.1440 N   0  0  0  0  0  0  0  0  0  0  0  0
  1  2  1  0
  2  3  2  0
  3  4  1  0
  4  5  1  0
  5  6  2  0
  5  7  1  0
  7  8  1  0
  8  9  1  0
  8 10  1  0
  8 11  1  0
 11 12  1  0
 11 13  1  0
 11 14  1  0
  4 15  2  0
 15 16  1  0
 16 17  2  0
 16 18  1  0
 18 19  1  0
 18 20  1  0
 20 21  2  0
 21 22  1  0
 21 23  1  0
 23 24  1  0
 23 25  2  0
 25 26  1  0
 26 27  1  0
 27 28  2  0
 28 29  1  0
 29 30  1  0
 29 31  1  0
 29 32  1  0
 32 33  1  0
 32 34  1  0
 32 35  1  0
 35 36  1  0
 35 37  1  0
 35 38  1  0
 38 39  1  0
 39 40  1  0
 39 41  1  0
 41 42  1  0
 41 43  1  0
 41 44  1  0
 39 45  1  0
 45 46  1  0
 45 47  1  0
 45 48  1  0
 27 49  1  0
 49 50  1  0
 50 51  1  0
 50 52  1  0
 50 53  1  0
 49 54  2  0
 54 55  1  0
 54 56  1  0
 56 57  2  0
 57 58  1  0
 15 59  1  0
 59  2  1  0
 57 20  1  0
 56 25  1  0
M  CHG  3   7  -1  26  -1  59  -1
M  END
>  <UniqueID>  (26) 
23

>  <SMILES>  (26) 
CC[N-]C(=O)c1nc[n-]c1C(=O)Nc1ccc2[n-]/c(=N/CCCOC(C)C)c(C)cc2c1

>  <Energy>  (26) 
95.5683664288251

>  <Genealogy>  (26) 
CC[N-]C(=O)c1nc[n-]c1C(=O)Nc1ccc2[n-]c(=NCCCOC(C)C)c(C)cc2c1 (protonated)
CC[N-]C(=O)c1nc[n-]c1C(=O)Nc1ccc2[n-]/c(=N/CCCOC(C)C)c(C)cc2c1 (cis-trans isomerization)
CC[N-]C(=O)c1nc[n-]c1C(=O)Nc1ccc2[n-]/c(=N/CCCOC(C)C)c(C)cc2c1 (3D coordinates assigned)
CC[N-]C(=O)c1nc[n-]c1C(=O)Nc1ccc2[n-]/c(=N/CCCOC(C)C)c(C)cc2c1 (optimized conformer: 95.5683664288251 kcal/mol)

>  <smiles>  (26) 
CCNC(=O)c1nc[nH]c1C(=O)Nc1ccc2[nH]c(=NCCCOC(C)C)c(C)cc2c1

>  <score_type>  (26) 
oracle

>  <origin>  (26) 
adg

>  <m_score__min__energy>  (26) 
-13.119999999999999

>  <m_primary>  (26) 
energy

$$$$
26:0
     RDKit          3D

 35 37  0  0  1  0  0  0  0  0999 V2000
   65.0890   33.2150   50.8130 C   0  0  0  0  0  0  0  0  0  0  0  0
   63.8360   33.8760   50.5100 N   0  0  0  0  0  0  0  0  0  0  0  0
   63.3180   33.8110   49.3430 C   0  0  0  0  0  0  0  0  0  0  0  0
   64.1090   33.4660   48.2590 C   0  0  0  0  0  0  0  0  0  0  0  0
   63.5340   33.4000   46.9950 C   0  0  0  0  0  0  0  0  0  0  0  0
   62.2220   33.6730   46.8620 N   0  0  0  0  0  0  0  0  0  0  0  0
   61.4480   34.0110   47.9180 C   0  0  0  0  0  0  0  0  0  0  0  0
   60.2050   34.2560   47.7050 N   0  0  0  0  0  0  0  0  0  0  0  0
   59.4680   33.3340   46.9090 C   0  0  0  0  0  0  0  0  0  0  0  0
   59.0150   32.1230   47.3850 C   0  0  0  0  0  0  0  0  0  0  0  0
   58.3080   31.3250   46.4940 C   0  0  0  0  0  0  0  0  0  0  0  0
   58.0580   31.7040   45.1920 C   0  0  0  0  0  0  0  0  0  0  0  0
   57.4090   31.1200   44.1480 C   0  0  0  0  0  0  0  0  0  0  0  0
   56.6220   29.5610   44.1620 S   0  0  0  0  0  0  0  0  0  0  0  0
   56.4460   28.9640   42.5600 N   0  0  0  0  0  0  0  0  0  0  0  0
   55.2760   29.7110   44.7710 O   0  0  0  0  0  0  0  0  0  0  0  0
   57.4150   28.6270   45.0340 O   0  0  0  0  0  0  0  0  0  0  0  0
   57.4600   31.9290   43.0880 N   0  0  0  0  0  0  0  0  0  0  0  0
   58.1390   33.0090   43.4770 C   0  0  0  0  0  0  0  0  0  0  0  0
   58.5260   32.9110   44.7640 N   0  0  0  0  0  0  0  0  0  0  0  0
   59.2130   33.7060   45.6000 C   0  0  0  0  0  0  0  0  0  0  0  0
   62.0120   34.0750   49.1520 N   0  0  0  0  0  0  0  0  0  0  0  0
   65.2143   33.1489   51.9038 H   0  0  0  0  0  0  0  0  0  0  0  0
   65.0830   32.2027   50.3826 H   0  0  0  0  0  0  0  0  0  0  0  0
   65.9211   33.7915   50.3826 H   0  0  0  0  0  0  0  0  0  0  0  0
   65.1782   33.2471   48.3968 H   0  0  0  0  0  0  0  0  0  0  0  0
   64.1406   33.1293   46.1182 H   0  0  0  0  0  0  0  0  0  0  0  0
   61.7770   33.6270   45.9180 H   0  0  0  0  0  0  0  0  0  0  0  0
   59.2039   31.8034   48.4204 H   0  0  0  0  0  0  0  0  0  0  0  0
   57.9324   30.3512   46.8414 H   0  0  0  0  0  0  0  0  0  0  0  0
   56.6210   27.9330   42.4960 H   0  0  0  0  0  0  0  0  0  0  0  0
   55.5020   29.2470   42.2180 H   0  0  0  0  0  0  0  0  0  0  0  0
   58.3558   33.8710   42.8290 H   0  0  0  0  0  0  0  0  0  0  0  0
   59.5821   34.6762   45.2361 H   0  0  0  0  0  0  0  0  0  0  0  0
   61.3900   34.3400   49.9620 H   0  0  0  0  0  0  0  0  0  0  0  0
  1  2  1  0
  2  3  2  0
  3  4  1  0
  4  5  2  0
  5  6  1  0
  6  7  1  0
  7  8  2  0
  8  9  1  0
  9 10  1  0
 10 11  2  0
 11 12  1  0
 12 13  2  0
 13 14  1  0
 14 15  1  0
 14 16  2  0
 14 17  2  0
 13 18  1  0
 18 19  2  0
 19 20  1  0
 20 21  1  0
  7 22  1  0
 22  3  1  0
 21  9  2  0
 20 12  1  0
  1 23  1  0
  1 24  1  0
  1 25  1  0
  4 26  1  0
  5 27  1  0
  6 28  1  0
 10 29  1  0
 11 30  1  0
 15 31  1  0
 15 32  1  0
 19 33  1  0
 21 34  1  0
 22 35  1  0
M  END
>  <smiles>  (27) 
CN=c1cc[nH]c(=Nc2ccc3c(S(N)(=O)=O)ncn3c2)[nH]1

>  <score_type>  (27) 
oracle

>  <origin>  (27) 
adg

>  <m_score__min__energy>  (27) 
-7.3300000000000001

>  <m_primary>  (27) 
energy

$$$$
27:0
     RDKit          3D

 48 50  0  0  0  0  0  0  0  0999 V2000
   60.6570   29.9640   46.3870 C   0  0  0  0  0  0  0  0  0  0  0  0
   60.7560   31.3520   46.6940 O   0  0  0  0  0  0  0  0  0  0  0  0
   61.7890   31.9290   47.4500 C   0  0  0  0  0  0  0  0  0  0  0  0
   62.3910   31.2550   48.5300 C   0  0  0  0  0  0  0  0  0  0  0  0
   63.4170   31.8660   49.2570 C   0  0  0  0  0  0  0  0  0  0  0  0
   63.8550   33.1440   48.9120 C   0  0  0  0  0  0  0  0  0  0  0  0
   63.2640   33.8220   47.8430 C   0  0  0  0  0  0  0  0  0  0  0  0
   62.2190   33.2240   47.1160 C   0  0  0  0  0  0  0  0  0  0  0  0
   61.6040   33.8890   46.0050 N   0  0  0  0  0  0  0  0  0  0  0  0
   60.2430   34.3340   45.9260 C   0  0  0  0  0  0  0  0  0  0  0  0
   59.9700   35.5650   46.0030 O   0  0  0  0  0  0  0  0  0  0  0  0
   59.1820   33.3510   45.9060 N   0  0  2  0  0  0  0  0  0  0  0  0
   58.5080   33.3580   44.5850 C   0  0  0  0  0  0  0  0  0  0  0  0
   57.8810   32.0200   44.2640 C   0  0  0  0  0  0  0  0  0  0  0  0
   57.3950   31.7520   42.9730 C   0  0  0  0  0  0  0  0  0  0  0  0
   56.8000   30.5190   42.6860 C   0  0  0  0  0  0  0  0  0  0  0  0
   56.6860   29.5470   43.6840 C   0  0  0  0  0  0  0  0  0  0  0  0
   57.1650   29.8070   44.9710 C   0  0  0  0  0  0  0  0  0  0  0  0
   57.7610   31.0390   45.2620 C   0  0  0  0  0  0  0  0  0  0  0  0
   58.2280   33.6180   47.0090 C   0  0  0  0  0  0  0  0  0  0  0  0
   58.8240   33.2730   48.3570 C   0  0  0  0  0  0  0  0  0  0  0  0
   58.6130   32.0030   48.9170 C   0  0  0  0  0  0  0  0  0  0  0  0
   59.2110   31.6610   50.1340 C   0  0  0  0  0  0  0  0  0  0  0  0
   60.0290   32.5810   50.7960 C   0  0  0  0  0  0  0  0  0  0  0  0
   60.6110   32.2470   51.9740 F   0  0  0  0  0  0  0  0  0  0  0  0
   60.2510   33.8440   50.2410 C   0  0  0  0  0  0  0  0  0  0  0  0
   59.6520   34.1910   49.0260 C   0  0  0  0  0  0  0  0  0  0  0  0
   60.6156   29.3840   47.3207 H   0  0  0  0  0  0  0  0  0  0  0  0
   59.7436   29.7822   45.8016 H   0  0  0  0  0  0  0  0  0  0  0  0
   61.5353   29.6544   45.8016 H   0  0  0  0  0  0  0  0  0  0  0  0
   62.0528   30.2444   48.8025 H   0  0  0  0  0  0  0  0  0  0  0  0
   63.8799   31.3372   50.1033 H   0  0  0  0  0  0  0  0  0  0  0  0
   64.6669   33.6190   49.4823 H   0  0  0  0  0  0  0  0  0  0  0  0
   63.6172   34.8271   47.5689 H   0  0  0  0  0  0  0  0  0  0  0  0
   59.6150   32.4070   46.0500 H   0  0  0  0  0  0  0  0  0  0  0  0
   57.7213   34.1269   44.5914 H   0  0  0  0  0  0  0  0  0  0  0  0
   59.2659   33.5720   43.8171 H   0  0  0  0  0  0  0  0  0  0  0  0
   57.4828   32.5147   42.1852 H   0  0  0  0  0  0  0  0  0  0  0  0
   56.4214   30.3141   41.6737 H   0  0  0  0  0  0  0  0  0  0  0  0
   56.2192   28.5773   43.4564 H   0  0  0  0  0  0  0  0  0  0  0  0
   57.0733   29.0421   45.7562 H   0  0  0  0  0  0  0  0  0  0  0  0
   58.1369   31.2400   46.2760 H   0  0  0  0  0  0  0  0  0  0  0  0
   57.9608   34.6850   46.9994 H   0  0  0  0  0  0  0  0  0  0  0  0
   57.3389   32.9889   46.8547 H   0  0  0  0  0  0  0  0  0  0  0  0
   57.9747   31.2740   48.3964 H   0  0  0  0  0  0  0  0  0  0  0  0
   59.0374   30.6665   50.5709 H   0  0  0  0  0  0  0  0  0  0  0  0
   60.8978   34.5663   50.7605 H   0  0  0  0  0  0  0  0  0  0  0  0
   59.8294   35.1861   48.5921 H   0  0  0  0  0  0  0  0  0  0  0  0
  1  2  1  0
  2  3  1  0
  3  4  2  0
  4  5  1  0
  5  6  2  0
  6  7  1  0
  7  8  2  0
  8  9  1  0
  9 10  1  0
 10 11  2  0
 10 12  1  0
 12 13  1  0
 13 14  1  0
 14 15  2  0
 15 16  1  0
 16 17  2  0
 17 18  1  0
 18 19  2  0
 12 20  1  0
 20 21  1  0
 21 22  2  0
 22 23  1  0
 23 24  2  0
 24 25  1  0
 24 26  1  0
 26 27  2  0
  8  3  1  0
 19 14  1  0
 27 21  1  0
  1 28  1  0
  1 29  1  0
  1 30  1  0
  4 31  1  0
  5 32  1  0
  6 33  1  0
  7 34  1  0
 12 35  1  1
 13 36  1  0
 13 37  1  0
 15 38  1  0
 16 39  1  0
 17 40  1  0
 18 41  1  0
 19 42  1  0
 20 43  1  0
 20 44  1  0
 22 45  1  0
 23 46  1  0
 26 47  1  0
 27 48  1  0
M  CHG  2   9  -1  12   1
M  END
>  <UniqueID>  (28) 
24

>  <SMILES>  (28) 
COc1ccccc1[N-]C(=O)[N@H+](Cc1ccccc1)Cc1ccc(F)cc1

>  <Energy>  (28) 
54.46760671093286

>  <Genealogy>  (28) 
COc1ccccc1[N-]C(=O)[NH+](Cc1ccccc1)Cc1ccc(F)cc1 (protonated)
COc1ccccc1[N-]C(=O)[N@H+](Cc1ccccc1)Cc1ccc(F)cc1 (chirality)
COc1ccccc1[N-]C(=O)[N@H+](Cc1ccccc1)Cc1ccc(F)cc1 (3D coordinates assigned)
COc1ccccc1[N-]C(=O)[N@H+](Cc1ccccc1)Cc1ccc(F)cc1 (optimized conformer: 54.46760671093286 kcal/mol)

>  <smiles>  (28) 
COc1ccccc1NC(=O)N(Cc1ccccc1)Cc1ccc(F)cc1

>  <score_type>  (28) 
oracle

>  <origin>  (28) 
adg

>  <m_score__min__energy>  (28) 
-8.7799999999999994

>  <m_primary>  (28) 
energy

$$$$
28:0
     RDKit          3D

 39 41  0  0  0  0  0  0  0  0999 V2000
   61.3870   31.3920   47.4400 C   0  0  0  0  0  0  0  0  0  0  0  0
   60.8050   32.6700   47.2060 O   0  0  0  0  0  0  0  0  0  0  0  0
   59.6790   32.8930   46.4000 C   0  0  0  0  0  0  0  0  0  0  0  0
   59.2510   34.1870   46.0450 C   0  0  0  0  0  0  0  0  0  0  0  0
   58.1220   34.3560   45.2400 C   0  0  0  0  0  0  0  0  0  0  0  0
   57.4100   33.2440   44.7840 C   0  0  0  0  0  0  0  0  0  0  0  0
   57.8210   31.9440   45.1270 C   0  0  0  0  0  0  0  0  0  0  0  0
   57.0670   30.7630   44.6460 C   0  0  0  0  0  0  0  0  0  0  0  0
   55.8160   30.8320   44.5030 O   0  0  0  0  0  0  0  0  0  0  0  0
   57.7520   29.5280   44.3920 N   0  0  0  0  0  0  0  0  0  0  0  0
   57.8780   28.4190   45.2950 C   0  0  0  0  0  0  0  0  0  0  0  0
   59.1240   28.1730   45.8850 C   0  0  0  0  0  0  0  0  0  0  0  0
   59.2960   27.0850   46.7440 C   0  0  0  0  0  0  0  0  0  0  0  0
   58.2270   26.2300   47.0160 C   0  0  0  0  0  0  0  0  0  0  0  0
   56.9690   26.4640   46.4340 C   0  0  0  0  0  0  0  0  0  0  0  0
   55.8660   25.5750   46.6530 N   0  0  0  0  0  0  0  0  0  0  0  0
   55.1820   24.8140   45.6490 C   0  0  0  0  0  0  0  0  0  0  0  0
   53.9270   24.8890   45.5800 O   0  0  0  0  0  0  0  0  0  0  0  0
   55.9020   23.8940   44.7510 C   0  0  0  0  0  0  0  0  0  0  0  0
   57.2580   23.6350   44.7780 C   0  0  0  0  0  0  0  0  0  0  0  0
   57.4850   22.7320   43.7610 C   0  0  0  0  0  0  0  0  0  0  0  0
   56.2580   22.5000   43.1750 C   0  0  0  0  0  0  0  0  0  0  0  0
   55.3360   23.2080   43.7850 O   0  0  0  0  0  0  0  0  0  0  0  0
   56.8080   27.5410   45.5520 C   0  0  0  0  0  0  0  0  0  0  0  0
   58.9600   31.7830   45.9390 C   0  0  0  0  0  0  0  0  0  0  0  0
   61.4662   31.2180   48.5233 H   0  0  0  0  0  0  0  0  0  0  0  0
   60.7548   30.6130   46.9888 H   0  0  0  0  0  0  0  0  0  0  0  0
   62.3896   31.3575   46.9888 H   0  0  0  0  0  0  0  0  0  0  0  0
   59.8069   35.0663   46.4024 H   0  0  0  0  0  0  0  0  0  0  0  0
   57.7924   35.3685   44.9641 H   0  0  0  0  0  0  0  0  0  0  0  0
   56.5211   33.3866   44.1518 H   0  0  0  0  0  0  0  0  0  0  0  0
   59.9719   28.8402   45.6708 H   0  0  0  0  0  0  0  0  0  0  0  0
   60.2767   26.9016   47.2073 H   0  0  0  0  0  0  0  0  0  0  0  0
   58.3692   25.3706   47.6877 H   0  0  0  0  0  0  0  0  0  0  0  0
   58.0022   24.0605   45.4673 H   0  0  0  0  0  0  0  0  0  0  0  0
   58.4493   22.2868   43.4749 H   0  0  0  0  0  0  0  0  0  0  0  0
   56.0792   21.8244   42.3256 H   0  0  0  0  0  0  0  0  0  0  0  0
   55.8388   27.7015   45.0570 H   0  0  0  0  0  0  0  0  0  0  0  0
   59.2899   30.7707   46.2153 H   0  0  0  0  0  0  0  0  0  0  0  0
  1  2  1  0
  2  3  1  0
  3  4  2  0
  4  5  1  0
  5  6  2  0
  6  7  1  0
  7  8  1  0
  8  9  2  0
  8 10  1  0
 10 11  1  0
 11 12  2  0
 12 13  1  0
 13 14  2  0
 14 15  1  0
 15 16  1  0
 16 17  1  0
 17 18  2  0
 17 19  1  0
 19 20  2  0
 20 21  1  0
 21 22  2  0
 22 23  1  0
 15 24  2  0
  7 25  2  0
 25  3  1  0
 24 11  1  0
 23 19  1  0
  1 26  1  0
  1 27  1  0
  1 28  1  0
  4 29  1  0
  5 30  1  0
  6 31  1  0
 12 32  1  0
 13 33  1  0
 14 34  1  0
 20 35  1  0
 21 36  1  0
 22 37  1  0
 24 38  1  0
 25 39  1  0
M  CHG  2  10  -1  16  -1
M  END
>  <UniqueID>  (29) 
25

>  <SMILES>  (29) 
COc1cccc(C(=O)[N-]c2cccc([N-]C(=O)c3ccco3)c2)c1

>  <Energy>  (29) 
75.62332973020088

>  <Genealogy>  (29) 
COc1cccc(C(=O)[N-]c2cccc([N-]C(=O)c3ccco3)c2)c1 (protonated)
COc1cccc(C(=O)[N-]c2cccc([N-]C(=O)c3ccco3)c2)c1 (3D coordinates assigned)
COc1cccc(C(=O)[N-]c2cccc([N-]C(=O)c3ccco3)c2)c1 (optimized conformer: 75.62332973020088 kcal/mol)

>  <smiles>  (29) 
COc1cccc(C(=O)Nc2cccc(NC(=O)c3ccco3)c2)c1

>  <score_type>  (29) 
oracle

>  <origin>  (29) 
adg

>  <m_score__min__energy>  (29) 
-11.09

>  <m_primary>  (29) 
energy

$$$$
29:0
     RDKit          3D

 35 37  0  0  0  0  0  0  0  0999 V2000
   55.5390   26.5360   46.0110 O   0  0  0  0  0  0  0  0  0  0  0  0
   56.7440   26.9080   46.0540 C   0  0  0  0  0  0  0  0  0  0  0  0
   57.7160   26.1040   46.7420 N   0  0  0  0  0  0  0  0  0  0  0  0
   57.5410   24.7080   47.0220 C   0  0  0  0  0  0  0  0  0  0  0  0
   57.7360   23.6760   46.1350 C   0  0  0  0  0  0  0  0  0  0  0  0
   57.4140   22.5200   46.7460 N   0  0  0  0  0  0  0  0  0  0  0  0
   57.0140   22.7880   47.9820 N   0  0  0  0  0  0  0  0  0  0  0  0
   57.0770   24.1190   48.1790 C   0  0  0  0  0  0  0  0  0  0  0  0
   57.1280   28.2000   45.4320 C   0  0  0  0  0  0  0  0  0  0  0  0
   58.4380   28.6900   45.5720 C   0  0  0  0  0  0  0  0  0  0  0  0
   58.8090   29.9080   44.9940 C   0  0  0  0  0  0  0  0  0  0  0  0
   57.8700   30.6630   44.2680 C   0  0  0  0  0  0  0  0  0  0  0  0
   58.1910   31.8900   43.6680 O   0  0  0  0  0  0  0  0  0  0  0  0
   57.6830   33.1520   44.0950 C   0  0  0  0  0  0  0  0  0  0  0  0
   58.2970   33.5070   45.4120 C   0  0  0  0  0  0  0  0  0  0  0  0
   59.1890   34.5840   45.5160 C   0  0  0  0  0  0  0  0  0  0  0  0
   59.7230   34.9130   46.7640 C   0  0  0  0  0  0  0  0  0  0  0  0
   59.3560   34.1760   47.8920 C   0  0  0  0  0  0  0  0  0  0  0  0
   58.4540   33.1190   47.7540 C   0  0  0  0  0  0  0  0  0  0  0  0
   57.9460   32.8130   46.5310 N   0  0  0  0  0  0  0  0  0  0  0  0
   56.5640   30.1810   44.1360 C   0  0  0  0  0  0  0  0  0  0  0  0
   56.1920   28.9640   44.7130 C   0  0  0  0  0  0  0  0  0  0  0  0
   58.5750   26.5650   47.1170 H   0  0  0  0  0  0  0  0  0  0  0  0
   58.0948   23.7775   45.1001 H   0  0  0  0  0  0  0  0  0  0  0  0
   56.8046   24.6462   49.1052 H   0  0  0  0  0  0  0  0  0  0  0  0
   59.1786   28.1096   46.1418 H   0  0  0  0  0  0  0  0  0  0  0  0
   59.8390   30.2772   45.1074 H   0  0  0  0  0  0  0  0  0  0  0  0
   57.9363   33.9217   43.3511 H   0  0  0  0  0  0  0  0  0  0  0  0
   56.5895   33.0950   44.1995 H   0  0  0  0  0  0  0  0  0  0  0  0
   59.4655   35.1642   44.6233 H   0  0  0  0  0  0  0  0  0  0  0  0
   60.4305   35.7500   46.8581 H   0  0  0  0  0  0  0  0  0  0  0  0
   59.7731   34.4255   48.8788 H   0  0  0  0  0  0  0  0  0  0  0  0
   58.1543   32.5336   48.6357 H   0  0  0  0  0  0  0  0  0  0  0  0
   55.8221   30.7657   43.5723 H   0  0  0  0  0  0  0  0  0  0  0  0
   55.1594   28.6010   44.6039 H   0  0  0  0  0  0  0  0  0  0  0  0
  1  2  2  0
  2  3  1  0
  3  4  1  0
  4  5  1  0
  5  6  2  0
  6  7  1  0
  7  8  1  0
  2  9  1  0
  9 10  2  0
 10 11  1  0
 11 12  2  0
 12 13  1  0
 13 14  1  0
 14 15  1  0
 15 16  2  0
 16 17  1  0
 17 18  2  0
 18 19  1  0
 19 20  2  0
 12 21  1  0
 21 22  2  0
  8  4  2  0
 22  9  1  0
 20 15  1  0
  3 23  1  0
  5 24  1  0
  8 25  1  0
 10 26  1  0
 11 27  1  0
 14 28  1  0
 14 29  1  0
 16 30  1  0
 17 31  1  0
 18 32  1  0
 19 33  1  0
 21 34  1  0
 22 35  1  0
M  CHG  1   7  -1
M  END
>  <UniqueID>  (30) 
26

>  <SMILES>  (30) 
O=C(Nc1cn[n-]c1)c1ccc(OCc2ccccn2)cc1

>  <Energy>  (30) 
71.61892033265563

>  <Genealogy>  (30) 
O=C(Nc1cn[n-]c1)c1ccc(OCc2ccccn2)cc1 (protonated)
O=C(Nc1cn[n-]c1)c1ccc(OCc2ccccn2)cc1 (3D coordinates assigned)
O=C(Nc1cn[n-]c1)c1ccc(OCc2ccccn2)cc1 (optimized conformer: 71.61892033265563 kcal/mol)

>  <smiles>  (30) 
O=C(Nc1cn[nH]c1)c1ccc(OCc2ccccn2)cc1

>  <score_type>  (30) 
oracle

>  <origin>  (30) 
adg

>  <m_score__min__energy>  (30) 
-8.8200000000000003

>  <m_primary>  (30) 
energy

$$$$
30:0
     RDKit          3D

 38 40  0  0  0  0  0  0  0  0999 V2000
   59.2960   31.2790   49.0500 C   0  0  0  0  0  0  0  0  0  0  0  0
   59.0940   32.5440   48.4290 O   0  0  0  0  0  0  0  0  0  0  0  0
   58.5380   32.7220   47.1530 C   0  0  0  0  0  0  0  0  0  0  0  0
   58.3900   33.9920   46.5660 C   0  0  0  0  0  0  0  0  0  0  0  0
   57.8480   34.1140   45.2840 C   0  0  0  0  0  0  0  0  0  0  0  0
   57.4420   32.9770   44.5830 C   0  0  0  0  0  0  0  0  0  0  0  0
   57.5570   31.7080   45.1620 C   0  0  0  0  0  0  0  0  0  0  0  0
   57.1460   30.5650   44.3980 N   0  0  0  0  0  0  0  0  0  0  0  0
   56.3880   29.4460   44.8780 C   0  0  0  0  0  0  0  0  0  0  0  0
   55.1290   29.4690   44.8600 O   0  0  0  0  0  0  0  0  0  0  0  0
   57.0940   28.2420   45.3430 C   0  0  0  0  0  0  0  0  0  0  0  0
   58.7680   28.0500   45.3630 S   0  0  0  0  0  0  0  0  0  0  0  0
   58.6960   26.5020   46.0100 C   0  0  0  0  0  0  0  0  0  0  0  0
   60.0270   25.6110   46.3610 S   0  0  0  0  0  0  0  0  0  0  0  0
   57.4110   26.1050   46.2170 N   0  0  0  0  0  0  0  0  0  0  0  0
   57.0050   24.8300   46.8190 C   0  0  0  0  0  0  0  0  0  0  0  0
   55.9340   24.1830   45.9890 C   0  0  0  0  0  0  0  0  0  0  0  0
   54.6450   24.1040   46.3670 N   0  0  0  0  0  0  0  0  0  0  0  0
   54.0430   23.4660   45.3420 C   0  0  0  0  0  0  0  0  0  0  0  0
   54.8820   23.1380   44.3370 N   0  0  0  0  0  0  0  0  0  0  0  0
   56.0760   23.5930   44.7510 C   0  0  0  0  0  0  0  0  0  0  0  0
   57.3380   23.4560   43.9600 C   0  0  0  0  0  0  0  0  0  0  0  0
   56.5210   27.0770   45.8540 C   0  0  0  0  0  0  0  0  0  0  0  0
   55.1470   26.9130   45.9920 O   0  0  0  0  0  0  0  0  0  0  0  0
   58.1260   31.5860   46.4430 C   0  0  0  0  0  0  0  0  0  0  0  0
   59.2767   31.3999   50.1432 H   0  0  0  0  0  0  0  0  0  0  0  0
   58.4968   30.5882   48.7433 H   0  0  0  0  0  0  0  0  0  0  0  0
   60.2706   30.8714   48.7433 H   0  0  0  0  0  0  0  0  0  0  0  0
   58.7018   34.8911   47.1177 H   0  0  0  0  0  0  0  0  0  0  0  0
   57.7409   35.1083   44.8259 H   0  0  0  0  0  0  0  0  0  0  0  0
   57.0289   33.0792   43.5687 H   0  0  0  0  0  0  0  0  0  0  0  0
   57.8761   24.1605   46.8744 H   0  0  0  0  0  0  0  0  0  0  0  0
   56.6119   25.0187   47.8289 H   0  0  0  0  0  0  0  0  0  0  0  0
   52.9677   23.2345   45.3268 H   0  0  0  0  0  0  0  0  0  0  0  0
   58.1926   23.3632   44.6463 H   0  0  0  0  0  0  0  0  0  0  0  0
   57.2778   22.5591   43.3260 H   0  0  0  0  0  0  0  0  0  0  0  0
   57.4717   24.3449   43.3260 H   0  0  0  0  0  0  0  0  0  0  0  0
   58.2487   30.5892   46.8917 H   0  0  0  0  0  0  0  0  0  0  0  0
  1  2  1  0
  2  3  1  0
  3  4  2  0
  4  5  1  0
  5  6  2  0
  6  7  1  0
  7  8  1  0
  8  9  1  0
  9 10  2  0
  9 11  1  0
 11 12  1  0
 12 13  1  0
 13 14  2  0
 13 15  1  0
 15 16  1  0
 16 17  1  0
 17 18  1  0
 18 19  2  0
 19 20  1  0
 20 21  1  0
 21 22  1  0
 15 23  1  0
 23 24  1  0
  7 25  2  0
 25  3  1  0
 23 11  2  0
 21 17  2  0
  1 26  1  0
  1 27  1  0
  1 28  1  0
  4 29  1  0
  5 30  1  0
  6 31  1  0
 16 32  1  0
 16 33  1  0
 19 34  1  0
 22 35  1  0
 22 36  1  0
 22 37  1  0
 25 38  1  0
M  CHG  3   8  -1  20  -1  24  -1
M  END
>  <UniqueID>  (31) 
27

>  <SMILES>  (31) 
COc1cccc([N-]C(=O)c2sc(=S)n(Cc3nc[n-]c3C)c2[O-])c1

>  <Energy>  (31) 
100.37575046739241

>  <Genealogy>  (31) 
COc1cccc([N-]C(=O)c2sc(=S)n(Cc3nc[n-]c3C)c2[O-])c1 (protonated)
COc1cccc([N-]C(=O)c2sc(=S)n(Cc3nc[n-]c3C)c2[O-])c1 (3D coordinates assigned)
COc1cccc([N-]C(=O)c2sc(=S)n(Cc3nc[n-]c3C)c2[O-])c1 (optimized conformer: 100.37575046739241 kcal/mol)

>  <smiles>  (31) 
COc1cccc(NC(=O)c2sc(=S)n(Cc3nc[nH]c3C)c2O)c1

>  <score_type>  (31) 
oracle

>  <origin>  (31) 
adg

>  <m_score__min__energy>  (31) 
-14.539999999999999

>  <m_primary>  (31) 
energy

$$$$
31:0
     RDKit          3D

 34 35  0  0  0  0  0  0  0  0999 V2000
   56.7230   22.1060   42.3720 N   0  0  0  0  0  0  0  0  0  0  0  0
   57.3790   21.9210   43.6290 C   0  0  0  0  0  0  0  0  0  0  0  0
   57.6370   20.7190   44.0520 N   0  0  0  0  0  0  0  0  0  0  0  0
   57.6720   23.0710   44.4410 N   0  0  0  0  0  0  0  0  0  0  0  0
   58.8220   23.1890   45.2880 C   0  0  0  0  0  0  0  0  0  0  0  0
   59.7380   22.3220   45.2490 O   0  0  0  0  0  0  0  0  0  0  0  0
   58.9040   24.2760   46.1680 O   0  0  0  0  0  0  0  0  0  0  0  0
   58.3380   25.5420   45.9520 C   0  0  0  0  0  0  0  0  0  0  0  0
   59.0940   26.6360   45.4950 C   0  0  0  0  0  0  0  0  0  0  0  0
   58.4830   27.8760   45.2850 C   0  0  0  0  0  0  0  0  0  0  0  0
   57.1090   28.0410   45.5320 C   0  0  0  0  0  0  0  0  0  0  0  0
   56.4580   29.2650   45.3200 O   0  0  0  0  0  0  0  0  0  0  0  0
   56.9130   30.2950   44.4830 C   0  0  0  0  0  0  0  0  0  0  0  0
   57.5950   31.4190   44.9880 C   0  0  0  0  0  0  0  0  0  0  0  0
   58.0180   32.4320   44.1230 C   0  0  0  0  0  0  0  0  0  0  0  0
   57.7540   32.3390   42.7530 C   0  0  0  0  0  0  0  0  0  0  0  0
   57.0610   31.2350   42.2490 C   0  0  0  0  0  0  0  0  0  0  0  0
   56.6360   30.2200   43.1120 C   0  0  0  0  0  0  0  0  0  0  0  0
   56.3520   26.9410   45.9490 C   0  0  0  0  0  0  0  0  0  0  0  0
   56.9620   25.7000   46.1590 C   0  0  0  0  0  0  0  0  0  0  0  0
   56.4700   21.2900   41.7710 H   0  0  0  0  0  0  0  0  0  0  0  0
   56.4950   23.0670   42.0340 H   0  0  0  0  0  0  0  0  0  0  0  0
   58.4800   20.5300   44.6390 H   0  0  0  0  0  0  0  0  0  0  0  0
   57.0420   19.9050   43.7860 H   0  0  0  0  0  0  0  0  0  0  0  0
   57.0700   23.9160   44.3270 H   0  0  0  0  0  0  0  0  0  0  0  0
   60.1702   26.5158   45.3020 H   0  0  0  0  0  0  0  0  0  0  0  0
   59.0804   28.7265   44.9248 H   0  0  0  0  0  0  0  0  0  0  0  0
   57.7954   31.4999   46.0666 H   0  0  0  0  0  0  0  0  0  0  0  0
   58.5592   33.3034   44.5203 H   0  0  0  0  0  0  0  0  0  0  0  0
   58.0916   33.1344   42.0723 H   0  0  0  0  0  0  0  0  0  0  0  0
   56.8495   31.1643   41.1718 H   0  0  0  0  0  0  0  0  0  0  0  0
   56.0814   29.3583   42.7121 H   0  0  0  0  0  0  0  0  0  0  0  0
   55.2700   27.0528   46.1128 H   0  0  0  0  0  0  0  0  0  0  0  0
   56.3570   24.8426   46.4889 H   0  0  0  0  0  0  0  0  0  0  0  0
  1  2  1  0
  2  3  2  0
  2  4  1  0
  4  5  1  0
  5  6  2  0
  5  7  1  0
  7  8  1  0
  8  9  2  0
  9 10  1  0
 10 11  2  0
 11 12  1  0
 12 13  1  0
 13 14  2  0
 14 15  1  0
 15 16  2  0
 16 17  1  0
 17 18  2  0
 11 19  1  0
 19 20  2  0
 20  8  1  0
 18 13  1  0
  1 21  1  0
  1 22  1  0
  3 23  1  0
  3 24  1  0
  4 25  1  0
  9 26  1  0
 10 27  1  0
 14 28  1  0
 15 29  1  0
 16 30  1  0
 17 31  1  0
 18 32  1  0
 19 33  1  0
 20 34  1  0
M  CHG  1   3   1
M  END
>  <UniqueID>  (32) 
28

>  <SMILES>  (32) 
NC(=[NH2+])NC(=O)Oc1ccc(Oc2ccccc2)cc1

>  <Energy>  (32) 
45.818025779564785

>  <Genealogy>  (32) 
NC(=[NH2+])NC(=O)Oc1ccc(Oc2ccccc2)cc1 (protonated)
NC(=[NH2+])NC(=O)Oc1ccc(Oc2ccccc2)cc1 (3D coordinates assigned)
NC(=[NH2+])NC(=O)Oc1ccc(Oc2ccccc2)cc1 (optimized conformer: 45.818025779564785 kcal/mol)

>  <smiles>  (32) 
N=C(N)NC(=O)Oc1ccc(Oc2ccccc2)cc1

>  <score_type>  (32) 
oracle

>  <origin>  (32) 
adg

>  <m_score__min__energy>  (32) 
-6.0300000000000002

>  <m_primary>  (32) 
energy

$$$$
32:0
     RDKit          3D

 58 61  0  0  0  0  0  0  0  0999 V2000
   58.5320   20.8800   46.1794 H   0  0  0  0  0  0  0  0  0  0  0  0
   57.8870   21.7130   45.8630 C   0  0  0  0  0  0  0  0  0  0  0  0
   57.3260   22.5780   46.7490 N   0  0  0  0  0  0  0  0  0  0  0  0
   56.5750   23.5110   46.1240 C   0  0  0  0  0  0  0  0  0  0  0  0
   55.9260   24.4680   46.7230 N   0  0  0  0  0  0  0  0  0  0  0  0
   55.8590   25.8630   46.3800 C   0  0  0  0  0  0  0  0  0  0  0  0
   54.7620   26.3230   45.9660 O   0  0  0  0  0  0  0  0  0  0  0  0
   57.0120   26.8160   46.5430 C   0  0  0  0  0  0  0  0  0  0  0  0
   57.7273   26.3970   47.2660 H   0  0  0  0  0  0  0  0  0  0  0  0
   56.6253   27.7805   46.9038 H   0  0  0  0  0  0  0  0  0  0  0  0
   57.8590   27.0830   44.9480 S   0  0  0  0  0  0  0  0  0  0  0  0
   57.2370   28.7540   44.7320 C   0  0  0  0  0  0  0  0  0  0  0  0
   55.9290   29.0630   44.7570 N   0  0  0  0  0  0  0  0  0  0  0  0
   55.8390   30.3710   44.5610 N   0  0  0  0  0  0  0  0  0  0  0  0
   57.0960   30.8390   44.4300 C   0  0  0  0  0  0  0  0  0  0  0  0
   57.4070   32.2780   44.1260 C   0  0  0  0  0  0  0  0  0  0  0  0
   58.0871   32.3257   43.2627 H   0  0  0  0  0  0  0  0  0  0  0  0
   56.4667   32.8027   43.9012 H   0  0  0  0  0  0  0  0  0  0  0  0
   58.0610   32.9430   45.3070 C   0  0  0  0  0  0  0  0  0  0  0  0
   57.7870   32.4970   46.6120 C   0  0  0  0  0  0  0  0  0  0  0  0
   57.0959   31.6557   46.7690 H   0  0  0  0  0  0  0  0  0  0  0  0
   58.3890   33.1180   47.7120 C   0  0  0  0  0  0  0  0  0  0  0  0
   58.1681   32.7665   48.7306 H   0  0  0  0  0  0  0  0  0  0  0  0
   59.2710   34.1850   47.5170 C   0  0  0  0  0  0  0  0  0  0  0  0
   59.7416   34.6745   48.3824 H   0  0  0  0  0  0  0  0  0  0  0  0
   59.5550   34.6300   46.2230 C   0  0  0  0  0  0  0  0  0  0  0  0
   60.2515   35.4678   46.0714 H   0  0  0  0  0  0  0  0  0  0  0  0
   58.9560   34.0130   45.1210 C   0  0  0  0  0  0  0  0  0  0  0  0
   59.1851   34.3652   44.1044 H   0  0  0  0  0  0  0  0  0  0  0  0
   58.0040   29.8430   44.5240 N   0  0  0  0  0  0  0  0  0  0  0  0
   59.4680   29.9270   44.4930 C   0  0  0  0  0  0  0  0  0  0  0  0
   59.7706   30.9692   44.6725 H   0  0  0  0  0  0  0  0  0  0  0  0
   59.8136   29.5846   43.5064 H   0  0  0  0  0  0  0  0  0  0  0  0
   60.1030   29.0310   45.5650 C   0  0  0  0  0  0  0  0  0  0  0  0
   61.0587   28.6416   45.1842 H   0  0  0  0  0  0  0  0  0  0  0  0
   59.4039   28.2109   45.7855 H   0  0  0  0  0  0  0  0  0  0  0  0
   60.3580   29.7880   46.8420 C   0  0  0  0  0  0  0  0  0  0  0  0
   59.6100   29.5040   47.9910 C   0  0  0  0  0  0  0  0  0  0  0  0
   58.8684   28.6918   47.9744 H   0  0  0  0  0  0  0  0  0  0  0  0
   59.8010   30.2470   49.1580 C   0  0  0  0  0  0  0  0  0  0  0  0
   59.2142   30.0107   50.0579 H   0  0  0  0  0  0  0  0  0  0  0  0
   60.7390   31.2960   49.1910 C   0  0  0  0  0  0  0  0  0  0  0  0
   60.9530   32.0690   50.3430 O   0  0  0  0  0  0  0  0  0  0  0  0
   60.5840   33.4370   50.4760 C   0  0  0  0  0  0  0  0  0  0  0  0
   60.5142   33.6959   51.5428 H   0  0  0  0  0  0  0  0  0  0  0  0
   61.3435   34.0702   49.9940 H   0  0  0  0  0  0  0  0  0  0  0  0
   59.6092   33.6024   49.9940 H   0  0  0  0  0  0  0  0  0  0  0  0
   61.4860   31.5930   48.0400 C   0  0  0  0  0  0  0  0  0  0  0  0
   62.4020   32.6570   48.0960 O   0  0  0  0  0  0  0  0  0  0  0  0
   63.3850   32.9260   47.1030 C   0  0  0  0  0  0  0  0  0  0  0  0
   64.3364   33.1863   47.5899 H   0  0  0  0  0  0  0  0  0  0  0  0
   63.5263   32.0335   46.4757 H   0  0  0  0  0  0  0  0  0  0  0  0
   63.0522   33.7661   46.4757 H   0  0  0  0  0  0  0  0  0  0  0  0
   61.2960   30.8320   46.8700 C   0  0  0  0  0  0  0  0  0  0  0  0
   61.8877   31.0577   45.9706 H   0  0  0  0  0  0  0  0  0  0  0  0
   56.5830   23.3070   44.4570 S   0  0  0  0  0  0  0  0  0  0  0  0
   57.5860   21.9580   44.5270 C   0  0  0  0  0  0  0  0  0  0  0  0
   57.9417   21.3721   43.6667 H   0  0  0  0  0  0  0  0  0  0  0  0
  1  2  1  0
  2  3  1  0
  3  4  1  0
  4  5  2  0
  5  6  1  0
  6  7  2  0
  6  8  1  0
  8  9  1  0
  8 10  1  0
  8 11  1  0
 11 12  1  0
 12 13  2  0
 13 14  1  0
 14 15  2  0
 15 16  1  0
 16 17  1  0
 16 18  1  0
 16 19  1  0
 19 20  2  0
 20 21  1  0
 20 22  1  0
 22 23  1  0
 22 24  2  0
 24 25  1  0
 24 26  1  0
 26 27  1  0
 26 28  2  0
 28 29  1  0
 15 30  1  0
 30 31  1  0
 31 32  1  0
 31 33  1  0
 31 34  1  0
 34 35  1  0
 34 36  1  0
 34 37  1  0
 37 38  2  0
 38 39  1  0
 38 40  1  0
 40 41  1  0
 40 42  2  0
 42 43  1  0
 43 44  1  0
 44 45  1  0
 44 46  1  0
 44 47  1  0
 42 48  1  0
 48 49  1  0
 49 50  1  0
 50 51  1  0
 50 52  1  0
 50 53  1  0
 48 54  2  0
 54 55  1  0
  4 56  1  0
 56 57  1  0
 57 58  1  0
 57  2  2  0
 30 12  1  0
 54 37  1  0
 28 19  1  0
M  CHG  1   3  -1
M  END
>  <UniqueID>  (33) 
29

>  <SMILES>  (33) 
COc1ccc(CCn2c(Cc3ccccc3)nnc2SCC(=O)/N=c2\[n-]ccs2)cc1OC

>  <Energy>  (33) 
117.59981118774388

>  <Genealogy>  (33) 
COc1ccc(CCn2c(Cc3ccccc3)nnc2SCC(=O)N=c2[n-]ccs2)cc1OC (protonated)
COc1ccc(CCn2c(Cc3ccccc3)nnc2SCC(=O)/N=c2\[n-]ccs2)cc1OC (cis-trans isomerization)
COc1ccc(CCn2c(Cc3ccccc3)nnc2SCC(=O)/N=c2\[n-]ccs2)cc1OC (3D coordinates assigned)
COc1ccc(CCn2c(Cc3ccccc3)nnc2SCC(=O)/N=c2\[n-]ccs2)cc1OC (optimized conformer: 117.59981118774388 kcal/mol)

>  <smiles>  (33) 
COc1ccc(CCn2c(Cc3ccccc3)nnc2SCC(=O)N=c2[nH]ccs2)cc1OC

>  <score_type>  (33) 
oracle

>  <origin>  (33) 
adg

>  <m_score__min__energy>  (33) 
-11.52

>  <m_primary>  (33) 
energy

$$$$
33:0
     RDKit          3D

 49 50  0  0  0  0  0  0  0  0999 V2000
   59.7930   32.1420   51.4770 C   0  0  0  0  0  0  0  0  0  0  0  0
   59.9800   31.5600   50.1070 C   0  0  0  0  0  0  0  0  0  0  0  0
   58.8960   30.9860   49.4280 C   0  0  0  0  0  0  0  0  0  0  0  0
   59.0730   30.4250   48.1580 C   0  0  0  0  0  0  0  0  0  0  0  0
   60.3390   30.4270   47.5590 C   0  0  0  0  0  0  0  0  0  0  0  0
   60.5760   29.7270   45.9220 S   0  0  0  0  0  0  0  0  0  0  0  0
   59.1480   28.6290   46.0330 C   0  0  0  0  0  0  0  0  0  0  0  0
   59.3220   27.4270   46.7270 C   0  0  0  0  0  0  0  0  0  0  0  0
   58.2690   26.5220   46.8650 C   0  0  0  0  0  0  0  0  0  0  0  0
   57.0140   26.8030   46.3070 C   0  0  0  0  0  0  0  0  0  0  0  0
   55.9310   25.8570   46.4220 N   0  0  0  0  0  0  0  0  0  0  0  0
   56.0640   24.8190   47.1020 O   0  0  0  0  0  0  0  0  0  0  0  0
   54.7480   26.0620   45.7500 O   0  0  0  0  0  0  0  0  0  0  0  0
   56.8360   28.0040   45.6010 C   0  0  0  0  0  0  0  0  0  0  0  0
   57.8930   28.9150   45.4400 C   0  0  0  0  0  0  0  0  0  0  0  0
   57.5780   30.3820   44.4970 S   0  0  0  0  0  0  0  0  0  0  0  0
   58.8040   30.7770   43.7210 O   0  0  0  0  0  0  0  0  0  0  0  0
   56.4600   30.1220   43.5280 O   0  0  0  0  0  0  0  0  0  0  0  0
   57.1150   31.6530   45.5830 N   0  0  0  0  0  0  0  0  0  0  0  0
   57.6680   32.9830   45.6100 C   0  0  0  0  0  0  0  0  0  0  0  0
   56.9260   33.9320   45.9910 O   0  0  0  0  0  0  0  0  0  0  0  0
   59.0490   33.2450   45.2710 N   0  0  0  0  0  0  0  0  0  0  0  0
   59.7790   34.0620   46.2780 C   0  0  0  0  0  0  0  0  0  0  0  0
   59.6540   35.5790   45.9740 C   0  0  0  0  0  0  0  0  0  0  0  0
   61.2730   33.6700   46.3450 C   0  0  0  0  0  0  0  0  0  0  0  0
   59.1470   33.7950   47.6650 C   0  0  0  0  0  0  0  0  0  0  0  0
   61.4340   30.9410   48.2610 C   0  0  0  0  0  0  0  0  0  0  0  0
   61.2560   31.5150   49.5230 C   0  0  0  0  0  0  0  0  0  0  0  0
   60.0370   31.3826   52.2344 H   0  0  0  0  0  0  0  0  0  0  0  0
   60.4575   33.0098   51.6006 H   0  0  0  0  0  0  0  0  0  0  0  0
   58.7473   32.4603   51.6006 H   0  0  0  0  0  0  0  0  0  0  0  0
   57.9006   30.9765   49.8961 H   0  0  0  0  0  0  0  0  0  0  0  0
   58.2162   29.9817   47.6294 H   0  0  0  0  0  0  0  0  0  0  0  0
   60.3013   27.1923   47.1695 H   0  0  0  0  0  0  0  0  0  0  0  0
   58.4246   25.5822   47.4151 H   0  0  0  0  0  0  0  0  0  0  0  0
   55.8521   28.2352   45.1668 H   0  0  0  0  0  0  0  0  0  0  0  0
   59.1100   33.7290   44.3430 H   0  0  0  0  0  0  0  0  0  0  0  0
   59.5240   32.3200   45.1450 H   0  0  0  0  0  0  0  0  0  0  0  0
   59.6078   36.1398   46.9192 H   0  0  0  0  0  0  0  0  0  0  0  0
   60.5279   35.9099   45.3937 H   0  0  0  0  0  0  0  0  0  0  0  0
   58.7377   35.7624   45.3937 H   0  0  0  0  0  0  0  0  0  0  0  0
   61.5838   33.5884   47.3970 H   0  0  0  0  0  0  0  0  0  0  0  0
   61.4211   32.7026   45.8428 H   0  0  0  0  0  0  0  0  0  0  0  0
   61.8770   34.4401   45.8428 H   0  0  0  0  0  0  0  0  0  0  0  0
   59.8535   34.0935   48.4535 H   0  0  0  0  0  0  0  0  0  0  0  0
   58.2196   34.3782   47.7637 H   0  0  0  0  0  0  0  0  0  0  0  0
   58.9186   32.7235   47.7637 H   0  0  0  0  0  0  0  0  0  0  0  0
   62.4397   30.8933   47.8180 H   0  0  0  0  0  0  0  0  0  0  0  0
   62.1195   31.9333   50.0610 H   0  0  0  0  0  0  0  0  0  0  0  0
  1  2  1  0
  2  3  2  0
  3  4  1  0
  4  5  2  0
  5  6  1  0
  6  7  1  0
  7  8  2  0
  8  9  1  0
  9 10  2  0
 10 11  1  0
 11 12  2  0
 11 13  1  0
 10 14  1  0
 14 15  2  0
 15 16  1  0
 16 17  2  0
 16 18  2  0
 16 19  1  0
 19 20  1  0
 20 21  2  0
 20 22  1  0
 22 23  1  0
 23 24  1  0
 23 25  1  0
 23 26  1  0
  5 27  1  0
 27 28  2  0
 28  2  1  0
 15  7  1  0
  1 29  1  0
  1 30  1  0
  1 31  1  0
  3 32  1  0
  4 33  1  0
  8 34  1  0
  9 35  1  0
 14 36  1  0
 22 37  1  0
 22 38  1  0
 24 39  1  0
 24 40  1  0
 24 41  1  0
 25 42  1  0
 25 43  1  0
 25 44  1  0
 26 45  1  0
 26 46  1  0
 26 47  1  0
 27 48  1  0
 28 49  1  0
M  CHG  4  11   1  13  -1  19  -1  22   1
M  END
>  <UniqueID>  (34) 
30

>  <SMILES>  (34) 
Cc1ccc(Sc2ccc([N+](=O)[O-])cc2S(=O)(=O)[N-]C(=O)[NH2+]C(C)(C)C)cc1

>  <Energy>  (34) 
52.38762090638723

>  <Genealogy>  (34) 
Cc1ccc(Sc2ccc([N+](=O)[O-])cc2S(=O)(=O)[N-]C(=O)[NH2+]C(C)(C)C)cc1 (protonated)
Cc1ccc(Sc2ccc([N+](=O)[O-])cc2S(=O)(=O)[N-]C(=O)[NH2+]C(C)(C)C)cc1 (3D coordinates assigned)
Cc1ccc(Sc2ccc([N+](=O)[O-])cc2S(=O)(=O)[N-]C(=O)[NH2+]C(C)(C)C)cc1 (optimized conformer: 52.38762090638723 kcal/mol)

>  <smiles>  (34) 
Cc1ccc(Sc2ccc([N+](=O)[O-])cc2S(=O)(=O)NC(=O)NC(C)(C)C)cc1

>  <score_type>  (34) 
oracle

>  <origin>  (34) 
adg

>  <m_score__min__energy>  (34) 
-8.8200000000000003

>  <m_primary>  (34) 
energy

$$$$
34:0
     RDKit          3D

 50 53  0  0  0  0  0  0  0  0999 V2000
   57.3910   29.3440   51.9970 N   0  0  0  0  0  0  0  0  0  0  0  0
   58.5470   30.1880   52.9670 S   0  0  0  0  0  0  0  0  0  0  0  0
   57.8310   30.8160   54.1290 O   0  0  0  0  0  0  0  0  0  0  0  0
   59.5670   29.2210   53.5020 O   0  0  0  0  0  0  0  0  0  0  0  0
   59.3440   31.4330   51.9940 C   0  0  0  0  0  0  0  0  0  0  0  0
   59.1760   32.7840   52.3430 C   0  0  0  0  0  0  0  0  0  0  0  0
   59.7900   33.7940   51.5970 C   0  0  0  0  0  0  0  0  0  0  0  0
   60.5560   33.4720   50.4770 C   0  0  0  0  0  0  0  0  0  0  0  0
   60.7290   32.1320   50.1130 C   0  0  0  0  0  0  0  0  0  0  0  0
   60.1470   31.1050   50.8770 C   0  0  0  0  0  0  0  0  0  0  0  0
   60.5470   29.3930   50.4560 S   0  0  0  0  0  0  0  0  0  0  0  0
   60.0080   29.5120   48.7350 C   0  0  0  0  0  0  0  0  0  0  0  0
   59.0190   28.5800   48.2680 N   0  0  0  0  0  0  0  0  0  0  0  0
   58.6590   28.4080   46.8890 C   0  0  0  0  0  0  0  0  0  0  0  0
   57.6350   29.1990   46.3490 C   0  0  0  0  0  0  0  0  0  0  0  0
   57.2570   29.0570   45.0070 C   0  0  0  0  0  0  0  0  0  0  0  0
   56.1910   29.9040   44.4500 C   0  0  0  0  0  0  0  0  0  0  0  0
   55.1970   29.3540   43.9080 O   0  0  0  0  0  0  0  0  0  0  0  0
   56.2690   31.3350   44.4650 N   0  0  0  0  0  0  0  0  0  0  0  0
   57.4160   32.1230   44.0160 C   0  0  0  0  0  0  0  0  0  0  0  0
   57.9860   32.9450   45.1410 C   0  0  0  0  0  0  0  0  0  0  0  0
   57.7450   32.5820   46.4780 C   0  0  0  0  0  0  0  0  0  0  0  0
   58.2740   33.3470   47.5210 C   0  0  0  0  0  0  0  0  0  0  0  0
   59.0360   34.4850   47.2400 C   0  0  0  0  0  0  0  0  0  0  0  0
   59.2610   34.8660   45.9150 C   0  0  0  0  0  0  0  0  0  0  0  0
   58.7320   34.1050   44.8670 C   0  0  0  0  0  0  0  0  0  0  0  0
   57.9310   28.1370   44.1940 C   0  0  0  0  0  0  0  0  0  0  0  0
   58.9240   27.3170   44.7330 C   0  0  0  0  0  0  0  0  0  0  0  0
   59.2830   27.4330   46.0810 C   0  0  0  0  0  0  0  0  0  0  0  0
   60.4750   26.3190   46.7370 Cl  0  0  0  0  0  0  0  0  0  0  0  0
   60.5200   30.4170   47.9450 N   0  0  0  0  0  0  0  0  0  0  0  0
   61.4840   31.7070   48.5840 S   0  0  0  0  0  0  0  0  0  0  0  0
   61.4490   32.8720   47.6360 O   0  0  0  0  0  0  0  0  0  0  0  0
   62.9020   31.2540   48.7920 O   0  0  0  0  0  0  0  0  0  0  0  0
   57.8310   29.1670   51.0680 H   0  0  0  0  0  0  0  0  0  0  0  0
   58.5553   33.0491   53.2116 H   0  0  0  0  0  0  0  0  0  0  0  0
   59.6686   34.8461   51.8942 H   0  0  0  0  0  0  0  0  0  0  0  0
   61.0232   34.2698   49.8810 H   0  0  0  0  0  0  0  0  0  0  0  0
   58.4510   28.0740   48.9820 H   0  0  0  0  0  0  0  0  0  0  0  0
   57.1239   29.9374   46.9842 H   0  0  0  0  0  0  0  0  0  0  0  0
   58.1936   31.4422   43.6394 H   0  0  0  0  0  0  0  0  0  0  0  0
   57.0800   32.8056   43.2216 H   0  0  0  0  0  0  0  0  0  0  0  0
   57.1380   31.6928   46.7037 H   0  0  0  0  0  0  0  0  0  0  0  0
   58.0905   33.0532   48.5650 H   0  0  0  0  0  0  0  0  0  0  0  0
   59.4585   35.0806   48.0626 H   0  0  0  0  0  0  0  0  0  0  0  0
   59.8549   35.7655   45.6954 H   0  0  0  0  0  0  0  0  0  0  0  0
   58.9002   34.4152   43.8251 H   0  0  0  0  0  0  0  0  0  0  0  0
   57.6769   28.0602   43.1265 H   0  0  0  0  0  0  0  0  0  0  0  0
   59.4271   26.5756   44.0949 H   0  0  0  0  0  0  0  0  0  0  0  0
   60.2300   30.4890   46.9450 H   0  0  0  0  0  0  0  0  0  0  0  0
  1  2  1  0
  2  3  2  0
  2  4  2  0
  2  5  1  0
  5  6  2  0
  6  7  1  0
  7  8  2  0
  8  9  1  0
  9 10  2  0
 10 11  1  0
 11 12  1  0
 12 13  1  0
 13 14  1  0
 14 15  2  0
 15 16  1  0
 16 17  1  0
 17 18  2  0
 17 19  1  0
 19 20  1  0
 20 21  1  0
 21 22  2  0
 22 23  1  0
 23 24  2  0
 24 25  1  0
 25 26  2  0
 16 27  2  0
 27 28  1  0
 28 29  2  0
 29 30  1  0
 12 31  2  0
 31 32  1  0
 32 33  2  0
 32 34  2  0
 10  5  1  0
 29 14  1  0
 32  9  1  0
 26 21  1  0
  1 35  1  0
  6 36  1  0
  7 37  1  0
  8 38  1  0
 13 39  1  0
 15 40  1  0
 20 41  1  0
 20 42  1  0
 22 43  1  0
 23 44  1  0
 24 45  1  0
 25 46  1  0
 26 47  1  0
 27 48  1  0
 28 49  1  0
 31 50  1  0
M  CHG  3   1  -1  19  -1  31   1
M  END
>  <UniqueID>  (35) 
31

>  <SMILES>  (35) 
[NH-]S(=O)(=O)c1cccc2c1SC(Nc1cc(C(=O)[N-]Cc3ccccc3)ccc1Cl)=[NH+]S2(=O)=O

>  <Energy>  (35) 
78.83332835836283

>  <Genealogy>  (35) 
[NH-]S(=O)(=O)c1cccc2c1SC(Nc1cc(C(=O)[N-]Cc3ccccc3)ccc1Cl)=[NH+]S2(=O)=O (protonated)
[NH-]S(=O)(=O)c1cccc2c1SC(Nc1cc(C(=O)[N-]Cc3ccccc3)ccc1Cl)=[NH+]S2(=O)=O (3D coordinates assigned)
[NH-]S(=O)(=O)c1cccc2c1SC(Nc1cc(C(=O)[N-]Cc3ccccc3)ccc1Cl)=[NH+]S2(=O)=O (nonaromatic ring conformer: 78.83332835836283 kcal/mol)

>  <smiles>  (35) 
NS(=O)(=O)c1cccc2c1SC(Nc1cc(C(=O)NCc3ccccc3)ccc1Cl)=NS2(=O)=O

>  <score_type>  (35) 
oracle

>  <origin>  (35) 
adg

>  <m_score__min__energy>  (35) 
-10.369999999999999

>  <m_primary>  (35) 
energy

$$$$
35:0
     RDKit          3D

 58 60  0  0  0  0  0  0  0  0999 V2000
   59.7040   32.2820   51.4580 C   0  0  0  0  0  0  0  0  0  0  0  0
   58.4430   31.4650   51.0930 C   0  0  2  0  0  0  0  0  0  0  0  0
   57.2780   32.3520   51.2080 N   0  0  0  0  0  0  0  0  0  0  0  0
   58.2920   30.3000   52.1030 C   0  0  0  0  0  0  0  0  0  0  0  0
   57.0440   29.6690   51.9680 O   0  0  0  0  0  0  0  0  0  0  0  0
   58.5400   30.9210   49.6700 C   0  0  0  0  0  0  0  0  0  0  0  0
   58.5820   31.7180   48.6910 O   0  0  0  0  0  0  0  0  0  0  0  0
   58.5080   29.5030   49.4290 N   0  0  0  0  0  0  0  0  0  0  0  0
   58.8880   28.8960   48.1820 C   0  0  0  0  0  0  0  0  0  0  0  0
   60.0620   28.1330   48.1160 C   0  0  0  0  0  0  0  0  0  0  0  0
   60.4700   27.5660   46.9060 C   0  0  0  0  0  0  0  0  0  0  0  0
   59.7120   27.7620   45.7500 C   0  0  0  0  0  0  0  0  0  0  0  0
   58.5360   28.5190   45.7960 C   0  0  0  0  0  0  0  0  0  0  0  0
   57.8080   28.7440   44.5810 N   0  0  0  0  0  0  0  0  0  0  0  0
   56.6330   29.5530   44.4340 C   0  0  0  0  0  0  0  0  0  0  0  0
   55.5370   29.1140   44.8720 O   0  0  0  0  0  0  0  0  0  0  0  0
   56.6850   30.9300   43.8290 C   0  0  0  0  0  0  0  0  0  0  0  0
   57.4210   31.8760   44.7390 C   0  0  0  0  0  0  0  0  0  0  0  0
   58.7690   31.6510   45.0580 C   0  0  0  0  0  0  0  0  0  0  0  0
   59.4620   32.5510   45.8730 C   0  0  0  0  0  0  0  0  0  0  0  0
   58.8150   33.6960   46.3770 C   0  0  0  0  0  0  0  0  0  0  0  0
   59.4630   34.6330   47.1990 O   0  0  0  0  0  0  0  0  0  0  0  0
   60.1610   34.3280   48.4070 C   0  0  0  0  0  0  0  0  0  0  0  0
   61.3810   33.4950   48.1160 C   0  0  0  0  0  0  0  0  0  0  0  0
   61.6780   32.3590   48.8890 C   0  0  0  0  0  0  0  0  0  0  0  0
   62.8150   31.5950   48.6090 C   0  0  0  0  0  0  0  0  0  0  0  0
   63.6660   31.9620   47.5640 C   0  0  0  0  0  0  0  0  0  0  0  0
   63.3840   33.0970   46.7980 C   0  0  0  0  0  0  0  0  0  0  0  0
   62.2480   33.8630   47.0730 C   0  0  0  0  0  0  0  0  0  0  0  0
   57.4720   33.9190   46.0520 C   0  0  0  0  0  0  0  0  0  0  0  0
   56.7800   33.0230   45.2320 C   0  0  0  0  0  0  0  0  0  0  0  0
   58.1430   29.1120   47.0080 C   0  0  0  0  0  0  0  0  0  0  0  0
   59.7976   32.3426   52.5523 H   0  0  0  0  0  0  0  0  0  0  0  0
   60.5941   31.7885   51.0407 H   0  0  0  0  0  0  0  0  0  0  0  0
   59.6174   33.2961   51.0407 H   0  0  0  0  0  0  0  0  0  0  0  0
   56.9840   32.6660   50.2530 H   0  0  0  0  0  0  0  0  0  0  0  0
   56.4690   31.8320   51.6180 H   0  0  0  0  0  0  0  0  0  0  0  0
   59.0882   29.5629   51.9221 H   0  0  0  0  0  0  0  0  0  0  0  0
   58.3668   30.7098   53.1211 H   0  0  0  0  0  0  0  0  0  0  0  0
   56.4200   30.3360   51.5790 H   0  0  0  0  0  0  0  0  0  0  0  0
   58.1090   28.8800   50.1680 H   0  0  0  0  0  0  0  0  0  0  0  0
   60.6659   27.9797   49.0226 H   0  0  0  0  0  0  0  0  0  0  0  0
   61.3899   26.9642   46.8641 H   0  0  0  0  0  0  0  0  0  0  0  0
   60.0409   27.3191   44.7983 H   0  0  0  0  0  0  0  0  0  0  0  0
   57.2045   30.8809   42.8606 H   0  0  0  0  0  0  0  0  0  0  0  0
   55.6575   31.2969   43.6889 H   0  0  0  0  0  0  0  0  0  0  0  0
   59.2831   30.7617   44.6646 H   0  0  0  0  0  0  0  0  0  0  0  0
   60.5171   32.3641   46.1217 H   0  0  0  0  0  0  0  0  0  0  0  0
   60.4702   35.2652   48.8928 H   0  0  0  0  0  0  0  0  0  0  0  0
   59.4923   33.7595   49.0701 H   0  0  0  0  0  0  0  0  0  0  0  0
   61.0137   32.0702   49.7168 H   0  0  0  0  0  0  0  0  0  0  0  0
   63.0397   30.7034   49.2127 H   0  0  0  0  0  0  0  0  0  0  0  0
   64.5584   31.3578   47.3436 H   0  0  0  0  0  0  0  0  0  0  0  0
   64.0571   33.3874   45.9779 H   0  0  0  0  0  0  0  0  0  0  0  0
   62.0316   34.7576   46.4706 H   0  0  0  0  0  0  0  0  0  0  0  0
   56.9563   34.8074   46.4454 H   0  0  0  0  0  0  0  0  0  0  0  0
   55.7290   33.2177   44.9722 H   0  0  0  0  0  0  0  0  0  0  0  0
   57.2470   29.7493   47.0391 H   0  0  0  0  0  0  0  0  0  0  0  0
  1  2  1  0
  2  3  1  6
  2  4  1  0
  4  5  1  0
  2  6  1  0
  6  7  2  0
  6  8  1  0
  8  9  1  0
  9 10  2  0
 10 11  1  0
 11 12  2  0
 12 13  1  0
 13 14  1  0
 14 15  1  0
 15 16  2  0
 15 17  1  0
 17 18  1  0
 18 19  2  0
 19 20  1  0
 20 21  2  0
 21 22  1  0
 22 23  1  0
 23 24  1  0
 24 25  2  0
 25 26  1  0
 26 27  2  0
 27 28  1  0
 28 29  2  0
 21 30  1  0
 30 31  2  0
 13 32  2  0
 32  9  1  0
 31 18  1  0
 29 24  1  0
  1 33  1  0
  1 34  1  0
  1 35  1  0
  3 36  1  0
  3 37  1  0
  4 38  1  0
  4 39  1  0
  5 40  1  0
  8 41  1  0
 10 42  1  0
 11 43  1  0
 12 44  1  0
 17 45  1  0
 17 46  1  0
 19 47  1  0
 20 48  1  0
 23 49  1  0
 23 50  1  0
 25 51  1  0
 26 52  1  0
 27 53  1  0
 28 54  1  0
 29 55  1  0
 30 56  1  0
 31 57  1  0
 32 58  1  0
M  CHG  1  14  -1
M  END
>  <UniqueID>  (36) 
32

>  <SMILES>  (36) 
C[C@](N)(CO)C(=O)Nc1cccc([N-]C(=O)Cc2ccc(OCc3ccccc3)cc2)c1

>  <Energy>  (36) 
65.90946767446714

>  <Genealogy>  (36) 
CC(N)(CO)C(=O)Nc1cccc([N-]C(=O)Cc2ccc(OCc3ccccc3)cc2)c1 (protonated)
C[C@](N)(CO)C(=O)Nc1cccc([N-]C(=O)Cc2ccc(OCc3ccccc3)cc2)c1 (chirality)
C[C@](N)(CO)C(=O)Nc1cccc([N-]C(=O)Cc2ccc(OCc3ccccc3)cc2)c1 (3D coordinates assigned)
C[C@](N)(CO)C(=O)Nc1cccc([N-]C(=O)Cc2ccc(OCc3ccccc3)cc2)c1 (optimized conformer: 65.90946767446714 kcal/mol)

>  <smiles>  (36) 
CC(N)(CO)C(=O)Nc1cccc(NC(=O)Cc2ccc(OCc3ccccc3)cc2)c1

>  <score_type>  (36) 
oracle

>  <origin>  (36) 
adg

>  <m_score__min__energy>  (36) 
-11.699999999999999

>  <m_primary>  (36) 
energy

$$$$
36:0
     RDKit          3D

 42 44  0  0  0  0  0  0  0  0999 V2000
   60.0320   33.6460   50.3640 C   0  0  0  0  0  0  0  0  0  0  0  0
   60.1010   33.6850   48.8980 N   0  0  0  0  0  0  0  0  0  0  0  0
   59.2910   34.6830   48.1800 C   0  0  0  0  0  0  0  0  0  0  0  0
   58.8090   34.1730   46.8450 C   0  0  0  0  0  0  0  0  0  0  0  0
   59.6010   34.3290   45.6930 C   0  0  0  0  0  0  0  0  0  0  0  0
   59.1510   33.8510   44.4580 C   0  0  0  0  0  0  0  0  0  0  0  0
   57.9170   33.2030   44.3650 C   0  0  0  0  0  0  0  0  0  0  0  0
   57.4830   32.7370   43.1680 F   0  0  0  0  0  0  0  0  0  0  0  0
   57.1320   33.0290   45.5080 C   0  0  0  0  0  0  0  0  0  0  0  0
   57.5750   33.5130   46.7420 C   0  0  0  0  0  0  0  0  0  0  0  0
   61.2450   33.0970   48.2340 C   0  0  0  0  0  0  0  0  0  0  0  0
   62.3670   33.8530   48.0350 N   0  0  0  0  0  0  0  0  0  0  0  0
   63.4890   33.3250   47.4800 C   0  0  0  0  0  0  0  0  0  0  0  0
   63.5240   32.0180   47.1250 N   0  0  0  0  0  0  0  0  0  0  0  0
   62.4440   31.2180   47.3040 C   0  0  0  0  0  0  0  0  0  0  0  0
   61.2620   31.7350   47.8470 C   0  0  0  0  0  0  0  0  0  0  0  0
   60.1030   30.8300   48.0070 C   0  0  0  0  0  0  0  0  0  0  0  0
   60.0750   30.0520   48.9970 O   0  0  0  0  0  0  0  0  0  0  0  0
   58.9910   30.8270   47.1020 N   0  0  0  0  0  0  0  0  0  0  0  0
   58.6990   29.8810   46.0630 C   0  0  0  0  0  0  0  0  0  0  0  0
   59.7530   29.1110   45.5530 C   0  0  0  0  0  0  0  0  0  0  0  0
   59.5370   28.2260   44.4920 C   0  0  0  0  0  0  0  0  0  0  0  0
   58.2620   28.1000   43.9360 C   0  0  0  0  0  0  0  0  0  0  0  0
   57.2080   28.8740   44.4250 C   0  0  0  0  0  0  0  0  0  0  0  0
   57.4240   29.7720   45.4750 C   0  0  0  0  0  0  0  0  0  0  0  0
   60.9163   34.1458   50.7861 H   0  0  0  0  0  0  0  0  0  0  0  0
   59.1221   34.1634   50.7021 H   0  0  0  0  0  0  0  0  0  0  0  0
   60.0060   32.5996   50.7021 H   0  0  0  0  0  0  0  0  0  0  0  0
   58.4175   34.9404   48.7971 H   0  0  0  0  0  0  0  0  0  0  0  0
   59.9250   35.5629   47.9961 H   0  0  0  0  0  0  0  0  0  0  0  0
   60.5783   34.8290   45.7637 H   0  0  0  0  0  0  0  0  0  0  0  0
   59.7698   33.9856   43.5585 H   0  0  0  0  0  0  0  0  0  0  0  0
   56.1645   32.5106   45.4364 H   0  0  0  0  0  0  0  0  0  0  0  0
   56.9523   33.3757   47.6383 H   0  0  0  0  0  0  0  0  0  0  0  0
   62.3950   34.8510   48.3390 H   0  0  0  0  0  0  0  0  0  0  0  0
   64.3720   33.9608   47.3183 H   0  0  0  0  0  0  0  0  0  0  0  0
   62.4970   30.1564   47.0208 H   0  0  0  0  0  0  0  0  0  0  0  0
   60.7580   29.2035   45.9906 H   0  0  0  0  0  0  0  0  0  0  0  0
   60.3714   27.6290   44.0953 H   0  0  0  0  0  0  0  0  0  0  0  0
   58.0883   27.3911   43.1130 H   0  0  0  0  0  0  0  0  0  0  0  0
   56.2052   28.7772   43.9833 H   0  0  0  0  0  0  0  0  0  0  0  0
   56.5955   30.3951   45.8428 H   0  0  0  0  0  0  0  0  0  0  0  0
  1  2  1  0
  2  3  1  0
  3  4  1  0
  4  5  2  0
  5  6  1  0
  6  7  2  0
  7  8  1  0
  7  9  1  0
  9 10  2  0
  2 11  1  0
 11 12  2  0
 12 13  1  0
 13 14  2  0
 14 15  1  0
 15 16  2  0
 16 17  1  0
 17 18  2  0
 17 19  1  0
 19 20  1  0
 20 21  2  0
 21 22  1  0
 22 23  2  0
 23 24  1  0
 24 25  2  0
 10  4  1  0
 16 11  1  0
 25 20  1  0
  1 26  1  0
  1 27  1  0
  1 28  1  0
  3 29  1  0
  3 30  1  0
  5 31  1  0
  6 32  1  0
  9 33  1  0
 10 34  1  0
 12 35  1  0
 13 36  1  0
 15 37  1  0
 21 38  1  0
 22 39  1  0
 23 40  1  0
 24 41  1  0
 25 42  1  0
M  CHG  2  12   1  19  -1
M  END
>  <UniqueID>  (37) 
33

>  <SMILES>  (37) 
CN(Cc1ccc(F)cc1)c1[nH+]cncc1C(=O)[N-]c1ccccc1

>  <Energy>  (37) 
57.29964861799146

>  <Genealogy>  (37) 
CN(Cc1ccc(F)cc1)c1[nH+]cncc1C(=O)[N-]c1ccccc1 (protonated)
CN(Cc1ccc(F)cc1)c1[nH+]cncc1C(=O)[N-]c1ccccc1 (3D coordinates assigned)
CN(Cc1ccc(F)cc1)c1[nH+]cncc1C(=O)[N-]c1ccccc1 (optimized conformer: 57.29964861799146 kcal/mol)

>  <smiles>  (37) 
CN(Cc1ccc(F)cc1)c1ncncc1C(=O)Nc1ccccc1

>  <score_type>  (37) 
oracle

>  <origin>  (37) 
adg

>  <m_score__min__energy>  (37) 
-7.5899999999999999

>  <m_primary>  (37) 
energy

$$$$
37:0
     RDKit          3D

 30 32  0  0  0  0  0  0  0  0999 V2000
   56.5120   31.4570   44.5040 O   0  0  0  0  0  0  0  0  0  0  0  0
   56.5230   30.2450   44.8390 C   0  0  0  0  0  0  0  0  0  0  0  0
   55.4160   29.4860   44.9090 N   0  0  0  0  0  0  0  0  0  0  0  0
   55.8040   28.2670   45.2460 N   0  0  0  0  0  0  0  0  0  0  0  0
   57.1470   28.2290   45.3960 C   0  0  0  0  0  0  0  0  0  0  0  0
   57.9100   26.9710   45.6090 C   0  0  0  0  0  0  0  0  0  0  0  0
   57.3460   25.7400   45.2270 C   0  0  0  0  0  0  0  0  0  0  0  0
   58.0470   24.5450   45.4210 C   0  0  0  0  0  0  0  0  0  0  0  0
   59.3160   24.5650   46.0010 C   0  0  0  0  0  0  0  0  0  0  0  0
   59.8850   25.7790   46.3890 C   0  0  0  0  0  0  0  0  0  0  0  0
   59.1870   26.9750   46.1960 C   0  0  0  0  0  0  0  0  0  0  0  0
   57.6440   29.5080   45.1600 C   0  0  0  0  0  0  0  0  0  0  0  0
   59.3520   30.0710   45.0840 S   0  0  0  0  0  0  0  0  0  0  0  0
   59.0270   31.6110   45.9570 C   0  0  0  0  0  0  0  0  0  0  0  0
   58.8900   32.8200   45.2620 C   0  0  0  0  0  0  0  0  0  0  0  0
   58.6310   34.0050   45.9580 C   0  0  0  0  0  0  0  0  0  0  0  0
   58.4980   33.9870   47.3490 C   0  0  0  0  0  0  0  0  0  0  0  0
   58.6190   32.7800   48.0450 C   0  0  0  0  0  0  0  0  0  0  0  0
   58.8770   31.5940   47.3500 C   0  0  0  0  0  0  0  0  0  0  0  0
   55.1440   27.4660   45.3580 H   0  0  0  0  0  0  0  0  0  0  0  0
   56.3449   25.7170   44.7717 H   0  0  0  0  0  0  0  0  0  0  0  0
   57.5974   23.5886   45.1160 H   0  0  0  0  0  0  0  0  0  0  0  0
   59.8672   23.6252   46.1522 H   0  0  0  0  0  0  0  0  0  0  0  0
   60.8847   25.7949   46.8476 H   0  0  0  0  0  0  0  0  0  0  0  0
   59.6413   27.9275   46.5063 H   0  0  0  0  0  0  0  0  0  0  0  0
   58.9864   32.8370   44.1664 H   0  0  0  0  0  0  0  0  0  0  0  0
   58.5318   34.9533   45.4094 H   0  0  0  0  0  0  0  0  0  0  0  0
   58.2985   34.9205   47.8955 H   0  0  0  0  0  0  0  0  0  0  0  0
   58.5112   32.7634   49.1396 H   0  0  0  0  0  0  0  0  0  0  0  0
   58.9624   30.6446   47.8989 H   0  0  0  0  0  0  0  0  0  0  0  0
  1  2  2  0
  2  3  1  0
  3  4  1  0
  4  5  1  0
  5  6  1  0
  6  7  2  0
  7  8  1  0
  8  9  2  0
  9 10  1  0
 10 11  2  0
  5 12  2  0
 12 13  1  0
 13 14  1  0
 14 15  2  0
 15 16  1  0
 16 17  2  0
 17 18  1  0
 18 19  2  0
 12  2  1  0
 19 14  1  0
 11  6  1  0
  4 20  1  0
  7 21  1  0
  8 22  1  0
  9 23  1  0
 10 24  1  0
 11 25  1  0
 15 26  1  0
 16 27  1  0
 17 28  1  0
 18 29  1  0
 19 30  1  0
M  CHG  1   3  -1
M  END
>  <UniqueID>  (38) 
34

>  <SMILES>  (38) 
O=c1[n-][nH]c(-c2ccccc2)c1Sc1ccccc1

>  <Energy>  (38) 
67.6382008768544

>  <Genealogy>  (38) 
O=c1[n-][nH]c(-c2ccccc2)c1Sc1ccccc1 (protonated)
O=c1[n-][nH]c(-c2ccccc2)c1Sc1ccccc1 (3D coordinates assigned)
O=c1[n-][nH]c(-c2ccccc2)c1Sc1ccccc1 (optimized conformer: 67.6382008768544 kcal/mol)

>  <smiles>  (38) 
O=c1[nH][nH]c(-c2ccccc2)c1Sc1ccccc1

>  <score_type>  (38) 
oracle

>  <origin>  (38) 
adg

>  <m_score__min__energy>  (38) 
-9.7400000000000002

>  <m_primary>  (38) 
energy

$$$$
38:0
     RDKit          3D

 44 47  0  0  0  0  0  0  0  0999 V2000
   55.0050   29.4070   44.0050 O   0  0  0  0  0  0  0  0  0  0  0  0
   56.1350   29.7990   44.4230 C   0  0  0  0  0  0  0  0  0  0  0  0
   56.5920   31.1540   44.0530 C   0  0  0  0  0  0  0  0  0  0  0  0
   57.2700   31.9550   44.8920 C   0  0  0  0  0  0  0  0  0  0  0  0
   57.8220   31.5410   46.0570 N   0  0  0  0  0  0  0  0  0  0  0  0
   58.4950   32.5380   46.7050 C   0  0  0  0  0  0  0  0  0  0  0  0
   59.0930   32.3580   47.8840 C   0  0  0  0  0  0  0  0  0  0  0  0
   59.2760   31.0360   48.5090 C   0  0  0  0  0  0  0  0  0  0  0  0
   59.1970   30.7790   49.8750 C   0  0  0  0  0  0  0  0  0  0  0  0
   59.4580   29.4740   50.1270 N   0  0  0  0  0  0  0  0  0  0  0  0
   59.7380   28.9100   48.9340 C   0  0  0  0  0  0  0  0  0  0  0  0
   60.1140   27.5810   48.6900 C   0  0  0  0  0  0  0  0  0  0  0  0
   60.4050   27.2120   47.3700 C   0  0  0  0  0  0  0  0  0  0  0  0
   60.3190   28.1580   46.3250 C   0  0  0  0  0  0  0  0  0  0  0  0
   59.9570   29.4920   46.5980 C   0  0  0  0  0  0  0  0  0  0  0  0
   59.6390   29.8330   47.9220 C   0  0  0  0  0  0  0  0  0  0  0  0
   58.4520   33.7580   46.0320 C   0  0  0  0  0  0  0  0  0  0  0  0
   58.9810   34.8310   46.4280 O   0  0  0  0  0  0  0  0  0  0  0  0
   57.5900   33.5830   44.5980 S   0  0  0  0  0  0  0  0  0  0  0  0
   56.9100   29.0010   45.3430 N   0  0  0  0  0  0  0  0  0  0  0  0
   57.0990   27.5720   45.2960 C   0  0  0  0  0  0  0  0  0  0  0  0
   57.7840   27.0250   44.1950 C   0  0  0  0  0  0  0  0  0  0  0  0
   57.9960   25.6510   44.1000 C   0  0  0  0  0  0  0  0  0  0  0  0
   57.5230   24.7980   45.1050 C   0  0  0  0  0  0  0  0  0  0  0  0
   57.7510   23.0220   44.9630 S   0  0  0  0  0  0  0  0  0  0  0  0
   56.4430   22.7710   43.7060 C   0  0  0  0  0  0  0  0  0  0  0  0
   56.4500   21.4570   43.2800 F   0  0  0  0  0  0  0  0  0  0  0  0
   55.2240   23.0440   44.2850 F   0  0  0  0  0  0  0  0  0  0  0  0
   56.6340   23.6280   42.6280 F   0  0  0  0  0  0  0  0  0  0  0  0
   56.8260   25.3250   46.1980 C   0  0  0  0  0  0  0  0  0  0  0  0
   56.6190   26.7010   46.3020 C   0  0  0  0  0  0  0  0  0  0  0  0
   56.3665   31.5250   43.0423 H   0  0  0  0  0  0  0  0  0  0  0  0
   59.4693   33.2431   48.4178 H   0  0  0  0  0  0  0  0  0  0  0  0
   58.9564   31.5301   50.6418 H   0  0  0  0  0  0  0  0  0  0  0  0
   59.4650   29.0070   51.0600 H   0  0  0  0  0  0  0  0  0  0  0  0
   60.1785   26.8506   49.5100 H   0  0  0  0  0  0  0  0  0  0  0  0
   60.7028   26.1771   47.1459 H   0  0  0  0  0  0  0  0  0  0  0  0
   60.5361   27.8514   45.2911 H   0  0  0  0  0  0  0  0  0  0  0  0
   59.9245   30.2447   45.7965 H   0  0  0  0  0  0  0  0  0  0  0  0
   57.4840   29.5330   46.0390 H   0  0  0  0  0  0  0  0  0  0  0  0
   58.1560   27.6892   43.4010 H   0  0  0  0  0  0  0  0  0  0  0  0
   58.5350   25.2363   43.2354 H   0  0  0  0  0  0  0  0  0  0  0  0
   56.4399   24.6522   46.9779 H   0  0  0  0  0  0  0  0  0  0  0  0
   56.0805   27.1100   47.1696 H   0  0  0  0  0  0  0  0  0  0  0  0
  1  2  2  0
  2  3  1  0
  3  4  2  3
  4  5  1  0
  5  6  1  0
  6  7  2  3
  7  8  1  0
  8  9  2  0
  9 10  1  0
 10 11  1  0
 11 12  2  0
 12 13  1  0
 13 14  2  0
 14 15  1  0
 15 16  2  0
  6 17  1  0
 17 18  2  0
 17 19  1  0
  2 20  1  0
 20 21  1  0
 21 22  2  0
 22 23  1  0
 23 24  2  0
 24 25  1  0
 25 26  1  0
 26 27  1  0
 26 28  1  0
 26 29  1  0
 24 30  1  0
 30 31  2  0
 19  4  1  0
 31 21  1  0
 16  8  1  0
 16 11  1  0
  3 32  1  0
  7 33  1  0
  9 34  1  0
 10 35  1  0
 12 36  1  0
 13 37  1  0
 14 38  1  0
 15 39  1  0
 20 40  1  0
 22 41  1  0
 23 42  1  0
 30 43  1  0
 31 44  1  0
M  CHG  1   5  -1
M  END
>  <UniqueID>  (39) 
35

>  <SMILES>  (39) 
O=C(C=c1[n-]c(=Cc2c[nH]c3ccccc23)c(=O)s1)Nc1ccc(SC(F)(F)F)cc1

>  <Energy>  (39) 
116.40580505771841

>  <Genealogy>  (39) 
O=C(C=c1[n-]c(=Cc2c[nH]c3ccccc23)c(=O)s1)Nc1ccc(SC(F)(F)F)cc1 (protonated)
O=C(C=c1[n-]c(=Cc2c[nH]c3ccccc23)c(=O)s1)Nc1ccc(SC(F)(F)F)cc1 (3D coordinates assigned)
O=C(C=c1[n-]c(=Cc2c[nH]c3ccccc23)c(=O)s1)Nc1ccc(SC(F)(F)F)cc1 (optimized conformer: 116.40580505771841 kcal/mol)

>  <smiles>  (39) 
O=C(C=c1[nH]c(=Cc2c[nH]c3ccccc23)c(=O)s1)Nc1ccc(SC(F)(F)F)cc1

>  <score_type>  (39) 
oracle

>  <origin>  (39) 
adg

>  <m_score__min__energy>  (39) 
-10.039999999999999

>  <m_primary>  (39) 
energy

$$$$
39:0
     RDKit          3D

 61 64  0  0  0  0  0  0  0  0999 V2000
   54.9500   28.4550   54.4520 C   0  0  0  0  0  0  0  0  0  0  0  0
   55.6670   29.2920   53.4360 C   0  0  0  0  0  0  0  0  0  0  0  0
   55.0120   30.3730   52.8250 C   0  0  0  0  0  0  0  0  0  0  0  0
   55.6970   31.1890   51.9190 C   0  0  0  0  0  0  0  0  0  0  0  0
   57.0490   30.9510   51.6320 C   0  0  0  0  0  0  0  0  0  0  0  0
   57.8040   31.8880   50.7240 C   0  0  0  0  0  0  0  0  0  0  0  0
   59.2590   31.7960   50.9730 N   0  0  0  0  0  0  0  0  0  0  0  0
   59.8750   33.1410   50.9340 C   0  0  0  0  0  0  0  0  0  0  0  0
   59.6170   33.8700   49.5970 C   0  0  0  0  0  0  0  0  0  0  0  0
   60.1870   33.1280   48.3690 C   0  0  0  0  0  0  0  0  0  0  0  0
   59.3280   32.0430   47.8110 N   0  0  0  0  0  0  0  0  0  0  0  0
   59.6810   31.7470   46.4040 C   0  0  0  0  0  0  0  0  0  0  0  0
   58.5390   31.1050   45.6590 C   0  0  0  0  0  0  0  0  0  0  0  0
   57.8260   31.8390   44.7010 C   0  0  0  0  0  0  0  0  0  0  0  0
   56.7820   31.2430   43.9930 C   0  0  0  0  0  0  0  0  0  0  0  0
   56.4380   29.9110   44.2390 C   0  0  0  0  0  0  0  0  0  0  0  0
   57.1260   29.1670   45.2100 C   0  0  0  0  0  0  0  0  0  0  0  0
   56.7710   27.7910   45.4170 N   0  0  0  0  0  0  0  0  0  0  0  0
   57.3820   26.9380   46.4050 C   0  0  0  0  0  0  0  0  0  0  0  0
   58.3490   27.3570   47.0960 O   0  0  0  0  0  0  0  0  0  0  0  0
   56.8870   25.5590   46.6250 C   0  0  0  0  0  0  0  0  0  0  0  0
   57.7050   24.6300   47.2860 C   0  0  0  0  0  0  0  0  0  0  0  0
   57.2760   23.3560   47.4920 N   0  0  0  0  0  0  0  0  0  0  0  0
   56.0520   22.9390   47.0810 C   0  0  0  0  0  0  0  0  0  0  0  0
   55.1910   23.8280   46.4390 C   0  0  0  0  0  0  0  0  0  0  0  0
   55.6000   25.1470   46.2180 C   0  0  0  0  0  0  0  0  0  0  0  0
   54.7980   25.9570   45.6810 O   0  0  0  0  0  0  0  0  0  0  0  0
   58.1910   29.7660   45.9070 C   0  0  0  0  0  0  0  0  0  0  0  0
   59.1600   30.8280   48.6500 C   0  0  0  0  0  0  0  0  0  0  0  0
   59.8990   30.8810   50.0010 C   0  0  0  0  0  0  0  0  0  0  0  0
   57.7030   29.8720   52.2470 C   0  0  0  0  0  0  0  0  0  0  0  0
   57.0170   29.0490   53.1430 C   0  0  0  0  0  0  0  0  0  0  0  0
   55.2319   28.7841   55.4630 H   0  0  0  0  0  0  0  0  0  0  0  0
   53.8639   28.5676   54.3193 H   0  0  0  0  0  0  0  0  0  0  0  0
   55.2281   27.3990   54.3193 H   0  0  0  0  0  0  0  0  0  0  0  0
   53.9572   30.5787   53.0595 H   0  0  0  0  0  0  0  0  0  0  0  0
   55.1723   32.0223   51.4287 H   0  0  0  0  0  0  0  0  0  0  0  0
   57.5989   31.6200   49.6770 H   0  0  0  0  0  0  0  0  0  0  0  0
   57.4747   32.9181   50.9251 H   0  0  0  0  0  0  0  0  0  0  0  0
   59.4557   33.7451   51.7521 H   0  0  0  0  0  0  0  0  0  0  0  0
   60.9624   33.0144   51.0418 H   0  0  0  0  0  0  0  0  0  0  0  0
   58.5305   33.9789   49.4642 H   0  0  0  0  0  0  0  0  0  0  0  0
   60.1306   34.8410   49.6545 H   0  0  0  0  0  0  0  0  0  0  0  0
   60.3537   33.8695   47.5737 H   0  0  0  0  0  0  0  0  0  0  0  0
   61.1053   32.6331   48.7180 H   0  0  0  0  0  0  0  0  0  0  0  0
   59.9502   32.6870   45.9000 H   0  0  0  0  0  0  0  0  0  0  0  0
   60.5248   31.0413   46.4064 H   0  0  0  0  0  0  0  0  0  0  0  0
   58.0906   32.8889   44.5067 H   0  0  0  0  0  0  0  0  0  0  0  0
   56.2285   31.8227   43.2396 H   0  0  0  0  0  0  0  0  0  0  0  0
   55.6228   29.4427   43.6679 H   0  0  0  0  0  0  0  0  0  0  0  0
   55.9670   27.4190   44.8640 H   0  0  0  0  0  0  0  0  0  0  0  0
   58.7009   24.9345   47.6403 H   0  0  0  0  0  0  0  0  0  0  0  0
   55.7388   21.8989   47.2544 H   0  0  0  0  0  0  0  0  0  0  0  0
   54.1964   23.4941   46.1084 H   0  0  0  0  0  0  0  0  0  0  0  0
   58.7547   29.1831   46.6504 H   0  0  0  0  0  0  0  0  0  0  0  0
   58.0867   30.6935   48.8499 H   0  0  0  0  0  0  0  0  0  0  0  0
   59.5985   29.9926   48.0845 H   0  0  0  0  0  0  0  0  0  0  0  0
   59.9167   29.8688   50.4312 H   0  0  0  0  0  0  0  0  0  0  0  0
   60.9127   31.2618   49.8077 H   0  0  0  0  0  0  0  0  0  0  0  0
   58.7613   29.6735   52.0221 H   0  0  0  0  0  0  0  0  0  0  0  0
   57.5379   28.2063   53.6211 H   0  0  0  0  0  0  0  0  0  0  0  0
  1  2  1  0
  2  3  2  0
  3  4  1  0
  4  5  2  0
  5  6  1  0
  6  7  1  0
  7  8  1  0
  8  9  1  0
  9 10  1  0
 10 11  1  0
 11 12  1  0
 12 13  1  0
 13 14  2  0
 14 15  1  0
 15 16  2  0
 16 17  1  0
 17 18  1  0
 18 19  1  0
 19 20  2  0
 19 21  1  0
 21 22  2  0
 22 23  1  0
 23 24  1  0
 24 25  2  0
 25 26  1  0
 26 27  2  0
 17 28  2  0
 11 29  1  0
 29 30  1  0
  5 31  1  0
 31 32  2  0
 32  2  1  0
 30  7  1  0
 28 13  1  0
 26 21  1  0
  1 33  1  0
  1 34  1  0
  1 35  1  0
  3 36  1  0
  4 37  1  0
  6 38  1  0
  6 39  1  0
  8 40  1  0
  8 41  1  0
  9 42  1  0
  9 43  1  0
 10 44  1  0
 10 45  1  0
 12 46  1  0
 12 47  1  0
 14 48  1  0
 15 49  1  0
 16 50  1  0
 18 51  1  0
 22 52  1  0
 24 53  1  0
 25 54  1  0
 28 55  1  0
 29 56  1  0
 29 57  1  0
 30 58  1  0
 30 59  1  0
 31 60  1  0
 32 61  1  0
M  CHG  1  23  -1
M  END
>  <UniqueID>  (40) 
36

>  <SMILES>  (40) 
Cc1ccc(CN2CCCN(Cc3cccc(NC(=O)c4c[n-]ccc4=O)c3)CC2)cc1

>  <Energy>  (40) 
87.35355148680712

>  <Genealogy>  (40) 
Cc1ccc(CN2CCCN(Cc3cccc(NC(=O)c4c[n-]ccc4=O)c3)CC2)cc1 (protonated)
Cc1ccc(CN2CCCN(Cc3cccc(NC(=O)c4c[n-]ccc4=O)c3)CC2)cc1 (3D coordinates assigned)
Cc1ccc(CN2CCCN(Cc3cccc(NC(=O)c4c[n-]ccc4=O)c3)CC2)cc1 (nonaromatic ring conformer: 87.35355148680712 kcal/mol)

>  <smiles>  (40) 
Cc1ccc(CN2CCCN(Cc3cccc(NC(=O)c4c[nH]ccc4=O)c3)CC2)cc1

>  <score_type>  (40) 
oracle

>  <origin>  (40) 
adg

>  <m_score__min__energy>  (40) 
-9.7799999999999994

>  <m_primary>  (40) 
energy

$$$$
40:0
     RDKit          3D

 36 38  0  0  0  0  0  0  0  0999 V2000
   64.1920   33.6150   50.5660 C   0  0  0  0  0  0  0  0  0  0  0  0
   63.1820   34.4770   50.0530 O   0  0  0  0  0  0  0  0  0  0  0  0
   62.2810   34.1240   49.0370 C   0  0  0  0  0  0  0  0  0  0  0  0
   62.7050   33.6940   47.7670 C   0  0  0  0  0  0  0  0  0  0  0  0
   61.7660   33.3550   46.7870 C   0  0  0  0  0  0  0  0  0  0  0  0
   60.3880   33.4360   47.0560 C   0  0  0  0  0  0  0  0  0  0  0  0
   59.4200   33.0850   46.0460 N   0  0  0  0  0  0  0  0  0  0  0  0
   58.7620   33.9390   45.2320 C   0  0  0  0  0  0  0  0  0  0  0  0
   57.9090   33.2420   44.4030 C   0  0  0  0  0  0  0  0  0  0  0  0
   58.0640   31.9030   44.7190 C   0  0  0  0  0  0  0  0  0  0  0  0
   57.3360   30.7560   44.1410 C   0  0  0  0  0  0  0  0  0  0  0  0
   56.6460   30.9360   43.1010 O   0  0  0  0  0  0  0  0  0  0  0  0
   57.3990   29.3990   44.7320 C   0  0  0  0  0  0  0  0  0  0  0  0
   58.6430   28.7680   44.9050 C   0  0  0  0  0  0  0  0  0  0  0  0
   58.7140   27.4810   45.4480 C   0  0  0  0  0  0  0  0  0  0  0  0
   57.5460   26.8080   45.8110 C   0  0  0  0  0  0  0  0  0  0  0  0
   56.3020   27.4170   45.6250 C   0  0  0  0  0  0  0  0  0  0  0  0
   55.1380   26.7410   45.9740 O   0  0  0  0  0  0  0  0  0  0  0  0
   56.2260   28.7050   45.0840 C   0  0  0  0  0  0  0  0  0  0  0  0
   58.9910   31.8410   45.7420 C   0  0  0  0  0  0  0  0  0  0  0  0
   59.9720   33.8650   48.3290 C   0  0  0  0  0  0  0  0  0  0  0  0
   60.9110   34.2060   49.3070 C   0  0  0  0  0  0  0  0  0  0  0  0
   64.1679   33.6356   51.6655 H   0  0  0  0  0  0  0  0  0  0  0  0
   64.0113   32.5885   50.2144 H   0  0  0  0  0  0  0  0  0  0  0  0
   65.1774   33.9548   50.2144 H   0  0  0  0  0  0  0  0  0  0  0  0
   63.7797   33.6239   47.5432 H   0  0  0  0  0  0  0  0  0  0  0  0
   62.1088   33.0218   45.7963 H   0  0  0  0  0  0  0  0  0  0  0  0
   58.8884   35.0317   45.2308 H   0  0  0  0  0  0  0  0  0  0  0  0
   57.2381   33.6658   43.6413 H   0  0  0  0  0  0  0  0  0  0  0  0
   59.5661   29.2894   44.6116 H   0  0  0  0  0  0  0  0  0  0  0  0
   59.6922   26.9981   45.5893 H   0  0  0  0  0  0  0  0  0  0  0  0
   57.6049   25.7983   46.2435 H   0  0  0  0  0  0  0  0  0  0  0  0
   55.2444   29.1779   44.9329 H   0  0  0  0  0  0  0  0  0  0  0  0
   59.3287   30.9173   46.2346 H   0  0  0  0  0  0  0  0  0  0  0  0
   58.8981   33.9329   48.5573 H   0  0  0  0  0  0  0  0  0  0  0  0
   60.5695   34.5417   50.2973 H   0  0  0  0  0  0  0  0  0  0  0  0
  1  2  1  0
  2  3  1  0
  3  4  2  0
  4  5  1  0
  5  6  2  0
  6  7  1  0
  7  8  1  0
  8  9  2  0
  9 10  1  0
 10 11  1  0
 11 12  2  0
 11 13  1  0
 13 14  2  0
 14 15  1  0
 15 16  2  0
 16 17  1  0
 17 18  1  0
 17 19  2  0
 10 20  2  0
  6 21  1  0
 21 22  2  0
 22  3  1  0
 20  7  1  0
 19 13  1  0
  1 23  1  0
  1 24  1  0
  1 25  1  0
  4 26  1  0
  5 27  1  0
  8 28  1  0
  9 29  1  0
 14 30  1  0
 15 31  1  0
 16 32  1  0
 19 33  1  0
 20 34  1  0
 21 35  1  0
 22 36  1  0
M  CHG  1  18  -1
M  END
>  <UniqueID>  (41) 
37

>  <SMILES>  (41) 
COc1ccc(-n2ccc(C(=O)c3cccc([O-])c3)c2)cc1

>  <Energy>  (41) 
72.05256522834011

>  <Genealogy>  (41) 
COc1ccc(-n2ccc(C(=O)c3cccc([O-])c3)c2)cc1 (protonated)
COc1ccc(-n2ccc(C(=O)c3cccc([O-])c3)c2)cc1 (3D coordinates assigned)
COc1ccc(-n2ccc(C(=O)c3cccc([O-])c3)c2)cc1 (optimized conformer: 72.05256522834011 kcal/mol)

>  <smiles>  (41) 
COc1ccc(-n2ccc(C(=O)c3cccc(O)c3)c2)cc1

>  <score_type>  (41) 
oracle

>  <origin>  (41) 
adg

>  <m_score__min__energy>  (41) 
-10.890000000000001

>  <m_primary>  (41) 
energy

$$$$
41:0
     RDKit          3D

 45 48  0  0  0  0  0  0  0  0999 V2000
   55.1940   26.7250   46.0510 N   0  0  0  0  0  0  0  0  0  0  0  0
   56.2770   25.9070   46.4880 C   0  0  0  0  0  0  0  0  0  0  0  0
   56.0410   24.7510   46.9300 O   0  0  0  0  0  0  0  0  0  0  0  0
   57.6600   26.4320   46.4650 C   0  0  0  0  0  0  0  0  0  0  0  0
   58.6940   25.6050   46.9410 C   0  0  0  0  0  0  0  0  0  0  0  0
   60.0290   25.9980   46.8290 C   0  0  0  0  0  0  0  0  0  0  0  0
   60.3510   27.2180   46.2380 C   0  0  0  0  0  0  0  0  0  0  0  0
   59.3380   28.0600   45.7780 C   0  0  0  0  0  0  0  0  0  0  0  0
   57.9870   27.7010   45.9170 C   0  0  0  0  0  0  0  0  0  0  0  0
   56.9890   28.6530   45.5010 N   0  0  0  0  0  0  0  0  0  0  0  0
   57.1700   29.6660   44.4910 C   0  0  0  0  0  0  0  0  0  0  0  0
   56.5190   29.4960   43.2590 C   0  0  0  0  0  0  0  0  0  0  0  0
   56.5830   30.4870   42.2780 C   0  0  0  0  0  0  0  0  0  0  0  0
   57.3030   31.6580   42.5120 C   0  0  0  0  0  0  0  0  0  0  0  0
   57.9850   31.8280   43.7180 C   0  0  0  0  0  0  0  0  0  0  0  0
   57.9560   30.8290   44.7020 C   0  0  0  0  0  0  0  0  0  0  0  0
   58.7460   31.0130   45.8860 N   0  0  0  0  0  0  0  0  0  0  0  0
   59.0510   32.3180   46.4050 C   0  0  0  0  0  0  0  0  0  0  0  0
   58.4240   33.3210   45.9690 O   0  0  0  0  0  0  0  0  0  0  0  0
   60.1000   32.5040   47.4400 C   0  0  0  0  0  0  0  0  0  0  0  0
   59.7420   32.9520   48.7410 C   0  0  0  0  0  0  0  0  0  0  0  0
   60.7240   33.1870   49.7200 C   0  0  0  0  0  0  0  0  0  0  0  0
   62.0530   32.9740   49.3720 C   0  0  0  0  0  0  0  0  0  0  0  0
   63.2100   33.1420   50.1010 C   0  0  0  0  0  0  0  0  0  0  0  0
   64.2400   32.7970   49.2310 C   0  0  0  0  0  0  0  0  0  0  0  0
   63.7480   32.4350   48.0250 N   0  0  0  0  0  0  0  0  0  0  0  0
   62.4130   32.5440   48.1250 C   0  0  0  0  0  0  0  0  0  0  0  0
   61.4670   32.2960   47.1330 C   0  0  0  0  0  0  0  0  0  0  0  0
   55.1520   27.0790   45.0690 H   0  0  0  0  0  0  0  0  0  0  0  0
   58.4481   24.6390   47.4061 H   0  0  0  0  0  0  0  0  0  0  0  0
   60.8278   25.3435   47.2079 H   0  0  0  0  0  0  0  0  0  0  0  0
   61.4043   27.5175   46.1340 H   0  0  0  0  0  0  0  0  0  0  0  0
   59.6003   29.0159   45.3010 H   0  0  0  0  0  0  0  0  0  0  0  0
   56.0510   28.5940   45.9590 H   0  0  0  0  0  0  0  0  0  0  0  0
   55.9530   28.5730   43.0648 H   0  0  0  0  0  0  0  0  0  0  0  0
   56.0645   30.3439   41.3185 H   0  0  0  0  0  0  0  0  0  0  0  0
   57.3335   32.4474   41.7466 H   0  0  0  0  0  0  0  0  0  0  0  0
   58.5505   32.7541   43.8983 H   0  0  0  0  0  0  0  0  0  0  0  0
   58.8860   30.1850   46.5060 H   0  0  0  0  0  0  0  0  0  0  0  0
   58.6822   33.1171   48.9852 H   0  0  0  0  0  0  0  0  0  0  0  0
   60.4492   33.5285   50.7289 H   0  0  0  0  0  0  0  0  0  0  0  0
   63.3001   33.4765   51.1450 H   0  0  0  0  0  0  0  0  0  0  0  0
   65.3090   32.8163   49.4895 H   0  0  0  0  0  0  0  0  0  0  0  0
   64.2960   32.1360   47.1870 H   0  0  0  0  0  0  0  0  0  0  0  0
   61.7740   31.9473   46.1359 H   0  0  0  0  0  0  0  0  0  0  0  0
  1  2  1  0
  2  3  2  0
  2  4  1  0
  4  5  2  0
  5  6  1  0
  6  7  2  0
  7  8  1  0
  8  9  2  0
  9 10  1  0
 10 11  1  0
 11 12  2  0
 12 13  1  0
 13 14  2  0
 14 15  1  0
 15 16  2  0
 16 17  1  0
 17 18  1  0
 18 19  2  0
 18 20  1  0
 20 21  2  0
 21 22  1  0
 22 23  2  0
 23 24  1  0
 24 25  2  0
 25 26  1  0
 26 27  1  0
 27 28  2  0
  9  4  1  0
 16 11  1  0
 28 20  1  0
 27 23  1  0
  1 29  1  0
  5 30  1  0
  6 31  1  0
  7 32  1  0
  8 33  1  0
 10 34  1  0
 12 35  1  0
 13 36  1  0
 14 37  1  0
 15 38  1  0
 17 39  1  0
 21 40  1  0
 22 41  1  0
 24 42  1  0
 25 43  1  0
 26 44  1  0
 28 45  1  0
M  CHG  1   1  -1
M  END
>  <UniqueID>  (42) 
38

>  <SMILES>  (42) 
[NH-]C(=O)c1ccccc1Nc1ccccc1NC(=O)c1ccc2cc[nH]c2c1

>  <Energy>  (42) 
97.70328951767642

>  <Genealogy>  (42) 
[NH-]C(=O)c1ccccc1Nc1ccccc1NC(=O)c1ccc2cc[nH]c2c1 (protonated)
[NH-]C(=O)c1ccccc1Nc1ccccc1NC(=O)c1ccc2cc[nH]c2c1 (3D coordinates assigned)
[NH-]C(=O)c1ccccc1Nc1ccccc1NC(=O)c1ccc2cc[nH]c2c1 (optimized conformer: 97.70328951767642 kcal/mol)

>  <smiles>  (42) 
NC(=O)c1ccccc1Nc1ccccc1NC(=O)c1ccc2cc[nH]c2c1

>  <score_type>  (42) 
oracle

>  <origin>  (42) 
adg

>  <m_score__min__energy>  (42) 
-12.76

>  <m_primary>  (42) 
energy

$$$$
42:0
     RDKit          3D

 38 39  0  0  0  0  0  0  0  0999 V2000
   62.4460   33.8920   48.9610 C   0  0  0  0  0  0  0  0  0  0  0  0
   62.4460   33.6040   47.5180 N   0  0  0  0  0  0  0  0  0  0  0  0
   63.7590   33.1090   47.0750 C   0  0  0  0  0  0  0  0  0  0  0  0
   61.3270   32.7300   47.1040 C   0  0  0  0  0  0  0  0  0  0  0  0
   59.9910   33.4640   46.8860 C   0  0  0  0  0  0  0  0  0  0  0  0
   58.9040   32.4890   46.7350 N   0  0  0  0  0  0  0  0  0  0  0  0
   58.9060   31.2520   47.5190 C   0  0  0  0  0  0  0  0  0  0  0  0
   59.1860   30.0900   46.6220 C   0  0  0  0  0  0  0  0  0  0  0  0
   60.1330   30.1050   45.6600 N   0  0  0  0  0  0  0  0  0  0  0  0
   60.1200   28.9640   44.9200 C   0  0  0  0  0  0  0  0  0  0  0  0
   59.1460   28.0400   45.2770 C   0  0  0  0  0  0  0  0  0  0  0  0
   58.2740   28.6790   46.5640 S   0  0  0  0  0  0  0  0  0  0  0  0
   57.7520   32.8200   45.9440 C   0  0  0  0  0  0  0  0  0  0  0  0
   57.0350   33.8010   46.2760 O   0  0  0  0  0  0  0  0  0  0  0  0
   57.3790   32.0190   44.7610 C   0  0  0  0  0  0  0  0  0  0  0  0
   57.7950   32.3860   43.4700 C   0  0  0  0  0  0  0  0  0  0  0  0
   57.4370   31.5890   42.3820 C   0  0  0  0  0  0  0  0  0  0  0  0
   56.6780   30.4350   42.5840 C   0  0  0  0  0  0  0  0  0  0  0  0
   56.2900   30.0920   43.8800 C   0  0  0  0  0  0  0  0  0  0  0  0
   56.6480   30.8810   44.9290 N   0  0  0  0  0  0  0  0  0  0  0  0
   63.4831   33.9638   49.3206 H   0  0  0  0  0  0  0  0  0  0  0  0
   61.9275   34.8445   49.1448 H   0  0  0  0  0  0  0  0  0  0  0  0
   61.9275   33.0830   49.4964 H   0  0  0  0  0  0  0  0  0  0  0  0
   64.3783   32.8755   47.9536 H   0  0  0  0  0  0  0  0  0  0  0  0
   63.6233   32.2003   46.4701 H   0  0  0  0  0  0  0  0  0  0  0  0
   64.2569   33.8811   46.4701 H   0  0  0  0  0  0  0  0  0  0  0  0
   61.6064   32.2375   46.1609 H   0  0  0  0  0  0  0  0  0  0  0  0
   61.1632   32.0197   47.9278 H   0  0  0  0  0  0  0  0  0  0  0  0
   59.7841   34.1097   47.7522 H   0  0  0  0  0  0  0  0  0  0  0  0
   60.0583   34.0754   45.9740 H   0  0  0  0  0  0  0  0  0  0  0  0
   59.6838   31.3115   48.2946 H   0  0  0  0  0  0  0  0  0  0  0  0
   57.9224   31.1186   47.9931 H   0  0  0  0  0  0  0  0  0  0  0  0
   60.8293   28.7857   44.0984 H   0  0  0  0  0  0  0  0  0  0  0  0
   58.9756   27.0629   44.8014 H   0  0  0  0  0  0  0  0  0  0  0  0
   58.3976   33.2937   43.3184 H   0  0  0  0  0  0  0  0  0  0  0  0
   57.7525   31.8698   41.3663 H   0  0  0  0  0  0  0  0  0  0  0  0
   56.3890   29.8031   41.7313 H   0  0  0  0  0  0  0  0  0  0  0  0
   55.6946   29.1835   44.0534 H   0  0  0  0  0  0  0  0  0  0  0  0
  1  2  1  0
  2  3  1  0
  2  4  1  0
  4  5  1  0
  5  6  1  0
  6  7  1  0
  7  8  1  0
  8  9  2  0
  9 10  1  0
 10 11  2  0
 11 12  1  0
  6 13  1  0
 13 14  2  0
 13 15  1  0
 15 16  2  0
 16 17  1  0
 17 18  2  0
 18 19  1  0
 19 20  2  0
 12  8  1  0
 20 15  1  0
  1 21  1  0
  1 22  1  0
  1 23  1  0
  3 24  1  0
  3 25  1  0
  3 26  1  0
  4 27  1  0
  4 28  1  0
  5 29  1  0
  5 30  1  0
  7 31  1  0
  7 32  1  0
 10 33  1  0
 11 34  1  0
 16 35  1  0
 17 36  1  0
 18 37  1  0
 19 38  1  0
M  END
>  <UniqueID>  (43) 
39

>  <SMILES>  (43) 
CN(C)CCN(Cc1nccs1)C(=O)c1ccccn1

>  <Energy>  (43) 
70.15584376220959

>  <Genealogy>  (43) 
CN(C)CCN(Cc1nccs1)C(=O)c1ccccn1 (3D coordinates assigned)
CN(C)CCN(Cc1nccs1)C(=O)c1ccccn1 (optimized conformer: 70.15584376220959 kcal/mol)

>  <smiles>  (43) 
CN(C)CCN(Cc1nccs1)C(=O)c1ccccn1

>  <score_type>  (43) 
oracle

>  <origin>  (43) 
adg

>  <m_score__min__energy>  (43) 
-6.6299999999999999

>  <m_primary>  (43) 
energy

$$$$
43:0
     RDKit          3D

 60 62  0  0  0  0  0  0  0  0999 V2000
   60.8310   33.8330   49.9960 C   0  0  0  0  0  0  0  0  0  0  0  0
   61.8580   33.3390   49.0100 C   0  0  0  0  0  0  0  0  0  0  0  0
   61.8420   33.8470   47.6990 C   0  0  0  0  0  0  0  0  0  0  0  0
   62.7800   33.4180   46.7580 C   0  0  0  0  0  0  0  0  0  0  0  0
   63.7470   32.4790   47.1130 C   0  0  0  0  0  0  0  0  0  0  0  0
   63.7750   31.9590   48.4080 C   0  0  0  0  0  0  0  0  0  0  0  0
   62.8290   32.3650   49.3660 C   0  0  0  0  0  0  0  0  0  0  0  0
   62.9280   31.7910   50.7590 C   0  0  0  0  0  0  0  0  0  0  0  0
   62.7290   30.3380   50.7050 N   0  0  0  0  0  0  0  0  0  0  0  0
   61.6780   29.8740   51.6270 C   0  0  0  0  0  0  0  0  0  0  0  0
   60.2510   30.2790   51.2010 C   0  0  0  0  0  0  0  0  0  0  0  0
   59.9430   29.8930   49.7770 C   0  0  0  0  0  0  0  0  0  0  0  0
   59.3670   30.8260   48.9000 C   0  0  0  0  0  0  0  0  0  0  0  0
   59.1110   30.4810   47.5700 C   0  0  0  0  0  0  0  0  0  0  0  0
   59.4310   29.1990   47.1000 C   0  0  0  0  0  0  0  0  0  0  0  0
   59.1020   28.7460   45.4310 S   0  0  0  0  0  0  0  0  0  0  0  0
   59.2750   27.2610   45.2810 O   0  0  0  0  0  0  0  0  0  0  0  0
   60.0530   29.4370   44.4950 O   0  0  0  0  0  0  0  0  0  0  0  0
   57.4760   29.1760   45.0220 N   0  0  0  0  0  0  0  0  0  0  0  0
   57.0860   30.5230   44.7460 C   0  0  0  0  0  0  0  0  0  0  0  0
   55.8770   30.7960   44.5110 O   0  0  0  0  0  0  0  0  0  0  0  0
   58.0790   31.5550   44.7320 N   0  0  0  0  0  0  0  0  0  0  0  0
   57.7460   32.9660   44.4960 C   0  0  0  0  0  0  0  0  0  0  0  0
   59.0250   33.8460   44.4730 C   0  0  0  0  0  0  0  0  0  0  0  0
   59.3350   34.5380   45.8170 C   0  0  0  0  0  0  0  0  0  0  0  0
   58.8740   33.6990   47.0140 C   0  0  0  0  0  0  0  0  0  0  0  0
   57.3550   33.4290   46.9810 C   0  0  0  0  0  0  0  0  0  0  0  0
   56.7530   33.4660   45.5620 C   0  0  0  0  0  0  0  0  0  0  0  0
   59.9970   28.2630   47.9750 C   0  0  0  0  0  0  0  0  0  0  0  0
   60.2520   28.6070   49.3050 C   0  0  0  0  0  0  0  0  0  0  0  0
   61.1926   33.6591   51.0202 H   0  0  0  0  0  0  0  0  0  0  0  0
   60.6647   34.9096   49.8438 H   0  0  0  0  0  0  0  0  0  0  0  0
   59.8860   33.2909   49.8438 H   0  0  0  0  0  0  0  0  0  0  0  0
   61.0830   34.5897   47.4119 H   0  0  0  0  0  0  0  0  0  0  0  0
   62.7558   33.8216   45.7350 H   0  0  0  0  0  0  0  0  0  0  0  0
   64.4890   32.1474   46.3717 H   0  0  0  0  0  0  0  0  0  0  0  0
   64.5456   31.2235   48.6822 H   0  0  0  0  0  0  0  0  0  0  0  0
   63.9222   32.0096   51.1758 H   0  0  0  0  0  0  0  0  0  0  0  0
   62.1550   32.2433   51.3976 H   0  0  0  0  0  0  0  0  0  0  0  0
   63.6300   29.8500   50.9180 H   0  0  0  0  0  0  0  0  0  0  0  0
   61.7250   28.7764   51.6819 H   0  0  0  0  0  0  0  0  0  0  0  0
   61.8701   30.3533   52.5983 H   0  0  0  0  0  0  0  0  0  0  0  0
   59.5296   29.7810   51.8655 H   0  0  0  0  0  0  0  0  0  0  0  0
   60.1783   31.3742   51.2739 H   0  0  0  0  0  0  0  0  0  0  0  0
   59.1158   31.8340   49.2617 H   0  0  0  0  0  0  0  0  0  0  0  0
   58.6573   31.2170   46.8900 H   0  0  0  0  0  0  0  0  0  0  0  0
   59.0740   31.2680   44.8670 H   0  0  0  0  0  0  0  0  0  0  0  0
   57.2679   33.0476   43.5087 H   0  0  0  0  0  0  0  0  0  0  0  0
   59.8800   33.2067   44.2078 H   0  0  0  0  0  0  0  0  0  0  0  0
   58.8488   34.6444   43.7372 H   0  0  0  0  0  0  0  0  0  0  0  0
   60.4207   34.6977   45.8922 H   0  0  0  0  0  0  0  0  0  0  0  0
   58.7900   35.4932   45.8413 H   0  0  0  0  0  0  0  0  0  0  0  0
   59.4061   32.7364   46.9987 H   0  0  0  0  0  0  0  0  0  0  0  0
   59.0985   34.2637   47.9309 H   0  0  0  0  0  0  0  0  0  0  0  0
   57.1690   32.4342   47.4120 H   0  0  0  0  0  0  0  0  0  0  0  0
   56.8718   34.2314   47.5578 H   0  0  0  0  0  0  0  0  0  0  0  0
   55.8580   32.8269   45.5400 H   0  0  0  0  0  0  0  0  0  0  0  0
   56.5039   34.5115   45.3278 H   0  0  0  0  0  0  0  0  0  0  0  0
   60.2417   27.2533   47.6137 H   0  0  0  0  0  0  0  0  0  0  0  0
   60.6971   27.8666   49.9859 H   0  0  0  0  0  0  0  0  0  0  0  0
  1  2  1  0
  2  3  2  0
  3  4  1  0
  4  5  2  0
  5  6  1  0
  6  7  2  0
  7  8  1  0
  8  9  1  0
  9 10  1  0
 10 11  1  0
 11 12  1  0
 12 13  2  0
 13 14  1  0
 14 15  2  0
 15 16  1  0
 16 17  2  0
 16 18  2  0
 16 19  1  0
 19 20  1  0
 20 21  2  0
 20 22  1  0
 22 23  1  0
 23 24  1  0
 24 25  1  0
 25 26  1  0
 26 27  1  0
 27 28  1  0
 15 29  1  0
 29 30  2  0
  7  2  1  0
 30 12  1  0
 28 23  1  0
  1 31  1  0
  1 32  1  0
  1 33  1  0
  3 34  1  0
  4 35  1  0
  5 36  1  0
  6 37  1  0
  8 38  1  0
  8 39  1  0
  9 40  1  0
 10 41  1  0
 10 42  1  0
 11 43  1  0
 11 44  1  0
 13 45  1  0
 14 46  1  0
 22 47  1  0
 23 48  1  0
 24 49  1  0
 24 50  1  0
 25 51  1  0
 25 52  1  0
 26 53  1  0
 26 54  1  0
 27 55  1  0
 27 56  1  0
 28 57  1  0
 28 58  1  0
 29 59  1  0
 30 60  1  0
M  CHG  1  19  -1
M  END
>  <UniqueID>  (44) 
40

>  <SMILES>  (44) 
Cc1ccccc1CNCCc1ccc(S(=O)(=O)[N-]C(=O)NC2CCCCC2)cc1

>  <Energy>  (44) 
61.0745363615034

>  <Genealogy>  (44) 
Cc1ccccc1CNCCc1ccc(S(=O)(=O)[N-]C(=O)NC2CCCCC2)cc1 (protonated)
Cc1ccccc1CNCCc1ccc(S(=O)(=O)[N-]C(=O)NC2CCCCC2)cc1 (3D coordinates assigned)
Cc1ccccc1CNCCc1ccc(S(=O)(=O)[N-]C(=O)NC2CCCCC2)cc1 (nonaromatic ring conformer: 61.0745363615034 kcal/mol)

>  <smiles>  (44) 
Cc1ccccc1CNCCc1ccc(S(=O)(=O)NC(=O)NC2CCCCC2)cc1

>  <score_type>  (44) 
oracle

>  <origin>  (44) 
adg

>  <m_score__min__energy>  (44) 
-11.279999999999999

>  <m_primary>  (44) 
energy

$$$$
44:0
     RDKit          3D

 26 28  0  0  0  0  0  0  0  0999 V2000
   56.1430   23.9690   46.8790 C   0  0  0  0  0  0  0  0  0  0  0  0
   56.9000   25.1900   46.5840 N   0  0  0  0  0  0  0  0  0  0  0  0
   58.2700   25.2070   46.7550 C   0  0  0  0  0  0  0  0  0  0  0  0
   58.9950   26.3360   46.4950 N   0  0  0  0  0  0  0  0  0  0  0  0
   58.3360   27.4380   46.0670 C   0  0  0  0  0  0  0  0  0  0  0  0
   58.8740   28.6260   45.7660 N   0  0  0  0  0  0  0  0  0  0  0  0
   57.7780   29.3500   45.4040 C   0  0  0  0  0  0  0  0  0  0  0  0
   57.8570   30.7650   44.9740 C   0  0  0  0  0  0  0  0  0  0  0  0
   57.7100   31.1090   43.6190 C   0  0  0  0  0  0  0  0  0  0  0  0
   57.7840   32.4460   43.2160 C   0  0  0  0  0  0  0  0  0  0  0  0
   58.0080   33.4510   44.1590 C   0  0  0  0  0  0  0  0  0  0  0  0
   58.1550   33.1210   45.5080 C   0  0  0  0  0  0  0  0  0  0  0  0
   58.0820   31.7860   45.9170 C   0  0  0  0  0  0  0  0  0  0  0  0
   56.6030   28.6630   45.4700 N   0  0  0  0  0  0  0  0  0  0  0  0
   57.0010   27.4560   45.8940 C   0  0  0  0  0  0  0  0  0  0  0  0
   56.2460   26.3210   46.1530 C   0  0  0  0  0  0  0  0  0  0  0  0
   54.9930   26.3360   45.9960 O   0  0  0  0  0  0  0  0  0  0  0  0
   56.0637   23.8410   47.9686 H   0  0  0  0  0  0  0  0  0  0  0  0
   55.1354   24.0483   46.4448 H   0  0  0  0  0  0  0  0  0  0  0  0
   56.6621   23.1018   46.4448 H   0  0  0  0  0  0  0  0  0  0  0  0
   58.7846   24.3000   47.1051 H   0  0  0  0  0  0  0  0  0  0  0  0
   57.5357   30.3215   42.8710 H   0  0  0  0  0  0  0  0  0  0  0  0
   57.6655   32.7065   42.1539 H   0  0  0  0  0  0  0  0  0  0  0  0
   58.0686   34.5019   43.8396 H   0  0  0  0  0  0  0  0  0  0  0  0
   58.3287   33.9135   46.2508 H   0  0  0  0  0  0  0  0  0  0  0  0
   58.2009   31.5321   46.9807 H   0  0  0  0  0  0  0  0  0  0  0  0
  1  2  1  0
  2  3  1  0
  3  4  2  0
  4  5  1  0
  5  6  1  0
  6  7  1  0
  7  8  1  0
  8  9  2  0
  9 10  1  0
 10 11  2  0
 11 12  1  0
 12 13  2  0
  7 14  2  0
 14 15  1  0
 15 16  1  0
 16 17  2  0
 16  2  1  0
 15  5  2  0
 13  8  1  0
  1 18  1  0
  1 19  1  0
  1 20  1  0
  3 21  1  0
  9 22  1  0
 10 23  1  0
 11 24  1  0
 12 25  1  0
 13 26  1  0
M  CHG  1   6  -1
M  END
>  <UniqueID>  (45) 
41

>  <SMILES>  (45) 
Cn1cnc2[n-]c(-c3ccccc3)nc2c1=O

>  <Energy>  (45) 
68.70566556212523

>  <Genealogy>  (45) 
Cn1cnc2[n-]c(-c3ccccc3)nc2c1=O (protonated)
Cn1cnc2[n-]c(-c3ccccc3)nc2c1=O (3D coordinates assigned)
Cn1cnc2[n-]c(-c3ccccc3)nc2c1=O (optimized conformer: 68.70566556212523 kcal/mol)

>  <smiles>  (45) 
Cn1cnc2[nH]c(-c3ccccc3)nc2c1=O

>  <score_type>  (45) 
oracle

>  <origin>  (45) 
adg

>  <m_score__min__energy>  (45) 
-7.6200000000000001

>  <m_primary>  (45) 
energy

$$$$
45:0
     RDKit          3D

 43 46  0  0  0  0  0  0  0  0999 V2000
   60.6400   26.1960   46.3740 C   0  0  0  0  0  0  0  0  0  0  0  0
   59.4910   27.0680   45.9590 C   0  0  0  0  0  0  0  0  0  0  0  0
   58.2640   26.4940   45.6000 C   0  0  0  0  0  0  0  0  0  0  0  0
   57.1900   27.3060   45.2330 C   0  0  0  0  0  0  0  0  0  0  0  0
   57.3200   28.6980   45.2500 C   0  0  0  0  0  0  0  0  0  0  0  0
   58.5450   29.2950   45.6160 C   0  0  0  0  0  0  0  0  0  0  0  0
   59.6270   28.4650   45.9700 C   0  0  0  0  0  0  0  0  0  0  0  0
   58.7170   30.7720   45.4940 C   0  0  0  0  0  0  0  0  0  0  0  0
   59.6250   31.4420   46.2650 N   0  0  0  0  0  0  0  0  0  0  0  0
   59.8170   32.7890   46.1310 C   0  0  0  0  0  0  0  0  0  0  0  0
   60.8000   33.4850   46.9300 N   0  0  0  0  0  0  0  0  0  0  0  0
   62.1060   33.8580   46.3710 C   0  0  0  0  0  0  0  0  0  0  0  0
   63.2440   33.3200   47.2580 C   0  0  0  0  0  0  0  0  0  0  0  0
   62.9310   33.3180   48.7120 N   0  0  0  0  0  0  0  0  0  0  0  0
   62.7320   31.9530   49.2270 C   0  0  0  0  0  0  0  0  0  0  0  0
   61.8110   34.2120   49.0760 C   0  0  0  0  0  0  0  0  0  0  0  0
   60.5190   33.8400   48.3280 C   0  0  0  0  0  0  0  0  0  0  0  0
   59.0780   33.4780   45.2200 N   0  0  0  0  0  0  0  0  0  0  0  0
   58.1470   32.8660   44.4490 C   0  0  0  0  0  0  0  0  0  0  0  0
   57.9300   31.4940   44.5740 C   0  0  0  0  0  0  0  0  0  0  0  0
   56.8910   30.7990   43.7330 C   0  0  0  0  0  0  0  0  0  0  0  0
   55.9020   29.7130   44.8060 S   0  0  0  0  0  0  0  0  0  0  0  0
   60.6923   26.1563   47.4720 H   0  0  0  0  0  0  0  0  0  0  0  0
   60.4919   25.1809   45.9771 H   0  0  0  0  0  0  0  0  0  0  0  0
   61.5779   26.6117   45.9771 H   0  0  0  0  0  0  0  0  0  0  0  0
   58.1471   25.4003   45.6075 H   0  0  0  0  0  0  0  0  0  0  0  0
   56.2368   26.8488   44.9290 H   0  0  0  0  0  0  0  0  0  0  0  0
   60.5880   28.9163   46.2579 H   0  0  0  0  0  0  0  0  0  0  0  0
   60.1530   30.9210   46.9980 H   0  0  0  0  0  0  0  0  0  0  0  0
   62.2024   33.4333   45.3609 H   0  0  0  0  0  0  0  0  0  0  0  0
   62.1754   34.9550   46.3285 H   0  0  0  0  0  0  0  0  0  0  0  0
   63.4629   32.2869   46.9503 H   0  0  0  0  0  0  0  0  0  0  0  0
   64.1011   33.9952   47.1188 H   0  0  0  0  0  0  0  0  0  0  0  0
   62.7348   31.9720   50.3268 H   0  0  0  0  0  0  0  0  0  0  0  0
   61.7675   31.5632   48.8695 H   0  0  0  0  0  0  0  0  0  0  0  0
   63.5450   31.3040   48.8695 H   0  0  0  0  0  0  0  0  0  0  0  0
   61.6309   34.1350   50.1584 H   0  0  0  0  0  0  0  0  0  0  0  0
   62.0867   35.2389   48.7940 H   0  0  0  0  0  0  0  0  0  0  0  0
   60.0485   32.9812   48.8290 H   0  0  0  0  0  0  0  0  0  0  0  0
   59.8464   34.7103   48.3388 H   0  0  0  0  0  0  0  0  0  0  0  0
   57.5621   33.4514   43.7243 H   0  0  0  0  0  0  0  0  0  0  0  0
   56.2373   31.5466   43.2599 H   0  0  0  0  0  0  0  0  0  0  0  0
   57.3811   30.2043   42.9480 H   0  0  0  0  0  0  0  0  0  0  0  0
  1  2  1  0
  2  3  2  0
  3  4  1  0
  4  5  2  0
  5  6  1  0
  6  7  2  0
  6  8  1  0
  8  9  2  0
  9 10  1  0
 10 11  1  0
 11 12  1  0
 12 13  1  0
 13 14  1  0
 14 15  1  0
 14 16  1  0
 16 17  1  0
 10 18  2  0
 18 19  1  0
 19 20  2  0
 20 21  1  0
 21 22  1  0
  7  2  1  0
 20  8  1  0
 22  5  1  0
 17 11  1  0
  1 23  1  0
  1 24  1  0
  1 25  1  0
  3 26  1  0
  4 27  1  0
  7 28  1  0
  9 29  1  0
 12 30  1  0
 12 31  1  0
 13 32  1  0
 13 33  1  0
 15 34  1  0
 15 35  1  0
 15 36  1  0
 16 37  1  0
 16 38  1  0
 17 39  1  0
 17 40  1  0
 19 41  1  0
 21 42  1  0
 21 43  1  0
M  CHG  1   9   1
M  END
>  <UniqueID>  (46) 
42

>  <SMILES>  (46) 
Cc1ccc2c(c1)-c1[nH+]c(N3CCN(C)CC3)ncc1CS2

>  <Energy>  (46) 
63.77639174789988

>  <Genealogy>  (46) 
Cc1ccc2c(c1)-c1[nH+]c(N3CCN(C)CC3)ncc1CS2 (protonated)
Cc1ccc2c(c1)-c1[nH+]c(N3CCN(C)CC3)ncc1CS2 (3D coordinates assigned)
Cc1ccc2c(c1)-c1[nH+]c(N3CCN(C)CC3)ncc1CS2 (nonaromatic ring conformer: 63.77639174789988 kcal/mol)

>  <smiles>  (46) 
Cc1ccc2c(c1)-c1nc(N3CCN(C)CC3)ncc1CS2

>  <score_type>  (46) 
oracle

>  <origin>  (46) 
adg

>  <m_score__min__energy>  (46) 
-6.3799999999999999

>  <m_primary>  (46) 
energy

$$$$
46:0
     RDKit          3D

 31 33  0  0  0  0  0  0  0  0999 V2000
   58.1030   29.1980   52.5170 H   0  0  0  0  0  0  0  0  0  0  0  0
   57.3390   29.7140   52.0310 N   0  0  0  0  0  0  0  0  0  0  0  0
   56.0860   29.6710   52.3640 C   0  0  0  0  0  0  0  0  0  0  0  0
   55.2650   30.5650   51.8150 O   0  0  0  0  0  0  0  0  0  0  0  0
   53.9760   30.6560   52.1230 C   0  0  0  0  0  0  0  0  0  0  0  0
   53.1770   31.6220   51.5010 C   0  0  0  0  0  0  0  0  0  0  0  0
   53.6156   32.2995   50.7536 H   0  0  0  0  0  0  0  0  0  0  0  0
   51.8200   31.7270   51.8290 C   0  0  0  0  0  0  0  0  0  0  0  0
   51.0290   32.6870   51.2110 O   0  0  0  0  0  0  0  0  0  0  0  0
   51.2600   30.8660   52.7790 C   0  0  0  0  0  0  0  0  0  0  0  0
   50.1937   30.9513   53.0352 H   0  0  0  0  0  0  0  0  0  0  0  0
   52.0520   29.8970   53.4040 C   0  0  0  0  0  0  0  0  0  0  0  0
   51.6090   29.2208   54.1500 H   0  0  0  0  0  0  0  0  0  0  0  0
   53.4120   29.7890   53.0780 C   0  0  0  0  0  0  0  0  0  0  0  0
   54.2310   28.8270   53.6720 C   0  0  0  0  0  0  0  0  0  0  0  0
   53.8168   28.1414   54.4259 H   0  0  0  0  0  0  0  0  0  0  0  0
   55.5830   28.7350   53.3070 C   0  0  0  0  0  0  0  0  0  0  0  0
   56.3960   27.6520   53.8990 C   0  0  0  0  0  0  0  0  0  0  0  0
   55.8600   26.5390   54.1450 O   0  0  0  0  0  0  0  0  0  0  0  0
   57.7880   27.8650   54.1730 N   0  0  0  0  0  0  0  0  0  0  0  0
   58.8920   27.1260   53.6290 C   0  0  0  0  0  0  0  0  0  0  0  0
   59.9210   27.8300   52.9910 C   0  0  0  0  0  0  0  0  0  0  0  0
   59.8760   28.9274   52.9308 H   0  0  0  0  0  0  0  0  0  0  0  0
   61.0050   27.1480   52.4300 C   0  0  0  0  0  0  0  0  0  0  0  0
   61.8161   27.7098   51.9437 H   0  0  0  0  0  0  0  0  0  0  0  0
   61.0580   25.7530   52.4870 C   0  0  0  0  0  0  0  0  0  0  0  0
   61.9140   25.2170   52.0512 H   0  0  0  0  0  0  0  0  0  0  0  0
   60.0230   25.0380   53.0980 C   0  0  0  0  0  0  0  0  0  0  0  0
   60.0613   23.9393   53.1351 H   0  0  0  0  0  0  0  0  0  0  0  0
   58.9390   25.7190   53.6620 C   0  0  0  0  0  0  0  0  0  0  0  0
   58.1210   25.1538   54.1326 H   0  0  0  0  0  0  0  0  0  0  0  0
  1  2  1  0
  2  3  2  0
  3  4  1  0
  4  5  1  0
  5  6  2  0
  6  7  1  0
  6  8  1  0
  8  9  1  0
  8 10  2  0
 10 11  1  0
 10 12  1  0
 12 13  1  0
 12 14  2  0
 14 15  1  0
 15 16  1  0
 15 17  2  0
 17 18  1  0
 18 19  2  0
 18 20  1  0
 20 21  1  0
 21 22  2  0
 22 23  1  0
 22 24  1  0
 24 25  1  0
 24 26  2  0
 26 27  1  0
 26 28  1  0
 28 29  1  0
 28 30  2  0
 30 31  1  0
 17  3  1  0
 30 21  1  0
 14  5  1  0
M  CHG  2   9  -1  20  -1
M  END
>  <UniqueID>  (47) 
43

>  <SMILES>  (47) 
[H]/N=c1/oc2cc([O-])ccc2cc1C(=O)[N-]c1ccccc1

>  <Energy>  (47) 
48.97087398298439

>  <Genealogy>  (47) 
N=c1oc2cc([O-])ccc2cc1C(=O)[N-]c1ccccc1 (protonated)
[H]/N=c1/oc2cc([O-])ccc2cc1C(=O)[N-]c1ccccc1 (cis-trans isomerization)
[H]/N=c1/oc2cc([O-])ccc2cc1C(=O)[N-]c1ccccc1 (3D coordinates assigned)
[H]/N=c1/oc2cc([O-])ccc2cc1C(=O)[N-]c1ccccc1 (optimized conformer: 48.97087398298439 kcal/mol)

>  <smiles>  (47) 
N=c1oc2cc(O)ccc2cc1C(=O)Nc1ccccc1

>  <score_type>  (47) 
oracle

>  <origin>  (47) 
adg

>  <m_score__min__energy>  (47) 
-10

>  <m_primary>  (47) 
energy

$$$$
47:0
     RDKit          3D

 35 37  0  0  0  0  0  0  0  0999 V2000
   59.6280   34.9920   46.8250 C   0  0  0  0  0  0  0  0  0  0  0  0
   59.2140   33.6640   46.2890 C   0  0  0  0  0  0  0  0  0  0  0  0
   59.8240   32.5110   46.6330 N   0  0  0  0  0  0  0  0  0  0  0  0
   59.1170   31.5620   45.9900 C   0  0  0  0  0  0  0  0  0  0  0  0
   59.4480   30.1210   46.0700 C   0  0  0  0  0  0  0  0  0  0  0  0
   60.2350   29.4940   45.0900 C   0  0  0  0  0  0  0  0  0  0  0  0
   60.5210   28.1290   45.1780 C   0  0  0  0  0  0  0  0  0  0  0  0
   60.0040   27.3630   46.2280 C   0  0  0  0  0  0  0  0  0  0  0  0
   60.3300   25.9670   46.2970 N   0  0  0  0  0  0  0  0  0  0  0  0
   59.4290   24.8780   46.0570 C   0  0  0  0  0  0  0  0  0  0  0  0
   59.8940   23.7920   45.6230 O   0  0  0  0  0  0  0  0  0  0  0  0
   57.9710   25.0150   46.2430 C   0  0  0  0  0  0  0  0  0  0  0  0
   57.1650   24.1810   46.9970 C   0  0  0  0  0  0  0  0  0  0  0  0
   55.8760   24.5670   46.9230 N   0  0  0  0  0  0  0  0  0  0  0  0
   55.8750   25.6400   46.1100 C   0  0  0  0  0  0  0  0  0  0  0  0
   54.7180   26.3360   45.7740 O   0  0  0  0  0  0  0  0  0  0  0  0
   57.1410   25.9520   45.6620 C   0  0  0  0  0  0  0  0  0  0  0  0
   59.2210   27.9860   47.2140 C   0  0  0  0  0  0  0  0  0  0  0  0
   58.9340   29.3510   47.1260 C   0  0  0  0  0  0  0  0  0  0  0  0
   58.1050   32.1720   45.2670 C   0  0  0  0  0  0  0  0  0  0  0  0
   57.0990   31.5240   44.3700 C   0  0  0  0  0  0  0  0  0  0  0  0
   58.1540   33.5010   45.4690 N   0  0  0  0  0  0  0  0  0  0  0  0
   59.6188   34.9626   47.9246 H   0  0  0  0  0  0  0  0  0  0  0  0
   60.6428   35.2293   46.4730 H   0  0  0  0  0  0  0  0  0  0  0  0
   58.9279   35.7639   46.4730 H   0  0  0  0  0  0  0  0  0  0  0  0
   60.6289   30.0814   44.2475 H   0  0  0  0  0  0  0  0  0  0  0  0
   61.1569   27.6538   44.4165 H   0  0  0  0  0  0  0  0  0  0  0  0
   57.5270   23.3199   47.5779 H   0  0  0  0  0  0  0  0  0  0  0  0
   54.3780   27.0920   46.3550 H   0  0  0  0  0  0  0  0  0  0  0  0
   57.4278   26.7716   44.9867 H   0  0  0  0  0  0  0  0  0  0  0  0
   58.8324   27.3975   48.0582 H   0  0  0  0  0  0  0  0  0  0  0  0
   58.3006   29.8259   47.8898 H   0  0  0  0  0  0  0  0  0  0  0  0
   56.3294   31.0283   44.9799 H   0  0  0  0  0  0  0  0  0  0  0  0
   56.6275   32.2886   43.7352 H   0  0  0  0  0  0  0  0  0  0  0  0
   57.6002   30.7785   43.7352 H   0  0  0  0  0  0  0  0  0  0  0  0
  1  2  1  0
  2  3  2  0
  3  4  1  0
  4  5  1  0
  5  6  2  0
  6  7  1  0
  7  8  2  0
  8  9  1  0
  9 10  1  0
 10 11  2  0
 10 12  1  0
 12 13  2  0
 13 14  1  0
 14 15  1  0
 15 16  1  0
 15 17  2  0
  8 18  1  0
 18 19  2  0
  4 20  2  0
 20 21  1  0
 20 22  1  0
 22  2  1  0
 19  5  1  0
 17 12  1  0
  1 23  1  0
  1 24  1  0
  1 25  1  0
  6 26  1  0
  7 27  1  0
 13 28  1  0
 16 29  1  0
 17 30  1  0
 18 31  1  0
 19 32  1  0
 21 33  1  0
 21 34  1  0
 21 35  1  0
M  CHG  3   9  -1  14  -1  22  -1
M  END
>  <UniqueID>  (48) 
44

>  <SMILES>  (48) 
Cc1nc(-c2ccc([N-]C(=O)c3c[n-]c(O)c3)cc2)c(C)[n-]1

>  <Energy>  (48) 
96.52142947038662

>  <Genealogy>  (48) 
Cc1nc(-c2ccc([N-]C(=O)c3c[n-]c(O)c3)cc2)c(C)[n-]1 (protonated)
Cc1nc(-c2ccc([N-]C(=O)c3c[n-]c(O)c3)cc2)c(C)[n-]1 (3D coordinates assigned)
Cc1nc(-c2ccc([N-]C(=O)c3c[n-]c(O)c3)cc2)c(C)[n-]1 (optimized conformer: 96.52142947038662 kcal/mol)

>  <smiles>  (48) 
Cc1nc(-c2ccc(NC(=O)c3c[nH]c(O)c3)cc2)c(C)[nH]1

>  <score_type>  (48) 
oracle

>  <origin>  (48) 
adg

>  <m_score__min__energy>  (48) 
-11.69

>  <m_primary>  (48) 
energy

$$$$
48:0
     RDKit          3D

 43 45  0  0  0  0  0  0  0  0999 V2000
   60.7280   27.6440   49.3880 C   0  0  0  0  0  0  0  0  0  0  0  0
   60.8600   29.0870   49.6320 N   0  0  0  0  0  0  0  0  0  0  0  0
   60.1920   29.4660   50.8840 C   0  0  0  0  0  0  0  0  0  0  0  0
   60.1750   29.9820   48.3000 S   0  0  0  0  0  0  0  0  0  0  0  0
   60.8780   31.3070   48.1810 O   0  0  0  0  0  0  0  0  0  0  0  0
   58.7100   30.2020   48.5520 O   0  0  0  0  0  0  0  0  0  0  0  0
   60.3810   29.0570   46.8420 N   0  0  0  0  0  0  0  0  0  0  0  0
   59.4940   28.7930   45.9240 C   0  0  0  0  0  0  0  0  0  0  0  0
   59.1600   29.8660   44.9300 C   0  0  0  0  0  0  0  0  0  0  0  0
   57.7100   30.2350   45.0840 C   0  0  0  0  0  0  0  0  0  0  0  0
   57.3710   31.4900   44.9730 N   0  0  0  0  0  0  0  0  0  0  0  0
   58.0500   32.6300   45.5170 C   0  0  0  0  0  0  0  0  0  0  0  0
   58.3560   33.7450   44.7150 C   0  0  0  0  0  0  0  0  0  0  0  0
   58.9640   34.8710   45.2790 C   0  0  0  0  0  0  0  0  0  0  0  0
   59.2690   35.9370   44.4990 F   0  0  0  0  0  0  0  0  0  0  0  0
   59.2480   34.9020   46.6480 C   0  0  0  0  0  0  0  0  0  0  0  0
   58.9130   33.8110   47.4550 C   0  0  0  0  0  0  0  0  0  0  0  0
   59.1720   33.8490   48.7860 F   0  0  0  0  0  0  0  0  0  0  0  0
   58.3050   32.6830   46.8930 C   0  0  0  0  0  0  0  0  0  0  0  0
   56.7330   29.1210   45.2570 C   0  0  0  0  0  0  0  0  0  0  0  0
   55.5080   29.2900   45.0120 O   0  0  0  0  0  0  0  0  0  0  0  0
   57.2360   27.7750   45.6360 C   0  0  0  0  0  0  0  0  0  0  0  0
   56.3770   26.6620   45.6500 C   0  0  0  0  0  0  0  0  0  0  0  0
   56.8800   25.3860   45.9100 C   0  0  0  0  0  0  0  0  0  0  0  0
   58.2460   25.2030   46.1320 C   0  0  0  0  0  0  0  0  0  0  0  0
   59.1090   26.3010   46.1290 C   0  0  0  0  0  0  0  0  0  0  0  0
   58.6070   27.5990   45.9390 C   0  0  0  0  0  0  0  0  0  0  0  0
   60.6794   27.1124   50.3498 H   0  0  0  0  0  0  0  0  0  0  0  0
   59.8085   27.4515   48.8158 H   0  0  0  0  0  0  0  0  0  0  0  0
   61.5973   27.2879   48.8158 H   0  0  0  0  0  0  0  0  0  0  0  0
   61.8760   29.3290   49.7030 H   0  0  0  0  0  0  0  0  0  0  0  0
   60.7941   29.1244   51.7388 H   0  0  0  0  0  0  0  0  0  0  0  0
   60.0840   30.5599   50.9254 H   0  0  0  0  0  0  0  0  0  0  0  0
   59.1976   28.9976   50.9254 H   0  0  0  0  0  0  0  0  0  0  0  0
   59.7881   30.7499   45.1151 H   0  0  0  0  0  0  0  0  0  0  0  0
   59.3464   29.5010   43.9092 H   0  0  0  0  0  0  0  0  0  0  0  0
   58.1163   33.7309   43.6415 H   0  0  0  0  0  0  0  0  0  0  0  0
   59.7346   35.7843   47.0894 H   0  0  0  0  0  0  0  0  0  0  0  0
   58.0261   31.8342   47.5347 H   0  0  0  0  0  0  0  0  0  0  0  0
   55.3029   26.7974   45.4551 H   0  0  0  0  0  0  0  0  0  0  0  0
   56.1986   24.5230   45.9400 H   0  0  0  0  0  0  0  0  0  0  0  0
   58.6431   24.1927   46.3095 H   0  0  0  0  0  0  0  0  0  0  0  0
   60.1884   26.1484   46.2763 H   0  0  0  0  0  0  0  0  0  0  0  0
  1  2  1  0
  2  3  1  0
  2  4  1  0
  4  5  2  0
  4  6  2  0
  4  7  1  0
  7  8  2  3
  8  9  1  0
  9 10  1  0
 10 11  2  3
 11 12  1  0
 12 13  2  0
 13 14  1  0
 14 15  1  0
 14 16  2  0
 16 17  1  0
 17 18  1  0
 17 19  2  0
 10 20  1  0
 20 21  2  0
 20 22  1  0
 22 23  2  0
 23 24  1  0
 24 25  2  0
 25 26  1  0
 26 27  2  0
 27  8  1  0
 19 12  1  0
 27 22  1  0
  1 28  1  0
  1 29  1  0
  1 30  1  0
  2 31  1  0
  3 32  1  0
  3 33  1  0
  3 34  1  0
  9 35  1  0
  9 36  1  0
 13 37  1  0
 16 38  1  0
 19 39  1  0
 23 40  1  0
 24 41  1  0
 25 42  1  0
 26 43  1  0
M  CHG  1   2   1
M  END
>  <UniqueID>  (49) 
45

>  <SMILES>  (49) 
C[NH+](C)S(=O)(=O)N=C1CC(=Nc2cc(F)cc(F)c2)C(=O)c2ccccc21

>  <Energy>  (49) 
65.02121799889252

>  <Genealogy>  (49) 
C[NH+](C)S(=O)(=O)N=C1CC(=Nc2cc(F)cc(F)c2)C(=O)c2ccccc21 (protonated)
C[NH+](C)S(=O)(=O)N=C1CC(=Nc2cc(F)cc(F)c2)C(=O)c2ccccc21 (3D coordinates assigned)
C[NH+](C)S(=O)(=O)N=C1CC(=Nc2cc(F)cc(F)c2)C(=O)c2ccccc21 (nonaromatic ring conformer: 65.02121799889252 kcal/mol)

>  <smiles>  (49) 
CN(C)S(=O)(=O)N=C1CC(=Nc2cc(F)cc(F)c2)C(=O)c2ccccc21

>  <score_type>  (49) 
oracle

>  <origin>  (49) 
adg

>  <m_score__min__energy>  (49) 
-7.3899999999999997

>  <m_primary>  (49) 
energy

$$$$
49:0
     RDKit          3D

 50 52  0  0  0  0  0  0  0  0999 V2000
   61.4990   30.0180   49.8100 C   0  0  0  0  0  0  0  0  0  0  0  0
   62.7260   30.8860   50.0930 C   0  0  0  0  0  0  0  0  0  0  0  0
   63.2910   31.5610   48.8310 C   0  0  0  0  0  0  0  0  0  0  0  0
   63.8340   32.9840   49.0490 C   0  0  0  0  0  0  0  0  0  0  0  0
   62.7270   34.0190   49.2770 C   0  0  0  0  0  0  0  0  0  0  0  0
   61.4820   33.5760   48.6430 N   0  0  0  0  0  0  0  0  0  0  0  0
   61.2320   33.4670   47.3100 C   0  0  0  0  0  0  0  0  0  0  0  0
   62.2090   33.8440   46.2320 C   0  0  0  0  0  0  0  0  0  0  0  0
   59.9380   32.9840   47.0960 C   0  0  0  0  0  0  0  0  0  0  0  0
   59.2700   32.7720   45.7930 C   0  0  0  0  0  0  0  0  0  0  0  0
   59.5410   33.5510   44.8410 O   0  0  0  0  0  0  0  0  0  0  0  0
   58.2990   31.6710   45.5810 C   0  0  0  0  0  0  0  0  0  0  0  0
   57.2210   31.8460   44.6970 C   0  0  0  0  0  0  0  0  0  0  0  0
   56.3030   30.8160   44.4900 C   0  0  0  0  0  0  0  0  0  0  0  0
   56.4490   29.5980   45.1580 C   0  0  0  0  0  0  0  0  0  0  0  0
   55.5230   28.5830   44.9460 O   0  0  0  0  0  0  0  0  0  0  0  0
   57.5230   29.3960   46.0350 C   0  0  0  0  0  0  0  0  0  0  0  0
   57.6350   28.1570   46.6840 O   0  0  0  0  0  0  0  0  0  0  0  0
   58.7660   27.7450   47.4450 C   0  0  0  0  0  0  0  0  0  0  0  0
   58.4510   30.4360   46.2360 C   0  0  0  0  0  0  0  0  0  0  0  0
   59.4050   32.7780   48.3570 C   0  0  0  0  0  0  0  0  0  0  0  0
   58.1410   32.3380   48.7580 C   0  0  0  0  0  0  0  0  0  0  0  0
   57.8870   32.2300   50.1360 C   0  0  0  0  0  0  0  0  0  0  0  0
   58.8820   32.5710   51.0760 C   0  0  0  0  0  0  0  0  0  0  0  0
   58.6170   32.4550   52.4360 O   0  0  0  0  0  0  0  0  0  0  0  0
   60.1390   33.0330   50.6450 C   0  0  0  0  0  0  0  0  0  0  0  0
   60.3690   33.1340   49.2690 C   0  0  0  0  0  0  0  0  0  0  0  0
   61.0482   29.6991   50.7613 H   0  0  0  0  0  0  0  0  0  0  0  0
   60.7645   30.5985   49.2326 H   0  0  0  0  0  0  0  0  0  0  0  0
   61.8019   29.1321   49.2326 H   0  0  0  0  0  0  0  0  0  0  0  0
   62.4429   31.6689   50.8120 H   0  0  0  0  0  0  0  0  0  0  0  0
   63.5105   30.2257   50.4913 H   0  0  0  0  0  0  0  0  0  0  0  0
   64.1113   30.9367   48.4470 H   0  0  0  0  0  0  0  0  0  0  0  0
   62.4509   31.6544   48.1271 H   0  0  0  0  0  0  0  0  0  0  0  0
   64.4935   32.9765   49.9293 H   0  0  0  0  0  0  0  0  0  0  0  0
   64.3726   33.2743   48.1348 H   0  0  0  0  0  0  0  0  0  0  0  0
   62.5610   34.1416   50.3575 H   0  0  0  0  0  0  0  0  0  0  0  0
   63.0346   34.9774   48.8334 H   0  0  0  0  0  0  0  0  0  0  0  0
   63.1414   34.2038   46.6916 H   0  0  0  0  0  0  0  0  0  0  0  0
   62.4237   32.9642   45.6077 H   0  0  0  0  0  0  0  0  0  0  0  0
   61.7770   34.6400   45.6077 H   0  0  0  0  0  0  0  0  0  0  0  0
   57.1001   32.8011   44.1648 H   0  0  0  0  0  0  0  0  0  0  0  0
   55.4608   30.9637   43.7979 H   0  0  0  0  0  0  0  0  0  0  0  0
   58.5365   27.8286   48.5175 H   0  0  0  0  0  0  0  0  0  0  0  0
   59.0102   26.7002   47.2026 H   0  0  0  0  0  0  0  0  0  0  0  0
   59.6250   28.3880   47.2026 H   0  0  0  0  0  0  0  0  0  0  0  0
   59.3041   30.2806   46.9128 H   0  0  0  0  0  0  0  0  0  0  0  0
   57.3682   32.0839   48.0176 H   0  0  0  0  0  0  0  0  0  0  0  0
   56.9051   31.8770   50.4841 H   0  0  0  0  0  0  0  0  0  0  0  0
   60.9194   33.3072   51.3701 H   0  0  0  0  0  0  0  0  0  0  0  0
  1  2  1  0
  2  3  1  0
  3  4  1  0
  4  5  1  0
  5  6  1  0
  6  7  1  0
  7  8  1  0
  7  9  2  0
  9 10  1  0
 10 11  2  0
 10 12  1  0
 12 13  2  0
 13 14  1  0
 14 15  2  0
 15 16  1  0
 15 17  1  0
 17 18  1  0
 18 19  1  0
 17 20  2  0
  9 21  1  0
 21 22  2  0
 22 23  1  0
 23 24  2  0
 24 25  1  0
 24 26  1  0
 26 27  2  0
 27  6  1  0
 20 12  1  0
 27 21  1  0
  1 28  1  0
  1 29  1  0
  1 30  1  0
  2 31  1  0
  2 32  1  0
  3 33  1  0
  3 34  1  0
  4 35  1  0
  4 36  1  0
  5 37  1  0
  5 38  1  0
  8 39  1  0
  8 40  1  0
  8 41  1  0
 13 42  1  0
 14 43  1  0
 19 44  1  0
 19 45  1  0
 19 46  1  0
 20 47  1  0
 22 48  1  0
 23 49  1  0
 26 50  1  0
M  CHG  2  16  -1  25  -1
M  END
>  <UniqueID>  (50) 
46

>  <SMILES>  (50) 
CCCCCn1c(C)c(C(=O)c2ccc([O-])c(OC)c2)c2ccc([O-])cc21

>  <Energy>  (50) 
82.90910289778186

>  <Genealogy>  (50) 
CCCCCn1c(C)c(C(=O)c2ccc([O-])c(OC)c2)c2ccc([O-])cc21 (protonated)
CCCCCn1c(C)c(C(=O)c2ccc([O-])c(OC)c2)c2ccc([O-])cc21 (3D coordinates assigned)
CCCCCn1c(C)c(C(=O)c2ccc([O-])c(OC)c2)c2ccc([O-])cc21 (optimized conformer: 82.90910289778186 kcal/mol)

>  <smiles>  (50) 
CCCCCn1c(C)c(C(=O)c2ccc(O)c(OC)c2)c2ccc(O)cc21

>  <score_type>  (50) 
oracle

>  <origin>  (50) 
adg

>  <m_score__min__energy>  (50) 
-11.68

>  <m_primary>  (50) 
energy

$$$$
50:0
     RDKit          3D

 23 24  0  0  0  0  0  0  0  0999 V2000
   53.9350   26.3100   46.4190 H   0  0  0  0  0  0  0  0  0  0  0  0
   54.8180   25.9470   45.9930 N   0  0  0  0  0  0  0  0  0  0  0  0
   55.9160   26.6320   46.0250 C   0  0  0  0  0  0  0  0  0  0  0  0
   56.9990   26.1500   46.6900 N   0  0  0  0  0  0  0  0  0  0  0  0
   58.1620   26.8470   46.7420 C   0  0  0  0  0  0  0  0  0  0  0  0
   59.1430   26.3710   47.3710 O   0  0  0  0  0  0  0  0  0  0  0  0
   58.2560   28.0880   46.1010 C   0  0  0  0  0  0  0  0  0  0  0  0
   57.1370   28.5710   45.4030 C   0  0  0  0  0  0  0  0  0  0  0  0
   55.9860   27.8350   45.3870 N   0  0  0  0  0  0  0  0  0  0  0  0
   55.1450   28.1770   44.8720 H   0  0  0  0  0  0  0  0  0  0  0  0
   57.2370   29.8390   44.7120 N   0  0  0  0  0  0  0  0  0  0  0  0
   56.0370   30.5720   44.2980 C   0  0  0  0  0  0  0  0  0  0  0  0
   55.4869   30.9080   45.1893 H   0  0  0  0  0  0  0  0  0  0  0  0
   56.3300   31.4455   43.6970 H   0  0  0  0  0  0  0  0  0  0  0  0
   55.3936   29.9125   43.6970 H   0  0  0  0  0  0  0  0  0  0  0  0
   58.5720   30.3970   44.4480 C   0  0  0  0  0  0  0  0  0  0  0  0
   59.0337   29.8543   43.6100 H   0  0  0  0  0  0  0  0  0  0  0  0
   58.4726   31.4629   44.1949 H   0  0  0  0  0  0  0  0  0  0  0  0
   59.4560   30.2580   45.6890 C   0  0  0  0  0  0  0  0  0  0  0  0
   60.4832   30.5639   45.4414 H   0  0  0  0  0  0  0  0  0  0  0  0
   59.0601   30.8999   46.4898 H   0  0  0  0  0  0  0  0  0  0  0  0
   59.4600   28.8690   46.1430 N   0  0  0  0  0  0  0  0  0  0  0  0
   60.3430   28.4680   46.5330 H   0  0  0  0  0  0  0  0  0  0  0  0
  1  2  1  0
  2  3  2  0
  3  4  1  0
  4  5  1  0
  5  6  2  0
  5  7  1  0
  7  8  2  0
  8  9  1  0
  9 10  1  0
  8 11  1  0
 11 12  1  0
 12 13  1  0
 12 14  1  0
 12 15  1  0
 11 16  1  0
 16 17  1  0
 16 18  1  0
 16 19  1  0
 19 20  1  0
 19 21  1  0
 19 22  1  0
 22 23  1  0
  9  3  1  0
 22  7  1  0
M  CHG  1   4  -1
M  END
>  <UniqueID>  (51) 
47

>  <SMILES>  (51) 
[H]/N=c1\[n-]c(=O)c2c([nH]1)N(C)CCN2

>  <Energy>  (51) 
23.48726142777445

>  <Genealogy>  (51) 
CN1CCNc2c1[nH]c(=N)[n-]c2=O (protonated)
[H]/N=c1\[n-]c(=O)c2c([nH]1)N(C)CCN2 (cis-trans isomerization)
[H]/N=c1\[n-]c(=O)c2c([nH]1)N(C)CCN2 (3D coordinates assigned)
[H]/N=c1\[n-]c(=O)c2c([nH]1)N(C)CCN2 (nonaromatic ring conformer: 23.48726142777445 kcal/mol)

>  <smiles>  (51) 
CN1CCNc2c1[nH]c(=N)[nH]c2=O

>  <score_type>  (51) 
oracle

>  <origin>  (51) 
adg

>  <m_score__min__energy>  (51) 
-7.3399999999999999

>  <m_primary>  (51) 
energy

$$$$
51:0
     RDKit          3D

 36 37  0  0  0  0  0  0  0  0999 V2000
   59.5900   34.5120   46.8530 C   0  0  0  0  0  0  0  0  0  0  0  0
   58.1230   34.1290   46.7000 C   0  0  0  0  0  0  0  0  0  0  0  0
   57.9350   33.2280   45.5200 C   0  0  0  0  0  0  0  0  0  0  0  0
   58.3790   33.4710   44.2340 C   0  0  0  0  0  0  0  0  0  0  0  0
   57.9610   32.3920   43.4840 C   0  0  0  0  0  0  0  0  0  0  0  0
   57.2890   31.5640   44.3620 C   0  0  0  0  0  0  0  0  0  0  0  0
   56.5980   30.2880   44.0000 C   0  0  0  0  0  0  0  0  0  0  0  0
   56.2120   29.5680   45.2210 N   0  0  0  0  0  0  0  0  0  0  0  0
   56.7130   28.1840   45.2280 C   0  0  0  0  0  0  0  0  0  0  0  0
   58.2370   28.1710   45.0650 C   0  0  0  0  0  0  0  0  0  0  0  0
   58.8740   29.0580   46.0350 N   0  0  0  0  0  0  0  0  0  0  0  0
   60.0250   29.7330   45.8510 C   0  0  0  0  0  0  0  0  0  0  0  0
   60.2230   30.5350   46.9510 C   0  0  0  0  0  0  0  0  0  0  0  0
   61.2960   31.5550   47.1360 C   0  0  0  0  0  0  0  0  0  0  0  0
   59.1310   30.3130   47.7690 C   0  0  0  0  0  0  0  0  0  0  0  0
   58.3210   29.4080   47.1870 N   0  0  0  0  0  0  0  0  0  0  0  0
   57.2840   32.0900   45.5650 O   0  0  0  0  0  0  0  0  0  0  0  0
   59.8422   34.5779   47.9217 H   0  0  0  0  0  0  0  0  0  0  0  0
   60.2202   33.7483   46.3739 H   0  0  0  0  0  0  0  0  0  0  0  0
   59.7665   35.4863   46.3739 H   0  0  0  0  0  0  0  0  0  0  0  0
   57.7884   33.6085   47.6094 H   0  0  0  0  0  0  0  0  0  0  0  0
   57.5315   35.0436   46.5461 H   0  0  0  0  0  0  0  0  0  0  0  0
   58.9479   34.3441   43.8818 H   0  0  0  0  0  0  0  0  0  0  0  0
   58.1280   32.2253   42.4096 H   0  0  0  0  0  0  0  0  0  0  0  0
   55.6979   30.5148   43.4097 H   0  0  0  0  0  0  0  0  0  0  0  0
   57.2806   29.6603   43.4083 H   0  0  0  0  0  0  0  0  0  0  0  0
   56.6230   30.0780   46.0380 H   0  0  0  0  0  0  0  0  0  0  0  0
   56.4457   27.7058   46.1819 H   0  0  0  0  0  0  0  0  0  0  0  0
   56.2582   27.6338   44.3911 H   0  0  0  0  0  0  0  0  0  0  0  0
   58.6065   27.1462   45.2176 H   0  0  0  0  0  0  0  0  0  0  0  0
   58.4845   28.5228   44.0526 H   0  0  0  0  0  0  0  0  0  0  0  0
   60.6884   29.6566   44.9769 H   0  0  0  0  0  0  0  0  0  0  0  0
   61.4665   31.7171   48.2106 H   0  0  0  0  0  0  0  0  0  0  0  0
   62.2251   31.1990   46.6669 H   0  0  0  0  0  0  0  0  0  0  0  0
   60.9875   32.5009   46.6669 H   0  0  0  0  0  0  0  0  0  0  0  0
   58.9522   30.7980   48.7400 H   0  0  0  0  0  0  0  0  0  0  0  0
  1  2  1  0
  2  3  1  0
  3  4  2  0
  4  5  1  0
  5  6  2  0
  6  7  1  0
  7  8  1  0
  8  9  1  0
  9 10  1  0
 10 11  1  0
 11 12  1  0
 12 13  2  0
 13 14  1  0
 13 15  1  0
 15 16  2  0
  6 17  1  0
 17  3  1  0
 16 11  1  0
  1 18  1  0
  1 19  1  0
  1 20  1  0
  2 21  1  0
  2 22  1  0
  4 23  1  0
  5 24  1  0
  7 25  1  0
  7 26  1  0
  8 27  1  0
  9 28  1  0
  9 29  1  0
 10 30  1  0
 10 31  1  0
 12 32  1  0
 14 33  1  0
 14 34  1  0
 14 35  1  0
 15 36  1  0
M  END
>  <UniqueID>  (52) 
48

>  <SMILES>  (52) 
CCc1ccc(CNCCn2cc(C)cn2)o1

>  <Energy>  (52) 
80.12951808702982

>  <Genealogy>  (52) 
CCc1ccc(CNCCn2cc(C)cn2)o1 (3D coordinates assigned)
CCc1ccc(CNCCn2cc(C)cn2)o1 (optimized conformer: 80.12951808702982 kcal/mol)

>  <smiles>  (52) 
CCc1ccc(CNCCn2cc(C)cn2)o1

>  <score_type>  (52) 
oracle

>  <origin>  (52) 
adg

>  <m_score__min__energy>  (52) 
-6.8799999999999999

>  <m_primary>  (52) 
energy

$$$$
52:0
     RDKit          3D

 49 51  0  0  0  0  0  0  0  0999 V2000
   54.7670   26.6900   45.2440 H   0  0  0  0  0  0  0  0  0  0  0  0
   54.5710   25.9120   45.9130 N   0  0  0  0  0  0  0  0  0  0  0  0
   56.0660   25.0860   46.1760 S   0  0  0  0  0  0  0  0  0  0  0  0
   56.0680   24.4720   47.5470 O   0  0  0  0  0  0  0  0  0  0  0  0
   56.2170   23.9910   45.1580 O   0  0  0  0  0  0  0  0  0  0  0  0
   57.4010   26.2250   46.0310 C   0  0  0  0  0  0  0  0  0  0  0  0
   58.2410   26.4680   47.1250 C   0  0  0  0  0  0  0  0  0  0  0  0
   58.0725   25.9369   48.0734 H   0  0  0  0  0  0  0  0  0  0  0  0
   59.2920   27.3820   47.0170 C   0  0  0  0  0  0  0  0  0  0  0  0
   59.9461   27.5692   47.8814 H   0  0  0  0  0  0  0  0  0  0  0  0
   59.5170   28.0630   45.8090 C   0  0  0  0  0  0  0  0  0  0  0  0
   60.6290   29.0740   45.7030 C   0  0  0  0  0  0  0  0  0  0  0  0
   61.3933   28.8450   46.4602 H   0  0  0  0  0  0  0  0  0  0  0  0
   61.0518   29.0163   44.6891 H   0  0  0  0  0  0  0  0  0  0  0  0
   60.1160   30.5010   45.9290 C   0  0  0  0  0  0  0  0  0  0  0  0
   59.6409   30.5589   46.9194 H   0  0  0  0  0  0  0  0  0  0  0  0
   60.9696   31.1921   45.8676 H   0  0  0  0  0  0  0  0  0  0  0  0
   59.1370   30.8800   44.9060 N   0  0  0  0  0  0  0  0  0  0  0  0
   58.4220   32.4270   45.2550 S   0  0  0  0  0  0  0  0  0  0  0  0
   58.8290   33.4260   44.2080 O   0  0  0  0  0  0  0  0  0  0  0  0
   56.9260   32.2930   45.2370 O   0  0  0  0  0  0  0  0  0  0  0  0
   58.9250   32.9720   46.8540 C   0  0  0  0  0  0  0  0  0  0  0  0
   59.6850   34.1380   47.0090 C   0  0  0  0  0  0  0  0  0  0  0  0
   59.9661   34.7299   46.1255 H   0  0  0  0  0  0  0  0  0  0  0  0
   60.0880   34.5530   48.2820 C   0  0  0  0  0  0  0  0  0  0  0  0
   60.6935   35.4643   48.3958 H   0  0  0  0  0  0  0  0  0  0  0  0
   59.7210   33.8080   49.4180 C   0  0  0  0  0  0  0  0  0  0  0  0
   60.1330   34.1840   50.7420 N   0  0  0  0  0  0  0  0  0  0  0  0
   61.0310   33.4660   51.5950 C   0  0  0  0  0  0  0  0  0  0  0  0
   60.8600   33.4660   52.8430 O   0  0  0  0  0  0  0  0  0  0  0  0
   62.1430   32.7800   50.9990 N   0  0  0  0  0  0  0  0  0  0  0  0
   62.5270   32.7460   49.7530 C   0  0  0  0  0  0  0  0  0  0  0  0
   63.1010   33.8660   49.2320 N   0  0  0  0  0  0  0  0  0  0  0  0
   63.5280   33.9360   47.9420 C   0  0  0  0  0  0  0  0  0  0  0  0
   63.9902   34.8604   47.5652 H   0  0  0  0  0  0  0  0  0  0  0  0
   63.3800   32.8370   47.0980 C   0  0  0  0  0  0  0  0  0  0  0  0
   63.7326   32.8835   46.0571 H   0  0  0  0  0  0  0  0  0  0  0  0
   62.7800   31.6780   47.5880 C   0  0  0  0  0  0  0  0  0  0  0  0
   62.6482   30.8066   46.9298 H   0  0  0  0  0  0  0  0  0  0  0  0
   62.3460   31.6230   48.9150 C   0  0  0  0  0  0  0  0  0  0  0  0
   61.8671   30.7124   49.3042 H   0  0  0  0  0  0  0  0  0  0  0  0
   58.9850   32.6280   49.2540 C   0  0  0  0  0  0  0  0  0  0  0  0
   58.7215   32.0220   50.1334 H   0  0  0  0  0  0  0  0  0  0  0  0
   58.5830   32.2150   47.9810 C   0  0  0  0  0  0  0  0  0  0  0  0
   57.9959   31.2921   47.8640 H   0  0  0  0  0  0  0  0  0  0  0  0
   58.6620   27.8320   44.7190 C   0  0  0  0  0  0  0  0  0  0  0  0
   58.8195   28.3735   43.7746 H   0  0  0  0  0  0  0  0  0  0  0  0
   57.6110   26.9160   44.8300 C   0  0  0  0  0  0  0  0  0  0  0  0
   56.9468   26.7373   43.9716 H   0  0  0  0  0  0  0  0  0  0  0  0
  1  2  1  0
  2  3  1  0
  3  4  2  0
  3  5  2  0
  3  6  1  0
  6  7  2  0
  7  8  1  0
  7  9  1  0
  9 10  1  0
  9 11  2  0
 11 12  1  0
 12 13  1  0
 12 14  1  0
 12 15  1  0
 15 16  1  0
 15 17  1  0
 15 18  1  0
 18 19  1  0
 19 20  2  0
 19 21  2  0
 19 22  1  0
 22 23  2  0
 23 24  1  0
 23 25  1  0
 25 26  1  0
 25 27  2  0
 27 28  1  0
 28 29  1  0
 29 30  2  0
 29 31  1  0
 31 32  2  0
 32 33  1  0
 33 34  1  0
 34 35  1  0
 34 36  2  0
 36 37  1  0
 36 38  1  0
 38 39  1  0
 38 40  2  0
 40 41  1  0
 27 42  1  0
 42 43  1  0
 42 44  2  0
 44 45  1  0
 11 46  1  0
 46 47  1  0
 46 48  2  0
 48 49  1  0
 48  6  1  0
 44 22  1  0
 40 32  1  0
M  CHG  4   2  -1  18  -1  28  -1  33  -1
M  END
>  <UniqueID>  (53) 
49

>  <SMILES>  (53) 
[NH-]S(=O)(=O)c1ccc(CC[N-]S(=O)(=O)c2ccc([N-]C(=O)/N=c3\cccc[n-]3)cc2)cc1

>  <Energy>  (53) 
60.63137771683884

>  <Genealogy>  (53) 
[NH-]S(=O)(=O)c1ccc(CC[N-]S(=O)(=O)c2ccc([N-]C(=O)N=c3cccc[n-]3)cc2)cc1 (protonated)
[NH-]S(=O)(=O)c1ccc(CC[N-]S(=O)(=O)c2ccc([N-]C(=O)/N=c3\cccc[n-]3)cc2)cc1 (cis-trans isomerization)
[NH-]S(=O)(=O)c1ccc(CC[N-]S(=O)(=O)c2ccc([N-]C(=O)/N=c3\cccc[n-]3)cc2)cc1 (3D coordinates assigned)
[NH-]S(=O)(=O)c1ccc(CC[N-]S(=O)(=O)c2ccc([N-]C(=O)/N=c3\cccc[n-]3)cc2)cc1 (optimized conformer: 60.63137771683884 kcal/mol)

>  <smiles>  (53) 
NS(=O)(=O)c1ccc(CCNS(=O)(=O)c2ccc(NC(=O)N=c3cccc[nH]3)cc2)cc1

>  <score_type>  (53) 
oracle

>  <origin>  (53) 
adg

>  <m_score__min__energy>  (53) 
-14.890000000000001

>  <m_primary>  (53) 
energy

$$$$
53:0
     RDKit          3D

 35 36  0  0  0  0  0  0  0  0999 V2000
   56.2690   30.0740   42.9870 C   0  0  0  0  0  0  0  0  0  0  0  0
   56.5310   30.4880   44.4340 C   0  0  0  0  0  0  0  0  0  0  0  0
   58.0090   30.8280   44.6980 C   0  0  0  0  0  0  0  0  0  0  0  0
   58.7370   29.8190   45.6020 C   0  0  0  0  0  0  0  0  0  0  0  0
   58.3870   28.3920   45.2620 C   0  0  0  0  0  0  0  0  0  0  0  0
   58.4900   27.9370   43.9400 C   0  0  0  0  0  0  0  0  0  0  0  0
   58.1440   26.6220   43.6160 C   0  0  0  0  0  0  0  0  0  0  0  0
   57.6860   25.7380   44.6090 C   0  0  0  0  0  0  0  0  0  0  0  0
   57.3160   24.3410   44.2650 C   0  0  0  0  0  0  0  0  0  0  0  0
   56.2660   24.0800   43.3660 C   0  0  0  0  0  0  0  0  0  0  0  0
   55.9200   22.7650   43.0420 C   0  0  0  0  0  0  0  0  0  0  0  0
   56.6180   21.6920   43.6140 C   0  0  0  0  0  0  0  0  0  0  0  0
   56.2810   20.3770   43.2990 O   0  0  0  0  0  0  0  0  0  0  0  0
   57.6620   21.9430   44.5080 C   0  0  0  0  0  0  0  0  0  0  0  0
   58.0110   23.2580   44.8330 C   0  0  0  0  0  0  0  0  0  0  0  0
   57.5810   26.2010   45.9330 C   0  0  0  0  0  0  0  0  0  0  0  0
   57.9280   27.5150   46.2560 C   0  0  0  0  0  0  0  0  0  0  0  0
   55.6808   29.1446   42.9723 H   0  0  0  0  0  0  0  0  0  0  0  0
   55.7098   30.8700   42.4734 H   0  0  0  0  0  0  0  0  0  0  0  0
   57.2277   29.9094   42.4734 H   0  0  0  0  0  0  0  0  0  0  0  0
   55.9202   31.3739   44.6624 H   0  0  0  0  0  0  0  0  0  0  0  0
   56.2673   29.6346   45.0760 H   0  0  0  0  0  0  0  0  0  0  0  0
   58.5323   30.8650   43.7312 H   0  0  0  0  0  0  0  0  0  0  0  0
   58.0216   31.7923   45.2270 H   0  0  0  0  0  0  0  0  0  0  0  0
   59.8220   29.9554   45.4829 H   0  0  0  0  0  0  0  0  0  0  0  0
   58.4209   30.0059   46.6389 H   0  0  0  0  0  0  0  0  0  0  0  0
   58.8451   28.6187   43.1531 H   0  0  0  0  0  0  0  0  0  0  0  0
   58.2307   26.2758   42.5755 H   0  0  0  0  0  0  0  0  0  0  0  0
   55.7131   24.9170   42.9146 H   0  0  0  0  0  0  0  0  0  0  0  0
   55.0983   22.5716   42.3367 H   0  0  0  0  0  0  0  0  0  0  0  0
   56.9390   19.6180   43.4230 H   0  0  0  0  0  0  0  0  0  0  0  0
   58.2117   21.1032   44.9581 H   0  0  0  0  0  0  0  0  0  0  0  0
   58.8345   23.4464   45.5375 H   0  0  0  0  0  0  0  0  0  0  0  0
   57.2225   25.5224   46.7210 H   0  0  0  0  0  0  0  0  0  0  0  0
   57.8408   27.8639   47.2955 H   0  0  0  0  0  0  0  0  0  0  0  0
  1  2  1  0
  2  3  1  0
  3  4  1  0
  4  5  1  0
  5  6  2  0
  6  7  1  0
  7  8  2  0
  8  9  1  0
  9 10  2  0
 10 11  1  0
 11 12  2  0
 12 13  1  0
 12 14  1  0
 14 15  2  0
  8 16  1  0
 16 17  2  0
 17  5  1  0
 15  9  1  0
  1 18  1  0
  1 19  1  0
  1 20  1  0
  2 21  1  0
  2 22  1  0
  3 23  1  0
  3 24  1  0
  4 25  1  0
  4 26  1  0
  6 27  1  0
  7 28  1  0
 10 29  1  0
 11 30  1  0
 13 31  1  0
 14 32  1  0
 15 33  1  0
 16 34  1  0
 17 35  1  0
M  END
>  <UniqueID>  (54) 
50

>  <SMILES>  (54) 
CCCCc1ccc(-c2ccc(O)cc2)cc1

>  <Energy>  (54) 
33.888152879443226

>  <Genealogy>  (54) 
CCCCc1ccc(-c2ccc(O)cc2)cc1 (3D coordinates assigned)
CCCCc1ccc(-c2ccc(O)cc2)cc1 (optimized conformer: 33.888152879443226 kcal/mol)

>  <smiles>  (54) 
CCCCc1ccc(-c2ccc(O)cc2)cc1

>  <score_type>  (54) 
oracle

>  <origin>  (54) 
adg

>  <m_score__min__energy>  (54) 
-6.7599999999999998

>  <m_primary>  (54) 
energy

$$$$
54:0
     RDKit          3D

 41 43  0  0  0  0  0  0  0  0999 V2000
   56.9960   33.5480   45.2560 C   0  0  0  0  0  0  0  0  0  0  0  0
   57.7960   32.4450   45.8220 N   0  0  0  0  0  0  0  0  0  0  0  0
   58.6970   32.6880   46.8410 C   0  0  0  0  0  0  0  0  0  0  0  0
   58.9800   34.0850   47.3700 C   0  0  0  0  0  0  0  0  0  0  0  0
   60.2180   34.7150   46.7130 C   0  0  0  0  0  0  0  0  0  0  0  0
   61.5020   34.1420   47.2580 C   0  0  0  0  0  0  0  0  0  0  0  0
   61.6340   33.8880   48.6330 C   0  0  0  0  0  0  0  0  0  0  0  0
   62.8080   33.3160   49.1330 C   0  0  0  0  0  0  0  0  0  0  0  0
   63.8530   32.9880   48.2640 C   0  0  0  0  0  0  0  0  0  0  0  0
   63.7250   33.2310   46.8940 C   0  0  0  0  0  0  0  0  0  0  0  0
   62.5550   33.8040   46.3900 C   0  0  0  0  0  0  0  0  0  0  0  0
   59.4190   31.6260   47.4030 C   0  0  0  0  0  0  0  0  0  0  0  0
   59.2330   30.3330   46.9380 C   0  0  0  0  0  0  0  0  0  0  0  0
   58.3170   30.0800   45.9170 C   0  0  0  0  0  0  0  0  0  0  0  0
   58.1320   28.6880   45.4300 C   0  0  0  0  0  0  0  0  0  0  0  0
   57.7240   27.6700   46.3120 C   0  0  0  0  0  0  0  0  0  0  0  0
   57.5410   26.3640   45.8460 C   0  0  0  0  0  0  0  0  0  0  0  0
   57.7600   26.0630   44.4990 C   0  0  0  0  0  0  0  0  0  0  0  0
   58.1590   27.0680   43.6150 C   0  0  0  0  0  0  0  0  0  0  0  0
   58.3420   28.3750   44.0760 C   0  0  0  0  0  0  0  0  0  0  0  0
   57.5830   31.1570   45.3810 C   0  0  0  0  0  0  0  0  0  0  0  0
   56.7070   30.9230   44.5010 O   0  0  0  0  0  0  0  0  0  0  0  0
   56.5636   34.1442   46.0731 H   0  0  0  0  0  0  0  0  0  0  0  0
   57.6410   34.1884   44.6365 H   0  0  0  0  0  0  0  0  0  0  0  0
   56.1869   33.1338   44.6365 H   0  0  0  0  0  0  0  0  0  0  0  0
   58.1078   34.7239   47.1674 H   0  0  0  0  0  0  0  0  0  0  0  0
   59.1751   34.0041   48.4495 H   0  0  0  0  0  0  0  0  0  0  0  0
   60.1781   34.5290   45.6296 H   0  0  0  0  0  0  0  0  0  0  0  0
   60.2073   35.7927   46.9332 H   0  0  0  0  0  0  0  0  0  0  0  0
   60.8115   34.1398   49.3186 H   0  0  0  0  0  0  0  0  0  0  0  0
   62.9095   33.1239   50.2113 H   0  0  0  0  0  0  0  0  0  0  0  0
   64.7761   32.5386   48.6589 H   0  0  0  0  0  0  0  0  0  0  0  0
   64.5471   32.9706   46.2111 H   0  0  0  0  0  0  0  0  0  0  0  0
   62.4572   33.9914   45.3105 H   0  0  0  0  0  0  0  0  0  0  0  0
   60.1352   31.8189   48.2153 H   0  0  0  0  0  0  0  0  0  0  0  0
   59.8094   29.5045   47.3755 H   0  0  0  0  0  0  0  0  0  0  0  0
   57.5482   27.9025   47.3727 H   0  0  0  0  0  0  0  0  0  0  0  0
   57.2241   25.5724   46.5410 H   0  0  0  0  0  0  0  0  0  0  0  0
   57.6181   25.0347   44.1350 H   0  0  0  0  0  0  0  0  0  0  0  0
   58.3295   26.8308   42.5545 H   0  0  0  0  0  0  0  0  0  0  0  0
   58.6523   29.1635   43.3746 H   0  0  0  0  0  0  0  0  0  0  0  0
  1  2  1  0
  2  3  1  0
  3  4  1  0
  4  5  1  0
  5  6  1  0
  6  7  2  0
  7  8  1  0
  8  9  2  0
  9 10  1  0
 10 11  2  0
  3 12  2  0
 12 13  1  0
 13 14  2  0
 14 15  1  0
 15 16  2  0
 16 17  1  0
 17 18  2  0
 18 19  1  0
 19 20  2  0
 14 21  1  0
 21 22  2  0
 21  2  1  0
 11  6  1  0
 20 15  1  0
  1 23  1  0
  1 24  1  0
  1 25  1  0
  4 26  1  0
  4 27  1  0
  5 28  1  0
  5 29  1  0
  7 30  1  0
  8 31  1  0
  9 32  1  0
 10 33  1  0
 11 34  1  0
 12 35  1  0
 13 36  1  0
 16 37  1  0
 17 38  1  0
 18 39  1  0
 19 40  1  0
 20 41  1  0
M  END
>  <UniqueID>  (55) 
51

>  <SMILES>  (55) 
Cn1c(CCc2ccccc2)ccc(-c2ccccc2)c1=O

>  <Energy>  (55) 
52.817337569234226

>  <Genealogy>  (55) 
Cn1c(CCc2ccccc2)ccc(-c2ccccc2)c1=O (3D coordinates assigned)
Cn1c(CCc2ccccc2)ccc(-c2ccccc2)c1=O (optimized conformer: 52.817337569234226 kcal/mol)

>  <smiles>  (55) 
Cn1c(CCc2ccccc2)ccc(-c2ccccc2)c1=O

>  <score_type>  (55) 
oracle

>  <origin>  (55) 
adg

>  <m_score__min__energy>  (55) 
-8.0099999999999998

>  <m_primary>  (55) 
energy

$$$$
55:0
     RDKit          3D

 30 31  0  0  0  0  0  0  0  0999 V2000
   55.1610   29.5990   44.8570 N   0  0  0  0  0  0  0  0  0  0  0  0
   56.2790   29.6920   43.4950 S   0  0  0  0  0  0  0  0  0  0  0  0
   57.2490   30.9810   44.2760 C   0  0  0  0  0  0  0  0  0  0  0  0
   57.7360   30.8010   45.5760 C   0  0  0  0  0  0  0  0  0  0  0  0
   58.4960   31.8050   46.1850 C   0  0  0  0  0  0  0  0  0  0  0  0
   58.7750   32.9930   45.4950 C   0  0  0  0  0  0  0  0  0  0  0  0
   59.7410   34.2560   46.2500 S   0  0  0  0  0  0  0  0  0  0  0  0
   59.3440   34.4440   47.6870 O   0  0  0  0  0  0  0  0  0  0  0  0
   59.5160   35.5440   45.5090 O   0  0  0  0  0  0  0  0  0  0  0  0
   61.4250   33.8410   46.1770 N   0  0  0  0  0  0  0  0  0  0  0  0
   62.1500   33.2280   47.2580 C   0  0  0  0  0  0  0  0  0  0  0  0
   63.3930   33.7620   47.6370 C   0  0  0  0  0  0  0  0  0  0  0  0
   64.1260   33.1860   48.6790 C   0  0  0  0  0  0  0  0  0  0  0  0
   63.6240   32.0720   49.3570 C   0  0  0  0  0  0  0  0  0  0  0  0
   64.3360   31.5150   50.3670 F   0  0  0  0  0  0  0  0  0  0  0  0
   62.3870   31.5350   48.9940 C   0  0  0  0  0  0  0  0  0  0  0  0
   61.6500   32.1080   47.9520 C   0  0  0  0  0  0  0  0  0  0  0  0
   58.2820   33.1720   44.1950 C   0  0  0  0  0  0  0  0  0  0  0  0
   57.5230   32.1670   43.5870 C   0  0  0  0  0  0  0  0  0  0  0  0
   54.7400   30.5490   44.9720 H   0  0  0  0  0  0  0  0  0  0  0  0
   54.3850   28.9640   44.5630 H   0  0  0  0  0  0  0  0  0  0  0  0
   57.5208   29.8690   46.1192 H   0  0  0  0  0  0  0  0  0  0  0  0
   58.8756   31.6621   47.2075 H   0  0  0  0  0  0  0  0  0  0  0  0
   61.9090   33.9920   45.2640 H   0  0  0  0  0  0  0  0  0  0  0  0
   63.7929   34.6406   47.1096 H   0  0  0  0  0  0  0  0  0  0  0  0
   65.0995   33.6105   48.9656 H   0  0  0  0  0  0  0  0  0  0  0  0
   61.9911   30.6591   49.5288 H   0  0  0  0  0  0  0  0  0  0  0  0
   60.6750   31.6820   47.6729 H   0  0  0  0  0  0  0  0  0  0  0  0
   58.4926   34.1051   43.6519 H   0  0  0  0  0  0  0  0  0  0  0  0
   57.1409   32.3094   42.5654 H   0  0  0  0  0  0  0  0  0  0  0  0
  1  2  1  0
  2  3  1  0
  3  4  2  0
  4  5  1  0
  5  6  2  0
  6  7  1  0
  7  8  2  0
  7  9  2  0
  7 10  1  0
 10 11  1  0
 11 12  2  0
 12 13  1  0
 13 14  2  0
 14 15  1  0
 14 16  1  0
 16 17  2  0
  6 18  1  0
 18 19  2  0
 19  3  1  0
 17 11  1  0
  1 20  1  0
  1 21  1  0
  4 22  1  0
  5 23  1  0
 10 24  1  0
 12 25  1  0
 13 26  1  0
 16 27  1  0
 17 28  1  0
 18 29  1  0
 19 30  1  0
M  END
>  <UniqueID>  (56) 
52

>  <SMILES>  (56) 
NSc1ccc(S(=O)(=O)Nc2ccc(F)cc2)cc1

>  <Energy>  (56) 
29.861630572444653

>  <Genealogy>  (56) 
NSc1ccc(S(=O)(=O)Nc2ccc(F)cc2)cc1 (3D coordinates assigned)
NSc1ccc(S(=O)(=O)Nc2ccc(F)cc2)cc1 (optimized conformer: 29.861630572444653 kcal/mol)

>  <smiles>  (56) 
NSc1ccc(S(=O)(=O)Nc2ccc(F)cc2)cc1

>  <score_type>  (56) 
oracle

>  <origin>  (56) 
adg

>  <m_score__min__energy>  (56) 
-7.7000000000000002

>  <m_primary>  (56) 
energy

$$$$
56:0
     RDKit          3D

 47 49  0  0  0  0  0  0  0  0999 V2000
   55.2452   31.0591   43.0895 H   0  0  0  0  0  0  0  0  0  0  0  0
   55.8630   30.5400   43.8370 C   0  0  0  0  0  0  0  0  0  0  0  0
   55.5260   29.2930   44.2560 N   0  0  0  0  0  0  0  0  0  0  0  0
   56.2610   28.6310   45.1920 C   0  0  0  0  0  0  0  0  0  0  0  0
   55.9040   27.4550   45.6220 N   0  0  0  0  0  0  0  0  0  0  0  0
   56.7390   26.5590   46.4210 C   0  0  0  0  0  0  0  0  0  0  0  0
   57.2589   27.1498   47.1895 H   0  0  0  0  0  0  0  0  0  0  0  0
   56.0842   25.8011   46.8758 H   0  0  0  0  0  0  0  0  0  0  0  0
   57.7820   25.8310   45.5680 C   0  0  0  0  0  0  0  0  0  0  0  0
   57.5883   24.7492   45.6139 H   0  0  0  0  0  0  0  0  0  0  0  0
   57.7009   26.2017   44.5355 H   0  0  0  0  0  0  0  0  0  0  0  0
   59.1100   26.0840   46.0300 O   0  0  0  0  0  0  0  0  0  0  0  0
   59.6580   27.3360   46.3610 C   0  0  0  0  0  0  0  0  0  0  0  0
   59.6840   27.8430   47.6760 C   0  0  0  0  0  0  0  0  0  0  0  0
   59.2522   27.2545   48.4990 H   0  0  0  0  0  0  0  0  0  0  0  0
   60.2570   29.0920   47.9380 C   0  0  0  0  0  0  0  0  0  0  0  0
   60.2638   29.4881   48.9642 H   0  0  0  0  0  0  0  0  0  0  0  0
   60.8210   29.8380   46.8990 C   0  0  0  0  0  0  0  0  0  0  0  0
   61.5360   31.4070   47.2230 Cl  0  0  0  0  0  0  0  0  0  0  0  0
   60.7970   29.3420   45.5920 C   0  0  0  0  0  0  0  0  0  0  0  0
   61.2409   29.9281   44.7738 H   0  0  0  0  0  0  0  0  0  0  0  0
   60.2100   28.1030   45.3240 C   0  0  0  0  0  0  0  0  0  0  0  0
   60.1803   27.7256   44.2912 H   0  0  0  0  0  0  0  0  0  0  0  0
   57.4080   29.2390   45.7040 C   0  0  0  0  0  0  0  0  0  0  0  0
   58.0236   28.7195   46.4531 H   0  0  0  0  0  0  0  0  0  0  0  0
   57.7580   30.4770   45.2700 N   0  0  0  0  0  0  0  0  0  0  0  0
   57.0060   31.1620   44.3650 C   0  0  0  0  0  0  0  0  0  0  0  0
   57.4150   32.5150   43.9120 C   0  0  0  0  0  0  0  0  0  0  0  0
   57.8300   32.6670   42.7310 O   0  0  0  0  0  0  0  0  0  0  0  0
   57.4510   33.6490   44.7950 N   0  0  0  0  0  0  0  0  0  0  0  0
   58.2460   33.8200   45.9740 C   0  0  0  0  0  0  0  0  0  0  0  0
   59.2220   34.8230   45.9860 C   0  0  0  0  0  0  0  0  0  0  0  0
   59.3623   35.4600   45.1002 H   0  0  0  0  0  0  0  0  0  0  0  0
   60.0190   35.0200   47.1160 C   0  0  0  0  0  0  0  0  0  0  0  0
   60.7895   35.8051   47.1145 H   0  0  0  0  0  0  0  0  0  0  0  0
   59.8390   34.2210   48.2490 C   0  0  0  0  0  0  0  0  0  0  0  0
   60.4849   34.3631   49.1280 H   0  0  0  0  0  0  0  0  0  0  0  0
   58.8380   33.2390   48.2690 C   0  0  0  0  0  0  0  0  0  0  0  0
   58.6900   32.3410   49.4670 C   0  0  0  0  0  0  0  0  0  0  0  0
   59.2306   31.4005   49.2846 H   0  0  0  0  0  0  0  0  0  0  0  0
   57.6218   32.1358   49.6308 H   0  0  0  0  0  0  0  0  0  0  0  0
   59.2630   33.0190   50.7120 C   0  0  0  0  0  0  0  0  0  0  0  0
   58.8553   32.5366   51.6126 H   0  0  0  0  0  0  0  0  0  0  0  0
   60.3589   32.9243   50.7095 H   0  0  0  0  0  0  0  0  0  0  0  0
   58.9870   34.0838   50.7095 H   0  0  0  0  0  0  0  0  0  0  0  0
   58.0310   33.0510   47.1320 C   0  0  0  0  0  0  0  0  0  0  0  0
   57.2282   32.2992   47.1487 H   0  0  0  0  0  0  0  0  0  0  0  0
  1  2  1  0
  2  3  1  0
  3  4  1  0
  4  5  2  0
  5  6  1  0
  6  7  1  0
  6  8  1  0
  6  9  1  0
  9 10  1  0
  9 11  1  0
  9 12  1  0
 12 13  1  0
 13 14  2  0
 14 15  1  0
 14 16  1  0
 16 17  1  0
 16 18  2  0
 18 19  1  0
 18 20  1  0
 20 21  1  0
 20 22  2  0
 22 23  1  0
  4 24  1  0
 24 25  1  0
 24 26  2  0
 26 27  1  0
 27 28  1  0
 28 29  2  0
 28 30  1  0
 30 31  1  0
 31 32  2  0
 32 33  1  0
 32 34  1  0
 34 35  1  0
 34 36  2  0
 36 37  1  0
 36 38  1  0
 38 39  1  0
 39 40  1  0
 39 41  1  0
 39 42  1  0
 42 43  1  0
 42 44  1  0
 42 45  1  0
 38 46  2  0
 46 47  1  0
 27  2  2  0
 46 31  1  0
 22 13  1  0
M  CHG  2   3  -1  30  -1
M  END
>  <UniqueID>  (57) 
53

>  <SMILES>  (57) 
CCc1cccc([N-]C(=O)c2c[n-]/c(=N\CCOc3ccc(Cl)cc3)cn2)c1

>  <Energy>  (57) 
49.75487409414277

>  <Genealogy>  (57) 
CCc1cccc([N-]C(=O)c2c[n-]c(=NCCOc3ccc(Cl)cc3)cn2)c1 (protonated)
CCc1cccc([N-]C(=O)c2c[n-]/c(=N\CCOc3ccc(Cl)cc3)cn2)c1 (cis-trans isomerization)
CCc1cccc([N-]C(=O)c2c[n-]/c(=N\CCOc3ccc(Cl)cc3)cn2)c1 (3D coordinates assigned)
CCc1cccc([N-]C(=O)c2c[n-]/c(=N\CCOc3ccc(Cl)cc3)cn2)c1 (optimized conformer: 49.75487409414277 kcal/mol)

>  <smiles>  (57) 
CCc1cccc(NC(=O)c2c[nH]c(=NCCOc3ccc(Cl)cc3)cn2)c1

>  <score_type>  (57) 
oracle

>  <origin>  (57) 
adg

>  <m_score__min__energy>  (57) 
-11.07

>  <m_primary>  (57) 
energy

$$$$
57:0
     RDKit          3D

 45 47  0  0  0  0  0  0  0  0999 V2000
   58.6790   31.1930   52.2850 O   0  0  0  0  0  0  0  0  0  0  0  0
   58.1280   30.2830   51.6060 C   0  0  0  0  0  0  0  0  0  0  0  0
   56.7220   30.0450   51.7450 N   0  0  0  0  0  0  0  0  0  0  0  0
   56.0830   29.6960   53.0080 C   0  0  0  0  0  0  0  0  0  0  0  0
   54.7810   28.9370   52.7550 C   0  0  0  0  0  0  0  0  0  0  0  0
   53.6640   29.8960   52.4410 C   0  0  0  0  0  0  0  0  0  0  0  0
   53.6190   30.5470   51.1970 C   0  0  0  0  0  0  0  0  0  0  0  0
   52.6090   31.4730   50.9230 C   0  0  0  0  0  0  0  0  0  0  0  0
   51.6420   31.7630   51.8910 C   0  0  0  0  0  0  0  0  0  0  0  0
   50.6430   32.6900   51.6200 O   0  0  0  0  0  0  0  0  0  0  0  0
   51.6830   31.1230   53.1330 C   0  0  0  0  0  0  0  0  0  0  0  0
   52.6930   30.1980   53.4110 C   0  0  0  0  0  0  0  0  0  0  0  0
   58.9300   29.4800   50.6520 C   0  0  0  0  0  0  0  0  0  0  0  0
   60.1100   28.8440   51.0680 C   0  0  0  0  0  0  0  0  0  0  0  0
   60.8530   28.0730   50.1720 C   0  0  0  0  0  0  0  0  0  0  0  0
   60.4330   27.9280   48.8440 C   0  0  0  0  0  0  0  0  0  0  0  0
   61.1470   27.0950   47.9820 O   0  0  0  0  0  0  0  0  0  0  0  0
   59.2760   28.5980   48.4010 C   0  0  0  0  0  0  0  0  0  0  0  0
   58.8040   28.4950   47.0490 N   0  0  0  0  0  0  0  0  0  0  0  0
   59.4100   29.0830   45.8900 C   0  0  0  0  0  0  0  0  0  0  0  0
   60.4530   28.5560   45.4230 O   0  0  0  0  0  0  0  0  0  0  0  0
   58.8180   30.2580   45.2050 C   0  0  0  0  0  0  0  0  0  0  0  0
   59.0450   31.5640   45.6840 C   0  0  0  0  0  0  0  0  0  0  0  0
   59.7710   31.7740   46.8120 F   0  0  0  0  0  0  0  0  0  0  0  0
   58.4870   32.6630   45.0220 C   0  0  0  0  0  0  0  0  0  0  0  0
   58.7060   33.9180   45.4870 F   0  0  0  0  0  0  0  0  0  0  0  0
   57.6950   32.4710   43.8880 C   0  0  0  0  0  0  0  0  0  0  0  0
   57.4500   31.1810   43.4160 C   0  0  0  0  0  0  0  0  0  0  0  0
   56.6770   31.0020   42.3170 F   0  0  0  0  0  0  0  0  0  0  0  0
   58.0030   30.0760   44.0700 C   0  0  0  0  0  0  0  0  0  0  0  0
   57.7690   28.8320   43.5800 F   0  0  0  0  0  0  0  0  0  0  0  0
   58.5180   29.3440   49.3140 C   0  0  0  0  0  0  0  0  0  0  0  0
   56.7636   29.0622   53.5955 H   0  0  0  0  0  0  0  0  0  0  0  0
   55.8557   30.6200   53.5599 H   0  0  0  0  0  0  0  0  0  0  0  0
   54.9202   28.2527   51.9051 H   0  0  0  0  0  0  0  0  0  0  0  0
   54.5186   28.3693   53.6599 H   0  0  0  0  0  0  0  0  0  0  0  0
   54.3818   30.3270   50.4356 H   0  0  0  0  0  0  0  0  0  0  0  0
   52.5744   31.9746   49.9446 H   0  0  0  0  0  0  0  0  0  0  0  0
   50.9195   31.3477   53.8923 H   0  0  0  0  0  0  0  0  0  0  0  0
   52.7281   29.7042   54.3933 H   0  0  0  0  0  0  0  0  0  0  0  0
   60.4520   28.9538   52.1077 H   0  0  0  0  0  0  0  0  0  0  0  0
   61.7740   27.5764   50.5113 H   0  0  0  0  0  0  0  0  0  0  0  0
   61.0350   27.1500   46.9770 H   0  0  0  0  0  0  0  0  0  0  0  0
   57.2637   33.3379   43.3661 H   0  0  0  0  0  0  0  0  0  0  0  0
   57.5891   29.8293   48.9799 H   0  0  0  0  0  0  0  0  0  0  0  0
  1  2  2  0
  2  3  1  0
  3  4  1  0
  4  5  1  0
  5  6  1  0
  6  7  2  0
  7  8  1  0
  8  9  2  0
  9 10  1  0
  9 11  1  0
 11 12  2  0
  2 13  1  0
 13 14  2  0
 14 15  1  0
 15 16  2  0
 16 17  1  0
 16 18  1  0
 18 19  1  0
 19 20  1  0
 20 21  2  0
 20 22  1  0
 22 23  2  0
 23 24  1  0
 23 25  1  0
 25 26  1  0
 25 27  2  0
 27 28  1  0
 28 29  1  0
 28 30  2  0
 30 31  1  0
 18 32  2  0
 12  6  1  0
 32 13  1  0
 30 22  1  0
  4 33  1  0
  4 34  1  0
  5 35  1  0
  5 36  1  0
  7 37  1  0
  8 38  1  0
 11 39  1  0
 12 40  1  0
 14 41  1  0
 15 42  1  0
 17 43  1  0
 27 44  1  0
 32 45  1  0
M  CHG  3   3  -1  10  -1  19  -1
M  END
>  <UniqueID>  (58) 
54

>  <SMILES>  (58) 
O=C([N-]CCc1ccc([O-])cc1)c1ccc(O)c([N-]C(=O)c2c(F)c(F)cc(F)c2F)c1

>  <Energy>  (58) 
54.814520965949725

>  <Genealogy>  (58) 
O=C([N-]CCc1ccc([O-])cc1)c1ccc(O)c([N-]C(=O)c2c(F)c(F)cc(F)c2F)c1 (protonated)
O=C([N-]CCc1ccc([O-])cc1)c1ccc(O)c([N-]C(=O)c2c(F)c(F)cc(F)c2F)c1 (3D coordinates assigned)
O=C([N-]CCc1ccc([O-])cc1)c1ccc(O)c([N-]C(=O)c2c(F)c(F)cc(F)c2F)c1 (optimized conformer: 54.814520965949725 kcal/mol)

>  <smiles>  (58) 
O=C(NCCc1ccc(O)cc1)c1ccc(O)c(NC(=O)c2c(F)c(F)cc(F)c2F)c1

>  <score_type>  (58) 
oracle

>  <origin>  (58) 
adg

>  <m_score__min__energy>  (58) 
-13.44

>  <m_primary>  (58) 
energy

$$$$
58:0
     RDKit          3D

 38 40  0  0  0  0  0  0  0  0999 V2000
   64.9233   33.6260   48.5903 H   0  0  0  0  0  0  0  0  0  0  0  0
   63.9840   33.1820   48.2290 C   0  0  0  0  0  0  0  0  0  0  0  0
   63.2510   33.8190   47.2260 C   0  0  0  0  0  0  0  0  0  0  0  0
   63.6144   34.7646   46.7973 H   0  0  0  0  0  0  0  0  0  0  0  0
   62.0560   33.2580   46.7650 C   0  0  0  0  0  0  0  0  0  0  0  0
   61.4823   33.7654   45.9754 H   0  0  0  0  0  0  0  0  0  0  0  0
   61.5830   32.0470   47.3060 C   0  0  0  0  0  0  0  0  0  0  0  0
   60.3140   31.4480   46.8190 C   0  0  0  0  0  0  0  0  0  0  0  0
   59.3110   32.2550   46.2630 C   0  0  0  0  0  0  0  0  0  0  0  0
   59.4694   33.3401   46.1763 H   0  0  0  0  0  0  0  0  0  0  0  0
   58.1140   31.6930   45.8190 C   0  0  0  0  0  0  0  0  0  0  0  0
   57.3367   32.3395   45.3856 H   0  0  0  0  0  0  0  0  0  0  0  0
   57.8910   30.3080   45.9200 C   0  0  0  0  0  0  0  0  0  0  0  0
   56.6750   29.7340   45.5120 O   0  0  0  0  0  0  0  0  0  0  0  0
   56.3520   29.3680   44.2000 C   0  0  0  0  0  0  0  0  0  0  0  0
   55.2650   29.7280   43.6730 O   0  0  0  0  0  0  0  0  0  0  0  0
   57.3620   28.6420   43.3780 C   0  0  0  0  0  0  0  0  0  0  0  0
   58.0747   28.1297   44.0411 H   0  0  0  0  0  0  0  0  0  0  0  0
   56.8540   27.9010   42.7432 H   0  0  0  0  0  0  0  0  0  0  0  0
   57.9025   29.3596   42.7432 H   0  0  0  0  0  0  0  0  0  0  0  0
   58.8840   29.4880   46.4970 C   0  0  0  0  0  0  0  0  0  0  0  0
   58.6830   28.0230   46.6350 C   0  0  0  0  0  0  0  0  0  0  0  0
   59.6710   27.2490   46.5270 O   0  0  0  0  0  0  0  0  0  0  0  0
   57.4080   27.4600   46.9820 N   0  0  0  0  0  0  0  0  0  0  0  0
   56.7750   26.5220   46.3390 C   0  0  0  0  0  0  0  0  0  0  0  0
   55.4350   26.4060   46.3640 N   0  0  0  0  0  0  0  0  0  0  0  0
   55.1220   25.3450   45.6380 N   0  0  0  0  0  0  0  0  0  0  0  0
   54.1460   25.0090   45.4790 H   0  0  0  0  0  0  0  0  0  0  0  0
   56.2410   24.7750   45.1550 C   0  0  0  0  0  0  0  0  0  0  0  0
   56.2788   23.8786   44.5186 H   0  0  0  0  0  0  0  0  0  0  0  0
   57.3330   25.4980   45.5880 C   0  0  0  0  0  0  0  0  0  0  0  0
   58.3972   25.3072   45.3852 H   0  0  0  0  0  0  0  0  0  0  0  0
   60.0940   30.0650   46.9240 C   0  0  0  0  0  0  0  0  0  0  0  0
   60.8804   29.4225   47.3469 H   0  0  0  0  0  0  0  0  0  0  0  0
   62.3310   31.4140   48.3160 C   0  0  0  0  0  0  0  0  0  0  0  0
   61.9743   30.4673   48.7480 H   0  0  0  0  0  0  0  0  0  0  0  0
   63.5240   31.9800   48.7740 C   0  0  0  0  0  0  0  0  0  0  0  0
   64.1017   31.4787   49.5645 H   0  0  0  0  0  0  0  0  0  0  0  0
  1  2  1  0
  2  3  2  0
  3  4  1  0
  3  5  1  0
  5  6  1  0
  5  7  2  0
  7  8  1  0
  8  9  2  0
  9 10  1  0
  9 11  1  0
 11 12  1  0
 11 13  2  0
 13 14  1  0
 14 15  1  0
 15 16  2  0
 15 17  1  0
 17 18  1  0
 17 19  1  0
 17 20  1  0
 13 21  1  0
 21 22  1  0
 22 23  2  0
 22 24  1  0
 24 25  2  0
 25 26  1  0
 26 27  1  0
 27 28  1  0
 27 29  1  0
 29 30  1  0
 29 31  2  0
 31 32  1  0
 21 33  2  0
 33 34  1  0
  7 35  1  0
 35 36  1  0
 35 37  2  0
 37 38  1  0
 37  2  1  0
 33  8  1  0
 31 25  1  0
M  CHG  1  26  -1
M  END
>  <UniqueID>  (59) 
55

>  <SMILES>  (59) 
CC(=O)Oc1ccc(-c2ccccc2)cc1C(=O)/N=c1\cc[nH][n-]1

>  <Energy>  (59) 
87.77695717629749

>  <Genealogy>  (59) 
CC(=O)Oc1ccc(-c2ccccc2)cc1C(=O)N=c1cc[nH][n-]1 (protonated)
CC(=O)Oc1ccc(-c2ccccc2)cc1C(=O)/N=c1\cc[nH][n-]1 (cis-trans isomerization)
CC(=O)Oc1ccc(-c2ccccc2)cc1C(=O)/N=c1\cc[nH][n-]1 (3D coordinates assigned)
CC(=O)Oc1ccc(-c2ccccc2)cc1C(=O)/N=c1\cc[nH][n-]1 (optimized conformer: 87.77695717629749 kcal/mol)

>  <smiles>  (59) 
CC(=O)Oc1ccc(-c2ccccc2)cc1C(=O)N=c1cc[nH][nH]1

>  <score_type>  (59) 
oracle

>  <origin>  (59) 
adg

>  <m_score__min__energy>  (59) 
-10.18

>  <m_primary>  (59) 
energy

$$$$
59:0
     RDKit          3D

 64 68  0  0  0  0  0  0  0  0999 V2000
   55.3773   30.4900   43.6619 H   0  0  0  0  0  0  0  0  0  0  0  0
   56.4130   30.4260   44.0270 C   0  0  0  0  0  0  0  0  0  0  0  0
   57.1050   29.2640   43.9010 N   0  0  0  0  0  0  0  0  0  0  0  0
   58.3820   29.1290   44.3470 C   0  0  0  0  0  0  0  0  0  0  0  0
   58.9820   27.9850   44.1780 N   0  0  0  0  0  0  0  0  0  0  0  0
   58.4580   26.7060   44.5630 C   0  0  0  0  0  0  0  0  0  0  0  0
   57.7690   25.9150   43.6320 C   0  0  0  0  0  0  0  0  0  0  0  0
   57.6401   26.2689   42.5985 H   0  0  0  0  0  0  0  0  0  0  0  0
   57.2460   24.6770   44.0170 C   0  0  0  0  0  0  0  0  0  0  0  0
   56.7065   24.0584   43.2847 H   0  0  0  0  0  0  0  0  0  0  0  0
   57.4070   24.2200   45.3360 C   0  0  0  0  0  0  0  0  0  0  0  0
   56.8030   22.9100   45.7730 C   0  0  0  0  0  0  0  0  0  0  0  0
   56.5969   22.9498   46.8528 H   0  0  0  0  0  0  0  0  0  0  0  0
   55.8710   22.7459   45.2122 H   0  0  0  0  0  0  0  0  0  0  0  0
   57.7290   21.7880   45.4960 N   0  0  0  0  0  0  0  0  0  0  0  0
   58.3720   21.9020   44.1640 C   0  0  0  0  0  0  0  0  0  0  0  0
   58.3927   22.9626   43.8729 H   0  0  0  0  0  0  0  0  0  0  0  0
   59.3857   21.4831   44.2476 H   0  0  0  0  0  0  0  0  0  0  0  0
   57.6280   21.1060   43.0740 C   0  0  0  0  0  0  0  0  0  0  0  0
   57.7377   21.6237   42.1096 H   0  0  0  0  0  0  0  0  0  0  0  0
   58.0600   20.0961   43.0145 H   0  0  0  0  0  0  0  0  0  0  0  0
   56.2560   20.9970   43.3890 O   0  0  0  0  0  0  0  0  0  0  0  0
   56.0790   20.1680   44.5240 C   0  0  0  0  0  0  0  0  0  0  0  0
   55.0609   20.3192   44.9121 H   0  0  0  0  0  0  0  0  0  0  0  0
   56.2479   19.1303   44.2005 H   0  0  0  0  0  0  0  0  0  0  0  0
   57.0880   20.4660   45.6600 C   0  0  0  0  0  0  0  0  0  0  0  0
   56.5558   20.4459   46.6225 H   0  0  0  0  0  0  0  0  0  0  0  0
   57.8757   19.6989   45.6259 H   0  0  0  0  0  0  0  0  0  0  0  0
   58.1060   25.0140   46.2620 C   0  0  0  0  0  0  0  0  0  0  0  0
   58.2355   24.6635   47.2966 H   0  0  0  0  0  0  0  0  0  0  0  0
   58.6370   26.2470   45.8730 C   0  0  0  0  0  0  0  0  0  0  0  0
   59.1963   26.8574   46.5973 H   0  0  0  0  0  0  0  0  0  0  0  0
   59.0180   30.2330   44.9540 C   0  0  0  0  0  0  0  0  0  0  0  0
   60.0466   30.1362   45.3315 H   0  0  0  0  0  0  0  0  0  0  0  0
   58.3360   31.4570   45.0760 C   0  0  0  0  0  0  0  0  0  0  0  0
   58.9850   32.6500   45.6790 C   0  0  0  0  0  0  0  0  0  0  0  0
   59.8980   32.4790   46.6770 N   0  0  0  0  0  0  0  0  0  0  0  0
   60.5270   33.5200   47.2930 C   0  0  0  0  0  0  0  0  0  0  0  0
   61.4830   33.2460   48.3510 N   0  0  2  0  0  0  0  0  0  0  0  0
   61.5400   32.2040   48.4680 H   0  0  0  0  0  0  0  0  0  0  0  0
   60.9940   33.7990   49.6330 C   0  0  0  0  0  0  0  0  0  0  0  0
   60.1210   33.2164   49.9624 H   0  0  0  0  0  0  0  0  0  0  0  0
   60.7265   34.8536   49.4712 H   0  0  0  0  0  0  0  0  0  0  0  0
   62.0760   33.7410   50.7300 C   0  0  0  0  0  0  0  0  0  0  0  0
   61.6285   33.3489   51.6552 H   0  0  0  0  0  0  0  0  0  0  0  0
   62.4664   34.7571   50.8888 H   0  0  0  0  0  0  0  0  0  0  0  0
   63.1470   32.9050   50.3460 O   0  0  0  0  0  0  0  0  0  0  0  0
   63.8140   33.4720   49.2330 C   0  0  0  0  0  0  0  0  0  0  0  0
   64.6042   32.7807   48.9049 H   0  0  0  0  0  0  0  0  0  0  0  0
   64.2309   34.4397   49.5490 H   0  0  0  0  0  0  0  0  0  0  0  0
   62.8520   33.7370   48.0360 C   0  0  1  0  0  0  0  0  0  0  0  0
   62.7862   34.8214   47.8638 H   0  0  0  0  0  0  0  0  0  0  0  0
   63.4050   33.0890   46.7500 C   0  0  0  0  0  0  0  0  0  0  0  0
   64.0977   32.2773   47.0171 H   0  0  0  0  0  0  0  0  0  0  0  0
   62.5726   32.6808   46.1579 H   0  0  0  0  0  0  0  0  0  0  0  0
   63.9390   33.8468   46.1579 H   0  0  0  0  0  0  0  0  0  0  0  0
   60.2110   34.8350   46.8970 C   0  0  0  0  0  0  0  0  0  0  0  0
   60.6992   35.6923   47.3835 H   0  0  0  0  0  0  0  0  0  0  0  0
   59.2750   35.0420   45.8840 C   0  0  0  0  0  0  0  0  0  0  0  0
   59.0251   36.0657   45.5684 H   0  0  0  0  0  0  0  0  0  0  0  0
   58.6560   33.9550   45.2710 C   0  0  0  0  0  0  0  0  0  0  0  0
   57.9154   34.1162   44.4738 H   0  0  0  0  0  0  0  0  0  0  0  0
   57.0120   31.5380   44.6180 C   0  0  0  0  0  0  0  0  0  0  0  0
   56.4481   32.4764   44.7249 H   0  0  0  0  0  0  0  0  0  0  0  0
  1  2  1  0
  2  3  1  0
  3  4  1  0
  4  5  2  0
  5  6  1  0
  6  7  2  0
  7  8  1  0
  7  9  1  0
  9 10  1  0
  9 11  2  0
 11 12  1  0
 12 13  1  0
 12 14  1  0
 12 15  1  0
 15 16  1  0
 16 17  1  0
 16 18  1  0
 16 19  1  0
 19 20  1  0
 19 21  1  0
 19 22  1  0
 22 23  1  0
 23 24  1  0
 23 25  1  0
 23 26  1  0
 26 27  1  0
 26 28  1  0
 11 29  1  0
 29 30  1  0
 29 31  2  0
 31 32  1  0
  4 33  1  0
 33 34  1  0
 33 35  2  0
 35 36  1  0
 36 37  2  0
 37 38  1  0
 38 39  1  0
 39 40  1  1
 39 41  1  0
 41 42  1  0
 41 43  1  0
 41 44  1  0
 44 45  1  0
 44 46  1  0
 44 47  1  0
 47 48  1  0
 48 49  1  0
 48 50  1  0
 48 51  1  0
 51 52  1  6
 51 53  1  0
 53 54  1  0
 53 55  1  0
 53 56  1  0
 38 57  2  0
 57 58  1  0
 57 59  1  0
 59 60  1  0
 59 61  2  0
 61 62  1  0
 35 63  1  0
 63 64  1  0
 63  2  2  0
 31  6  1  0
 61 36  1  0
 26 15  1  0
 51 39  1  0
M  CHG  2   3  -1  39   1
M  END
>  <UniqueID>  (60) 
56

>  <SMILES>  (60) 
C[C@@H]1COCC[N@H+]1c1cccc(-c2cc[n-]/c(=N/c3ccc(CN4CCOCC4)cc3)c2)n1

>  <Energy>  (60) 
108.93803342213641

>  <Genealogy>  (60) 
CC1COCC[NH+]1c1cccc(-c2cc[n-]c(=Nc3ccc(CN4CCOCC4)cc3)c2)n1 (protonated)
C[C@@H]1COCC[N@H+]1c1cccc(-c2cc[n-]c(=Nc3ccc(CN4CCOCC4)cc3)c2)n1 (chirality)
C[C@@H]1COCC[N@H+]1c1cccc(-c2cc[n-]/c(=N/c3ccc(CN4CCOCC4)cc3)c2)n1 (cis-trans isomerization)
C[C@@H]1COCC[N@H+]1c1cccc(-c2cc[n-]/c(=N/c3ccc(CN4CCOCC4)cc3)c2)n1 (3D coordinates assigned)
C[C@@H]1COCC[N@H+]1c1cccc(-c2cc[n-]/c(=N/c3ccc(CN4CCOCC4)cc3)c2)n1 (nonaromatic ring conformer: 108.93803342213641 kcal/mol)

>  <smiles>  (60) 
CC1COCCN1c1cccc(-c2cc[nH]c(=Nc3ccc(CN4CCOCC4)cc3)c2)n1

>  <score_type>  (60) 
oracle

>  <origin>  (60) 
adg

>  <m_score__min__energy>  (60) 
-9.5099999999999998

>  <m_primary>  (60) 
energy

$$$$
60:0
     RDKit          3D

 43 46  0  0  0  0  0  0  0  0999 V2000
   59.7620   26.9660   47.0450 C   0  0  0  0  0  0  0  0  0  0  0  0
   58.3850   26.4240   46.7590 C   0  0  0  0  0  0  0  0  0  0  0  0
   57.9970   25.2240   47.3760 C   0  0  0  0  0  0  0  0  0  0  0  0
   56.7430   24.6680   47.1340 C   0  0  0  0  0  0  0  0  0  0  0  0
   55.8430   25.3030   46.2670 C   0  0  0  0  0  0  0  0  0  0  0  0
   54.5400   24.7680   45.9940 N   0  0  0  0  0  0  0  0  0  0  0  0
   54.2190   23.3480   45.0520 S   0  0  0  0  0  0  0  0  0  0  0  0
   53.4620   23.7380   43.8140 O   0  0  0  0  0  0  0  0  0  0  0  0
   53.3850   22.3950   45.8610 O   0  0  0  0  0  0  0  0  0  0  0  0
   55.7290   22.5910   44.5810 C   0  0  0  0  0  0  0  0  0  0  0  0
   56.5940   21.9200   45.4300 C   0  0  0  0  0  0  0  0  0  0  0  0
   57.7130   21.4010   44.7670 C   0  0  0  0  0  0  0  0  0  0  0  0
   57.7240   21.6620   43.4020 C   0  0  0  0  0  0  0  0  0  0  0  0
   56.3400   22.5390   43.0170 S   0  0  0  0  0  0  0  0  0  0  0  0
   56.2150   26.5040   45.6550 C   0  0  0  0  0  0  0  0  0  0  0  0
   57.4760   27.0870   45.8920 C   0  0  0  0  0  0  0  0  0  0  0  0
   57.8040   28.3860   45.2470 C   0  0  0  0  0  0  0  0  0  0  0  0
   58.0200   28.6250   43.9000 C   0  0  0  0  0  0  0  0  0  0  0  0
   58.2800   29.9340   43.7440 N   0  0  0  0  0  0  0  0  0  0  0  0
   58.2130   30.4540   44.9900 C   0  0  0  0  0  0  0  0  0  0  0  0
   58.4290   31.8780   45.3370 C   0  0  0  0  0  0  0  0  0  0  0  0
   59.2930   32.2610   46.3810 C   0  0  0  0  0  0  0  0  0  0  0  0
   59.4830   33.6140   46.6770 C   0  0  0  0  0  0  0  0  0  0  0  0
   58.8190   34.5960   45.9400 C   0  0  0  0  0  0  0  0  0  0  0  0
   57.9600   34.2280   44.9020 C   0  0  0  0  0  0  0  0  0  0  0  0
   57.7640   32.8770   44.6010 C   0  0  0  0  0  0  0  0  0  0  0  0
   57.9300   29.5300   45.8800 O   0  0  0  0  0  0  0  0  0  0  0  0
   59.9139   27.0258   48.1328 H   0  0  0  0  0  0  0  0  0  0  0  0
   60.5175   26.2982   46.6055 H   0  0  0  0  0  0  0  0  0  0  0  0
   59.8596   27.9696   46.6055 H   0  0  0  0  0  0  0  0  0  0  0  0
   58.6928   24.7160   48.0599 H   0  0  0  0  0  0  0  0  0  0  0  0
   56.4576   23.7262   47.6255 H   0  0  0  0  0  0  0  0  0  0  0  0
   56.4203   21.8069   46.5103 H   0  0  0  0  0  0  0  0  0  0  0  0
   58.5086   20.8395   45.2786 H   0  0  0  0  0  0  0  0  0  0  0  0
   58.5048   21.3486   42.6934 H   0  0  0  0  0  0  0  0  0  0  0  0
   55.5093   27.0037   44.9750 H   0  0  0  0  0  0  0  0  0  0  0  0
   57.9848   27.8737   43.0973 H   0  0  0  0  0  0  0  0  0  0  0  0
   58.4970   30.4150   42.8460 H   0  0  0  0  0  0  0  0  0  0  0  0
   59.8203   31.4928   46.9657 H   0  0  0  0  0  0  0  0  0  0  0  0
   60.1588   33.9060   47.4943 H   0  0  0  0  0  0  0  0  0  0  0  0
   58.9722   35.6593   46.1766 H   0  0  0  0  0  0  0  0  0  0  0  0
   57.4372   35.0019   44.3208 H   0  0  0  0  0  0  0  0  0  0  0  0
   57.0854   32.5925   43.7833 H   0  0  0  0  0  0  0  0  0  0  0  0
  1  2  1  0
  2  3  2  0
  3  4  1  0
  4  5  2  0
  5  6  1  0
  6  7  1  0
  7  8  2  0
  7  9  2  0
  7 10  1  0
 10 11  2  0
 11 12  1  0
 12 13  2  0
 13 14  1  0
  5 15  1  0
 15 16  2  0
 16 17  1  0
 17 18  2  0
 18 19  1  0
 19 20  2  0
 20 21  1  0
 21 22  2  0
 22 23  1  0
 23 24  2  0
 24 25  1  0
 25 26  2  0
 20 27  1  0
 16  2  1  0
 27 17  1  0
 14 10  1  0
 26 21  1  0
  1 28  1  0
  1 29  1  0
  1 30  1  0
  3 31  1  0
  4 32  1  0
 11 33  1  0
 12 34  1  0
 13 35  1  0
 15 36  1  0
 18 37  1  0
 19 38  1  0
 22 39  1  0
 23 40  1  0
 24 41  1  0
 25 42  1  0
 26 43  1  0
M  CHG  2   6  -1  19   1
M  END
>  <UniqueID>  (61) 
57

>  <SMILES>  (61) 
Cc1ccc([N-]S(=O)(=O)c2cccs2)cc1-c1c[nH+]c(-c2ccccc2)o1

>  <Energy>  (61) 
111.97259866596644

>  <Genealogy>  (61) 
Cc1ccc([N-]S(=O)(=O)c2cccs2)cc1-c1c[nH+]c(-c2ccccc2)o1 (protonated)
Cc1ccc([N-]S(=O)(=O)c2cccs2)cc1-c1c[nH+]c(-c2ccccc2)o1 (3D coordinates assigned)
Cc1ccc([N-]S(=O)(=O)c2cccs2)cc1-c1c[nH+]c(-c2ccccc2)o1 (optimized conformer: 111.97259866596644 kcal/mol)

>  <smiles>  (61) 
Cc1ccc(NS(=O)(=O)c2cccs2)cc1-c1cnc(-c2ccccc2)o1

>  <score_type>  (61) 
oracle

>  <origin>  (61) 
adg

>  <m_score__min__energy>  (61) 
-9.6899999999999995

>  <m_primary>  (61) 
energy

$$$$
61:0
     RDKit          3D

 32 33  0  0  0  0  0  0  0  0999 V2000
   58.3490   26.8120   43.3130 O   0  0  0  0  0  0  0  0  0  0  0  0
   58.2940   27.9350   43.8800 C   0  0  0  0  0  0  0  0  0  0  0  0
   59.4240   28.4560   44.5030 C   0  0  0  0  0  0  0  0  0  0  0  0
   59.3310   29.7010   45.1210 C   0  0  0  0  0  0  0  0  0  0  0  0
   58.1560   30.3980   45.1060 N   0  0  0  0  0  0  0  0  0  0  0  0
   58.0840   31.6970   45.7940 C   0  0  0  0  0  0  0  0  0  0  0  0
   58.2730   32.8390   44.7910 C   0  0  0  0  0  0  0  0  0  0  0  0
   57.7850   34.1700   45.3710 C   0  0  0  0  0  0  0  0  0  0  0  0
   58.8840   34.9360   45.8650 O   0  0  0  0  0  0  0  0  0  0  0  0
   59.8260   34.4950   46.8100 C   0  0  0  0  0  0  0  0  0  0  0  0
   59.5970   34.5480   48.2000 C   0  0  0  0  0  0  0  0  0  0  0  0
   60.5750   34.0950   49.0910 C   0  0  0  0  0  0  0  0  0  0  0  0
   61.7850   33.5890   48.6090 C   0  0  0  0  0  0  0  0  0  0  0  0
   62.0210   33.5370   47.2330 C   0  0  0  0  0  0  0  0  0  0  0  0
   63.1960   33.0490   46.7650 F   0  0  0  0  0  0  0  0  0  0  0  0
   61.0450   33.9900   46.3390 C   0  0  0  0  0  0  0  0  0  0  0  0
   57.0500   29.8550   44.4990 C   0  0  0  0  0  0  0  0  0  0  0  0
   55.9500   30.4720   44.4990 O   0  0  0  0  0  0  0  0  0  0  0  0
   57.1310   28.6390   43.8900 N   0  0  0  0  0  0  0  0  0  0  0  0
   60.3710   27.8964   44.5074 H   0  0  0  0  0  0  0  0  0  0  0  0
   60.2111   30.1265   45.6254 H   0  0  0  0  0  0  0  0  0  0  0  0
   57.1014   31.7976   46.2780 H   0  0  0  0  0  0  0  0  0  0  0  0
   58.8821   31.7474   46.5493 H   0  0  0  0  0  0  0  0  0  0  0  0
   59.3411   32.9256   44.5426 H   0  0  0  0  0  0  0  0  0  0  0  0
   57.6831   32.6136   43.8903 H   0  0  0  0  0  0  0  0  0  0  0  0
   57.2714   34.7409   44.5834 H   0  0  0  0  0  0  0  0  0  0  0  0
   57.0950   33.9629   46.2023 H   0  0  0  0  0  0  0  0  0  0  0  0
   58.6467   34.9467   48.5847 H   0  0  0  0  0  0  0  0  0  0  0  0
   60.3912   34.1371   50.1747 H   0  0  0  0  0  0  0  0  0  0  0  0
   62.5514   33.2318   49.3126 H   0  0  0  0  0  0  0  0  0  0  0  0
   61.2364   33.9493   45.2565 H   0  0  0  0  0  0  0  0  0  0  0  0
   56.2830   28.2380   43.4260 H   0  0  0  0  0  0  0  0  0  0  0  0
  1  2  2  0
  2  3  1  0
  3  4  2  0
  4  5  1  0
  5  6  1  0
  6  7  1  0
  7  8  1  0
  8  9  1  0
  9 10  1  0
 10 11  2  0
 11 12  1  0
 12 13  2  0
 13 14  1  0
 14 15  1  0
 14 16  2  0
  5 17  1  0
 17 18  2  0
 17 19  1  0
 19  2  1  0
 16 10  1  0
  3 20  1  0
  4 21  1  0
  6 22  1  0
  6 23  1  0
  7 24  1  0
  7 25  1  0
  8 26  1  0
  8 27  1  0
 11 28  1  0
 12 29  1  0
 13 30  1  0
 16 31  1  0
 19 32  1  0
M  END
>  <UniqueID>  (62) 
58

>  <SMILES>  (62) 
O=c1ccn(CCCOc2cccc(F)c2)c(=O)[nH]1

>  <Energy>  (62) 
31.06955517983693

>  <Genealogy>  (62) 
O=c1ccn(CCCOc2cccc(F)c2)c(=O)[nH]1 (3D coordinates assigned)
O=c1ccn(CCCOc2cccc(F)c2)c(=O)[nH]1 (optimized conformer: 31.06955517983693 kcal/mol)

>  <smiles>  (62) 
O=c1ccn(CCCOc2cccc(F)c2)c(=O)[nH]1

>  <score_type>  (62) 
oracle

>  <origin>  (62) 
adg

>  <m_score__min__energy>  (62) 
-6.4299999999999997

>  <m_primary>  (62) 
energy

$$$$
62:0
     RDKit          3D

 41 43  0  0  0  0  0  0  0  0999 V2000
   55.3850   26.7280   46.0720 N   0  0  0  0  0  0  0  0  0  0  0  0
   57.0200   26.9900   45.5790 S   0  0  0  0  0  0  0  0  0  0  0  0
   57.3720   26.0270   44.4780 O   0  0  0  0  0  0  0  0  0  0  0  0
   57.9390   26.7470   46.7430 O   0  0  0  0  0  0  0  0  0  0  0  0
   57.2050   28.6450   45.0100 C   0  0  0  0  0  0  0  0  0  0  0  0
   57.6020   29.6560   45.8950 C   0  0  0  0  0  0  0  0  0  0  0  0
   57.7620   30.9680   45.4380 C   0  0  0  0  0  0  0  0  0  0  0  0
   57.5210   31.2840   44.0920 C   0  0  0  0  0  0  0  0  0  0  0  0
   57.7300   32.6850   43.5970 C   0  0  0  0  0  0  0  0  0  0  0  0
   58.7220   33.3470   44.4370 N   0  0  0  0  0  0  0  0  0  0  0  0
   58.5010   33.9110   45.7390 C   0  0  0  0  0  0  0  0  0  0  0  0
   57.3220   34.2040   46.0690 O   0  0  0  0  0  0  0  0  0  0  0  0
   59.6210   34.2400   46.7030 C   0  0  2  0  0  0  0  0  0  0  0  0
   60.8560   33.3750   46.3930 C   0  0  0  0  0  0  0  0  0  0  0  0
   61.8900   33.4460   47.4850 C   0  0  0  0  0  0  0  0  0  0  0  0
   63.1730   32.9230   47.2530 C   0  0  0  0  0  0  0  0  0  0  0  0
   64.1350   32.9340   48.2660 C   0  0  0  0  0  0  0  0  0  0  0  0
   63.8220   33.4590   49.5220 C   0  0  0  0  0  0  0  0  0  0  0  0
   62.5450   33.9710   49.7690 C   0  0  0  0  0  0  0  0  0  0  0  0
   61.5670   33.9500   48.7630 C   0  0  0  0  0  0  0  0  0  0  0  0
   60.2160   34.5670   49.0240 C   0  0  0  0  0  0  0  0  0  0  0  0
   59.1980   34.0530   48.0990 N   0  0  0  0  0  0  0  0  0  0  0  0
   57.1470   30.2650   43.2030 C   0  0  0  0  0  0  0  0  0  0  0  0
   56.9870   28.9540   43.6600 C   0  0  0  0  0  0  0  0  0  0  0  0
   54.8040   26.7090   45.2040 H   0  0  0  0  0  0  0  0  0  0  0  0
   57.7884   29.4171   46.9524 H   0  0  0  0  0  0  0  0  0  0  0  0
   58.0783   31.7562   46.1370 H   0  0  0  0  0  0  0  0  0  0  0  0
   58.0873   32.6584   42.5570 H   0  0  0  0  0  0  0  0  0  0  0  0
   56.7802   33.2381   43.6406 H   0  0  0  0  0  0  0  0  0  0  0  0
   59.8843   35.3001   46.5730 H   0  0  0  0  0  0  0  0  0  0  0  0
   60.5355   32.3292   46.2763 H   0  0  0  0  0  0  0  0  0  0  0  0
   61.3138   33.7594   45.4696 H   0  0  0  0  0  0  0  0  0  0  0  0
   63.4217   32.5022   46.2676 H   0  0  0  0  0  0  0  0  0  0  0  0
   65.1396   32.5290   48.0744 H   0  0  0  0  0  0  0  0  0  0  0  0
   64.5814   33.4695   50.3177 H   0  0  0  0  0  0  0  0  0  0  0  0
   62.3057   34.3923   50.7565 H   0  0  0  0  0  0  0  0  0  0  0  0
   59.9110   34.3349   50.0550 H   0  0  0  0  0  0  0  0  0  0  0  0
   60.2996   35.6535   48.8736 H   0  0  0  0  0  0  0  0  0  0  0  0
   58.3290   34.6160   48.2570 H   0  0  0  0  0  0  0  0  0  0  0  0
   56.9789   30.4991   42.1414 H   0  0  0  0  0  0  0  0  0  0  0  0
   56.6889   28.1615   42.9578 H   0  0  0  0  0  0  0  0  0  0  0  0
  1  2  1  0
  2  3  2  0
  2  4  2  0
  2  5  1  0
  5  6  2  0
  6  7  1  0
  7  8  2  0
  8  9  1  0
  9 10  1  0
 10 11  1  0
 11 12  2  0
 11 13  1  0
 13 14  1  0
 14 15  1  0
 15 16  2  0
 16 17  1  0
 17 18  2  0
 18 19  1  0
 19 20  2  0
 20 21  1  0
 21 22  1  0
  8 23  1  0
 23 24  2  0
 24  5  1  0
 22 13  1  0
 20 15  1  0
  1 25  1  0
  6 26  1  0
  7 27  1  0
  9 28  1  0
  9 29  1  0
 13 30  1  1
 14 31  1  0
 14 32  1  0
 16 33  1  0
 17 34  1  0
 18 35  1  0
 19 36  1  0
 21 37  1  0
 21 38  1  0
 22 39  1  0
 23 40  1  0
 24 41  1  0
M  CHG  2   1  -1  10  -1
M  END
>  <UniqueID>  (63) 
59

>  <SMILES>  (63) 
[NH-]S(=O)(=O)c1ccc(C[N-]C(=O)[C@@H]2Cc3ccccc3CN2)cc1

>  <Energy>  (63) 
43.320569335718005

>  <Genealogy>  (63) 
[NH-]S(=O)(=O)c1ccc(C[N-]C(=O)C2Cc3ccccc3CN2)cc1 (protonated)
[NH-]S(=O)(=O)c1ccc(C[N-]C(=O)[C@@H]2Cc3ccccc3CN2)cc1 (chirality)
[NH-]S(=O)(=O)c1ccc(C[N-]C(=O)[C@@H]2Cc3ccccc3CN2)cc1 (3D coordinates assigned)
[NH-]S(=O)(=O)c1ccc(C[N-]C(=O)[C@@H]2Cc3ccccc3CN2)cc1 (nonaromatic ring conformer: 43.320569335718005 kcal/mol)

>  <smiles>  (63) 
NS(=O)(=O)c1ccc(CNC(=O)C2Cc3ccccc3CN2)cc1

>  <score_type>  (63) 
oracle

>  <origin>  (63) 
adg

>  <m_score__min__energy>  (63) 
-12.390000000000001

>  <m_primary>  (63) 
energy

$$$$
63:0
     RDKit          3D

 53 57  0  0  0  0  0  0  0  0999 V2000
   59.4465   27.8966   46.1735 H   0  0  0  0  0  0  0  0  0  0  0  0
   58.4130   28.2730   46.1870 C   0  0  0  0  0  0  0  0  0  0  0  0
   57.3170   27.2910   46.1930 C   0  0  0  0  0  0  0  0  0  0  0  0
   57.4030   26.0940   46.7990 N   0  0  0  0  0  0  0  0  0  0  0  0
   56.1730   25.5650   46.6230 C   0  0  0  0  0  0  0  0  0  0  0  0
   55.8600   24.4210   47.0460 O   0  0  0  0  0  0  0  0  0  0  0  0
   55.3040   26.3580   45.9630 N   0  0  0  0  0  0  0  0  0  0  0  0
   56.0390   27.4520   45.7080 C   0  0  0  0  0  0  0  0  0  0  0  0
   55.5330   28.5920   45.0940 O   0  0  0  0  0  0  0  0  0  0  0  0
   58.2240   29.5990   46.1970 C   0  0  0  0  0  0  0  0  0  0  0  0
   57.9030   30.4590   45.1420 C   0  0  0  0  0  0  0  0  0  0  0  0
   57.7193   30.1448   44.1039 H   0  0  0  0  0  0  0  0  0  0  0  0
   57.8520   31.7390   45.5900 N   0  0  0  0  0  0  0  0  0  0  0  0
   58.1340   31.7000   46.8820 N   0  0  0  0  0  0  0  0  0  0  0  0
   58.2080   32.7340   47.7510 C   0  0  0  0  0  0  0  0  0  0  0  0
   57.9860   33.9500   47.3530 N   0  0  0  0  0  0  0  0  0  0  0  0
   59.0360   34.8400   46.8670 C   0  0  0  0  0  0  0  0  0  0  0  0
   58.8725   35.6666   47.5741 H   0  0  0  0  0  0  0  0  0  0  0  0
   60.2440   34.0890   46.3400 C   0  0  0  0  0  0  0  0  0  0  0  0
   61.2527   34.5076   46.4719 H   0  0  0  0  0  0  0  0  0  0  0  0
   60.6481   33.0744   46.4719 H   0  0  0  0  0  0  0  0  0  0  0  0
   59.2700   34.7420   45.3710 C   0  0  0  0  0  0  0  0  0  0  0  0
   59.5740   35.6330   44.8020 H   0  0  0  0  0  0  0  0  0  0  0  0
   58.6773   34.3958   44.5114 H   0  0  0  0  0  0  0  0  0  0  0  0
   58.5230   32.4580   49.0510 N   0  0  0  0  0  0  0  0  0  0  0  0
   58.7490   31.1710   49.4590 C   0  0  0  0  0  0  0  0  0  0  0  0
   59.0620   30.9490   50.7020 N   0  0  0  0  0  0  0  0  0  0  0  0
   58.1520   30.7050   51.7880 C   0  0  0  0  0  0  0  0  0  0  0  0
   58.5980   30.2870   53.0550 C   0  0  0  0  0  0  0  0  0  0  0  0
   59.6754   30.1765   53.2471 H   0  0  0  0  0  0  0  0  0  0  0  0
   57.6800   30.0120   54.0690 C   0  0  0  0  0  0  0  0  0  0  0  0
   58.0355   29.6971   55.0612 H   0  0  0  0  0  0  0  0  0  0  0  0
   56.3100   30.1360   53.8260 C   0  0  0  0  0  0  0  0  0  0  0  0
   55.5905   29.9095   54.6266 H   0  0  0  0  0  0  0  0  0  0  0  0
   55.8450   30.5480   52.5660 C   0  0  0  0  0  0  0  0  0  0  0  0
   54.3940   30.6380   52.2910 C   0  0  0  0  0  0  0  0  0  0  0  0
   53.6000   30.8680   53.2400 O   0  0  0  0  0  0  0  0  0  0  0  0
   53.8600   30.5170   50.9650 N   0  0  0  0  0  0  0  0  0  0  0  0
   52.4750   30.8130   50.5980 C   0  0  0  0  0  0  0  0  0  0  0  0
   51.8017   30.1293   51.1359 H   0  0  0  0  0  0  0  0  0  0  0  0
   52.3532   30.6802   49.5129 H   0  0  0  0  0  0  0  0  0  0  0  0
   52.1330   32.2520   50.9670 C   0  0  0  0  0  0  0  0  0  0  0  0
   52.2447   32.8919   50.0792 H   0  0  0  0  0  0  0  0  0  0  0  0
   52.8141   32.5923   51.7609 H   0  0  0  0  0  0  0  0  0  0  0  0
   50.8000   32.3290   51.4350 O   0  0  0  0  0  0  0  0  0  0  0  0
   50.7300   31.9890   52.8010 C   0  0  0  0  0  0  0  0  0  0  0  0
   50.9145   32.8850   53.4118 H   0  0  0  0  0  0  0  0  0  0  0  0
   49.7307   31.5894   53.0287 H   0  0  0  0  0  0  0  0  0  0  0  0
   51.4901   31.2272   53.0287 H   0  0  0  0  0  0  0  0  0  0  0  0
   56.7750   30.8040   51.5450 C   0  0  0  0  0  0  0  0  0  0  0  0
   56.4186   31.0854   50.5431 H   0  0  0  0  0  0  0  0  0  0  0  0
   58.6800   30.1490   48.5530 N   0  0  0  0  0  0  0  0  0  0  0  0
   58.3650   30.4460   47.2710 C   0  0  0  0  0  0  0  0  0  0  0  0
  1  2  1  0
  2  3  1  0
  3  4  1  0
  4  5  1  0
  5  6  2  0
  5  7  1  0
  7  8  1  0
  8  9  1  0
  2 10  2  0
 10 11  1  0
 11 12  1  0
 11 13  2  0
 13 14  1  0
 14 15  1  0
 15 16  2  3
 16 17  1  0
 17 18  1  0
 17 19  1  0
 19 20  1  0
 19 21  1  0
 19 22  1  0
 22 23  1  0
 22 24  1  0
 15 25  1  0
 25 26  1  0
 26 27  2  3
 27 28  1  0
 28 29  2  0
 29 30  1  0
 29 31  1  0
 31 32  1  0
 31 33  2  0
 33 34  1  0
 33 35  1  0
 35 36  1  0
 36 37  2  0
 36 38  1  0
 38 39  1  0
 39 40  1  0
 39 41  1  0
 39 42  1  0
 42 43  1  0
 42 44  1  0
 42 45  1  0
 45 46  1  0
 46 47  1  0
 46 48  1  0
 46 49  1  0
 35 50  2  0
 50 51  1  0
 26 52  1  0
 52 53  2  0
  8  3  2  0
 53 10  1  0
 53 14  1  0
 22 17  1  0
 50 28  1  0
M  CHG  5   4  -1   7  -1   9  -1  25  -1  38  -1
M  END
>  <UniqueID>  (64) 
60

>  <SMILES>  (64) 
COCC[N-]C(=O)c1cccc(N=c2nc3/c(=C/c4[n-]c(=O)[n-]c4[O-])cnn3c(=NC3CC3)[n-]2)c1

>  <Energy>  (64) 
408.52050434321063

>  <Genealogy>  (64) 
COCC[N-]C(=O)c1cccc(N=c2nc3c(=Cc4[n-]c(=O)[n-]c4[O-])cnn3c(=NC3CC3)[n-]2)c1 (protonated)
COCC[N-]C(=O)c1cccc(N=c2nc3/c(=C/c4[n-]c(=O)[n-]c4[O-])cnn3c(=NC3CC3)[n-]2)c1 (cis-trans isomerization)
COCC[N-]C(=O)c1cccc(N=c2nc3/c(=C/c4[n-]c(=O)[n-]c4[O-])cnn3c(=NC3CC3)[n-]2)c1 (3D coordinates assigned)
COCC[N-]C(=O)c1cccc(N=c2nc3/c(=C/c4[n-]c(=O)[n-]c4[O-])cnn3c(=NC3CC3)[n-]2)c1 (nonaromatic ring conformer: 408.52050434321063 kcal/mol)

>  <smiles>  (64) 
COCCNC(=O)c1cccc(N=c2nc3c(=Cc4[nH]c(=O)[nH]c4O)cnn3c(=NC3CC3)[nH]2)c1

>  <score_type>  (64) 
oracle

>  <origin>  (64) 
adg

>  <m_score__min__energy>  (64) 
-19.879999999999999

>  <m_primary>  (64) 
energy

$$$$
64:0
     RDKit          3D

 26 27  0  0  0  0  0  0  0  0999 V2000
   55.3950   30.1970   43.2300 O   0  0  0  0  0  0  0  0  0  0  0  0
   56.5440   29.6470   44.0280 S   0  0  0  0  0  0  0  0  0  0  0  0
   57.4610   28.8880   43.1100 O   0  0  0  0  0  0  0  0  0  0  0  0
   55.9280   28.5640   45.2340 N   0  0  0  0  0  0  0  0  0  0  0  0
   56.5780   27.3650   45.6810 C   0  0  0  0  0  0  0  0  0  0  0  0
   57.9800   27.2640   45.7660 C   0  0  0  0  0  0  0  0  0  0  0  0
   58.5750   26.0760   46.1990 C   0  0  0  0  0  0  0  0  0  0  0  0
   57.7820   24.9820   46.5520 C   0  0  0  0  0  0  0  0  0  0  0  0
   56.3910   25.0750   46.4750 C   0  0  0  0  0  0  0  0  0  0  0  0
   55.7890   26.2610   46.0410 C   0  0  0  0  0  0  0  0  0  0  0  0
   54.4030   26.3380   45.9680 O   0  0  0  0  0  0  0  0  0  0  0  0
   57.4520   30.9490   44.7900 C   0  0  0  0  0  0  0  0  0  0  0  0
   58.2210   30.7000   45.9370 C   0  0  0  0  0  0  0  0  0  0  0  0
   58.9470   31.7360   46.5330 C   0  0  0  0  0  0  0  0  0  0  0  0
   58.9050   33.0230   45.9900 C   0  0  0  0  0  0  0  0  0  0  0  0
   58.1360   33.2770   44.8510 C   0  0  0  0  0  0  0  0  0  0  0  0
   57.4080   32.2430   44.2530 C   0  0  0  0  0  0  0  0  0  0  0  0
   58.6091   28.1233   45.4906 H   0  0  0  0  0  0  0  0  0  0  0  0
   59.6707   26.0024   46.2620 H   0  0  0  0  0  0  0  0  0  0  0  0
   58.2531   24.0474   46.8906 H   0  0  0  0  0  0  0  0  0  0  0  0
   55.7670   24.2138   46.7562 H   0  0  0  0  0  0  0  0  0  0  0  0
   58.2528   29.6884   46.3680 H   0  0  0  0  0  0  0  0  0  0  0  0
   59.5518   31.5377   47.4302 H   0  0  0  0  0  0  0  0  0  0  0  0
   59.4775   33.8366   46.4594 H   0  0  0  0  0  0  0  0  0  0  0  0
   58.1032   34.2905   44.4246 H   0  0  0  0  0  0  0  0  0  0  0  0
   56.7996   32.4458   43.3593 H   0  0  0  0  0  0  0  0  0  0  0  0
  1  2  2  0
  2  3  2  0
  2  4  1  0
  4  5  1  0
  5  6  2  0
  6  7  1  0
  7  8  2  0
  8  9  1  0
  9 10  2  0
 10 11  1  0
  2 12  1  0
 12 13  2  0
 13 14  1  0
 14 15  2  0
 15 16  1  0
 16 17  2  0
 10  5  1  0
 17 12  1  0
  6 18  1  0
  7 19  1  0
  8 20  1  0
  9 21  1  0
 13 22  1  0
 14 23  1  0
 15 24  1  0
 16 25  1  0
 17 26  1  0
M  CHG  2   4  -1  11  -1
M  END
>  <UniqueID>  (65) 
61

>  <SMILES>  (65) 
O=S(=O)([N-]c1ccccc1[O-])c1ccccc1

>  <Energy>  (65) 
30.225728901676053

>  <Genealogy>  (65) 
O=S(=O)([N-]c1ccccc1[O-])c1ccccc1 (protonated)
O=S(=O)([N-]c1ccccc1[O-])c1ccccc1 (3D coordinates assigned)
O=S(=O)([N-]c1ccccc1[O-])c1ccccc1 (optimized conformer: 30.225728901676053 kcal/mol)

>  <smiles>  (65) 
O=S(=O)(Nc1ccccc1O)c1ccccc1

>  <score_type>  (65) 
oracle

>  <origin>  (65) 
adg

>  <m_score__min__energy>  (65) 
-12.74

>  <m_primary>  (65) 
energy

$$$$
65:0
     RDKit          3D

 50 53  0  0  0  0  0  0  0  0999 V2000
   56.7963   30.4739   41.6628 H   0  0  0  0  0  0  0  0  0  0  0  0
   57.0360   31.0480   42.5700 C   0  0  0  0  0  0  0  0  0  0  0  0
   58.0960   32.3510   42.6660 S   0  0  0  0  0  0  0  0  0  0  0  0
   57.8800   32.5510   44.3180 C   0  0  0  0  0  0  0  0  0  0  0  0
   58.4690   33.4920   45.0010 N   0  0  0  0  0  0  0  0  0  0  0  0
   58.4710   33.6780   46.4240 C   0  0  0  0  0  0  0  0  0  0  0  0
   57.3960   33.8440   47.0620 O   0  0  0  0  0  0  0  0  0  0  0  0
   59.7410   33.5990   47.1600 C   0  0  0  0  0  0  0  0  0  0  0  0
   60.7810   32.7160   46.8730 C   0  0  0  0  0  0  0  0  0  0  0  0
   60.8211   31.9662   46.0691 H   0  0  0  0  0  0  0  0  0  0  0  0
   61.7480   32.9880   47.8170 C   0  0  0  0  0  0  0  0  0  0  0  0
   63.0060   32.4190   48.0150 C   0  0  0  0  0  0  0  0  0  0  0  0
   63.3728   31.6150   47.3600 H   0  0  0  0  0  0  0  0  0  0  0  0
   63.7970   32.9060   49.0830 C   0  0  0  0  0  0  0  0  0  0  0  0
   65.0690   32.3870   49.3700 O   0  0  0  0  0  0  0  0  0  0  0  0
   65.9990   32.9930   50.2620 C   0  0  0  0  0  0  0  0  0  0  0  0
   65.6942   32.7944   51.3001 H   0  0  0  0  0  0  0  0  0  0  0  0
   67.0009   32.5739   50.0875 H   0  0  0  0  0  0  0  0  0  0  0  0
   66.0203   34.0789   50.0875 H   0  0  0  0  0  0  0  0  0  0  0  0
   63.2990   33.9490   49.9010 C   0  0  0  0  0  0  0  0  0  0  0  0
   63.9156   34.3305   50.7282 H   0  0  0  0  0  0  0  0  0  0  0  0
   62.0260   34.5050   49.6710 C   0  0  0  0  0  0  0  0  0  0  0  0
   61.6374   35.3158   50.3048 H   0  0  0  0  0  0  0  0  0  0  0  0
   61.2750   33.9950   48.6150 C   0  0  0  0  0  0  0  0  0  0  0  0
   60.0460   34.3770   48.2250 N   0  0  0  0  0  0  0  0  0  0  0  0
   59.4550   35.1220   48.6580 H   0  0  0  0  0  0  0  0  0  0  0  0
   56.9920   31.6570   44.8110 N   0  0  0  0  0  0  0  0  0  0  0  0
   56.6900   31.5870   45.8060 H   0  0  0  0  0  0  0  0  0  0  0  0
   56.5160   30.8250   43.8420 C   0  0  0  0  0  0  0  0  0  0  0  0
   55.5360   29.7620   44.1220 C   0  0  0  0  0  0  0  0  0  0  0  0
   54.5360   29.6390   43.3680 O   0  0  0  0  0  0  0  0  0  0  0  0
   55.6740   28.8800   45.2440 N   0  0  0  0  0  0  0  0  0  0  0  0
   56.7980   27.9700   45.4420 C   0  0  0  0  0  0  0  0  0  0  0  0
   56.5778   27.2984   46.2849 H   0  0  0  0  0  0  0  0  0  0  0  0
   56.9508   27.3830   44.5244 H   0  0  0  0  0  0  0  0  0  0  0  0
   58.0790   28.7670   45.7480 C   0  0  0  0  0  0  0  0  0  0  0  0
   57.7867   29.8129   45.9228 H   0  0  0  0  0  0  0  0  0  0  0  0
   58.7670   28.2470   47.0290 C   0  0  0  0  0  0  0  0  0  0  0  0
   59.1706   29.1005   47.5935 H   0  0  0  0  0  0  0  0  0  0  0  0
   58.0244   27.7053   47.6333 H   0  0  0  0  0  0  0  0  0  0  0  0
   59.9140   27.2860   46.6800 C   0  0  0  0  0  0  0  0  0  0  0  0
   60.3526   26.9144   47.6178 H   0  0  0  0  0  0  0  0  0  0  0  0
   59.4819   26.4799   46.0689 H   0  0  0  0  0  0  0  0  0  0  0  0
   60.9480   27.8830   45.9070 O   0  0  0  0  0  0  0  0  0  0  0  0
   60.5030   28.9080   45.0240 C   0  0  0  0  0  0  0  0  0  0  0  0
   60.5862   29.8730   45.5454 H   0  0  0  0  0  0  0  0  0  0  0  0
   61.1388   28.8523   44.1281 H   0  0  0  0  0  0  0  0  0  0  0  0
   59.0530   28.7410   44.5480 C   0  0  0  0  0  0  0  0  0  0  0  0
   58.8015   29.5621   43.8606 H   0  0  0  0  0  0  0  0  0  0  0  0
   58.9578   27.7724   44.0354 H   0  0  0  0  0  0  0  0  0  0  0  0
  1  2  1  0
  2  3  1  0
  3  4  1  0
  4  5  2  0
  5  6  1  0
  6  7  2  0
  6  8  1  0
  8  9  2  0
  9 10  1  0
  9 11  1  0
 11 12  2  0
 12 13  1  0
 12 14  1  0
 14 15  1  0
 15 16  1  0
 16 17  1  0
 16 18  1  0
 16 19  1  0
 14 20  2  0
 20 21  1  0
 20 22  1  0
 22 23  1  0
 22 24  2  0
 24 25  1  0
 25 26  1  0
  4 27  1  0
 27 28  1  0
 27 29  1  0
 29 30  1  0
 30 31  2  0
 30 32  1  0
 32 33  1  0
 33 34  1  0
 33 35  1  0
 33 36  1  0
 36 37  1  0
 36 38  1  0
 38 39  1  0
 38 40  1  0
 38 41  1  0
 41 42  1  0
 41 43  1  0
 41 44  1  0
 44 45  1  0
 45 46  1  0
 45 47  1  0
 45 48  1  0
 48 49  1  0
 48 50  1  0
 29  2  2  0
 48 36  1  0
 25  8  1  0
 24 11  1  0
M  CHG  1  32  -1
M  END
>  <UniqueID>  (66) 
62

>  <SMILES>  (66) 
COc1ccc2[nH]c(C(=O)/N=c3\[nH]c(C(=O)[N-]CC4CCOCC4)cs3)cc2c1

>  <Energy>  (66) 
130.27948832775985

>  <Genealogy>  (66) 
COc1ccc2[nH]c(C(=O)N=c3[nH]c(C(=O)[N-]CC4CCOCC4)cs3)cc2c1 (protonated)
COc1ccc2[nH]c(C(=O)/N=c3\[nH]c(C(=O)[N-]CC4CCOCC4)cs3)cc2c1 (cis-trans isomerization)
COc1ccc2[nH]c(C(=O)/N=c3\[nH]c(C(=O)[N-]CC4CCOCC4)cs3)cc2c1 (3D coordinates assigned)
COc1ccc2[nH]c(C(=O)/N=c3\[nH]c(C(=O)[N-]CC4CCOCC4)cs3)cc2c1 (nonaromatic ring conformer: 130.27948832775985 kcal/mol)

>  <smiles>  (66) 
COc1ccc2[nH]c(C(=O)N=c3[nH]c(C(=O)NCC4CCOCC4)cs3)cc2c1

>  <score_type>  (66) 
oracle

>  <origin>  (66) 
adg

>  <m_score__min__energy>  (66) 
-11.27

>  <m_primary>  (66) 
energy

$$$$
66:0
     RDKit          3D

 62 64  0  0  0  0  0  0  0  0999 V2000
   62.1950   30.8420   49.5770 C   0  0  0  0  0  0  0  0  0  0  0  0
   60.9430   31.6870   49.6940 C   0  0  0  0  0  0  0  0  0  0  0  0
   60.8750   32.9890   49.1280 C   0  0  0  0  0  0  0  0  0  0  0  0
   62.0010   33.5770   48.2950 C   0  0  0  0  0  0  0  0  0  0  0  0
   61.5530   33.8720   46.8920 C   0  0  0  0  0  0  0  0  0  0  0  0
   62.4060   34.2190   46.0280 O   0  0  0  0  0  0  0  0  0  0  0  0
   60.1570   33.8470   46.5550 N   0  0  0  0  0  0  0  0  0  0  0  0
   59.6460   34.4420   45.3200 C   0  0  0  0  0  0  0  0  0  0  0  0
   58.2050   33.9890   45.0360 C   0  0  0  0  0  0  0  0  0  0  0  0
   58.0910   33.1020   43.7870 C   0  0  0  0  0  0  0  0  0  0  0  0
   57.6370   31.7340   44.1250 N   0  0  0  0  0  0  0  0  0  0  0  0
   57.0260   31.0300   42.9760 C   0  0  0  0  0  0  0  0  0  0  0  0
   56.1690   29.8640   43.4810 C   0  0  0  0  0  0  0  0  0  0  0  0
   55.7120   30.0910   44.8510 N   0  0  0  0  0  0  0  0  0  0  0  0
   58.6540   30.9240   44.8380 C   0  0  0  0  0  0  0  0  0  0  0  0
   58.3520   30.6610   46.3020 C   0  0  0  0  0  0  0  0  0  0  0  0
   58.8430   31.4040   47.1940 O   0  0  0  0  0  0  0  0  0  0  0  0
   57.6520   29.4790   46.7110 N   0  0  0  0  0  0  0  0  0  0  0  0
   58.0890   28.1350   46.4850 C   0  0  0  0  0  0  0  0  0  0  0  0
   59.3940   27.7730   46.8380 C   0  0  0  0  0  0  0  0  0  0  0  0
   59.8350   26.4580   46.6540 C   0  0  0  0  0  0  0  0  0  0  0  0
   58.9720   25.4990   46.1180 C   0  0  0  0  0  0  0  0  0  0  0  0
   59.4040   24.2260   45.9380 F   0  0  0  0  0  0  0  0  0  0  0  0
   57.6580   25.8470   45.7880 C   0  0  0  0  0  0  0  0  0  0  0  0
   56.8150   24.9090   45.2890 F   0  0  0  0  0  0  0  0  0  0  0  0
   57.2080   27.1560   45.9910 C   0  0  0  0  0  0  0  0  0  0  0  0
   55.9100   27.4610   45.7490 F   0  0  0  0  0  0  0  0  0  0  0  0
   59.7160   33.7590   49.3620 C   0  0  0  0  0  0  0  0  0  0  0  0
   59.6330   34.9390   48.9290 O   0  0  0  0  0  0  0  0  0  0  0  0
   58.6920   33.2570   50.0390 O   0  0  0  0  0  0  0  0  0  0  0  0
   58.6790   32.0240   50.5210 C   0  0  0  0  0  0  0  0  0  0  0  0
   57.5400   31.5690   51.1930 C   0  0  0  0  0  0  0  0  0  0  0  0
   57.4890   30.2650   51.6910 C   0  0  0  0  0  0  0  0  0  0  0  0
   56.3540   29.8200   52.3590 O   0  0  0  0  0  0  0  0  0  0  0  0
   58.5760   29.4090   51.5140 C   0  0  0  0  0  0  0  0  0  0  0  0
   59.7240   29.8540   50.8510 C   0  0  0  0  0  0  0  0  0  0  0  0
   59.8000   31.1760   50.3570 C   0  0  0  0  0  0  0  0  0  0  0  0
   62.5644   30.5927   50.5827 H   0  0  0  0  0  0  0  0  0  0  0  0
   61.9624   29.9154   49.0317 H   0  0  0  0  0  0  0  0  0  0  0  0
   62.9673   31.4043   49.0317 H   0  0  0  0  0  0  0  0  0  0  0  0
   62.3427   34.5111   48.7648 H   0  0  0  0  0  0  0  0  0  0  0  0
   62.8165   32.8402   48.2487 H   0  0  0  0  0  0  0  0  0  0  0  0
   59.4680   33.5250   47.2710 H   0  0  0  0  0  0  0  0  0  0  0  0
   59.6648   35.5377   45.4157 H   0  0  0  0  0  0  0  0  0  0  0  0
   60.2839   34.1130   44.4864 H   0  0  0  0  0  0  0  0  0  0  0  0
   57.8383   33.4214   45.9039 H   0  0  0  0  0  0  0  0  0  0  0  0
   57.6052   34.8930   44.8541 H   0  0  0  0  0  0  0  0  0  0  0  0
   57.3686   33.5557   43.0926 H   0  0  0  0  0  0  0  0  0  0  0  0
   59.0876   33.0282   43.3274 H   0  0  0  0  0  0  0  0  0  0  0  0
   56.3935   31.7312   42.4119 H   0  0  0  0  0  0  0  0  0  0  0  0
   57.8208   30.6415   42.3223 H   0  0  0  0  0  0  0  0  0  0  0  0
   55.2927   29.7538   42.8252 H   0  0  0  0  0  0  0  0  0  0  0  0
   56.7839   28.9520   43.4682 H   0  0  0  0  0  0  0  0  0  0  0  0
   55.9170   29.2370   45.4200 H   0  0  0  0  0  0  0  0  0  0  0  0
   56.2520   30.8860   45.2600 H   0  0  0  0  0  0  0  0  0  0  0  0
   58.7372   29.9535   44.3269 H   0  0  0  0  0  0  0  0  0  0  0  0
   59.5848   31.5098   44.8161 H   0  0  0  0  0  0  0  0  0  0  0  0
   60.0756   28.5252   47.2617 H   0  0  0  0  0  0  0  0  0  0  0  0
   60.8622   26.1790   46.9316 H   0  0  0  0  0  0  0  0  0  0  0  0
   56.6802   32.2413   51.3300 H   0  0  0  0  0  0  0  0  0  0  0  0
   58.5300   28.3791   51.8977 H   0  0  0  0  0  0  0  0  0  0  0  0
   60.5743   29.1700   50.7129 H   0  0  0  0  0  0  0  0  0  0  0  0
  1  2  1  0
  2  3  2  0
  3  4  1  0
  4  5  1  0
  5  6  2  0
  5  7  1  0
  7  8  1  0
  8  9  1  0
  9 10  1  0
 10 11  1  0
 11 12  1  0
 12 13  1  0
 13 14  1  0
 11 15  1  0
 15 16  1  0
 16 17  2  0
 16 18  1  0
 18 19  1  0
 19 20  2  0
 20 21  1  0
 21 22  2  0
 22 23  1  0
 22 24  1  0
 24 25  1  0
 24 26  2  0
 26 27  1  0
  3 28  1  0
 28 29  2  0
 28 30  1  0
 30 31  1  0
 31 32  2  0
 32 33  1  0
 33 34  1  0
 33 35  2  0
 35 36  1  0
 36 37  2  0
 37  2  1  0
 26 19  1  0
 37 31  1  0
  1 38  1  0
  1 39  1  0
  1 40  1  0
  4 41  1  0
  4 42  1  0
  7 43  1  0
  8 44  1  0
  8 45  1  0
  9 46  1  0
  9 47  1  0
 10 48  1  0
 10 49  1  0
 12 50  1  0
 12 51  1  0
 13 52  1  0
 13 53  1  0
 14 54  1  0
 14 55  1  0
 15 56  1  0
 15 57  1  0
 20 58  1  0
 21 59  1  0
 32 60  1  0
 35 61  1  0
 36 62  1  0
M  CHG  2  18  -1  34  -1
M  END
>  <UniqueID>  (67) 
63

>  <SMILES>  (67) 
Cc1c(CC(=O)NCCCN(CCN)CC(=O)[N-]c2ccc(F)c(F)c2F)c(=O)oc2cc([O-])ccc12

>  <Energy>  (67) 
71.50293676986571

>  <Genealogy>  (67) 
Cc1c(CC(=O)NCCCN(CCN)CC(=O)[N-]c2ccc(F)c(F)c2F)c(=O)oc2cc([O-])ccc12 (protonated)
Cc1c(CC(=O)NCCCN(CCN)CC(=O)[N-]c2ccc(F)c(F)c2F)c(=O)oc2cc([O-])ccc12 (3D coordinates assigned)
Cc1c(CC(=O)NCCCN(CCN)CC(=O)[N-]c2ccc(F)c(F)c2F)c(=O)oc2cc([O-])ccc12 (optimized conformer: 71.50293676986571 kcal/mol)

>  <smiles>  (67) 
Cc1c(CC(=O)NCCCN(CCN)CC(=O)Nc2ccc(F)c(F)c2F)c(=O)oc2cc(O)ccc12

>  <score_type>  (67) 
oracle

>  <origin>  (67) 
adg

>  <m_score__min__energy>  (67) 
-12.09

>  <m_primary>  (67) 
energy

$$$$
67:0
     RDKit          3D

 37 39  0  0  0  0  0  0  0  0999 V2000
   58.8480   31.0750   49.5140 C   0  0  0  0  0  0  0  0  0  0  0  0
   59.0290   32.2010   48.5390 C   0  0  0  0  0  0  0  0  0  0  0  0
   59.9290   33.2360   48.8160 C   0  0  0  0  0  0  0  0  0  0  0  0
   60.1190   34.2670   47.8950 C   0  0  0  0  0  0  0  0  0  0  0  0
   59.4220   34.2790   46.6750 C   0  0  0  0  0  0  0  0  0  0  0  0
   59.6620   35.4110   45.7130 C   0  0  0  0  0  0  0  0  0  0  0  0
   58.5490   33.2060   46.3660 C   0  0  0  0  0  0  0  0  0  0  0  0
   57.6790   33.1170   44.8240 S   0  0  0  0  0  0  0  0  0  0  0  0
   56.8070   34.3320   44.6890 O   0  0  0  0  0  0  0  0  0  0  0  0
   58.6390   33.0690   43.6680 O   0  0  0  0  0  0  0  0  0  0  0  0
   56.6720   31.7040   44.7620 N   0  0  0  0  0  0  0  0  0  0  0  0
   57.1360   30.3520   44.8760 C   0  0  0  0  0  0  0  0  0  0  0  0
   58.4810   30.0010   44.6530 C   0  0  0  0  0  0  0  0  0  0  0  0
   58.8980   28.6720   44.7880 C   0  0  0  0  0  0  0  0  0  0  0  0
   57.9760   27.6800   45.1460 C   0  0  0  0  0  0  0  0  0  0  0  0
   58.3590   26.3780   45.2840 N   0  0  0  0  0  0  0  0  0  0  0  0
   57.4610   25.4180   45.6330 C   0  0  0  0  0  0  0  0  0  0  0  0
   56.1240   25.7680   45.8530 C   0  0  0  0  0  0  0  0  0  0  0  0
   55.2820   24.8900   46.1770 O   0  0  0  0  0  0  0  0  0  0  0  0
   55.7380   27.0630   45.7180 N   0  0  0  0  0  0  0  0  0  0  0  0
   56.6280   28.0280   45.3690 C   0  0  0  0  0  0  0  0  0  0  0  0
   56.2150   29.3590   45.2340 C   0  0  0  0  0  0  0  0  0  0  0  0
   58.3520   32.1850   47.3120 C   0  0  0  0  0  0  0  0  0  0  0  0
   58.9107   31.4652   50.5405 H   0  0  0  0  0  0  0  0  0  0  0  0
   57.8635   30.6097   49.3581 H   0  0  0  0  0  0  0  0  0  0  0  0
   59.6371   30.3246   49.3581 H   0  0  0  0  0  0  0  0  0  0  0  0
   60.4887   33.2369   49.7630 H   0  0  0  0  0  0  0  0  0  0  0  0
   60.8228   35.0800   48.1268 H   0  0  0  0  0  0  0  0  0  0  0  0
   59.8580   36.3354   46.2761 H   0  0  0  0  0  0  0  0  0  0  0  0
   60.5303   35.1763   45.0798 H   0  0  0  0  0  0  0  0  0  0  0  0
   58.7731   35.5488   45.0798 H   0  0  0  0  0  0  0  0  0  0  0  0
   59.2086   30.7762   44.3709 H   0  0  0  0  0  0  0  0  0  0  0  0
   59.9509   28.4060   44.6128 H   0  0  0  0  0  0  0  0  0  0  0  0
   59.3540   26.1000   45.1230 H   0  0  0  0  0  0  0  0  0  0  0  0
   57.7839   24.3721   45.7418 H   0  0  0  0  0  0  0  0  0  0  0  0
   55.1625   29.6262   45.4099 H   0  0  0  0  0  0  0  0  0  0  0  0
   57.6573   31.3626   47.0862 H   0  0  0  0  0  0  0  0  0  0  0  0
  1  2  1  0
  2  3  2  0
  3  4  1  0
  4  5  2  0
  5  6  1  0
  5  7  1  0
  7  8  1  0
  8  9  2  0
  8 10  2  0
  8 11  1  0
 11 12  1  0
 12 13  2  0
 13 14  1  0
 14 15  2  0
 15 16  1  0
 16 17  2  0
 17 18  1  0
 18 19  2  0
 18 20  1  0
 20 21  1  0
 21 22  2  0
  7 23  2  0
 23  2  1  0
 22 12  1  0
 21 15  1  0
  1 24  1  0
  1 25  1  0
  1 26  1  0
  3 27  1  0
  4 28  1  0
  6 29  1  0
  6 30  1  0
  6 31  1  0
 13 32  1  0
 14 33  1  0
 16 34  1  0
 17 35  1  0
 22 36  1  0
 23 37  1  0
M  CHG  3  11  -1  16   1  20  -1
M  END
>  <UniqueID>  (68) 
64

>  <SMILES>  (68) 
Cc1ccc(C)c(S(=O)(=O)[N-]c2ccc3[nH+]cc(=O)[n-]c3c2)c1

>  <Energy>  (68) 
47.06997451266758

>  <Genealogy>  (68) 
Cc1ccc(C)c(S(=O)(=O)[N-]c2ccc3[nH+]cc(=O)[n-]c3c2)c1 (protonated)
Cc1ccc(C)c(S(=O)(=O)[N-]c2ccc3[nH+]cc(=O)[n-]c3c2)c1 (3D coordinates assigned)
Cc1ccc(C)c(S(=O)(=O)[N-]c2ccc3[nH+]cc(=O)[n-]c3c2)c1 (optimized conformer: 47.06997451266758 kcal/mol)

>  <smiles>  (68) 
Cc1ccc(C)c(S(=O)(=O)Nc2ccc3ncc(=O)[nH]c3c2)c1

>  <score_type>  (68) 
oracle

>  <origin>  (68) 
adg

>  <m_score__min__energy>  (68) 
-9.8499999999999996

>  <m_primary>  (68) 
energy

$$$$
68:0
     RDKit          3D

 55 58  0  0  1  0  0  0  0  0999 V2000
   54.0400   30.5170   51.6160 C   0  0  0  0  0  0  0  0  0  0  0  0
   55.1130   31.1740   52.0230 C   0  0  0  0  0  0  0  0  0  0  0  0
   56.4700   30.8220   51.6570 C   0  0  0  0  0  0  0  0  0  0  0  0
   56.9820   29.7240   51.9750 O   0  0  0  0  0  0  0  0  0  0  0  0
   57.2740   31.7400   50.9080 N   0  0  0  0  0  0  0  0  0  0  0  0
   58.6270   31.4130   50.5330 C   0  0  0  0  0  0  0  0  0  0  0  0
   59.6520   32.0900   51.1530 C   0  0  0  0  0  0  0  0  0  0  0  0
   60.9360   31.7650   50.7830 C   0  0  0  0  0  0  0  0  0  0  0  0
   61.1630   30.7990   49.8280 C   0  0  0  0  0  0  0  0  0  0  0  0
   60.1630   30.0990   49.1830 C   0  0  0  0  0  0  0  0  0  0  0  0
   60.4120   29.0600   48.1460 C   0  0  0  0  0  0  0  0  0  0  0  0
   56.4690   30.4380   44.8370 N   0  0  0  0  0  0  0  0  0  0  0  0
   57.1150   29.3990   45.2490 C   0  0  0  0  0  0  0  0  0  0  0  0
   57.8950   29.3950   46.3460 N   0  0  0  0  0  0  0  0  0  0  0  0
   58.5490   28.3170   46.7530 C   0  0  0  0  0  0  0  0  0  0  0  0
   59.2840   28.3050   47.7800 N   0  0  0  0  0  0  0  0  0  0  0  0
   57.2240   31.6060   44.5280 C   0  0  0  0  0  0  0  0  0  0  0  0
   57.7590   31.8940   43.2660 C   0  0  0  0  0  0  0  0  0  0  0  0
   58.3990   33.0740   43.3620 N   0  0  0  0  0  0  0  0  0  0  0  0
   58.2890   33.5340   44.6190 N   0  0  0  0  0  0  0  0  0  0  0  0
   58.8880   34.8060   45.0340 C   0  0  0  0  0  0  0  0  0  0  0  0
   59.6780   34.5130   46.2570 C   0  0  0  0  0  0  0  0  0  0  0  0
   60.8990   33.8650   46.1330 C   0  0  0  0  0  0  0  0  0  0  0  0
   61.6760   33.5670   47.2270 C   0  0  0  0  0  0  0  0  0  0  0  0
   61.2220   33.9270   48.4800 C   0  0  0  0  0  0  0  0  0  0  0  0
   60.0130   34.5740   48.6600 C   0  0  0  0  0  0  0  0  0  0  0  0
   59.2710   34.8500   47.5250 C   0  0  0  0  0  0  0  0  0  0  0  0
   57.5810   32.6610   45.3440 C   0  0  0  0  0  0  0  0  0  0  0  0
   56.9750   28.2770   44.5150 N   0  0  0  0  0  0  0  0  0  0  0  0
   57.6340   27.1800   44.9170 C   0  0  0  0  0  0  0  0  0  0  0  0
   58.4250   27.1600   46.0220 C   0  0  0  0  0  0  0  0  0  0  0  0
   59.2390   25.7130   46.4730 Cl  0  0  0  0  0  0  0  0  0  0  0  0
   58.8700   30.4320   49.5620 C   0  0  0  0  0  0  0  0  0  0  0  0
   53.0400   30.8446   51.9365 H   0  0  0  0  0  0  0  0  0  0  0  0
   54.1474   29.6429   50.9569 H   0  0  0  0  0  0  0  0  0  0  0  0
   54.9660   32.0430   52.6812 H   0  0  0  0  0  0  0  0  0  0  0  0
   56.9400   32.6680   50.6000 H   0  0  0  0  0  0  0  0  0  0  0  0
   59.4526   32.8595   51.9133 H   0  0  0  0  0  0  0  0  0  0  0  0
   61.7871   32.2798   51.2528 H   0  0  0  0  0  0  0  0  0  0  0  0
   62.2059   30.5710   49.5626 H   0  0  0  0  0  0  0  0  0  0  0  0
   60.7941   29.5618   47.2448 H   0  0  0  0  0  0  0  0  0  0  0  0
   61.1277   28.3504   48.5867 H   0  0  0  0  0  0  0  0  0  0  0  0
   57.9930   30.2680   46.9040 H   0  0  0  0  0  0  0  0  0  0  0  0
   57.6721   31.2711   42.3635 H   0  0  0  0  0  0  0  0  0  0  0  0
   59.5434   35.1955   44.2410 H   0  0  0  0  0  0  0  0  0  0  0  0
   58.1179   35.5673   45.2273 H   0  0  0  0  0  0  0  0  0  0  0  0
   61.2548   33.5820   45.1314 H   0  0  0  0  0  0  0  0  0  0  0  0
   62.6404   33.0519   47.1065 H   0  0  0  0  0  0  0  0  0  0  0  0
   61.8391   33.6927   49.3599 H   0  0  0  0  0  0  0  0  0  0  0  0
   59.6568   34.8568   49.6616 H   0  0  0  0  0  0  0  0  0  0  0  0
   58.3065   35.3653   47.6442 H   0  0  0  0  0  0  0  0  0  0  0  0
   57.3265   32.7657   46.4090 H   0  0  0  0  0  0  0  0  0  0  0  0
   56.3590   28.2840   43.6500 H   0  0  0  0  0  0  0  0  0  0  0  0
   57.5298   26.2573   44.3272 H   0  0  0  0  0  0  0  0  0  0  0  0
   58.0200   29.9163   49.0914 H   0  0  0  0  0  0  0  0  0  0  0  0
  1  2  2  0
  2  3  1  0
  3  4  2  0
  3  5  1  0
  5  6  1  0
  6  7  2  0
  7  8  1  0
  8  9  2  0
  9 10  1  0
 10 11  1  0
 11 12  1  0
 12 13  2  0
 13 14  1  0
 14 15  1  0
 15 16  2  0
 16 17  1  0
 17 18  1  0
 18 19  2  0
 19 20  1  0
 20 21  1  0
 21 22  1  0
 22 23  2  0
 23 24  1  0
 24 25  2  0
 25 26  1  0
 26 27  2  0
 20 28  1  0
 15 29  1  0
 29 30  1  0
 30 31  2  0
 31 32  1  0
 10 33  2  0
 33  6  1  0
 31 13  1  0
 28 17  2  0
 27 22  1  0
  1 34  1  0
  1 35  1  0
  2 36  1  0
  5 37  1  0
  7 38  1  0
  8 39  1  0
  9 40  1  0
 11 41  1  0
 11 42  1  0
 14 43  1  0
 18 44  1  0
 21 45  1  0
 21 46  1  0
 23 47  1  0
 24 48  1  0
 25 49  1  0
 26 50  1  0
 27 51  1  0
 28 52  1  0
 29 53  1  0
 30 54  1  0
 33 55  1  0
M  END
>  <smiles>  (69) 
C=CC(=O)Nc1cccc(CN=c2[nH]c(=Nc3cnn(Cc4ccccc4)c3)[nH]cc2Cl)c1

>  <score_type>  (69) 
oracle

>  <origin>  (69) 
adg

>  <m_score__min__energy>  (69) 
-9.5700000000000003

>  <m_primary>  (69) 
energy

$$$$
69:0
     RDKit          3D

 24 25  0  0  0  0  0  0  0  0999 V2000
   54.4404   24.5028   45.9066 H   0  0  0  0  0  0  0  0  0  0  0  0
   55.3470   25.0880   45.6930 C   0  0  0  0  0  0  0  0  0  0  0  0
   55.4520   26.4090   46.0000 N   0  0  0  0  0  0  0  0  0  0  0  0
   56.6580   26.9010   45.6400 C   0  0  0  0  0  0  0  0  0  0  0  0
   57.0200   28.1340   45.8190 N   0  0  0  0  0  0  0  0  0  0  0  0
   56.6710   29.3970   44.6860 S   0  0  0  0  0  0  0  0  0  0  0  0
   57.1410   28.9990   43.3150 O   0  0  0  0  0  0  0  0  0  0  0  0
   55.1900   29.6500   44.6440 O   0  0  0  0  0  0  0  0  0  0  0  0
   57.5060   30.8620   45.1910 C   0  0  0  0  0  0  0  0  0  0  0  0
   58.7260   30.7780   45.8740 C   0  0  0  0  0  0  0  0  0  0  0  0
   59.1585   29.7935   46.1055 H   0  0  0  0  0  0  0  0  0  0  0  0
   59.3950   31.9420   46.2620 C   0  0  0  0  0  0  0  0  0  0  0  0
   60.3511   31.8708   46.8013 H   0  0  0  0  0  0  0  0  0  0  0  0
   58.8530   33.1970   45.9670 C   0  0  0  0  0  0  0  0  0  0  0  0
   59.5170   34.3160   46.3520 F   0  0  0  0  0  0  0  0  0  0  0  0
   57.6330   33.2910   45.2760 C   0  0  0  0  0  0  0  0  0  0  0  0
   57.0730   34.5700   44.9630 N   0  0  0  0  0  0  0  0  0  0  0  0
   56.3270   34.9870   45.5640 H   0  0  0  0  0  0  0  0  0  0  0  0
   57.3960   35.1130   44.1310 H   0  0  0  0  0  0  0  0  0  0  0  0
   56.9660   32.1190   44.8870 C   0  0  0  0  0  0  0  0  0  0  0  0
   56.0139   32.1874   44.3404 H   0  0  0  0  0  0  0  0  0  0  0  0
   57.6360   25.7350   44.9340 S   0  0  0  0  0  0  0  0  0  0  0  0
   56.4700   24.5310   45.0890 C   0  0  0  0  0  0  0  0  0  0  0  0
   56.5773   23.4843   44.7681 H   0  0  0  0  0  0  0  0  0  0  0  0
  1  2  1  0
  2  3  1  0
  3  4  1  0
  4  5  2  0
  5  6  1  0
  6  7  2  0
  6  8  2  0
  6  9  1  0
  9 10  2  0
 10 11  1  0
 10 12  1  0
 12 13  1  0
 12 14  2  0
 14 15  1  0
 14 16  1  0
 16 17  1  0
 17 18  1  0
 17 19  1  0
 16 20  2  0
 20 21  1  0
  4 22  1  0
 22 23  1  0
 23 24  1  0
 23  2  2  0
 20  9  1  0
M  CHG  1   3  -1
M  END
>  <UniqueID>  (70) 
65

>  <SMILES>  (70) 
Nc1cc(S(=O)(=O)/N=c2\[n-]ccs2)ccc1F

>  <Energy>  (70) 
57.539040003629644

>  <Genealogy>  (70) 
Nc1cc(S(=O)(=O)N=c2[n-]ccs2)ccc1F (protonated)
Nc1cc(S(=O)(=O)/N=c2\[n-]ccs2)ccc1F (cis-trans isomerization)
Nc1cc(S(=O)(=O)/N=c2\[n-]ccs2)ccc1F (3D coordinates assigned)
Nc1cc(S(=O)(=O)/N=c2\[n-]ccs2)ccc1F (optimized conformer: 57.539040003629644 kcal/mol)

>  <smiles>  (70) 
Nc1cc(S(=O)(=O)N=c2[nH]ccs2)ccc1F

>  <score_type>  (70) 
oracle

>  <origin>  (70) 
adg

>  <m_score__min__energy>  (70) 
-8.3900000000000006

>  <m_primary>  (70) 
energy

$$$$
70:0
     RDKit          3D

 49 51  0  0  0  0  0  0  0  0999 V2000
   59.3070   28.2050   48.3650 C   0  0  0  0  0  0  0  0  0  0  0  0
   58.7630   28.6740   47.0360 C   0  0  0  0  0  0  0  0  0  0  0  0
   57.8100   27.8810   46.3580 C   0  0  0  0  0  0  0  0  0  0  0  0
   57.3740   26.6470   46.9520 N   0  0  0  0  0  0  0  0  0  0  0  0
   56.2050   25.5480   46.2920 S   0  0  0  0  0  0  0  0  0  0  0  0
   56.8190   24.8400   44.7780 C   0  0  0  0  0  0  0  0  0  0  0  0
   54.9450   26.3080   45.9920 O   0  0  0  0  0  0  0  0  0  0  0  0
   55.8920   24.4680   47.2890 O   0  0  0  0  0  0  0  0  0  0  0  0
   57.3090   28.3120   45.1160 C   0  0  0  0  0  0  0  0  0  0  0  0
   57.7350   29.5160   44.5590 C   0  0  0  0  0  0  0  0  0  0  0  0
   58.6550   30.3120   45.2350 C   0  0  0  0  0  0  0  0  0  0  0  0
   59.1680   29.9100   46.4760 C   0  0  0  0  0  0  0  0  0  0  0  0
   60.0840   30.7800   47.1630 N   0  0  0  0  0  0  0  0  0  0  0  0
   59.5640   31.9800   47.8330 C   0  0  0  0  0  0  0  0  0  0  0  0
   58.9720   32.9250   46.8250 C   0  0  0  0  0  0  0  0  0  0  0  0
   59.8040   33.7190   46.0180 C   0  0  0  0  0  0  0  0  0  0  0  0
   59.2510   34.5650   45.0520 C   0  0  0  0  0  0  0  0  0  0  0  0
   57.8650   34.6170   44.8780 C   0  0  0  0  0  0  0  0  0  0  0  0
   57.0300   33.8250   45.6710 C   0  0  0  0  0  0  0  0  0  0  0  0
   57.5800   32.9790   46.6400 C   0  0  0  0  0  0  0  0  0  0  0  0
   61.5280   30.6250   46.9440 C   0  0  0  0  0  0  0  0  0  0  0  0
   62.2910   31.6700   47.7110 C   0  0  0  0  0  0  0  0  0  0  0  0
   62.7770   32.8170   47.0670 C   0  0  0  0  0  0  0  0  0  0  0  0
   63.4650   33.7820   47.8080 C   0  0  0  0  0  0  0  0  0  0  0  0
   63.6550   33.6090   49.1430 N   0  0  0  0  0  0  0  0  0  0  0  0
   63.1900   32.5090   49.7930 C   0  0  0  0  0  0  0  0  0  0  0  0
   62.4980   31.5200   49.0900 C   0  0  0  0  0  0  0  0  0  0  0  0
   58.7480   28.6869   49.1807 H   0  0  0  0  0  0  0  0  0  0  0  0
   59.1981   27.1130   48.4410 H   0  0  0  0  0  0  0  0  0  0  0  0
   60.3710   28.4735   48.4410 H   0  0  0  0  0  0  0  0  0  0  0  0
   57.5232   24.0280   45.0121 H   0  0  0  0  0  0  0  0  0  0  0  0
   55.9780   24.4389   44.1933 H   0  0  0  0  0  0  0  0  0  0  0  0
   57.3351   25.6157   44.1933 H   0  0  0  0  0  0  0  0  0  0  0  0
   56.5745   27.6930   44.5799 H   0  0  0  0  0  0  0  0  0  0  0  0
   57.3433   29.8381   43.5829 H   0  0  0  0  0  0  0  0  0  0  0  0
   58.9822   31.2642   44.7919 H   0  0  0  0  0  0  0  0  0  0  0  0
   58.7873   31.6852   48.5540 H   0  0  0  0  0  0  0  0  0  0  0  0
   60.3903   32.4850   48.3548 H   0  0  0  0  0  0  0  0  0  0  0  0
   60.8955   33.6748   46.1468 H   0  0  0  0  0  0  0  0  0  0  0  0
   59.9070   35.1901   44.4285 H   0  0  0  0  0  0  0  0  0  0  0  0
   57.4312   35.2817   44.1164 H   0  0  0  0  0  0  0  0  0  0  0  0
   55.9395   33.8669   45.5331 H   0  0  0  0  0  0  0  0  0  0  0  0
   56.9203   32.3537   47.2595 H   0  0  0  0  0  0  0  0  0  0  0  0
   61.8407   29.6264   47.2831 H   0  0  0  0  0  0  0  0  0  0  0  0
   61.7405   30.7443   45.8713 H   0  0  0  0  0  0  0  0  0  0  0  0
   62.6181   32.9561   45.9875 H   0  0  0  0  0  0  0  0  0  0  0  0
   63.8533   34.6828   47.3102 H   0  0  0  0  0  0  0  0  0  0  0  0
   63.3590   32.3977   50.8742 H   0  0  0  0  0  0  0  0  0  0  0  0
   62.1184   30.6304   49.6139 H   0  0  0  0  0  0  0  0  0  0  0  0
  1  2  1  0
  2  3  2  0
  3  4  1  0
  4  5  1  0
  5  6  1  0
  5  7  2  0
  5  8  2  0
  3  9  1  0
  9 10  2  0
 10 11  1  0
 11 12  2  0
 12 13  1  0
 13 14  1  0
 14 15  1  0
 15 16  2  0
 16 17  1  0
 17 18  2  0
 18 19  1  0
 19 20  2  0
 13 21  1  0
 21 22  1  0
 22 23  2  0
 23 24  1  0
 24 25  2  0
 25 26  1  0
 26 27  2  0
 12  2  1  0
 20 15  1  0
 27 22  1  0
  1 28  1  0
  1 29  1  0
  1 30  1  0
  6 31  1  0
  6 32  1  0
  6 33  1  0
  9 34  1  0
 10 35  1  0
 11 36  1  0
 14 37  1  0
 14 38  1  0
 16 39  1  0
 17 40  1  0
 18 41  1  0
 19 42  1  0
 20 43  1  0
 21 44  1  0
 21 45  1  0
 23 46  1  0
 24 47  1  0
 26 48  1  0
 27 49  1  0
M  CHG  1   4  -1
M  END
>  <UniqueID>  (71) 
66

>  <SMILES>  (71) 
Cc1c([N-]S(C)(=O)=O)cccc1N(Cc1ccccc1)Cc1ccncc1

>  <Energy>  (71) 
53.729625971975715

>  <Genealogy>  (71) 
Cc1c([N-]S(C)(=O)=O)cccc1N(Cc1ccccc1)Cc1ccncc1 (protonated)
Cc1c([N-]S(C)(=O)=O)cccc1N(Cc1ccccc1)Cc1ccncc1 (3D coordinates assigned)
Cc1c([N-]S(C)(=O)=O)cccc1N(Cc1ccccc1)Cc1ccncc1 (optimized conformer: 53.729625971975715 kcal/mol)

>  <smiles>  (71) 
Cc1c(NS(C)(=O)=O)cccc1N(Cc1ccccc1)Cc1ccncc1

>  <score_type>  (71) 
oracle

>  <origin>  (71) 
adg

>  <m_score__min__energy>  (71) 
-10.32

>  <m_primary>  (71) 
energy

$$$$
71:0
     RDKit          3D

 48 49  0  0  0  0  0  0  0  0999 V2000
   59.2630   30.3950   50.0040 C   0  0  0  0  0  0  0  0  0  0  0  0
   58.5460   30.9920   48.9490 O   0  0  0  0  0  0  0  0  0  0  0  0
   58.5160   32.3910   49.1360 C   0  0  0  0  0  0  0  0  0  0  0  0
   59.2590   33.0820   47.9910 C   0  0  0  0  0  0  0  0  0  0  0  0
   59.6980   32.1100   46.9790 N   0  0  0  0  0  0  0  0  0  0  0  0
   60.9770   31.4460   47.1080 C   0  0  0  0  0  0  0  0  0  0  0  0
   61.1290   30.2810   46.6490 O   0  0  0  0  0  0  0  0  0  0  0  0
   62.1320   32.1100   47.7480 C   0  0  0  0  0  0  0  0  0  0  0  0
   62.7020   31.5740   48.9140 C   0  0  0  0  0  0  0  0  0  0  0  0
   63.7950   32.2000   49.5180 C   0  0  0  0  0  0  0  0  0  0  0  0
   64.3250   33.3700   48.9670 C   0  0  0  0  0  0  0  0  0  0  0  0
   63.7690   33.9070   47.8030 C   0  0  0  0  0  0  0  0  0  0  0  0
   62.6820   33.2780   47.1880 C   0  0  0  0  0  0  0  0  0  0  0  0
   62.1480   33.8240   46.0650 F   0  0  0  0  0  0  0  0  0  0  0  0
   58.7800   31.7390   45.9260 C   0  0  0  0  0  0  0  0  0  0  0  0
   58.2780   30.4230   45.8120 C   0  0  0  0  0  0  0  0  0  0  0  0
   58.6290   29.4490   46.8160 N   0  0  0  0  0  0  0  0  0  0  0  0
   57.4420   30.0970   44.7640 N   0  0  0  0  0  0  0  0  0  0  0  0
   56.9210   28.7200   44.6030 C   0  0  0  0  0  0  0  0  0  0  0  0
   58.0490   27.7070   44.3240 C   0  0  0  0  0  0  0  0  0  0  0  0
   57.9540   26.4350   45.1780 C   0  0  0  0  0  0  0  0  0  0  0  0
   56.5870   26.1970   45.6560 C   0  0  0  0  0  0  0  0  0  0  0  0
   55.5100   26.0050   46.0350 N   0  0  0  0  0  0  0  0  0  0  0  0
   57.0820   31.0640   43.8540 C   0  0  0  0  0  0  0  0  0  0  0  0
   56.3070   30.7930   42.8960 O   0  0  0  0  0  0  0  0  0  0  0  0
   57.5600   32.3310   43.9670 N   0  0  0  0  0  0  0  0  0  0  0  0
   58.4020   32.6820   44.9670 C   0  0  0  0  0  0  0  0  0  0  0  0
   58.8540   33.8580   45.0150 O   0  0  0  0  0  0  0  0  0  0  0  0
   58.8527   30.7367   50.9657 H   0  0  0  0  0  0  0  0  0  0  0  0
   59.1735   29.3008   49.9351 H   0  0  0  0  0  0  0  0  0  0  0  0
   60.3229   30.6812   49.9351 H   0  0  0  0  0  0  0  0  0  0  0  0
   57.4713   32.7349   49.1538 H   0  0  0  0  0  0  0  0  0  0  0  0
   59.0043   32.6409   50.0895 H   0  0  0  0  0  0  0  0  0  0  0  0
   58.5880   33.8142   47.5180 H   0  0  0  0  0  0  0  0  0  0  0  0
   60.1483   33.5809   48.4037 H   0  0  0  0  0  0  0  0  0  0  0  0
   62.2855   30.6560   49.3543 H   0  0  0  0  0  0  0  0  0  0  0  0
   64.2392   31.7715   50.4286 H   0  0  0  0  0  0  0  0  0  0  0  0
   65.1792   33.8677   49.4493 H   0  0  0  0  0  0  0  0  0  0  0  0
   64.1875   34.8271   47.3692 H   0  0  0  0  0  0  0  0  0  0  0  0
   59.4760   28.8470   46.7590 H   0  0  0  0  0  0  0  0  0  0  0  0
   58.0400   29.3050   47.6630 H   0  0  0  0  0  0  0  0  0  0  0  0
   56.4001   28.4267   45.5264 H   0  0  0  0  0  0  0  0  0  0  0  0
   56.2364   28.7133   43.7420 H   0  0  0  0  0  0  0  0  0  0  0  0
   58.0037   27.4186   43.2634 H   0  0  0  0  0  0  0  0  0  0  0  0
   58.9980   28.2000   44.5818 H   0  0  0  0  0  0  0  0  0  0  0  0
   58.2733   25.5748   44.5713 H   0  0  0  0  0  0  0  0  0  0  0  0
   58.6041   26.5647   46.0558 H   0  0  0  0  0  0  0  0  0  0  0  0
   57.2820   33.0480   43.2580 H   0  0  0  0  0  0  0  0  0  0  0  0
  1  2  1  0
  2  3  1  0
  3  4  1  0
  4  5  1  0
  5  6  1  0
  6  7  2  0
  6  8  1  0
  8  9  2  0
  9 10  1  0
 10 11  2  0
 11 12  1  0
 12 13  2  0
 13 14  1  0
  5 15  1  0
 15 16  2  0
 16 17  1  0
 16 18  1  0
 18 19  1  0
 19 20  1  0
 20 21  1  0
 21 22  1  0
 22 23  3  0
 18 24  1  0
 24 25  2  0
 24 26  1  0
 26 27  1  0
 27 28  2  0
 13  8  1  0
 27 15  1  0
  1 29  1  0
  1 30  1  0
  1 31  1  0
  3 32  1  0
  3 33  1  0
  4 34  1  0
  4 35  1  0
  9 36  1  0
 10 37  1  0
 11 38  1  0
 12 39  1  0
 17 40  1  0
 17 41  1  0
 19 42  1  0
 19 43  1  0
 20 44  1  0
 20 45  1  0
 21 46  1  0
 21 47  1  0
 26 48  1  0
M  END
>  <UniqueID>  (72) 
67

>  <SMILES>  (72) 
COCCN(C(=O)c1ccccc1F)c1c(N)n(CCCC#N)c(=O)[nH]c1=O

>  <Energy>  (72) 
58.370549611582135

>  <Genealogy>  (72) 
COCCN(C(=O)c1ccccc1F)c1c(N)n(CCCC#N)c(=O)[nH]c1=O (3D coordinates assigned)
COCCN(C(=O)c1ccccc1F)c1c(N)n(CCCC#N)c(=O)[nH]c1=O (optimized conformer: 58.370549611582135 kcal/mol)

>  <smiles>  (72) 
COCCN(C(=O)c1ccccc1F)c1c(N)n(CCCC#N)c(=O)[nH]c1=O

>  <score_type>  (72) 
oracle

>  <origin>  (72) 
adg

>  <m_score__min__energy>  (72) 
-6.0800000000000001

>  <m_primary>  (72) 
energy

$$$$
72:0
     RDKit          3D

 36 38  0  0  1  0  0  0  0  0999 V2000
   59.3620   30.0850   47.0000 O   0  0  0  0  0  0  0  0  0  0  0  0
   59.3260   29.2750   45.9960 N   0  0  0  0  0  0  0  0  0  0  0  0
   60.3110   29.5150   45.1000 O   0  0  0  0  0  0  0  0  0  0  0  0
   58.2820   28.3550   46.0140 C   0  0  0  0  0  0  0  0  0  0  0  0
   58.6030   27.0990   46.5810 C   0  0  0  0  0  0  0  0  0  0  0  0
   57.7100   26.1080   46.6380 N   0  0  0  0  0  0  0  0  0  0  0  0
   57.0120   28.4560   45.5540 C   0  0  0  0  0  0  0  0  0  0  0  0
   56.5300   29.5770   45.2370 N   0  0  0  0  0  0  0  0  0  0  0  0
   57.0310   30.5640   44.3900 C   0  0  0  0  0  0  0  0  0  0  0  0
   56.9230   30.5370   42.9900 C   0  0  0  0  0  0  0  0  0  0  0  0
   57.4060   31.6290   42.2530 C   0  0  0  0  0  0  0  0  0  0  0  0
   57.9760   32.7090   42.9040 C   0  0  0  0  0  0  0  0  0  0  0  0
   58.0870   32.7450   44.2820 C   0  0  0  0  0  0  0  0  0  0  0  0
   57.6180   31.6830   45.0210 C   0  0  0  0  0  0  0  0  0  0  0  0
   56.1080   27.4280   45.6160 N   0  0  0  0  0  0  0  0  0  0  0  0
   56.4520   26.2520   46.1590 C   0  0  0  0  0  0  0  0  0  0  0  0
   55.6810   25.2390   46.2770 N   0  0  0  0  0  0  0  0  0  0  0  0
   55.9010   24.0800   45.5120 C   0  0  0  0  0  0  0  0  0  0  0  0
   55.7270   22.7860   45.9760 C   0  0  0  0  0  0  0  0  0  0  0  0
   55.9850   21.6850   45.1520 C   0  0  0  0  0  0  0  0  0  0  0  0
   56.4250   21.9210   43.8380 C   0  0  0  0  0  0  0  0  0  0  0  0
   56.6040   23.2060   43.3560 C   0  0  0  0  0  0  0  0  0  0  0  0
   56.3400   24.2640   44.1980 C   0  0  0  0  0  0  0  0  0  0  0  0
   59.6130   26.9350   46.9847 H   0  0  0  0  0  0  0  0  0  0  0  0
   58.0010   25.2030   47.0670 H   0  0  0  0  0  0  0  0  0  0  0  0
   56.4678   29.6750   42.4802 H   0  0  0  0  0  0  0  0  0  0  0  0
   57.3314   31.6266   41.1555 H   0  0  0  0  0  0  0  0  0  0  0  0
   58.3491   33.5578   42.3121 H   0  0  0  0  0  0  0  0  0  0  0  0
   58.5445   33.6118   44.7813 H   0  0  0  0  0  0  0  0  0  0  0  0
   57.7014   31.7059   46.1176 H   0  0  0  0  0  0  0  0  0  0  0  0
   55.1510   27.5270   45.2460 H   0  0  0  0  0  0  0  0  0  0  0  0
   55.3810   22.6219   47.0072 H   0  0  0  0  0  0  0  0  0  0  0  0
   55.8468   20.6590   45.5237 H   0  0  0  0  0  0  0  0  0  0  0  0
   56.6316   21.0655   43.1782 H   0  0  0  0  0  0  0  0  0  0  0  0
   56.9487   23.3783   42.3257 H   0  0  0  0  0  0  0  0  0  0  0  0
   56.4795   25.2887   43.8232 H   0  0  0  0  0  0  0  0  0  0  0  0
  1  2  2  0
  2  3  1  0
  2  4  1  0
  4  5  2  0
  5  6  1  0
  6  7  1  0
  7  8  2  0
  8  9  1  0
  9 10  2  0
 10 11  1  0
 11 12  2  0
 12 13  1  0
 13 14  2  0
  7 15  1  0
 15 16  1  0
 16 17  2  0
 17 18  1  0
 18 19  2  0
 19 20  1  0
 20 21  2  0
 21 22  1  0
 22 23  2  0
 16  4  1  0
 23 18  1  0
 14  9  1  0
  5 24  1  0
  6 25  1  0
 10 26  1  0
 11 27  1  0
 12 28  1  0
 13 29  1  0
 14 30  1  0
 15 31  1  0
 19 32  1  0
 20 33  1  0
 21 34  1  0
 22 35  1  0
 23 36  1  0
M  CHG  2   2   1   3  -1
M  END
>  <smiles>  (73) 
O=[N+]([O-])c1c[nH]c(=Nc2ccccc2)[nH]c1=Nc1ccccc1

>  <score_type>  (73) 
oracle

>  <origin>  (73) 
adg

>  <m_score__min__energy>  (73) 
-7.46

>  <m_primary>  (73) 
energy

$$$$
73:0
     RDKit          3D

 34 35  0  0  0  0  0  0  0  0999 V2000
   55.1527   24.7539   46.6624 H   0  0  0  0  0  0  0  0  0  0  0  0
   55.9070   25.4850   46.3360 C   0  0  0  0  0  0  0  0  0  0  0  0
   55.5280   26.7390   45.9810 N   0  0  0  0  0  0  0  0  0  0  0  0
   56.4090   27.6960   45.5760 C   0  0  0  0  0  0  0  0  0  0  0  0
   55.9070   28.8500   45.2270 N   0  0  0  0  0  0  0  0  0  0  0  0
   55.7080   29.4240   43.9010 C   0  0  0  0  0  0  0  0  0  0  0  0
   55.9463   28.6721   43.1343 H   0  0  0  0  0  0  0  0  0  0  0  0
   54.6601   29.7381   43.7859 H   0  0  0  0  0  0  0  0  0  0  0  0
   56.6140   30.6120   43.7400 C   0  0  0  0  0  0  0  0  0  0  0  0
   57.0310   31.3410   44.8660 C   0  0  0  0  0  0  0  0  0  0  0  0
   56.7146   31.0261   45.8714 H   0  0  0  0  0  0  0  0  0  0  0  0
   57.8480   32.4670   44.7120 C   0  0  0  0  0  0  0  0  0  0  0  0
   58.1794   33.0305   45.5967 H   0  0  0  0  0  0  0  0  0  0  0  0
   58.2430   32.8760   43.4360 C   0  0  0  0  0  0  0  0  0  0  0  0
   58.8882   33.7590   43.3171 H   0  0  0  0  0  0  0  0  0  0  0  0
   57.8190   32.1640   42.3100 C   0  0  0  0  0  0  0  0  0  0  0  0
   58.1279   32.4895   41.3057 H   0  0  0  0  0  0  0  0  0  0  0  0
   57.0030   31.0390   42.4590 C   0  0  0  0  0  0  0  0  0  0  0  0
   56.6642   30.4860   41.5705 H   0  0  0  0  0  0  0  0  0  0  0  0
   57.7980   27.3670   45.5360 C   0  0  0  0  0  0  0  0  0  0  0  0
   58.8710   28.3050   45.1830 C   0  0  0  0  0  0  0  0  0  0  0  0
   59.5280   28.1290   44.1210 O   0  0  0  0  0  0  0  0  0  0  0  0
   59.0980   29.4240   45.9910 O   0  0  0  0  0  0  0  0  0  0  0  0
   59.8180   29.3720   47.2220 C   0  0  0  0  0  0  0  0  0  0  0  0
   60.2699   30.3558   47.4168 H   0  0  0  0  0  0  0  0  0  0  0  0
   60.5978   28.6004   47.1408 H   0  0  0  0  0  0  0  0  0  0  0  0
   58.8930   29.0100   48.3780 C   0  0  0  0  0  0  0  0  0  0  0  0
   59.4030   29.2096   49.3320 H   0  0  0  0  0  0  0  0  0  0  0  0
   57.9769   29.6160   48.3182 H   0  0  0  0  0  0  0  0  0  0  0  0
   58.6315   27.9432   48.3182 H   0  0  0  0  0  0  0  0  0  0  0  0
   58.1910   26.0670   45.8870 C   0  0  0  0  0  0  0  0  0  0  0  0
   59.2546   25.7895   45.8457 H   0  0  0  0  0  0  0  0  0  0  0  0
   57.2480   25.1250   46.2870 C   0  0  0  0  0  0  0  0  0  0  0  0
   57.5608   24.1067   46.5613 H   0  0  0  0  0  0  0  0  0  0  0  0
  1  2  1  0
  2  3  1  0
  3  4  1  0
  4  5  2  0
  5  6  1  0
  6  7  1  0
  6  8  1  0
  6  9  1  0
  9 10  2  0
 10 11  1  0
 10 12  1  0
 12 13  1  0
 12 14  2  0
 14 15  1  0
 14 16  1  0
 16 17  1  0
 16 18  2  0
 18 19  1  0
  4 20  1  0
 20 21  1  0
 21 22  2  0
 21 23  1  0
 23 24  1  0
 24 25  1  0
 24 26  1  0
 24 27  1  0
 27 28  1  0
 27 29  1  0
 27 30  1  0
 20 31  2  0
 31 32  1  0
 31 33  1  0
 33 34  1  0
 33  2  2  0
 18  9  1  0
M  CHG  1   3  -1
M  END
>  <UniqueID>  (74) 
68

>  <SMILES>  (74) 
CCOC(=O)c1ccc[n-]/c1=N/Cc1ccccc1

>  <Energy>  (74) 
44.59271863763602

>  <Genealogy>  (74) 
CCOC(=O)c1ccc[n-]c1=NCc1ccccc1 (protonated)
CCOC(=O)c1ccc[n-]/c1=N/Cc1ccccc1 (cis-trans isomerization)
CCOC(=O)c1ccc[n-]/c1=N/Cc1ccccc1 (3D coordinates assigned)
CCOC(=O)c1ccc[n-]/c1=N/Cc1ccccc1 (optimized conformer: 44.59271863763602 kcal/mol)

>  <smiles>  (74) 
CCOC(=O)c1ccc[nH]c1=NCc1ccccc1

>  <score_type>  (74) 
oracle

>  <origin>  (74) 
adg

>  <m_score__min__energy>  (74) 
-7.9400000000000004

>  <m_primary>  (74) 
energy

$$$$
74:0
     RDKit          3D

 31 33  0  0  0  0  0  0  0  0999 V2000
   55.1740   28.6420   45.6170 H   0  0  0  0  0  0  0  0  0  0  0  0
   55.1480   29.3350   44.8370 N   0  0  0  0  0  0  0  0  0  0  0  0
   56.3350   29.6850   44.1250 C   0  0  0  0  0  0  0  0  0  0  0  0
   56.6680   29.0050   43.1180 O   0  0  0  0  0  0  0  0  0  0  0  0
   57.1660   30.8300   44.5640 C   0  0  0  0  0  0  0  0  0  0  0  0
   57.3480   31.9540   43.7200 C   0  0  0  0  0  0  0  0  0  0  0  0
   56.8660   31.9735   42.7314 H   0  0  0  0  0  0  0  0  0  0  0  0
   58.1350   33.0430   44.1280 C   0  0  0  0  0  0  0  0  0  0  0  0
   58.2735   33.9118   43.4677 H   0  0  0  0  0  0  0  0  0  0  0  0
   58.7380   33.0040   45.3850 C   0  0  0  0  0  0  0  0  0  0  0  0
   58.5640   31.9040   46.2090 C   0  0  0  0  0  0  0  0  0  0  0  0
   59.4230   32.1350   47.6360 S   0  0  0  0  0  0  0  0  0  0  0  0
   59.9730   33.6550   47.1410 C   0  0  0  0  0  0  0  0  0  0  0  0
   60.7750   34.3870   47.8600 N   0  0  0  0  0  0  0  0  0  0  0  0
   62.0340   33.9770   48.4140 C   0  0  0  0  0  0  0  0  0  0  0  0
   62.9110   33.2270   47.6240 C   0  0  0  0  0  0  0  0  0  0  0  0
   62.6455   32.9943   46.5822 H   0  0  0  0  0  0  0  0  0  0  0  0
   64.1240   32.7710   48.1510 C   0  0  0  0  0  0  0  0  0  0  0  0
   64.8152   32.1989   47.5147 H   0  0  0  0  0  0  0  0  0  0  0  0
   64.4660   33.0390   49.4890 C   0  0  0  0  0  0  0  0  0  0  0  0
   65.7130   32.5720   50.0370 N   0  0  0  0  0  0  0  0  0  0  0  0
   66.6970   33.3360   50.1230 O   0  0  0  0  0  0  0  0  0  0  0  0
   65.8400   31.2740   50.4780 O   0  0  0  0  0  0  0  0  0  0  0  0
   63.5640   33.7630   50.2890 C   0  0  0  0  0  0  0  0  0  0  0  0
   63.8140   33.9738   51.3393 H   0  0  0  0  0  0  0  0  0  0  0  0
   62.3520   34.2170   49.7600 C   0  0  0  0  0  0  0  0  0  0  0  0
   61.6451   34.7643   50.4009 H   0  0  0  0  0  0  0  0  0  0  0  0
   59.5290   33.9820   45.8980 N   0  0  0  0  0  0  0  0  0  0  0  0
   59.7850   34.8450   45.3690 H   0  0  0  0  0  0  0  0  0  0  0  0
   57.7910   30.8100   45.8310 C   0  0  0  0  0  0  0  0  0  0  0  0
   57.6693   29.9485   46.5041 H   0  0  0  0  0  0  0  0  0  0  0  0
  1  2  1  0
  2  3  1  0
  3  4  2  0
  3  5  1  0
  5  6  2  0
  6  7  1  0
  6  8  1  0
  8  9  1  0
  8 10  2  0
 10 11  1  0
 11 12  1  0
 12 13  1  0
 13 14  2  0
 14 15  1  0
 15 16  2  0
 16 17  1  0
 16 18  1  0
 18 19  1  0
 18 20  2  0
 20 21  1  0
 21 22  2  0
 21 23  1  0
 20 24  1  0
 24 25  1  0
 24 26  2  0
 26 27  1  0
 13 28  1  0
 28 29  1  0
 11 30  2  0
 30 31  1  0
 30  5  1  0
 28 10  1  0
 26 15  1  0
M  CHG  3   2  -1  21   1  23  -1
M  END
>  <UniqueID>  (75) 
69

>  <SMILES>  (75) 
[NH-]C(=O)c1ccc2[nH]/c(=N\c3ccc([N+](=O)[O-])cc3)sc2c1

>  <Energy>  (75) 
77.30115802683461

>  <Genealogy>  (75) 
[NH-]C(=O)c1ccc2[nH]c(=Nc3ccc([N+](=O)[O-])cc3)sc2c1 (protonated)
[NH-]C(=O)c1ccc2[nH]/c(=N\c3ccc([N+](=O)[O-])cc3)sc2c1 (cis-trans isomerization)
[NH-]C(=O)c1ccc2[nH]/c(=N\c3ccc([N+](=O)[O-])cc3)sc2c1 (3D coordinates assigned)
[NH-]C(=O)c1ccc2[nH]/c(=N\c3ccc([N+](=O)[O-])cc3)sc2c1 (optimized conformer: 77.30115802683461 kcal/mol)

>  <smiles>  (75) 
NC(=O)c1ccc2[nH]c(=Nc3ccc([N+](=O)[O-])cc3)sc2c1

>  <score_type>  (75) 
oracle

>  <origin>  (75) 
adg

>  <m_score__min__energy>  (75) 
-10.41

>  <m_primary>  (75) 
energy

$$$$
75:0
     RDKit          3D

 69 73  0  0  0  0  0  0  0  0999 V2000
   60.7940   26.6250   48.2170 O   0  0  0  0  0  0  0  0  0  0  0  0
   60.1230   27.6930   48.2530 C   0  0  0  0  0  0  0  0  0  0  0  0
   60.6690   28.8790   48.9860 C   0  0  0  0  0  0  0  0  0  0  0  0
   59.6500   29.8530   49.1950 O   0  0  0  0  0  0  0  0  0  0  0  0
   59.2760   30.8000   48.2370 C   0  0  0  0  0  0  0  0  0  0  0  0
   58.6660   30.4250   47.1950 O   0  0  0  0  0  0  0  0  0  0  0  0
   59.6370   32.2710   48.4460 C   0  0  0  0  0  0  0  0  0  0  0  0
   59.0210   32.7240   49.8150 C   0  0  0  0  0  0  0  0  0  0  0  0
   58.6640   31.6040   50.6920 N   0  0  0  0  0  0  0  0  0  0  0  0
   57.4400   31.0780   50.8710 C   0  0  0  0  0  0  0  0  0  0  0  0
   57.4570   30.1090   51.8050 N   0  0  0  0  0  0  0  0  0  0  0  0
   58.7540   30.0940   52.1840 C   0  0  0  0  0  0  0  0  0  0  0  0
   59.4950   31.0060   51.5240 N   0  0  0  0  0  0  0  0  0  0  0  0
   61.1640   32.4980   48.4860 C   0  0  0  0  0  0  0  0  0  0  0  0
   62.0790   31.7360   47.7190 C   0  0  0  0  0  0  0  0  0  0  0  0
   63.4520   31.9870   47.7860 C   0  0  0  0  0  0  0  0  0  0  0  0
   63.9410   33.0050   48.6040 C   0  0  0  0  0  0  0  0  0  0  0  0
   63.0570   33.7830   49.3520 C   0  0  0  0  0  0  0  0  0  0  0  0
   61.6830   33.5360   49.2930 C   0  0  0  0  0  0  0  0  0  0  0  0
   59.0560   33.0870   47.2660 C   0  0  0  0  0  0  0  0  0  0  0  0
   59.9360   33.6880   46.3340 C   0  0  0  0  0  0  0  0  0  0  0  0
   59.4470   34.3960   45.2330 C   0  0  0  0  0  0  0  0  0  0  0  0
   58.0740   34.4960   45.0200 C   0  0  0  0  0  0  0  0  0  0  0  0
   57.1870   33.8830   45.9020 C   0  0  0  0  0  0  0  0  0  0  0  0
   57.6660   33.1760   47.0090 C   0  0  0  0  0  0  0  0  0  0  0  0
   58.8360   27.7590   47.6260 N   0  0  0  0  0  0  0  0  0  0  0  0
   58.3900   26.7830   46.6710 C   0  0  0  0  0  0  0  0  0  0  0  0
   57.8070   25.5960   47.1400 C   0  0  0  0  0  0  0  0  0  0  0  0
   57.3880   24.6110   46.2420 C   0  0  0  0  0  0  0  0  0  0  0  0
   57.5290   24.8100   44.8690 C   0  0  0  0  0  0  0  0  0  0  0  0
   58.0730   26.0030   44.3870 C   0  0  0  0  0  0  0  0  0  0  0  0
   58.5110   27.0000   45.2770 C   0  0  0  0  0  0  0  0  0  0  0  0
   58.9750   28.2980   44.7380 C   0  0  0  0  0  0  0  0  0  0  0  0
   60.2170   28.5080   44.6700 O   0  0  0  0  0  0  0  0  0  0  0  0
   58.0560   29.3250   44.3060 N   0  0  0  0  0  0  0  0  0  0  0  0
   56.7170   28.9870   43.7940 C   0  0  0  0  0  0  0  0  0  0  0  0
   55.7040   30.1280   44.0530 C   0  0  0  0  0  0  0  0  0  0  0  0
   56.2950   31.3320   44.5180 O   0  0  0  0  0  0  0  0  0  0  0  0
   57.4330   31.6430   43.7440 C   0  0  0  0  0  0  0  0  0  0  0  0
   58.5660   30.6890   44.1170 C   0  0  0  0  0  0  0  0  0  0  0  0
   61.0619   28.5523   49.9601 H   0  0  0  0  0  0  0  0  0  0  0  0
   61.4714   29.3294   48.3833 H   0  0  0  0  0  0  0  0  0  0  0  0
   59.7561   33.3546   50.3365 H   0  0  0  0  0  0  0  0  0  0  0  0
   58.0922   33.2683   49.5890 H   0  0  0  0  0  0  0  0  0  0  0  0
   56.5405   31.3982   50.3247 H   0  0  0  0  0  0  0  0  0  0  0  0
   59.1599   29.4130   52.9465 H   0  0  0  0  0  0  0  0  0  0  0  0
   61.7042   30.9369   47.0626 H   0  0  0  0  0  0  0  0  0  0  0  0
   64.1497   31.3792   47.1912 H   0  0  0  0  0  0  0  0  0  0  0  0
   65.0231   33.1945   48.6594 H   0  0  0  0  0  0  0  0  0  0  0  0
   63.4424   34.5924   49.9894 H   0  0  0  0  0  0  0  0  0  0  0  0
   60.9948   34.1587   49.8835 H   0  0  0  0  0  0  0  0  0  0  0  0
   61.0225   33.5961   46.4789 H   0  0  0  0  0  0  0  0  0  0  0  0
   60.1475   34.8752   44.5332 H   0  0  0  0  0  0  0  0  0  0  0  0
   57.6905   35.0586   44.1560 H   0  0  0  0  0  0  0  0  0  0  0  0
   56.1035   33.9556   45.7265 H   0  0  0  0  0  0  0  0  0  0  0  0
   56.9550   32.6831   47.6883 H   0  0  0  0  0  0  0  0  0  0  0  0
   58.1550   28.4850   47.9490 H   0  0  0  0  0  0  0  0  0  0  0  0
   57.6790   25.4400   48.2213 H   0  0  0  0  0  0  0  0  0  0  0  0
   56.9461   23.6768   46.6188 H   0  0  0  0  0  0  0  0  0  0  0  0
   57.2116   24.0268   44.1648 H   0  0  0  0  0  0  0  0  0  0  0  0
   58.1595   26.1639   43.3023 H   0  0  0  0  0  0  0  0  0  0  0  0
   56.7837   28.8077   42.7108 H   0  0  0  0  0  0  0  0  0  0  0  0
   56.3643   28.0875   44.3198 H   0  0  0  0  0  0  0  0  0  0  0  0
   55.1771   30.3427   43.1116 H   0  0  0  0  0  0  0  0  0  0  0  0
   55.0281   29.7785   44.8474 H   0  0  0  0  0  0  0  0  0  0  0  0
   57.1940   31.5316   42.6761 H   0  0  0  0  0  0  0  0  0  0  0  0
   57.7422   32.6804   43.9392 H   0  0  0  0  0  0  0  0  0  0  0  0
   59.3151   30.6859   43.3115 H   0  0  0  0  0  0  0  0  0  0  0  0
   59.0195   31.0304   45.0592 H   0  0  0  0  0  0  0  0  0  0  0  0
  1  2  2  0
  2  3  1  0
  3  4  1  0
  4  5  1  0
  5  6  2  0
  5  7  1  0
  7  8  1  0
  8  9  1  0
  9 10  1  0
 10 11  2  0
 11 12  1  0
 12 13  2  0
  7 14  1  0
 14 15  2  0
 15 16  1  0
 16 17  2  0
 17 18  1  0
 18 19  2  0
  7 20  1  0
 20 21  2  0
 21 22  1  0
 22 23  2  0
 23 24  1  0
 24 25  2  0
  2 26  1  0
 26 27  1  0
 27 28  2  0
 28 29  1  0
 29 30  2  0
 30 31  1  0
 31 32  2  0
 32 33  1  0
 33 34  2  0
 33 35  1  0
 35 36  1  0
 36 37  1  0
 37 38  1  0
 38 39  1  0
 39 40  1  0
 13  9  1  0
 19 14  1  0
 25 20  1  0
 32 27  1  0
 40 35  1  0
  3 41  1  0
  3 42  1  0
  8 43  1  0
  8 44  1  0
 10 45  1  0
 12 46  1  0
 15 47  1  0
 16 48  1  0
 17 49  1  0
 18 50  1  0
 19 51  1  0
 21 52  1  0
 22 53  1  0
 23 54  1  0
 24 55  1  0
 25 56  1  0
 26 57  1  0
 28 58  1  0
 29 59  1  0
 30 60  1  0
 31 61  1  0
 36 62  1  0
 36 63  1  0
 37 64  1  0
 37 65  1  0
 39 66  1  0
 39 67  1  0
 40 68  1  0
 40 69  1  0
M  END
>  <UniqueID>  (76) 
70

>  <SMILES>  (76) 
O=C(COC(=O)C(Cn1cncn1)(c1ccccc1)c1ccccc1)Nc1ccccc1C(=O)N1CCOCC1

>  <Energy>  (76) 
133.26008111398613

>  <Genealogy>  (76) 
O=C(COC(=O)C(Cn1cncn1)(c1ccccc1)c1ccccc1)Nc1ccccc1C(=O)N1CCOCC1 (3D coordinates assigned)
O=C(COC(=O)C(Cn1cncn1)(c1ccccc1)c1ccccc1)Nc1ccccc1C(=O)N1CCOCC1 (nonaromatic ring conformer: 133.26008111398613 kcal/mol)

>  <smiles>  (76) 
O=C(COC(=O)C(Cn1cncn1)(c1ccccc1)c1ccccc1)Nc1ccccc1C(=O)N1CCOCC1

>  <score_type>  (76) 
oracle

>  <origin>  (76) 
adg

>  <m_score__min__energy>  (76) 
-9.8800000000000008

>  <m_primary>  (76) 
energy

$$$$
76:0
     RDKit          3D

 43 45  0  0  0  0  0  0  0  0999 V2000
   53.9834   28.0383   51.9069 H   0  0  0  0  0  0  0  0  0  0  0  0
   54.2070   29.0390   52.3050 C   0  0  0  0  0  0  0  0  0  0  0  0
   55.4300   29.2480   52.8370 C   0  0  0  0  0  0  0  0  0  0  0  0
   56.3210   30.2850   52.2490 C   0  0  0  0  0  0  0  0  0  0  0  0
   55.8690   31.0770   51.3730 O   0  0  0  0  0  0  0  0  0  0  0  0
   57.7370   30.4070   52.6930 C   0  0  0  0  0  0  0  0  0  0  0  0
   58.5760   31.2330   52.0330 C   0  0  0  0  0  0  0  0  0  0  0  0
   59.1702   31.9442   52.6256 H   0  0  0  0  0  0  0  0  0  0  0  0
   58.7470   31.2430   50.5680 C   0  0  0  0  0  0  0  0  0  0  0  0
   58.8580   30.0310   49.8760 C   0  0  0  0  0  0  0  0  0  0  0  0
   58.8485   29.0806   50.4297 H   0  0  0  0  0  0  0  0  0  0  0  0
   58.9810   30.0250   48.4820 C   0  0  0  0  0  0  0  0  0  0  0  0
   59.0832   29.0690   47.9475 H   0  0  0  0  0  0  0  0  0  0  0  0
   58.9750   31.2260   47.7620 C   0  0  0  0  0  0  0  0  0  0  0  0
   59.1030   31.1660   46.3670 O   0  0  0  0  0  0  0  0  0  0  0  0
   58.0310   31.3720   45.4520 C   0  0  0  0  0  0  0  0  0  0  0  0
   57.1008   31.5507   46.0113 H   0  0  0  0  0  0  0  0  0  0  0  0
   58.2517   32.2442   44.8191 H   0  0  0  0  0  0  0  0  0  0  0  0
   57.9127   30.4802   44.8191 H   0  0  0  0  0  0  0  0  0  0  0  0
   58.8370   32.4430   48.4580 C   0  0  0  0  0  0  0  0  0  0  0  0
   58.8260   33.3930   47.9036 H   0  0  0  0  0  0  0  0  0  0  0  0
   58.7140   32.4480   49.8500 C   0  0  0  0  0  0  0  0  0  0  0  0
   58.5907   33.4010   50.3853 H   0  0  0  0  0  0  0  0  0  0  0  0
   58.2410   29.4690   53.7740 C   0  0  0  0  0  0  0  0  0  0  0  0
   58.6877   28.5834   53.2984 H   0  0  0  0  0  0  0  0  0  0  0  0
   58.9858   30.0082   54.3777 H   0  0  0  0  0  0  0  0  0  0  0  0
   57.1100   29.0180   54.7000 C   0  0  0  0  0  0  0  0  0  0  0  0
   57.5122   28.3078   55.4375 H   0  0  0  0  0  0  0  0  0  0  0  0
   56.6960   29.9056   55.2007 H   0  0  0  0  0  0  0  0  0  0  0  0
   55.9880   28.3390   53.9150 C   0  0  0  0  0  0  0  0  0  0  0  0
   56.3837   27.4274   53.4434 H   0  0  0  0  0  0  0  0  0  0  0  0
   55.1752   28.0983   54.6160 H   0  0  0  0  0  0  0  0  0  0  0  0
   53.1510   30.0660   52.2230 C   0  0  0  0  0  0  0  0  0  0  0  0
   53.0500   30.8650   51.0740 C   0  0  0  0  0  0  0  0  0  0  0  0
   53.7357   30.7005   50.2297 H   0  0  0  0  0  0  0  0  0  0  0  0
   52.0810   31.8690   50.9990 C   0  0  0  0  0  0  0  0  0  0  0  0
   51.9957   32.4833   50.0905 H   0  0  0  0  0  0  0  0  0  0  0  0
   51.2190   32.0940   52.0780 C   0  0  0  0  0  0  0  0  0  0  0  0
   50.2550   33.0920   52.0030 O   0  0  0  0  0  0  0  0  0  0  0  0
   51.3320   31.3170   53.2360 C   0  0  0  0  0  0  0  0  0  0  0  0
   50.6580   31.4969   54.0865 H   0  0  0  0  0  0  0  0  0  0  0  0
   52.3010   30.3120   53.3130 C   0  0  0  0  0  0  0  0  0  0  0  0
   52.3976   29.7124   54.2301 H   0  0  0  0  0  0  0  0  0  0  0  0
  1  2  1  0
  2  3  2  0
  3  4  1  0
  4  5  2  0
  4  6  1  0
  6  7  2  0
  7  8  1  0
  7  9  1  0
  9 10  2  0
 10 11  1  0
 10 12  1  0
 12 13  1  0
 12 14  2  0
 14 15  1  0
 15 16  1  0
 16 17  1  0
 16 18  1  0
 16 19  1  0
 14 20  1  0
 20 21  1  0
 20 22  2  0
 22 23  1  0
  6 24  1  0
 24 25  1  0
 24 26  1  0
 24 27  1  0
 27 28  1  0
 27 29  1  0
 27 30  1  0
 30 31  1  0
 30 32  1  0
  2 33  1  0
 33 34  2  0
 34 35  1  0
 34 36  1  0
 36 37  1  0
 36 38  2  0
 38 39  1  0
 38 40  1  0
 40 41  1  0
 40 42  2  0
 42 43  1  0
 30  3  1  0
 42 33  1  0
 22  9  1  0
M  CHG  1  39  -1
M  END
>  <UniqueID>  (77) 
71

>  <SMILES>  (77) 
COc1ccc(/C=C2\CCC/C(=C\c3ccc([O-])cc3)C2=O)cc1

>  <Energy>  (77) 
60.3788481086562

>  <Genealogy>  (77) 
COc1ccc(C=C2CCCC(=Cc3ccc([O-])cc3)C2=O)cc1 (protonated)
COc1ccc(/C=C2\CCC/C(=C\c3ccc([O-])cc3)C2=O)cc1 (cis-trans isomerization)
COc1ccc(/C=C2\CCC/C(=C\c3ccc([O-])cc3)C2=O)cc1 (3D coordinates assigned)
COc1ccc(/C=C2\CCC/C(=C\c3ccc([O-])cc3)C2=O)cc1 (nonaromatic ring conformer: 60.3788481086562 kcal/mol)

>  <smiles>  (77) 
COc1ccc(C=C2CCCC(=Cc3ccc(O)cc3)C2=O)cc1

>  <score_type>  (77) 
oracle

>  <origin>  (77) 
adg

>  <m_score__min__energy>  (77) 
-11.529999999999999

>  <m_primary>  (77) 
energy

$$$$
77:0
     RDKit          3D

 34 35  0  0  0  0  0  0  0  0999 V2000
   54.7790   26.6760   47.1200 H   0  0  0  0  0  0  0  0  0  0  0  0
   55.2780   26.4860   46.2600 O   0  0  0  0  0  0  0  0  0  0  0  0
   56.6150   26.7920   46.1590 N   0  0  0  0  0  0  0  0  0  0  0  0
   57.1430   27.3060   45.0910 C   0  0  0  0  0  0  0  0  0  0  0  0
   57.4635   26.6250   44.2888 H   0  0  0  0  0  0  0  0  0  0  0  0
   57.3370   28.7610   44.8950 C   0  0  0  0  0  0  0  0  0  0  0  0
   57.7830   29.5930   45.9330 C   0  0  0  0  0  0  0  0  0  0  0  0
   58.0189   29.1614   46.9169 H   0  0  0  0  0  0  0  0  0  0  0  0
   57.9290   30.9650   45.7240 C   0  0  0  0  0  0  0  0  0  0  0  0
   58.2893   31.6062   46.5420 H   0  0  0  0  0  0  0  0  0  0  0  0
   57.6190   31.5350   44.4750 C   0  0  0  0  0  0  0  0  0  0  0  0
   57.7630   32.9100   44.2210 O   0  0  0  0  0  0  0  0  0  0  0  0
   57.6200   33.9500   45.1880 C   0  0  0  0  0  0  0  0  0  0  0  0
   57.5700   34.9193   44.6703 H   0  0  0  0  0  0  0  0  0  0  0  0
   56.6978   33.7737   45.7612 H   0  0  0  0  0  0  0  0  0  0  0  0
   58.7860   33.9590   46.1410 C   0  0  0  0  0  0  0  0  0  0  0  0
   58.5680   33.8240   47.5220 C   0  0  0  0  0  0  0  0  0  0  0  0
   57.5429   33.7161   47.9061 H   0  0  0  0  0  0  0  0  0  0  0  0
   59.6470   33.8260   48.4110 C   0  0  0  0  0  0  0  0  0  0  0  0
   59.4689   33.7285   49.4921 H   0  0  0  0  0  0  0  0  0  0  0  0
   60.9530   33.9520   47.9260 C   0  0  0  0  0  0  0  0  0  0  0  0
   62.3070   33.9540   49.0420 Cl  0  0  0  0  0  0  0  0  0  0  0  0
   61.1790   34.0740   46.5510 C   0  0  0  0  0  0  0  0  0  0  0  0
   62.2063   34.1709   46.1699 H   0  0  0  0  0  0  0  0  0  0  0  0
   60.1010   34.0730   45.6600 C   0  0  0  0  0  0  0  0  0  0  0  0
   60.2834   34.1618   44.5789 H   0  0  0  0  0  0  0  0  0  0  0  0
   57.1430   30.7150   43.4410 C   0  0  0  0  0  0  0  0  0  0  0  0
   56.8280   31.3130   42.2100 O   0  0  0  0  0  0  0  0  0  0  0  0
   57.7110   32.1510   41.4700 C   0  0  0  0  0  0  0  0  0  0  0  0
   58.3290   32.7375   42.1657 H   0  0  0  0  0  0  0  0  0  0  0  0
   58.3612   31.5298   40.8364 H   0  0  0  0  0  0  0  0  0  0  0  0
   57.1246   32.8327   40.8364 H   0  0  0  0  0  0  0  0  0  0  0  0
   56.9950   29.3310   43.6600 C   0  0  0  0  0  0  0  0  0  0  0  0
   56.6072   28.6909   42.8539 H   0  0  0  0  0  0  0  0  0  0  0  0
  1  2  1  0
  2  3  1  0
  3  4  2  0
  4  5  1  0
  4  6  1  0
  6  7  2  0
  7  8  1  0
  7  9  1  0
  9 10  1  0
  9 11  2  0
 11 12  1  0
 12 13  1  0
 13 14  1  0
 13 15  1  0
 13 16  1  0
 16 17  2  0
 17 18  1  0
 17 19  1  0
 19 20  1  0
 19 21  2  0
 21 22  1  0
 21 23  1  0
 23 24  1  0
 23 25  2  0
 25 26  1  0
 11 27  1  0
 27 28  1  0
 28 29  1  0
 29 30  1  0
 29 31  1  0
 29 32  1  0
 27 33  2  0
 33 34  1  0
 33  6  1  0
 25 16  1  0
M  END
>  <UniqueID>  (78) 
72

>  <SMILES>  (78) 
COc1cc(/C=N\O)ccc1OCc1ccc(Cl)cc1

>  <Energy>  (78) 
37.54160879217722

>  <Genealogy>  (78) 
COc1cc(/C=N\O)ccc1OCc1ccc(Cl)cc1 (cis-trans isomerization)
COc1cc(/C=N\O)ccc1OCc1ccc(Cl)cc1 (3D coordinates assigned)
COc1cc(/C=N\O)ccc1OCc1ccc(Cl)cc1 (optimized conformer: 37.54160879217722 kcal/mol)

>  <smiles>  (78) 
COc1cc(C=NO)ccc1OCc1ccc(Cl)cc1

>  <score_type>  (78) 
oracle

>  <origin>  (78) 
adg

>  <m_score__min__energy>  (78) 
-7.6799999999999997

>  <m_primary>  (78) 
energy

$$$$
78:0
     RDKit          3D

 64 67  0  0  0  0  0  0  0  0999 V2000
   56.3508   29.0620   45.0907 H   0  0  0  0  0  0  0  0  0  0  0  0
   56.6390   28.1220   45.5840 C   0  0  0  0  0  0  0  0  0  0  0  0
   55.7550   27.0910   45.6400 N   0  0  0  0  0  0  0  0  0  0  0  0
   56.0510   25.9090   46.2430 C   0  0  0  0  0  0  0  0  0  0  0  0
   55.1500   24.9690   46.2480 N   0  0  0  0  0  0  0  0  0  0  0  0
   54.0840   24.7880   45.2640 C   0  0  0  0  0  0  0  0  0  0  0  0
   54.0004   25.6954   44.6479 H   0  0  0  0  0  0  0  0  0  0  0  0
   53.1365   24.6033   45.7914 H   0  0  0  0  0  0  0  0  0  0  0  0
   54.3940   23.5930   44.3630 C   0  0  0  0  0  0  0  0  0  0  0  0
   54.3813   23.9227   43.3136 H   0  0  0  0  0  0  0  0  0  0  0  0
   53.6313   22.8198   44.5375 H   0  0  0  0  0  0  0  0  0  0  0  0
   55.7470   23.0060   44.6770 C   0  0  0  0  0  0  0  0  0  0  0  0
   56.8270   23.2110   43.8050 C   0  0  0  0  0  0  0  0  0  0  0  0
   56.6799   23.7766   42.8731 H   0  0  0  0  0  0  0  0  0  0  0  0
   58.0880   22.6990   44.1170 C   0  0  0  0  0  0  0  0  0  0  0  0
   58.9300   22.8561   43.4268 H   0  0  0  0  0  0  0  0  0  0  0  0
   58.2830   21.9880   45.3030 C   0  0  0  0  0  0  0  0  0  0  0  0
   59.2796   21.5882   45.5418 H   0  0  0  0  0  0  0  0  0  0  0  0
   57.2210   21.7800   46.1900 C   0  0  0  0  0  0  0  0  0  0  0  0
   57.4710   21.0670   47.3720 O   0  0  0  0  0  0  0  0  0  0  0  0
   57.5480   19.6470   47.4530 C   0  0  0  0  0  0  0  0  0  0  0  0
   57.5646   19.3404   48.5093 H   0  0  0  0  0  0  0  0  0  0  0  0
   56.6726   19.2034   46.9561 H   0  0  0  0  0  0  0  0  0  0  0  0
   58.4662   19.3006   46.9561 H   0  0  0  0  0  0  0  0  0  0  0  0
   55.9490   22.2950   45.8730 C   0  0  0  0  0  0  0  0  0  0  0  0
   55.1084   22.1400   46.5654 H   0  0  0  0  0  0  0  0  0  0  0  0
   57.3160   25.7450   46.8390 C   0  0  0  0  0  0  0  0  0  0  0  0
   57.5745   24.7989   47.3371 H   0  0  0  0  0  0  0  0  0  0  0  0
   58.2400   26.7900   46.7940 C   0  0  0  0  0  0  0  0  0  0  0  0
   59.2267   26.6683   47.2648 H   0  0  0  0  0  0  0  0  0  0  0  0
   57.9170   27.9960   46.1510 C   0  0  0  0  0  0  0  0  0  0  0  0
   58.8790   29.1220   46.0870 C   0  0  0  0  0  0  0  0  0  0  0  0
   59.8100   29.0920   45.2350 O   0  0  0  0  0  0  0  0  0  0  0  0
   58.7830   30.2330   46.9960 N   0  0  0  0  0  0  0  0  0  0  0  0
   58.1720   30.1350   47.8360 H   0  0  0  0  0  0  0  0  0  0  0  0
   59.5980   31.4450   46.8340 C   0  0  0  0  0  0  0  0  0  0  0  0
   60.4874   31.1855   46.2410 H   0  0  0  0  0  0  0  0  0  0  0  0
   58.8020   32.5210   46.0830 C   0  0  0  0  0  0  0  0  0  0  0  0
   58.4848   32.1191   45.1094 H   0  0  0  0  0  0  0  0  0  0  0  0
   57.9279   32.7967   46.6912 H   0  0  0  0  0  0  0  0  0  0  0  0
   59.6560   33.7850   45.8520 C   0  0  0  0  0  0  0  0  0  0  0  0
   60.2608   33.6320   44.9460 H   0  0  0  0  0  0  0  0  0  0  0  0
   58.9551   34.6277   45.7589 H   0  0  0  0  0  0  0  0  0  0  0  0
   60.5740   34.1140   46.9760 N   0  0  0  0  0  0  0  0  0  0  0  0
   61.9940   33.8430   46.6650 C   0  0  0  0  0  0  0  0  0  0  0  0
   62.0583   33.0015   45.9595 H   0  0  0  0  0  0  0  0  0  0  0  0
   62.4433   34.7411   46.2161 H   0  0  0  0  0  0  0  0  0  0  0  0
   62.7390   33.4950   47.9250 C   0  0  0  0  0  0  0  0  0  0  0  0
   62.7990   34.4190   48.9810 C   0  0  0  0  0  0  0  0  0  0  0  0
   62.2918   35.3906   48.8876 H   0  0  0  0  0  0  0  0  0  0  0  0
   63.5000   34.1100   50.1500 C   0  0  0  0  0  0  0  0  0  0  0  0
   63.5394   34.8357   50.9757 H   0  0  0  0  0  0  0  0  0  0  0  0
   64.1510   32.8790   50.2700 C   0  0  0  0  0  0  0  0  0  0  0  0
   64.7017   32.6362   51.1907 H   0  0  0  0  0  0  0  0  0  0  0  0
   64.1030   31.9560   49.2210 C   0  0  0  0  0  0  0  0  0  0  0  0
   64.6186   30.9890   49.3159 H   0  0  0  0  0  0  0  0  0  0  0  0
   63.4000   32.2610   48.0510 C   0  0  0  0  0  0  0  0  0  0  0  0
   63.3643   31.5331   47.2271 H   0  0  0  0  0  0  0  0  0  0  0  0
   60.1560   33.5190   48.2610 C   0  0  0  0  0  0  0  0  0  0  0  0
   60.8785   33.8118   49.0370 H   0  0  0  0  0  0  0  0  0  0  0  0
   59.1458   33.8902   48.4885 H   0  0  0  0  0  0  0  0  0  0  0  0
   60.0880   31.9790   48.2040 C   0  0  0  0  0  0  0  0  0  0  0  0
   61.0931   31.5763   48.3981 H   0  0  0  0  0  0  0  0  0  0  0  0
   59.3616   31.6533   48.9631 H   0  0  0  0  0  0  0  0  0  0  0  0
  1  2  1  0
  2  3  1  0
  3  4  1  0
  4  5  2  0
  5  6  1  0
  6  7  1  0
  6  8  1  0
  6  9  1  0
  9 10  1  0
  9 11  1  0
  9 12  1  0
 12 13  2  0
 13 14  1  0
 13 15  1  0
 15 16  1  0
 15 17  2  0
 17 18  1  0
 17 19  1  0
 19 20  1  0
 20 21  1  0
 21 22  1  0
 21 23  1  0
 21 24  1  0
 19 25  2  0
 25 26  1  0
  4 27  1  0
 27 28  1  0
 27 29  2  0
 29 30  1  0
 29 31  1  0
 31 32  1  0
 32 33  2  0
 32 34  1  0
 34 35  1  0
 34 36  1  0
 36 37  1  0
 36 38  1  0
 38 39  1  0
 38 40  1  0
 38 41  1  0
 41 42  1  0
 41 43  1  0
 41 44  1  0
 44 45  1  0
 45 46  1  0
 45 47  1  0
 45 48  1  0
 48 49  2  0
 49 50  1  0
 49 51  1  0
 51 52  1  0
 51 53  2  0
 53 54  1  0
 53 55  1  0
 55 56  1  0
 55 57  2  0
 57 58  1  0
 44 59  1  0
 59 60  1  0
 59 61  1  0
 59 62  1  0
 62 63  1  0
 62 64  1  0
 31  2  2  0
 62 36  1  0
 25 12  1  0
 57 48  1  0
M  CHG  1   3  -1
M  END
>  <UniqueID>  (79) 
73

>  <SMILES>  (79) 
COc1cccc(CC/N=c2\ccc(C(=O)NC3CCN(Cc4ccccc4)CC3)c[n-]2)c1

>  <Energy>  (79) 
76.00733572043379

>  <Genealogy>  (79) 
COc1cccc(CCN=c2ccc(C(=O)NC3CCN(Cc4ccccc4)CC3)c[n-]2)c1 (protonated)
COc1cccc(CC/N=c2\ccc(C(=O)NC3CCN(Cc4ccccc4)CC3)c[n-]2)c1 (cis-trans isomerization)
COc1cccc(CC/N=c2\ccc(C(=O)NC3CCN(Cc4ccccc4)CC3)c[n-]2)c1 (3D coordinates assigned)
COc1cccc(CC/N=c2\ccc(C(=O)NC3CCN(Cc4ccccc4)CC3)c[n-]2)c1 (nonaromatic ring conformer: 76.00733572043379 kcal/mol)

>  <smiles>  (79) 
COc1cccc(CCN=c2ccc(C(=O)NC3CCN(Cc4ccccc4)CC3)c[nH]2)c1

>  <score_type>  (79) 
oracle

>  <origin>  (79) 
adg

>  <m_score__min__energy>  (79) 
-10.359999999999999

>  <m_primary>  (79) 
energy

$$$$
79:0
     RDKit          3D

 32 32  0  0  0  0  0  0  0  0999 V2000
   54.8530   23.5990   44.2280 C   0  0  0  0  0  0  0  0  0  0  0  0
   54.4970   24.3020   45.8250 S   0  0  0  0  0  0  0  0  0  0  0  0
   53.8310   25.6350   45.6260 O   0  0  0  0  0  0  0  0  0  0  0  0
   53.5680   23.4090   46.5970 O   0  0  0  0  0  0  0  0  0  0  0  0
   55.9660   24.5420   46.7140 N   0  0  0  0  0  0  0  0  0  0  0  0
   57.0240   25.4420   46.3580 C   0  0  0  0  0  0  0  0  0  0  0  0
   57.6610   26.1620   47.3780 C   0  0  0  0  0  0  0  0  0  0  0  0
   58.6940   27.0550   47.0780 C   0  0  0  0  0  0  0  0  0  0  0  0
   59.0970   27.2400   45.7520 C   0  0  0  0  0  0  0  0  0  0  0  0
   60.4280   28.3810   45.3650 S   0  0  0  0  0  0  0  0  0  0  0  0
   59.5820   29.8700   46.0150 C   0  0  0  0  0  0  0  0  0  0  0  0
   58.8180   30.6280   44.9270 C   0  0  0  0  0  0  0  0  0  0  0  0
   58.0980   29.6930   44.0590 N   0  0  0  0  0  0  0  0  0  0  0  0
   56.4070   30.0860   44.0380 S   0  0  0  0  0  0  0  0  0  0  0  0
   55.5160   28.9530   44.9940 N   0  0  0  0  0  0  0  0  0  0  0  0
   56.2170   31.4630   44.6090 O   0  0  0  0  0  0  0  0  0  0  0  0
   55.8950   30.0670   42.6250 O   0  0  0  0  0  0  0  0  0  0  0  0
   58.4790   26.5120   44.7300 C   0  0  0  0  0  0  0  0  0  0  0  0
   57.4450   25.6200   45.0280 C   0  0  0  0  0  0  0  0  0  0  0  0
   55.3465   22.6245   44.3581 H   0  0  0  0  0  0  0  0  0  0  0  0
   53.9150   23.4634   43.6697 H   0  0  0  0  0  0  0  0  0  0  0  0
   55.5175   24.2749   43.6697 H   0  0  0  0  0  0  0  0  0  0  0  0
   57.3457   26.0234   48.4227 H   0  0  0  0  0  0  0  0  0  0  0  0
   59.1902   27.6126   47.8860 H   0  0  0  0  0  0  0  0  0  0  0  0
   58.8712   29.5602   46.7953 H   0  0  0  0  0  0  0  0  0  0  0  0
   60.3521   30.5451   46.4166 H   0  0  0  0  0  0  0  0  0  0  0  0
   58.0971   31.3111   45.4000 H   0  0  0  0  0  0  0  0  0  0  0  0
   59.5365   31.1967   44.3185 H   0  0  0  0  0  0  0  0  0  0  0  0
   58.4520   29.8170   43.0810 H   0  0  0  0  0  0  0  0  0  0  0  0
   54.5570   29.3440   45.1250 H   0  0  0  0  0  0  0  0  0  0  0  0
   58.8078   26.6419   43.6884 H   0  0  0  0  0  0  0  0  0  0  0  0
   56.9587   25.0550   44.2191 H   0  0  0  0  0  0  0  0  0  0  0  0
  1  2  1  0
  2  3  2  0
  2  4  2  0
  2  5  1  0
  5  6  1  0
  6  7  2  0
  7  8  1  0
  8  9  2  0
  9 10  1  0
 10 11  1  0
 11 12  1  0
 12 13  1  0
 13 14  1  0
 14 15  1  0
 14 16  2  0
 14 17  2  0
  9 18  1  0
 18 19  2  0
 19  6  1  0
  1 20  1  0
  1 21  1  0
  1 22  1  0
  7 23  1  0
  8 24  1  0
 11 25  1  0
 11 26  1  0
 12 27  1  0
 12 28  1  0
 13 29  1  0
 15 30  1  0
 18 31  1  0
 19 32  1  0
M  CHG  2   5  -1  15  -1
M  END
>  <UniqueID>  (80) 
74

>  <SMILES>  (80) 
CS(=O)(=O)[N-]c1ccc(SCCNS([NH-])(=O)=O)cc1

>  <Energy>  (80) 
18.25414715136706

>  <Genealogy>  (80) 
CS(=O)(=O)[N-]c1ccc(SCCNS([NH-])(=O)=O)cc1 (protonated)
CS(=O)(=O)[N-]c1ccc(SCCNS([NH-])(=O)=O)cc1 (3D coordinates assigned)
CS(=O)(=O)[N-]c1ccc(SCCNS([NH-])(=O)=O)cc1 (optimized conformer: 18.25414715136706 kcal/mol)

>  <smiles>  (80) 
CS(=O)(=O)Nc1ccc(SCCNS(N)(=O)=O)cc1

>  <score_type>  (80) 
oracle

>  <origin>  (80) 
adg

>  <m_score__min__energy>  (80) 
-11.56

>  <m_primary>  (80) 
energy

$$$$
80:0
     RDKit          3D

 43 46  0  0  1  0  0  0  0  0999 V2000
   60.8580   29.2020   48.4620 O   0  0  0  0  0  0  0  0  0  0  0  0
   60.4960   30.4080   48.4940 C   0  0  0  0  0  0  0  0  0  0  0  0
   59.1580   30.6460   48.8000 O   0  0  0  0  0  0  0  0  0  0  0  0
   61.3960   31.5230   48.2300 C   0  0  0  0  0  0  0  0  0  0  0  0
   62.7630   31.2860   48.3400 C   0  0  0  0  0  0  0  0  0  0  0  0
   63.6490   32.3380   48.0930 C   0  0  0  0  0  0  0  0  0  0  0  0
   63.2010   33.5990   47.7430 C   0  0  0  0  0  0  0  0  0  0  0  0
   61.8240   33.8320   47.6340 C   0  0  0  0  0  0  0  0  0  0  0  0
   60.9140   32.7910   47.8780 C   0  0  0  0  0  0  0  0  0  0  0  0
   59.5210   33.0280   47.8000 N   0  0  0  0  0  0  0  0  0  0  0  0
   58.8770   33.0580   46.7180 C   0  0  0  0  0  0  0  0  0  0  0  0
   58.2160   31.9300   46.3440 N   0  0  0  0  0  0  0  0  0  0  0  0
   57.5100   31.8950   45.2000 C   0  0  0  0  0  0  0  0  0  0  0  0
   56.8830   30.8240   44.8460 N   0  0  0  0  0  0  0  0  0  0  0  0
   57.3710   29.5250   45.1600 C   0  0  0  0  0  0  0  0  0  0  0  0
   56.4190   28.5050   45.2030 C   0  0  0  0  0  0  0  0  0  0  0  0
   56.7930   27.1930   45.5020 C   0  0  0  0  0  0  0  0  0  0  0  0
   58.1350   26.9330   45.7530 C   0  0  0  0  0  0  0  0  0  0  0  0
   58.5050   25.6270   46.0500 C   0  0  0  0  0  0  0  0  0  0  0  0
   59.8460   25.3550   46.3050 C   0  0  0  0  0  0  0  0  0  0  0  0
   60.7620   26.3900   46.2530 C   0  0  0  0  0  0  0  0  0  0  0  0
   60.4160   27.6880   45.9610 C   0  0  0  0  0  0  0  0  0  0  0  0
   59.0700   27.9470   45.7090 C   0  0  0  0  0  0  0  0  0  0  0  0
   58.6810   29.2340   45.4120 C   0  0  0  0  0  0  0  0  0  0  0  0
   57.4230   32.9550   44.3830 N   0  0  0  0  0  0  0  0  0  0  0  0
   58.0770   34.0690   44.7550 C   0  0  0  0  0  0  0  0  0  0  0  0
   58.8140   34.1580   45.9150 C   0  0  0  0  0  0  0  0  0  0  0  0
   59.6340   35.6420   46.3270 Cl  0  0  0  0  0  0  0  0  0  0  0  0
   58.8100   31.6060   48.9300 H   0  0  0  0  0  0  0  0  0  0  0  0
   63.1388   30.2897   48.6161 H   0  0  0  0  0  0  0  0  0  0  0  0
   64.7309   32.1587   48.1791 H   0  0  0  0  0  0  0  0  0  0  0  0
   63.9187   34.4105   47.5522 H   0  0  0  0  0  0  0  0  0  0  0  0
   61.4556   34.8308   47.3572 H   0  0  0  0  0  0  0  0  0  0  0  0
   58.2630   31.0850   46.9580 H   0  0  0  0  0  0  0  0  0  0  0  0
   55.3632   28.7370   44.9993 H   0  0  0  0  0  0  0  0  0  0  0  0
   56.0453   26.3869   45.5379 H   0  0  0  0  0  0  0  0  0  0  0  0
   57.7534   24.8245   46.0829 H   0  0  0  0  0  0  0  0  0  0  0  0
   60.1724   24.3322   46.5443 H   0  0  0  0  0  0  0  0  0  0  0  0
   61.8192   26.1634   46.4552 H   0  0  0  0  0  0  0  0  0  0  0  0
   61.1697   28.4885   45.9277 H   0  0  0  0  0  0  0  0  0  0  0  0
   59.4332   30.0358   45.3774 H   0  0  0  0  0  0  0  0  0  0  0  0
   56.8750   32.9050   43.5090 H   0  0  0  0  0  0  0  0  0  0  0  0
   58.0208   34.9520   44.1014 H   0  0  0  0  0  0  0  0  0  0  0  0
  1  2  2  0
  2  3  1  0
  2  4  1  0
  4  5  2  0
  5  6  1  0
  6  7  2  0
  7  8  1  0
  8  9  2  0
  9 10  1  0
 10 11  2  0
 11 12  1  0
 12 13  1  0
 13 14  2  0
 14 15  1  0
 15 16  2  0
 16 17  1  0
 17 18  2  0
 18 19  1  0
 19 20  2  0
 20 21  1  0
 21 22  2  0
 22 23  1  0
 23 24  2  0
 13 25  1  0
 25 26  1  0
 26 27  2  0
 27 28  1  0
  9  4  1  0
 27 11  1  0
 24 15  1  0
 23 18  1  0
  3 29  1  0
  5 30  1  0
  6 31  1  0
  7 32  1  0
  8 33  1  0
 12 34  1  0
 16 35  1  0
 17 36  1  0
 19 37  1  0
 20 38  1  0
 21 39  1  0
 22 40  1  0
 24 41  1  0
 25 42  1  0
 26 43  1  0
M  END
>  <smiles>  (81) 
O=C(O)c1ccccc1N=c1[nH]c(=Nc2ccc3ccccc3c2)[nH]cc1Cl

>  <score_type>  (81) 
oracle

>  <origin>  (81) 
adg

>  <m_score__min__energy>  (81) 
-10.15

>  <m_primary>  (81) 
energy

$$$$
81:0
     RDKit          3D

 73 78  0  0  0  0  0  0  0  0999 V2000
   62.8730   31.3950   49.9380 O   0  0  0  0  0  0  0  0  0  0  0  0
   61.7580   31.0310   50.3950 C   0  0  0  0  0  0  0  0  0  0  0  0
   61.4610   31.3370   51.7650 N   0  0  0  0  0  0  0  0  0  0  0  0
   60.2530   32.4370   52.3520 S   0  0  0  0  0  0  0  0  0  0  0  0
   60.6700   32.9390   53.7050 O   0  0  0  0  0  0  0  0  0  0  0  0
   60.1550   33.6120   51.4200 O   0  0  0  0  0  0  0  0  0  0  0  0
   58.6920   31.6390   52.4970 C   0  0  0  0  0  0  0  0  0  0  0  0
   58.5880   30.4150   53.1700 C   0  0  0  0  0  0  0  0  0  0  0  0
   57.3500   29.7710   53.2690 C   0  0  0  0  0  0  0  0  0  0  0  0
   56.2090   30.3550   52.7130 C   0  0  0  0  0  0  0  0  0  0  0  0
   56.3070   31.5830   52.0530 C   0  0  0  0  0  0  0  0  0  0  0  0
   57.5450   32.2250   51.9420 C   0  0  0  0  0  0  0  0  0  0  0  0
   60.8100   30.3460   49.4850 C   0  0  0  0  0  0  0  0  0  0  0  0
   59.4900   30.1180   49.9100 C   0  0  0  0  0  0  0  0  0  0  0  0
   58.5490   29.5610   49.0420 C   0  0  0  0  0  0  0  0  0  0  0  0
   58.9160   29.2020   47.7380 C   0  0  0  0  0  0  0  0  0  0  0  0
   57.9520   28.6710   46.8780 O   0  0  0  0  0  0  0  0  0  0  0  0
   57.6600   29.1820   45.6040 C   0  0  0  0  0  0  0  0  0  0  0  0
   57.6460   30.5760   45.4400 C   0  0  0  0  0  0  0  0  0  0  0  0
   57.4060   31.1420   44.1850 C   0  0  0  0  0  0  0  0  0  0  0  0
   57.6260   32.5460   43.9870 N   0  0  0  0  0  0  0  0  0  0  0  0
   57.6260   33.5130   45.0510 C   0  0  0  0  0  0  0  0  0  0  0  0
   56.7120   34.3780   45.0930 O   0  0  0  0  0  0  0  0  0  0  0  0
   58.6740   33.5010   46.1000 C   0  0  0  0  0  0  0  0  0  0  0  0
   60.0280   33.5840   45.7310 C   0  0  0  0  0  0  0  0  0  0  0  0
   61.0250   33.7110   46.7060 C   0  0  0  0  0  0  0  0  0  0  0  0
   62.3750   33.8380   46.3370 C   0  0  0  0  0  0  0  0  0  0  0  0
   63.3590   33.9820   47.3180 C   0  0  0  0  0  0  0  0  0  0  0  0
   63.0070   34.0050   48.6690 C   0  0  0  0  0  0  0  0  0  0  0  0
   61.6690   33.8780   49.0500 C   0  0  0  0  0  0  0  0  0  0  0  0
   60.6700   33.7340   48.0750 C   0  0  0  0  0  0  0  0  0  0  0  0
   59.3230   33.6150   48.4440 C   0  0  0  0  0  0  0  0  0  0  0  0
   58.3250   33.5000   47.4650 C   0  0  0  0  0  0  0  0  0  0  0  0
   56.9860   33.4190   47.8470 O   0  0  0  0  0  0  0  0  0  0  0  0
   57.0300   30.3140   43.1160 C   0  0  0  0  0  0  0  0  0  0  0  0
   57.0190   28.9320   43.2710 C   0  0  0  0  0  0  0  0  0  0  0  0
   57.3770   28.3530   44.4950 C   0  0  0  0  0  0  0  0  0  0  0  0
   57.4470   26.9320   44.6040 N   0  0  0  0  0  0  0  0  0  0  0  0
   56.5930   26.1000   45.8560 S   0  0  0  0  0  0  0  0  0  0  0  0
   57.3470   26.2680   47.1450 O   0  0  0  0  0  0  0  0  0  0  0  0
   55.2310   26.7090   46.0140 O   0  0  0  0  0  0  0  0  0  0  0  0
   56.4260   24.3870   45.4820 C   0  0  0  0  0  0  0  0  0  0  0  0
   55.9290   23.5040   46.4500 C   0  0  0  0  0  0  0  0  0  0  0  0
   55.7930   22.1430   46.1550 C   0  0  0  0  0  0  0  0  0  0  0  0
   56.1510   21.6600   44.8890 C   0  0  0  0  0  0  0  0  0  0  0  0
   55.9870   19.9540   44.5200 Cl  0  0  0  0  0  0  0  0  0  0  0  0
   56.6370   22.5410   43.9170 C   0  0  0  0  0  0  0  0  0  0  0  0
   56.7740   23.9000   44.2140 C   0  0  0  0  0  0  0  0  0  0  0  0
   60.2330   29.4300   47.2990 C   0  0  0  0  0  0  0  0  0  0  0  0
   60.7720   29.0250   45.5050 Br  0  0  0  0  0  0  0  0  0  0  0  0
   61.1630   30.0240   48.1630 C   0  0  0  0  0  0  0  0  0  0  0  0
   59.4815   29.9592   53.6216 H   0  0  0  0  0  0  0  0  0  0  0  0
   57.2747   28.8028   53.7857 H   0  0  0  0  0  0  0  0  0  0  0  0
   55.2355   29.8493   52.7946 H   0  0  0  0  0  0  0  0  0  0  0  0
   55.4082   32.0460   51.6196 H   0  0  0  0  0  0  0  0  0  0  0  0
   57.6189   33.1900   51.4191 H   0  0  0  0  0  0  0  0  0  0  0  0
   59.1953   30.3810   50.9366 H   0  0  0  0  0  0  0  0  0  0  0  0
   57.5152   29.4033   49.3831 H   0  0  0  0  0  0  0  0  0  0  0  0
   57.8255   31.2287   46.3070 H   0  0  0  0  0  0  0  0  0  0  0  0
   60.3066   33.5489   44.6674 H   0  0  0  0  0  0  0  0  0  0  0  0
   62.6573   33.8240   45.2739 H   0  0  0  0  0  0  0  0  0  0  0  0
   64.4150   34.0776   47.0251 H   0  0  0  0  0  0  0  0  0  0  0  0
   63.7863   34.1236   49.4363 H   0  0  0  0  0  0  0  0  0  0  0  0
   61.3980   33.8909   50.1160 H   0  0  0  0  0  0  0  0  0  0  0  0
   59.0466   33.6118   49.5087 H   0  0  0  0  0  0  0  0  0  0  0  0
   56.2440   33.8150   47.2780 H   0  0  0  0  0  0  0  0  0  0  0  0
   56.7430   30.7597   42.1522 H   0  0  0  0  0  0  0  0  0  0  0  0
   56.7273   28.2896   42.4270 H   0  0  0  0  0  0  0  0  0  0  0  0
   55.6453   23.8815   47.4435 H   0  0  0  0  0  0  0  0  0  0  0  0
   55.4048   21.4516   46.9174 H   0  0  0  0  0  0  0  0  0  0  0  0
   56.9110   22.1648   42.9203 H   0  0  0  0  0  0  0  0  0  0  0  0
   57.1569   24.5912   43.4488 H   0  0  0  0  0  0  0  0  0  0  0  0
   62.1796   30.2405   47.8029 H   0  0  0  0  0  0  0  0  0  0  0  0
  1  2  2  0
  2  3  1  0
  3  4  1  0
  4  5  2  0
  4  6  2  0
  4  7  1  0
  7  8  2  0
  8  9  1  0
  9 10  2  0
 10 11  1  0
 11 12  2  0
  2 13  1  0
 13 14  2  0
 14 15  1  0
 15 16  2  0
 16 17  1  0
 17 18  1  0
 18 19  2  0
 19 20  1  0
 20 21  1  0
 21 22  1  0
 22 23  2  0
 22 24  1  0
 24 25  2  0
 25 26  1  0
 26 27  2  0
 27 28  1  0
 28 29  2  0
 29 30  1  0
 30 31  2  0
 31 32  1  0
 32 33  2  0
 33 34  1  0
 20 35  2  0
 35 36  1  0
 36 37  2  0
 37 38  1  0
 38 39  1  0
 39 40  2  0
 39 41  2  0
 39 42  1  0
 42 43  2  0
 43 44  1  0
 44 45  2  0
 45 46  1  0
 45 47  1  0
 47 48  2  0
 16 49  1  0
 49 50  1  0
 49 51  2  0
 12  7  1  0
 51 13  1  0
 37 18  1  0
 48 42  1  0
 33 24  1  0
 31 26  1  0
  8 52  1  0
  9 53  1  0
 10 54  1  0
 11 55  1  0
 12 56  1  0
 14 57  1  0
 15 58  1  0
 19 59  1  0
 25 60  1  0
 27 61  1  0
 28 62  1  0
 29 63  1  0
 30 64  1  0
 32 65  1  0
 34 66  1  0
 35 67  1  0
 36 68  1  0
 43 69  1  0
 44 70  1  0
 47 71  1  0
 48 72  1  0
 51 73  1  0
M  CHG  3   3  -1  21  -1  38  -1
M  END
>  <UniqueID>  (82) 
75

>  <SMILES>  (82) 
O=C([N-]S(=O)(=O)c1ccccc1)c1ccc(Oc2cc([N-]C(=O)c3cc4ccccc4cc3O)ccc2[N-]S(=O)(=O)c2ccc(Cl)cc2)c(Br)c1

>  <Energy>  (82) 
113.93230417114452

>  <Genealogy>  (82) 
O=C([N-]S(=O)(=O)c1ccccc1)c1ccc(Oc2cc([N-]C(=O)c3cc4ccccc4cc3O)ccc2[N-]S(=O)(=O)c2ccc(Cl)cc2)c(Br)c1 (protonated)
O=C([N-]S(=O)(=O)c1ccccc1)c1ccc(Oc2cc([N-]C(=O)c3cc4ccccc4cc3O)ccc2[N-]S(=O)(=O)c2ccc(Cl)cc2)c(Br)c1 (3D coordinates assigned)
O=C([N-]S(=O)(=O)c1ccccc1)c1ccc(Oc2cc([N-]C(=O)c3cc4ccccc4cc3O)ccc2[N-]S(=O)(=O)c2ccc(Cl)cc2)c(Br)c1 (optimized conformer: 113.93230417114452 kcal/mol)

>  <smiles>  (82) 
O=C(NS(=O)(=O)c1ccccc1)c1ccc(Oc2cc(NC(=O)c3cc4ccccc4cc3O)ccc2NS(=O)(=O)c2ccc(Cl)cc2)c(Br)c1

>  <score_type>  (82) 
oracle

>  <origin>  (82) 
adg

>  <m_score__min__energy>  (82) 
-15.140000000000001

>  <m_primary>  (82) 
energy

$$$$
82:0
     RDKit          3D

 40 41  0  0  0  0  0  0  0  0999 V2000
   57.4610   24.0800   44.6620 C   0  0  0  0  0  0  0  0  0  0  0  0
   57.9040   24.1500   45.9210 C   0  0  0  0  0  0  0  0  0  0  0  0
   57.6850   25.3710   46.7700 C   0  0  0  0  0  0  0  0  0  0  0  0
   57.6630   26.5890   45.9360 N   0  0  0  0  0  0  0  0  0  0  0  0
   58.8310   27.1530   45.4820 C   0  0  0  0  0  0  0  0  0  0  0  0
   59.9480   26.6330   45.7530 O   0  0  0  0  0  0  0  0  0  0  0  0
   58.8000   28.3160   44.7120 C   0  0  0  0  0  0  0  0  0  0  0  0
   57.5660   28.8950   44.4120 C   0  0  0  0  0  0  0  0  0  0  0  0
   57.4890   30.1200   43.6610 N   0  0  0  0  0  0  0  0  0  0  0  0
   57.7930   31.2300   44.5270 C   0  0  0  0  0  0  0  0  0  0  0  0
   57.7960   32.5400   44.0290 C   0  0  0  0  0  0  0  0  0  0  0  0
   58.1370   33.6110   44.8560 C   0  0  0  0  0  0  0  0  0  0  0  0
   58.4930   33.3960   46.1990 C   0  0  0  0  0  0  0  0  0  0  0  0
   58.8480   34.5820   47.0560 C   0  0  0  0  0  0  0  0  0  0  0  0
   58.4830   32.0760   46.7160 C   0  0  0  0  0  0  0  0  0  0  0  0
   58.8850   31.7640   48.1400 C   0  0  0  0  0  0  0  0  0  0  0  0
   59.2210   30.2840   48.2970 C   0  0  0  0  0  0  0  0  0  0  0  0
   58.1470   31.0070   45.8680 C   0  0  0  0  0  0  0  0  0  0  0  0
   56.4320   28.3240   44.8920 N   0  0  0  0  0  0  0  0  0  0  0  0
   56.4640   27.1910   45.6390 C   0  0  0  0  0  0  0  0  0  0  0  0
   55.3790   26.7080   46.0590 O   0  0  0  0  0  0  0  0  0  0  0  0
   57.6374   23.1721   44.0666 H   0  0  0  0  0  0  0  0  0  0  0  0
   56.9200   24.9303   44.2212 H   0  0  0  0  0  0  0  0  0  0  0  0
   58.4432   23.2912   46.3473 H   0  0  0  0  0  0  0  0  0  0  0  0
   56.7241   25.2768   47.2971 H   0  0  0  0  0  0  0  0  0  0  0  0
   58.5102   25.4520   47.4928 H   0  0  0  0  0  0  0  0  0  0  0  0
   59.7334   28.7695   44.3471 H   0  0  0  0  0  0  0  0  0  0  0  0
   58.1540   30.0910   42.8520 H   0  0  0  0  0  0  0  0  0  0  0  0
   56.5260   30.2270   43.2650 H   0  0  0  0  0  0  0  0  0  0  0  0
   57.5276   32.7253   42.9785 H   0  0  0  0  0  0  0  0  0  0  0  0
   58.1272   34.6344   44.4528 H   0  0  0  0  0  0  0  0  0  0  0  0
   58.7652   34.3053   48.1174 H   0  0  0  0  0  0  0  0  0  0  0  0
   59.8795   34.8960   46.8383 H   0  0  0  0  0  0  0  0  0  0  0  0
   58.1587   35.4111   46.8383 H   0  0  0  0  0  0  0  0  0  0  0  0
   59.7679   32.3642   48.4051 H   0  0  0  0  0  0  0  0  0  0  0  0
   58.0430   32.0065   48.8049 H   0  0  0  0  0  0  0  0  0  0  0  0
   59.2781   30.0324   49.3663 H   0  0  0  0  0  0  0  0  0  0  0  0
   58.4377   29.6774   47.8189 H   0  0  0  0  0  0  0  0  0  0  0  0
   60.1894   30.0751   47.8189 H   0  0  0  0  0  0  0  0  0  0  0  0
   58.1614   29.9795   46.2604 H   0  0  0  0  0  0  0  0  0  0  0  0
  1  2  2  0
  2  3  1  0
  3  4  1  0
  4  5  1  0
  5  6  2  0
  5  7  1  0
  7  8  2  0
  8  9  1  0
  9 10  1  0
 10 11  2  0
 11 12  1  0
 12 13  2  0
 13 14  1  0
 13 15  1  0
 15 16  1  0
 16 17  1  0
 15 18  2  0
  8 19  1  0
 19 20  1  0
 20 21  2  0
 20  4  1  0
 18 10  1  0
  1 22  1  0
  1 23  1  0
  2 24  1  0
  3 25  1  0
  3 26  1  0
  7 27  1  0
  9 28  1  0
  9 29  1  0
 11 30  1  0
 12 31  1  0
 14 32  1  0
 14 33  1  0
 14 34  1  0
 16 35  1  0
 16 36  1  0
 17 37  1  0
 17 38  1  0
 17 39  1  0
 18 40  1  0
M  CHG  2   9   1  19  -1
M  END
>  <UniqueID>  (83) 
76

>  <SMILES>  (83) 
C=CCn1c(=O)cc([NH2+]c2ccc(C)c(CC)c2)[n-]c1=O

>  <Energy>  (83) 
40.478302141774755

>  <Genealogy>  (83) 
C=CCn1c(=O)cc([NH2+]c2ccc(C)c(CC)c2)[n-]c1=O (protonated)
C=CCn1c(=O)cc([NH2+]c2ccc(C)c(CC)c2)[n-]c1=O (3D coordinates assigned)
C=CCn1c(=O)cc([NH2+]c2ccc(C)c(CC)c2)[n-]c1=O (optimized conformer: 40.478302141774755 kcal/mol)

>  <smiles>  (83) 
C=CCn1c(=O)cc(Nc2ccc(C)c(CC)c2)[nH]c1=O

>  <score_type>  (83) 
oracle

>  <origin>  (83) 
adg

>  <m_score__min__energy>  (83) 
-7.2000000000000002

>  <m_primary>  (83) 
energy

$$$$
83:0
     RDKit          3D

 70 75  0  0  0  0  0  0  0  0999 V2000
   64.1820   31.0560   51.2780 O   0  0  0  0  0  0  0  0  0  0  0  0
   64.2360   31.6300   50.1590 C   0  0  0  0  0  0  0  0  0  0  0  0
   65.4820   32.2140   49.7470 N   0  0  0  0  0  0  0  0  0  0  0  0
   66.1990   33.1070   50.3730 C   0  0  0  0  0  0  0  0  0  0  0  0
   65.6560   34.0020   51.3170 C   0  0  0  0  0  0  0  0  0  0  0  0
   66.4740   34.9640   51.9290 C   0  0  0  0  0  0  0  0  0  0  0  0
   65.8990   35.9200   52.9420 C   0  0  0  0  0  0  0  0  0  0  0  0
   64.5610   36.1630   52.6870 F   0  0  0  0  0  0  0  0  0  0  0  0
   66.0050   35.3950   54.2160 F   0  0  0  0  0  0  0  0  0  0  0  0
   66.5900   37.1140   52.8810 F   0  0  0  0  0  0  0  0  0  0  0  0
   67.8470   34.9570   51.6520 C   0  0  0  0  0  0  0  0  0  0  0  0
   68.3580   34.0330   50.7450 C   0  0  0  0  0  0  0  0  0  0  0  0
   67.5350   33.1460   50.1280 N   0  0  0  0  0  0  0  0  0  0  0  0
   63.0370   31.6380   49.2870 C   0  0  0  0  0  0  0  0  0  0  0  0
   63.0950   32.2290   48.0180 C   0  0  0  0  0  0  0  0  0  0  0  0
   62.0190   32.1050   47.1380 C   0  0  0  0  0  0  0  0  0  0  0  0
   60.8620   31.4070   47.5150 C   0  0  0  0  0  0  0  0  0  0  0  0
   59.7630   31.2930   46.5390 C   0  0  0  0  0  0  0  0  0  0  0  0
   58.8380   32.3410   46.3930 C   0  0  0  0  0  0  0  0  0  0  0  0
   57.7760   32.2180   45.4940 C   0  0  0  0  0  0  0  0  0  0  0  0
   57.6340   31.0490   44.7290 C   0  0  0  0  0  0  0  0  0  0  0  0
   56.5680   30.8940   43.8340 C   0  0  0  0  0  0  0  0  0  0  0  0
   56.4370   29.7340   43.1220 N   0  0  0  0  0  0  0  0  0  0  0  0
   57.3220   28.7110   43.2450 C   0  0  0  0  0  0  0  0  0  0  0  0
   58.4060   28.8200   44.1180 C   0  0  0  0  0  0  0  0  0  0  0  0
   58.5660   29.9930   44.8720 C   0  0  0  0  0  0  0  0  0  0  0  0
   59.6270   30.1220   45.7750 C   0  0  0  0  0  0  0  0  0  0  0  0
   60.7650   30.8670   48.8210 C   0  0  0  0  0  0  0  0  0  0  0  0
   59.5450   30.1800   49.3040 C   0  0  0  0  0  0  0  0  0  0  0  0
   58.5650   30.8690   49.6900 O   0  0  0  0  0  0  0  0  0  0  0  0
   59.4800   28.7450   49.3050 N   0  0  0  0  0  0  0  0  0  0  0  0
   59.3840   27.8710   48.1680 C   0  0  0  0  0  0  0  0  0  0  0  0
   60.5430   27.2080   47.7400 C   0  0  0  0  0  0  0  0  0  0  0  0
   60.5100   26.3630   46.6300 C   0  0  0  0  0  0  0  0  0  0  0  0
   59.3140   26.1630   45.9400 C   0  0  0  0  0  0  0  0  0  0  0  0
   58.1320   26.8020   46.3640 C   0  0  0  0  0  0  0  0  0  0  0  0
   56.8800   26.6100   45.6800 N   0  0  0  0  0  0  0  0  0  0  0  0
   55.8440   25.2510   45.9670 S   0  0  0  0  0  0  0  0  0  0  0  0
   54.4270   25.6200   45.6380 O   0  0  0  0  0  0  0  0  0  0  0  0
   55.9210   24.8640   47.4190 O   0  0  0  0  0  0  0  0  0  0  0  0
   56.3390   23.9220   44.9220 C   0  0  0  0  0  0  0  0  0  0  0  0
   57.4080   23.0960   45.3090 C   0  0  0  0  0  0  0  0  0  0  0  0
   57.8140   22.0380   44.4890 C   0  0  0  0  0  0  0  0  0  0  0  0
   57.1560   21.8060   43.2740 C   0  0  0  0  0  0  0  0  0  0  0  0
   57.5360   20.7750   42.4810 F   0  0  0  0  0  0  0  0  0  0  0  0
   56.0890   22.6230   42.8840 C   0  0  0  0  0  0  0  0  0  0  0  0
   55.6790   23.6790   43.7060 C   0  0  0  0  0  0  0  0  0  0  0  0
   58.1680   27.6340   47.4990 C   0  0  0  0  0  0  0  0  0  0  0  0
   61.8560   30.9960   49.6970 C   0  0  0  0  0  0  0  0  0  0  0  0
   64.5881   33.9462   51.5746 H   0  0  0  0  0  0  0  0  0  0  0  0
   68.5161   35.6760   52.1473 H   0  0  0  0  0  0  0  0  0  0  0  0
   69.4360   34.0211   50.5264 H   0  0  0  0  0  0  0  0  0  0  0  0
   63.9902   32.7917   47.7148 H   0  0  0  0  0  0  0  0  0  0  0  0
   62.0787   32.5594   46.1380 H   0  0  0  0  0  0  0  0  0  0  0  0
   58.9505   33.2596   46.9876 H   0  0  0  0  0  0  0  0  0  0  0  0
   57.0503   33.0375   45.3852 H   0  0  0  0  0  0  0  0  0  0  0  0
   55.8364   31.7051   43.7039 H   0  0  0  0  0  0  0  0  0  0  0  0
   57.1841   27.7932   42.6545 H   0  0  0  0  0  0  0  0  0  0  0  0
   59.1273   27.9951   44.2139 H   0  0  0  0  0  0  0  0  0  0  0  0
   60.3555   29.3055   45.8868 H   0  0  0  0  0  0  0  0  0  0  0  0
   61.4874   27.3554   48.2845 H   0  0  0  0  0  0  0  0  0  0  0  0
   61.4274   25.8543   46.2989 H   0  0  0  0  0  0  0  0  0  0  0  0
   59.2937   25.5029   45.0603 H   0  0  0  0  0  0  0  0  0  0  0  0
   56.6490   27.2170   44.8640 H   0  0  0  0  0  0  0  0  0  0  0  0
   57.9276   23.2822   46.2605 H   0  0  0  0  0  0  0  0  0  0  0  0
   58.6476   21.3899   44.7972 H   0  0  0  0  0  0  0  0  0  0  0  0
   55.5724   22.4353   41.9312 H   0  0  0  0  0  0  0  0  0  0  0  0
   54.8389   24.3195   43.3994 H   0  0  0  0  0  0  0  0  0  0  0  0
   57.2418   28.1011   47.8649 H   0  0  0  0  0  0  0  0  0  0  0  0
   61.7848   30.5893   50.7166 H   0  0  0  0  0  0  0  0  0  0  0  0
  1  2  2  0
  2  3  1  0
  3  4  2  3
  4  5  1  0
  5  6  2  0
  6  7  1  0
  7  8  1  0
  7  9  1  0
  7 10  1  0
  6 11  1  0
 11 12  2  0
 12 13  1  0
  2 14  1  0
 14 15  2  0
 15 16  1  0
 16 17  2  0
 17 18  1  0
 18 19  2  0
 19 20  1  0
 20 21  2  0
 21 22  1  0
 22 23  2  0
 23 24  1  0
 24 25  2  0
 25 26  1  0
 26 27  2  0
 17 28  1  0
 28 29  1  0
 29 30  2  0
 29 31  1  0
 31 32  1  0
 32 33  2  0
 33 34  1  0
 34 35  2  0
 35 36  1  0
 36 37  1  0
 37 38  1  0
 38 39  2  0
 38 40  2  0
 38 41  1  0
 41 42  2  0
 42 43  1  0
 43 44  2  0
 44 45  1  0
 44 46  1  0
 46 47  2  0
 36 48  2  0
 28 49  2  0
 13  4  1  0
 49 14  1  0
 27 18  1  0
 48 32  1  0
 26 21  1  0
 47 41  1  0
  5 50  1  0
 11 51  1  0
 12 52  1  0
 15 53  1  0
 16 54  1  0
 19 55  1  0
 20 56  1  0
 22 57  1  0
 24 58  1  0
 25 59  1  0
 27 60  1  0
 33 61  1  0
 34 62  1  0
 35 63  1  0
 37 64  1  0
 42 65  1  0
 43 66  1  0
 46 67  1  0
 47 68  1  0
 48 69  1  0
 49 70  1  0
M  CHG  2  13  -1  31  -1
M  END
>  <UniqueID>  (84) 
77

>  <SMILES>  (84) 
O=C(N=c1cc(C(F)(F)F)cc[n-]1)c1ccc(-c2ccc3cnccc3c2)c(C(=O)[N-]c2cccc(NS(=O)(=O)c3ccc(F)cc3)c2)c1

>  <Energy>  (84) 
113.26367651747813

>  <Genealogy>  (84) 
O=C(N=c1cc(C(F)(F)F)cc[n-]1)c1ccc(-c2ccc3cnccc3c2)c(C(=O)[N-]c2cccc(NS(=O)(=O)c3ccc(F)cc3)c2)c1 (protonated)
O=C(N=c1cc(C(F)(F)F)cc[n-]1)c1ccc(-c2ccc3cnccc3c2)c(C(=O)[N-]c2cccc(NS(=O)(=O)c3ccc(F)cc3)c2)c1 (3D coordinates assigned)
O=C(N=c1cc(C(F)(F)F)cc[n-]1)c1ccc(-c2ccc3cnccc3c2)c(C(=O)[N-]c2cccc(NS(=O)(=O)c3ccc(F)cc3)c2)c1 (optimized conformer: 113.26367651747813 kcal/mol)

>  <smiles>  (84) 
O=C(N=c1cc(C(F)(F)F)cc[nH]1)c1ccc(-c2ccc3cnccc3c2)c(C(=O)Nc2cccc(NS(=O)(=O)c3ccc(F)cc3)c2)c1

>  <score_type>  (84) 
oracle

>  <origin>  (84) 
adg

>  <m_score__min__energy>  (84) 
-15.460000000000001

>  <m_primary>  (84) 
energy

$$$$
84:0
     RDKit          3D

 53 57  0  0  0  0  0  0  0  0999 V2000
   59.3450   27.5360   48.1070 C   0  0  0  0  0  0  0  0  0  0  0  0
   58.1030   27.2660   47.4660 O   0  0  0  0  0  0  0  0  0  0  0  0
   57.9350   26.3630   46.4010 C   0  0  0  0  0  0  0  0  0  0  0  0
   57.8050   24.9740   46.6150 C   0  0  0  0  0  0  0  0  0  0  0  0
   57.6140   24.1060   45.5350 C   0  0  0  0  0  0  0  0  0  0  0  0
   57.5480   24.6100   44.2340 C   0  0  0  0  0  0  0  0  0  0  0  0
   57.6790   25.9820   44.0080 C   0  0  0  0  0  0  0  0  0  0  0  0
   57.8800   26.8650   45.0840 C   0  0  0  0  0  0  0  0  0  0  0  0
   58.0170   28.2750   44.8330 N   0  0  0  0  0  0  0  0  0  0  0  0
   57.1390   28.9150   43.8440 C   0  0  0  0  0  0  0  0  0  0  0  0
   56.8670   30.3940   44.1910 C   0  0  0  0  0  0  0  0  0  0  0  0
   57.8950   30.9870   45.0770 N   0  0  0  0  0  0  0  0  0  0  0  0
   57.8660   32.4680   45.1030 C   0  0  0  0  0  0  0  0  0  0  0  0
   58.7670   33.0860   46.1540 C   0  0  0  0  0  0  0  0  0  0  0  0
   58.2160   33.6920   47.2980 C   0  0  0  0  0  0  0  0  0  0  0  0
   59.0470   34.2650   48.2650 C   0  0  0  0  0  0  0  0  0  0  0  0
   60.4360   34.2190   48.1190 C   0  0  0  0  0  0  0  0  0  0  0  0
   60.9940   33.6450   46.9630 C   0  0  0  0  0  0  0  0  0  0  0  0
   60.1640   33.0570   46.0010 C   0  0  0  0  0  0  0  0  0  0  0  0
   62.7470   33.8310   46.6210 S   0  0  0  0  0  0  0  0  0  0  0  0
   63.2770   33.5980   48.3210 C   0  0  0  0  0  0  0  0  0  0  0  0
   64.4960   32.9600   48.5850 C   0  0  0  0  0  0  0  0  0  0  0  0
   65.0090   32.9400   49.8870 C   0  0  0  0  0  0  0  0  0  0  0  0
   64.3110   33.5680   50.9220 C   0  0  0  0  0  0  0  0  0  0  0  0
   63.0840   34.1900   50.6670 C   0  0  0  0  0  0  0  0  0  0  0  0
   62.5460   34.1770   49.3750 C   0  0  0  0  0  0  0  0  0  0  0  0
   61.2500   34.6680   49.1690 O   0  0  0  0  0  0  0  0  0  0  0  0
   59.2360   30.4250   44.8530 C   0  0  0  0  0  0  0  0  0  0  0  0
   59.2330   28.9610   45.2920 C   0  0  0  0  0  0  0  0  0  0  0  0
   59.2086   27.5063   49.1981 H   0  0  0  0  0  0  0  0  0  0  0  0
   60.0839   26.7775   47.8091 H   0  0  0  0  0  0  0  0  0  0  0  0
   59.7023   28.5328   47.8091 H   0  0  0  0  0  0  0  0  0  0  0  0
   57.8542   24.5716   47.6376 H   0  0  0  0  0  0  0  0  0  0  0  0
   57.5156   23.0246   45.7105 H   0  0  0  0  0  0  0  0  0  0  0  0
   57.3927   23.9258   43.3868 H   0  0  0  0  0  0  0  0  0  0  0  0
   57.6246   26.3745   42.9818 H   0  0  0  0  0  0  0  0  0  0  0  0
   57.6191   28.8637   42.8556 H   0  0  0  0  0  0  0  0  0  0  0  0
   56.1772   28.3812   43.8446 H   0  0  0  0  0  0  0  0  0  0  0  0
   56.8368   30.9721   43.2557 H   0  0  0  0  0  0  0  0  0  0  0  0
   55.9102   30.4307   44.7324 H   0  0  0  0  0  0  0  0  0  0  0  0
   58.1824   32.8372   44.1163 H   0  0  0  0  0  0  0  0  0  0  0  0
   56.8363   32.7609   45.3558 H   0  0  0  0  0  0  0  0  0  0  0  0
   57.1245   33.7150   47.4323 H   0  0  0  0  0  0  0  0  0  0  0  0
   58.6053   34.7546   49.1454 H   0  0  0  0  0  0  0  0  0  0  0  0
   60.6077   32.5695   45.1204 H   0  0  0  0  0  0  0  0  0  0  0  0
   65.0503   32.4744   47.7684 H   0  0  0  0  0  0  0  0  0  0  0  0
   65.9612   32.4302   50.0955 H   0  0  0  0  0  0  0  0  0  0  0  0
   64.7274   33.5733   51.9401 H   0  0  0  0  0  0  0  0  0  0  0  0
   62.5415   34.6899   51.4830 H   0  0  0  0  0  0  0  0  0  0  0  0
   59.4913   30.4907   43.7851 H   0  0  0  0  0  0  0  0  0  0  0  0
   59.9807   30.9890   45.4337 H   0  0  0  0  0  0  0  0  0  0  0  0
   60.1129   28.4563   44.8665 H   0  0  0  0  0  0  0  0  0  0  0  0
   59.2615   28.9251   46.3910 H   0  0  0  0  0  0  0  0  0  0  0  0
  1  2  1  0
  2  3  1  0
  3  4  2  0
  4  5  1  0
  5  6  2  0
  6  7  1  0
  7  8  2  0
  8  9  1  0
  9 10  1  0
 10 11  1  0
 11 12  1  0
 12 13  1  0
 13 14  1  0
 14 15  2  0
 15 16  1  0
 16 17  2  0
 17 18  1  0
 18 19  2  0
 18 20  1  0
 20 21  1  0
 21 22  2  0
 22 23  1  0
 23 24  2  0
 24 25  1  0
 25 26  2  0
 26 27  1  0
 12 28  1  0
 28 29  1  0
  8  3  1  0
 29  9  1  0
 19 14  1  0
 26 21  1  0
 27 17  1  0
  1 30  1  0
  1 31  1  0
  1 32  1  0
  4 33  1  0
  5 34  1  0
  6 35  1  0
  7 36  1  0
 10 37  1  0
 10 38  1  0
 11 39  1  0
 11 40  1  0
 13 41  1  0
 13 42  1  0
 15 43  1  0
 16 44  1  0
 19 45  1  0
 22 46  1  0
 23 47  1  0
 24 48  1  0
 25 49  1  0
 28 50  1  0
 28 51  1  0
 29 52  1  0
 29 53  1  0
M  END
>  <UniqueID>  (85) 
78

>  <SMILES>  (85) 
COc1ccccc1N1CCN(Cc2ccc3c(c2)Sc2ccccc2O3)CC1

>  <Energy>  (85) 
87.48200327854566

>  <Genealogy>  (85) 
COc1ccccc1N1CCN(Cc2ccc3c(c2)Sc2ccccc2O3)CC1 (3D coordinates assigned)
COc1ccccc1N1CCN(Cc2ccc3c(c2)Sc2ccccc2O3)CC1 (nonaromatic ring conformer: 87.48200327854566 kcal/mol)

>  <smiles>  (85) 
COc1ccccc1N1CCN(Cc2ccc3c(c2)Sc2ccccc2O3)CC1

>  <score_type>  (85) 
oracle

>  <origin>  (85) 
adg

>  <m_score__min__energy>  (85) 
-8.5899999999999999

>  <m_primary>  (85) 
energy

$$$$
85:0
     RDKit          3D

 47 50  0  0  0  0  0  0  0  0999 V2000
   59.3230   30.8380   49.3280 C   0  0  0  0  0  0  0  0  0  0  0  0
   58.5860   32.1740   49.3660 C   0  0  0  0  0  0  0  0  0  0  0  0
   59.3390   33.1980   50.2110 C   0  0  0  0  0  0  0  0  0  0  0  0
   60.1210   34.0280   49.3550 O   0  0  0  0  0  0  0  0  0  0  0  0
   61.3840   33.6880   48.8440 C   0  0  0  0  0  0  0  0  0  0  0  0
   62.4460   33.3040   49.6890 C   0  0  0  0  0  0  0  0  0  0  0  0
   63.6880   32.9610   49.1520 C   0  0  0  0  0  0  0  0  0  0  0  0
   63.8900   33.0030   47.7740 C   0  0  0  0  0  0  0  0  0  0  0  0
   62.8500   33.3830   46.9240 C   0  0  0  0  0  0  0  0  0  0  0  0
   61.5890   33.7200   47.4480 C   0  0  0  0  0  0  0  0  0  0  0  0
   60.5010   34.1400   46.5390 C   0  0  0  0  0  0  0  0  0  0  0  0
   60.3200   35.4170   46.1170 N   0  0  0  0  0  0  0  0  0  0  0  0
   59.2670   35.4470   45.3090 N   0  0  0  0  0  0  0  0  0  0  0  0
   58.7700   34.2050   45.2120 C   0  0  0  0  0  0  0  0  0  0  0  0
   57.6520   33.7810   44.5010 C   0  0  0  0  0  0  0  0  0  0  0  0
   57.2980   32.4230   44.5880 C   0  0  0  0  0  0  0  0  0  0  0  0
   58.0610   31.5210   45.3810 C   0  0  0  0  0  0  0  0  0  0  0  0
   57.6650   30.0970   45.5010 C   0  0  0  0  0  0  0  0  0  0  0  0
   56.4770   29.7700   45.2280 O   0  0  0  0  0  0  0  0  0  0  0  0
   58.6150   29.0430   45.9340 C   0  0  0  0  0  0  0  0  0  0  0  0
   58.3020   28.1810   47.0010 C   0  0  0  0  0  0  0  0  0  0  0  0
   59.1980   27.1790   47.3880 C   0  0  0  0  0  0  0  0  0  0  0  0
   60.4090   27.0220   46.7080 C   0  0  0  0  0  0  0  0  0  0  0  0
   60.7220   27.8620   45.6370 C   0  0  0  0  0  0  0  0  0  0  0  0
   59.8280   28.8640   45.2470 C   0  0  0  0  0  0  0  0  0  0  0  0
   59.1780   32.0010   46.1030 C   0  0  0  0  0  0  0  0  0  0  0  0
   59.5130   33.3490   45.9730 C   0  0  0  0  0  0  0  0  0  0  0  0
   59.5125   30.4944   50.3556 H   0  0  0  0  0  0  0  0  0  0  0  0
   58.7074   30.0945   48.8005 H   0  0  0  0  0  0  0  0  0  0  0  0
   60.2802   30.9622   48.8005 H   0  0  0  0  0  0  0  0  0  0  0  0
   58.4878   32.5585   48.3401 H   0  0  0  0  0  0  0  0  0  0  0  0
   57.5958   32.0120   49.8169 H   0  0  0  0  0  0  0  0  0  0  0  0
   58.6193   33.8171   50.7667 H   0  0  0  0  0  0  0  0  0  0  0  0
   59.9966   32.6778   50.9230 H   0  0  0  0  0  0  0  0  0  0  0  0
   62.2946   33.2746   50.7781 H   0  0  0  0  0  0  0  0  0  0  0  0
   64.5089   32.6569   49.8181 H   0  0  0  0  0  0  0  0  0  0  0  0
   64.8714   32.7361   47.3549 H   0  0  0  0  0  0  0  0  0  0  0  0
   63.0177   33.4191   45.8375 H   0  0  0  0  0  0  0  0  0  0  0  0
   58.9000   36.3080   44.8460 H   0  0  0  0  0  0  0  0  0  0  0  0
   57.0651   34.4840   43.8916 H   0  0  0  0  0  0  0  0  0  0  0  0
   56.4209   32.0536   44.0365 H   0  0  0  0  0  0  0  0  0  0  0  0
   57.3467   28.2957   47.5342 H   0  0  0  0  0  0  0  0  0  0  0  0
   58.9493   26.5140   48.2282 H   0  0  0  0  0  0  0  0  0  0  0  0
   61.1153   26.2371   47.0163 H   0  0  0  0  0  0  0  0  0  0  0  0
   61.6733   27.7352   45.0994 H   0  0  0  0  0  0  0  0  0  0  0  0
   60.0758   29.5165   44.3968 H   0  0  0  0  0  0  0  0  0  0  0  0
   59.7655   31.3312   46.7482 H   0  0  0  0  0  0  0  0  0  0  0  0
  1  2  1  0
  2  3  1  0
  3  4  1  0
  4  5  1  0
  5  6  2  0
  6  7  1  0
  7  8  2  0
  8  9  1  0
  9 10  2  0
 10 11  1  0
 11 12  2  0
 12 13  1  0
 13 14  1  0
 14 15  2  0
 15 16  1  0
 16 17  2  0
 17 18  1  0
 18 19  2  0
 18 20  1  0
 20 21  2  0
 21 22  1  0
 22 23  2  0
 23 24  1  0
 24 25  2  0
 17 26  1  0
 26 27  2  0
 10  5  1  0
 27 11  1  0
 27 14  1  0
 25 20  1  0
  1 28  1  0
  1 29  1  0
  1 30  1  0
  2 31  1  0
  2 32  1  0
  3 33  1  0
  3 34  1  0
  6 35  1  0
  7 36  1  0
  8 37  1  0
  9 38  1  0
 13 39  1  0
 15 40  1  0
 16 41  1  0
 21 42  1  0
 22 43  1  0
 23 44  1  0
 24 45  1  0
 25 46  1  0
 26 47  1  0
M  END
>  <UniqueID>  (86) 
79

>  <SMILES>  (86) 
CCCOc1ccccc1-c1n[nH]c2ccc(C(=O)c3ccccc3)cc12

>  <Energy>  (86) 
95.4682846623299

>  <Genealogy>  (86) 
CCCOc1ccccc1-c1n[nH]c2ccc(C(=O)c3ccccc3)cc12 (3D coordinates assigned)
CCCOc1ccccc1-c1n[nH]c2ccc(C(=O)c3ccccc3)cc12 (optimized conformer: 95.4682846623299 kcal/mol)

>  <smiles>  (86) 
CCCOc1ccccc1-c1n[nH]c2ccc(C(=O)c3ccccc3)cc12

>  <score_type>  (86) 
oracle

>  <origin>  (86) 
adg

>  <m_score__min__energy>  (86) 
-9.7100000000000009

>  <m_primary>  (86) 
energy

$$$$
86:0
     RDKit          3D

 47 50  0  0  1  0  0  0  0  0999 V2000
   64.0070   31.9060   49.9620 C   0  0  0  0  0  0  0  0  0  0  0  0
   63.3530   32.5000   48.7490 C   0  0  0  0  0  0  0  0  0  0  0  0
   64.0790   33.2900   47.8810 C   0  0  0  0  0  0  0  0  0  0  0  0
   63.4500   33.8100   46.7900 C   0  0  0  0  0  0  0  0  0  0  0  0
   62.0990   33.5710   46.5260 C   0  0  0  0  0  0  0  0  0  0  0  0
   61.3580   32.7590   47.4220 C   0  0  0  0  0  0  0  0  0  0  0  0
   60.0180   32.5850   47.2720 N   0  0  0  0  0  0  0  0  0  0  0  0
   59.1880   32.8570   46.3950 C   0  0  0  0  0  0  0  0  0  0  0  0
   58.9830   34.1760   46.1060 N   0  0  0  0  0  0  0  0  0  0  0  0
   58.0910   34.4900   45.1620 C   0  0  0  0  0  0  0  0  0  0  0  0
   57.3840   33.5780   44.4780 N   0  0  0  0  0  0  0  0  0  0  0  0
   57.6060   32.2850   44.7840 C   0  0  0  0  0  0  0  0  0  0  0  0
   56.8900   31.3480   44.0940 C   0  0  0  0  0  0  0  0  0  0  0  0
   57.1030   30.0210   44.3910 C   0  0  0  0  0  0  0  0  0  0  0  0
   57.9710   29.5460   45.3210 C   0  0  0  0  0  0  0  0  0  0  0  0
   58.2050   28.1870   45.6430 N   0  0  0  0  0  0  0  0  0  0  0  0
   57.2480   27.1800   45.7790 C   0  0  0  0  0  0  0  0  0  0  0  0
   56.0600   27.4150   45.6200 O   0  0  0  0  0  0  0  0  0  0  0  0
   57.6220   25.8260   46.1120 N   0  0  0  0  0  0  0  0  0  0  0  0
   56.5800   24.8530   46.2340 C   0  0  0  0  0  0  0  0  0  0  0  0
   56.2730   24.2390   47.4290 C   0  0  0  0  0  0  0  0  0  0  0  0
   55.2350   23.3080   47.4140 C   0  0  0  0  0  0  0  0  0  0  0  0
   54.5430   23.0150   46.2420 C   0  0  0  0  0  0  0  0  0  0  0  0
   54.8680   23.6420   45.0580 C   0  0  0  0  0  0  0  0  0  0  0  0
   55.8930   24.5670   45.0520 C   0  0  0  0  0  0  0  0  0  0  0  0
   58.6960   30.5450   46.0160 C   0  0  0  0  0  0  0  0  0  0  0  0
   58.5050   31.8720   45.7430 C   0  0  0  0  0  0  0  0  0  0  0  0
   62.0270   32.2240   48.5530 C   0  0  0  0  0  0  0  0  0  0  0  0
   63.5462   32.3245   50.8690 H   0  0  0  0  0  0  0  0  0  0  0  0
   63.8732   30.8142   49.9531 H   0  0  0  0  0  0  0  0  0  0  0  0
   65.0809   32.1439   49.9531 H   0  0  0  0  0  0  0  0  0  0  0  0
   65.1436   33.4956   48.0662 H   0  0  0  0  0  0  0  0  0  0  0  0
   64.0248   34.4387   46.0941 H   0  0  0  0  0  0  0  0  0  0  0  0
   61.6178   34.0057   45.6375 H   0  0  0  0  0  0  0  0  0  0  0  0
   57.9276   35.5535   44.9335 H   0  0  0  0  0  0  0  0  0  0  0  0
   56.6790   33.8480   43.7300 H   0  0  0  0  0  0  0  0  0  0  0  0
   56.1640   31.6457   43.3231 H   0  0  0  0  0  0  0  0  0  0  0  0
   56.5188   29.2802   43.8253 H   0  0  0  0  0  0  0  0  0  0  0  0
   59.2180   27.8660   45.8050 H   0  0  0  0  0  0  0  0  0  0  0  0
   58.6330   25.5970   46.2540 H   0  0  0  0  0  0  0  0  0  0  0  0
   56.8221   24.4728   48.3530 H   0  0  0  0  0  0  0  0  0  0  0  0
   54.9574   22.7949   48.3466 H   0  0  0  0  0  0  0  0  0  0  0  0
   53.7287   22.2757   46.2609 H   0  0  0  0  0  0  0  0  0  0  0  0
   54.3197   23.4092   44.1333 H   0  0  0  0  0  0  0  0  0  0  0  0
   56.1682   25.0780   44.1176 H   0  0  0  0  0  0  0  0  0  0  0  0
   59.4233   30.2495   46.7865 H   0  0  0  0  0  0  0  0  0  0  0  0
   61.4826   31.5905   49.2688 H   0  0  0  0  0  0  0  0  0  0  0  0
  1  2  1  0
  2  3  2  0
  3  4  1  0
  4  5  2  0
  5  6  1  0
  6  7  1  0
  7  8  2  0
  8  9  1  0
  9 10  2  0
 10 11  1  0
 11 12  1  0
 12 13  2  0
 13 14  1  0
 14 15  2  0
 15 16  1  0
 16 17  1  0
 17 18  2  0
 17 19  1  0
 19 20  1  0
 20 21  2  0
 21 22  1  0
 22 23  2  0
 23 24  1  0
 24 25  2  0
 15 26  1  0
 26 27  2  0
  6 28  2  0
 28  2  1  0
 27  8  1  0
 27 12  1  0
 25 20  1  0
  1 29  1  0
  1 30  1  0
  1 31  1  0
  3 32  1  0
  4 33  1  0
  5 34  1  0
 10 35  1  0
 11 36  1  0
 13 37  1  0
 14 38  1  0
 16 39  1  0
 19 40  1  0
 21 41  1  0
 22 42  1  0
 23 43  1  0
 24 44  1  0
 25 45  1  0
 26 46  1  0
 28 47  1  0
M  END
>  <smiles>  (87) 
Cc1cccc(N=c2nc[nH]c3ccc(NC(=O)Nc4ccccc4)cc23)c1

>  <score_type>  (87) 
oracle

>  <origin>  (87) 
adg

>  <m_score__min__energy>  (87) 
-9.0600000000000005

>  <m_primary>  (87) 
energy

$$$$
87:0
     RDKit          3D

 36 37  0  0  0  0  0  0  0  0999 V2000
   57.6780   34.0011   48.0389 H   0  0  0  0  0  0  0  0  0  0  0  0
   58.6010   33.8500   47.4600 C   0  0  0  0  0  0  0  0  0  0  0  0
   58.6050   32.8320   46.3940 C   0  0  0  0  0  0  0  0  0  0  0  0
   58.9350   31.6520   46.6870 O   0  0  0  0  0  0  0  0  0  0  0  0
   58.2480   33.1580   45.0420 N   0  0  0  0  0  0  0  0  0  0  0  0
   58.5090   34.0960   44.6640 H   0  0  0  0  0  0  0  0  0  0  0  0
   57.6370   32.2100   44.1540 C   0  0  0  0  0  0  0  0  0  0  0  0
   57.9100   32.3270   42.5470 S   0  0  0  0  0  0  0  0  0  0  0  0
   56.9220   31.0690   44.6520 N   0  0  0  0  0  0  0  0  0  0  0  0
   57.4090   29.8790   44.8740 C   0  0  0  0  0  0  0  0  0  0  0  0
   56.5210   28.7970   44.9990 C   0  0  0  0  0  0  0  0  0  0  0  0
   55.1470   28.9900   44.8910 O   0  0  0  0  0  0  0  0  0  0  0  0
   57.0230   27.5150   45.2240 C   0  0  0  0  0  0  0  0  0  0  0  0
   56.3343   26.6624   45.3176 H   0  0  0  0  0  0  0  0  0  0  0  0
   58.3980   27.3160   45.3300 C   0  0  0  0  0  0  0  0  0  0  0  0
   58.8026   26.3065   45.4947 H   0  0  0  0  0  0  0  0  0  0  0  0
   59.2560   28.4110   45.2250 C   0  0  0  0  0  0  0  0  0  0  0  0
   60.3425   28.2652   45.3156 H   0  0  0  0  0  0  0  0  0  0  0  0
   58.7560   29.6590   45.0110 N   0  0  0  0  0  0  0  0  0  0  0  0
   59.4390   30.4460   44.9860 H   0  0  0  0  0  0  0  0  0  0  0  0
   59.6710   34.5990   47.7550 C   0  0  0  0  0  0  0  0  0  0  0  0
   59.6940   35.6496   47.4300 H   0  0  0  0  0  0  0  0  0  0  0  0
   60.8220   34.0540   48.5050 C   0  0  0  0  0  0  0  0  0  0  0  0
   60.6730   33.8650   49.8880 C   0  0  0  0  0  0  0  0  0  0  0  0
   59.7152   34.1084   50.3711 H   0  0  0  0  0  0  0  0  0  0  0  0
   61.7290   33.3710   50.6560 C   0  0  0  0  0  0  0  0  0  0  0  0
   61.6035   33.2349   51.7403 H   0  0  0  0  0  0  0  0  0  0  0  0
   62.9430   33.0500   50.0490 C   0  0  0  0  0  0  0  0  0  0  0  0
   63.7791   32.6756   50.6579 H   0  0  0  0  0  0  0  0  0  0  0  0
   63.0990   33.2030   48.6700 C   0  0  0  0  0  0  0  0  0  0  0  0
   64.0597   32.9479   48.1988 H   0  0  0  0  0  0  0  0  0  0  0  0
   62.0400   33.6800   47.8780 C   0  0  0  0  0  0  0  0  0  0  0  0
   62.2400   33.7750   46.3870 C   0  0  0  0  0  0  0  0  0  0  0  0
   63.2153   34.2383   46.1767 H   0  0  0  0  0  0  0  0  0  0  0  0
   62.2107   32.7668   45.9481 H   0  0  0  0  0  0  0  0  0  0  0  0
   61.4400   34.3893   45.9481 H   0  0  0  0  0  0  0  0  0  0  0  0
  1  2  1  0
  2  3  1  0
  3  4  2  0
  3  5  1  0
  5  6  1  0
  5  7  1  0
  7  8  2  0
  7  9  1  0
  9 10  2  3
 10 11  1  0
 11 12  1  0
 11 13  2  0
 13 14  1  0
 13 15  1  0
 15 16  1  0
 15 17  2  0
 17 18  1  0
 17 19  1  0
 19 20  1  0
  2 21  2  0
 21 22  1  0
 21 23  1  0
 23 24  2  0
 24 25  1  0
 24 26  1  0
 26 27  1  0
 26 28  2  0
 28 29  1  0
 28 30  1  0
 30 31  1  0
 30 32  2  0
 32 33  1  0
 33 34  1  0
 33 35  1  0
 33 36  1  0
 19 10  1  0
 32 23  1  0
M  CHG  1  12  -1
M  END
>  <UniqueID>  (88) 
80

>  <SMILES>  (88) 
Cc1ccccc1/C=C/C(=O)NC(=S)N=c1[nH]cccc1[O-]

>  <Energy>  (88) 
51.20415229676633

>  <Genealogy>  (88) 
Cc1ccccc1C=CC(=O)NC(=S)N=c1[nH]cccc1[O-] (protonated)
Cc1ccccc1/C=C/C(=O)NC(=S)N=c1[nH]cccc1[O-] (cis-trans isomerization)
Cc1ccccc1/C=C/C(=O)NC(=S)N=c1[nH]cccc1[O-] (3D coordinates assigned)
Cc1ccccc1/C=C/C(=O)NC(=S)N=c1[nH]cccc1[O-] (optimized conformer: 51.20415229676633 kcal/mol)

>  <smiles>  (88) 
Cc1ccccc1C=CC(=O)NC(=S)N=c1[nH]cccc1O

>  <score_type>  (88) 
oracle

>  <origin>  (88) 
adg

>  <m_score__min__energy>  (88) 
-11.710000000000001

>  <m_primary>  (88) 
energy

$$$$
88:0
     RDKit          3D

 58 60  0  0  1  0  0  0  0  0999 V2000
   56.9110   21.0810   43.0900 C   0  0  0  0  0  0  0  0  0  0  0  0
   55.9670   21.8750   43.7860 O   0  0  0  0  0  0  0  0  0  0  0  0
   56.3170   23.1510   44.1750 C   0  0  0  0  0  0  0  0  0  0  0  0
   57.0630   23.9750   43.3620 C   0  0  0  0  0  0  0  0  0  0  0  0
   57.3970   25.2500   43.7780 C   0  0  0  0  0  0  0  0  0  0  0  0
   57.0170   25.7670   45.0040 C   0  0  0  0  0  0  0  0  0  0  0  0
   57.3680   27.1080   45.4460 C   0  0  0  0  0  0  0  0  0  0  0  0
   58.2990   27.3060   46.4480 C   0  0  0  0  0  0  0  0  0  0  0  0
   58.6310   28.5970   46.8680 C   0  0  0  0  0  0  0  0  0  0  0  0
   59.5030   28.7650   47.8030 N   0  0  0  0  0  0  0  0  0  0  0  0
   60.6780   29.5640   47.5120 C   0  0  0  0  0  0  0  0  0  0  0  0
   60.4290   30.9330   48.1310 C   0  0  2  0  0  0  0  0  0  0  0  0
   59.1440   31.3860   47.8260 O   0  0  0  0  0  0  0  0  0  0  0  0
   61.4640   31.9150   47.6750 C   0  0  0  0  0  0  0  0  0  0  0  0
   62.7490   31.8090   48.1840 C   0  0  0  0  0  0  0  0  0  0  0  0
   63.7230   32.7000   47.7820 C   0  0  0  0  0  0  0  0  0  0  0  0
   63.4370   33.6860   46.8880 C   0  0  0  0  0  0  0  0  0  0  0  0
   62.1560   33.8030   46.3710 C   0  0  0  0  0  0  0  0  0  0  0  0
   61.1790   32.9170   46.7690 C   0  0  0  0  0  0  0  0  0  0  0  0
   58.0590   29.6760   46.3140 N   0  0  0  0  0  0  0  0  0  0  0  0
   57.1550   29.4670   45.3410 C   0  0  0  0  0  0  0  0  0  0  0  0
   56.6090   30.4980   44.8140 N   0  0  0  0  0  0  0  0  0  0  0  0
   57.1560   31.0410   43.6020 C   0  0  0  0  0  0  0  0  0  0  0  0
   57.9720   32.2810   43.8420 C   0  0  0  0  0  0  0  0  0  0  0  0
   58.0810   32.6170   45.2480 N   0  0  0  0  0  0  0  0  0  0  0  0
   58.3410   33.9490   45.6740 C   0  0  0  0  0  0  0  0  0  0  0  0
   58.4550   34.3040   47.1230 C   0  0  0  0  0  0  0  0  0  0  0  0
   58.4930   34.9100   44.8620 O   0  0  0  0  0  0  0  0  0  0  0  0
   56.8210   28.2260   44.9220 N   0  0  0  0  0  0  0  0  0  0  0  0
   56.2650   24.9170   45.8060 C   0  0  0  0  0  0  0  0  0  0  0  0
   55.9300   23.6420   45.3900 C   0  0  0  0  0  0  0  0  0  0  0  0
   57.5454   20.5474   43.8131 H   0  0  0  0  0  0  0  0  0  0  0  0
   56.3823   20.3521   42.4582 H   0  0  0  0  0  0  0  0  0  0  0  0
   57.5385   21.7268   42.4582 H   0  0  0  0  0  0  0  0  0  0  0  0
   57.3948   23.6166   42.3764 H   0  0  0  0  0  0  0  0  0  0  0  0
   57.9923   25.8829   43.1034 H   0  0  0  0  0  0  0  0  0  0  0  0
   58.7837   26.4386   46.9198 H   0  0  0  0  0  0  0  0  0  0  0  0
   61.5721   29.1022   47.9563 H   0  0  0  0  0  0  0  0  0  0  0  0
   60.8504   29.6409   46.4283 H   0  0  0  0  0  0  0  0  0  0  0  0
   60.5064   30.8376   49.2241 H   0  0  0  0  0  0  0  0  0  0  0  0
   58.4930   30.6810   48.1190 H   0  0  0  0  0  0  0  0  0  0  0  0
   62.9918   31.0162   48.9069 H   0  0  0  0  0  0  0  0  0  0  0  0
   64.7415   32.6126   48.1883 H   0  0  0  0  0  0  0  0  0  0  0  0
   64.2224   34.3900   46.5758 H   0  0  0  0  0  0  0  0  0  0  0  0
   61.9212   34.5979   45.6478 H   0  0  0  0  0  0  0  0  0  0  0  0
   60.1617   33.0088   46.3609 H   0  0  0  0  0  0  0  0  0  0  0  0
   58.3000   30.6450   46.6210 H   0  0  0  0  0  0  0  0  0  0  0  0
   57.7989   30.2810   43.1339 H   0  0  0  0  0  0  0  0  0  0  0  0
   56.3140   31.3166   42.9500 H   0  0  0  0  0  0  0  0  0  0  0  0
   58.9830   32.1201   43.4395 H   0  0  0  0  0  0  0  0  0  0  0  0
   57.4617   33.1162   43.3399 H   0  0  0  0  0  0  0  0  0  0  0  0
   57.9710   31.8910   46.0160 H   0  0  0  0  0  0  0  0  0  0  0  0
   58.1758   33.4347   47.7365 H   0  0  0  0  0  0  0  0  0  0  0  0
   59.4916   34.5945   47.3489 H   0  0  0  0  0  0  0  0  0  0  0  0
   57.7814   35.1437   47.3489 H   0  0  0  0  0  0  0  0  0  0  0  0
   56.1120   28.1760   44.1650 H   0  0  0  0  0  0  0  0  0  0  0  0
   55.9290   25.2664   46.7934 H   0  0  0  0  0  0  0  0  0  0  0  0
   55.3335   23.0030   46.0577 H   0  0  0  0  0  0  0  0  0  0  0  0
  1  2  1  0
  2  3  1  0
  3  4  2  0
  4  5  1  0
  5  6  2  0
  6  7  1  0
  7  8  2  0
  8  9  1  0
  9 10  2  0
 10 11  1  0
 11 12  1  0
 12 13  1  0
 12 14  1  0
 14 15  2  0
 15 16  1  0
 16 17  2  0
 17 18  1  0
 18 19  2  0
  9 20  1  0
 20 21  1  0
 21 22  2  0
 22 23  1  0
 23 24  1  0
 24 25  1  0
 25 26  1  0
 26 27  1  0
 26 28  2  0
 21 29  1  0
  6 30  1  0
 30 31  2  0
 31  3  1  0
 29  7  1  0
 19 14  1  0
  1 32  1  0
  1 33  1  0
  1 34  1  0
  4 35  1  0
  5 36  1  0
  8 37  1  0
 11 38  1  0
 11 39  1  0
 12 40  1  1
 13 41  1  0
 15 42  1  0
 16 43  1  0
 17 44  1  0
 18 45  1  0
 19 46  1  0
 20 47  1  0
 23 48  1  0
 23 49  1  0
 24 50  1  0
 24 51  1  0
 25 52  1  0
 27 53  1  0
 27 54  1  0
 27 55  1  0
 29 56  1  0
 30 57  1  0
 31 58  1  0
M  END
>  <smiles>  (89) 
COc1ccc(-c2cc(=NCC(O)c3ccccc3)[nH]c(=NCCNC(C)=O)[nH]2)cc1

>  <score_type>  (89) 
oracle

>  <origin>  (89) 
adg

>  <m_score__min__energy>  (89) 
-8.0800000000000001

>  <m_primary>  (89) 
energy

$$$$
89:0
     RDKit          3D

 37 39  0  0  0  0  0  0  0  0999 V2000
   55.7190   23.3900   47.0070 O   0  0  0  0  0  0  0  0  0  0  0  0
   56.0760   24.5160   46.5710 C   0  0  0  0  0  0  0  0  0  0  0  0
   57.4220   24.7770   46.3090 C   0  0  0  0  0  0  0  0  0  0  0  0
   57.7850   26.0330   45.8280 C   0  0  0  0  0  0  0  0  0  0  0  0
   56.7950   26.9950   45.6190 C   0  0  0  0  0  0  0  0  0  0  0  0
   57.2100   28.5930   45.0250 S   0  0  0  0  0  0  0  0  0  0  0  0
   57.5240   28.5230   43.5560 O   0  0  0  0  0  0  0  0  0  0  0  0
   56.0430   29.5210   45.2150 O   0  0  0  0  0  0  0  0  0  0  0  0
   58.6030   29.1980   45.9140 C   0  0  0  0  0  0  0  0  0  0  0  0
   59.8590   29.2580   45.2970 C   0  0  0  0  0  0  0  0  0  0  0  0
   60.9720   29.7210   46.0060 C   0  0  0  0  0  0  0  0  0  0  0  0
   60.8410   30.1200   47.3490 C   0  0  0  0  0  0  0  0  0  0  0  0
   61.9550   30.5880   48.1190 N   0  0  0  0  0  0  0  0  0  0  0  0
   62.5480   32.2190   48.1280 S   0  0  0  0  0  0  0  0  0  0  0  0
   63.6670   32.3410   47.1330 O   0  0  0  0  0  0  0  0  0  0  0  0
   63.0730   32.5430   49.4990 O   0  0  0  0  0  0  0  0  0  0  0  0
   61.2600   33.3320   47.6770 C   0  0  0  0  0  0  0  0  0  0  0  0
   61.1940   33.8340   46.3690 C   0  0  0  0  0  0  0  0  0  0  0  0
   60.1680   34.7120   46.0060 C   0  0  0  0  0  0  0  0  0  0  0  0
   59.2090   35.0970   46.9470 C   0  0  0  0  0  0  0  0  0  0  0  0
   59.2780   34.6070   48.2560 C   0  0  0  0  0  0  0  0  0  0  0  0
   60.3020   33.7280   48.6210 C   0  0  0  0  0  0  0  0  0  0  0  0
   59.5830   30.0540   47.9610 C   0  0  0  0  0  0  0  0  0  0  0  0
   58.4710   29.5940   47.2510 C   0  0  0  0  0  0  0  0  0  0  0  0
   55.4980   26.6880   45.8910 N   0  0  0  0  0  0  0  0  0  0  0  0
   55.1490   25.4850   46.3510 N   0  0  0  0  0  0  0  0  0  0  0  0
   58.1844   24.0027   46.4797 H   0  0  0  0  0  0  0  0  0  0  0  0
   58.8392   26.2641   45.6154 H   0  0  0  0  0  0  0  0  0  0  0  0
   59.9705   28.9395   44.2500 H   0  0  0  0  0  0  0  0  0  0  0  0
   61.9534   29.7735   45.5120 H   0  0  0  0  0  0  0  0  0  0  0  0
   61.9504   33.5366   45.6277 H   0  0  0  0  0  0  0  0  0  0  0  0
   60.1156   35.1003   44.9782 H   0  0  0  0  0  0  0  0  0  0  0  0
   58.4004   35.7848   46.6588 H   0  0  0  0  0  0  0  0  0  0  0  0
   58.5262   34.9136   48.9981 H   0  0  0  0  0  0  0  0  0  0  0  0
   60.3562   33.3462   49.6512 H   0  0  0  0  0  0  0  0  0  0  0  0
   59.4694   30.3669   49.0094 H   0  0  0  0  0  0  0  0  0  0  0  0
   57.4888   29.5427   47.7436 H   0  0  0  0  0  0  0  0  0  0  0  0
  1  2  2  0
  2  3  1  0
  3  4  2  0
  4  5  1  0
  5  6  1  0
  6  7  2  0
  6  8  2  0
  6  9  1  0
  9 10  2  0
 10 11  1  0
 11 12  2  0
 12 13  1  0
 13 14  1  0
 14 15  2  0
 14 16  2  0
 14 17  1  0
 17 18  2  0
 18 19  1  0
 19 20  2  0
 20 21  1  0
 21 22  2  0
 12 23  1  0
 23 24  2  0
  5 25  2  0
 25 26  1  0
 26  2  1  0
 24  9  1  0
 22 17  1  0
  3 27  1  0
  4 28  1  0
 10 29  1  0
 11 30  1  0
 18 31  1  0
 19 32  1  0
 20 33  1  0
 21 34  1  0
 22 35  1  0
 23 36  1  0
 24 37  1  0
M  CHG  2  13  -1  26  -1
M  END
>  <UniqueID>  (90) 
81

>  <SMILES>  (90) 
O=c1ccc(S(=O)(=O)c2ccc([N-]S(=O)(=O)c3ccccc3)cc2)n[n-]1

>  <Energy>  (90) 
46.11201871982147

>  <Genealogy>  (90) 
O=c1ccc(S(=O)(=O)c2ccc([N-]S(=O)(=O)c3ccccc3)cc2)n[n-]1 (protonated)
O=c1ccc(S(=O)(=O)c2ccc([N-]S(=O)(=O)c3ccccc3)cc2)n[n-]1 (3D coordinates assigned)
O=c1ccc(S(=O)(=O)c2ccc([N-]S(=O)(=O)c3ccccc3)cc2)n[n-]1 (optimized conformer: 46.11201871982147 kcal/mol)

>  <smiles>  (90) 
O=c1ccc(S(=O)(=O)c2ccc(NS(=O)(=O)c3ccccc3)cc2)n[nH]1

>  <score_type>  (90) 
oracle

>  <origin>  (90) 
adg

>  <m_score__min__energy>  (90) 
-12.34

>  <m_primary>  (90) 
energy

$$$$
90:0
     RDKit          3D

 55 58  0  0  1  0  0  0  0  0999 V2000
   54.7760   22.9330   47.8700 C   0  0  0  0  0  0  0  0  0  0  0  0
   55.8760   23.8100   47.3500 C   0  0  0  0  0  0  0  0  0  0  0  0
   57.0860   23.4980   47.5110 O   0  0  0  0  0  0  0  0  0  0  0  0
   55.5380   25.0140   46.6650 N   0  0  0  0  0  0  0  0  0  0  0  0
   56.4270   25.9180   46.3920 C   0  0  0  0  0  0  0  0  0  0  0  0
   57.7340   25.9110   46.6830 N   0  0  0  0  0  0  0  0  0  0  0  0
   58.2400   27.0440   46.2070 N   0  0  0  0  0  0  0  0  0  0  0  0
   57.2760   27.7500   45.6310 C   0  0  0  0  0  0  0  0  0  0  0  0
   57.2980   29.0480   44.9660 C   0  0  0  0  0  0  0  0  0  0  0  0
   56.7530   29.1520   43.7030 C   0  0  0  0  0  0  0  0  0  0  0  0
   56.7350   30.3520   43.0030 C   0  0  0  0  0  0  0  0  0  0  0  0
   57.2980   31.4370   43.6460 C   0  0  0  0  0  0  0  0  0  0  0  0
   57.4120   32.7020   43.2010 N   0  0  0  0  0  0  0  0  0  0  0  0
   58.0330   33.4370   44.1680 C   0  0  0  0  0  0  0  0  0  0  0  0
   58.3150   32.6080   45.2470 C   0  0  0  0  0  0  0  0  0  0  0  0
   58.9710   33.0430   46.4520 C   0  0  0  0  0  0  0  0  0  0  0  0
   59.7490   34.1690   46.5690 C   0  0  0  0  0  0  0  0  0  0  0  0
   60.3450   34.5050   47.7890 C   0  0  0  0  0  0  0  0  0  0  0  0
   60.1740   33.7160   48.9170 C   0  0  0  0  0  0  0  0  0  0  0  0
   60.7980   34.1040   50.1170 N   0  0  0  0  0  0  0  0  0  0  0  0
   62.4760   33.9880   50.3740 S   0  0  0  0  0  0  0  0  0  0  0  0
   62.7360   33.2920   51.6930 O   0  0  0  0  0  0  0  0  0  0  0  0
   63.1420   35.3310   50.5120 O   0  0  0  0  0  0  0  0  0  0  0  0
   63.2970   32.9980   49.1480 C   0  0  0  0  0  0  0  0  0  0  0  0
   64.7130   32.7440   49.6480 C   0  0  0  0  0  0  0  0  0  0  0  0
   63.3970   33.8390   47.8790 C   0  0  0  0  0  0  0  0  0  0  0  0
   62.6110   31.7030   48.8620 C   0  0  0  0  0  0  0  0  0  0  0  0
   59.3900   32.5870   48.7870 C   0  0  0  0  0  0  0  0  0  0  0  0
   58.7960   32.2460   47.5890 C   0  0  0  0  0  0  0  0  0  0  0  0
   57.8510   31.3480   44.9150 C   0  0  0  0  0  0  0  0  0  0  0  0
   57.8520   30.1490   45.5810 C   0  0  0  0  0  0  0  0  0  0  0  0
   56.1730   27.0360   45.7590 O   0  0  0  0  0  0  0  0  0  0  0  0
   54.7882   22.9428   48.9699 H   0  0  0  0  0  0  0  0  0  0  0  0
   53.8066   23.3088   47.5107 H   0  0  0  0  0  0  0  0  0  0  0  0
   54.9264   21.9043   47.5107 H   0  0  0  0  0  0  0  0  0  0  0  0
   58.2070   25.1360   47.1850 H   0  0  0  0  0  0  0  0  0  0  0  0
   56.3188   28.2562   43.2351 H   0  0  0  0  0  0  0  0  0  0  0  0
   56.2984   30.4331   41.9966 H   0  0  0  0  0  0  0  0  0  0  0  0
   57.0930   33.0990   42.2800 H   0  0  0  0  0  0  0  0  0  0  0  0
   58.2712   34.5090   44.1041 H   0  0  0  0  0  0  0  0  0  0  0  0
   59.9053   34.8146   45.6922 H   0  0  0  0  0  0  0  0  0  0  0  0
   60.9618   35.4134   47.8553 H   0  0  0  0  0  0  0  0  0  0  0  0
   60.1560   34.4820   50.8760 H   0  0  0  0  0  0  0  0  0  0  0  0
   64.7188   32.7430   50.7480 H   0  0  0  0  0  0  0  0  0  0  0  0
   65.0629   31.7688   49.2786 H   0  0  0  0  0  0  0  0  0  0  0  0
   65.3800   33.5368   49.2786 H   0  0  0  0  0  0  0  0  0  0  0  0
   63.5229   34.8977   48.1497 H   0  0  0  0  0  0  0  0  0  0  0  0
   64.2620   33.5068   47.2862 H   0  0  0  0  0  0  0  0  0  0  0  0
   62.4782   33.7189   47.2862 H   0  0  0  0  0  0  0  0  0  0  0  0
   62.3496   31.2094   49.8097 H   0  0  0  0  0  0  0  0  0  0  0  0
   61.6954   31.8932   48.2828 H   0  0  0  0  0  0  0  0  0  0  0  0
   63.2827   31.0523   48.2828 H   0  0  0  0  0  0  0  0  0  0  0  0
   59.2344   31.9408   49.6635 H   0  0  0  0  0  0  0  0  0  0  0  0
   58.1783   31.3379   47.5271 H   0  0  0  0  0  0  0  0  0  0  0  0
   58.2873   30.0681   46.5880 H   0  0  0  0  0  0  0  0  0  0  0  0
  1  2  1  0
  2  3  2  0
  2  4  1  0
  4  5  2  0
  5  6  1  0
  6  7  1  0
  7  8  2  0
  8  9  1  0
  9 10  2  0
 10 11  1  0
 11 12  2  0
 12 13  1  0
 13 14  1  0
 14 15  2  0
 15 16  1  0
 16 17  2  0
 17 18  1  0
 18 19  2  0
 19 20  1  0
 20 21  1  0
 21 22  2  0
 21 23  2  0
 21 24  1  0
 24 25  1  0
 24 26  1  0
 24 27  1  0
 19 28  1  0
 28 29  2  0
 15 30  1  0
 30 31  2  0
  8 32  1  0
 32  5  1  0
 31  9  1  0
 30 12  1  0
 29 16  1  0
  1 33  1  0
  1 34  1  0
  1 35  1  0
  6 36  1  0
 10 37  1  0
 11 38  1  0
 13 39  1  0
 14 40  1  0
 17 41  1  0
 18 42  1  0
 20 43  1  0
 25 44  1  0
 25 45  1  0
 25 46  1  0
 26 47  1  0
 26 48  1  0
 26 49  1  0
 27 50  1  0
 27 51  1  0
 27 52  1  0
 28 53  1  0
 29 54  1  0
 31 55  1  0
M  END
>  <smiles>  (91) 
CC(=O)N=c1[nH]nc(-c2ccc3[nH]cc(-c4ccc(NS(=O)(=O)C(C)(C)C)cc4)c3c2)o1

>  <score_type>  (91) 
oracle

>  <origin>  (91) 
adg

>  <m_score__min__energy>  (91) 
-10.029999999999999

>  <m_primary>  (91) 
energy

$$$$
91:0
     RDKit          3D

 65 69  0  0  0  0  0  0  0  0999 V2000
   56.7080   30.8380   42.2720 C   0  0  0  0  0  0  0  0  0  0  0  0
   57.2020   30.0780   43.4740 C   0  0  0  0  0  0  0  0  0  0  0  0
   57.3490   28.6830   43.3810 C   0  0  0  0  0  0  0  0  0  0  0  0
   57.8000   27.9400   44.4700 C   0  0  0  0  0  0  0  0  0  0  0  0
   58.1180   28.5770   45.6720 C   0  0  0  0  0  0  0  0  0  0  0  0
   58.6410   27.6450   47.0720 S   0  0  0  0  0  0  0  0  0  0  0  0
   59.9500   26.9580   46.8030 O   0  0  0  0  0  0  0  0  0  0  0  0
   58.8160   28.5730   48.2400 O   0  0  0  0  0  0  0  0  0  0  0  0
   57.4350   26.4580   47.4590 N   0  0  0  0  0  0  0  0  0  0  0  0
   56.9020   25.6610   46.5840 C   0  0  0  0  0  0  0  0  0  0  0  0
   55.5570   25.6830   46.3470 N   0  0  0  0  0  0  0  0  0  0  0  0
   54.9730   24.8510   45.4440 C   0  0  0  0  0  0  0  0  0  0  0  0
   55.7520   23.9410   44.7260 C   0  0  0  0  0  0  0  0  0  0  0  0
   55.1750   23.1060   43.8280 F   0  0  0  0  0  0  0  0  0  0  0  0
   57.1300   23.8980   44.9470 C   0  0  0  0  0  0  0  0  0  0  0  0
   57.7130   24.7630   45.8770 C   0  0  0  0  0  0  0  0  0  0  0  0
   59.0530   24.7180   46.0940 F   0  0  0  0  0  0  0  0  0  0  0  0
   57.9760   29.9640   45.7810 C   0  0  0  0  0  0  0  0  0  0  0  0
   57.5160   30.7350   44.6930 C   0  0  0  0  0  0  0  0  0  0  0  0
   57.3600   32.1690   44.8210 N   0  0  0  0  0  0  0  0  0  0  0  0
   58.4880   33.1060   44.7760 C   0  0  0  0  0  0  0  0  0  0  0  0
   59.2660   33.1290   46.1000 C   0  0  1  0  0  0  0  0  0  0  0  0
   59.6890   34.5580   46.4930 C   0  0  0  0  0  0  0  0  0  0  0  0
   60.2560   34.5560   47.8420 N   0  0  0  0  0  0  0  0  0  0  0  0
   59.6730   33.7350   48.8610 C   0  0  0  0  0  0  0  0  0  0  0  0
   60.0000   33.9110   50.2100 C   0  0  0  0  0  0  0  0  0  0  0  0
   59.3910   33.1160   51.1860 C   0  0  0  0  0  0  0  0  0  0  0  0
   58.4530   32.1380   50.8160 C   0  0  0  0  0  0  0  0  0  0  0  0
   57.6970   31.1140   52.0310 S   0  0  0  0  0  0  0  0  0  0  0  0
   58.5070   31.1900   53.2950 O   0  0  0  0  0  0  0  0  0  0  0  0
   57.6460   29.6820   51.5760 O   0  0  0  0  0  0  0  0  0  0  0  0
   56.0840   31.6710   52.3490 N   0  0  0  0  0  0  0  0  0  0  0  0
   54.9240   30.8170   52.3660 C   0  0  0  0  0  0  0  0  0  0  0  0
   54.9260   29.6780   53.1900 C   0  0  0  0  0  0  0  0  0  0  0  0
   53.8160   28.8290   53.2310 C   0  0  0  0  0  0  0  0  0  0  0  0
   52.6910   29.1080   52.4520 C   0  0  0  0  0  0  0  0  0  0  0  0
   52.6780   30.2330   51.6250 C   0  0  0  0  0  0  0  0  0  0  0  0
   53.7880   31.0850   51.5770 C   0  0  0  0  0  0  0  0  0  0  0  0
   58.1340   31.9570   49.4630 C   0  0  0  0  0  0  0  0  0  0  0  0
   58.7510   32.7450   48.4870 C   0  0  0  0  0  0  0  0  0  0  0  0
   58.4550   32.5570   47.1330 O   0  0  0  0  0  0  0  0  0  0  0  0
   56.1364   31.7174   42.6037 H   0  0  0  0  0  0  0  0  0  0  0  0
   57.5664   31.1655   41.6670 H   0  0  0  0  0  0  0  0  0  0  0  0
   56.0603   30.1865   41.6670 H   0  0  0  0  0  0  0  0  0  0  0  0
   57.1052   28.1722   42.4378 H   0  0  0  0  0  0  0  0  0  0  0  0
   57.9060   26.8486   44.3830 H   0  0  0  0  0  0  0  0  0  0  0  0
   53.8863   24.8947   45.2789 H   0  0  0  0  0  0  0  0  0  0  0  0
   57.7555   23.1847   44.3902 H   0  0  0  0  0  0  0  0  0  0  0  0
   58.2268   30.4613   46.7296 H   0  0  0  0  0  0  0  0  0  0  0  0
   56.4030   32.5690   44.9240 H   0  0  0  0  0  0  0  0  0  0  0  0
   59.1700   32.8031   43.9679 H   0  0  0  0  0  0  0  0  0  0  0  0
   58.0867   34.1147   44.5986 H   0  0  0  0  0  0  0  0  0  0  0  0
   60.1848   32.5386   45.9687 H   0  0  0  0  0  0  0  0  0  0  0  0
   60.4432   34.9240   45.7808 H   0  0  0  0  0  0  0  0  0  0  0  0
   58.8075   35.2156   46.4715 H   0  0  0  0  0  0  0  0  0  0  0  0
   61.0500   35.1980   48.0700 H   0  0  0  0  0  0  0  0  0  0  0  0
   60.7359   34.6744   50.5027 H   0  0  0  0  0  0  0  0  0  0  0  0
   59.6472   33.2569   52.2464 H   0  0  0  0  0  0  0  0  0  0  0  0
   55.9570   32.6990   52.4840 H   0  0  0  0  0  0  0  0  0  0  0  0
   55.8081   29.4529   53.8075 H   0  0  0  0  0  0  0  0  0  0  0  0
   53.8288   27.9396   53.8781 H   0  0  0  0  0  0  0  0  0  0  0  0
   51.8161   28.4423   52.4899 H   0  0  0  0  0  0  0  0  0  0  0  0
   51.7928   30.4506   51.0092 H   0  0  0  0  0  0  0  0  0  0  0  0
   53.7730   31.9674   50.9204 H   0  0  0  0  0  0  0  0  0  0  0  0
   57.3977   31.1944   49.1691 H   0  0  0  0  0  0  0  0  0  0  0  0
  1  2  1  0
  2  3  2  0
  3  4  1  0
  4  5  2  0
  5  6  1  0
  6  7  2  0
  6  8  2  0
  6  9  1  0
  9 10  2  3
 10 11  1  0
 11 12  1  0
 12 13  2  0
 13 14  1  0
 13 15  1  0
 15 16  2  0
 16 17  1  0
  5 18  1  0
 18 19  2  0
 19 20  1  0
 20 21  1  0
 21 22  1  0
 22 23  1  0
 23 24  1  0
 24 25  1  0
 25 26  2  0
 26 27  1  0
 27 28  2  0
 28 29  1  0
 29 30  2  0
 29 31  2  0
 29 32  1  0
 32 33  1  0
 33 34  2  0
 34 35  1  0
 35 36  2  0
 36 37  1  0
 37 38  2  0
 28 39  1  0
 39 40  2  0
 40 41  1  0
 19  2  1  0
 41 22  1  0
 16 10  1  0
 40 25  1  0
 38 33  1  0
  1 42  1  0
  1 43  1  0
  1 44  1  0
  3 45  1  0
  4 46  1  0
 12 47  1  0
 15 48  1  0
 18 49  1  0
 20 50  1  0
 21 51  1  0
 21 52  1  0
 22 53  1  6
 23 54  1  0
 23 55  1  0
 24 56  1  0
 26 57  1  0
 27 58  1  0
 32 59  1  0
 34 60  1  0
 35 61  1  0
 36 62  1  0
 37 63  1  0
 38 64  1  0
 39 65  1  0
M  CHG  1  11  -1
M  END
>  <UniqueID>  (92) 
82

>  <SMILES>  (92) 
Cc1ccc(S(=O)(=O)N=c2[n-]cc(F)cc2F)cc1NC[C@H]1CNc2ccc(S(=O)(=O)Nc3ccccc3)cc2O1

>  <Energy>  (92) 
77.41988333777473

>  <Genealogy>  (92) 
Cc1ccc(S(=O)(=O)N=c2[n-]cc(F)cc2F)cc1NCC1CNc2ccc(S(=O)(=O)Nc3ccccc3)cc2O1 (protonated)
Cc1ccc(S(=O)(=O)N=c2[n-]cc(F)cc2F)cc1NC[C@H]1CNc2ccc(S(=O)(=O)Nc3ccccc3)cc2O1 (chirality)
Cc1ccc(S(=O)(=O)N=c2[n-]cc(F)cc2F)cc1NC[C@H]1CNc2ccc(S(=O)(=O)Nc3ccccc3)cc2O1 (3D coordinates assigned)
Cc1ccc(S(=O)(=O)N=c2[n-]cc(F)cc2F)cc1NC[C@H]1CNc2ccc(S(=O)(=O)Nc3ccccc3)cc2O1 (nonaromatic ring conformer: 77.41988333777473 kcal/mol)

>  <smiles>  (92) 
Cc1ccc(S(=O)(=O)N=c2[nH]cc(F)cc2F)cc1NCC1CNc2ccc(S(=O)(=O)Nc3ccccc3)cc2O1

>  <score_type>  (92) 
oracle

>  <origin>  (92) 
adg

>  <m_score__min__energy>  (92) 
-11.800000000000001

>  <m_primary>  (92) 
energy

$$$$
92:0
     RDKit          3D

 55 58  0  0  0  0  0  0  0  0999 V2000
   56.0680   30.3960   44.8210 O   0  0  0  0  0  0  0  0  0  0  0  0
   57.1750   30.6680   44.2790 C   0  0  0  0  0  0  0  0  0  0  0  0
   57.4210   32.0450   43.7360 C   0  0  0  0  0  0  0  0  0  0  0  0
   57.9710   32.9540   44.8080 C   0  0  0  0  0  0  0  0  0  0  0  0
   57.4120   32.9520   46.1010 C   0  0  0  0  0  0  0  0  0  0  0  0
   57.9000   33.8280   47.0790 C   0  0  0  0  0  0  0  0  0  0  0  0
   58.9420   34.7180   46.7710 C   0  0  0  0  0  0  0  0  0  0  0  0
   59.4940   34.7330   45.4860 C   0  0  0  0  0  0  0  0  0  0  0  0
   59.0060   33.8610   44.5040 C   0  0  0  0  0  0  0  0  0  0  0  0
   58.1670   29.6440   44.1050 N   0  0  0  0  0  0  0  0  0  0  0  0
   58.2410   28.4720   44.9350 C   0  0  0  0  0  0  0  0  0  0  0  0
   57.0920   27.6860   45.1530 C   0  0  0  0  0  0  0  0  0  0  0  0
   57.1400   26.5700   46.0000 C   0  0  0  0  0  0  0  0  0  0  0  0
   55.8990   25.8470   46.3230 C   0  0  0  0  0  0  0  0  0  0  0  0
   54.7880   26.3420   45.9800 O   0  0  0  0  0  0  0  0  0  0  0  0
   55.9180   24.6270   47.0800 N   0  0  0  0  0  0  0  0  0  0  0  0
   55.2600   23.3870   46.6810 C   0  0  0  0  0  0  0  0  0  0  0  0
   55.8630   22.8400   45.4110 C   0  0  0  0  0  0  0  0  0  0  0  0
   57.0800   22.1370   45.4400 C   0  0  0  0  0  0  0  0  0  0  0  0
   57.6680   21.7000   44.2520 C   0  0  0  0  0  0  0  0  0  0  0  0
   57.0200   21.9490   43.0390 C   0  0  0  0  0  0  0  0  0  0  0  0
   55.8270   22.6040   43.0270 N   0  0  0  0  0  0  0  0  0  0  0  0
   55.2380   23.0500   44.1690 C   0  0  0  0  0  0  0  0  0  0  0  0
   58.3500   26.2080   46.6020 C   0  0  0  0  0  0  0  0  0  0  0  0
   59.4970   26.9730   46.3870 C   0  0  0  0  0  0  0  0  0  0  0  0
   59.4470   28.1230   45.5870 C   0  0  0  0  0  0  0  0  0  0  0  0
   60.9470   29.1050   45.4090 S   0  0  0  0  0  0  0  0  0  0  0  0
   60.5200   30.1970   46.7690 C   0  0  0  0  0  0  0  0  0  0  0  0
   59.3120   30.0300   47.4650 C   0  0  0  0  0  0  0  0  0  0  0  0
   58.9840   30.8950   48.5200 C   0  0  0  0  0  0  0  0  0  0  0  0
   59.8570   31.9280   48.8770 C   0  0  0  0  0  0  0  0  0  0  0  0
   59.4550   33.0100   50.1950 Cl  0  0  0  0  0  0  0  0  0  0  0  0
   61.0540   32.1030   48.1740 C   0  0  0  0  0  0  0  0  0  0  0  0
   61.3800   31.2450   47.1170 C   0  0  0  0  0  0  0  0  0  0  0  0
   58.1446   31.9828   42.9098 H   0  0  0  0  0  0  0  0  0  0  0  0
   56.4664   32.4587   43.3789 H   0  0  0  0  0  0  0  0  0  0  0  0
   56.5908   32.2613   46.3431 H   0  0  0  0  0  0  0  0  0  0  0  0
   57.4665   33.8189   48.0899 H   0  0  0  0  0  0  0  0  0  0  0  0
   59.3243   35.4040   47.5412 H   0  0  0  0  0  0  0  0  0  0  0  0
   60.3111   35.4293   45.2464 H   0  0  0  0  0  0  0  0  0  0  0  0
   59.4329   33.8844   43.4905 H   0  0  0  0  0  0  0  0  0  0  0  0
   58.8330   29.7520   43.3090 H   0  0  0  0  0  0  0  0  0  0  0  0
   56.1482   27.9507   44.6537 H   0  0  0  0  0  0  0  0  0  0  0  0
   55.3760   22.6437   47.4836 H   0  0  0  0  0  0  0  0  0  0  0  0
   54.1953   23.5970   46.5015 H   0  0  0  0  0  0  0  0  0  0  0  0
   57.5707   21.9305   46.4026 H   0  0  0  0  0  0  0  0  0  0  0  0
   58.6296   21.1662   44.2702 H   0  0  0  0  0  0  0  0  0  0  0  0
   57.4741   21.6157   42.0942 H   0  0  0  0  0  0  0  0  0  0  0  0
   54.2726   23.5750   44.1210 H   0  0  0  0  0  0  0  0  0  0  0  0
   58.3972   25.3179   47.2466 H   0  0  0  0  0  0  0  0  0  0  0  0
   60.4485   26.6711   46.8492 H   0  0  0  0  0  0  0  0  0  0  0  0
   58.6224   29.2207   47.1830 H   0  0  0  0  0  0  0  0  0  0  0  0
   58.0392   30.7606   49.0670 H   0  0  0  0  0  0  0  0  0  0  0  0
   61.7402   32.9164   48.4524 H   0  0  0  0  0  0  0  0  0  0  0  0
   62.3154   31.3950   46.5579 H   0  0  0  0  0  0  0  0  0  0  0  0
  1  2  2  0
  2  3  1  0
  3  4  1  0
  4  5  2  0
  5  6  1  0
  6  7  2  0
  7  8  1  0
  8  9  2  0
  2 10  1  0
 10 11  1  0
 11 12  2  0
 12 13  1  0
 13 14  1  0
 14 15  2  0
 14 16  1  0
 16 17  1  0
 17 18  1  0
 18 19  2  0
 19 20  1  0
 20 21  2  0
 21 22  1  0
 22 23  2  0
 13 24  2  0
 24 25  1  0
 25 26  2  0
 26 27  1  0
 27 28  1  0
 28 29  2  0
 29 30  1  0
 30 31  2  0
 31 32  1  0
 31 33  1  0
 33 34  2  0
  9  4  1  0
 26 11  1  0
 34 28  1  0
 23 18  1  0
  3 35  1  0
  3 36  1  0
  5 37  1  0
  6 38  1  0
  7 39  1  0
  8 40  1  0
  9 41  1  0
 10 42  1  0
 12 43  1  0
 17 44  1  0
 17 45  1  0
 19 46  1  0
 20 47  1  0
 21 48  1  0
 23 49  1  0
 24 50  1  0
 25 51  1  0
 29 52  1  0
 30 53  1  0
 33 54  1  0
 34 55  1  0
M  CHG  1  16  -1
M  END
>  <UniqueID>  (93) 
83

>  <SMILES>  (93) 
O=C(Cc1ccccc1)Nc1cc(C(=O)[N-]Cc2cccnc2)ccc1Sc1ccc(Cl)cc1

>  <Energy>  (93) 
58.72767031168627

>  <Genealogy>  (93) 
O=C(Cc1ccccc1)Nc1cc(C(=O)[N-]Cc2cccnc2)ccc1Sc1ccc(Cl)cc1 (protonated)
O=C(Cc1ccccc1)Nc1cc(C(=O)[N-]Cc2cccnc2)ccc1Sc1ccc(Cl)cc1 (3D coordinates assigned)
O=C(Cc1ccccc1)Nc1cc(C(=O)[N-]Cc2cccnc2)ccc1Sc1ccc(Cl)cc1 (optimized conformer: 58.72767031168627 kcal/mol)

>  <smiles>  (93) 
O=C(Cc1ccccc1)Nc1cc(C(=O)NCc2cccnc2)ccc1Sc1ccc(Cl)cc1

>  <score_type>  (93) 
oracle

>  <origin>  (93) 
adg

>  <m_score__min__energy>  (93) 
-13.85

>  <m_primary>  (93) 
energy

$$$$
93:0
     RDKit          3D

 42 43  0  0  0  0  0  0  0  0999 V2000
   60.1400   29.0580   47.6130 C   0  0  0  0  0  0  0  0  0  0  0  0
   60.4230   29.5190   46.1880 C   0  0  0  0  0  0  0  0  0  0  0  0
   59.8070   28.6440   45.2400 O   0  0  0  0  0  0  0  0  0  0  0  0
   58.9190   27.5930   45.5370 C   0  0  0  0  0  0  0  0  0  0  0  0
   59.3660   26.2590   45.6390 C   0  0  0  0  0  0  0  0  0  0  0  0
   58.4740   25.2320   45.9460 C   0  0  0  0  0  0  0  0  0  0  0  0
   57.1270   25.5170   46.1590 C   0  0  0  0  0  0  0  0  0  0  0  0
   56.6660   26.8290   46.0650 C   0  0  0  0  0  0  0  0  0  0  0  0
   57.5480   27.8840   45.7520 C   0  0  0  0  0  0  0  0  0  0  0  0
   57.0140   29.2710   45.6560 C   0  0  0  0  0  0  0  0  0  0  0  0
   57.5600   30.2150   46.2900 O   0  0  0  0  0  0  0  0  0  0  0  0
   55.8740   29.5460   44.8330 N   0  0  0  0  0  0  0  0  0  0  0  0
   55.9450   29.7380   43.3900 C   0  0  0  0  0  0  0  0  0  0  0  0
   56.7720   30.9430   43.0660 C   0  0  0  0  0  0  0  0  0  0  0  0
   57.0150   31.2260   41.8620 O   0  0  0  0  0  0  0  0  0  0  0  0
   57.3000   31.7530   44.1240 N   0  0  0  0  0  0  0  0  0  0  0  0
   58.0760   32.9680   43.8760 C   0  0  0  0  0  0  0  0  0  0  0  0
   57.6820   34.0810   44.8500 C   0  0  0  0  0  0  0  0  0  0  0  0
   58.4810   34.0070   46.0710 N   0  0  0  0  0  0  0  0  0  0  0  0
   58.2810   33.1920   47.1180 C   0  0  0  0  0  0  0  0  0  0  0  0
   59.2190   33.5020   48.0780 C   0  0  0  0  0  0  0  0  0  0  0  0
   59.9960   34.5150   47.6410 N   0  0  0  0  0  0  0  0  0  0  0  0
   59.5150   34.8010   46.4130 C   0  0  0  0  0  0  0  0  0  0  0  0
   60.5792   29.7734   48.3239 H   0  0  0  0  0  0  0  0  0  0  0  0
   59.0529   29.0038   47.7718 H   0  0  0  0  0  0  0  0  0  0  0  0
   60.5837   28.0641   47.7718 H   0  0  0  0  0  0  0  0  0  0  0  0
   60.0253   30.5356   46.0521 H   0  0  0  0  0  0  0  0  0  0  0  0
   61.5105   29.5083   46.0232 H   0  0  0  0  0  0  0  0  0  0  0  0
   60.4285   26.0266   45.4748 H   0  0  0  0  0  0  0  0  0  0  0  0
   58.8344   24.1954   46.0201 H   0  0  0  0  0  0  0  0  0  0  0  0
   56.4259   24.7049   46.4019 H   0  0  0  0  0  0  0  0  0  0  0  0
   55.6011   27.0442   46.2371 H   0  0  0  0  0  0  0  0  0  0  0  0
   56.4010   28.8500   42.9278 H   0  0  0  0  0  0  0  0  0  0  0  0
   54.9278   29.8864   42.9984 H   0  0  0  0  0  0  0  0  0  0  0  0
   57.1580   31.4480   45.1140 H   0  0  0  0  0  0  0  0  0  0  0  0
   59.1455   32.7431   44.0009 H   0  0  0  0  0  0  0  0  0  0  0  0
   57.8705   33.3111   42.8513 H   0  0  0  0  0  0  0  0  0  0  0  0
   57.8471   35.0565   44.3692 H   0  0  0  0  0  0  0  0  0  0  0  0
   56.6211   33.9599   45.1143 H   0  0  0  0  0  0  0  0  0  0  0  0
   57.5063   32.4150   47.1958 H   0  0  0  0  0  0  0  0  0  0  0  0
   59.3193   33.0005   49.0519 H   0  0  0  0  0  0  0  0  0  0  0  0
   59.9206   35.5920   45.7650 H   0  0  0  0  0  0  0  0  0  0  0  0
  1  2  1  0
  2  3  1  0
  3  4  1  0
  4  5  2  0
  5  6  1  0
  6  7  2  0
  7  8  1  0
  8  9  2  0
  9 10  1  0
 10 11  2  0
 10 12  1  0
 12 13  1  0
 13 14  1  0
 14 15  2  0
 14 16  1  0
 16 17  1  0
 17 18  1  0
 18 19  1  0
 19 20  1  0
 20 21  2  0
 21 22  1  0
 22 23  2  0
  9  4  1  0
 23 19  1  0
  1 24  1  0
  1 25  1  0
  1 26  1  0
  2 27  1  0
  2 28  1  0
  5 29  1  0
  6 30  1  0
  7 31  1  0
  8 32  1  0
 13 33  1  0
 13 34  1  0
 16 35  1  0
 17 36  1  0
 17 37  1  0
 18 38  1  0
 18 39  1  0
 20 40  1  0
 21 41  1  0
 23 42  1  0
M  CHG  1  12  -1
M  END
>  <UniqueID>  (94) 
84

>  <SMILES>  (94) 
CCOc1ccccc1C(=O)[N-]CC(=O)NCCn1ccnc1

>  <Energy>  (94) 
62.68374718646746

>  <Genealogy>  (94) 
CCOc1ccccc1C(=O)[N-]CC(=O)NCCn1ccnc1 (protonated)
CCOc1ccccc1C(=O)[N-]CC(=O)NCCn1ccnc1 (3D coordinates assigned)
CCOc1ccccc1C(=O)[N-]CC(=O)NCCn1ccnc1 (optimized conformer: 62.68374718646746 kcal/mol)

>  <smiles>  (94) 
CCOc1ccccc1C(=O)NCC(=O)NCCn1ccnc1

>  <score_type>  (94) 
oracle

>  <origin>  (94) 
adg

>  <m_score__min__energy>  (94) 
-8.9199999999999999

>  <m_primary>  (94) 
energy

$$$$
94:0
     RDKit          3D

 38 40  0  0  0  0  0  0  0  0999 V2000
   55.9740   20.5690   45.2210 C   0  0  0  0  0  0  0  0  0  0  0  0
   56.3630   21.9270   44.8190 N   0  0  0  0  0  0  0  0  0  0  0  0
   56.3640   22.3100   43.4960 C   0  0  0  0  0  0  0  0  0  0  0  0
   56.0020   21.5040   42.5950 O   0  0  0  0  0  0  0  0  0  0  0  0
   56.7590   23.5720   43.1390 N   0  0  0  0  0  0  0  0  0  0  0  0
   57.1780   24.4810   44.0620 C   0  0  0  0  0  0  0  0  0  0  0  0
   57.5190   25.6370   43.7020 O   0  0  0  0  0  0  0  0  0  0  0  0
   57.2090   24.0840   45.3960 C   0  0  0  0  0  0  0  0  0  0  0  0
   56.8040   22.8320   45.7400 C   0  0  0  0  0  0  0  0  0  0  0  0
   56.9000   22.6470   47.0700 N   0  0  0  0  0  0  0  0  0  0  0  0
   57.3770   23.8420   47.5080 C   0  0  0  0  0  0  0  0  0  0  0  0
   57.5800   24.7400   46.5120 N   0  0  0  0  0  0  0  0  0  0  0  0
   58.1200   26.0940   46.6650 C   0  0  0  0  0  0  0  0  0  0  0  0
   57.0210   27.1740   46.5740 C   0  0  2  0  0  0  0  0  0  0  0  0
   56.0490   26.8020   45.6330 O   0  0  0  0  0  0  0  0  0  0  0  0
   57.5770   28.5560   46.1920 C   0  0  0  0  0  0  0  0  0  0  0  0
   56.7080   29.2380   45.2850 O   0  0  0  0  0  0  0  0  0  0  0  0
   57.0760   30.2970   44.4380 C   0  0  0  0  0  0  0  0  0  0  0  0
   56.7120   30.2180   43.0880 C   0  0  0  0  0  0  0  0  0  0  0  0
   57.0530   31.2410   42.1990 C   0  0  0  0  0  0  0  0  0  0  0  0
   57.7590   32.3570   42.6540 C   0  0  0  0  0  0  0  0  0  0  0  0
   58.1220   32.4510   43.9990 C   0  0  0  0  0  0  0  0  0  0  0  0
   57.7830   31.4290   44.8920 C   0  0  0  0  0  0  0  0  0  0  0  0
   55.9551   20.5029   46.3188 H   0  0  0  0  0  0  0  0  0  0  0  0
   54.9744   20.3409   44.8226 H   0  0  0  0  0  0  0  0  0  0  0  0
   56.7012   19.8462   44.8226 H   0  0  0  0  0  0  0  0  0  0  0  0
   57.5788   24.0597   48.5672 H   0  0  0  0  0  0  0  0  0  0  0  0
   58.6115   26.1706   47.6461 H   0  0  0  0  0  0  0  0  0  0  0  0
   58.8328   26.2678   45.8454 H   0  0  0  0  0  0  0  0  0  0  0  0
   56.5768   27.2512   47.5774 H   0  0  0  0  0  0  0  0  0  0  0  0
   56.3560   27.1410   44.7510 H   0  0  0  0  0  0  0  0  0  0  0  0
   57.6880   29.1611   47.1039 H   0  0  0  0  0  0  0  0  0  0  0  0
   58.5486   28.4122   45.6967 H   0  0  0  0  0  0  0  0  0  0  0  0
   56.1529   29.3433   42.7242 H   0  0  0  0  0  0  0  0  0  0  0  0
   56.7651   31.1672   41.1399 H   0  0  0  0  0  0  0  0  0  0  0  0
   58.0288   33.1610   41.9534 H   0  0  0  0  0  0  0  0  0  0  0  0
   58.6761   33.3311   44.3574 H   0  0  0  0  0  0  0  0  0  0  0  0
   58.0688   31.5088   45.9512 H   0  0  0  0  0  0  0  0  0  0  0  0
  1  2  1  0
  2  3  1  0
  3  4  2  0
  3  5  1  0
  5  6  1  0
  6  7  2  0
  6  8  1  0
  8  9  2  0
  9 10  1  0
 10 11  2  0
 11 12  1  0
 12 13  1  0
 13 14  1  0
 14 15  1  0
 14 16  1  0
 16 17  1  0
 17 18  1  0
 18 19  2  0
 19 20  1  0
 20 21  2  0
 21 22  1  0
 22 23  2  0
  9  2  1  0
 23 18  1  0
 12  8  1  0
  1 24  1  0
  1 25  1  0
  1 26  1  0
 11 27  1  0
 13 28  1  0
 13 29  1  0
 14 30  1  1
 15 31  1  0
 16 32  1  0
 16 33  1  0
 19 34  1  0
 20 35  1  0
 21 36  1  0
 22 37  1  0
 23 38  1  0
M  CHG  1   5  -1
M  END
>  <UniqueID>  (95) 
85

>  <SMILES>  (95) 
Cn1c(=O)[n-]c(=O)c2c1ncn2C[C@H](O)COc1ccccc1

>  <Energy>  (95) 
80.85037256978839

>  <Genealogy>  (95) 
Cn1c(=O)[n-]c(=O)c2c1ncn2CC(O)COc1ccccc1 (protonated)
Cn1c(=O)[n-]c(=O)c2c1ncn2C[C@H](O)COc1ccccc1 (chirality)
Cn1c(=O)[n-]c(=O)c2c1ncn2C[C@H](O)COc1ccccc1 (3D coordinates assigned)
Cn1c(=O)[n-]c(=O)c2c1ncn2C[C@H](O)COc1ccccc1 (optimized conformer: 80.85037256978839 kcal/mol)

>  <smiles>  (95) 
Cn1c(=O)[nH]c(=O)c2c1ncn2CC(O)COc1ccccc1

>  <score_type>  (95) 
oracle

>  <origin>  (95) 
adg

>  <m_score__min__energy>  (95) 
-9.1600000000000001

>  <m_primary>  (95) 
energy

$$$$
95:0
     RDKit          3D

 38 39  0  0  0  0  0  0  0  0999 V2000
   58.9500   29.8970   48.7460 C   0  0  0  0  0  0  0  0  0  0  0  0
   59.8470   30.6250   47.9190 O   0  0  0  0  0  0  0  0  0  0  0  0
   59.5140   31.0430   46.6260 C   0  0  0  0  0  0  0  0  0  0  0  0
   59.7620   30.2960   45.6390 O   0  0  0  0  0  0  0  0  0  0  0  0
   58.8410   32.3390   46.4090 C   0  0  0  0  0  0  0  0  0  0  0  0
   59.2340   33.5140   47.0750 C   0  0  0  0  0  0  0  0  0  0  0  0
   58.5180   34.6430   46.7010 C   0  0  0  0  0  0  0  0  0  0  0  0
   57.3830   34.1940   45.5470 S   0  0  0  0  0  0  0  0  0  0  0  0
   57.8000   32.5640   45.5020 C   0  0  0  0  0  0  0  0  0  0  0  0
   57.1030   31.5570   44.7550 N   0  0  0  0  0  0  0  0  0  0  0  0
   57.4880   31.1460   43.4360 C   0  0  0  0  0  0  0  0  0  0  0  0
   58.4190   31.7360   42.8240 O   0  0  0  0  0  0  0  0  0  0  0  0
   56.7960   29.9880   42.7770 C   0  0  0  0  0  0  0  0  0  0  0  0
   57.0270   28.7390   43.5270 N   0  0  0  0  0  0  0  0  0  0  0  0
   57.7580   27.6360   42.8950 C   0  0  0  0  0  0  0  0  0  0  0  0
   56.4830   28.5370   44.8530 C   0  0  0  0  0  0  0  0  0  0  0  0
   55.5260   29.2550   45.2520 O   0  0  0  0  0  0  0  0  0  0  0  0
   57.0330   27.5260   45.7780 C   0  0  0  0  0  0  0  0  0  0  0  0
   58.3830   27.5720   46.1560 C   0  0  0  0  0  0  0  0  0  0  0  0
   58.8970   26.6120   47.0280 C   0  0  0  0  0  0  0  0  0  0  0  0
   58.0600   25.6050   47.5100 C   0  0  0  0  0  0  0  0  0  0  0  0
   56.7560   25.5630   47.1270 N   0  0  0  0  0  0  0  0  0  0  0  0
   56.2260   26.4860   46.2790 C   0  0  0  0  0  0  0  0  0  0  0  0
   55.0090   26.4070   45.9610 O   0  0  0  0  0  0  0  0  0  0  0  0
   59.1872   30.0895   49.8027 H   0  0  0  0  0  0  0  0  0  0  0  0
   57.9182   30.2163   48.5378 H   0  0  0  0  0  0  0  0  0  0  0  0
   59.0501   28.8215   48.5378 H   0  0  0  0  0  0  0  0  0  0  0  0
   60.0376   33.5363   47.8258 H   0  0  0  0  0  0  0  0  0  0  0  0
   58.6684   35.6594   47.0938 H   0  0  0  0  0  0  0  0  0  0  0  0
   56.3040   31.0620   45.2090 H   0  0  0  0  0  0  0  0  0  0  0  0
   55.7153   30.1896   42.7377 H   0  0  0  0  0  0  0  0  0  0  0  0
   57.2023   29.8680   41.7619 H   0  0  0  0  0  0  0  0  0  0  0  0
   58.1877   26.9876   43.6728 H   0  0  0  0  0  0  0  0  0  0  0  0
   57.0687   27.0503   42.2691 H   0  0  0  0  0  0  0  0  0  0  0  0
   58.5660   28.0427   42.2691 H   0  0  0  0  0  0  0  0  0  0  0  0
   59.0367   28.3654   45.7647 H   0  0  0  0  0  0  0  0  0  0  0  0
   59.9532   26.6486   47.3330 H   0  0  0  0  0  0  0  0  0  0  0  0
   58.4552   24.8449   48.2000 H   0  0  0  0  0  0  0  0  0  0  0  0
  1  2  1  0
  2  3  1  0
  3  4  2  0
  3  5  1  0
  5  6  1  0
  6  7  2  0
  7  8  1  0
  8  9  1  0
  9 10  1  0
 10 11  1  0
 11 12  2  0
 11 13  1  0
 13 14  1  0
 14 15  1  0
 14 16  1  0
 16 17  2  0
 16 18  1  0
 18 19  2  0
 19 20  1  0
 20 21  2  0
 21 22  1  0
 22 23  1  0
 23 24  2  0
  9  5  2  0
 23 18  1  0
  1 25  1  0
  1 26  1  0
  1 27  1  0
  6 28  1  0
  7 29  1  0
 10 30  1  0
 13 31  1  0
 13 32  1  0
 15 33  1  0
 15 34  1  0
 15 35  1  0
 19 36  1  0
 20 37  1  0
 21 38  1  0
M  CHG  1  22  -1
M  END
>  <UniqueID>  (96) 
86

>  <SMILES>  (96) 
COC(=O)c1ccsc1NC(=O)CN(C)C(=O)c1ccc[n-]c1=O

>  <Energy>  (96) 
68.42600455686367

>  <Genealogy>  (96) 
COC(=O)c1ccsc1NC(=O)CN(C)C(=O)c1ccc[n-]c1=O (protonated)
COC(=O)c1ccsc1NC(=O)CN(C)C(=O)c1ccc[n-]c1=O (3D coordinates assigned)
COC(=O)c1ccsc1NC(=O)CN(C)C(=O)c1ccc[n-]c1=O (optimized conformer: 68.42600455686367 kcal/mol)

>  <smiles>  (96) 
COC(=O)c1ccsc1NC(=O)CN(C)C(=O)c1ccc[nH]c1=O

>  <score_type>  (96) 
oracle

>  <origin>  (96) 
adg

>  <m_score__min__energy>  (96) 
-8.6400000000000006

>  <m_primary>  (96) 
energy

$$$$
96:0
     RDKit          3D

 36 37  0  0  0  0  0  0  0  0999 V2000
   57.6960   25.1880   47.4440 C   0  0  0  0  0  0  0  0  0  0  0  0
   58.6140   26.2740   47.5010 O   0  0  0  0  0  0  0  0  0  0  0  0
   58.7550   27.2460   46.4990 C   0  0  0  0  0  0  0  0  0  0  0  0
   60.0450   27.5690   46.0620 C   0  0  0  0  0  0  0  0  0  0  0  0
   60.2380   28.5320   45.0690 C   0  0  0  0  0  0  0  0  0  0  0  0
   59.1400   29.1830   44.5020 C   0  0  0  0  0  0  0  0  0  0  0  0
   57.8420   28.8740   44.9300 C   0  0  0  0  0  0  0  0  0  0  0  0
   56.4650   29.7150   44.2230 S   0  0  0  0  0  0  0  0  0  0  0  0
   55.1840   28.9860   44.5220 O   0  0  0  0  0  0  0  0  0  0  0  0
   56.6520   29.7890   42.7340 O   0  0  0  0  0  0  0  0  0  0  0  0
   56.3630   31.3240   44.8630 N   0  0  0  0  0  0  0  0  0  0  0  0
   57.4650   32.0740   45.3940 C   0  0  0  0  0  0  0  0  0  0  0  0
   57.8390   33.3240   44.8710 C   0  0  0  0  0  0  0  0  0  0  0  0
   58.9160   34.0330   45.4270 C   0  0  0  0  0  0  0  0  0  0  0  0
   59.2750   35.3920   44.9030 C   0  0  0  0  0  0  0  0  0  0  0  0
   59.6050   33.4960   46.5230 C   0  0  0  0  0  0  0  0  0  0  0  0
   59.2550   32.2390   47.0360 C   0  0  0  0  0  0  0  0  0  0  0  0
   59.9800   31.6840   48.2270 C   0  0  0  0  0  0  0  0  0  0  0  0
   58.1770   31.5400   46.4750 C   0  0  0  0  0  0  0  0  0  0  0  0
   57.6490   27.9040   45.9240 C   0  0  0  0  0  0  0  0  0  0  0  0
   57.4327   24.8765   48.4656 H   0  0  0  0  0  0  0  0  0  0  0  0
   56.7870   25.5039   46.9112 H   0  0  0  0  0  0  0  0  0  0  0  0
   58.1588   24.3442   46.9112 H   0  0  0  0  0  0  0  0  0  0  0  0
   60.9141   27.0601   46.5044 H   0  0  0  0  0  0  0  0  0  0  0  0
   61.2561   28.7781   44.7330 H   0  0  0  0  0  0  0  0  0  0  0  0
   59.2944   29.9393   43.7184 H   0  0  0  0  0  0  0  0  0  0  0  0
   57.2848   33.7492   44.0213 H   0  0  0  0  0  0  0  0  0  0  0  0
   59.4553   36.0744   45.7467 H   0  0  0  0  0  0  0  0  0  0  0  0
   60.1848   35.3197   44.2890 H   0  0  0  0  0  0  0  0  0  0  0  0
   58.4481   35.7784   44.2890 H   0  0  0  0  0  0  0  0  0  0  0  0
   60.4261   34.0647   46.9839 H   0  0  0  0  0  0  0  0  0  0  0  0
   59.5036   32.0487   49.1490 H   0  0  0  0  0  0  0  0  0  0  0  0
   59.9380   30.5851   48.2025 H   0  0  0  0  0  0  0  0  0  0  0  0
   61.0299   32.0114   48.2025 H   0  0  0  0  0  0  0  0  0  0  0  0
   57.8877   30.5624   46.8881 H   0  0  0  0  0  0  0  0  0  0  0  0
   56.6303   27.6555   46.2564 H   0  0  0  0  0  0  0  0  0  0  0  0
  1  2  1  0
  2  3  1  0
  3  4  2  0
  4  5  1  0
  5  6  2  0
  6  7  1  0
  7  8  1  0
  8  9  2  0
  8 10  2  0
  8 11  1  0
 11 12  1  0
 12 13  2  0
 13 14  1  0
 14 15  1  0
 14 16  2  0
 16 17  1  0
 17 18  1  0
 17 19  2  0
  7 20  2  0
 20  3  1  0
 19 12  1  0
  1 21  1  0
  1 22  1  0
  1 23  1  0
  4 24  1  0
  5 25  1  0
  6 26  1  0
 13 27  1  0
 15 28  1  0
 15 29  1  0
 15 30  1  0
 16 31  1  0
 18 32  1  0
 18 33  1  0
 18 34  1  0
 19 35  1  0
 20 36  1  0
M  CHG  1  11  -1
M  END
>  <UniqueID>  (97) 
87

>  <SMILES>  (97) 
COc1cccc(S(=O)(=O)[N-]c2cc(C)cc(C)c2)c1

>  <Energy>  (97) 
36.61400950056918

>  <Genealogy>  (97) 
COc1cccc(S(=O)(=O)[N-]c2cc(C)cc(C)c2)c1 (protonated)
COc1cccc(S(=O)(=O)[N-]c2cc(C)cc(C)c2)c1 (3D coordinates assigned)
COc1cccc(S(=O)(=O)[N-]c2cc(C)cc(C)c2)c1 (optimized conformer: 36.61400950056918 kcal/mol)

>  <smiles>  (97) 
COc1cccc(S(=O)(=O)Nc2cc(C)cc(C)c2)c1

>  <score_type>  (97) 
oracle

>  <origin>  (97) 
adg

>  <m_score__min__energy>  (97) 
-8.5500000000000007

>  <m_primary>  (97) 
energy

$$$$
