0:0
     RDKit          3D

 35 38  0  0  0  0  0  0  0  0999 V2000
   57.4130   31.9720   41.8660 Cl  0  0  0  0  0  0  0  0  0  0  0  0
   57.8230   32.2940   43.5410 C   0  0  0  0  0  0  0  0  0  0  0  0
   57.4570   31.3840   44.5400 C   0  0  0  0  0  0  0  0  0  0  0  0
   57.7810   31.6420   45.8750 C   0  0  0  0  0  0  0  0  0  0  0  0
   58.4670   32.8150   46.2180 C   0  0  0  0  0  0  0  0  0  0  0  0
   58.8600   33.1600   47.9340 S   0  0  0  0  0  0  0  0  0  0  0  0
   60.6140   32.8250   47.7020 C   0  0  0  0  0  0  0  0  0  0  0  0
   61.4910   33.9140   47.5940 C   0  0  0  0  0  0  0  0  0  0  0  0
   62.8530   33.7040   47.3630 C   0  0  0  0  0  0  0  0  0  0  0  0
   63.3490   32.4050   47.2400 C   0  0  0  0  0  0  0  0  0  0  0  0
   62.4850   31.3120   47.3500 C   0  0  0  0  0  0  0  0  0  0  0  0
   61.1150   31.5100   47.5850 C   0  0  0  0  0  0  0  0  0  0  0  0
   60.2310   30.3350   47.7110 C   0  0  0  0  0  0  0  0  0  0  0  0
   59.5860   29.9900   48.8500 N   0  0  0  0  0  0  0  0  0  0  0  0
   58.8780   28.8950   48.5950 N   0  0  0  0  0  0  0  0  0  0  0  0
   59.1040   28.5950   47.3020 C   0  0  0  0  0  0  0  0  0  0  0  0
   58.5440   27.5450   46.5800 C   0  0  0  0  0  0  0  0  0  0  0  0
   58.8840   27.4440   45.2190 C   0  0  0  0  0  0  0  0  0  0  0  0
   59.7510   28.3850   44.6290 C   0  0  0  0  0  0  0  0  0  0  0  0
   60.2820   29.4230   45.4100 C   0  0  0  0  0  0  0  0  0  0  0  0
   59.9390   29.4680   46.7250 N   0  0  0  0  0  0  0  0  0  0  0  0
   58.8450   33.7170   45.2150 C   0  0  0  0  0  0  0  0  0  0  0  0
   58.5190   33.4590   43.8800 C   0  0  0  0  0  0  0  0  0  0  0  0
   56.9139   30.4651   44.2741 H   0  0  0  0  0  0  0  0  0  0  0  0
   57.4971   30.9232   46.6577 H   0  0  0  0  0  0  0  0  0  0  0  0
   61.1045   34.9392   47.6917 H   0  0  0  0  0  0  0  0  0  0  0  0
   63.5349   34.5630   47.2780 H   0  0  0  0  0  0  0  0  0  0  0  0
   64.4211   32.2414   47.0563 H   0  0  0  0  0  0  0  0  0  0  0  0
   62.8807   30.2903   47.2519 H   0  0  0  0  0  0  0  0  0  0  0  0
   57.8630   26.8233   47.0547 H   0  0  0  0  0  0  0  0  0  0  0  0
   58.4706   26.6254   44.6115 H   0  0  0  0  0  0  0  0  0  0  0  0
   60.0100   28.3065   43.5628 H   0  0  0  0  0  0  0  0  0  0  0  0
   60.9540   30.1760   44.9725 H   0  0  0  0  0  0  0  0  0  0  0  0
   59.3993   34.6299   45.4782 H   0  0  0  0  0  0  0  0  0  0  0  0
   58.8102   34.1730   43.0955 H   0  0  0  0  0  0  0  0  0  0  0  0
  1  2  1  0
  2  3  2  0
  3  4  1  0
  4  5  2  0
  5  6  1  0
  6  7  1  0
  7  8  2  0
  8  9  1  0
  9 10  2  0
 10 11  1  0
 11 12  2  0
 12 13  1  0
 13 14  2  0
 14 15  1  0
 15 16  2  0
 16 17  1  0
 17 18  2  0
 18 19  1  0
 19 20  2  0
 20 21  1  0
  5 22  1  0
 22 23  2  0
 23  2  1  0
 12  7  1  0
 21 13  1  0
 21 16  1  0
  3 24  1  0
  4 25  1  0
  8 26  1  0
  9 27  1  0
 10 28  1  0
 11 29  1  0
 17 30  1  0
 18 31  1  0
 19 32  1  0
 20 33  1  0
 22 34  1  0
 23 35  1  0
M  END
>  <UniqueID>  (1) 
1

>  <SMILES>  (1) 
Clc1ccc(Sc2ccccc2-c2nnc3ccccn23)cc1

>  <Energy>  (1) 
81.23433343720559

>  <Genealogy>  (1) 
Clc1ccc(Sc2ccccc2-c2nnc3ccccn23)cc1 (3D coordinates assigned)
Clc1ccc(Sc2ccccc2-c2nnc3ccccn23)cc1 (optimized conformer: 81.23433343720559 kcal/mol)

>  <smiles>  (1) 
Clc1ccc(Sc2ccccc2-c2nnc3ccccn23)cc1

>  <score_type>  (1) 
oracle

>  <origin>  (1) 
adg

>  <m_score__min__energy>  (1) 
-9

>  <m_primary>  (1) 
energy

$$$$
1:0
     RDKit          3D

 48 52  0  0  0  0  0  0  0  0999 V2000
   55.7790   25.7030   46.0010 O   0  0  0  0  0  0  0  0  0  0  0  0
   56.6980   25.3950   45.1920 C   0  0  0  0  0  0  0  0  0  0  0  0
   57.6490   26.3930   44.7850 N   0  0  0  0  0  0  0  0  0  0  0  0
   57.8360   27.6250   45.5030 C   0  0  0  0  0  0  0  0  0  0  0  0
   58.3320   27.5840   46.8150 C   0  0  0  0  0  0  0  0  0  0  0  0
   58.5890   28.7570   47.5180 C   0  0  0  0  0  0  0  0  0  0  0  0
   58.3810   30.0030   46.9230 C   0  0  0  0  0  0  0  0  0  0  0  0
   58.6760   31.1800   47.6840 N   0  0  0  0  0  0  0  0  0  0  0  0
   59.3440   32.2250   47.2850 C   0  0  0  0  0  0  0  0  0  0  0  0
   58.6510   33.3560   46.7510 N   0  0  0  0  0  0  0  0  0  0  0  0
   59.7850   34.4660   46.0870 S   0  0  0  0  0  0  0  0  0  0  0  0
   59.6380   34.5810   44.5970 O   0  0  0  0  0  0  0  0  0  0  0  0
   59.7200   35.7990   46.7750 O   0  0  0  0  0  0  0  0  0  0  0  0
   61.1820   33.5460   46.5490 C   0  0  0  0  0  0  0  0  0  0  0  0
   62.5120   33.9200   46.3670 C   0  0  0  0  0  0  0  0  0  0  0  0
   63.5180   33.0880   46.8740 C   0  0  0  0  0  0  0  0  0  0  0  0
   63.1810   31.9160   47.5710 C   0  0  0  0  0  0  0  0  0  0  0  0
   61.8370   31.5580   47.7550 C   0  0  0  0  0  0  0  0  0  0  0  0
   60.8280   32.3710   47.2080 C   0  0  0  0  0  0  0  0  0  0  0  0
   57.8420   30.0780   45.6170 C   0  0  0  0  0  0  0  0  0  0  0  0
   57.5580   31.3210   45.0150 C   0  0  0  0  0  0  0  0  0  0  0  0
   57.0310   31.3810   43.7260 C   0  0  0  0  0  0  0  0  0  0  0  0
   56.7660   30.2100   43.0210 C   0  0  0  0  0  0  0  0  0  0  0  0
   57.0280   28.9670   43.5990 C   0  0  0  0  0  0  0  0  0  0  0  0
   57.5770   28.8780   44.8960 C   0  0  0  0  0  0  0  0  0  0  0  0
   56.7560   24.0160   44.6480 C   0  0  0  0  0  0  0  0  0  0  0  0
   57.3850   22.9930   45.3840 C   0  0  0  0  0  0  0  0  0  0  0  0
   57.4490   21.6920   44.8780 C   0  0  0  0  0  0  0  0  0  0  0  0
   56.8940   21.3970   43.6300 C   0  0  0  0  0  0  0  0  0  0  0  0
   56.2780   22.4050   42.8850 C   0  0  0  0  0  0  0  0  0  0  0  0
   56.2090   23.7080   43.3880 C   0  0  0  0  0  0  0  0  0  0  0  0
   58.1970   26.2380   43.9100 H   0  0  0  0  0  0  0  0  0  0  0  0
   58.5201   26.6118   47.2940 H   0  0  0  0  0  0  0  0  0  0  0  0
   58.9595   28.7022   48.5523 H   0  0  0  0  0  0  0  0  0  0  0  0
   57.6160   33.4280   46.6410 H   0  0  0  0  0  0  0  0  0  0  0  0
   62.7664   34.8493   45.8362 H   0  0  0  0  0  0  0  0  0  0  0  0
   64.5753   33.3531   46.7259 H   0  0  0  0  0  0  0  0  0  0  0  0
   63.9771   31.2738   47.9758 H   0  0  0  0  0  0  0  0  0  0  0  0
   61.5753   30.6516   48.3207 H   0  0  0  0  0  0  0  0  0  0  0  0
   57.7541   32.2517   45.5676 H   0  0  0  0  0  0  0  0  0  0  0  0
   56.8236   32.3574   43.2639 H   0  0  0  0  0  0  0  0  0  0  0  0
   56.3486   30.2647   42.0047 H   0  0  0  0  0  0  0  0  0  0  0  0
   56.8044   28.0476   43.0380 H   0  0  0  0  0  0  0  0  0  0  0  0
   57.8292   23.2199   46.3644 H   0  0  0  0  0  0  0  0  0  0  0  0
   57.9371   20.8987   45.4632 H   0  0  0  0  0  0  0  0  0  0  0  0
   56.9422   20.3716   43.2346 H   0  0  0  0  0  0  0  0  0  0  0  0
   55.8461   22.1734   41.9002 H   0  0  0  0  0  0  0  0  0  0  0  0
   55.7241   24.4975   42.7951 H   0  0  0  0  0  0  0  0  0  0  0  0
  1  2  2  0
  2  3  1  0
  3  4  1  0
  4  5  2  0
  5  6  1  0
  6  7  2  0
  7  8  1  0
  8  9  2  3
  9 10  1  0
 10 11  1  0
 11 12  2  0
 11 13  2  0
 11 14  1  0
 14 15  2  0
 15 16  1  0
 16 17  2  0
 17 18  1  0
 18 19  2  0
  7 20  1  0
 20 21  2  0
 21 22  1  0
 22 23  2  0
 23 24  1  0
 24 25  2  0
  2 26  1  0
 26 27  2  0
 27 28  1  0
 28 29  2  0
 29 30  1  0
 30 31  2  0
 25  4  1  0
 31 26  1  0
 19  9  1  0
 25 20  1  0
 19 14  1  0
  3 32  1  0
  5 33  1  0
  6 34  1  0
 10 35  1  0
 15 36  1  0
 16 37  1  0
 17 38  1  0
 18 39  1  0
 21 40  1  0
 22 41  1  0
 23 42  1  0
 24 43  1  0
 27 44  1  0
 28 45  1  0
 29 46  1  0
 30 47  1  0
 31 48  1  0
M  END
>  <UniqueID>  (2) 
2

>  <SMILES>  (2) 
O=C(Nc1ccc(N=C2NS(=O)(=O)c3ccccc32)c2ccccc12)c1ccccc1

>  <Energy>  (2) 
101.70024110133922

>  <Genealogy>  (2) 
O=C(Nc1ccc(N=C2NS(=O)(=O)c3ccccc32)c2ccccc12)c1ccccc1 (3D coordinates assigned)
O=C(Nc1ccc(N=C2NS(=O)(=O)c3ccccc32)c2ccccc12)c1ccccc1 (nonaromatic ring conformer: 101.70024110133922 kcal/mol)

>  <smiles>  (2) 
O=C(Nc1ccc(N=C2NS(=O)(=O)c3ccccc32)c2ccccc12)c1ccccc1

>  <score_type>  (2) 
oracle

>  <origin>  (2) 
adg

>  <m_score__min__energy>  (2) 
-10.59

>  <m_primary>  (2) 
energy

$$$$
2:0
     RDKit          3D

 26 27  0  0  0  0  0  0  0  0999 V2000
   58.8590   27.0860   46.6690 Cl  0  0  0  0  0  0  0  0  0  0  0  0
   59.5670   28.1160   45.4000 C   0  0  0  0  0  0  0  0  0  0  0  0
   58.4840   28.9190   44.7300 C   0  0  0  0  0  0  0  0  0  0  0  0
   58.1300   30.1720   45.2610 C   0  0  0  0  0  0  0  0  0  0  0  0
   57.1020   30.9300   44.6880 C   0  0  0  0  0  0  0  0  0  0  0  0
   56.8010   32.1820   45.2410 O   0  0  0  0  0  0  0  0  0  0  0  0
   57.7400   33.1250   45.6830 C   0  0  0  0  0  0  0  0  0  0  0  0
   58.0410   33.1850   47.0500 C   0  0  0  0  0  0  0  0  0  0  0  0
   58.9620   34.1210   47.5310 C   0  0  0  0  0  0  0  0  0  0  0  0
   59.5790   35.0130   46.6480 C   0  0  0  0  0  0  0  0  0  0  0  0
   59.2700   34.9740   45.2860 C   0  0  0  0  0  0  0  0  0  0  0  0
   58.3500   34.0380   44.8020 C   0  0  0  0  0  0  0  0  0  0  0  0
   56.4360   30.4390   43.5540 C   0  0  0  0  0  0  0  0  0  0  0  0
   56.7690   29.1900   43.0270 C   0  0  0  0  0  0  0  0  0  0  0  0
   57.7810   28.4220   43.6120 C   0  0  0  0  0  0  0  0  0  0  0  0
   58.1400   26.8440   42.9160 Cl  0  0  0  0  0  0  0  0  0  0  0  0
   60.3013   28.7991   45.8519 H   0  0  0  0  0  0  0  0  0  0  0  0
   60.0628   27.4803   44.6516 H   0  0  0  0  0  0  0  0  0  0  0  0
   58.6678   30.5616   46.1379 H   0  0  0  0  0  0  0  0  0  0  0  0
   57.5501   32.4919   47.7490 H   0  0  0  0  0  0  0  0  0  0  0  0
   59.2012   34.1557   48.6041 H   0  0  0  0  0  0  0  0  0  0  0  0
   60.3076   35.7453   47.0259 H   0  0  0  0  0  0  0  0  0  0  0  0
   59.7509   35.6803   44.5933 H   0  0  0  0  0  0  0  0  0  0  0  0
   58.1026   34.0153   43.7304 H   0  0  0  0  0  0  0  0  0  0  0  0
   55.6480   31.0413   43.0784 H   0  0  0  0  0  0  0  0  0  0  0  0
   56.2323   28.8075   42.1463 H   0  0  0  0  0  0  0  0  0  0  0  0
  1  2  1  0
  2  3  1  0
  3  4  2  0
  4  5  1  0
  5  6  1  0
  6  7  1  0
  7  8  2  0
  8  9  1  0
  9 10  2  0
 10 11  1  0
 11 12  2  0
  5 13  2  0
 13 14  1  0
 14 15  2  0
 15 16  1  0
 15  3  1  0
 12  7  1  0
  2 17  1  0
  2 18  1  0
  4 19  1  0
  8 20  1  0
  9 21  1  0
 10 22  1  0
 11 23  1  0
 12 24  1  0
 13 25  1  0
 14 26  1  0
M  END
>  <UniqueID>  (3) 
3

>  <SMILES>  (3) 
ClCc1cc(Oc2ccccc2)ccc1Cl

>  <Energy>  (3) 
33.42382954456039

>  <Genealogy>  (3) 
ClCc1cc(Oc2ccccc2)ccc1Cl (3D coordinates assigned)
ClCc1cc(Oc2ccccc2)ccc1Cl (optimized conformer: 33.42382954456039 kcal/mol)

>  <smiles>  (3) 
ClCc1cc(Oc2ccccc2)ccc1Cl

>  <score_type>  (3) 
oracle

>  <origin>  (3) 
adg

>  <m_score__min__energy>  (3) 
-6.6600000000000001

>  <m_primary>  (3) 
energy

$$$$
3:0
     RDKit          3D

 47 50  0  0  0  0  0  0  0  0999 V2000
   56.3286   29.6875   41.9555 H   0  0  0  0  0  0  0  0  0  0  0  0
   56.6540   30.4990   42.6230 C   0  0  0  0  0  0  0  0  0  0  0  0
   57.3850   31.5750   42.1110 C   0  0  0  0  0  0  0  0  0  0  0  0
   57.6316   31.6117   41.0396 H   0  0  0  0  0  0  0  0  0  0  0  0
   57.8030   32.6050   42.9600 C   0  0  0  0  0  0  0  0  0  0  0  0
   58.3680   33.4557   42.5511 H   0  0  0  0  0  0  0  0  0  0  0  0
   57.5060   32.5590   44.3280 C   0  0  0  0  0  0  0  0  0  0  0  0
   57.9230   33.6230   45.1430 O   0  0  0  0  0  0  0  0  0  0  0  0
   58.5710   33.4880   46.3780 C   0  0  0  0  0  0  0  0  0  0  0  0
   59.2570   34.5880   46.9050 C   0  0  0  0  0  0  0  0  0  0  0  0
   59.2834   35.5351   46.3462 H   0  0  0  0  0  0  0  0  0  0  0  0
   59.9080   34.4900   48.1360 C   0  0  0  0  0  0  0  0  0  0  0  0
   60.4353   35.3625   48.5492 H   0  0  0  0  0  0  0  0  0  0  0  0
   59.8910   33.2860   48.8440 C   0  0  0  0  0  0  0  0  0  0  0  0
   60.3894   33.2192   49.8223 H   0  0  0  0  0  0  0  0  0  0  0  0
   59.2410   32.1610   48.3130 C   0  0  0  0  0  0  0  0  0  0  0  0
   59.1970   30.8780   49.0950 C   0  0  0  0  0  0  0  0  0  0  0  0
   58.1498   30.5705   49.2321 H   0  0  0  0  0  0  0  0  0  0  0  0
   59.6705   31.0358   50.0753 H   0  0  0  0  0  0  0  0  0  0  0  0
   59.9200   29.8290   48.3750 N   0  0  0  0  0  0  0  0  0  0  0  0
   60.7160   29.3740   48.8770 H   0  0  0  0  0  0  0  0  0  0  0  0
   59.4510   29.2280   47.1540 C   0  0  0  0  0  0  0  0  0  0  0  0
   60.0440   29.5220   45.9130 C   0  0  0  0  0  0  0  0  0  0  0  0
   60.8863   30.2276   45.8614 H   0  0  0  0  0  0  0  0  0  0  0  0
   59.5670   28.9210   44.7460 C   0  0  0  0  0  0  0  0  0  0  0  0
   60.0363   29.1544   43.7789 H   0  0  0  0  0  0  0  0  0  0  0  0
   58.4980   28.0260   44.8010 C   0  0  0  0  0  0  0  0  0  0  0  0
   58.1204   27.5666   43.8756 H   0  0  0  0  0  0  0  0  0  0  0  0
   57.9020   27.7090   46.0320 C   0  0  0  0  0  0  0  0  0  0  0  0
   56.7770   26.7560   46.0990 C   0  0  0  0  0  0  0  0  0  0  0  0
   56.8980   25.4620   46.4550 N   0  0  0  0  0  0  0  0  0  0  0  0
   55.6160   25.0490   46.3590 C   0  0  0  0  0  0  0  0  0  0  0  0
   55.2230   23.8390   46.6100 N   0  0  0  0  0  0  0  0  0  0  0  0
   54.0020   23.2620   46.0590 C   0  0  0  0  0  0  0  0  0  0  0  0
   53.3408   22.9496   46.8807 H   0  0  0  0  0  0  0  0  0  0  0  0
   53.4884   24.0127   45.4404 H   0  0  0  0  0  0  0  0  0  0  0  0
   54.2559   22.3886   45.4404 H   0  0  0  0  0  0  0  0  0  0  0  0
   54.7730   26.0210   45.9710 N   0  0  0  0  0  0  0  0  0  0  0  0
   55.5320   27.0650   45.8190 O   0  0  0  0  0  0  0  0  0  0  0  0
   58.3910   28.3090   47.2050 C   0  0  0  0  0  0  0  0  0  0  0  0
   57.9377   28.0555   48.1747 H   0  0  0  0  0  0  0  0  0  0  0  0
   58.5800   32.2670   47.0780 C   0  0  0  0  0  0  0  0  0  0  0  0
   58.0665   31.3907   46.6556 H   0  0  0  0  0  0  0  0  0  0  0  0
   56.7580   31.4800   44.8360 C   0  0  0  0  0  0  0  0  0  0  0  0
   56.5043   31.4431   45.9057 H   0  0  0  0  0  0  0  0  0  0  0  0
   56.3370   30.4550   43.9830 C   0  0  0  0  0  0  0  0  0  0  0  0
   55.7549   29.6121   44.3837 H   0  0  0  0  0  0  0  0  0  0  0  0
  1  2  1  0
  2  3  2  0
  3  4  1  0
  3  5  1  0
  5  6  1  0
  5  7  2  0
  7  8  1  0
  8  9  1  0
  9 10  2  0
 10 11  1  0
 10 12  1  0
 12 13  1  0
 12 14  2  0
 14 15  1  0
 14 16  1  0
 16 17  1  0
 17 18  1  0
 17 19  1  0
 17 20  1  0
 20 21  1  0
 20 22  1  0
 22 23  2  0
 23 24  1  0
 23 25  1  0
 25 26  1  0
 25 27  2  0
 27 28  1  0
 27 29  1  0
 29 30  1  0
 30 31  2  0
 31 32  1  0
 32 33  2  0
 33 34  1  0
 34 35  1  0
 34 36  1  0
 34 37  1  0
 32 38  1  0
 38 39  1  0
 29 40  2  0
 40 41  1  0
 16 42  2  0
 42 43  1  0
  7 44  1  0
 44 45  1  0
 44 46  2  0
 46 47  1  0
 46  2  1  0
 42  9  1  0
 40 22  1  0
 39 30  1  0
M  CHG  1  38  -1
M  END
>  <UniqueID>  (4) 
4

>  <SMILES>  (4) 
C/N=c1\nc(-c2cccc(NCc3cccc(Oc4ccccc4)c3)c2)o[n-]1

>  <Energy>  (4) 
87.62951900779771

>  <Genealogy>  (4) 
CN=c1nc(-c2cccc(NCc3cccc(Oc4ccccc4)c3)c2)o[n-]1 (protonated)
C/N=c1\nc(-c2cccc(NCc3cccc(Oc4ccccc4)c3)c2)o[n-]1 (cis-trans isomerization)
C/N=c1\nc(-c2cccc(NCc3cccc(Oc4ccccc4)c3)c2)o[n-]1 (3D coordinates assigned)
C/N=c1\nc(-c2cccc(NCc3cccc(Oc4ccccc4)c3)c2)o[n-]1 (optimized conformer: 87.62951900779771 kcal/mol)

>  <smiles>  (4) 
CN=c1nc(-c2cccc(NCc3cccc(Oc4ccccc4)c3)c2)o[nH]1

>  <score_type>  (4) 
oracle

>  <origin>  (4) 
adg

>  <m_score__min__energy>  (4) 
-11.19

>  <m_primary>  (4) 
energy

$$$$
4:0
     RDKit          3D

 24 25  0  0  0  0  0  0  0  0999 V2000
   50.2260   32.8490   48.6250 O   0  0  0  0  0  0  0  0  0  0  0  0
   50.7920   32.0210   49.3830 C   0  0  0  0  0  0  0  0  0  0  0  0
   51.0320   32.3410   50.6790 N   0  0  0  0  0  0  0  0  0  0  0  0
   51.6420   31.4650   51.5200 C   0  0  0  0  0  0  0  0  0  0  0  0
   51.8690   31.8310   52.8440 O   0  0  0  0  0  0  0  0  0  0  0  0
   52.0420   30.2010   51.0490 C   0  0  0  0  0  0  0  0  0  0  0  0
   52.6900   29.1950   51.9720 C   0  0  0  0  0  0  0  0  0  0  0  0
   54.0570   29.6670   52.3950 C   0  0  0  0  0  0  0  0  0  0  0  0
   54.6970   30.7040   51.6950 C   0  0  0  0  0  0  0  0  0  0  0  0
   55.9780   31.1210   52.0690 C   0  0  0  0  0  0  0  0  0  0  0  0
   56.6320   30.5040   53.1400 C   0  0  0  0  0  0  0  0  0  0  0  0
   56.0030   29.4690   53.8380 C   0  0  0  0  0  0  0  0  0  0  0  0
   54.7220   29.0490   53.4670 C   0  0  0  0  0  0  0  0  0  0  0  0
   51.7750   29.8940   49.7000 C   0  0  0  0  0  0  0  0  0  0  0  0
   52.1000   28.7770   49.2170 O   0  0  0  0  0  0  0  0  0  0  0  0
   51.1620   30.8060   48.9040 N   0  0  0  0  0  0  0  0  0  0  0  0
   52.6780   31.4860   53.3480 H   0  0  0  0  0  0  0  0  0  0  0  0
   52.0602   29.0651   52.8645 H   0  0  0  0  0  0  0  0  0  0  0  0
   52.7945   28.2392   51.4376 H   0  0  0  0  0  0  0  0  0  0  0  0
   54.1880   31.1896   50.8494 H   0  0  0  0  0  0  0  0  0  0  0  0
   56.4723   31.9359   51.5198 H   0  0  0  0  0  0  0  0  0  0  0  0
   57.6401   30.8327   53.4328 H   0  0  0  0  0  0  0  0  0  0  0  0
   56.5169   28.9839   54.6810 H   0  0  0  0  0  0  0  0  0  0  0  0
   54.2330   28.2313   54.0168 H   0  0  0  0  0  0  0  0  0  0  0  0
  1  2  2  0
  2  3  1  0
  3  4  1  0
  4  5  1  0
  4  6  2  0
  6  7  1  0
  7  8  1  0
  8  9  2  0
  9 10  1  0
 10 11  2  0
 11 12  1  0
 12 13  2  0
  6 14  1  0
 14 15  2  0
 14 16  1  0
 16  2  1  0
 13  8  1  0
  5 17  1  0
  7 18  1  0
  7 19  1  0
  9 20  1  0
 10 21  1  0
 11 22  1  0
 12 23  1  0
 13 24  1  0
M  CHG  2   3  -1  16  -1
M  END
>  <UniqueID>  (5) 
5

>  <SMILES>  (5) 
O=c1[n-]c(O)c(Cc2ccccc2)c(=O)[n-]1

>  <Energy>  (5) 
25.701293364969377

>  <Genealogy>  (5) 
O=c1[n-]c(O)c(Cc2ccccc2)c(=O)[n-]1 (protonated)
O=c1[n-]c(O)c(Cc2ccccc2)c(=O)[n-]1 (3D coordinates assigned)
O=c1[n-]c(O)c(Cc2ccccc2)c(=O)[n-]1 (optimized conformer: 25.701293364969377 kcal/mol)

>  <smiles>  (5) 
O=c1[nH]c(O)c(Cc2ccccc2)c(=O)[nH]1

>  <score_type>  (5) 
oracle

>  <origin>  (5) 
adg

>  <m_score__min__energy>  (5) 
-10.66

>  <m_primary>  (5) 
energy

$$$$
5:0
     RDKit          3D

 20 21  0  0  0  0  0  0  0  0999 V2000
   54.2280   24.0180   54.3780 H   0  0  0  0  0  0  0  0  0  0  0  0
   53.9420   24.6620   53.6070 N   0  0  0  0  0  0  0  0  0  0  0  0
   54.1200   25.9390   53.6930 C   0  0  0  0  0  0  0  0  0  0  0  0
   55.3550   26.6570   54.5620 S   0  0  0  0  0  0  0  0  0  0  0  0
   54.8640   28.2140   54.1540 C   0  0  0  0  0  0  0  0  0  0  0  0
   55.3549   29.1436   54.4779 H   0  0  0  0  0  0  0  0  0  0  0  0
   53.7260   28.1360   53.3330 C   0  0  0  0  0  0  0  0  0  0  0  0
   53.0150   29.3360   52.7780 C   0  0  0  0  0  0  0  0  0  0  0  0
   53.5670   30.0800   51.7100 C   0  0  0  0  0  0  0  0  0  0  0  0
   54.5323   29.7758   51.2790 H   0  0  0  0  0  0  0  0  0  0  0  0
   52.9030   31.1970   51.1940 C   0  0  0  0  0  0  0  0  0  0  0  0
   53.3486   31.7634   50.3629 H   0  0  0  0  0  0  0  0  0  0  0  0
   51.6790   31.5960   51.7280 C   0  0  0  0  0  0  0  0  0  0  0  0
   51.0220   32.7070   51.2140 O   0  0  0  0  0  0  0  0  0  0  0  0
   51.1160   30.8780   52.7830 C   0  0  0  0  0  0  0  0  0  0  0  0
   50.1509   31.1932   53.2064 H   0  0  0  0  0  0  0  0  0  0  0  0
   51.7730   29.7590   53.3050 C   0  0  0  0  0  0  0  0  0  0  0  0
   51.3176   29.2008   54.1363 H   0  0  0  0  0  0  0  0  0  0  0  0
   53.3270   26.8500   53.0890 N   0  0  0  0  0  0  0  0  0  0  0  0
   52.5100   26.5680   52.5070 H   0  0  0  0  0  0  0  0  0  0  0  0
  1  2  1  0
  2  3  2  0
  3  4  1  0
  4  5  1  0
  5  6  1  0
  5  7  2  0
  7  8  1  0
  8  9  2  0
  9 10  1  0
  9 11  1  0
 11 12  1  0
 11 13  2  0
 13 14  1  0
 13 15  1  0
 15 16  1  0
 15 17  2  0
 17 18  1  0
  7 19  1  0
 19 20  1  0
 19  3  1  0
 17  8  1  0
M  CHG  1  14  -1
M  END
>  <UniqueID>  (6) 
6

>  <SMILES>  (6) 
[H]/N=c1\[nH]c(-c2ccc([O-])cc2)cs1

>  <Energy>  (6) 
55.357026634662745

>  <Genealogy>  (6) 
N=c1[nH]c(-c2ccc([O-])cc2)cs1 (protonated)
[H]/N=c1\[nH]c(-c2ccc([O-])cc2)cs1 (cis-trans isomerization)
[H]/N=c1\[nH]c(-c2ccc([O-])cc2)cs1 (3D coordinates assigned)
[H]/N=c1\[nH]c(-c2ccc([O-])cc2)cs1 (optimized conformer: 55.357026634662745 kcal/mol)

>  <smiles>  (6) 
N=c1[nH]c(-c2ccc(O)cc2)cs1

>  <score_type>  (6) 
oracle

>  <origin>  (6) 
adg

>  <m_score__min__energy>  (6) 
-8.7100000000000009

>  <m_primary>  (6) 
energy

$$$$
6:0
     RDKit          3D

 42 44  0  0  0  0  0  0  0  0999 V2000
   56.2500   29.1760   42.4300 N   0  0  0  0  0  0  0  0  0  0  0  0
   56.8870   30.1980   43.2020 C   0  0  0  0  0  0  0  0  0  0  0  0
   57.6220   31.1950   42.5460 C   0  0  0  0  0  0  0  0  0  0  0  0
   58.1660   32.2630   43.2640 C   0  0  0  0  0  0  0  0  0  0  0  0
   57.9580   32.3650   44.6480 C   0  0  0  0  0  0  0  0  0  0  0  0
   58.5640   33.4680   45.4230 C   0  0  0  0  0  0  0  0  0  0  0  0
   59.1110   34.5090   44.7340 N   0  0  0  0  0  0  0  0  0  0  0  0
   59.6490   35.5900   45.3570 C   0  0  0  0  0  0  0  0  0  0  0  0
   59.6480   35.6650   46.7480 C   0  0  0  0  0  0  0  0  0  0  0  0
   59.1110   34.6120   47.4880 C   0  0  0  0  0  0  0  0  0  0  0  0
   58.5750   33.4920   46.8380 C   0  0  0  0  0  0  0  0  0  0  0  0
   58.1090   32.3840   47.6210 N   0  0  0  0  0  0  0  0  0  0  0  0
   57.2540   31.3500   45.3110 C   0  0  0  0  0  0  0  0  0  0  0  0
   56.7450   30.2520   44.6040 C   0  0  0  0  0  0  0  0  0  0  0  0
   56.1050   29.2050   45.3370 N   0  0  0  0  0  0  0  0  0  0  0  0
   56.7820   27.6160   45.5140 S   0  0  0  0  0  0  0  0  0  0  0  0
   57.5970   27.2550   44.3050 O   0  0  0  0  0  0  0  0  0  0  0  0
   55.6510   26.6350   45.6330 O   0  0  0  0  0  0  0  0  0  0  0  0
   57.7820   27.4760   46.9960 C   0  0  0  0  0  0  0  0  0  0  0  0
   58.8970   28.4890   47.0330 C   0  0  0  0  0  0  0  0  0  0  0  0
   59.6400   28.7790   45.8750 C   0  0  0  0  0  0  0  0  0  0  0  0
   60.6570   29.7370   45.9100 C   0  0  0  0  0  0  0  0  0  0  0  0
   60.9580   30.3970   47.1060 C   0  0  0  0  0  0  0  0  0  0  0  0
   62.2210   31.6130   47.1440 Cl  0  0  0  0  0  0  0  0  0  0  0  0
   60.2500   30.0880   48.2700 C   0  0  0  0  0  0  0  0  0  0  0  0
   59.2260   29.1380   48.2360 C   0  0  0  0  0  0  0  0  0  0  0  0
   55.6150   29.4250   41.6390 H   0  0  0  0  0  0  0  0  0  0  0  0
   56.3000   28.1740   42.7170 H   0  0  0  0  0  0  0  0  0  0  0  0
   57.7716   31.1362   41.4578 H   0  0  0  0  0  0  0  0  0  0  0  0
   58.7601   33.0275   42.7419 H   0  0  0  0  0  0  0  0  0  0  0  0
   60.0855   36.4063   44.7627 H   0  0  0  0  0  0  0  0  0  0  0  0
   60.0664   36.5456   47.2574 H   0  0  0  0  0  0  0  0  0  0  0  0
   59.1081   34.6607   48.5869 H   0  0  0  0  0  0  0  0  0  0  0  0
   58.5100   31.4270   47.5130 H   0  0  0  0  0  0  0  0  0  0  0  0
   57.4170   32.5330   48.3880 H   0  0  0  0  0  0  0  0  0  0  0  0
   57.0994   31.4160   46.3981 H   0  0  0  0  0  0  0  0  0  0  0  0
   57.1366   27.6285   47.8736 H   0  0  0  0  0  0  0  0  0  0  0  0
   58.2375   26.4748   47.0005 H   0  0  0  0  0  0  0  0  0  0  0  0
   59.4196   28.2491   44.9366 H   0  0  0  0  0  0  0  0  0  0  0  0
   61.2215   29.9723   44.9957 H   0  0  0  0  0  0  0  0  0  0  0  0
   60.4991   30.5934   49.2147 H   0  0  0  0  0  0  0  0  0  0  0  0
   58.6738   28.8964   49.1562 H   0  0  0  0  0  0  0  0  0  0  0  0
  1  2  1  0
  2  3  2  0
  3  4  1  0
  4  5  2  0
  5  6  1  0
  6  7  2  0
  7  8  1  0
  8  9  2  0
  9 10  1  0
 10 11  2  0
 11 12  1  0
  5 13  1  0
 13 14  2  0
 14 15  1  0
 15 16  1  0
 16 17  2  0
 16 18  2  0
 16 19  1  0
 19 20  1  0
 20 21  2  0
 21 22  1  0
 22 23  2  0
 23 24  1  0
 23 25  1  0
 25 26  2  0
 14  2  1  0
 26 20  1  0
 11  6  1  0
  1 27  1  0
  1 28  1  0
  3 29  1  0
  4 30  1  0
  8 31  1  0
  9 32  1  0
 10 33  1  0
 12 34  1  0
 12 35  1  0
 13 36  1  0
 19 37  1  0
 19 38  1  0
 21 39  1  0
 22 40  1  0
 25 41  1  0
 26 42  1  0
M  CHG  1  15  -1
M  END
>  <UniqueID>  (7) 
7

>  <SMILES>  (7) 
Nc1ccc(-c2ncccc2N)cc1[N-]S(=O)(=O)Cc1ccc(Cl)cc1

>  <Energy>  (7) 
53.089394030248265

>  <Genealogy>  (7) 
Nc1ccc(-c2ncccc2N)cc1[N-]S(=O)(=O)Cc1ccc(Cl)cc1 (protonated)
Nc1ccc(-c2ncccc2N)cc1[N-]S(=O)(=O)Cc1ccc(Cl)cc1 (3D coordinates assigned)
Nc1ccc(-c2ncccc2N)cc1[N-]S(=O)(=O)Cc1ccc(Cl)cc1 (optimized conformer: 53.089394030248265 kcal/mol)

>  <smiles>  (7) 
Nc1ccc(-c2ncccc2N)cc1NS(=O)(=O)Cc1ccc(Cl)cc1

>  <score_type>  (7) 
oracle

>  <origin>  (7) 
adg

>  <m_score__min__energy>  (7) 
-10.029999999999999

>  <m_primary>  (7) 
energy

$$$$
7:0
     RDKit          3D

 46 49  0  0  0  0  0  0  0  0999 V2000
   56.5540   26.6620   44.8720 H   0  0  0  0  0  0  0  0  0  0  0  0
   57.2240   26.4640   45.6440 N   0  0  0  0  0  0  0  0  0  0  0  0
   58.0230   27.3350   46.1820 C   0  0  0  0  0  0  0  0  0  0  0  0
   59.0740   26.8740   46.9100 N   0  0  0  0  0  0  0  0  0  0  0  0
   60.0030   27.6970   47.4590 C   0  0  0  0  0  0  0  0  0  0  0  0
   60.8291   27.2734   48.0490 H   0  0  0  0  0  0  0  0  0  0  0  0
   59.9150   29.0830   47.2780 C   0  0  0  0  0  0  0  0  0  0  0  0
   60.9230   29.9950   47.8750 C   0  0  0  0  0  0  0  0  0  0  0  0
   61.6800   30.8570   47.0600 C   0  0  0  0  0  0  0  0  0  0  0  0
   61.5243   30.8567   45.9711 H   0  0  0  0  0  0  0  0  0  0  0  0
   62.6290   31.7140   47.6260 C   0  0  0  0  0  0  0  0  0  0  0  0
   63.2161   32.3849   46.9816 H   0  0  0  0  0  0  0  0  0  0  0  0
   62.8330   31.7200   49.0070 C   0  0  0  0  0  0  0  0  0  0  0  0
   63.5801   32.3953   49.4495 H   0  0  0  0  0  0  0  0  0  0  0  0
   62.0890   30.8690   49.8270 C   0  0  0  0  0  0  0  0  0  0  0  0
   62.2515   30.8738   50.9149 H   0  0  0  0  0  0  0  0  0  0  0  0
   61.1380   30.0110   49.2670 C   0  0  0  0  0  0  0  0  0  0  0  0
   60.5536   29.3439   49.9177 H   0  0  0  0  0  0  0  0  0  0  0  0
   58.8390   29.5900   46.5330 C   0  0  0  0  0  0  0  0  0  0  0  0
   58.7585   30.6744   46.3666 H   0  0  0  0  0  0  0  0  0  0  0  0
   57.8640   28.7340   45.9970 C   0  0  0  0  0  0  0  0  0  0  0  0
   56.7030   29.3450   45.3110 C   0  0  0  0  0  0  0  0  0  0  0  0
   55.7760   28.6210   44.8580 O   0  0  0  0  0  0  0  0  0  0  0  0
   56.6470   30.7680   45.1450 N   0  0  0  0  0  0  0  0  0  0  0  0
   57.1910   31.4840   44.2000 C   0  0  0  0  0  0  0  0  0  0  0  0
   57.0480   31.1990   42.8580 C   0  0  0  0  0  0  0  0  0  0  0  0
   56.5248   30.3472   42.3989 H   0  0  0  0  0  0  0  0  0  0  0  0
   57.7140   32.2310   42.2230 C   0  0  0  0  0  0  0  0  0  0  0  0
   57.9340   32.3570   40.7520 C   0  0  0  0  0  0  0  0  0  0  0  0
   58.8749   32.8959   40.5668 H   0  0  0  0  0  0  0  0  0  0  0  0
   57.9910   31.3546   40.3026 H   0  0  0  0  0  0  0  0  0  0  0  0
   57.0982   32.9134   40.3026 H   0  0  0  0  0  0  0  0  0  0  0  0
   58.2560   33.0510   43.1440 N   0  0  0  0  0  0  0  0  0  0  0  0
   58.8850   33.8630   42.9490 H   0  0  0  0  0  0  0  0  0  0  0  0
   57.9490   32.6040   44.3530 N   0  0  0  0  0  0  0  0  0  0  0  0
   58.5970   33.1010   45.5330 C   0  0  0  0  0  0  0  0  0  0  0  0
   58.1190   32.7340   46.8000 C   0  0  0  0  0  0  0  0  0  0  0  0
   57.2591   32.0535   46.8863 H   0  0  0  0  0  0  0  0  0  0  0  0
   58.7340   33.2320   47.9540 C   0  0  0  0  0  0  0  0  0  0  0  0
   58.3653   32.9320   48.9460 H   0  0  0  0  0  0  0  0  0  0  0  0
   59.8160   34.1100   47.8480 C   0  0  0  0  0  0  0  0  0  0  0  0
   60.3035   34.4944   48.7561 H   0  0  0  0  0  0  0  0  0  0  0  0
   60.2790   34.5000   46.5870 C   0  0  0  0  0  0  0  0  0  0  0  0
   61.1265   35.1963   46.5040 H   0  0  0  0  0  0  0  0  0  0  0  0
   59.6660   34.0060   45.4330 C   0  0  0  0  0  0  0  0  0  0  0  0
   60.0218   34.3270   44.4429 H   0  0  0  0  0  0  0  0  0  0  0  0
  1  2  1  0
  2  3  2  3
  3  4  1  0
  4  5  1  0
  5  6  1  0
  5  7  2  0
  7  8  1  0
  8  9  2  0
  9 10  1  0
  9 11  1  0
 11 12  1  0
 11 13  2  0
 13 14  1  0
 13 15  1  0
 15 16  1  0
 15 17  2  0
 17 18  1  0
  7 19  1  0
 19 20  1  0
 19 21  2  0
 21 22  1  0
 22 23  2  0
 22 24  1  0
 24 25  2  0
 25 26  1  0
 26 27  1  0
 26 28  2  0
 28 29  1  0
 29 30  1  0
 29 31  1  0
 29 32  1  0
 28 33  1  0
 33 34  1  0
 33 35  1  0
 35 36  1  0
 36 37  2  0
 37 38  1  0
 37 39  1  0
 39 40  1  0
 39 41  2  0
 41 42  1  0
 41 43  1  0
 43 44  1  0
 43 45  2  0
 45 46  1  0
 21  3  1  0
 35 25  1  0
 45 36  1  0
 17  8  1  0
M  CHG  1   4  -1
M  END
>  <UniqueID>  (8) 
8

>  <SMILES>  (8) 
Cc1c/c(=N/C(=O)c2cc(-c3ccccc3)c[n-]c2=N)n(-c2ccccc2)[nH]1

>  <Energy>  (8) 
109.06002050370753

>  <Genealogy>  (8) 
Cc1cc(=NC(=O)c2cc(-c3ccccc3)c[n-]c2=N)n(-c2ccccc2)[nH]1 (protonated)
Cc1c/c(=N/C(=O)c2cc(-c3ccccc3)c[n-]c2=N)n(-c2ccccc2)[nH]1 (cis-trans isomerization)
Cc1c/c(=N/C(=O)c2cc(-c3ccccc3)c[n-]c2=N)n(-c2ccccc2)[nH]1 (3D coordinates assigned)
Cc1c/c(=N/C(=O)c2cc(-c3ccccc3)c[n-]c2=N)n(-c2ccccc2)[nH]1 (optimized conformer: 109.06002050370753 kcal/mol)

>  <smiles>  (8) 
Cc1cc(=NC(=O)c2cc(-c3ccccc3)c[nH]c2=N)n(-c2ccccc2)[nH]1

>  <score_type>  (8) 
oracle

>  <origin>  (8) 
adg

>  <m_score__min__energy>  (8) 
-10.369999999999999

>  <m_primary>  (8) 
energy

$$$$
8:0
     RDKit          3D

 55 59  0  0  0  0  0  0  0  0999 V2000
   58.6890   31.8630   52.3270 C   0  0  0  0  0  0  0  0  0  0  0  0
   59.1240   33.1480   52.0640 C   0  0  0  0  0  0  0  0  0  0  0  0
   59.2570   33.5390   50.7310 C   0  0  0  0  0  0  0  0  0  0  0  0
   58.9550   32.6410   49.7090 C   0  0  0  0  0  0  0  0  0  0  0  0
   59.0890   33.0330   48.2960 C   0  0  0  0  0  0  0  0  0  0  0  0
   58.0420   33.1380   47.4580 N   0  0  0  0  0  0  0  0  0  0  0  0
   58.4910   33.5120   46.2480 C   0  0  0  0  0  0  0  0  0  0  0  0
   57.4210   33.7660   44.8470 S   0  0  0  0  0  0  0  0  0  0  0  0
   57.4300   32.4010   43.6930 C   0  0  0  0  0  0  0  0  0  0  0  0
   56.6880   31.1860   44.1250 C   0  0  0  0  0  0  0  0  0  0  0  0
   57.4190   30.1880   44.8050 N   0  0  0  0  0  0  0  0  0  0  0  0
   56.9090   28.8670   44.8120 C   0  0  0  0  0  0  0  0  0  0  0  0
   57.3540   28.0260   45.9820 C   0  0  0  0  0  0  0  0  0  0  0  0
   58.5280   28.6510   46.6220 C   0  0  0  0  0  0  0  0  0  0  0  0
   58.9300   28.1280   47.8510 C   0  0  0  0  0  0  0  0  0  0  0  0
   60.0220   28.6470   48.5300 C   0  0  0  0  0  0  0  0  0  0  0  0
   60.7450   29.7070   47.9970 C   0  0  0  0  0  0  0  0  0  0  0  0
   60.3570   30.2320   46.7820 C   0  0  0  0  0  0  0  0  0  0  0  0
   59.2580   29.6960   46.1190 C   0  0  0  0  0  0  0  0  0  0  0  0
   58.8430   30.2890   44.7920 C   0  0  0  0  0  0  0  0  0  0  0  0
   59.8240   33.6340   46.3520 N   0  0  0  0  0  0  0  0  0  0  0  0
   60.2310   33.3460   47.6020 C   0  0  0  0  0  0  0  0  0  0  0  0
   61.5920   33.3570   48.1260 C   0  0  0  0  0  0  0  0  0  0  0  0
   62.6070   32.5950   47.5370 C   0  0  0  0  0  0  0  0  0  0  0  0
   63.8670   32.6480   48.0750 C   0  0  0  0  0  0  0  0  0  0  0  0
   64.1220   33.4420   49.1770 C   0  0  0  0  0  0  0  0  0  0  0  0
   63.1390   34.2060   49.7790 C   0  0  0  0  0  0  0  0  0  0  0  0
   61.8720   34.1440   49.2270 C   0  0  0  0  0  0  0  0  0  0  0  0
   58.5190   31.3500   49.9980 C   0  0  0  0  0  0  0  0  0  0  0  0
   58.3850   30.9590   51.3310 C   0  0  0  0  0  0  0  0  0  0  0  0
   58.5806   31.5479   53.3753 H   0  0  0  0  0  0  0  0  0  0  0  0
   59.3590   33.8437   52.8830 H   0  0  0  0  0  0  0  0  0  0  0  0
   59.6000   34.5553   50.4871 H   0  0  0  0  0  0  0  0  0  0  0  0
   56.9841   32.7521   42.7507 H   0  0  0  0  0  0  0  0  0  0  0  0
   58.4820   32.0930   43.6012 H   0  0  0  0  0  0  0  0  0  0  0  0
   55.8772   31.5139   44.7921 H   0  0  0  0  0  0  0  0  0  0  0  0
   56.3605   30.7081   43.1900 H   0  0  0  0  0  0  0  0  0  0  0  0
   55.8106   28.9238   44.8290 H   0  0  0  0  0  0  0  0  0  0  0  0
   57.3031   28.3770   43.9094 H   0  0  0  0  0  0  0  0  0  0  0  0
   56.5348   27.9520   46.7124 H   0  0  0  0  0  0  0  0  0  0  0  0
   57.6230   27.0200   45.6278 H   0  0  0  0  0  0  0  0  0  0  0  0
   58.3706   27.2885   48.2896 H   0  0  0  0  0  0  0  0  0  0  0  0
   60.3181   28.2162   49.4979 H   0  0  0  0  0  0  0  0  0  0  0  0
   61.6113   30.1201   48.5344 H   0  0  0  0  0  0  0  0  0  0  0  0
   60.9142   31.0708   46.3393 H   0  0  0  0  0  0  0  0  0  0  0  0
   59.1608   31.3393   44.7155 H   0  0  0  0  0  0  0  0  0  0  0  0
   59.2985   29.7729   43.9340 H   0  0  0  0  0  0  0  0  0  0  0  0
   60.4720   33.9120   45.5900 H   0  0  0  0  0  0  0  0  0  0  0  0
   62.3981   31.9656   46.6593 H   0  0  0  0  0  0  0  0  0  0  0  0
   64.6787   32.0557   47.6274 H   0  0  0  0  0  0  0  0  0  0  0  0
   65.1415   33.4671   49.5893 H   0  0  0  0  0  0  0  0  0  0  0  0
   63.3545   34.8339   50.6561 H   0  0  0  0  0  0  0  0  0  0  0  0
   61.0637   34.7386   49.6777 H   0  0  0  0  0  0  0  0  0  0  0  0
   58.2832   30.6472   49.1854 H   0  0  0  0  0  0  0  0  0  0  0  0
   58.0420   29.9448   51.5834 H   0  0  0  0  0  0  0  0  0  0  0  0
  1  2  2  0
  2  3  1  0
  3  4  2  0
  4  5  1  0
  5  6  1  0
  6  7  2  0
  7  8  1  0
  8  9  1  0
  9 10  1  0
 10 11  1  0
 11 12  1  0
 12 13  1  0
 13 14  1  0
 14 15  2  0
 15 16  1  0
 16 17  2  0
 17 18  1  0
 18 19  2  0
 19 20  1  0
  7 21  1  0
 21 22  1  0
 22 23  1  0
 23 24  2  0
 24 25  1  0
 25 26  2  0
 26 27  1  0
 27 28  2  0
  4 29  1  0
 29 30  2  0
 30  1  1  0
 22  5  2  0
 28 23  1  0
 20 11  1  0
 19 14  1  0
  1 31  1  0
  2 32  1  0
  3 33  1  0
  9 34  1  0
  9 35  1  0
 10 36  1  0
 10 37  1  0
 12 38  1  0
 12 39  1  0
 13 40  1  0
 13 41  1  0
 15 42  1  0
 16 43  1  0
 17 44  1  0
 18 45  1  0
 20 46  1  0
 20 47  1  0
 21 48  1  0
 24 49  1  0
 25 50  1  0
 26 51  1  0
 27 52  1  0
 28 53  1  0
 29 54  1  0
 30 55  1  0
M  END
>  <smiles>  (9) 
c1ccc(-c2nc(SCCN3CCc4ccccc4C3)[nH]c2-c2ccccc2)cc1

>  <score_type>  (9) 
oracle

>  <origin>  (9) 
adg

>  <m_score__min__energy>  (9) 
-9.1999999999999993

>  <m_primary>  (9) 
energy

$$$$
9:0
     RDKit          3D

 70 73  0  0  0  0  0  0  0  0999 V2000
   56.0153   29.2674   44.0044 H   0  0  0  0  0  0  0  0  0  0  0  0
   56.7300   29.6440   44.7510 C   0  0  0  0  0  0  0  0  0  0  0  0
   57.0100   30.9710   44.8030 N   0  0  0  0  0  0  0  0  0  0  0  0
   57.8870   31.4650   45.7080 C   0  0  0  0  0  0  0  0  0  0  0  0
   58.1460   32.7390   45.7260 N   0  0  0  0  0  0  0  0  0  0  0  0
   59.1840   33.2990   46.5390 C   0  0  0  0  0  0  0  0  0  0  0  0
   58.8620   34.1630   47.5890 C   0  0  0  0  0  0  0  0  0  0  0  0
   57.8254   34.5066   47.7207 H   0  0  0  0  0  0  0  0  0  0  0  0
   59.8570   34.5900   48.4710 C   0  0  0  0  0  0  0  0  0  0  0  0
   59.6019   35.2739   49.2939 H   0  0  0  0  0  0  0  0  0  0  0  0
   61.1810   34.1510   48.3130 C   0  0  0  0  0  0  0  0  0  0  0  0
   61.5220   33.3400   47.2130 C   0  0  0  0  0  0  0  0  0  0  0  0
   60.5150   32.9150   46.3350 C   0  0  0  0  0  0  0  0  0  0  0  0
   60.7727   32.2745   45.4786 H   0  0  0  0  0  0  0  0  0  0  0  0
   62.9320   32.8510   46.9980 C   0  0  0  0  0  0  0  0  0  0  0  0
   63.2672   33.1875   46.0058 H   0  0  0  0  0  0  0  0  0  0  0  0
   62.9057   31.7549   47.0872 H   0  0  0  0  0  0  0  0  0  0  0  0
   63.9420   33.3610   48.0510 C   0  0  0  0  0  0  0  0  0  0  0  0
   64.3771   34.3034   47.6869 H   0  0  0  0  0  0  0  0  0  0  0  0
   64.6976   32.5721   48.1801 H   0  0  0  0  0  0  0  0  0  0  0  0
   63.3410   33.6070   49.3830 N   0  0  2  0  0  0  0  0  0  0  0  0
   64.0920   34.0500   49.9640 H   0  0  0  0  0  0  0  0  0  0  0  0
   62.9340   32.3930   50.0820 C   0  0  0  0  0  0  0  0  0  0  0  0
   62.0740   31.6550   49.6170 O   0  0  0  0  0  0  0  0  0  0  0  0
   63.5800   32.0130   51.3940 C   0  0  0  0  0  0  0  0  0  0  0  0
   62.8098   31.5879   52.0543 H   0  0  0  0  0  0  0  0  0  0  0  0
   64.0256   32.9246   51.8187 H   0  0  0  0  0  0  0  0  0  0  0  0
   64.7080   30.9820   51.2290 C   0  0  0  0  0  0  0  0  0  0  0  0
   64.3931   30.2327   50.4878 H   0  0  0  0  0  0  0  0  0  0  0  0
   64.8897   30.5304   52.2154 H   0  0  0  0  0  0  0  0  0  0  0  0
   66.0210   31.6080   50.7620 C   0  0  0  0  0  0  0  0  0  0  0  0
   66.6223   31.8947   51.6374 H   0  0  0  0  0  0  0  0  0  0  0  0
   66.5796   30.8793   50.1562 H   0  0  0  0  0  0  0  0  0  0  0  0
   65.8065   32.5007   50.1562 H   0  0  0  0  0  0  0  0  0  0  0  0
   62.2390   34.5860   49.2880 C   0  0  0  0  0  0  0  0  0  0  0  0
   62.6496   35.5519   48.9588 H   0  0  0  0  0  0  0  0  0  0  0  0
   61.7723   34.6692   50.2806 H   0  0  0  0  0  0  0  0  0  0  0  0
   58.4810   30.6240   46.5950 N   0  0  0  0  0  0  0  0  0  0  0  0
   58.2450   29.2860   46.5970 C   0  0  0  0  0  0  0  0  0  0  0  0
   58.9360   28.4720   47.6650 C   0  0  0  0  0  0  0  0  0  0  0  0
   58.1910   28.1750   48.4178 H   0  0  0  0  0  0  0  0  0  0  0  0
   59.3902   27.5986   47.1741 H   0  0  0  0  0  0  0  0  0  0  0  0
   60.0680   29.2500   48.3710 C   0  0  0  0  0  0  0  0  0  0  0  0
   60.8435   28.5350   48.6832 H   0  0  0  0  0  0  0  0  0  0  0  0
   60.4567   29.9891   47.6550 H   0  0  0  0  0  0  0  0  0  0  0  0
   59.5890   30.0100   49.5950 C   0  0  0  0  0  0  0  0  0  0  0  0
   58.9570   31.2470   49.3480 C   0  0  0  0  0  0  0  0  0  0  0  0
   58.8590   31.6052   48.3126 H   0  0  0  0  0  0  0  0  0  0  0  0
   58.4550   32.0230   50.3890 C   0  0  0  0  0  0  0  0  0  0  0  0
   57.9532   32.9772   50.1706 H   0  0  0  0  0  0  0  0  0  0  0  0
   58.5870   31.5940   51.7010 C   0  0  0  0  0  0  0  0  0  0  0  0
   58.1749   32.2007   52.5208 H   0  0  0  0  0  0  0  0  0  0  0  0
   59.2400   30.3970   51.9830 C   0  0  0  0  0  0  0  0  0  0  0  0
   59.3492   30.0775   53.0299 H   0  0  0  0  0  0  0  0  0  0  0  0
   59.7660   29.5830   50.9530 C   0  0  0  0  0  0  0  0  0  0  0  0
   60.5410   28.3400   51.3990 C   0  0  0  0  0  0  0  0  0  0  0  0
   60.2548   27.5507   50.6883 H   0  0  0  0  0  0  0  0  0  0  0  0
   60.1140   27.8490   52.7910 C   0  0  0  0  0  0  0  0  0  0  0  0
   60.6286   28.4408   53.5623 H   0  0  0  0  0  0  0  0  0  0  0  0
   59.0261   27.9668   52.9036 H   0  0  0  0  0  0  0  0  0  0  0  0
   60.3816   26.7880   52.9036 H   0  0  0  0  0  0  0  0  0  0  0  0
   62.0610   28.4640   51.2480 C   0  0  0  0  0  0  0  0  0  0  0  0
   62.5265   28.5020   52.2439 H   0  0  0  0  0  0  0  0  0  0  0  0
   62.4468   27.5943   50.6959 H   0  0  0  0  0  0  0  0  0  0  0  0
   62.3007   29.3847   50.6959 H   0  0  0  0  0  0  0  0  0  0  0  0
   57.3450   28.7440   45.6430 C   0  0  0  0  0  0  0  0  0  0  0  0
   57.0060   27.2690   45.5850 C   0  0  0  0  0  0  0  0  0  0  0  0
   55.6360   27.0950   45.6380 F   0  0  0  0  0  0  0  0  0  0  0  0
   57.4940   26.7240   44.4110 F   0  0  0  0  0  0  0  0  0  0  0  0
   57.5610   26.5730   46.6460 F   0  0  0  0  0  0  0  0  0  0  0  0
  1  2  1  0
  2  3  1  0
  3  4  1  0
  4  5  2  0
  5  6  1  0
  6  7  2  0
  7  8  1  0
  7  9  1  0
  9 10  1  0
  9 11  2  0
 11 12  1  0
 12 13  2  0
 13 14  1  0
 12 15  1  0
 15 16  1  0
 15 17  1  0
 15 18  1  0
 18 19  1  0
 18 20  1  0
 18 21  1  0
 21 22  1  1
 21 23  1  0
 23 24  2  0
 23 25  1  0
 25 26  1  0
 25 27  1  0
 25 28  1  0
 28 29  1  0
 28 30  1  0
 28 31  1  0
 31 32  1  0
 31 33  1  0
 31 34  1  0
 21 35  1  0
 35 36  1  0
 35 37  1  0
  4 38  1  0
 38 39  2  0
 39 40  1  0
 40 41  1  0
 40 42  1  0
 40 43  1  0
 43 44  1  0
 43 45  1  0
 43 46  1  0
 46 47  2  0
 47 48  1  0
 47 49  1  0
 49 50  1  0
 49 51  2  0
 51 52  1  0
 51 53  1  0
 53 54  1  0
 53 55  2  0
 55 56  1  0
 56 57  1  0
 56 58  1  0
 58 59  1  0
 58 60  1  0
 58 61  1  0
 56 62  1  0
 62 63  1  0
 62 64  1  0
 62 65  1  0
 39 66  1  0
 66 67  1  0
 67 68  1  0
 67 69  1  0
 67 70  1  0
 66  2  2  0
 13  6  1  0
 55 46  1  0
 35 11  1  0
M  CHG  2   3  -1  21   1
M  END
>  <UniqueID>  (10) 
9

>  <SMILES>  (10) 
CCCC(=O)[N@H+]1CCc2cc(/N=c3\nc(CCc4ccccc4C(C)C)c(C(F)(F)F)c[n-]3)ccc2C1

>  <Energy>  (10) 
89.65121729426943

>  <Genealogy>  (10) 
CCCC(=O)[NH+]1CCc2cc(N=c3nc(CCc4ccccc4C(C)C)c(C(F)(F)F)c[n-]3)ccc2C1 (protonated)
CCCC(=O)[N@H+]1CCc2cc(N=c3nc(CCc4ccccc4C(C)C)c(C(F)(F)F)c[n-]3)ccc2C1 (chirality)
CCCC(=O)[N@H+]1CCc2cc(/N=c3\nc(CCc4ccccc4C(C)C)c(C(F)(F)F)c[n-]3)ccc2C1 (cis-trans isomerization)
CCCC(=O)[N@H+]1CCc2cc(/N=c3\nc(CCc4ccccc4C(C)C)c(C(F)(F)F)c[n-]3)ccc2C1 (3D coordinates assigned)
CCCC(=O)[N@H+]1CCc2cc(/N=c3\nc(CCc4ccccc4C(C)C)c(C(F)(F)F)c[n-]3)ccc2C1 (nonaromatic ring conformer: 89.65121729426943 kcal/mol)

>  <smiles>  (10) 
CCCC(=O)N1CCc2cc(N=c3nc(CCc4ccccc4C(C)C)c(C(F)(F)F)c[nH]3)ccc2C1

>  <score_type>  (10) 
oracle

>  <origin>  (10) 
adg

>  <m_score__min__energy>  (10) 
-10.58

>  <m_primary>  (10) 
energy

$$$$
10:0
     RDKit          3D

 54 58  0  0  0  0  0  0  0  0999 V2000
   51.1460   24.0730   44.4810 C   0  0  0  0  0  0  0  0  0  0  0  0
   52.1980   23.1140   44.4930 O   0  0  0  0  0  0  0  0  0  0  0  0
   53.4220   23.2900   45.1550 C   0  0  0  0  0  0  0  0  0  0  0  0
   54.5400   23.6590   44.3990 C   0  0  0  0  0  0  0  0  0  0  0  0
   55.7810   23.8500   45.0120 C   0  0  0  0  0  0  0  0  0  0  0  0
   55.9220   23.6680   46.3960 C   0  0  0  0  0  0  0  0  0  0  0  0
   57.2500   23.8950   47.0670 C   0  0  0  0  0  0  0  0  0  0  0  0
   57.8570   25.1330   46.5870 N   0  0  0  0  0  0  0  0  0  0  0  0
   57.0950   26.3310   46.3710 C   0  0  0  0  0  0  0  0  0  0  0  0
   55.8800   26.3720   46.7040 O   0  0  0  0  0  0  0  0  0  0  0  0
   57.7200   27.5000   45.8120 N   0  0  0  0  0  0  0  0  0  0  0  0
   57.4180   27.8640   44.4150 C   0  0  0  0  0  0  0  0  0  0  0  0
   57.4970   29.3510   44.2390 C   0  0  0  0  0  0  0  0  0  0  0  0
   56.9040   30.0920   43.2390 C   0  0  0  0  0  0  0  0  0  0  0  0
   57.2200   31.4100   43.5050 C   0  0  0  0  0  0  0  0  0  0  0  0
   57.9950   31.4150   44.6550 C   0  0  0  0  0  0  0  0  0  0  0  0
   58.3530   32.6450   45.3870 C   0  0  0  0  0  0  0  0  0  0  0  0
   58.9390   33.7310   44.7140 C   0  0  0  0  0  0  0  0  0  0  0  0
   59.3000   34.8840   45.4170 C   0  0  0  0  0  0  0  0  0  0  0  0
   59.0940   34.9550   46.7970 C   0  0  0  0  0  0  0  0  0  0  0  0
   58.5320   33.8710   47.4770 C   0  0  0  0  0  0  0  0  0  0  0  0
   58.1690   32.7170   46.7780 C   0  0  0  0  0  0  0  0  0  0  0  0
   58.1890   30.1410   45.0800 N   0  0  0  0  0  0  0  0  0  0  0  0
   58.9640   29.5980   46.1670 C   0  0  0  0  0  0  0  0  0  0  0  0
   60.0270   30.3000   46.7610 C   0  0  0  0  0  0  0  0  0  0  0  0
   60.7770   29.7110   47.7810 C   0  0  0  0  0  0  0  0  0  0  0  0
   60.5030   28.4050   48.1880 C   0  0  0  0  0  0  0  0  0  0  0  0
   59.4900   27.6730   47.5620 C   0  0  0  0  0  0  0  0  0  0  0  0
   58.7150   28.2610   46.5460 C   0  0  0  0  0  0  0  0  0  0  0  0
   54.8040   23.2990   47.1580 C   0  0  0  0  0  0  0  0  0  0  0  0
   53.5620   23.1100   46.5460 C   0  0  0  0  0  0  0  0  0  0  0  0
   50.8686   24.3259   45.5150 H   0  0  0  0  0  0  0  0  0  0  0  0
   51.4833   24.9808   43.9594 H   0  0  0  0  0  0  0  0  0  0  0  0
   50.2732   23.6533   43.9594 H   0  0  0  0  0  0  0  0  0  0  0  0
   54.4411   23.8000   43.3126 H   0  0  0  0  0  0  0  0  0  0  0  0
   56.6512   24.1443   44.4069 H   0  0  0  0  0  0  0  0  0  0  0  0
   57.0998   23.9627   48.1546 H   0  0  0  0  0  0  0  0  0  0  0  0
   57.9184   23.0542   46.8297 H   0  0  0  0  0  0  0  0  0  0  0  0
   58.8850   25.1430   46.3980 H   0  0  0  0  0  0  0  0  0  0  0  0
   58.1463   27.3799   43.7477 H   0  0  0  0  0  0  0  0  0  0  0  0
   56.4005   27.5268   44.1680 H   0  0  0  0  0  0  0  0  0  0  0  0
   56.3022   29.7113   42.4006 H   0  0  0  0  0  0  0  0  0  0  0  0
   56.9151   32.2881   42.9169 H   0  0  0  0  0  0  0  0  0  0  0  0
   59.1142   33.6733   43.6296 H   0  0  0  0  0  0  0  0  0  0  0  0
   59.7465   35.7359   44.8833 H   0  0  0  0  0  0  0  0  0  0  0  0
   59.3743   35.8645   47.3486 H   0  0  0  0  0  0  0  0  0  0  0  0
   58.3752   33.9265   48.5644 H   0  0  0  0  0  0  0  0  0  0  0  0
   57.7376   31.8617   47.3187 H   0  0  0  0  0  0  0  0  0  0  0  0
   60.2691   31.3177   46.4209 H   0  0  0  0  0  0  0  0  0  0  0  0
   61.5859   30.2781   48.2648 H   0  0  0  0  0  0  0  0  0  0  0  0
   61.0852   27.9504   49.0031 H   0  0  0  0  0  0  0  0  0  0  0  0
   59.2981   26.6331   47.8651 H   0  0  0  0  0  0  0  0  0  0  0  0
   54.9054   23.1575   48.2441 H   0  0  0  0  0  0  0  0  0  0  0  0
   52.6908   22.8198   47.1517 H   0  0  0  0  0  0  0  0  0  0  0  0
  1  2  1  0
  2  3  1  0
  3  4  2  0
  4  5  1  0
  5  6  2  0
  6  7  1  0
  7  8  1  0
  8  9  1  0
  9 10  2  0
  9 11  1  0
 11 12  1  0
 12 13  1  0
 13 14  2  0
 14 15  1  0
 15 16  2  0
 16 17  1  0
 17 18  2  0
 18 19  1  0
 19 20  2  0
 20 21  1  0
 21 22  2  0
 16 23  1  0
 23 24  1  0
 24 25  2  0
 25 26  1  0
 26 27  2  0
 27 28  1  0
 28 29  2  0
  6 30  1  0
 30 31  2  0
 31  3  1  0
 29 11  1  0
 23 13  1  0
 29 24  1  0
 22 17  1  0
  1 32  1  0
  1 33  1  0
  1 34  1  0
  4 35  1  0
  5 36  1  0
  7 37  1  0
  7 38  1  0
  8 39  1  0
 12 40  1  0
 12 41  1  0
 14 42  1  0
 15 43  1  0
 18 44  1  0
 19 45  1  0
 20 46  1  0
 21 47  1  0
 22 48  1  0
 25 49  1  0
 26 50  1  0
 27 51  1  0
 28 52  1  0
 30 53  1  0
 31 54  1  0
M  END
>  <UniqueID>  (11) 
10

>  <SMILES>  (11) 
COc1ccc(CNC(=O)N2Cc3ccc(-c4ccccc4)n3-c3ccccc32)cc1

>  <Energy>  (11) 
101.78239900271207

>  <Genealogy>  (11) 
COc1ccc(CNC(=O)N2Cc3ccc(-c4ccccc4)n3-c3ccccc32)cc1 (3D coordinates assigned)
COc1ccc(CNC(=O)N2Cc3ccc(-c4ccccc4)n3-c3ccccc32)cc1 (nonaromatic ring conformer: 101.78239900271207 kcal/mol)

>  <smiles>  (11) 
COc1ccc(CNC(=O)N2Cc3ccc(-c4ccccc4)n3-c3ccccc32)cc1

>  <score_type>  (11) 
oracle

>  <origin>  (11) 
adg

>  <m_score__min__energy>  (11) 
-9.3399999999999999

>  <m_primary>  (11) 
energy

$$$$
11:0
     RDKit          3D

 42 44  0  0  0  0  0  0  0  0999 V2000
   55.4620   29.0280   44.8670 N   0  0  0  0  0  0  0  0  0  0  0  0
   56.3560   29.7460   44.0170 C   0  0  0  0  0  0  0  0  0  0  0  0
   56.4350   29.4240   42.8000 O   0  0  0  0  0  0  0  0  0  0  0  0
   57.1820   30.8540   44.5540 C   0  0  0  0  0  0  0  0  0  0  0  0
   57.3450   32.0380   43.8200 C   0  0  0  0  0  0  0  0  0  0  0  0
   58.1280   33.0800   44.3170 C   0  0  0  0  0  0  0  0  0  0  0  0
   58.7700   32.9690   45.5620 C   0  0  0  0  0  0  0  0  0  0  0  0
   59.6540   34.0780   46.0020 C   0  0  0  0  0  0  0  0  0  0  0  0
   59.1440   35.1560   46.4080 O   0  0  0  0  0  0  0  0  0  0  0  0
   61.0800   33.9160   45.9780 N   0  0  0  0  0  0  0  0  0  0  0  0
   61.9480   33.6980   47.0970 C   0  0  0  0  0  0  0  0  0  0  0  0
   61.6180   34.1250   48.3940 C   0  0  0  0  0  0  0  0  0  0  0  0
   62.5050   33.9080   49.4540 C   0  0  0  0  0  0  0  0  0  0  0  0
   63.7450   33.2830   49.2340 C   0  0  0  0  0  0  0  0  0  0  0  0
   64.6710   33.0550   50.3700 C   0  0  0  0  0  0  0  0  0  0  0  0
   64.2090   33.0510   51.7240 N   0  0  0  0  0  0  0  0  0  0  0  0
   65.8940   32.8430   50.1450 O   0  0  0  0  0  0  0  0  0  0  0  0
   64.0750   32.8700   47.9300 C   0  0  0  0  0  0  0  0  0  0  0  0
   63.1870   33.0880   46.8720 C   0  0  0  0  0  0  0  0  0  0  0  0
   58.5830   31.7880   46.3290 C   0  0  0  0  0  0  0  0  0  0  0  0
   59.1340   31.6350   47.6940 C   0  0  0  0  0  0  0  0  0  0  0  0
   60.2180   30.7720   47.9270 C   0  0  0  0  0  0  0  0  0  0  0  0
   60.7460   30.6370   49.2150 C   0  0  0  0  0  0  0  0  0  0  0  0
   60.1890   31.3530   50.2790 C   0  0  0  0  0  0  0  0  0  0  0  0
   59.1010   32.2030   50.0580 C   0  0  0  0  0  0  0  0  0  0  0  0
   58.5710   32.3400   48.7710 C   0  0  0  0  0  0  0  0  0  0  0  0
   57.8030   30.7410   45.8080 C   0  0  0  0  0  0  0  0  0  0  0  0
   54.4740   29.3400   44.9920 H   0  0  0  0  0  0  0  0  0  0  0  0
   56.8507   32.1459   42.8432 H   0  0  0  0  0  0  0  0  0  0  0  0
   58.2444   34.0007   43.7265 H   0  0  0  0  0  0  0  0  0  0  0  0
   60.6589   34.6317   48.5768 H   0  0  0  0  0  0  0  0  0  0  0  0
   62.2296   34.2295   50.4693 H   0  0  0  0  0  0  0  0  0  0  0  0
   63.1930   33.0620   51.9580 H   0  0  0  0  0  0  0  0  0  0  0  0
   64.8930   32.9480   52.5060 H   0  0  0  0  0  0  0  0  0  0  0  0
   65.0378   32.3724   47.7416 H   0  0  0  0  0  0  0  0  0  0  0  0
   63.4649   32.7773   45.8541 H   0  0  0  0  0  0  0  0  0  0  0  0
   60.6528   30.2007   47.0936 H   0  0  0  0  0  0  0  0  0  0  0  0
   61.6003   29.9669   49.3912 H   0  0  0  0  0  0  0  0  0  0  0  0
   60.6071   31.2475   51.2909 H   0  0  0  0  0  0  0  0  0  0  0  0
   58.6620   32.7639   50.8963 H   0  0  0  0  0  0  0  0  0  0  0  0
   57.7096   33.0026   48.6012 H   0  0  0  0  0  0  0  0  0  0  0  0
   57.6771   29.8178   46.3926 H   0  0  0  0  0  0  0  0  0  0  0  0
  1  2  1  0
  2  3  2  0
  2  4  1  0
  4  5  2  0
  5  6  1  0
  6  7  2  0
  7  8  1  0
  8  9  2  0
  8 10  1  0
 10 11  1  0
 11 12  2  0
 12 13  1  0
 13 14  2  0
 14 15  1  0
 15 16  1  0
 15 17  2  0
 14 18  1  0
 18 19  2  0
  7 20  1  0
 20 21  1  0
 21 22  2  0
 22 23  1  0
 23 24  2  0
 24 25  1  0
 25 26  2  0
 20 27  2  0
 27  4  1  0
 19 11  1  0
 26 21  1  0
  1 28  1  0
  5 29  1  0
  6 30  1  0
 12 31  1  0
 13 32  1  0
 16 33  1  0
 16 34  1  0
 18 35  1  0
 19 36  1  0
 22 37  1  0
 23 38  1  0
 24 39  1  0
 25 40  1  0
 26 41  1  0
 27 42  1  0
M  CHG  2   1  -1  10  -1
M  END
>  <UniqueID>  (12) 
11

>  <SMILES>  (12) 
[NH-]C(=O)c1ccc(C(=O)[N-]c2ccc(C(N)=O)cc2)c(-c2ccccc2)c1

>  <Energy>  (12) 
60.21767173944297

>  <Genealogy>  (12) 
[NH-]C(=O)c1ccc(C(=O)[N-]c2ccc(C(N)=O)cc2)c(-c2ccccc2)c1 (protonated)
[NH-]C(=O)c1ccc(C(=O)[N-]c2ccc(C(N)=O)cc2)c(-c2ccccc2)c1 (3D coordinates assigned)
[NH-]C(=O)c1ccc(C(=O)[N-]c2ccc(C(N)=O)cc2)c(-c2ccccc2)c1 (optimized conformer: 60.21767173944297 kcal/mol)

>  <smiles>  (12) 
NC(=O)c1ccc(NC(=O)c2ccc(C(N)=O)cc2-c2ccccc2)cc1

>  <score_type>  (12) 
oracle

>  <origin>  (12) 
adg

>  <m_score__min__energy>  (12) 
-12.08

>  <m_primary>  (12) 
energy

$$$$
12:0
     RDKit          3D

 55 57  0  0  0  0  0  0  0  0999 V2000
   62.3420   33.2680   46.9720 C   0  0  0  0  0  0  0  0  0  0  0  0
   61.5110   32.3590   47.6860 O   0  0  0  0  0  0  0  0  0  0  0  0
   60.5510   31.5290   47.0880 C   0  0  0  0  0  0  0  0  0  0  0  0
   60.6990   30.1320   47.0210 C   0  0  0  0  0  0  0  0  0  0  0  0
   59.7110   29.3480   46.4210 C   0  0  0  0  0  0  0  0  0  0  0  0
   58.5630   29.9420   45.8790 C   0  0  0  0  0  0  0  0  0  0  0  0
   57.3280   28.9360   45.1200 S   0  0  0  0  0  0  0  0  0  0  0  0
   56.0340   29.6970   45.0670 O   0  0  0  0  0  0  0  0  0  0  0  0
   57.7770   28.5800   43.7310 O   0  0  0  0  0  0  0  0  0  0  0  0
   57.0930   27.4860   46.0440 N   0  0  0  0  0  0  0  0  0  0  0  0
   56.7280   26.2090   45.5040 C   0  0  0  0  0  0  0  0  0  0  0  0
   57.6210   25.5690   44.6410 C   0  0  0  0  0  0  0  0  0  0  0  0
   57.3060   24.3270   44.0870 C   0  0  0  0  0  0  0  0  0  0  0  0
   56.0800   23.7030   44.3870 C   0  0  0  0  0  0  0  0  0  0  0  0
   55.7230   22.4690   43.8220 O   0  0  0  0  0  0  0  0  0  0  0  0
   56.6470   21.5180   43.3030 C   0  0  0  0  0  0  0  0  0  0  0  0
   55.1780   24.3410   45.2620 C   0  0  0  0  0  0  0  0  0  0  0  0
   53.9160   23.7330   45.5900 N   0  0  0  0  0  0  0  0  0  0  0  0
   52.6580   24.3790   45.1940 C   0  0  0  0  0  0  0  0  0  0  0  0
   51.5910   23.3440   44.7730 C   0  0  0  0  0  0  0  0  0  0  0  0
   51.8830   21.9720   45.2500 N   0  0  0  0  0  0  0  0  0  0  0  0
   50.6620   21.1530   45.2440 C   0  0  0  0  0  0  0  0  0  0  0  0
   52.4880   21.9880   46.5920 C   0  0  0  0  0  0  0  0  0  0  0  0
   53.8970   22.5680   46.4840 C   0  0  0  0  0  0  0  0  0  0  0  0
   55.5070   25.5890   45.8140 C   0  0  0  0  0  0  0  0  0  0  0  0
   58.4080   31.3400   45.9300 C   0  0  0  0  0  0  0  0  0  0  0  0
   57.2570   31.9170   45.3680 O   0  0  0  0  0  0  0  0  0  0  0  0
   57.0260   33.3170   45.2550 C   0  0  0  0  0  0  0  0  0  0  0  0
   59.4080   32.1220   46.5420 C   0  0  0  0  0  0  0  0  0  0  0  0
   62.9070   33.8860   47.6853 H   0  0  0  0  0  0  0  0  0  0  0  0
   63.0434   32.7042   46.3395 H   0  0  0  0  0  0  0  0  0  0  0  0
   61.7177   33.9162   46.3395 H   0  0  0  0  0  0  0  0  0  0  0  0
   61.5961   29.6551   47.4426 H   0  0  0  0  0  0  0  0  0  0  0  0
   59.8348   28.2560   46.3735 H   0  0  0  0  0  0  0  0  0  0  0  0
   58.5805   26.0479   44.3960 H   0  0  0  0  0  0  0  0  0  0  0  0
   58.0201   23.8327   43.4119 H   0  0  0  0  0  0  0  0  0  0  0  0
   57.1483   21.0020   44.1351 H   0  0  0  0  0  0  0  0  0  0  0  0
   56.1091   20.7828   42.6865 H   0  0  0  0  0  0  0  0  0  0  0  0
   57.3974   22.0345   42.6865 H   0  0  0  0  0  0  0  0  0  0  0  0
   52.2735   24.9615   46.0442 H   0  0  0  0  0  0  0  0  0  0  0  0
   52.8637   25.0293   44.3310 H   0  0  0  0  0  0  0  0  0  0  0  0
   50.6200   23.6570   45.1842 H   0  0  0  0  0  0  0  0  0  0  0  0
   51.5854   23.3117   43.6735 H   0  0  0  0  0  0  0  0  0  0  0  0
   50.3540   20.9464   46.2796 H   0  0  0  0  0  0  0  0  0  0  0  0
   49.8589   21.6958   44.7240 H   0  0  0  0  0  0  0  0  0  0  0  0
   50.8596   20.2040   44.7240 H   0  0  0  0  0  0  0  0  0  0  0  0
   51.8810   22.6116   47.2648 H   0  0  0  0  0  0  0  0  0  0  0  0
   52.5321   20.9661   46.9968 H   0  0  0  0  0  0  0  0  0  0  0  0
   54.2377   22.8754   47.4837 H   0  0  0  0  0  0  0  0  0  0  0  0
   54.5643   21.7969   46.0714 H   0  0  0  0  0  0  0  0  0  0  0  0
   54.8014   26.0860   46.4960 H   0  0  0  0  0  0  0  0  0  0  0  0
   56.9531   33.7589   46.2597 H   0  0  0  0  0  0  0  0  0  0  0  0
   57.8594   33.7832   44.7090 H   0  0  0  0  0  0  0  0  0  0  0  0
   56.0870   33.4908   44.7090 H   0  0  0  0  0  0  0  0  0  0  0  0
   59.2879   33.2143   46.5910 H   0  0  0  0  0  0  0  0  0  0  0  0
  1  2  1  0
  2  3  1  0
  3  4  2  0
  4  5  1  0
  5  6  2  0
  6  7  1  0
  7  8  2  0
  7  9  2  0
  7 10  1  0
 10 11  1  0
 11 12  2  0
 12 13  1  0
 13 14  2  0
 14 15  1  0
 15 16  1  0
 14 17  1  0
 17 18  1  0
 18 19  1  0
 19 20  1  0
 20 21  1  0
 21 22  1  0
 21 23  1  0
 23 24  1  0
 17 25  2  0
  6 26  1  0
 26 27  1  0
 27 28  1  0
 26 29  2  0
 29  3  1  0
 25 11  1  0
 24 18  1  0
  1 30  1  0
  1 31  1  0
  1 32  1  0
  4 33  1  0
  5 34  1  0
 12 35  1  0
 13 36  1  0
 16 37  1  0
 16 38  1  0
 16 39  1  0
 19 40  1  0
 19 41  1  0
 20 42  1  0
 20 43  1  0
 22 44  1  0
 22 45  1  0
 22 46  1  0
 23 47  1  0
 23 48  1  0
 24 49  1  0
 24 50  1  0
 25 51  1  0
 28 52  1  0
 28 53  1  0
 28 54  1  0
 29 55  1  0
M  CHG  1  10  -1
M  END
>  <UniqueID>  (13) 
12

>  <SMILES>  (13) 
COc1ccc(S(=O)(=O)[N-]c2ccc(OC)c(N3CCN(C)CC3)c2)c(OC)c1

>  <Energy>  (13) 
68.28870554573241

>  <Genealogy>  (13) 
COc1ccc(S(=O)(=O)[N-]c2ccc(OC)c(N3CCN(C)CC3)c2)c(OC)c1 (protonated)
COc1ccc(S(=O)(=O)[N-]c2ccc(OC)c(N3CCN(C)CC3)c2)c(OC)c1 (3D coordinates assigned)
COc1ccc(S(=O)(=O)[N-]c2ccc(OC)c(N3CCN(C)CC3)c2)c(OC)c1 (nonaromatic ring conformer: 68.28870554573241 kcal/mol)

>  <smiles>  (13) 
COc1ccc(S(=O)(=O)Nc2ccc(OC)c(N3CCN(C)CC3)c2)c(OC)c1

>  <score_type>  (13) 
oracle

>  <origin>  (13) 
adg

>  <m_score__min__energy>  (13) 
-9.0399999999999991

>  <m_primary>  (13) 
energy

$$$$
13:0
     RDKit          3D

 25 26  0  0  0  0  0  0  0  0999 V2000
   59.2581   30.0820   53.6728 H   0  0  0  0  0  0  0  0  0  0  0  0
   58.2110   29.9240   53.3750 C   0  0  0  0  0  0  0  0  0  0  0  0
   57.7610   30.3460   52.1170 C   0  0  0  0  0  0  0  0  0  0  0  0
   58.7010   30.9980   51.1550 C   0  0  0  0  0  0  0  0  0  0  0  0
   59.4800   31.5384   51.7128 H   0  0  0  0  0  0  0  0  0  0  0  0
   59.1692   30.2297   50.5221 H   0  0  0  0  0  0  0  0  0  0  0  0
   58.1455   31.7057   50.5221 H   0  0  0  0  0  0  0  0  0  0  0  0
   56.4630   30.1380   51.7620 N   0  0  0  0  0  0  0  0  0  0  0  0
   55.5660   29.5440   52.5990 C   0  0  0  0  0  0  0  0  0  0  0  0
   54.3340   29.3350   52.2330 N   0  0  0  0  0  0  0  0  0  0  0  0
   53.2640   30.2970   52.2170 C   0  0  0  0  0  0  0  0  0  0  0  0
   52.2540   30.3090   53.1990 C   0  0  0  0  0  0  0  0  0  0  0  0
   52.2850   29.5844   54.0260 H   0  0  0  0  0  0  0  0  0  0  0  0
   51.2120   31.2390   53.1260 C   0  0  0  0  0  0  0  0  0  0  0  0
   50.4344   31.2545   53.9039 H   0  0  0  0  0  0  0  0  0  0  0  0
   51.1570   32.1490   52.0660 C   0  0  0  0  0  0  0  0  0  0  0  0
   50.1220   33.0720   51.9960 O   0  0  0  0  0  0  0  0  0  0  0  0
   52.1400   32.1220   51.0720 C   0  0  0  0  0  0  0  0  0  0  0  0
   52.0936   32.8331   50.2340 H   0  0  0  0  0  0  0  0  0  0  0  0
   53.1820   31.1920   51.1420 C   0  0  0  0  0  0  0  0  0  0  0  0
   53.9425   31.1629   50.3477 H   0  0  0  0  0  0  0  0  0  0  0  0
   55.9890   29.1050   53.8600 C   0  0  0  0  0  0  0  0  0  0  0  0
   55.2810   28.6097   54.5408 H   0  0  0  0  0  0  0  0  0  0  0  0
   57.3160   29.3010   54.2460 C   0  0  0  0  0  0  0  0  0  0  0  0
   57.6563   28.9645   55.2364 H   0  0  0  0  0  0  0  0  0  0  0  0
  1  2  1  0
  2  3  2  0
  3  4  1  0
  4  5  1  0
  4  6  1  0
  4  7  1  0
  3  8  1  0
  8  9  1  0
  9 10  2  0
 10 11  1  0
 11 12  2  0
 12 13  1  0
 12 14  1  0
 14 15  1  0
 14 16  2  0
 16 17  1  0
 16 18  1  0
 18 19  1  0
 18 20  2  0
 20 21  1  0
  9 22  1  0
 22 23  1  0
 22 24  2  0
 24 25  1  0
 24  2  1  0
 20 11  1  0
M  CHG  2   8  -1  17  -1
M  END
>  <UniqueID>  (14) 
13

>  <SMILES>  (14) 
Cc1ccc/c(=N/c2ccc([O-])cc2)[n-]1

>  <Energy>  (14) 
31.301407980472497

>  <Genealogy>  (14) 
Cc1cccc(=Nc2ccc([O-])cc2)[n-]1 (protonated)
Cc1ccc/c(=N/c2ccc([O-])cc2)[n-]1 (cis-trans isomerization)
Cc1ccc/c(=N/c2ccc([O-])cc2)[n-]1 (3D coordinates assigned)
Cc1ccc/c(=N/c2ccc([O-])cc2)[n-]1 (optimized conformer: 31.301407980472497 kcal/mol)

>  <smiles>  (14) 
Cc1cccc(=Nc2ccc(O)cc2)[nH]1

>  <score_type>  (14) 
oracle

>  <origin>  (14) 
adg

>  <m_score__min__energy>  (14) 
-10.710000000000001

>  <m_primary>  (14) 
energy

$$$$
14:0
     RDKit          3D

 28 29  0  0  0  0  0  0  0  0999 V2000
   55.4700   29.7190   43.3940 C   0  0  0  0  0  0  0  0  0  0  0  0
   56.8460   29.3630   43.8850 C   0  0  0  0  0  0  0  0  0  0  0  0
   57.3930   28.1630   43.5340 N   0  0  0  0  0  0  0  0  0  0  0  0
   58.6450   27.8010   43.9240 C   0  0  0  0  0  0  0  0  0  0  0  0
   59.4230   28.6630   44.7110 C   0  0  0  0  0  0  0  0  0  0  0  0
   60.7520   28.2860   45.1160 N   0  0  0  0  0  0  0  0  0  0  0  0
   61.7500   28.8870   44.6640 O   0  0  0  0  0  0  0  0  0  0  0  0
   60.9460   27.2560   46.0080 O   0  0  0  0  0  0  0  0  0  0  0  0
   58.8720   29.8920   45.0990 C   0  0  0  0  0  0  0  0  0  0  0  0
   57.5760   30.2410   44.7130 C   0  0  0  0  0  0  0  0  0  0  0  0
   57.0540   31.4690   45.1360 O   0  0  0  0  0  0  0  0  0  0  0  0
   57.8340   32.5700   45.5230 C   0  0  0  0  0  0  0  0  0  0  0  0
   58.3110   33.4350   44.5310 C   0  0  0  0  0  0  0  0  0  0  0  0
   59.0950   34.5410   44.8740 C   0  0  0  0  0  0  0  0  0  0  0  0
   59.4130   34.7860   46.2130 C   0  0  0  0  0  0  0  0  0  0  0  0
   58.9510   33.9230   47.2090 C   0  0  0  0  0  0  0  0  0  0  0  0
   58.1670   32.8150   46.8700 C   0  0  0  0  0  0  0  0  0  0  0  0
   54.8066   29.8906   44.2545 H   0  0  0  0  0  0  0  0  0  0  0  0
   55.5234   30.6329   42.7842 H   0  0  0  0  0  0  0  0  0  0  0  0
   55.0734   28.8939   42.7842 H   0  0  0  0  0  0  0  0  0  0  0  0
   56.8480   27.4970   42.9400 H   0  0  0  0  0  0  0  0  0  0  0  0
   59.0504   26.8247   43.6198 H   0  0  0  0  0  0  0  0  0  0  0  0
   59.4648   30.5868   45.7121 H   0  0  0  0  0  0  0  0  0  0  0  0
   58.0677   33.2436   43.4755 H   0  0  0  0  0  0  0  0  0  0  0  0
   59.4619   35.2189   44.0893 H   0  0  0  0  0  0  0  0  0  0  0  0
   60.0269   35.6582   46.4820 H   0  0  0  0  0  0  0  0  0  0  0  0
   59.2040   34.1148   48.2622 H   0  0  0  0  0  0  0  0  0  0  0  0
   57.8099   32.1339   47.6565 H   0  0  0  0  0  0  0  0  0  0  0  0
  1  2  1  0
  2  3  2  0
  3  4  1  0
  4  5  2  0
  5  6  1  0
  6  7  2  0
  6  8  1  0
  5  9  1  0
  9 10  2  0
 10 11  1  0
 11 12  1  0
 12 13  2  0
 13 14  1  0
 14 15  2  0
 15 16  1  0
 16 17  2  0
 10  2  1  0
 17 12  1  0
  1 18  1  0
  1 19  1  0
  1 20  1  0
  3 21  1  0
  4 22  1  0
  9 23  1  0
 13 24  1  0
 14 25  1  0
 15 26  1  0
 16 27  1  0
 17 28  1  0
M  CHG  3   3   1   6   1   8  -1
M  END
>  <UniqueID>  (15) 
14

>  <SMILES>  (15) 
Cc1[nH+]cc([N+](=O)[O-])cc1Oc1ccccc1

>  <Energy>  (15) 
37.69427332904543

>  <Genealogy>  (15) 
Cc1[nH+]cc([N+](=O)[O-])cc1Oc1ccccc1 (protonated)
Cc1[nH+]cc([N+](=O)[O-])cc1Oc1ccccc1 (3D coordinates assigned)
Cc1[nH+]cc([N+](=O)[O-])cc1Oc1ccccc1 (optimized conformer: 37.69427332904543 kcal/mol)

>  <smiles>  (15) 
Cc1ncc([N+](=O)[O-])cc1Oc1ccccc1

>  <score_type>  (15) 
oracle

>  <origin>  (15) 
adg

>  <m_score__min__energy>  (15) 
-5.3499999999999996

>  <m_primary>  (15) 
energy

$$$$
15:0
     RDKit          3D

 43 46  0  0  0  0  0  0  0  0999 V2000
   57.2480   27.4910   45.7540 N   0  0  0  0  0  0  0  0  0  0  0  0
   57.7420   28.5330   45.8560 C   0  0  0  0  0  0  0  0  0  0  0  0
   58.3540   29.8290   45.9820 C   0  0  0  0  0  0  0  0  0  0  0  0
   59.5400   29.9730   46.7130 C   0  0  0  0  0  0  0  0  0  0  0  0
   60.1400   31.2290   46.8390 C   0  0  0  0  0  0  0  0  0  0  0  0
   59.5590   32.3590   46.2370 C   0  0  0  0  0  0  0  0  0  0  0  0
   60.1360   33.6430   46.3440 C   0  0  0  0  0  0  0  0  0  0  0  0
   61.3370   33.8550   47.0970 N   0  0  0  0  0  0  0  0  0  0  0  0
   62.6370   33.8420   46.4160 C   0  0  0  0  0  0  0  0  0  0  0  0
   63.6430   33.0030   47.2160 C   0  0  0  0  0  0  0  0  0  0  0  0
   63.5450   33.2660   48.6610 N   0  0  0  0  0  0  0  0  0  0  0  0
   64.2960   32.4530   49.5820 C   0  0  0  0  0  0  0  0  0  0  0  0
   63.6580   31.4430   50.3240 C   0  0  0  0  0  0  0  0  0  0  0  0
   64.3870   30.6630   51.2270 C   0  0  0  0  0  0  0  0  0  0  0  0
   65.7550   30.8870   51.4010 C   0  0  0  0  0  0  0  0  0  0  0  0
   66.3960   31.8930   50.6740 C   0  0  0  0  0  0  0  0  0  0  0  0
   65.6710   32.6750   49.7690 C   0  0  0  0  0  0  0  0  0  0  0  0
   62.6250   34.3000   49.1570 C   0  0  0  0  0  0  0  0  0  0  0  0
   61.2400   34.0910   48.5420 C   0  0  0  0  0  0  0  0  0  0  0  0
   59.5450   34.7060   45.7270 N   0  0  0  0  0  0  0  0  0  0  0  0
   58.3980   34.5740   45.0090 C   0  0  0  0  0  0  0  0  0  0  0  0
   57.7860   33.3270   44.8800 C   0  0  0  0  0  0  0  0  0  0  0  0
   58.3630   32.2100   45.4930 C   0  0  0  0  0  0  0  0  0  0  0  0
   57.7680   30.9440   45.3730 C   0  0  0  0  0  0  0  0  0  0  0  0
   60.0006   29.0950   47.1894 H   0  0  0  0  0  0  0  0  0  0  0  0
   61.0726   31.3341   47.4127 H   0  0  0  0  0  0  0  0  0  0  0  0
   62.5177   33.4077   45.4124 H   0  0  0  0  0  0  0  0  0  0  0  0
   63.0116   34.8731   46.3354 H   0  0  0  0  0  0  0  0  0  0  0  0
   63.4427   31.9369   47.0335 H   0  0  0  0  0  0  0  0  0  0  0  0
   64.6561   33.2763   46.8860 H   0  0  0  0  0  0  0  0  0  0  0  0
   62.5803   31.2657   50.1934 H   0  0  0  0  0  0  0  0  0  0  0  0
   63.8826   29.8719   51.8012 H   0  0  0  0  0  0  0  0  0  0  0  0
   66.3273   30.2712   52.1104 H   0  0  0  0  0  0  0  0  0  0  0  0
   67.4726   32.0704   50.8135 H   0  0  0  0  0  0  0  0  0  0  0  0
   66.1796   33.4677   49.2008 H   0  0  0  0  0  0  0  0  0  0  0  0
   62.5534   34.2316   50.2525 H   0  0  0  0  0  0  0  0  0  0  0  0
   63.0045   35.2931   48.8746 H   0  0  0  0  0  0  0  0  0  0  0  0
   60.7627   33.2214   49.0174 H   0  0  0  0  0  0  0  0  0  0  0  0
   60.6413   34.9984   48.7097 H   0  0  0  0  0  0  0  0  0  0  0  0
   59.9780   35.6520   45.8110 H   0  0  0  0  0  0  0  0  0  0  0  0
   57.9500   35.4555   44.5271 H   0  0  0  0  0  0  0  0  0  0  0  0
   56.8568   33.2230   44.3006 H   0  0  0  0  0  0  0  0  0  0  0  0
   56.8375   30.8283   44.7979 H   0  0  0  0  0  0  0  0  0  0  0  0
  1  2  3  0
  2  3  1  0
  3  4  2  0
  4  5  1  0
  5  6  2  0
  6  7  1  0
  7  8  1  0
  8  9  1  0
  9 10  1  0
 10 11  1  0
 11 12  1  0
 12 13  2  0
 13 14  1  0
 14 15  2  0
 15 16  1  0
 16 17  2  0
 11 18  1  0
 18 19  1  0
  7 20  2  0
 20 21  1  0
 21 22  2  0
 22 23  1  0
 23 24  2  0
 24  3  1  0
 23  6  1  0
 19  8  1  0
 17 12  1  0
  4 25  1  0
  5 26  1  0
  9 27  1  0
  9 28  1  0
 10 29  1  0
 10 30  1  0
 13 31  1  0
 14 32  1  0
 15 33  1  0
 16 34  1  0
 17 35  1  0
 18 36  1  0
 18 37  1  0
 19 38  1  0
 19 39  1  0
 20 40  1  0
 21 41  1  0
 22 42  1  0
 24 43  1  0
M  CHG  1  20   1
M  END
>  <UniqueID>  (16) 
15

>  <SMILES>  (16) 
N#Cc1ccc2c(N3CCN(c4ccccc4)CC3)[nH+]ccc2c1

>  <Energy>  (16) 
59.76342689675558

>  <Genealogy>  (16) 
N#Cc1ccc2c(N3CCN(c4ccccc4)CC3)[nH+]ccc2c1 (protonated)
N#Cc1ccc2c(N3CCN(c4ccccc4)CC3)[nH+]ccc2c1 (3D coordinates assigned)
N#Cc1ccc2c(N3CCN(c4ccccc4)CC3)[nH+]ccc2c1 (nonaromatic ring conformer: 59.76342689675558 kcal/mol)

>  <smiles>  (16) 
N#Cc1ccc2c(N3CCN(c4ccccc4)CC3)nccc2c1

>  <score_type>  (16) 
oracle

>  <origin>  (16) 
adg

>  <m_score__min__energy>  (16) 
-5.9299999999999997

>  <m_primary>  (16) 
energy

$$$$
16:0
     RDKit          3D

 53 55  0  0  1  0  0  0  0  0999 V2000
   61.6600   30.3440   48.1590 N   0  0  0  0  0  0  0  0  0  0  0  0
   60.2800   30.0660   47.8090 C   0  0  0  0  0  0  0  0  0  0  0  0
   59.9960   28.6270   48.2250 C   0  0  0  0  0  0  0  0  0  0  0  0
   60.3970   27.6770   47.1100 C   0  0  0  0  0  0  0  0  0  0  0  0
   60.1160   28.3980   45.8010 C   0  0  0  0  0  0  0  0  0  0  0  0
   58.7180   28.2350   45.4860 N   0  0  0  0  0  0  0  0  0  0  0  0
   58.0810   26.9430   45.5190 C   0  0  0  0  0  0  0  0  0  0  0  0
   57.4820   26.4680   46.6850 C   0  0  0  0  0  0  0  0  0  0  0  0
   56.8940   25.2180   46.6040 C   0  0  0  0  0  0  0  0  0  0  0  0
   56.8700   24.4500   45.4790 C   0  0  0  0  0  0  0  0  0  0  0  0
   56.2590   23.2440   45.5430 F   0  0  0  0  0  0  0  0  0  0  0  0
   57.4560   24.9140   44.3400 C   0  0  0  0  0  0  0  0  0  0  0  0
   58.0610   26.1720   44.3790 C   0  0  0  0  0  0  0  0  0  0  0  0
   57.9010   29.3490   45.1140 C   0  0  0  0  0  0  0  0  0  0  0  0
   58.4750   30.6060   45.3120 C   0  0  0  0  0  0  0  0  0  0  0  0
   57.7770   31.7680   44.9900 C   0  0  0  0  0  0  0  0  0  0  0  0
   58.2660   32.9470   45.1480 N   0  0  0  0  0  0  0  0  0  0  0  0
   59.1140   33.1600   46.2670 C   0  0  0  0  0  0  0  0  0  0  0  0
   58.4970   33.3100   47.5010 C   0  0  0  0  0  0  0  0  0  0  0  0
   59.2620   33.5170   48.6290 C   0  0  0  0  0  0  0  0  0  0  0  0
   60.6430   33.5830   48.5840 C   0  0  0  0  0  0  0  0  0  0  0  0
   61.2320   33.4320   47.3470 C   0  0  0  0  0  0  0  0  0  0  0  0
   62.9980   33.5120   47.2690 S   0  0  0  0  0  0  0  0  0  0  0  0
   63.6010   31.8740   47.2350 N   0  0  0  0  0  0  0  0  0  0  0  0
   63.3710   34.2140   46.0010 O   0  0  0  0  0  0  0  0  0  0  0  0
   63.4790   34.1840   48.4990 O   0  0  0  0  0  0  0  0  0  0  0  0
   60.4880   33.2210   46.1870 C   0  0  0  0  0  0  0  0  0  0  0  0
   56.5390   31.5790   44.4880 N   0  0  0  0  0  0  0  0  0  0  0  0
   56.0100   30.3560   44.3060 C   0  0  0  0  0  0  0  0  0  0  0  0
   56.6640   29.2140   44.6090 N   0  0  0  0  0  0  0  0  0  0  0  0
   62.2280   30.1750   47.2850 H   0  0  0  0  0  0  0  0  0  0  0  0
   61.7960   31.3390   48.4180 H   0  0  0  0  0  0  0  0  0  0  0  0
   59.6086   30.7535   48.3443 H   0  0  0  0  0  0  0  0  0  0  0  0
   60.1133   30.2031   46.7304 H   0  0  0  0  0  0  0  0  0  0  0  0
   60.5720   28.3891   49.1314 H   0  0  0  0  0  0  0  0  0  0  0  0
   58.9206   28.5143   48.4270 H   0  0  0  0  0  0  0  0  0  0  0  0
   61.4668   27.4326   47.1863 H   0  0  0  0  0  0  0  0  0  0  0  0
   59.8341   26.7339   47.1715 H   0  0  0  0  0  0  0  0  0  0  0  0
   60.3512   29.4673   45.9072 H   0  0  0  0  0  0  0  0  0  0  0  0
   60.7375   27.9788   44.9961 H   0  0  0  0  0  0  0  0  0  0  0  0
   57.4771   27.0535   47.6162 H   0  0  0  0  0  0  0  0  0  0  0  0
   56.4136   24.8175   47.5089 H   0  0  0  0  0  0  0  0  0  0  0  0
   57.4527   24.3155   43.4171 H   0  0  0  0  0  0  0  0  0  0  0  0
   58.5381   26.5602   43.4670 H   0  0  0  0  0  0  0  0  0  0  0  0
   59.4909   30.6800   45.7274 H   0  0  0  0  0  0  0  0  0  0  0  0
   57.4007   33.2639   47.5788 H   0  0  0  0  0  0  0  0  0  0  0  0
   58.7565   33.6338   49.5990 H   0  0  0  0  0  0  0  0  0  0  0  0
   61.2422   33.7480   49.4916 H   0  0  0  0  0  0  0  0  0  0  0  0
   64.5250   31.8710   46.7570 H   0  0  0  0  0  0  0  0  0  0  0  0
   62.9670   31.2790   46.6520 H   0  0  0  0  0  0  0  0  0  0  0  0
   60.9933   33.1043   45.2169 H   0  0  0  0  0  0  0  0  0  0  0  0
   54.9945   30.2823   43.8898 H   0  0  0  0  0  0  0  0  0  0  0  0
   56.2600   28.2620   44.4720 H   0  0  0  0  0  0  0  0  0  0  0  0
  1  2  1  0
  2  3  1  0
  3  4  1  0
  4  5  1  0
  5  6  1  0
  6  7  1  0
  7  8  2  0
  8  9  1  0
  9 10  2  0
 10 11  1  0
 10 12  1  0
 12 13  2  0
  6 14  1  0
 14 15  2  0
 15 16  1  0
 16 17  2  0
 17 18  1  0
 18 19  2  0
 19 20  1  0
 20 21  2  0
 21 22  1  0
 22 23  1  0
 23 24  1  0
 23 25  2  0
 23 26  2  0
 22 27  2  0
 16 28  1  0
 28 29  2  0
 29 30  1  0
 13  7  1  0
 30 14  1  0
 27 18  1  0
  1 31  1  0
  1 32  1  0
  2 33  1  0
  2 34  1  0
  3 35  1  0
  3 36  1  0
  4 37  1  0
  4 38  1  0
  5 39  1  0
  5 40  1  0
  8 41  1  0
  9 42  1  0
 12 43  1  0
 13 44  1  0
 15 45  1  0
 19 46  1  0
 20 47  1  0
 21 48  1  0
 24 49  1  0
 24 50  1  0
 27 51  1  0
 29 52  1  0
 30 53  1  0
M  END
>  <smiles>  (17) 
NCCCCN(c1ccc(F)cc1)c1cc(=Nc2cccc(S(N)(=O)=O)c2)nc[nH]1

>  <score_type>  (17) 
oracle

>  <origin>  (17) 
adg

>  <m_score__min__energy>  (17) 
-9.5299999999999994

>  <m_primary>  (17) 
energy

$$$$
17:0
     RDKit          3D

 34 36  0  0  0  0  0  0  0  0999 V2000
   56.2350   31.2100   44.5050 O   0  0  0  0  0  0  0  0  0  0  0  0
   57.3970   31.1580   44.9920 C   0  0  0  0  0  0  0  0  0  0  0  0
   58.0510   32.4160   45.4310 C   0  0  0  0  0  0  0  0  0  0  0  0
   58.4510   33.3710   44.4790 C   0  0  0  0  0  0  0  0  0  0  0  0
   59.0560   34.5650   44.8840 C   0  0  0  0  0  0  0  0  0  0  0  0
   59.2580   34.8240   46.2410 C   0  0  0  0  0  0  0  0  0  0  0  0
   58.8510   33.8900   47.1970 C   0  0  0  0  0  0  0  0  0  0  0  0
   58.2460   32.6930   46.7970 C   0  0  0  0  0  0  0  0  0  0  0  0
   58.0720   29.8390   45.0950 C   0  0  0  0  0  0  0  0  0  0  0  0
   59.4670   29.7730   45.2200 C   0  0  0  0  0  0  0  0  0  0  0  0
   60.1050   28.5400   45.2990 C   0  0  0  0  0  0  0  0  0  0  0  0
   59.3500   27.3710   45.2410 C   0  0  0  0  0  0  0  0  0  0  0  0
   57.9910   27.4240   45.1020 N   0  0  0  0  0  0  0  0  0  0  0  0
   57.2550   26.1850   45.0310 C   0  0  0  0  0  0  0  0  0  0  0  0
   57.4280   25.3180   43.9370 C   0  0  0  0  0  0  0  0  0  0  0  0
   56.7090   24.1220   43.8650 C   0  0  0  0  0  0  0  0  0  0  0  0
   55.8100   23.7820   44.8800 C   0  0  0  0  0  0  0  0  0  0  0  0
   55.1130   22.6210   44.8080 F   0  0  0  0  0  0  0  0  0  0  0  0
   55.6280   24.6400   45.9690 C   0  0  0  0  0  0  0  0  0  0  0  0
   56.3460   25.8380   46.0450 C   0  0  0  0  0  0  0  0  0  0  0  0
   57.3420   28.6330   45.0340 C   0  0  0  0  0  0  0  0  0  0  0  0
   56.0820   28.6710   44.9460 O   0  0  0  0  0  0  0  0  0  0  0  0
   58.2868   33.1774   43.4087 H   0  0  0  0  0  0  0  0  0  0  0  0
   59.3735   35.3019   44.1316 H   0  0  0  0  0  0  0  0  0  0  0  0
   59.7371   35.7624   46.5571 H   0  0  0  0  0  0  0  0  0  0  0  0
   59.0064   34.0958   48.2663 H   0  0  0  0  0  0  0  0  0  0  0  0
   57.9211   31.9646   47.5546 H   0  0  0  0  0  0  0  0  0  0  0  0
   60.0586   30.6997   45.2557 H   0  0  0  0  0  0  0  0  0  0  0  0
   61.1985   28.4882   45.4066 H   0  0  0  0  0  0  0  0  0  0  0  0
   59.8525   26.3948   45.3077 H   0  0  0  0  0  0  0  0  0  0  0  0
   58.1324   25.5826   43.1346 H   0  0  0  0  0  0  0  0  0  0  0  0
   56.8507   23.4469   43.0082 H   0  0  0  0  0  0  0  0  0  0  0  0
   54.9194   24.3726   46.7668 H   0  0  0  0  0  0  0  0  0  0  0  0
   56.1985   26.5114   46.9022 H   0  0  0  0  0  0  0  0  0  0  0  0
  1  2  2  0
  2  3  1  0
  3  4  2  0
  4  5  1  0
  5  6  2  0
  6  7  1  0
  7  8  2  0
  2  9  1  0
  9 10  2  0
 10 11  1  0
 11 12  2  0
 12 13  1  0
 13 14  1  0
 14 15  2  0
 15 16  1  0
 16 17  2  0
 17 18  1  0
 17 19  1  0
 19 20  2  0
 13 21  1  0
 21 22  2  0
  8  3  1  0
 21  9  1  0
 20 14  1  0
  4 23  1  0
  5 24  1  0
  6 25  1  0
  7 26  1  0
  8 27  1  0
 10 28  1  0
 11 29  1  0
 12 30  1  0
 15 31  1  0
 16 32  1  0
 19 33  1  0
 20 34  1  0
M  END
>  <UniqueID>  (18) 
16

>  <SMILES>  (18) 
O=C(c1ccccc1)c1cccn(-c2ccc(F)cc2)c1=O

>  <Energy>  (18) 
53.624598189716714

>  <Genealogy>  (18) 
O=C(c1ccccc1)c1cccn(-c2ccc(F)cc2)c1=O (3D coordinates assigned)
O=C(c1ccccc1)c1cccn(-c2ccc(F)cc2)c1=O (optimized conformer: 53.624598189716714 kcal/mol)

>  <smiles>  (18) 
O=C(c1ccccc1)c1cccn(-c2ccc(F)cc2)c1=O

>  <score_type>  (18) 
oracle

>  <origin>  (18) 
adg

>  <m_score__min__energy>  (18) 
-7.9299999999999997

>  <m_primary>  (18) 
energy

$$$$
18:0
     RDKit          3D

 26 27  0  0  0  0  0  0  0  0999 V2000
   57.8840   31.6190   44.3210 C   0  0  0  0  0  0  0  0  0  0  0  0
   57.1670   30.3490   44.6430 C   0  0  0  0  0  0  0  0  0  0  0  0
   55.8390   30.1830   44.4940 N   0  0  0  0  0  0  0  0  0  0  0  0
   55.5160   28.9690   44.9210 N   0  0  0  0  0  0  0  0  0  0  0  0
   56.6360   28.3550   45.3480 C   0  0  0  0  0  0  0  0  0  0  0  0
   56.6540   26.9790   45.9290 C   0  0  0  0  0  0  0  0  0  0  0  0
   57.7110   29.2100   45.2010 C   0  0  0  0  0  0  0  0  0  0  0  0
   59.3950   28.9340   45.6440 S   0  0  0  0  0  0  0  0  0  0  0  0
   59.6420   27.4830   45.9420 O   0  0  0  0  0  0  0  0  0  0  0  0
   60.2720   29.3530   44.4980 O   0  0  0  0  0  0  0  0  0  0  0  0
   59.7970   29.8720   47.0460 N   0  0  0  0  0  0  0  0  0  0  0  0
   59.6840   31.3010   47.0920 C   0  0  0  0  0  0  0  0  0  0  0  0
   60.7180   32.1910   46.7480 C   0  0  0  0  0  0  0  0  0  0  0  0
   60.3640   33.5250   46.8850 C   0  0  0  0  0  0  0  0  0  0  0  0
   58.7760   33.5920   47.4280 S   0  0  0  0  0  0  0  0  0  0  0  0
   58.5150   31.9340   47.4970 C   0  0  0  0  0  0  0  0  0  0  0  0
   58.1699   32.1255   45.2546 H   0  0  0  0  0  0  0  0  0  0  0  0
   58.7872   31.3919   43.7356 H   0  0  0  0  0  0  0  0  0  0  0  0
   57.2230   32.2750   43.7356 H   0  0  0  0  0  0  0  0  0  0  0  0
   56.6531   27.0446   47.0270 H   0  0  0  0  0  0  0  0  0  0  0  0
   55.7630   26.4278   45.5939 H   0  0  0  0  0  0  0  0  0  0  0  0
   57.5591   26.4513   45.5939 H   0  0  0  0  0  0  0  0  0  0  0  0
   60.1830   29.3660   47.8740 H   0  0  0  0  0  0  0  0  0  0  0  0
   61.7095   31.8613   46.4043 H   0  0  0  0  0  0  0  0  0  0  0  0
   61.0111   34.3893   46.6745 H   0  0  0  0  0  0  0  0  0  0  0  0
   57.5839   31.4374   47.8077 H   0  0  0  0  0  0  0  0  0  0  0  0
  1  2  1  0
  2  3  2  0
  3  4  1  0
  4  5  1  0
  5  6  1  0
  5  7  2  0
  7  8  1  0
  8  9  2  0
  8 10  2  0
  8 11  1  0
 11 12  1  0
 12 13  1  0
 13 14  2  0
 14 15  1  0
 15 16  1  0
  7  2  1  0
 16 12  2  0
  1 17  1  0
  1 18  1  0
  1 19  1  0
  6 20  1  0
  6 21  1  0
  6 22  1  0
 11 23  1  0
 13 24  1  0
 14 25  1  0
 16 26  1  0
M  CHG  1   4  -1
M  END
>  <UniqueID>  (19) 
17

>  <SMILES>  (19) 
Cc1n[n-]c(C)c1S(=O)(=O)Nc1ccsc1

>  <Energy>  (19) 
80.53214510098123

>  <Genealogy>  (19) 
Cc1n[n-]c(C)c1S(=O)(=O)Nc1ccsc1 (protonated)
Cc1n[n-]c(C)c1S(=O)(=O)Nc1ccsc1 (3D coordinates assigned)
Cc1n[n-]c(C)c1S(=O)(=O)Nc1ccsc1 (optimized conformer: 80.53214510098123 kcal/mol)

>  <smiles>  (19) 
Cc1n[nH]c(C)c1S(=O)(=O)Nc1ccsc1

>  <score_type>  (19) 
oracle

>  <origin>  (19) 
adg

>  <m_score__min__energy>  (19) 
-8.8800000000000008

>  <m_primary>  (19) 
energy

$$$$
19:0
     RDKit          3D

 42 44  0  0  0  0  0  0  0  0999 V2000
   56.6220   34.9660   44.8090 O   0  0  0  0  0  0  0  0  0  0  0  0
   57.4430   34.0170   44.9120 C   0  0  0  0  0  0  0  0  0  0  0  0
   57.3940   32.9590   43.9440 N   0  0  0  0  0  0  0  0  0  0  0  0
   57.5190   31.5560   44.2170 C   0  0  0  0  0  0  0  0  0  0  0  0
   56.5240   30.6390   43.8420 C   0  0  0  0  0  0  0  0  0  0  0  0
   56.6710   29.2800   44.1320 C   0  0  0  0  0  0  0  0  0  0  0  0
   57.8120   28.8140   44.8110 C   0  0  0  0  0  0  0  0  0  0  0  0
   57.9830   27.3750   45.1270 C   0  0  0  0  0  0  0  0  0  0  0  0
   59.1470   26.8930   45.1950 O   0  0  0  0  0  0  0  0  0  0  0  0
   56.8470   26.5190   45.3360 N   0  0  0  0  0  0  0  0  0  0  0  0
   56.9890   25.1220   45.7370 C   0  0  0  0  0  0  0  0  0  0  0  0
   55.6560   24.4440   45.7260 C   0  0  0  0  0  0  0  0  0  0  0  0
   55.4430   23.0830   45.8170 C   0  0  0  0  0  0  0  0  0  0  0  0
   54.0740   22.9210   45.7880 C   0  0  0  0  0  0  0  0  0  0  0  0
   53.5400   24.1910   45.6830 C   0  0  0  0  0  0  0  0  0  0  0  0
   54.5080   25.0770   45.6490 O   0  0  0  0  0  0  0  0  0  0  0  0
   58.7850   29.7440   45.2180 C   0  0  0  0  0  0  0  0  0  0  0  0
   58.6360   31.1020   44.9260 C   0  0  0  0  0  0  0  0  0  0  0  0
   58.3900   33.9960   46.0530 C   0  0  0  0  0  0  0  0  0  0  0  0
   58.0400   33.3420   47.2460 C   0  0  0  0  0  0  0  0  0  0  0  0
   58.9280   33.3160   48.3250 C   0  0  0  0  0  0  0  0  0  0  0  0
   60.1780   33.9510   48.2370 C   0  0  0  0  0  0  0  0  0  0  0  0
   61.1530   33.8820   49.3850 C   0  0  0  0  0  0  0  0  0  0  0  0
   62.0150   34.9640   49.3580 F   0  0  0  0  0  0  0  0  0  0  0  0
   61.8900   32.7160   49.2870 F   0  0  0  0  0  0  0  0  0  0  0  0
   60.4830   33.8930   50.5960 F   0  0  0  0  0  0  0  0  0  0  0  0
   60.5440   34.5650   47.0280 C   0  0  0  0  0  0  0  0  0  0  0  0
   59.6580   34.5910   45.9480 C   0  0  0  0  0  0  0  0  0  0  0  0
   55.6241   30.9923   43.3172 H   0  0  0  0  0  0  0  0  0  0  0  0
   55.8889   28.5691   43.8272 H   0  0  0  0  0  0  0  0  0  0  0  0
   55.8830   26.8730   45.1450 H   0  0  0  0  0  0  0  0  0  0  0  0
   57.6634   24.6092   45.0354 H   0  0  0  0  0  0  0  0  0  0  0  0
   57.4044   25.0809   46.7547 H   0  0  0  0  0  0  0  0  0  0  0  0
   56.2052   22.2938   45.8960 H   0  0  0  0  0  0  0  0  0  0  0  0
   53.5192   21.9725   45.8383 H   0  0  0  0  0  0  0  0  0  0  0  0
   52.4661   24.4244   45.6351 H   0  0  0  0  0  0  0  0  0  0  0  0
   59.6711   29.3992   45.7711 H   0  0  0  0  0  0  0  0  0  0  0  0
   59.4022   31.8190   45.2558 H   0  0  0  0  0  0  0  0  0  0  0  0
   57.0612   32.8474   47.3315 H   0  0  0  0  0  0  0  0  0  0  0  0
   58.6457   32.7938   49.2511 H   0  0  0  0  0  0  0  0  0  0  0  0
   61.5365   35.0293   46.9306 H   0  0  0  0  0  0  0  0  0  0  0  0
   59.9555   35.0808   45.0091 H   0  0  0  0  0  0  0  0  0  0  0  0
  1  2  2  0
  2  3  1  0
  3  4  1  0
  4  5  2  0
  5  6  1  0
  6  7  2  0
  7  8  1  0
  8  9  2  0
  8 10  1  0
 10 11  1  0
 11 12  1  0
 12 13  2  0
 13 14  1  0
 14 15  2  0
 15 16  1  0
  7 17  1  0
 17 18  2  0
  2 19  1  0
 19 20  2  0
 20 21  1  0
 21 22  2  0
 22 23  1  0
 23 24  1  0
 23 25  1  0
 23 26  1  0
 22 27  1  0
 27 28  2  0
 18  4  1  0
 28 19  1  0
 16 12  1  0
  5 29  1  0
  6 30  1  0
 10 31  1  0
 11 32  1  0
 11 33  1  0
 13 34  1  0
 14 35  1  0
 15 36  1  0
 17 37  1  0
 18 38  1  0
 20 39  1  0
 21 40  1  0
 27 41  1  0
 28 42  1  0
M  CHG  1   3  -1
M  END
>  <UniqueID>  (20) 
18

>  <SMILES>  (20) 
O=C([N-]c1ccc(C(=O)NCc2ccco2)cc1)c1ccc(C(F)(F)F)cc1

>  <Energy>  (20) 
77.22078149959006

>  <Genealogy>  (20) 
O=C([N-]c1ccc(C(=O)NCc2ccco2)cc1)c1ccc(C(F)(F)F)cc1 (protonated)
O=C([N-]c1ccc(C(=O)NCc2ccco2)cc1)c1ccc(C(F)(F)F)cc1 (3D coordinates assigned)
O=C([N-]c1ccc(C(=O)NCc2ccco2)cc1)c1ccc(C(F)(F)F)cc1 (optimized conformer: 77.22078149959006 kcal/mol)

>  <smiles>  (20) 
O=C(NCc1ccco1)c1ccc(NC(=O)c2ccc(C(F)(F)F)cc2)cc1

>  <score_type>  (20) 
oracle

>  <origin>  (20) 
adg

>  <m_score__min__energy>  (20) 
-8.4900000000000002

>  <m_primary>  (20) 
energy

$$$$
20:0
     RDKit          3D

 38 40  0  0  0  0  0  0  0  0999 V2000
   63.0050   33.8380   46.3740 C   0  0  0  0  0  0  0  0  0  0  0  0
   62.8530   33.1740   47.7170 C   0  0  0  0  0  0  0  0  0  0  0  0
   63.7680   32.2310   48.0960 N   0  0  0  0  0  0  0  0  0  0  0  0
   63.6920   31.5960   49.2940 C   0  0  0  0  0  0  0  0  0  0  0  0
   62.6650   31.8940   50.1830 C   0  0  0  0  0  0  0  0  0  0  0  0
   61.7060   32.8430   49.8330 C   0  0  0  0  0  0  0  0  0  0  0  0
   60.7830   33.1120   50.6500 O   0  0  0  0  0  0  0  0  0  0  0  0
   61.7740   33.4910   48.5820 C   0  0  0  0  0  0  0  0  0  0  0  0
   60.7430   34.5420   48.2200 C   0  0  0  0  0  0  0  0  0  0  0  0
   59.7530   33.9900   47.2420 C   0  0  0  0  0  0  0  0  0  0  0  0
   58.8490   34.7190   46.5020 C   0  0  0  0  0  0  0  0  0  0  0  0
   58.1280   33.8580   45.7660 N   0  0  0  0  0  0  0  0  0  0  0  0
   57.0250   34.2170   44.8780 C   0  0  0  0  0  0  0  0  0  0  0  0
   58.6230   32.6290   46.0540 C   0  0  0  0  0  0  0  0  0  0  0  0
   58.1380   31.3530   45.4870 C   0  0  0  0  0  0  0  0  0  0  0  0
   57.5360   31.3010   44.2170 C   0  0  0  0  0  0  0  0  0  0  0  0
   57.1030   30.0800   43.6900 C   0  0  0  0  0  0  0  0  0  0  0  0
   57.2790   28.9010   44.4180 C   0  0  0  0  0  0  0  0  0  0  0  0
   57.8960   28.9390   45.6700 C   0  0  0  0  0  0  0  0  0  0  0  0
   58.3320   30.1570   46.2000 C   0  0  0  0  0  0  0  0  0  0  0  0
   59.6150   32.6770   46.9710 N   0  0  0  0  0  0  0  0  0  0  0  0
   63.2484   34.9013   46.5161 H   0  0  0  0  0  0  0  0  0  0  0  0
   63.8143   33.3485   45.8124 H   0  0  0  0  0  0  0  0  0  0  0  0
   62.0633   33.7493   45.8124 H   0  0  0  0  0  0  0  0  0  0  0  0
   64.5570   31.9810   47.4580 H   0  0  0  0  0  0  0  0  0  0  0  0
   64.4467   30.8421   49.5625 H   0  0  0  0  0  0  0  0  0  0  0  0
   62.6098   31.3841   51.1561 H   0  0  0  0  0  0  0  0  0  0  0  0
   60.2139   34.8590   49.1308 H   0  0  0  0  0  0  0  0  0  0  0  0
   61.2557   35.4003   47.7613 H   0  0  0  0  0  0  0  0  0  0  0  0
   58.7373   35.8133   46.5121 H   0  0  0  0  0  0  0  0  0  0  0  0
   56.1487   34.5022   45.4786 H   0  0  0  0  0  0  0  0  0  0  0  0
   57.3259   35.0636   44.2434 H   0  0  0  0  0  0  0  0  0  0  0  0
   56.7699   33.3555   44.2434 H   0  0  0  0  0  0  0  0  0  0  0  0
   57.4050   32.2253   43.6352 H   0  0  0  0  0  0  0  0  0  0  0  0
   56.6231   30.0481   42.7007 H   0  0  0  0  0  0  0  0  0  0  0  0
   56.9315   27.9425   44.0050 H   0  0  0  0  0  0  0  0  0  0  0  0
   58.0392   28.0093   46.2401 H   0  0  0  0  0  0  0  0  0  0  0  0
   58.8298   30.1797   47.1807 H   0  0  0  0  0  0  0  0  0  0  0  0
  1  2  1  0
  2  3  1  0
  3  4  1  0
  4  5  2  0
  5  6  1  0
  6  7  2  0
  6  8  1  0
  8  9  1  0
  9 10  1  0
 10 11  2  0
 11 12  1  0
 12 13  1  0
 12 14  1  0
 14 15  1  0
 15 16  2  0
 16 17  1  0
 17 18  2  0
 18 19  1  0
 19 20  2  0
 14 21  2  0
  8  2  2  0
 21 10  1  0
 20 15  1  0
  1 22  1  0
  1 23  1  0
  1 24  1  0
  3 25  1  0
  4 26  1  0
  5 27  1  0
  9 28  1  0
  9 29  1  0
 11 30  1  0
 13 31  1  0
 13 32  1  0
 13 33  1  0
 16 34  1  0
 17 35  1  0
 18 36  1  0
 19 37  1  0
 20 38  1  0
M  END
>  <UniqueID>  (21) 
19

>  <SMILES>  (21) 
Cc1[nH]ccc(=O)c1Cc1cn(C)c(-c2ccccc2)n1

>  <Energy>  (21) 
74.43568311953746

>  <Genealogy>  (21) 
Cc1[nH]ccc(=O)c1Cc1cn(C)c(-c2ccccc2)n1 (3D coordinates assigned)
Cc1[nH]ccc(=O)c1Cc1cn(C)c(-c2ccccc2)n1 (optimized conformer: 74.43568311953746 kcal/mol)

>  <smiles>  (21) 
Cc1[nH]ccc(=O)c1Cc1cn(C)c(-c2ccccc2)n1

>  <score_type>  (21) 
oracle

>  <origin>  (21) 
adg

>  <m_score__min__energy>  (21) 
-7.2699999999999996

>  <m_primary>  (21) 
energy

$$$$
21:0
     RDKit          3D

 55 58  0  0  1  0  0  0  0  0999 V2000
   67.1400   31.6680   51.0100 C   0  0  0  0  0  0  0  0  0  0  0  0
   58.2550   32.1010   47.6030 N   0  0  0  0  0  0  0  0  0  0  0  0
   59.2260   31.4050   48.1270 C   0  0  0  0  0  0  0  0  0  0  0  0
   58.9880   30.1380   48.4810 N   0  0  0  0  0  0  0  0  0  0  0  0
   61.4970   31.3610   48.8200 C   0  0  0  0  0  0  0  0  0  0  0  0
   63.3990   32.9480   46.8170 C   0  0  0  0  0  0  0  0  0  0  0  0
   62.8090   31.8620   49.0330 C   0  0  0  0  0  0  0  0  0  0  0  0
   63.7420   32.5780   48.2520 C   0  0  0  0  0  0  0  0  0  0  0  0
   61.2510   30.0240   49.1940 C   0  0  0  0  0  0  0  0  0  0  0  0
   65.1970   32.5760   50.0320 C   0  0  0  0  0  0  0  0  0  0  0  0
   66.2010   32.7500   50.7900 N   0  0  0  0  0  0  0  0  0  0  0  0
   60.0890   27.1350   48.4690 C   0  0  0  0  0  0  0  0  0  0  0  0
   59.4800   27.5020   47.1520 C   0  0  0  0  0  0  0  0  0  0  0  0
   60.3410   27.8470   46.1190 C   0  0  0  0  0  0  0  0  0  0  0  0
   59.8770   28.2000   44.8620 C   0  0  0  0  0  0  0  0  0  0  0  0
   58.5030   28.1930   44.6850 C   0  0  0  0  0  0  0  0  0  0  0  0
   57.6240   27.8540   45.6970 C   0  0  0  0  0  0  0  0  0  0  0  0
   56.2280   27.8520   45.4980 N   0  0  0  0  0  0  0  0  0  0  0  0
   55.6320   28.7970   44.9560 O   0  0  0  0  0  0  0  0  0  0  0  0
   55.5090   26.7580   45.9260 O   0  0  0  0  0  0  0  0  0  0  0  0
   58.1210   27.5060   46.9360 C   0  0  0  0  0  0  0  0  0  0  0  0
   60.4520   31.9870   48.2980 N   0  0  0  0  0  0  0  0  0  0  0  0
   60.0040   29.4470   49.0160 C   0  0  0  0  0  0  0  0  0  0  0  0
   59.7940   28.2380   49.3590 N   0  0  0  0  0  0  0  0  0  0  0  0
   58.0990   32.2080   46.1920 C   0  0  0  0  0  0  0  0  0  0  0  0
   57.4520   31.2240   45.5050 N   0  0  0  0  0  0  0  0  0  0  0  0
   57.2820   31.2870   44.1650 C   0  0  0  0  0  0  0  0  0  0  0  0
   57.7840   32.3880   43.4840 C   0  0  0  0  0  0  0  0  0  0  0  0
   58.4450   33.4110   44.1340 C   0  0  0  0  0  0  0  0  0  0  0  0
   58.5950   33.3000   45.5060 C   0  0  0  0  0  0  0  0  0  0  0  0
   59.3060   34.3870   46.2450 C   0  0  0  0  0  0  0  0  0  0  0  0
   64.8760   32.8910   48.7950 N   0  0  0  0  0  0  0  0  0  0  0  0
   63.6640   31.6680   50.5960 S   0  0  0  0  0  0  0  0  0  0  0  0
   67.2744   31.5132   52.0907 H   0  0  0  0  0  0  0  0  0  0  0  0
   66.7508   30.7462   50.5531 H   0  0  0  0  0  0  0  0  0  0  0  0
   68.1075   31.9235   50.5531 H   0  0  0  0  0  0  0  0  0  0  0  0
   58.0340   29.7600   48.3230 H   0  0  0  0  0  0  0  0  0  0  0  0
   62.6512   33.7547   46.8151 H   0  0  0  0  0  0  0  0  0  0  0  0
   64.3076   33.2890   46.2991 H   0  0  0  0  0  0  0  0  0  0  0  0
   62.9902   32.0678   46.2991 H   0  0  0  0  0  0  0  0  0  0  0  0
   62.0638   29.4283   49.6351 H   0  0  0  0  0  0  0  0  0  0  0  0
   61.1765   27.0060   48.3658 H   0  0  0  0  0  0  0  0  0  0  0  0
   59.6858   26.1859   48.8519 H   0  0  0  0  0  0  0  0  0  0  0  0
   61.4253   27.8399   46.3042 H   0  0  0  0  0  0  0  0  0  0  0  0
   60.5640   28.4717   44.0470 H   0  0  0  0  0  0  0  0  0  0  0  0
   58.0954   28.4679   43.7010 H   0  0  0  0  0  0  0  0  0  0  0  0
   57.4326   27.2324   47.7492 H   0  0  0  0  0  0  0  0  0  0  0  0
   60.5270   32.9490   48.0030 H   0  0  0  0  0  0  0  0  0  0  0  0
   56.7577   30.4839   43.6264 H   0  0  0  0  0  0  0  0  0  0  0  0
   57.6510   32.4469   42.3937 H   0  0  0  0  0  0  0  0  0  0  0  0
   58.8368   34.2794   43.5840 H   0  0  0  0  0  0  0  0  0  0  0  0
   59.1997   34.2245   47.3277 H   0  0  0  0  0  0  0  0  0  0  0  0
   60.3725   34.3767   45.9756 H   0  0  0  0  0  0  0  0  0  0  0  0
   58.8692   35.3599   45.9756 H   0  0  0  0  0  0  0  0  0  0  0  0
   65.6350   33.4510   48.2270 H   0  0  0  0  0  0  0  0  0  0  0  0
  1  2  1  0
  2  3  2  0
  3  4  1  0
  4  5  1  0
  5  6  1  0
  5  7  2  0
  7  8  1  0
  8  9  2  0
  9 10  1  0
 10 11  2  0
 11 12  1  0
 12 13  1  0
 13 14  2  0
 14 15  1  0
 15 16  2  0
 16 17  1  0
 17 18  1  0
 18 19  2  0
 18 20  1  0
 17 21  2  0
 10 22  1  0
 22 23  1  0
 23 24  2  0
 24 25  1  0
 25 26  2  0
 26 27  1  0
 27 28  2  0
 28 29  1  0
 29 30  2  0
 30 31  1  0
 23 32  1  0
  7 33  1  0
 33  3  1  0
 32  8  1  0
 21 13  1  0
 30 25  1  0
  1 34  1  0
  1 35  1  0
  1 36  1  0
  4 37  1  0
  6 38  1  0
  6 39  1  0
  6 40  1  0
  9 41  1  0
 12 42  1  0
 12 43  1  0
 14 44  1  0
 15 45  1  0
 16 46  1  0
 21 47  1  0
 22 48  1  0
 27 49  1  0
 28 50  1  0
 29 51  1  0
 31 52  1  0
 31 53  1  0
 31 54  1  0
 32 55  1  0
M  CHG  2  18   1  20  -1
M  END
>  <smiles>  (22) 
CN=c1[nH]c(C)c(-c2cc(=NCc3cccc([N+](=O)[O-])c3)[nH]c(=Nc3ncccc3C)[nH]2)s1

>  <score_type>  (22) 
oracle

>  <origin>  (22) 
adg

>  <m_score__min__energy>  (22) 
-9.6899999999999995

>  <m_primary>  (22) 
energy

$$$$
22:0
     RDKit          3D

 51 54  0  0  1  0  0  0  0  0999 V2000
   63.7740   33.1300   46.8960 C   0  0  0  0  0  0  0  0  0  0  0  0
   63.5490   33.2620   48.3200 N   0  0  0  0  0  0  0  0  0  0  0  0
   64.6160   33.0620   49.2550 C   0  0  0  0  0  0  0  0  0  0  0  0
   62.2220   33.5990   48.7340 C   0  0  0  0  0  0  0  0  0  0  0  0
   61.9090   33.5160   50.0740 C   0  0  0  0  0  0  0  0  0  0  0  0
   60.6340   33.8280   50.5550 C   0  0  0  0  0  0  0  0  0  0  0  0
   59.6820   34.2300   49.6270 C   0  0  0  0  0  0  0  0  0  0  0  0
   59.9880   34.3180   48.2690 C   0  0  0  0  0  0  0  0  0  0  0  0
   58.9420   34.7420   47.3820 N   0  0  0  0  0  0  0  0  0  0  0  0
   58.3380   33.8740   46.6420 C   0  0  0  0  0  0  0  0  0  0  0  0
   57.3200   34.1720   45.8160 N   0  0  0  0  0  0  0  0  0  0  0  0
   56.9770   33.0370   45.2420 N   0  0  0  0  0  0  0  0  0  0  0  0
   57.7350   32.0340   45.6710 C   0  0  0  0  0  0  0  0  0  0  0  0
   57.6520   30.6350   45.2650 C   0  0  0  0  0  0  0  0  0  0  0  0
   57.0860   30.2660   44.0700 C   0  0  0  0  0  0  0  0  0  0  0  0
   57.0140   28.9420   43.6990 C   0  0  0  0  0  0  0  0  0  0  0  0
   57.5090   27.9140   44.5150 C   0  0  0  0  0  0  0  0  0  0  0  0
   57.4000   26.5930   44.0710 N   0  0  0  0  0  0  0  0  0  0  0  0
   57.5330   25.4150   44.8250 C   0  0  0  0  0  0  0  0  0  0  0  0
   57.7790   25.4650   46.0440 O   0  0  0  0  0  0  0  0  0  0  0  0
   57.3980   24.0620   44.2520 C   0  0  0  0  0  0  0  0  0  0  0  0
   58.2650   23.0800   44.6800 C   0  0  0  0  0  0  0  0  0  0  0  0
   58.2040   21.7720   44.1860 C   0  0  0  0  0  0  0  0  0  0  0  0
   57.2410   21.4590   43.2400 C   0  0  0  0  0  0  0  0  0  0  0  0
   56.3680   22.4380   42.8060 C   0  0  0  0  0  0  0  0  0  0  0  0
   56.4540   23.7350   43.3170 C   0  0  0  0  0  0  0  0  0  0  0  0
   58.0660   28.3330   45.7000 C   0  0  0  0  0  0  0  0  0  0  0  0
   58.1410   29.6620   46.0780 C   0  0  0  0  0  0  0  0  0  0  0  0
   58.5730   32.5710   46.5400 O   0  0  0  0  0  0  0  0  0  0  0  0
   61.2560   34.0040   47.8130 C   0  0  0  0  0  0  0  0  0  0  0  0
   64.7109   32.5804   46.7222 H   0  0  0  0  0  0  0  0  0  0  0  0
   62.9366   32.5800   46.4419 H   0  0  0  0  0  0  0  0  0  0  0  0
   63.8455   34.1293   46.4419 H   0  0  0  0  0  0  0  0  0  0  0  0
   64.2238   33.1355   50.2801 H   0  0  0  0  0  0  0  0  0  0  0  0
   65.0562   32.0657   49.1014 H   0  0  0  0  0  0  0  0  0  0  0  0
   65.3871   33.8312   49.1014 H   0  0  0  0  0  0  0  0  0  0  0  0
   62.6846   33.1951   50.7850 H   0  0  0  0  0  0  0  0  0  0  0  0
   60.3942   33.7579   51.6262 H   0  0  0  0  0  0  0  0  0  0  0  0
   58.6679   34.4837   49.9694 H   0  0  0  0  0  0  0  0  0  0  0  0
   56.8470   35.0710   45.6120 H   0  0  0  0  0  0  0  0  0  0  0  0
   56.6841   31.0394   43.3990 H   0  0  0  0  0  0  0  0  0  0  0  0
   56.5545   28.6826   42.7338 H   0  0  0  0  0  0  0  0  0  0  0  0
   57.1910   26.4530   43.0370 H   0  0  0  0  0  0  0  0  0  0  0  0
   59.0274   23.3316   45.4320 H   0  0  0  0  0  0  0  0  0  0  0  0
   58.9082   21.0058   44.5424 H   0  0  0  0  0  0  0  0  0  0  0  0
   57.1721   20.4377   42.8372 H   0  0  0  0  0  0  0  0  0  0  0  0
   55.6020   22.1949   42.0549 H   0  0  0  0  0  0  0  0  0  0  0  0
   55.7527   24.5048   42.9627 H   0  0  0  0  0  0  0  0  0  0  0  0
   58.4730   27.5726   46.3828 H   0  0  0  0  0  0  0  0  0  0  0  0
   58.5986   29.9322   47.0411 H   0  0  0  0  0  0  0  0  0  0  0  0
   61.4982   34.0726   46.7422 H   0  0  0  0  0  0  0  0  0  0  0  0
  1  2  1  0
  2  3  1  0
  2  4  1  0
  4  5  2  0
  5  6  1  0
  6  7  2  0
  7  8  1  0
  8  9  1  0
  9 10  2  0
 10 11  1  0
 11 12  1  0
 12 13  2  0
 13 14  1  0
 14 15  2  0
 15 16  1  0
 16 17  2  0
 17 18  1  0
 18 19  1  0
 19 20  2  0
 19 21  1  0
 21 22  2  0
 22 23  1  0
 23 24  2  0
 24 25  1  0
 25 26  2  0
 17 27  1  0
 27 28  2  0
 13 29  1  0
  8 30  2  0
 30  4  1  0
 29 10  1  0
 28 14  1  0
 26 21  1  0
  1 31  1  0
  1 32  1  0
  1 33  1  0
  3 34  1  0
  3 35  1  0
  3 36  1  0
  5 37  1  0
  6 38  1  0
  7 39  1  0
 11 40  1  0
 15 41  1  0
 16 42  1  0
 18 43  1  0
 22 44  1  0
 23 45  1  0
 24 46  1  0
 25 47  1  0
 26 48  1  0
 27 49  1  0
 28 50  1  0
 30 51  1  0
M  END
>  <smiles>  (23) 
CN(C)c1cccc(N=c2[nH]nc(-c3ccc(NC(=O)c4ccccc4)cc3)o2)c1

>  <score_type>  (23) 
oracle

>  <origin>  (23) 
adg

>  <m_score__min__energy>  (23) 
-8.7799999999999994

>  <m_primary>  (23) 
energy

$$$$
23:0
     RDKit          3D

 38 40  0  0  0  0  0  0  0  0999 V2000
   56.0470   29.6870   44.8930 O   0  0  0  0  0  0  0  0  0  0  0  0
   57.2800   29.7970   45.1280 C   0  0  0  0  0  0  0  0  0  0  0  0
   58.1170   28.6310   45.2160 N   0  0  0  0  0  0  0  0  0  0  0  0
   57.6430   27.2850   45.0440 C   0  0  0  0  0  0  0  0  0  0  0  0
   57.8990   26.6160   43.8390 C   0  0  0  0  0  0  0  0  0  0  0  0
   57.4290   25.3160   43.6360 C   0  0  0  0  0  0  0  0  0  0  0  0
   56.6860   24.6710   44.6320 C   0  0  0  0  0  0  0  0  0  0  0  0
   56.0780   23.0420   44.3500 S   0  0  0  0  0  0  0  0  0  0  0  0
   55.4430   22.9880   42.9890 O   0  0  0  0  0  0  0  0  0  0  0  0
   57.1970   22.0390   44.3990 O   0  0  0  0  0  0  0  0  0  0  0  0
   54.8930   22.6430   45.5520 N   0  0  0  0  0  0  0  0  0  0  0  0
   53.6310   22.9250   45.4430 C   0  0  0  0  0  0  0  0  0  0  0  0
   52.6770   22.0080   45.7660 N   0  0  0  0  0  0  0  0  0  0  0  0
   51.3550   22.3030   45.6570 C   0  0  0  0  0  0  0  0  0  0  0  0
   50.9610   23.5610   45.2060 C   0  0  0  0  0  0  0  0  0  0  0  0
   51.9460   24.4890   44.8770 C   0  0  0  0  0  0  0  0  0  0  0  0
   53.2580   24.1560   45.0010 N   0  0  0  0  0  0  0  0  0  0  0  0
   56.4030   25.3450   45.8280 C   0  0  0  0  0  0  0  0  0  0  0  0
   56.8720   26.6450   46.0320 C   0  0  0  0  0  0  0  0  0  0  0  0
   57.8560   31.1460   45.3020 C   0  0  0  0  0  0  0  0  0  0  0  0
   58.3600   31.5100   46.5620 C   0  0  0  0  0  0  0  0  0  0  0  0
   58.8990   32.7810   46.7700 C   0  0  0  0  0  0  0  0  0  0  0  0
   58.9520   33.7000   45.7180 C   0  0  0  0  0  0  0  0  0  0  0  0
   59.6320   35.2960   45.9820 Cl  0  0  0  0  0  0  0  0  0  0  0  0
   58.4750   33.3420   44.4550 C   0  0  0  0  0  0  0  0  0  0  0  0
   57.9320   32.0700   44.2360 C   0  0  0  0  0  0  0  0  0  0  0  0
   57.4420   31.6480   42.5970 Cl  0  0  0  0  0  0  0  0  0  0  0  0
   59.1190   28.7580   45.4830 H   0  0  0  0  0  0  0  0  0  0  0  0
   58.4742   27.1183   43.0473 H   0  0  0  0  0  0  0  0  0  0  0  0
   57.6436   24.7973   42.6900 H   0  0  0  0  0  0  0  0  0  0  0  0
   50.5981   21.5508   45.9241 H   0  0  0  0  0  0  0  0  0  0  0  0
   49.8951   23.8157   45.1118 H   0  0  0  0  0  0  0  0  0  0  0  0
   51.6628   25.4893   44.5176 H   0  0  0  0  0  0  0  0  0  0  0  0
   55.8091   24.8482   46.6093 H   0  0  0  0  0  0  0  0  0  0  0  0
   56.6375   27.1708   46.9693 H   0  0  0  0  0  0  0  0  0  0  0  0
   58.3297   30.7878   47.3912 H   0  0  0  0  0  0  0  0  0  0  0  0
   59.2823   33.0595   47.7627 H   0  0  0  0  0  0  0  0  0  0  0  0
   58.5262   34.0641   43.6268 H   0  0  0  0  0  0  0  0  0  0  0  0
  1  2  2  0
  2  3  1  0
  3  4  1  0
  4  5  2  0
  5  6  1  0
  6  7  2  0
  7  8  1  0
  8  9  2  0
  8 10  2  0
  8 11  1  0
 11 12  2  3
 12 13  1  0
 13 14  2  0
 14 15  1  0
 15 16  2  0
 16 17  1  0
  7 18  1  0
 18 19  2  0
  2 20  1  0
 20 21  2  0
 21 22  1  0
 22 23  2  0
 23 24  1  0
 23 25  1  0
 25 26  2  0
 26 27  1  0
 19  4  1  0
 26 20  1  0
 17 12  1  0
  3 28  1  0
  5 29  1  0
  6 30  1  0
 14 31  1  0
 15 32  1  0
 16 33  1  0
 18 34  1  0
 19 35  1  0
 21 36  1  0
 22 37  1  0
 25 38  1  0
M  CHG  1  17  -1
M  END
>  <UniqueID>  (24) 
20

>  <SMILES>  (24) 
O=C(Nc1ccc(S(=O)(=O)N=c2nccc[n-]2)cc1)c1ccc(Cl)cc1Cl

>  <Energy>  (24) 
54.988520860424956

>  <Genealogy>  (24) 
O=C(Nc1ccc(S(=O)(=O)N=c2nccc[n-]2)cc1)c1ccc(Cl)cc1Cl (protonated)
O=C(Nc1ccc(S(=O)(=O)N=c2nccc[n-]2)cc1)c1ccc(Cl)cc1Cl (3D coordinates assigned)
O=C(Nc1ccc(S(=O)(=O)N=c2nccc[n-]2)cc1)c1ccc(Cl)cc1Cl (optimized conformer: 54.988520860424956 kcal/mol)

>  <smiles>  (24) 
O=C(Nc1ccc(S(=O)(=O)N=c2nccc[nH]2)cc1)c1ccc(Cl)cc1Cl

>  <score_type>  (24) 
oracle

>  <origin>  (24) 
adg

>  <m_score__min__energy>  (24) 
-10.369999999999999

>  <m_primary>  (24) 
energy

$$$$
24:0
     RDKit          3D

 43 45  0  0  1  0  0  0  0  0999 V2000
   57.3980   31.9570   41.8090 C   0  0  0  0  0  0  0  0  0  0  0  0
   57.2460   31.1630   43.0390 N   0  0  0  0  0  0  0  0  0  0  0  0
   56.5610   29.9130   42.9120 C   0  0  0  0  0  0  0  0  0  0  0  0
   55.2870   29.8280   43.7280 C   0  0  0  0  0  0  0  0  0  0  0  0
   55.5140   29.3670   45.0200 O   0  0  0  0  0  0  0  0  0  0  0  0
   57.7850   31.6890   44.2410 C   0  0  0  0  0  0  0  0  0  0  0  0
   58.2140   32.9610   44.2140 N   0  0  0  0  0  0  0  0  0  0  0  0
   58.7290   33.5090   45.3290 C   0  0  0  0  0  0  0  0  0  0  0  0
   59.1440   34.8130   45.2550 C   0  0  0  0  0  0  0  0  0  0  0  0
   59.6580   35.3610   46.4100 C   0  0  0  0  0  0  0  0  0  0  0  0
   59.7790   34.7090   47.5970 C   0  0  0  0  0  0  0  0  0  0  0  0
   59.3480   33.3610   47.6700 C   0  0  0  0  0  0  0  0  0  0  0  0
   58.8490   32.8290   46.5260 C   0  0  0  0  0  0  0  0  0  0  0  0
   58.4120   31.5340   46.5310 C   0  0  0  0  0  0  0  0  0  0  0  0
   58.5720   30.7670   47.4880 N   0  0  0  0  0  0  0  0  0  0  0  0
   59.1660   29.5240   47.5550 C   0  0  0  0  0  0  0  0  0  0  0  0
   58.7720   28.5330   46.5120 C   0  0  0  0  0  0  0  0  0  0  0  0
   57.7820   27.5840   46.6850 C   0  0  0  0  0  0  0  0  0  0  0  0
   57.4270   26.6540   45.7350 C   0  0  0  0  0  0  0  0  0  0  0  0
   58.0770   26.6400   44.5230 C   0  0  0  0  0  0  0  0  0  0  0  0
   59.0560   27.5500   44.3050 C   0  0  0  0  0  0  0  0  0  0  0  0
   59.4090   28.4830   45.2650 C   0  0  0  0  0  0  0  0  0  0  0  0
   57.8900   31.0050   45.3860 N   0  0  0  0  0  0  0  0  0  0  0  0
   57.5988   33.0060   42.0722 H   0  0  0  0  0  0  0  0  0  0  0  0
   58.2365   31.5603   41.2178 H   0  0  0  0  0  0  0  0  0  0  0  0
   56.4723   31.8981   41.2178 H   0  0  0  0  0  0  0  0  0  0  0  0
   56.3049   29.7640   41.8527 H   0  0  0  0  0  0  0  0  0  0  0  0
   57.2390   29.1359   43.2947 H   0  0  0  0  0  0  0  0  0  0  0  0
   54.8364   30.8299   43.7846 H   0  0  0  0  0  0  0  0  0  0  0  0
   54.6171   29.1119   43.2296 H   0  0  0  0  0  0  0  0  0  0  0  0
   55.2300   30.0800   45.6350 H   0  0  0  0  0  0  0  0  0  0  0  0
   59.0706   35.3918   44.3225 H   0  0  0  0  0  0  0  0  0  0  0  0
   59.9966   36.4068   46.3686 H   0  0  0  0  0  0  0  0  0  0  0  0
   60.2006   35.2149   48.4781 H   0  0  0  0  0  0  0  0  0  0  0  0
   59.4142   32.7791   48.6011 H   0  0  0  0  0  0  0  0  0  0  0  0
   60.2537   29.6705   47.4808 H   0  0  0  0  0  0  0  0  0  0  0  0
   58.8228   29.0920   48.5066 H   0  0  0  0  0  0  0  0  0  0  0  0
   57.2432   27.5714   47.6439 H   0  0  0  0  0  0  0  0  0  0  0  0
   56.6286   25.9266   45.9435 H   0  0  0  0  0  0  0  0  0  0  0  0
   57.8079   25.9066   43.7486 H   0  0  0  0  0  0  0  0  0  0  0  0
   59.5844   27.5478   43.3402 H   0  0  0  0  0  0  0  0  0  0  0  0
   60.2100   29.2035   45.0431 H   0  0  0  0  0  0  0  0  0  0  0  0
   57.5460   30.0190   45.3720 H   0  0  0  0  0  0  0  0  0  0  0  0
  1  2  1  0
  2  3  1  0
  3  4  1  0
  4  5  1  0
  2  6  1  0
  6  7  2  0
  7  8  1  0
  8  9  2  0
  9 10  1  0
 10 11  2  0
 11 12  1  0
 12 13  2  0
 13 14  1  0
 14 15  2  0
 15 16  1  0
 16 17  1  0
 17 18  2  0
 18 19  1  0
 19 20  2  0
 20 21  1  0
 21 22  2  0
 14 23  1  0
 23  6  1  0
 13  8  1  0
 22 17  1  0
  1 24  1  0
  1 25  1  0
  1 26  1  0
  3 27  1  0
  3 28  1  0
  4 29  1  0
  4 30  1  0
  5 31  1  0
  9 32  1  0
 10 33  1  0
 11 34  1  0
 12 35  1  0
 16 36  1  0
 16 37  1  0
 18 38  1  0
 19 39  1  0
 20 40  1  0
 21 41  1  0
 22 42  1  0
 23 43  1  0
M  END
>  <smiles>  (25) 
CN(CCO)c1nc2ccccc2c(=NCc2ccccc2)[nH]1

>  <score_type>  (25) 
oracle

>  <origin>  (25) 
adg

>  <m_score__min__energy>  (25) 
-7.8300000000000001

>  <m_primary>  (25) 
energy

$$$$
25:0
     RDKit          3D

 39 41  0  0  0  0  0  0  0  0999 V2000
   56.2260   29.3480   44.3610 C   0  0  0  0  0  0  0  0  0  0  0  0
   56.2430   28.2410   45.2550 O   0  0  0  0  0  0  0  0  0  0  0  0
   57.3490   27.8560   46.0320 C   0  0  0  0  0  0  0  0  0  0  0  0
   58.3590   28.7720   46.3920 C   0  0  0  0  0  0  0  0  0  0  0  0
   59.4490   28.3600   47.1770 C   0  0  0  0  0  0  0  0  0  0  0  0
   60.5050   29.2610   47.5400 N   0  0  0  0  0  0  0  0  0  0  0  0
   60.3650   30.4790   48.2820 C   0  0  0  0  0  0  0  0  0  0  0  0
   60.0390   30.4490   49.5000 O   0  0  0  0  0  0  0  0  0  0  0  0
   60.7230   31.7710   47.6570 C   0  0  0  0  0  0  0  0  0  0  0  0
   62.0570   32.2030   47.7590 C   0  0  0  0  0  0  0  0  0  0  0  0
   62.4790   33.3740   47.1310 C   0  0  0  0  0  0  0  0  0  0  0  0
   61.5800   34.1390   46.3920 C   0  0  0  0  0  0  0  0  0  0  0  0
   60.2360   33.7510   46.2930 C   0  0  0  0  0  0  0  0  0  0  0  0
   59.3320   34.5430   45.5670 C   0  0  0  0  0  0  0  0  0  0  0  0
   57.9860   34.1850   45.4940 C   0  0  0  0  0  0  0  0  0  0  0  0
   57.5280   33.0440   46.1520 C   0  0  0  0  0  0  0  0  0  0  0  0
   58.4150   32.2430   46.8750 C   0  0  0  0  0  0  0  0  0  0  0  0
   59.7890   32.5660   46.9390 C   0  0  0  0  0  0  0  0  0  0  0  0
   59.5460   27.0220   47.5660 C   0  0  0  0  0  0  0  0  0  0  0  0
   58.5520   26.1090   47.2170 C   0  0  0  0  0  0  0  0  0  0  0  0
   57.4470   26.5180   46.4570 C   0  0  0  0  0  0  0  0  0  0  0  0
   56.1930   25.3530   46.0240 S   0  0  0  0  0  0  0  0  0  0  0  0
   54.6620   26.1530   45.9550 N   0  0  0  0  0  0  0  0  0  0  0  0
   56.5100   24.7540   44.6830 O   0  0  0  0  0  0  0  0  0  0  0  0
   56.1230   24.2530   47.0470 O   0  0  0  0  0  0  0  0  0  0  0  0
   56.2116   30.2847   44.9375 H   0  0  0  0  0  0  0  0  0  0  0  0
   57.1247   29.3213   43.7272 H   0  0  0  0  0  0  0  0  0  0  0  0
   55.3286   29.2937   43.7272 H   0  0  0  0  0  0  0  0  0  0  0  0
   58.2929   29.8172   46.0556 H   0  0  0  0  0  0  0  0  0  0  0  0
   62.7769   31.6095   48.3417 H   0  0  0  0  0  0  0  0  0  0  0  0
   63.5273   33.6953   47.2197 H   0  0  0  0  0  0  0  0  0  0  0  0
   61.9256   35.0513   45.8839 H   0  0  0  0  0  0  0  0  0  0  0  0
   59.6867   35.4491   45.0540 H   0  0  0  0  0  0  0  0  0  0  0  0
   57.2841   34.8041   44.9161 H   0  0  0  0  0  0  0  0  0  0  0  0
   56.4630   32.7734   46.1014 H   0  0  0  0  0  0  0  0  0  0  0  0
   58.0401   31.3519   47.3998 H   0  0  0  0  0  0  0  0  0  0  0  0
   60.4138   26.6860   48.1525 H   0  0  0  0  0  0  0  0  0  0  0  0
   58.6351   25.0608   47.5400 H   0  0  0  0  0  0  0  0  0  0  0  0
   54.7890   27.0930   46.3920 H   0  0  0  0  0  0  0  0  0  0  0  0
  1  2  1  0
  2  3  1  0
  3  4  2  0
  4  5  1  0
  5  6  1  0
  6  7  1  0
  7  8  2  0
  7  9  1  0
  9 10  2  0
 10 11  1  0
 11 12  2  0
 12 13  1  0
 13 14  2  0
 14 15  1  0
 15 16  2  0
 16 17  1  0
 17 18  2  0
  5 19  2  0
 19 20  1  0
 20 21  2  0
 21 22  1  0
 22 23  1  0
 22 24  2  0
 22 25  2  0
 21  3  1  0
 18  9  1  0
 18 13  1  0
  1 26  1  0
  1 27  1  0
  1 28  1  0
  4 29  1  0
 10 30  1  0
 11 31  1  0
 12 32  1  0
 14 33  1  0
 15 34  1  0
 16 35  1  0
 17 36  1  0
 19 37  1  0
 20 38  1  0
 23 39  1  0
M  CHG  2   6  -1  23  -1
M  END
>  <UniqueID>  (26) 
21

>  <SMILES>  (26) 
COc1cc([N-]C(=O)c2cccc3ccccc23)ccc1S([NH-])(=O)=O

>  <Energy>  (26) 
55.08345232782622

>  <Genealogy>  (26) 
COc1cc([N-]C(=O)c2cccc3ccccc23)ccc1S([NH-])(=O)=O (protonated)
COc1cc([N-]C(=O)c2cccc3ccccc23)ccc1S([NH-])(=O)=O (3D coordinates assigned)
COc1cc([N-]C(=O)c2cccc3ccccc23)ccc1S([NH-])(=O)=O (optimized conformer: 55.08345232782622 kcal/mol)

>  <smiles>  (26) 
COc1cc(NC(=O)c2cccc3ccccc23)ccc1S(N)(=O)=O

>  <score_type>  (26) 
oracle

>  <origin>  (26) 
adg

>  <m_score__min__energy>  (26) 
-12.43

>  <m_primary>  (26) 
energy

$$$$
26:0
     RDKit          3D

 53 56  0  0  0  0  0  0  0  0999 V2000
   58.9640   33.6670   51.7510 C   0  0  0  0  0  0  0  0  0  0  0  0
   57.8810   32.8270   52.0200 C   0  0  0  0  0  0  0  0  0  0  0  0
   57.7450   31.6160   51.3340 C   0  0  0  0  0  0  0  0  0  0  0  0
   58.7020   31.2340   50.3780 C   0  0  0  0  0  0  0  0  0  0  0  0
   58.5370   29.9520   49.6090 C   0  0  0  0  0  0  0  0  0  0  0  0
   59.7240   29.7410   48.6490 C   0  0  0  0  0  0  0  0  0  0  0  0
   59.3780   30.0480   47.2300 N   0  0  2  0  0  0  0  0  0  0  0  0
   58.6790   28.9240   46.5570 C   0  0  0  0  0  0  0  0  0  0  0  0
   57.5590   29.3820   45.6700 C   0  0  0  0  0  0  0  0  0  0  0  0
   56.5290   28.6040   45.1970 C   0  0  0  0  0  0  0  0  0  0  0  0
   55.7120   29.3710   44.4550 N   0  0  0  0  0  0  0  0  0  0  0  0
   56.2780   30.5970   44.5020 C   0  0  0  0  0  0  0  0  0  0  0  0
   57.4090   30.6460   45.2370 N   0  0  0  0  0  0  0  0  0  0  0  0
   60.5710   30.4730   46.4430 C   0  0  0  0  0  0  0  0  0  0  0  0
   61.3770   31.6120   47.0710 C   0  0  0  0  0  0  0  0  0  0  0  0
   62.6000   31.3060   47.7000 C   0  0  0  0  0  0  0  0  0  0  0  0
   63.4140   32.3120   48.2200 C   0  0  0  0  0  0  0  0  0  0  0  0
   63.0170   33.6430   48.1380 C   0  0  0  0  0  0  0  0  0  0  0  0
   61.7910   33.9720   47.5630 C   0  0  0  0  0  0  0  0  0  0  0  0
   60.9480   32.9710   47.0470 C   0  0  0  0  0  0  0  0  0  0  0  0
   59.6220   33.3900   46.5390 C   0  0  0  0  0  0  0  0  0  0  0  0
   58.4620   33.1040   47.2790 C   0  0  0  0  0  0  0  0  0  0  0  0
   57.2060   33.4690   46.7860 C   0  0  0  0  0  0  0  0  0  0  0  0
   57.0960   34.0990   45.5440 C   0  0  0  0  0  0  0  0  0  0  0  0
   58.2430   34.3580   44.7880 C   0  0  0  0  0  0  0  0  0  0  0  0
   59.5020   33.9960   45.2780 C   0  0  0  0  0  0  0  0  0  0  0  0
   59.7800   32.0910   50.1020 C   0  0  0  0  0  0  0  0  0  0  0  0
   59.9120   33.3010   50.7910 C   0  0  0  0  0  0  0  0  0  0  0  0
   59.0710   34.6171   52.2949 H   0  0  0  0  0  0  0  0  0  0  0  0
   57.1338   33.1185   52.7728 H   0  0  0  0  0  0  0  0  0  0  0  0
   56.8867   30.9606   51.5431 H   0  0  0  0  0  0  0  0  0  0  0  0
   58.4887   29.1100   50.3152 H   0  0  0  0  0  0  0  0  0  0  0  0
   57.6094   30.0074   49.0204 H   0  0  0  0  0  0  0  0  0  0  0  0
   60.5495   30.3981   48.9601 H   0  0  0  0  0  0  0  0  0  0  0  0
   60.0081   28.6795   48.6998 H   0  0  0  0  0  0  0  0  0  0  0  0
   58.7300   30.8720   47.2120 H   0  0  0  0  0  0  0  0  0  0  0  0
   59.4084   28.3726   45.9454 H   0  0  0  0  0  0  0  0  0  0  0  0
   58.2411   28.2897   47.3417 H   0  0  0  0  0  0  0  0  0  0  0  0
   56.3954   27.5300   45.3936 H   0  0  0  0  0  0  0  0  0  0  0  0
   55.8562   31.4738   43.9889 H   0  0  0  0  0  0  0  0  0  0  0  0
   61.2356   29.6036   46.3313 H   0  0  0  0  0  0  0  0  0  0  0  0
   60.1914   30.8528   45.4830 H   0  0  0  0  0  0  0  0  0  0  0  0
   62.9181   30.2562   47.7823 H   0  0  0  0  0  0  0  0  0  0  0  0
   64.3714   32.0528   48.6957 H   0  0  0  0  0  0  0  0  0  0  0  0
   63.6717   34.4365   48.5275 H   0  0  0  0  0  0  0  0  0  0  0  0
   61.4791   35.0256   47.5121 H   0  0  0  0  0  0  0  0  0  0  0  0
   58.5427   32.5914   48.2489 H   0  0  0  0  0  0  0  0  0  0  0  0
   56.3023   33.2597   47.3772 H   0  0  0  0  0  0  0  0  0  0  0  0
   56.1071   34.3912   45.1610 H   0  0  0  0  0  0  0  0  0  0  0  0
   58.1553   34.8471   43.8066 H   0  0  0  0  0  0  0  0  0  0  0  0
   60.4011   34.1866   44.6736 H   0  0  0  0  0  0  0  0  0  0  0  0
   60.5231   31.8096   49.3413 H   0  0  0  0  0  0  0  0  0  0  0  0
   60.7624   33.9652   50.5773 H   0  0  0  0  0  0  0  0  0  0  0  0
  1  2  2  0
  2  3  1  0
  3  4  2  0
  4  5  1  0
  5  6  1  0
  6  7  1  0
  7  8  1  0
  8  9  1  0
  9 10  2  0
 10 11  1  0
 11 12  1  0
 12 13  2  0
  7 14  1  0
 14 15  1  0
 15 16  2  0
 16 17  1  0
 17 18  2  0
 18 19  1  0
 19 20  2  0
 20 21  1  0
 21 22  2  0
 22 23  1  0
 23 24  2  0
 24 25  1  0
 25 26  2  0
  4 27  1  0
 27 28  2  0
 28  1  1  0
 13  9  1  0
 20 15  1  0
 26 21  1  0
  1 29  1  0
  2 30  1  0
  3 31  1  0
  5 32  1  0
  5 33  1  0
  6 34  1  0
  6 35  1  0
  7 36  1  1
  8 37  1  0
  8 38  1  0
 10 39  1  0
 12 40  1  0
 14 41  1  0
 14 42  1  0
 16 43  1  0
 17 44  1  0
 18 45  1  0
 19 46  1  0
 22 47  1  0
 23 48  1  0
 24 49  1  0
 25 50  1  0
 26 51  1  0
 27 52  1  0
 28 53  1  0
M  CHG  2   7   1  11  -1
M  END
>  <UniqueID>  (27) 
22

>  <SMILES>  (27) 
c1ccc(CC[N@H+](Cc2c[n-]cn2)Cc2ccccc2-c2ccccc2)cc1

>  <Energy>  (27) 
97.93568132471236

>  <Genealogy>  (27) 
c1ccc(CC[NH+](Cc2c[n-]cn2)Cc2ccccc2-c2ccccc2)cc1 (protonated)
c1ccc(CC[N@H+](Cc2c[n-]cn2)Cc2ccccc2-c2ccccc2)cc1 (chirality)
c1ccc(CC[N@H+](Cc2c[n-]cn2)Cc2ccccc2-c2ccccc2)cc1 (3D coordinates assigned)
c1ccc(CC[N@H+](Cc2c[n-]cn2)Cc2ccccc2-c2ccccc2)cc1 (optimized conformer: 97.93568132471236 kcal/mol)

>  <smiles>  (27) 
c1ccc(CCN(Cc2c[nH]cn2)Cc2ccccc2-c2ccccc2)cc1

>  <score_type>  (27) 
oracle

>  <origin>  (27) 
adg

>  <m_score__min__energy>  (27) 
-8.3499999999999996

>  <m_primary>  (27) 
energy

$$$$
27:0
     RDKit          3D

 54 57  0  0  0  0  0  0  0  0999 V2000
   55.9978   29.1038   43.8619 H   0  0  0  0  0  0  0  0  0  0  0  0
   56.4480   30.1040   43.7790 C   0  0  0  0  0  0  0  0  0  0  0  0
   56.5440   30.8990   44.8750 N   0  0  0  0  0  0  0  0  0  0  0  0
   57.0920   32.1450   44.7980 C   0  0  0  0  0  0  0  0  0  0  0  0
   57.2010   32.9020   45.8510 N   0  0  0  0  0  0  0  0  0  0  0  0
   58.3050   32.9380   46.7730 C   0  0  0  0  0  0  0  0  0  0  0  0
   58.1260   32.7110   48.1480 C   0  0  0  0  0  0  0  0  0  0  0  0
   57.1252   32.4684   48.5346 H   0  0  0  0  0  0  0  0  0  0  0  0
   59.2130   32.7910   49.0330 C   0  0  0  0  0  0  0  0  0  0  0  0
   59.0100   32.5380   50.4770 C   0  0  0  0  0  0  0  0  0  0  0  0
   59.1730   33.5860   51.3930 C   0  0  0  0  0  0  0  0  0  0  0  0
   59.3955   34.6019   51.0346 H   0  0  0  0  0  0  0  0  0  0  0  0
   59.0520   33.3370   52.7650 C   0  0  0  0  0  0  0  0  0  0  0  0
   59.2730   34.4470   53.7500 C   0  0  0  0  0  0  0  0  0  0  0  0
   59.1941   34.0505   54.7730 H   0  0  0  0  0  0  0  0  0  0  0  0
   60.2743   34.8768   53.5996 H   0  0  0  0  0  0  0  0  0  0  0  0
   58.5126   35.2275   53.5996 H   0  0  0  0  0  0  0  0  0  0  0  0
   58.8020   32.0710   53.2020 N   0  0  0  0  0  0  0  0  0  0  0  0
   58.7330   31.8800   54.2280 H   0  0  0  0  0  0  0  0  0  0  0  0
   58.6270   31.0360   52.3370 C   0  0  0  0  0  0  0  0  0  0  0  0
   58.4153   30.0290   52.7257 H   0  0  0  0  0  0  0  0  0  0  0  0
   58.7150   31.2450   50.9480 C   0  0  0  0  0  0  0  0  0  0  0  0
   58.4790   30.2170   50.0190 O   0  0  0  0  0  0  0  0  0  0  0  0
   59.4500   29.2810   49.5510 C   0  0  0  0  0  0  0  0  0  0  0  0
   60.4513   29.6013   49.8748 H   0  0  0  0  0  0  0  0  0  0  0  0
   59.2255   28.2875   49.9664 H   0  0  0  0  0  0  0  0  0  0  0  0
   59.4100   29.2110   48.0500 C   0  0  0  0  0  0  0  0  0  0  0  0
   60.4090   29.8440   47.2920 C   0  0  0  0  0  0  0  0  0  0  0  0
   61.2011   30.4157   47.7977 H   0  0  0  0  0  0  0  0  0  0  0  0
   60.4000   29.7500   45.8980 C   0  0  0  0  0  0  0  0  0  0  0  0
   61.1750   30.2609   45.3079 H   0  0  0  0  0  0  0  0  0  0  0  0
   59.4080   29.0080   45.2530 C   0  0  0  0  0  0  0  0  0  0  0  0
   59.4048   28.9318   44.1556 H   0  0  0  0  0  0  0  0  0  0  0  0
   58.4190   28.3620   46.0010 C   0  0  0  0  0  0  0  0  0  0  0  0
   57.6395   27.7762   45.4918 H   0  0  0  0  0  0  0  0  0  0  0  0
   58.4200   28.4600   47.3960 C   0  0  0  0  0  0  0  0  0  0  0  0
   57.6433   27.9475   47.9825 H   0  0  0  0  0  0  0  0  0  0  0  0
   60.4880   33.0980   48.5340 C   0  0  0  0  0  0  0  0  0  0  0  0
   61.3470   33.1453   49.2195 H   0  0  0  0  0  0  0  0  0  0  0  0
   60.6730   33.3450   47.1650 C   0  0  0  0  0  0  0  0  0  0  0  0
   62.0250   33.7420   46.6470 C   0  0  0  0  0  0  0  0  0  0  0  0
   62.6985   33.9398   47.4939 H   0  0  0  0  0  0  0  0  0  0  0  0
   62.4366   32.9268   46.0338 H   0  0  0  0  0  0  0  0  0  0  0  0
   61.9305   34.6503   46.0338 H   0  0  0  0  0  0  0  0  0  0  0  0
   59.5720   33.2920   46.2960 C   0  0  0  0  0  0  0  0  0  0  0  0
   59.7063   33.5308   45.2307 H   0  0  0  0  0  0  0  0  0  0  0  0
   57.5670   32.5940   43.6060 N   0  0  0  0  0  0  0  0  0  0  0  0
   57.4890   31.8320   42.4820 C   0  0  0  0  0  0  0  0  0  0  0  0
   58.0120   32.3600   41.1840 C   0  0  0  0  0  0  0  0  0  0  0  0
   58.7736   33.1289   41.3811 H   0  0  0  0  0  0  0  0  0  0  0  0
   58.4616   31.5377   40.6081 H   0  0  0  0  0  0  0  0  0  0  0  0
   57.1854   32.8018   40.6081 H   0  0  0  0  0  0  0  0  0  0  0  0
   56.9200   30.5560   42.5500 C   0  0  0  0  0  0  0  0  0  0  0  0
   56.8472   29.9241   41.6526 H   0  0  0  0  0  0  0  0  0  0  0  0
  1  2  1  0
  2  3  1  0
  3  4  1  0
  4  5  2  0
  5  6  1  0
  6  7  2  0
  7  8  1  0
  7  9  1  0
  9 10  1  0
 10 11  2  0
 11 12  1  0
 11 13  1  0
 13 14  1  0
 14 15  1  0
 14 16  1  0
 14 17  1  0
 13 18  2  0
 18 19  1  0
 18 20  1  0
 20 21  1  0
 20 22  2  0
 22 23  1  0
 23 24  1  0
 24 25  1  0
 24 26  1  0
 24 27  1  0
 27 28  2  0
 28 29  1  0
 28 30  1  0
 30 31  1  0
 30 32  2  0
 32 33  1  0
 32 34  1  0
 34 35  1  0
 34 36  2  0
 36 37  1  0
  9 38  2  0
 38 39  1  0
 38 40  1  0
 40 41  1  0
 41 42  1  0
 41 43  1  0
 41 44  1  0
 40 45  2  0
 45 46  1  0
  4 47  1  0
 47 48  2  0
 48 49  1  0
 49 50  1  0
 49 51  1  0
 49 52  1  0
 48 53  1  0
 53 54  1  0
 53  2  2  0
 45  6  1  0
 22 10  1  0
 36 27  1  0
M  CHG  2   3  -1  18   1
M  END
>  <UniqueID>  (28) 
23

>  <SMILES>  (28) 
Cc1cc(/N=c2/nc(C)cc[n-]2)cc(-c2cc(C)[nH+]cc2OCc2ccccc2)c1

>  <Energy>  (28) 
65.99071395224173

>  <Genealogy>  (28) 
Cc1cc(N=c2nc(C)cc[n-]2)cc(-c2cc(C)[nH+]cc2OCc2ccccc2)c1 (protonated)
Cc1cc(/N=c2/nc(C)cc[n-]2)cc(-c2cc(C)[nH+]cc2OCc2ccccc2)c1 (cis-trans isomerization)
Cc1cc(/N=c2/nc(C)cc[n-]2)cc(-c2cc(C)[nH+]cc2OCc2ccccc2)c1 (3D coordinates assigned)
Cc1cc(/N=c2/nc(C)cc[n-]2)cc(-c2cc(C)[nH+]cc2OCc2ccccc2)c1 (optimized conformer: 65.99071395224173 kcal/mol)

>  <smiles>  (28) 
Cc1cc(N=c2nc(C)cc[nH]2)cc(-c2cc(C)ncc2OCc2ccccc2)c1

>  <score_type>  (28) 
oracle

>  <origin>  (28) 
adg

>  <m_score__min__energy>  (28) 
-9.3300000000000001

>  <m_primary>  (28) 
energy

$$$$
28:0
     RDKit          3D

 42 44  0  0  0  0  0  0  0  0999 V2000
   57.9894   34.5090   43.5526 H   0  0  0  0  0  0  0  0  0  0  0  0
   58.4540   34.2140   44.5050 C   0  0  0  0  0  0  0  0  0  0  0  0
   59.2920   35.2330   45.5510 S   0  0  0  0  0  0  0  0  0  0  0  0
   59.6250   34.0010   46.6560 C   0  0  0  0  0  0  0  0  0  0  0  0
   60.2480   34.1310   47.7920 N   0  0  0  0  0  0  0  0  0  0  0  0
   61.6100   33.7720   48.0630 C   0  0  0  0  0  0  0  0  0  0  0  0
   62.4450   33.4250   46.9930 C   0  0  0  0  0  0  0  0  0  0  0  0
   62.0432   33.4074   45.9692 H   0  0  0  0  0  0  0  0  0  0  0  0
   63.7860   33.1010   47.2190 C   0  0  0  0  0  0  0  0  0  0  0  0
   64.4312   32.8141   46.3756 H   0  0  0  0  0  0  0  0  0  0  0  0
   64.3080   33.1410   48.5140 C   0  0  0  0  0  0  0  0  0  0  0  0
   65.3606   32.8753   48.6911 H   0  0  0  0  0  0  0  0  0  0  0  0
   63.4920   33.5190   49.5860 C   0  0  0  0  0  0  0  0  0  0  0  0
   64.1680   33.6010   51.2450 S   0  0  0  0  0  0  0  0  0  0  0  0
   65.8070   32.9960   50.7360 C   0  0  0  0  0  0  0  0  0  0  0  0
   66.4094   32.7736   51.6291 H   0  0  0  0  0  0  0  0  0  0  0  0
   65.6902   32.0817   50.1356 H   0  0  0  0  0  0  0  0  0  0  0  0
   66.3122   33.7669   50.1356 H   0  0  0  0  0  0  0  0  0  0  0  0
   62.1500   33.8490   49.3600 C   0  0  0  0  0  0  0  0  0  0  0  0
   61.5157   34.1696   50.1995 H   0  0  0  0  0  0  0  0  0  0  0  0
   59.0910   32.8290   46.2540 N   0  0  0  0  0  0  0  0  0  0  0  0
   59.1740   31.9420   46.8000 H   0  0  0  0  0  0  0  0  0  0  0  0
   58.4500   32.9300   45.0540 C   0  0  0  0  0  0  0  0  0  0  0  0
   57.7660   31.7750   44.4260 C   0  0  0  0  0  0  0  0  0  0  0  0
   57.4190   31.8530   43.0710 C   0  0  0  0  0  0  0  0  0  0  0  0
   57.6458   32.7668   42.5021 H   0  0  0  0  0  0  0  0  0  0  0  0
   56.7900   30.7850   42.4380 C   0  0  0  0  0  0  0  0  0  0  0  0
   56.5224   30.8581   41.3736 H   0  0  0  0  0  0  0  0  0  0  0  0
   56.4990   29.6250   43.1490 C   0  0  0  0  0  0  0  0  0  0  0  0
   56.0116   28.7820   42.6374 H   0  0  0  0  0  0  0  0  0  0  0  0
   56.8210   29.5170   44.5160 C   0  0  0  0  0  0  0  0  0  0  0  0
   56.5220   28.3470   45.2320 O   0  0  0  0  0  0  0  0  0  0  0  0
   57.3720   27.2090   45.3340 C   0  0  0  0  0  0  0  0  0  0  0  0
   57.5464   26.9755   46.3947 H   0  0  0  0  0  0  0  0  0  0  0  0
   56.8935   26.3488   44.8430 H   0  0  0  0  0  0  0  0  0  0  0  0
   58.3327   27.4237   44.8430 H   0  0  0  0  0  0  0  0  0  0  0  0
   57.4550   30.6100   45.1680 C   0  0  0  0  0  0  0  0  0  0  0  0
   57.7750   30.6080   46.5410 O   0  0  0  0  0  0  0  0  0  0  0  0
   58.6870   29.7400   47.2040 C   0  0  0  0  0  0  0  0  0  0  0  0
   58.5720   29.8495   48.2925 H   0  0  0  0  0  0  0  0  0  0  0  0
   58.4778   28.6992   46.9160 H   0  0  0  0  0  0  0  0  0  0  0  0
   59.7162   30.0003   46.9160 H   0  0  0  0  0  0  0  0  0  0  0  0
  1  2  1  0
  2  3  1  0
  3  4  1  0
  4  5  2  0
  5  6  1  0
  6  7  2  0
  7  8  1  0
  7  9  1  0
  9 10  1  0
  9 11  2  0
 11 12  1  0
 11 13  1  0
 13 14  1  0
 14 15  1  0
 15 16  1  0
 15 17  1  0
 15 18  1  0
 13 19  2  0
 19 20  1  0
  4 21  1  0
 21 22  1  0
 21 23  1  0
 23 24  1  0
 24 25  2  0
 25 26  1  0
 25 27  1  0
 27 28  1  0
 27 29  2  0
 29 30  1  0
 29 31  1  0
 31 32  1  0
 32 33  1  0
 33 34  1  0
 33 35  1  0
 33 36  1  0
 31 37  2  0
 37 38  1  0
 38 39  1  0
 39 40  1  0
 39 41  1  0
 39 42  1  0
 23  2  2  0
 37 24  1  0
 19  6  1  0
M  END
>  <UniqueID>  (29) 
24

>  <SMILES>  (29) 
COc1cccc(-c2cs/c(=N\c3cccc(SC)c3)[nH]2)c1OC

>  <Energy>  (29) 
83.98768221913647

>  <Genealogy>  (29) 
COc1cccc(-c2cs/c(=N\c3cccc(SC)c3)[nH]2)c1OC (cis-trans isomerization)
COc1cccc(-c2cs/c(=N\c3cccc(SC)c3)[nH]2)c1OC (3D coordinates assigned)
COc1cccc(-c2cs/c(=N\c3cccc(SC)c3)[nH]2)c1OC (optimized conformer: 83.98768221913647 kcal/mol)

>  <smiles>  (29) 
COc1cccc(-c2csc(=Nc3cccc(SC)c3)[nH]2)c1OC

>  <score_type>  (29) 
oracle

>  <origin>  (29) 
adg

>  <m_score__min__energy>  (29) 
-8.8200000000000003

>  <m_primary>  (29) 
energy

$$$$
29:0
     RDKit          3D

 34 37  0  0  0  0  0  0  0  0999 V2000
   63.7720   33.3940   47.9090 C   0  0  0  0  0  0  0  0  0  0  0  0
   62.8590   33.8440   48.8660 C   0  0  0  0  0  0  0  0  0  0  0  0
   61.6380   33.1850   49.0330 C   0  0  0  0  0  0  0  0  0  0  0  0
   61.3200   32.0680   48.2350 C   0  0  0  0  0  0  0  0  0  0  0  0
   60.1080   31.3740   48.3660 O   0  0  0  0  0  0  0  0  0  0  0  0
   59.2080   31.1590   47.3130 C   0  0  0  0  0  0  0  0  0  0  0  0
   58.7450   32.2330   46.5220 C   0  0  0  0  0  0  0  0  0  0  0  0
   59.1900   33.5530   46.7260 C   0  0  0  0  0  0  0  0  0  0  0  0
   58.7000   34.5920   45.9280 C   0  0  0  0  0  0  0  0  0  0  0  0
   57.7730   34.3260   44.9180 C   0  0  0  0  0  0  0  0  0  0  0  0
   57.3340   33.0200   44.6940 C   0  0  0  0  0  0  0  0  0  0  0  0
   57.8170   31.9710   45.4860 C   0  0  0  0  0  0  0  0  0  0  0  0
   57.3970   30.7020   45.2500 N   0  0  0  0  0  0  0  0  0  0  0  0
   57.8430   29.6480   45.9800 C   0  0  0  0  0  0  0  0  0  0  0  0
   57.3820   28.3580   45.6930 C   0  0  0  0  0  0  0  0  0  0  0  0
   57.8340   27.2680   46.4430 C   0  0  0  0  0  0  0  0  0  0  0  0
   58.7450   27.4630   47.4840 C   0  0  0  0  0  0  0  0  0  0  0  0
   59.2110   28.7470   47.7810 C   0  0  0  0  0  0  0  0  0  0  0  0
   58.7670   29.8520   47.0320 C   0  0  0  0  0  0  0  0  0  0  0  0
   62.2460   31.6220   47.2830 C   0  0  0  0  0  0  0  0  0  0  0  0
   63.4670   32.2830   47.1200 C   0  0  0  0  0  0  0  0  0  0  0  0
   64.7317   33.9152   47.7770 H   0  0  0  0  0  0  0  0  0  0  0  0
   63.1015   34.7178   49.4886 H   0  0  0  0  0  0  0  0  0  0  0  0
   60.9228   33.5394   49.7899 H   0  0  0  0  0  0  0  0  0  0  0  0
   59.9253   33.7679   47.5154 H   0  0  0  0  0  0  0  0  0  0  0  0
   59.0461   35.6224   46.0966 H   0  0  0  0  0  0  0  0  0  0  0  0
   57.3876   35.1481   44.2971 H   0  0  0  0  0  0  0  0  0  0  0  0
   56.6075   32.8145   43.8940 H   0  0  0  0  0  0  0  0  0  0  0  0
   56.6626   28.2014   44.8757 H   0  0  0  0  0  0  0  0  0  0  0  0
   57.4717   26.2552   46.2130 H   0  0  0  0  0  0  0  0  0  0  0  0
   59.0970   26.6028   48.0723 H   0  0  0  0  0  0  0  0  0  0  0  0
   59.9271   28.8939   48.6029 H   0  0  0  0  0  0  0  0  0  0  0  0
   62.0109   30.7464   46.6600 H   0  0  0  0  0  0  0  0  0  0  0  0
   64.1883   31.9275   46.3694 H   0  0  0  0  0  0  0  0  0  0  0  0
  1  2  2  0
  2  3  1  0
  3  4  2  0
  4  5  1  0
  5  6  1  0
  6  7  1  0
  7  8  2  0
  8  9  1  0
  9 10  2  0
 10 11  1  0
 11 12  2  0
 12 13  1  0
 13 14  2  0
 14 15  1  0
 15 16  2  0
 16 17  1  0
 17 18  2  0
 18 19  1  0
  4 20  1  0
 20 21  2  0
 21  1  1  0
 19  6  2  0
 12  7  1  0
 19 14  1  0
  1 22  1  0
  2 23  1  0
  3 24  1  0
  8 25  1  0
  9 26  1  0
 10 27  1  0
 11 28  1  0
 15 29  1  0
 16 30  1  0
 17 31  1  0
 18 32  1  0
 20 33  1  0
 21 34  1  0
M  END
>  <UniqueID>  (30) 
25

>  <SMILES>  (30) 
c1ccc(Oc2c3ccccc3nc3ccccc23)cc1

>  <Energy>  (30) 
54.18657737300575

>  <Genealogy>  (30) 
c1ccc(Oc2c3ccccc3nc3ccccc23)cc1 (3D coordinates assigned)
c1ccc(Oc2c3ccccc3nc3ccccc23)cc1 (optimized conformer: 54.18657737300575 kcal/mol)

>  <smiles>  (30) 
c1ccc(Oc2c3ccccc3nc3ccccc23)cc1

>  <score_type>  (30) 
oracle

>  <origin>  (30) 
adg

>  <m_score__min__energy>  (30) 
-7.4500000000000002

>  <m_primary>  (30) 
energy

$$$$
30:0
     RDKit          3D

 48 51  0  0  0  0  0  0  0  0999 V2000
   57.4710   30.8070   52.8570 C   0  0  0  0  0  0  0  0  0  0  0  0
   57.3880   30.0460   51.6570 O   0  0  0  0  0  0  0  0  0  0  0  0
   58.1610   30.2870   50.5100 C   0  0  0  0  0  0  0  0  0  0  0  0
   58.9150   29.2750   49.8840 C   0  0  0  0  0  0  0  0  0  0  0  0
   59.6660   29.5610   48.7400 C   0  0  0  0  0  0  0  0  0  0  0  0
   59.6740   30.8570   48.2070 C   0  0  0  0  0  0  0  0  0  0  0  0
   60.5690   31.2230   46.7320 S   0  0  0  0  0  0  0  0  0  0  0  0
   60.9880   32.6660   46.7740 O   0  0  0  0  0  0  0  0  0  0  0  0
   61.7980   30.3620   46.6330 O   0  0  0  0  0  0  0  0  0  0  0  0
   59.5650   30.9570   45.3460 N   0  0  0  0  0  0  0  0  0  0  0  0
   58.4820   30.0240   45.3970 C   0  0  0  0  0  0  0  0  0  0  0  0
   58.5760   28.7290   45.8660 C   0  0  0  0  0  0  0  0  0  0  0  0
   59.6530   28.0110   46.3840 C   0  0  0  0  0  0  0  0  0  0  0  0
   59.4280   26.6750   46.7630 C   0  0  0  0  0  0  0  0  0  0  0  0
   58.1480   26.0930   46.6140 C   0  0  0  0  0  0  0  0  0  0  0  0
   57.0820   26.8400   46.0810 C   0  0  0  0  0  0  0  0  0  0  0  0
   57.3360   28.1600   45.7120 C   0  0  0  0  0  0  0  0  0  0  0  0
   56.5190   29.1250   45.1650 C   0  0  0  0  0  0  0  0  0  0  0  0
   55.1700   28.9670   44.8730 O   0  0  0  0  0  0  0  0  0  0  0  0
   57.2190   30.2670   44.9590 N   0  0  0  0  0  0  0  0  0  0  0  0
   56.6560   31.5500   44.5320 C   0  0  0  0  0  0  0  0  0  0  0  0
   57.4830   32.6810   45.0790 C   0  0  0  0  0  0  0  0  0  0  0  0
   57.4160   33.0120   46.4430 C   0  0  0  0  0  0  0  0  0  0  0  0
   58.2160   34.0350   46.9590 C   0  0  0  0  0  0  0  0  0  0  0  0
   59.0920   34.7300   46.1210 C   0  0  0  0  0  0  0  0  0  0  0  0
   59.1720   34.3990   44.7650 C   0  0  0  0  0  0  0  0  0  0  0  0
   58.3750   33.3750   44.2450 C   0  0  0  0  0  0  0  0  0  0  0  0
   58.9300   31.8650   48.8330 C   0  0  0  0  0  0  0  0  0  0  0  0
   58.1780   31.5810   49.9760 C   0  0  0  0  0  0  0  0  0  0  0  0
   57.4550   32.5680   50.5630 F   0  0  0  0  0  0  0  0  0  0  0  0
   57.3976   30.1339   53.7239 H   0  0  0  0  0  0  0  0  0  0  0  0
   58.4326   31.3402   52.8872 H   0  0  0  0  0  0  0  0  0  0  0  0
   56.6469   31.5350   52.8872 H   0  0  0  0  0  0  0  0  0  0  0  0
   58.9129   28.2555   50.2970 H   0  0  0  0  0  0  0  0  0  0  0  0
   60.2527   28.7659   48.2566 H   0  0  0  0  0  0  0  0  0  0  0  0
   59.5130   31.7300   44.6470 H   0  0  0  0  0  0  0  0  0  0  0  0
   60.6451   28.4735   46.4927 H   0  0  0  0  0  0  0  0  0  0  0  0
   60.2539   26.0788   47.1783 H   0  0  0  0  0  0  0  0  0  0  0  0
   57.9847   25.0483   46.9172 H   0  0  0  0  0  0  0  0  0  0  0  0
   56.0822   26.3977   45.9595 H   0  0  0  0  0  0  0  0  0  0  0  0
   56.6529   31.5990   43.4331 H   0  0  0  0  0  0  0  0  0  0  0  0
   55.6273   31.6377   44.9117 H   0  0  0  0  0  0  0  0  0  0  0  0
   56.7314   32.4639   47.1070 H   0  0  0  0  0  0  0  0  0  0  0  0
   58.1561   34.2936   48.0265 H   0  0  0  0  0  0  0  0  0  0  0  0
   59.7185   35.5373   46.5281 H   0  0  0  0  0  0  0  0  0  0  0  0
   59.8632   34.9452   44.1063 H   0  0  0  0  0  0  0  0  0  0  0  0
   58.4466   33.1119   43.1793 H   0  0  0  0  0  0  0  0  0  0  0  0
   58.9377   32.8856   48.4228 H   0  0  0  0  0  0  0  0  0  0  0  0
  1  2  1  0
  2  3  1  0
  3  4  2  0
  4  5  1  0
  5  6  2  0
  6  7  1  0
  7  8  2  0
  7  9  2  0
  7 10  1  0
 10 11  1  0
 11 12  2  0
 12 13  1  0
 13 14  2  0
 14 15  1  0
 15 16  2  0
 16 17  1  0
 17 18  2  0
 18 19  1  0
 18 20  1  0
 20 21  1  0
 21 22  1  0
 22 23  2  0
 23 24  1  0
 24 25  2  0
 25 26  1  0
 26 27  2  0
  6 28  1  0
 28 29  2  0
 29 30  1  0
 29  3  1  0
 20 11  1  0
 27 22  1  0
 17 12  1  0
  1 31  1  0
  1 32  1  0
  1 33  1  0
  4 34  1  0
  5 35  1  0
 10 36  1  0
 13 37  1  0
 14 38  1  0
 15 39  1  0
 16 40  1  0
 21 41  1  0
 21 42  1  0
 23 43  1  0
 24 44  1  0
 25 45  1  0
 26 46  1  0
 27 47  1  0
 28 48  1  0
M  CHG  1  19  -1
M  END
>  <UniqueID>  (31) 
26

>  <SMILES>  (31) 
COc1ccc(S(=O)(=O)Nc2c3ccccc3c([O-])n2Cc2ccccc2)cc1F

>  <Energy>  (31) 
91.43652626949131

>  <Genealogy>  (31) 
COc1ccc(S(=O)(=O)Nc2c3ccccc3c([O-])n2Cc2ccccc2)cc1F (protonated)
COc1ccc(S(=O)(=O)Nc2c3ccccc3c([O-])n2Cc2ccccc2)cc1F (3D coordinates assigned)
COc1ccc(S(=O)(=O)Nc2c3ccccc3c([O-])n2Cc2ccccc2)cc1F (optimized conformer: 91.43652626949131 kcal/mol)

>  <smiles>  (31) 
COc1ccc(S(=O)(=O)Nc2c3ccccc3c(O)n2Cc2ccccc2)cc1F

>  <score_type>  (31) 
oracle

>  <origin>  (31) 
adg

>  <m_score__min__energy>  (31) 
-11.539999999999999

>  <m_primary>  (31) 
energy

$$$$
31:0
     RDKit          3D

 34 36  0  0  1  0  0  0  0  0999 V2000
   59.7480   27.7050   45.8460 C   0  0  0  0  0  0  0  0  0  0  0  0
   58.6210   28.6280   45.3850 C   0  0  0  0  0  0  0  0  0  0  0  0
   58.8270   29.8600   45.0440 N   0  0  0  0  0  0  0  0  0  0  0  0
   57.7740   30.6040   44.6490 C   0  0  0  0  0  0  0  0  0  0  0  0
   57.6820   31.8500   44.2560 N   0  0  0  0  0  0  0  0  0  0  0  0
   58.1380   32.8330   45.1740 C   0  0  0  0  0  0  0  0  0  0  0  0
   58.0690   32.6380   46.5500 C   0  0  0  0  0  0  0  0  0  0  0  0
   58.5390   33.6560   47.3470 C   0  0  0  0  0  0  0  0  0  0  0  0
   59.0590   34.8300   46.8780 C   0  0  0  0  0  0  0  0  0  0  0  0
   59.1200   35.0070   45.5140 C   0  0  0  0  0  0  0  0  0  0  0  0
   59.6160   36.1320   44.9340 F   0  0  0  0  0  0  0  0  0  0  0  0
   58.6610   34.0150   44.6670 C   0  0  0  0  0  0  0  0  0  0  0  0
   56.3220   29.4680   44.7580 S   0  0  0  0  0  0  0  0  0  0  0  0
   57.3390   28.1190   45.3330 C   0  0  0  0  0  0  0  0  0  0  0  0
   56.8200   26.8140   45.6450 C   0  0  0  0  0  0  0  0  0  0  0  0
   57.5280   25.6760   45.6900 N   0  0  0  0  0  0  0  0  0  0  0  0
   56.7250   24.6420   46.0150 C   0  0  0  0  0  0  0  0  0  0  0  0
   57.1160   23.2100   46.1690 C   0  0  0  0  0  0  0  0  0  0  0  0
   58.4980   22.9750   45.8410 N   0  0  0  0  0  0  0  0  0  0  0  0
   55.5020   25.1860   46.1680 N   0  0  0  0  0  0  0  0  0  0  0  0
   55.5660   26.4900   45.9450 N   0  0  0  0  0  0  0  0  0  0  0  0
   59.7764   27.6818   46.9454 H   0  0  0  0  0  0  0  0  0  0  0  0
   59.5704   26.6895   45.4623 H   0  0  0  0  0  0  0  0  0  0  0  0
   60.7086   28.0792   45.4623 H   0  0  0  0  0  0  0  0  0  0  0  0
   59.7940   30.3260   45.0600 H   0  0  0  0  0  0  0  0  0  0  0  0
   57.6578   31.7130   46.9804 H   0  0  0  0  0  0  0  0  0  0  0  0
   58.4932   33.5156   48.4370 H   0  0  0  0  0  0  0  0  0  0  0  0
   59.4171   35.6082   47.5681 H   0  0  0  0  0  0  0  0  0  0  0  0
   58.7108   34.1642   43.5783 H   0  0  0  0  0  0  0  0  0  0  0  0
   56.9456   22.9086   47.2131 H   0  0  0  0  0  0  0  0  0  0  0  0
   56.5031   22.6205   45.4713 H   0  0  0  0  0  0  0  0  0  0  0  0
   58.9840   23.8710   45.5560 H   0  0  0  0  0  0  0  0  0  0  0  0
   58.6180   22.2870   45.0850 H   0  0  0  0  0  0  0  0  0  0  0  0
   54.7290   27.1010   46.0110 H   0  0  0  0  0  0  0  0  0  0  0  0
  1  2  1  0
  2  3  1  0
  3  4  1  0
  4  5  2  0
  5  6  1  0
  6  7  2  0
  7  8  1  0
  8  9  2  0
  9 10  1  0
 10 11  1  0
 10 12  2  0
  4 13  1  0
 13 14  1  0
 14 15  1  0
 15 16  2  0
 16 17  1  0
 17 18  1  0
 18 19  1  0
 17 20  2  0
 20 21  1  0
 14  2  2  0
 21 15  1  0
 12  6  1  0
  1 22  1  0
  1 23  1  0
  1 24  1  0
  3 25  1  0
  7 26  1  0
  8 27  1  0
  9 28  1  0
 12 29  1  0
 18 30  1  0
 18 31  1  0
 19 32  1  0
 19 33  1  0
 21 34  1  0
M  END
>  <smiles>  (32) 
Cc1[nH]c(=Nc2cccc(F)c2)sc1-c1nc(CN)n[nH]1

>  <score_type>  (32) 
oracle

>  <origin>  (32) 
adg

>  <m_score__min__energy>  (32) 
-7.6699999999999999

>  <m_primary>  (32) 
energy

$$$$
32:0
     RDKit          3D

 42 44  0  0  0  0  0  0  0  0999 V2000
   59.2700   34.6240   48.9480 O   0  0  0  0  0  0  0  0  0  0  0  0
   60.1520   34.5920   48.1000 C   0  0  0  0  0  0  0  0  0  0  0  0
   59.8060   35.0000   46.6920 C   0  0  0  0  0  0  0  0  0  0  0  0
   59.0850   33.8770   46.0000 C   0  0  0  0  0  0  0  0  0  0  0  0
   58.8960   33.9050   44.6070 C   0  0  0  0  0  0  0  0  0  0  0  0
   58.1740   32.8890   43.9730 C   0  0  0  0  0  0  0  0  0  0  0  0
   57.6280   31.8430   44.7230 C   0  0  0  0  0  0  0  0  0  0  0  0
   56.6320   30.4660   43.8540 Br  0  0  0  0  0  0  0  0  0  0  0  0
   57.8040   31.8130   46.1110 C   0  0  0  0  0  0  0  0  0  0  0  0
   58.5250   32.8270   46.7490 C   0  0  0  0  0  0  0  0  0  0  0  0
   61.4990   34.1580   48.4430 N   0  0  0  0  0  0  0  0  0  0  0  0
   62.2410   33.6300   47.2910 C   0  0  0  0  0  0  0  0  0  0  0  0
   61.6800   32.3080   46.7540 C   0  0  0  0  0  0  0  0  0  0  0  0
   61.1450   31.3910   47.7840 N   0  0  0  0  0  0  0  0  0  0  0  0
   60.6660   30.0710   47.3700 C   0  0  0  0  0  0  0  0  0  0  0  0
   60.1920   29.1290   48.3190 C   0  0  0  0  0  0  0  0  0  0  0  0
   59.7340   27.8690   47.9180 C   0  0  0  0  0  0  0  0  0  0  0  0
   59.7340   27.5190   46.5690 C   0  0  0  0  0  0  0  0  0  0  0  0
   59.2880   26.2960   46.1860 F   0  0  0  0  0  0  0  0  0  0  0  0
   60.1860   28.4280   45.6150 C   0  0  0  0  0  0  0  0  0  0  0  0
   60.6460   29.6890   46.0060 C   0  0  0  0  0  0  0  0  0  0  0  0
   60.9370   31.8180   49.1850 C   0  0  0  0  0  0  0  0  0  0  0  0
   61.5250   33.1900   49.5490 C   0  0  0  0  0  0  0  0  0  0  0  0
   59.1585   35.8888   46.7179 H   0  0  0  0  0  0  0  0  0  0  0  0
   60.7306   35.2314   46.1429 H   0  0  0  0  0  0  0  0  0  0  0  0
   59.3178   34.7295   44.0135 H   0  0  0  0  0  0  0  0  0  0  0  0
   58.0354   32.9128   42.8820 H   0  0  0  0  0  0  0  0  0  0  0  0
   57.3743   30.9902   46.7012 H   0  0  0  0  0  0  0  0  0  0  0  0
   58.6546   32.8032   47.8411 H   0  0  0  0  0  0  0  0  0  0  0  0
   62.0360   34.9940   48.7740 H   0  0  0  0  0  0  0  0  0  0  0  0
   62.2066   34.3761   46.4834 H   0  0  0  0  0  0  0  0  0  0  0  0
   63.2675   33.4303   47.6321 H   0  0  0  0  0  0  0  0  0  0  0  0
   60.8672   32.5428   46.0510 H   0  0  0  0  0  0  0  0  0  0  0  0
   62.5255   31.7834   46.2850 H   0  0  0  0  0  0  0  0  0  0  0  0
   60.1844   29.3932   49.3868 H   0  0  0  0  0  0  0  0  0  0  0  0
   59.3727   27.1523   48.6702 H   0  0  0  0  0  0  0  0  0  0  0  0
   60.1810   28.1526   44.5501 H   0  0  0  0  0  0  0  0  0  0  0  0
   60.9985   30.3968   45.2413 H   0  0  0  0  0  0  0  0  0  0  0  0
   59.8536   31.8524   49.3722 H   0  0  0  0  0  0  0  0  0  0  0  0
   61.4697   31.0845   49.8081 H   0  0  0  0  0  0  0  0  0  0  0  0
   60.9453   33.6047   50.3868 H   0  0  0  0  0  0  0  0  0  0  0  0
   62.5816   33.0276   49.8084 H   0  0  0  0  0  0  0  0  0  0  0  0
  1  2  2  0
  2  3  1  0
  3  4  1  0
  4  5  2  0
  5  6  1  0
  6  7  2  0
  7  8  1  0
  7  9  1  0
  9 10  2  0
  2 11  1  0
 11 12  1  0
 12 13  1  0
 13 14  1  0
 14 15  1  0
 15 16  2  0
 16 17  1  0
 17 18  2  0
 18 19  1  0
 18 20  1  0
 20 21  2  0
 14 22  1  0
 22 23  1  0
 10  4  1  0
 23 11  1  0
 21 15  1  0
  3 24  1  0
  3 25  1  0
  5 26  1  0
  6 27  1  0
  9 28  1  0
 10 29  1  0
 11 30  1  0
 12 31  1  0
 12 32  1  0
 13 33  1  0
 13 34  1  0
 16 35  1  0
 17 36  1  0
 20 37  1  0
 21 38  1  0
 22 39  1  0
 22 40  1  0
 23 41  1  0
 23 42  1  0
M  CHG  1  11   1
M  END
>  <UniqueID>  (33) 
27

>  <SMILES>  (33) 
O=C(Cc1ccc(Br)cc1)[NH+]1CCN(c2ccc(F)cc2)CC1

>  <Energy>  (33) 
54.080711477205035

>  <Genealogy>  (33) 
O=C(Cc1ccc(Br)cc1)[NH+]1CCN(c2ccc(F)cc2)CC1 (protonated)
O=C(Cc1ccc(Br)cc1)[NH+]1CCN(c2ccc(F)cc2)CC1 (3D coordinates assigned)
O=C(Cc1ccc(Br)cc1)[NH+]1CCN(c2ccc(F)cc2)CC1 (nonaromatic ring conformer: 54.080711477205035 kcal/mol)

>  <smiles>  (33) 
O=C(Cc1ccc(Br)cc1)N1CCN(c2ccc(F)cc2)CC1

>  <score_type>  (33) 
oracle

>  <origin>  (33) 
adg

>  <m_score__min__energy>  (33) 
-6.6799999999999997

>  <m_primary>  (33) 
energy

$$$$
33:0
     RDKit          3D

 58 61  0  0  0  0  0  0  0  0999 V2000
   63.6830   33.0100   47.4010 C   0  0  0  0  0  0  0  0  0  0  0  0
   62.8850   34.2090   47.9020 C   0  0  0  0  0  0  0  0  0  0  0  0
   61.6390   33.7630   48.5600 N   0  0  0  0  0  0  0  0  0  0  0  0
   61.5970   33.7490   49.9340 C   0  0  0  0  0  0  0  0  0  0  0  0
   62.6230   34.0700   50.5980 O   0  0  0  0  0  0  0  0  0  0  0  0
   60.4580   33.3870   50.5950 N   0  0  0  0  0  0  0  0  0  0  0  0
   60.4610   33.3150   52.0580 C   0  0  0  0  0  0  0  0  0  0  0  0
   59.3460   32.9980   49.9030 C   0  0  0  0  0  0  0  0  0  0  0  0
   58.3130   32.6180   50.5220 O   0  0  0  0  0  0  0  0  0  0  0  0
   59.3470   33.0050   48.5050 C   0  0  0  0  0  0  0  0  0  0  0  0
   58.2060   32.6050   47.7770 C   0  0  0  0  0  0  0  0  0  0  0  0
   58.2370   32.5430   46.3790 C   0  0  0  0  0  0  0  0  0  0  0  0
   57.1300   32.0540   45.6140 N   0  0  0  0  0  0  0  0  0  0  0  0
   57.2070   30.7590   44.4660 S   0  0  0  0  0  0  0  0  0  0  0  0
   55.8300   30.5420   43.8870 O   0  0  0  0  0  0  0  0  0  0  0  0
   58.1470   31.1110   43.3450 O   0  0  0  0  0  0  0  0  0  0  0  0
   57.6750   29.2900   45.3240 C   0  0  0  0  0  0  0  0  0  0  0  0
   56.6850   28.3180   45.5310 C   0  0  0  0  0  0  0  0  0  0  0  0
   56.9820   27.1210   46.1930 C   0  0  0  0  0  0  0  0  0  0  0  0
   55.9370   26.0920   46.3650 C   0  0  0  0  0  0  0  0  0  0  0  0
   54.7680   26.3170   45.9300 O   0  0  0  0  0  0  0  0  0  0  0  0
   56.2090   24.8270   46.9800 N   0  0  0  0  0  0  0  0  0  0  0  0
   57.2640   23.9020   46.5810 C   0  0  0  0  0  0  0  0  0  0  0  0
   56.9990   23.3840   45.2060 C   0  0  0  0  0  0  0  0  0  0  0  0
   55.9080   23.7340   44.4120 C   0  0  0  0  0  0  0  0  0  0  0  0
   55.8790   23.0460   43.1960 C   0  0  0  0  0  0  0  0  0  0  0  0
   56.9300   22.1460   43.0390 C   0  0  0  0  0  0  0  0  0  0  0  0
   57.9050   22.2100   44.4100 S   0  0  0  0  0  0  0  0  0  0  0  0
   58.2940   26.8830   46.6190 C   0  0  0  0  0  0  0  0  0  0  0  0
   59.2850   27.8460   46.4270 C   0  0  0  0  0  0  0  0  0  0  0  0
   58.9890   29.0640   45.7830 C   0  0  0  0  0  0  0  0  0  0  0  0
   59.9760   30.0450   45.5870 O   0  0  0  0  0  0  0  0  0  0  0  0
   61.1200   30.2140   46.4180 C   0  0  0  0  0  0  0  0  0  0  0  0
   59.3870   32.9410   45.7120 C   0  0  0  0  0  0  0  0  0  0  0  0
   60.5060   33.3840   46.4180 C   0  0  0  0  0  0  0  0  0  0  0  0
   60.5210   33.4000   47.8310 C   0  0  0  0  0  0  0  0  0  0  0  0
   64.0637   32.4381   48.2601 H   0  0  0  0  0  0  0  0  0  0  0  0
   63.0328   32.3659   46.7908 H   0  0  0  0  0  0  0  0  0  0  0  0
   64.5282   33.3611   46.7908 H   0  0  0  0  0  0  0  0  0  0  0  0
   63.4938   34.7729   48.6240 H   0  0  0  0  0  0  0  0  0  0  0  0
   62.6257   34.8473   47.0445 H   0  0  0  0  0  0  0  0  0  0  0  0
   60.4187   34.3319   52.4752 H   0  0  0  0  0  0  0  0  0  0  0  0
   59.5859   32.7421   52.3987 H   0  0  0  0  0  0  0  0  0  0  0  0
   61.3807   32.8169   52.3987 H   0  0  0  0  0  0  0  0  0  0  0  0
   57.2832   32.3393   48.3136 H   0  0  0  0  0  0  0  0  0  0  0  0
   55.6623   28.4988   45.1685 H   0  0  0  0  0  0  0  0  0  0  0  0
   58.2310   24.4262   46.5922 H   0  0  0  0  0  0  0  0  0  0  0  0
   57.2879   23.0576   47.2855 H   0  0  0  0  0  0  0  0  0  0  0  0
   55.1503   24.4733   44.7109 H   0  0  0  0  0  0  0  0  0  0  0  0
   55.0999   23.2007   42.4350 H   0  0  0  0  0  0  0  0  0  0  0  0
   57.0957   21.5002   42.1641 H   0  0  0  0  0  0  0  0  0  0  0  0
   58.5453   25.9304   47.1084 H   0  0  0  0  0  0  0  0  0  0  0  0
   60.3080   27.6526   46.7820 H   0  0  0  0  0  0  0  0  0  0  0  0
   60.8159   30.1691   47.4742 H   0  0  0  0  0  0  0  0  0  0  0  0
   61.8452   29.4132   46.2109 H   0  0  0  0  0  0  0  0  0  0  0  0
   61.5827   31.1902   46.2109 H   0  0  0  0  0  0  0  0  0  0  0  0
   59.4168   32.9068   44.6129 H   0  0  0  0  0  0  0  0  0  0  0  0
   61.3926   33.7270   45.8646 H   0  0  0  0  0  0  0  0  0  0  0  0
  1  2  1  0
  2  3  1  0
  3  4  1  0
  4  5  2  0
  4  6  1  0
  6  7  1  0
  6  8  1  0
  8  9  2  0
  8 10  1  0
 10 11  2  0
 11 12  1  0
 12 13  1  0
 13 14  1  0
 14 15  2  0
 14 16  2  0
 14 17  1  0
 17 18  2  0
 18 19  1  0
 19 20  1  0
 20 21  2  0
 20 22  1  0
 22 23  1  0
 23 24  1  0
 24 25  2  0
 25 26  1  0
 26 27  2  0
 27 28  1  0
 19 29  2  0
 29 30  1  0
 30 31  2  0
 31 32  1  0
 32 33  1  0
 12 34  2  0
 34 35  1  0
 35 36  2  0
 36  3  1  0
 36 10  1  0
 31 17  1  0
 28 24  1  0
  1 37  1  0
  1 38  1  0
  1 39  1  0
  2 40  1  0
  2 41  1  0
  7 42  1  0
  7 43  1  0
  7 44  1  0
 11 45  1  0
 18 46  1  0
 23 47  1  0
 23 48  1  0
 25 49  1  0
 26 50  1  0
 27 51  1  0
 29 52  1  0
 30 53  1  0
 33 54  1  0
 33 55  1  0
 33 56  1  0
 34 57  1  0
 35 58  1  0
M  CHG  2  13  -1  22  -1
M  END
>  <UniqueID>  (34) 
28

>  <SMILES>  (34) 
CCn1c(=O)n(C)c(=O)c2cc([N-]S(=O)(=O)c3cc(C(=O)[N-]Cc4cccs4)ccc3OC)ccc21

>  <Energy>  (34) 
107.52543542802668

>  <Genealogy>  (34) 
CCn1c(=O)n(C)c(=O)c2cc([N-]S(=O)(=O)c3cc(C(=O)[N-]Cc4cccs4)ccc3OC)ccc21 (protonated)
CCn1c(=O)n(C)c(=O)c2cc([N-]S(=O)(=O)c3cc(C(=O)[N-]Cc4cccs4)ccc3OC)ccc21 (3D coordinates assigned)
CCn1c(=O)n(C)c(=O)c2cc([N-]S(=O)(=O)c3cc(C(=O)[N-]Cc4cccs4)ccc3OC)ccc21 (optimized conformer: 107.52543542802668 kcal/mol)

>  <smiles>  (34) 
CCn1c(=O)n(C)c(=O)c2cc(NS(=O)(=O)c3cc(C(=O)NCc4cccs4)ccc3OC)ccc21

>  <score_type>  (34) 
oracle

>  <origin>  (34) 
adg

>  <m_score__min__energy>  (34) 
-12.44

>  <m_primary>  (34) 
energy

$$$$
34:0
     RDKit          3D

 48 51  0  0  0  0  0  0  0  0999 V2000
   58.9470   32.7370   49.3470 C   0  0  0  0  0  0  0  0  0  0  0  0
   59.3860   33.6780   48.2630 C   0  0  0  0  0  0  0  0  0  0  0  0
   60.1890   34.6040   48.5590 O   0  0  0  0  0  0  0  0  0  0  0  0
   58.9060   33.5400   46.8600 C   0  0  0  0  0  0  0  0  0  0  0  0
   59.6120   34.1570   45.8110 C   0  0  0  0  0  0  0  0  0  0  0  0
   59.1960   33.9960   44.4880 C   0  0  0  0  0  0  0  0  0  0  0  0
   58.0860   33.2060   44.1910 C   0  0  0  0  0  0  0  0  0  0  0  0
   57.3710   32.5780   45.2150 C   0  0  0  0  0  0  0  0  0  0  0  0
   56.2670   31.7340   44.8630 N   0  0  0  0  0  0  0  0  0  0  0  0
   56.4030   30.1540   44.1550 S   0  0  0  0  0  0  0  0  0  0  0  0
   56.4480   30.2880   42.6590 O   0  0  0  0  0  0  0  0  0  0  0  0
   55.2020   29.3390   44.5450 O   0  0  0  0  0  0  0  0  0  0  0  0
   57.8840   29.3700   44.7010 C   0  0  0  0  0  0  0  0  0  0  0  0
   58.0370   27.9820   44.5780 C   0  0  0  0  0  0  0  0  0  0  0  0
   59.2010   27.3600   45.0410 C   0  0  0  0  0  0  0  0  0  0  0  0
   60.2080   28.1180   45.6440 C   0  0  0  0  0  0  0  0  0  0  0  0
   60.0500   29.5020   45.8020 C   0  0  0  0  0  0  0  0  0  0  0  0
   61.1130   30.2650   46.3960 N   0  0  0  0  0  0  0  0  0  0  0  0
   61.2960   30.5290   47.6650 C   0  0  0  0  0  0  0  0  0  0  0  0
   60.7310   29.7310   48.6810 C   0  0  0  0  0  0  0  0  0  0  0  0
   60.9560   30.0420   50.0210 C   0  0  0  0  0  0  0  0  0  0  0  0
   61.7290   31.1040   50.3620 N   0  0  0  0  0  0  0  0  0  0  0  0
   62.3180   31.8890   49.4160 C   0  0  0  0  0  0  0  0  0  0  0  0
   63.1300   32.9670   49.8030 C   0  0  0  0  0  0  0  0  0  0  0  0
   63.7410   33.7710   48.8390 C   0  0  0  0  0  0  0  0  0  0  0  0
   63.5490   33.5080   47.4820 C   0  0  0  0  0  0  0  0  0  0  0  0
   62.7440   32.4400   47.0790 C   0  0  0  0  0  0  0  0  0  0  0  0
   62.1180   31.6160   48.0380 C   0  0  0  0  0  0  0  0  0  0  0  0
   58.9040   30.1290   45.2900 C   0  0  0  0  0  0  0  0  0  0  0  0
   57.7680   32.7700   46.5510 C   0  0  0  0  0  0  0  0  0  0  0  0
   59.1564   33.1858   50.3292 H   0  0  0  0  0  0  0  0  0  0  0  0
   57.8675   32.5475   49.2531 H   0  0  0  0  0  0  0  0  0  0  0  0
   59.4954   31.7881   49.2531 H   0  0  0  0  0  0  0  0  0  0  0  0
   60.4974   34.7702   46.0347 H   0  0  0  0  0  0  0  0  0  0  0  0
   59.7463   34.4945   43.6764 H   0  0  0  0  0  0  0  0  0  0  0  0
   57.7712   33.0762   43.1450 H   0  0  0  0  0  0  0  0  0  0  0  0
   57.2399   27.3808   44.1164 H   0  0  0  0  0  0  0  0  0  0  0  0
   59.3239   26.2725   44.9303 H   0  0  0  0  0  0  0  0  0  0  0  0
   61.1275   27.6274   45.9958 H   0  0  0  0  0  0  0  0  0  0  0  0
   60.1116   28.8615   48.4157 H   0  0  0  0  0  0  0  0  0  0  0  0
   60.5033   29.4216   50.8085 H   0  0  0  0  0  0  0  0  0  0  0  0
   61.8770   31.3030   51.3780 H   0  0  0  0  0  0  0  0  0  0  0  0
   63.2855   33.1792   50.8711 H   0  0  0  0  0  0  0  0  0  0  0  0
   64.3755   34.6141   49.1499 H   0  0  0  0  0  0  0  0  0  0  0  0
   64.0335   34.1443   46.7267 H   0  0  0  0  0  0  0  0  0  0  0  0
   62.5972   32.2401   46.0073 H   0  0  0  0  0  0  0  0  0  0  0  0
   58.8057   31.2229   45.3513 H   0  0  0  0  0  0  0  0  0  0  0  0
   57.1831   32.3137   47.3632 H   0  0  0  0  0  0  0  0  0  0  0  0
  1  2  1  0
  2  3  2  0
  2  4  1  0
  4  5  2  0
  5  6  1  0
  6  7  2  0
  7  8  1  0
  8  9  1  0
  9 10  1  0
 10 11  2  0
 10 12  2  0
 10 13  1  0
 13 14  2  0
 14 15  1  0
 15 16  2  0
 16 17  1  0
 17 18  1  0
 18 19  2  3
 19 20  1  0
 20 21  2  0
 21 22  1  0
 22 23  1  0
 23 24  2  0
 24 25  1  0
 25 26  2  0
 26 27  1  0
 27 28  2  0
 17 29  2  0
  8 30  2  0
 30  4  1  0
 29 13  1  0
 28 19  1  0
 28 23  1  0
  1 31  1  0
  1 32  1  0
  1 33  1  0
  5 34  1  0
  6 35  1  0
  7 36  1  0
 14 37  1  0
 15 38  1  0
 16 39  1  0
 20 40  1  0
 21 41  1  0
 22 42  1  0
 24 43  1  0
 25 44  1  0
 26 45  1  0
 27 46  1  0
 29 47  1  0
 30 48  1  0
M  CHG  1   9  -1
M  END
>  <UniqueID>  (35) 
29

>  <SMILES>  (35) 
CC(=O)c1cccc([N-]S(=O)(=O)c2cccc(N=c3cc[nH]c4ccccc34)c2)c1

>  <Energy>  (35) 
66.91595149090996

>  <Genealogy>  (35) 
CC(=O)c1cccc([N-]S(=O)(=O)c2cccc(N=c3cc[nH]c4ccccc34)c2)c1 (protonated)
CC(=O)c1cccc([N-]S(=O)(=O)c2cccc(N=c3cc[nH]c4ccccc34)c2)c1 (3D coordinates assigned)
CC(=O)c1cccc([N-]S(=O)(=O)c2cccc(N=c3cc[nH]c4ccccc34)c2)c1 (optimized conformer: 66.91595149090996 kcal/mol)

>  <smiles>  (35) 
CC(=O)c1cccc(NS(=O)(=O)c2cccc(N=c3cc[nH]c4ccccc34)c2)c1

>  <score_type>  (35) 
oracle

>  <origin>  (35) 
adg

>  <m_score__min__energy>  (35) 
-11.43

>  <m_primary>  (35) 
energy

$$$$
35:0
     RDKit          3D

 45 48  0  0  1  0  0  0  0  0999 V2000
   61.9670   34.2190   49.8180 C   0  0  0  0  0  0  0  0  0  0  0  0
   61.6630   34.4220   48.4450 O   0  0  0  0  0  0  0  0  0  0  0  0
   60.9060   33.4980   47.7590 C   0  0  0  0  0  0  0  0  0  0  0  0
   59.7000   33.8130   47.1940 C   0  0  0  0  0  0  0  0  0  0  0  0
   58.9120   32.9120   46.4960 C   0  0  0  0  0  0  0  0  0  0  0  0
   59.3820   31.6280   46.3730 C   0  0  0  0  0  0  0  0  0  0  0  0
   60.5940   31.2710   46.9270 C   0  0  0  0  0  0  0  0  0  0  0  0
   61.3640   32.2140   47.6270 C   0  0  0  0  0  0  0  0  0  0  0  0
   62.5870   31.8720   48.1920 O   0  0  0  0  0  0  0  0  0  0  0  0
   63.7670   32.4120   47.6590 C   0  0  0  0  0  0  0  0  0  0  0  0
   58.5800   30.6750   45.6550 C   0  0  0  0  0  0  0  0  0  0  0  0
   59.0090   29.3780   45.5020 C   0  0  0  0  0  0  0  0  0  0  0  0
   58.2250   28.4670   44.8040 C   0  0  0  0  0  0  0  0  0  0  0  0
   58.6240   27.2370   44.6550 N   0  0  0  0  0  0  0  0  0  0  0  0
   57.6970   26.1560   44.8460 C   0  0  0  0  0  0  0  0  0  0  0  0
   57.0160   26.1550   46.0500 C   0  0  0  0  0  0  0  0  0  0  0  0
   56.1140   25.1370   46.2800 C   0  0  0  0  0  0  0  0  0  0  0  0
   55.8830   24.1460   45.3580 C   0  0  0  0  0  0  0  0  0  0  0  0
   56.5830   24.1820   44.1690 C   0  0  0  0  0  0  0  0  0  0  0  0
   56.2650   22.9040   43.0160 Cl  0  0  0  0  0  0  0  0  0  0  0  0
   57.4960   25.1810   43.8920 C   0  0  0  0  0  0  0  0  0  0  0  0
   57.0770   28.8890   44.3050 N   0  0  0  0  0  0  0  0  0  0  0  0
   56.6730   30.1580   44.4620 C   0  0  0  0  0  0  0  0  0  0  0  0
   55.5520   30.4780   43.9470 O   0  0  0  0  0  0  0  0  0  0  0  0
   57.4130   31.0840   45.1410 N   0  0  0  0  0  0  0  0  0  0  0  0
   56.8560   32.3950   45.2290 C   0  0  0  0  0  0  0  0  0  0  0  0
   57.6430   33.4170   45.9530 C   0  0  0  0  0  0  0  0  0  0  0  0
   61.2120   34.7232   50.4391 H   0  0  0  0  0  0  0  0  0  0  0  0
   61.9634   33.1414   50.0389 H   0  0  0  0  0  0  0  0  0  0  0  0
   62.9609   34.6353   50.0389 H   0  0  0  0  0  0  0  0  0  0  0  0
   59.3337   34.8448   47.3005 H   0  0  0  0  0  0  0  0  0  0  0  0
   60.9602   30.2393   46.8195 H   0  0  0  0  0  0  0  0  0  0  0  0
   64.4337   32.7171   48.4790 H   0  0  0  0  0  0  0  0  0  0  0  0
   64.2700   31.6545   47.0400 H   0  0  0  0  0  0  0  0  0  0  0  0
   63.5225   33.2878   47.0400 H   0  0  0  0  0  0  0  0  0  0  0  0
   59.9711   29.0617   45.9313 H   0  0  0  0  0  0  0  0  0  0  0  0
   57.1882   26.9409   46.8001 H   0  0  0  0  0  0  0  0  0  0  0  0
   55.5626   25.1185   47.2316 H   0  0  0  0  0  0  0  0  0  0  0  0
   55.1585   23.3438   45.5618 H   0  0  0  0  0  0  0  0  0  0  0  0
   58.0459   25.1981   42.9394 H   0  0  0  0  0  0  0  0  0  0  0  0
   56.4640   28.2180   43.7720 H   0  0  0  0  0  0  0  0  0  0  0  0
   56.7048   32.7598   44.2023 H   0  0  0  0  0  0  0  0  0  0  0  0
   55.9369   32.2733   45.8210 H   0  0  0  0  0  0  0  0  0  0  0  0
   57.8659   34.2400   45.2580 H   0  0  0  0  0  0  0  0  0  0  0  0
   57.0347   33.7432   46.8095 H   0  0  0  0  0  0  0  0  0  0  0  0
  1  2  1  0
  2  3  1  0
  3  4  2  0
  4  5  1  0
  5  6  2  0
  6  7  1  0
  7  8  2  0
  8  9  1  0
  9 10  1  0
  6 11  1  0
 11 12  2  0
 12 13  1  0
 13 14  2  0
 14 15  1  0
 15 16  2  0
 16 17  1  0
 17 18  2  0
 18 19  1  0
 19 20  1  0
 19 21  2  0
 13 22  1  0
 22 23  1  0
 23 24  2  0
 23 25  1  0
 25 26  1  0
 26 27  1  0
  8  3  1  0
 25 11  1  0
 27  5  1  0
 21 15  1  0
  1 28  1  0
  1 29  1  0
  1 30  1  0
  4 31  1  0
  7 32  1  0
 10 33  1  0
 10 34  1  0
 10 35  1  0
 12 36  1  0
 16 37  1  0
 17 38  1  0
 18 39  1  0
 21 40  1  0
 22 41  1  0
 26 42  1  0
 26 43  1  0
 27 44  1  0
 27 45  1  0
M  END
>  <smiles>  (36) 
COc1cc2c(cc1OC)-c1cc(=Nc3cccc(Cl)c3)[nH]c(=O)n1CC2

>  <score_type>  (36) 
oracle

>  <origin>  (36) 
adg

>  <m_score__min__energy>  (36) 
-7.96

>  <m_primary>  (36) 
energy

$$$$
36:0
     RDKit          3D

 34 35  0  0  0  0  0  0  0  0999 V2000
   55.9720   21.9788   41.8556 H   0  0  0  0  0  0  0  0  0  0  0  0
   56.2520   22.2620   42.8810 C   0  0  0  0  0  0  0  0  0  0  0  0
   55.5320   23.1530   43.6140 N   0  0  0  0  0  0  0  0  0  0  0  0
   56.0800   23.3440   44.8350 C   0  0  0  0  0  0  0  0  0  0  0  0
   55.5840   24.1260   45.7470 N   0  0  0  0  0  0  0  0  0  0  0  0
   55.8360   25.5340   45.8780 C   0  0  0  0  0  0  0  0  0  0  0  0
   54.8520   26.3130   45.9910 O   0  0  0  0  0  0  0  0  0  0  0  0
   57.2090   26.0890   45.9580 C   0  0  0  0  0  0  0  0  0  0  0  0
   58.2790   25.2300   46.2640 C   0  0  0  0  0  0  0  0  0  0  0  0
   58.0891   24.1599   46.4337 H   0  0  0  0  0  0  0  0  0  0  0  0
   59.5810   25.7260   46.3540 C   0  0  0  0  0  0  0  0  0  0  0  0
   60.4133   25.0460   46.5883 H   0  0  0  0  0  0  0  0  0  0  0  0
   59.8270   27.0830   46.1470 C   0  0  0  0  0  0  0  0  0  0  0  0
   60.8536   27.4714   46.2187 H   0  0  0  0  0  0  0  0  0  0  0  0
   58.7740   27.9500   45.8490 C   0  0  0  0  0  0  0  0  0  0  0  0
   58.9759   29.0195   45.6895 H   0  0  0  0  0  0  0  0  0  0  0  0
   57.4540   27.4650   45.7510 C   0  0  0  0  0  0  0  0  0  0  0  0
   56.3600   28.3330   45.4170 N   0  0  0  0  0  0  0  0  0  0  0  0
   56.3900   29.6120   44.2470 S   0  0  0  0  0  0  0  0  0  0  0  0
   55.1890   30.4980   44.4270 O   0  0  0  0  0  0  0  0  0  0  0  0
   56.3420   29.0070   42.8730 O   0  0  0  0  0  0  0  0  0  0  0  0
   57.9030   30.5490   44.4160 C   0  0  0  0  0  0  0  0  0  0  0  0
   58.1160   31.0643   43.4678 H   0  0  0  0  0  0  0  0  0  0  0  0
   58.7203   29.8571   44.6675 H   0  0  0  0  0  0  0  0  0  0  0  0
   57.7770   31.5860   45.5330 C   0  0  0  0  0  0  0  0  0  0  0  0
   58.7256   31.6334   46.0879 H   0  0  0  0  0  0  0  0  0  0  0  0
   56.9545   31.2846   46.1983 H   0  0  0  0  0  0  0  0  0  0  0  0
   57.4610   32.9680   44.9670 C   0  0  0  0  0  0  0  0  0  0  0  0
   57.2994   33.6748   45.7942 H   0  0  0  0  0  0  0  0  0  0  0  0
   58.3035   33.3127   44.3495 H   0  0  0  0  0  0  0  0  0  0  0  0
   56.5524   32.9123   44.3495 H   0  0  0  0  0  0  0  0  0  0  0  0
   57.4540   22.4100   45.0620 S   0  0  0  0  0  0  0  0  0  0  0  0
   57.3680   21.7350   43.5220 C   0  0  0  0  0  0  0  0  0  0  0  0
   58.0719   21.0044   43.0969 H   0  0  0  0  0  0  0  0  0  0  0  0
  1  2  1  0
  2  3  1  0
  3  4  1  0
  4  5  2  0
  5  6  1  0
  6  7  2  0
  6  8  1  0
  8  9  2  0
  9 10  1  0
  9 11  1  0
 11 12  1  0
 11 13  2  0
 13 14  1  0
 13 15  1  0
 15 16  1  0
 15 17  2  0
 17 18  1  0
 18 19  1  0
 19 20  2  0
 19 21  2  0
 19 22  1  0
 22 23  1  0
 22 24  1  0
 22 25  1  0
 25 26  1  0
 25 27  1  0
 25 28  1  0
 28 29  1  0
 28 30  1  0
 28 31  1  0
  4 32  1  0
 32 33  1  0
 33 34  1  0
 33  2  2  0
 17  8  1  0
M  CHG  2   3  -1  18  -1
M  END
>  <UniqueID>  (37) 
30

>  <SMILES>  (37) 
CCCS(=O)(=O)[N-]c1ccccc1C(=O)/N=c1\[n-]ccs1

>  <Energy>  (37) 
67.28872108993998

>  <Genealogy>  (37) 
CCCS(=O)(=O)[N-]c1ccccc1C(=O)N=c1[n-]ccs1 (protonated)
CCCS(=O)(=O)[N-]c1ccccc1C(=O)/N=c1\[n-]ccs1 (cis-trans isomerization)
CCCS(=O)(=O)[N-]c1ccccc1C(=O)/N=c1\[n-]ccs1 (3D coordinates assigned)
CCCS(=O)(=O)[N-]c1ccccc1C(=O)/N=c1\[n-]ccs1 (optimized conformer: 67.28872108993998 kcal/mol)

>  <smiles>  (37) 
CCCS(=O)(=O)Nc1ccccc1C(=O)N=c1[nH]ccs1

>  <score_type>  (37) 
oracle

>  <origin>  (37) 
adg

>  <m_score__min__energy>  (37) 
-11.609999999999999

>  <m_primary>  (37) 
energy

$$$$
37:0
     RDKit          3D

 42 45  0  0  0  0  0  0  0  0999 V2000
   61.5290   33.0430   46.9640 O   0  0  0  0  0  0  0  0  0  0  0  0
   62.1040   31.9640   47.2150 N   0  0  0  0  0  0  0  0  0  0  0  0
   63.4750   31.9030   47.1050 O   0  0  0  0  0  0  0  0  0  0  0  0
   61.3510   30.8060   47.6180 C   0  0  0  0  0  0  0  0  0  0  0  0
   60.8560   30.7000   48.9300 C   0  0  0  0  0  0  0  0  0  0  0  0
   60.1240   29.5770   49.3220 C   0  0  0  0  0  0  0  0  0  0  0  0
   59.8700   28.5510   48.4100 C   0  0  0  0  0  0  0  0  0  0  0  0
   60.3440   28.6450   47.0960 C   0  0  0  0  0  0  0  0  0  0  0  0
   60.0020   27.3680   45.9310 S   0  0  0  0  0  0  0  0  0  0  0  0
   61.0380   26.2830   46.0250 O   0  0  0  0  0  0  0  0  0  0  0  0
   60.0590   27.9720   44.5560 O   0  0  0  0  0  0  0  0  0  0  0  0
   58.4080   26.6540   46.1760 C   0  0  0  0  0  0  0  0  0  0  0  0
   58.2750   25.5150   46.9070 N   0  0  0  0  0  0  0  0  0  0  0  0
   57.0030   25.0650   46.9100 C   0  0  0  0  0  0  0  0  0  0  0  0
   56.5350   23.7080   47.6860 S   0  0  0  0  0  0  0  0  0  0  0  0
   55.9790   26.0330   45.9960 S   0  0  0  0  0  0  0  0  0  0  0  0
   57.2110   27.1110   45.6090 C   0  0  0  0  0  0  0  0  0  0  0  0
   57.0380   28.2190   44.7180 N   0  0  0  0  0  0  0  0  0  0  0  0
   57.4700   29.5590   45.0050 C   0  0  0  0  0  0  0  0  0  0  0  0
   57.7710   29.9680   46.3130 C   0  0  0  0  0  0  0  0  0  0  0  0
   58.2140   31.2700   46.5610 C   0  0  0  0  0  0  0  0  0  0  0  0
   58.3480   32.1930   45.5100 C   0  0  0  0  0  0  0  0  0  0  0  0
   58.8350   33.5620   45.7960 C   0  0  0  0  0  0  0  0  0  0  0  0
   59.2940   34.4940   44.8800 C   0  0  0  0  0  0  0  0  0  0  0  0
   59.6350   35.6080   45.6150 C   0  0  0  0  0  0  0  0  0  0  0  0
   59.3670   35.2950   46.9310 C   0  0  0  0  0  0  0  0  0  0  0  0
   58.8940   34.0730   47.0060 O   0  0  0  0  0  0  0  0  0  0  0  0
   58.0120   31.7880   44.2050 C   0  0  0  0  0  0  0  0  0  0  0  0
   57.5690   30.4860   43.9590 C   0  0  0  0  0  0  0  0  0  0  0  0
   61.0950   29.7640   46.7070 C   0  0  0  0  0  0  0  0  0  0  0  0
   61.0467   31.5072   49.6526 H   0  0  0  0  0  0  0  0  0  0  0  0
   59.7465   29.5007   50.3524 H   0  0  0  0  0  0  0  0  0  0  0  0
   59.2962   27.6668   48.7245 H   0  0  0  0  0  0  0  0  0  0  0  0
   56.4720   28.0560   43.8540 H   0  0  0  0  0  0  0  0  0  0  0  0
   57.6577   29.2602   47.1474 H   0  0  0  0  0  0  0  0  0  0  0  0
   58.4601   31.5752   47.5887 H   0  0  0  0  0  0  0  0  0  0  0  0
   59.3705   34.3701   43.7897 H   0  0  0  0  0  0  0  0  0  0  0  0
   60.0394   36.5558   45.2300 H   0  0  0  0  0  0  0  0  0  0  0  0
   59.5255   35.9670   47.7873 H   0  0  0  0  0  0  0  0  0  0  0  0
   58.0988   32.5017   43.3725 H   0  0  0  0  0  0  0  0  0  0  0  0
   57.2959   30.1864   42.9364 H   0  0  0  0  0  0  0  0  0  0  0  0
   61.4872   29.8278   45.6813 H   0  0  0  0  0  0  0  0  0  0  0  0
  1  2  2  0
  2  3  1  0
  2  4  1  0
  4  5  2  0
  5  6  1  0
  6  7  2  0
  7  8  1  0
  8  9  1  0
  9 10  2  0
  9 11  2  0
  9 12  1  0
 12 13  1  0
 13 14  1  0
 14 15  2  0
 14 16  1  0
 16 17  1  0
 17 18  1  0
 18 19  1  0
 19 20  2  0
 20 21  1  0
 21 22  2  0
 22 23  1  0
 23 24  2  0
 24 25  1  0
 25 26  2  0
 26 27  1  0
 22 28  1  0
 28 29  2  0
  8 30  2  0
 30  4  1  0
 17 12  2  0
 29 19  1  0
 27 23  1  0
  5 31  1  0
  6 32  1  0
  7 33  1  0
 18 34  1  0
 20 35  1  0
 21 36  1  0
 24 37  1  0
 25 38  1  0
 26 39  1  0
 28 40  1  0
 29 41  1  0
 30 42  1  0
M  CHG  3   2   1   3  -1  13  -1
M  END
>  <UniqueID>  (38) 
31

>  <SMILES>  (38) 
O=[N+]([O-])c1cccc(S(=O)(=O)c2[n-]c(=S)sc2Nc2ccc(-c3ccco3)cc2)c1

>  <Energy>  (38) 
110.80704221400865

>  <Genealogy>  (38) 
O=[N+]([O-])c1cccc(S(=O)(=O)c2[n-]c(=S)sc2Nc2ccc(-c3ccco3)cc2)c1 (protonated)
O=[N+]([O-])c1cccc(S(=O)(=O)c2[n-]c(=S)sc2Nc2ccc(-c3ccco3)cc2)c1 (3D coordinates assigned)
O=[N+]([O-])c1cccc(S(=O)(=O)c2[n-]c(=S)sc2Nc2ccc(-c3ccco3)cc2)c1 (optimized conformer: 110.80704221400865 kcal/mol)

>  <smiles>  (38) 
O=[N+]([O-])c1cccc(S(=O)(=O)c2[nH]c(=S)sc2Nc2ccc(-c3ccco3)cc2)c1

>  <score_type>  (38) 
oracle

>  <origin>  (38) 
adg

>  <m_score__min__energy>  (38) 
-10.300000000000001

>  <m_primary>  (38) 
energy

$$$$
38:0
     RDKit          3D

 56 59  0  0  0  0  0  0  0  0999 V2000
   59.1130   35.7992   47.6107 H   0  0  0  0  0  0  0  0  0  0  0  0
   59.2690   34.8540   47.0700 C   0  0  0  0  0  0  0  0  0  0  0  0
   58.1430   33.9000   47.0400 C   0  0  0  0  0  0  0  0  0  0  0  0
   57.8470   33.2230   48.0610 O   0  0  0  0  0  0  0  0  0  0  0  0
   57.3510   33.8130   45.8450 N   0  0  0  0  0  0  0  0  0  0  0  0
   57.3930   32.8580   44.9640 C   0  0  0  0  0  0  0  0  0  0  0  0
   56.8900   31.6520   45.2330 O   0  0  0  0  0  0  0  0  0  0  0  0
   56.9190   30.6400   44.3660 C   0  0  0  0  0  0  0  0  0  0  0  0
   56.3310   29.3470   44.7660 C   0  0  0  0  0  0  0  0  0  0  0  0
   55.1450   29.3240   45.1900 O   0  0  0  0  0  0  0  0  0  0  0  0
   57.0440   28.1090   44.6510 N   0  0  0  0  0  0  0  0  0  0  0  0
   57.1000   27.0650   45.6380 C   0  0  0  0  0  0  0  0  0  0  0  0
   56.2040   25.9810   45.5990 C   0  0  0  0  0  0  0  0  0  0  0  0
   55.4211   25.9453   44.8271 H   0  0  0  0  0  0  0  0  0  0  0  0
   56.3040   24.9500   46.5360 C   0  0  0  0  0  0  0  0  0  0  0  0
   55.5914   24.1125   46.5085 H   0  0  0  0  0  0  0  0  0  0  0  0
   57.3060   24.9800   47.5070 C   0  0  0  0  0  0  0  0  0  0  0  0
   57.3808   24.1678   48.2451 H   0  0  0  0  0  0  0  0  0  0  0  0
   58.2140   26.0410   47.5420 C   0  0  0  0  0  0  0  0  0  0  0  0
   59.0084   26.0564   48.3027 H   0  0  0  0  0  0  0  0  0  0  0  0
   58.1180   27.0870   46.6120 C   0  0  0  0  0  0  0  0  0  0  0  0
   59.0570   28.1740   46.6590 N   0  0  0  0  0  0  0  0  0  0  0  0
   59.1730   28.9970   47.8700 C   0  0  0  0  0  0  0  0  0  0  0  0
   58.3281   28.7753   48.5385 H   0  0  0  0  0  0  0  0  0  0  0  0
   60.1266   28.7615   48.3652 H   0  0  0  0  0  0  0  0  0  0  0  0
   59.1580   30.4940   47.5190 C   0  0  0  0  0  0  0  0  0  0  0  0
   58.1113   30.8285   47.4681 H   0  0  0  0  0  0  0  0  0  0  0  0
   59.7267   31.0143   48.3038 H   0  0  0  0  0  0  0  0  0  0  0  0
   59.8410   30.8220   46.1730 C   0  0  0  0  0  0  0  0  0  0  0  0
   59.0623   30.9919   45.4149 H   0  0  0  0  0  0  0  0  0  0  0  0
   60.4622   31.7172   46.3238 H   0  0  0  0  0  0  0  0  0  0  0  0
   60.7600   29.6950   45.6890 C   0  0  0  0  0  0  0  0  0  0  0  0
   61.2017   29.9764   44.7216 H   0  0  0  0  0  0  0  0  0  0  0  0
   61.5550   29.5356   46.4324 H   0  0  0  0  0  0  0  0  0  0  0  0
   59.9620   28.3960   45.5230 C   0  0  0  0  0  0  0  0  0  0  0  0
   59.3683   28.4563   44.5989 H   0  0  0  0  0  0  0  0  0  0  0  0
   60.6719   27.5570   45.4768 H   0  0  0  0  0  0  0  0  0  0  0  0
   57.4830   30.8320   43.0950 C   0  0  0  0  0  0  0  0  0  0  0  0
   57.5003   30.0121   42.3618 H   0  0  0  0  0  0  0  0  0  0  0  0
   58.0200   32.0760   42.7770 C   0  0  0  0  0  0  0  0  0  0  0  0
   58.4730   32.2474   41.7894 H   0  0  0  0  0  0  0  0  0  0  0  0
   57.9800   33.1030   43.7180 C   0  0  0  0  0  0  0  0  0  0  0  0
   58.4034   34.0911   43.4847 H   0  0  0  0  0  0  0  0  0  0  0  0
   60.4670   34.6670   46.4940 C   0  0  0  0  0  0  0  0  0  0  0  0
   60.6512   35.1759   45.5363 H   0  0  0  0  0  0  0  0  0  0  0  0
   61.5590   33.8340   47.0400 C   0  0  0  0  0  0  0  0  0  0  0  0
   61.3360   33.0870   48.2070 C   0  0  0  0  0  0  0  0  0  0  0  0
   60.3442   33.0977   48.6827 H   0  0  0  0  0  0  0  0  0  0  0  0
   62.3690   32.3290   48.7680 C   0  0  0  0  0  0  0  0  0  0  0  0
   62.1829   31.7319   49.6729 H   0  0  0  0  0  0  0  0  0  0  0  0
   63.6370   32.3290   48.1810 C   0  0  0  0  0  0  0  0  0  0  0  0
   64.4462   31.7267   48.6197 H   0  0  0  0  0  0  0  0  0  0  0  0
   63.8770   33.0940   47.0370 C   0  0  0  0  0  0  0  0  0  0  0  0
   64.8775   33.0998   46.5798 H   0  0  0  0  0  0  0  0  0  0  0  0
   62.8460   33.8530   46.4720 C   0  0  0  0  0  0  0  0  0  0  0  0
   63.0425   34.4667   45.5805 H   0  0  0  0  0  0  0  0  0  0  0  0
  1  2  1  0
  2  3  1  0
  3  4  2  0
  3  5  1  0
  5  6  2  0
  6  7  1  0
  7  8  1  0
  8  9  1  0
  9 10  2  0
  9 11  1  0
 11 12  1  0
 12 13  2  0
 13 14  1  0
 13 15  1  0
 15 16  1  0
 15 17  2  0
 17 18  1  0
 17 19  1  0
 19 20  1  0
 19 21  2  0
 21 22  1  0
 22 23  1  0
 23 24  1  0
 23 25  1  0
 23 26  1  0
 26 27  1  0
 26 28  1  0
 26 29  1  0
 29 30  1  0
 29 31  1  0
 29 32  1  0
 32 33  1  0
 32 34  1  0
 32 35  1  0
 35 36  1  0
 35 37  1  0
  8 38  2  0
 38 39  1  0
 38 40  1  0
 40 41  1  0
 40 42  2  0
 42 43  1  0
  2 44  2  0
 44 45  1  0
 44 46  1  0
 46 47  2  0
 47 48  1  0
 47 49  1  0
 49 50  1  0
 49 51  2  0
 51 52  1  0
 51 53  1  0
 53 54  1  0
 53 55  2  0
 55 56  1  0
 42  6  1  0
 55 46  1  0
 21 12  1  0
 35 22  1  0
M  CHG  1  11  -1
M  END
>  <UniqueID>  (39) 
32

>  <SMILES>  (39) 
O=C(/C=C\c1ccccc1)/N=c1/cccc(C(=O)[N-]c2ccccc2N2CCCCC2)o1

>  <Energy>  (39) 
81.00365587591249

>  <Genealogy>  (39) 
O=C(C=Cc1ccccc1)N=c1cccc(C(=O)[N-]c2ccccc2N2CCCCC2)o1 (protonated)
O=C(/C=C\c1ccccc1)/N=c1/cccc(C(=O)[N-]c2ccccc2N2CCCCC2)o1 (cis-trans isomerization)
O=C(/C=C\c1ccccc1)/N=c1/cccc(C(=O)[N-]c2ccccc2N2CCCCC2)o1 (3D coordinates assigned)
O=C(/C=C\c1ccccc1)/N=c1/cccc(C(=O)[N-]c2ccccc2N2CCCCC2)o1 (nonaromatic ring conformer: 81.00365587591249 kcal/mol)

>  <smiles>  (39) 
O=C(C=Cc1ccccc1)N=c1cccc(C(=O)Nc2ccccc2N2CCCCC2)o1

>  <score_type>  (39) 
oracle

>  <origin>  (39) 
adg

>  <m_score__min__energy>  (39) 
-12.130000000000001

>  <m_primary>  (39) 
energy

$$$$
39:0
     RDKit          3D

 46 47  0  0  0  0  0  0  0  0999 V2000
   64.8950   32.3040   49.4210 C   0  0  0  0  0  0  0  0  0  0  0  0
   63.6590   32.9120   48.9020 N   0  0  0  0  0  0  0  0  0  0  0  0
   63.7770   33.0880   47.4460 C   0  0  0  0  0  0  0  0  0  0  0  0
   63.3840   34.2130   49.5530 C   0  0  0  0  0  0  0  0  0  0  0  0
   62.1020   34.1520   50.4070 C   0  0  0  0  0  0  0  0  0  0  0  0
   61.3500   32.8930   50.2340 N   0  0  0  0  0  0  0  0  0  0  0  0
   60.4110   32.8000   49.0850 C   0  0  0  0  0  0  0  0  0  0  0  0
   58.9060   32.7690   49.4580 C   0  0  0  0  0  0  0  0  0  0  0  0
   58.0410   32.7290   48.1890 C   0  0  0  0  0  0  0  0  0  0  0  0
   58.5370   31.7290   47.2290 N   0  0  0  0  0  0  0  0  0  0  0  0
   58.1680   31.8380   45.8440 C   0  0  0  0  0  0  0  0  0  0  0  0
   57.4590   30.8280   45.2680 N   0  0  0  0  0  0  0  0  0  0  0  0
   57.0780   30.8550   43.9610 C   0  0  0  0  0  0  0  0  0  0  0  0
   56.3080   29.7060   43.3790 C   0  0  0  0  0  0  0  0  0  0  0  0
   55.1690   29.4810   44.1330 F   0  0  0  0  0  0  0  0  0  0  0  0
   55.9400   30.0050   42.0800 F   0  0  0  0  0  0  0  0  0  0  0  0
   57.0770   28.5560   43.3760 F   0  0  0  0  0  0  0  0  0  0  0  0
   57.4230   31.9540   43.1660 C   0  0  0  0  0  0  0  0  0  0  0  0
   58.1380   33.0120   43.7280 C   0  0  0  0  0  0  0  0  0  0  0  0
   58.5150   32.9670   45.0740 C   0  0  0  0  0  0  0  0  0  0  0  0
   59.1990   34.0970   45.6490 C   0  0  0  0  0  0  0  0  0  0  0  0
   59.7480   35.0040   46.1140 N   0  0  0  0  0  0  0  0  0  0  0  0
   59.6320   30.8320   47.6130 C   0  0  0  0  0  0  0  0  0  0  0  0
   60.8250   31.6440   48.1340 C   0  0  0  0  0  0  0  0  0  0  0  0
   64.8748   32.3140   50.5208 H   0  0  0  0  0  0  0  0  0  0  0  0
   64.9705   31.2659   49.0650 H   0  0  0  0  0  0  0  0  0  0  0  0
   65.7634   32.8778   49.0650 H   0  0  0  0  0  0  0  0  0  0  0  0
   64.3779   33.9843   47.2325 H   0  0  0  0  0  0  0  0  0  0  0  0
   64.2667   32.2055   47.0085 H   0  0  0  0  0  0  0  0  0  0  0  0
   62.7747   33.2058   47.0085 H   0  0  0  0  0  0  0  0  0  0  0  0
   64.2335   34.4765   50.2002 H   0  0  0  0  0  0  0  0  0  0  0  0
   63.2428   34.9709   48.7684 H   0  0  0  0  0  0  0  0  0  0  0  0
   62.3820   34.2498   51.4663 H   0  0  0  0  0  0  0  0  0  0  0  0
   61.4483   34.9726   50.0763 H   0  0  0  0  0  0  0  0  0  0  0  0
   62.0570   32.1270   50.1380 H   0  0  0  0  0  0  0  0  0  0  0  0
   60.5090   33.7513   48.5414 H   0  0  0  0  0  0  0  0  0  0  0  0
   58.7012   31.8746   50.0647 H   0  0  0  0  0  0  0  0  0  0  0  0
   58.6608   33.6768   50.0287 H   0  0  0  0  0  0  0  0  0  0  0  0
   57.0080   32.4745   48.4685 H   0  0  0  0  0  0  0  0  0  0  0  0
   58.0848   33.7184   47.7102 H   0  0  0  0  0  0  0  0  0  0  0  0
   57.1324   31.9834   42.1055 H   0  0  0  0  0  0  0  0  0  0  0  0
   58.4056   33.8828   43.1115 H   0  0  0  0  0  0  0  0  0  0  0  0
   59.2834   30.1508   48.4032 H   0  0  0  0  0  0  0  0  0  0  0  0
   59.9485   30.2547   46.7318 H   0  0  0  0  0  0  0  0  0  0  0  0
   61.4973   30.9660   48.6802 H   0  0  0  0  0  0  0  0  0  0  0  0
   61.3161   32.0992   47.2613 H   0  0  0  0  0  0  0  0  0  0  0  0
  1  2  1  0
  2  3  1  0
  2  4  1  0
  4  5  1  0
  5  6  1  0
  6  7  1  0
  7  8  1  0
  8  9  1  0
  9 10  1  0
 10 11  1  0
 11 12  2  0
 12 13  1  0
 13 14  1  0
 14 15  1  0
 14 16  1  0
 14 17  1  0
 13 18  2  0
 18 19  1  0
 19 20  2  0
 20 21  1  0
 21 22  3  0
 10 23  1  0
 23 24  1  0
 24  7  1  0
 20 11  1  0
  1 25  1  0
  1 26  1  0
  1 27  1  0
  3 28  1  0
  3 29  1  0
  3 30  1  0
  4 31  1  0
  4 32  1  0
  5 33  1  0
  5 34  1  0
  6 35  1  0
  7 36  1  0
  8 37  1  0
  8 38  1  0
  9 39  1  0
  9 40  1  0
 18 41  1  0
 19 42  1  0
 23 43  1  0
 23 44  1  0
 24 45  1  0
 24 46  1  0
M  END
>  <UniqueID>  (40) 
33

>  <SMILES>  (40) 
CN(C)CCNC1CCN(c2nc(C(F)(F)F)ccc2C#N)CC1

>  <Energy>  (40) 
60.04427008935932

>  <Genealogy>  (40) 
CN(C)CCNC1CCN(c2nc(C(F)(F)F)ccc2C#N)CC1 (3D coordinates assigned)
CN(C)CCNC1CCN(c2nc(C(F)(F)F)ccc2C#N)CC1 (nonaromatic ring conformer: 60.04427008935932 kcal/mol)

>  <smiles>  (40) 
CN(C)CCNC1CCN(c2nc(C(F)(F)F)ccc2C#N)CC1

>  <score_type>  (40) 
oracle

>  <origin>  (40) 
adg

>  <m_score__min__energy>  (40) 
-5.8899999999999997

>  <m_primary>  (40) 
energy

$$$$
40:0
     RDKit          3D

 42 44  0  0  0  0  0  0  0  0999 V2000
   57.3940   25.1970   43.3490 C   0  0  0  0  0  0  0  0  0  0  0  0
   56.9220   24.0230   42.6970 O   0  0  0  0  0  0  0  0  0  0  0  0
   56.5720   22.8640   43.3940 C   0  0  0  0  0  0  0  0  0  0  0  0
   55.9580   21.9290   42.8110 O   0  0  0  0  0  0  0  0  0  0  0  0
   56.9110   22.7520   44.7810 N   0  0  0  0  0  0  0  0  0  0  0  0
   56.5900   21.5720   45.5810 C   0  0  0  0  0  0  0  0  0  0  0  0
   55.8640   21.9790   46.8650 C   0  0  0  0  0  0  0  0  0  0  0  0
   54.7550   23.3990   46.5620 S   0  0  0  0  0  0  0  0  0  0  0  0
   56.0490   24.6320   46.6700 C   0  0  0  0  0  0  0  0  0  0  0  0
   55.8700   25.9270   46.3460 N   0  0  0  0  0  0  0  0  0  0  0  0
   57.0980   26.4390   46.5790 C   0  0  0  0  0  0  0  0  0  0  0  0
   57.4480   27.8610   46.3800 C   0  0  0  0  0  0  0  0  0  0  0  0
   56.9280   28.5770   45.2900 C   0  0  0  0  0  0  0  0  0  0  0  0
   57.2590   29.9220   45.1030 C   0  0  0  0  0  0  0  0  0  0  0  0
   58.1190   30.5790   46.0000 C   0  0  0  0  0  0  0  0  0  0  0  0
   58.4720   32.0080   45.8000 C   0  0  0  0  0  0  0  0  0  0  0  0
   59.6240   32.5510   46.4000 C   0  0  0  0  0  0  0  0  0  0  0  0
   59.9540   33.8970   46.2090 C   0  0  0  0  0  0  0  0  0  0  0  0
   59.1390   34.7140   45.4220 C   0  0  0  0  0  0  0  0  0  0  0  0
   57.9930   34.1870   44.8230 C   0  0  0  0  0  0  0  0  0  0  0  0
   57.6580   32.8420   45.0080 C   0  0  0  0  0  0  0  0  0  0  0  0
   58.6390   29.8600   47.0900 C   0  0  0  0  0  0  0  0  0  0  0  0
   58.3070   28.5150   47.2790 C   0  0  0  0  0  0  0  0  0  0  0  0
   57.9660   25.5050   47.0140 N   0  0  0  0  0  0  0  0  0  0  0  0
   57.3030   24.3630   47.0700 N   0  0  0  0  0  0  0  0  0  0  0  0
   57.3384   25.0587   44.4388 H   0  0  0  0  0  0  0  0  0  0  0  0
   58.4375   25.3848   43.0560 H   0  0  0  0  0  0  0  0  0  0  0  0
   56.7709   26.0548   43.0560 H   0  0  0  0  0  0  0  0  0  0  0  0
   57.3570   23.5710   45.2520 H   0  0  0  0  0  0  0  0  0  0  0  0
   55.9429   20.9023   44.9955 H   0  0  0  0  0  0  0  0  0  0  0  0
   57.5246   21.0569   45.8477 H   0  0  0  0  0  0  0  0  0  0  0  0
   55.2690   21.1280   47.2280 H   0  0  0  0  0  0  0  0  0  0  0  0
   56.6130   22.2709   47.6158 H   0  0  0  0  0  0  0  0  0  0  0  0
   56.2554   28.0760   44.5782 H   0  0  0  0  0  0  0  0  0  0  0  0
   56.8426   30.4715   44.2459 H   0  0  0  0  0  0  0  0  0  0  0  0
   60.2685   31.9131   47.0227 H   0  0  0  0  0  0  0  0  0  0  0  0
   60.8571   34.3128   46.6796 H   0  0  0  0  0  0  0  0  0  0  0  0
   59.3999   35.7723   45.2741 H   0  0  0  0  0  0  0  0  0  0  0  0
   57.3519   34.8317   44.2038 H   0  0  0  0  0  0  0  0  0  0  0  0
   56.7543   32.4329   44.5327 H   0  0  0  0  0  0  0  0  0  0  0  0
   59.3133   30.3600   47.8009 H   0  0  0  0  0  0  0  0  0  0  0  0
   58.7211   27.9653   48.1372 H   0  0  0  0  0  0  0  0  0  0  0  0
  1  2  1  0
  2  3  1  0
  3  4  2  0
  3  5  1  0
  5  6  1  0
  6  7  1  0
  7  8  1  0
  8  9  1  0
  9 10  2  0
 10 11  1  0
 11 12  1  0
 12 13  2  0
 13 14  1  0
 14 15  2  0
 15 16  1  0
 16 17  2  0
 17 18  1  0
 18 19  2  0
 19 20  1  0
 20 21  2  0
 15 22  1  0
 22 23  2  0
 11 24  2  0
 24 25  1  0
 25  9  1  0
 23 12  1  0
 21 16  1  0
  1 26  1  0
  1 27  1  0
  1 28  1  0
  5 29  1  0
  6 30  1  0
  6 31  1  0
  7 32  1  0
  7 33  1  0
 13 34  1  0
 14 35  1  0
 17 36  1  0
 18 37  1  0
 19 38  1  0
 20 39  1  0
 21 40  1  0
 22 41  1  0
 23 42  1  0
M  CHG  1  25  -1
M  END
>  <UniqueID>  (41) 
34

>  <SMILES>  (41) 
COC(=O)NCCSc1nc(-c2ccc(-c3ccccc3)cc2)n[n-]1

>  <Energy>  (41) 
71.97786444491749

>  <Genealogy>  (41) 
COC(=O)NCCSc1nc(-c2ccc(-c3ccccc3)cc2)n[n-]1 (protonated)
COC(=O)NCCSc1nc(-c2ccc(-c3ccccc3)cc2)n[n-]1 (3D coordinates assigned)
COC(=O)NCCSc1nc(-c2ccc(-c3ccccc3)cc2)n[n-]1 (optimized conformer: 71.97786444491749 kcal/mol)

>  <smiles>  (41) 
COC(=O)NCCSc1nc(-c2ccc(-c3ccccc3)cc2)n[nH]1

>  <score_type>  (41) 
oracle

>  <origin>  (41) 
adg

>  <m_score__min__energy>  (41) 
-9.0299999999999994

>  <m_primary>  (41) 
energy

$$$$
41:0
     RDKit          3D

 52 54  0  0  0  0  0  0  0  0999 V2000
   63.7460   33.1100   47.1170 C   0  0  0  0  0  0  0  0  0  0  0  0
   62.9750   33.4200   48.3970 C   0  0  0  0  0  0  0  0  0  0  0  0
   61.5190   33.3700   48.1570 N   0  0  0  0  0  0  0  0  0  0  0  0
   61.0720   33.8440   46.9540 C   0  0  0  0  0  0  0  0  0  0  0  0
   59.7160   33.8280   46.6210 C   0  0  0  0  0  0  0  0  0  0  0  0
   59.2860   34.4100   45.3350 C   0  0  0  0  0  0  0  0  0  0  0  0
   59.2790   35.6610   45.2020 O   0  0  0  0  0  0  0  0  0  0  0  0
   58.8180   33.5930   44.2530 N   0  0  0  0  0  0  0  0  0  0  0  0
   57.4770   33.0250   44.1270 C   0  0  0  0  0  0  0  0  0  0  0  0
   57.4680   31.5590   44.4820 C   0  0  0  0  0  0  0  0  0  0  0  0
   58.5310   30.9950   45.2080 C   0  0  0  0  0  0  0  0  0  0  0  0
   58.5130   29.6400   45.5460 C   0  0  0  0  0  0  0  0  0  0  0  0
   57.4400   28.8330   45.1530 C   0  0  0  0  0  0  0  0  0  0  0  0
   57.4220   27.1310   45.5750 Cl  0  0  0  0  0  0  0  0  0  0  0  0
   56.3810   29.3870   44.4260 C   0  0  0  0  0  0  0  0  0  0  0  0
   56.3940   30.7440   44.0900 C   0  0  0  0  0  0  0  0  0  0  0  0
   58.7970   33.2820   47.5220 C   0  0  0  0  0  0  0  0  0  0  0  0
   57.5790   33.1950   47.1990 O   0  0  0  0  0  0  0  0  0  0  0  0
   59.2360   32.8360   48.7790 C   0  0  0  0  0  0  0  0  0  0  0  0
   58.3180   32.3390   49.7250 C   0  0  0  0  0  0  0  0  0  0  0  0
   58.7490   31.9270   50.9880 C   0  0  0  0  0  0  0  0  0  0  0  0
   57.5890   31.3000   52.1620 S   0  0  0  0  0  0  0  0  0  0  0  0
   56.4480   32.2690   52.2980 O   0  0  0  0  0  0  0  0  0  0  0  0
   57.0330   29.9950   51.6600 O   0  0  0  0  0  0  0  0  0  0  0  0
   58.3350   31.0550   53.7220 N   0  0  0  0  0  0  0  0  0  0  0  0
   58.5580   32.3460   54.3880 C   0  0  0  0  0  0  0  0  0  0  0  0
   57.4970   30.1800   54.5540 C   0  0  0  0  0  0  0  0  0  0  0  0
   60.1020   32.0120   51.3170 C   0  0  0  0  0  0  0  0  0  0  0  0
   61.0270   32.4960   50.3920 C   0  0  0  0  0  0  0  0  0  0  0  0
   60.6200   32.9060   49.1000 C   0  0  0  0  0  0  0  0  0  0  0  0
   64.7383   32.7110   47.3742 H   0  0  0  0  0  0  0  0  0  0  0  0
   63.1927   32.3645   46.5271 H   0  0  0  0  0  0  0  0  0  0  0  0
   63.8628   34.0311   46.5271 H   0  0  0  0  0  0  0  0  0  0  0  0
   63.2395   32.6790   49.1658 H   0  0  0  0  0  0  0  0  0  0  0  0
   63.2424   34.4326   48.7333 H   0  0  0  0  0  0  0  0  0  0  0  0
   61.7977   34.2471   46.2323 H   0  0  0  0  0  0  0  0  0  0  0  0
   56.7954   33.5618   44.8032 H   0  0  0  0  0  0  0  0  0  0  0  0
   57.1513   33.1315   43.0817 H   0  0  0  0  0  0  0  0  0  0  0  0
   59.3811   31.6237   45.5114 H   0  0  0  0  0  0  0  0  0  0  0  0
   59.3438   29.2067   46.1221 H   0  0  0  0  0  0  0  0  0  0  0  0
   55.5361   28.7535   44.1180 H   0  0  0  0  0  0  0  0  0  0  0  0
   55.5599   31.1747   43.5165 H   0  0  0  0  0  0  0  0  0  0  0  0
   57.2508   32.2748   49.4663 H   0  0  0  0  0  0  0  0  0  0  0  0
   59.2600   30.5910   53.5700 H   0  0  0  0  0  0  0  0  0  0  0  0
   58.5336   32.2050   55.4787 H   0  0  0  0  0  0  0  0  0  0  0  0
   59.5387   32.7468   54.0919 H   0  0  0  0  0  0  0  0  0  0  0  0
   57.7686   33.0525   54.0919 H   0  0  0  0  0  0  0  0  0  0  0  0
   57.6940   30.3857   55.6165 H   0  0  0  0  0  0  0  0  0  0  0  0
   56.4362   30.3709   54.3341 H   0  0  0  0  0  0  0  0  0  0  0  0
   57.7336   29.1285   54.3341 H   0  0  0  0  0  0  0  0  0  0  0  0
   60.4421   31.6948   52.3139 H   0  0  0  0  0  0  0  0  0  0  0  0
   62.0891   32.5600   50.6710 H   0  0  0  0  0  0  0  0  0  0  0  0
  1  2  1  0
  2  3  1  0
  3  4  1  0
  4  5  2  0
  5  6  1  0
  6  7  2  0
  6  8  1  0
  8  9  1  0
  9 10  1  0
 10 11  2  0
 11 12  1  0
 12 13  2  0
 13 14  1  0
 13 15  1  0
 15 16  2  0
  5 17  1  0
 17 18  2  0
 17 19  1  0
 19 20  2  0
 20 21  1  0
 21 22  1  0
 22 23  2  0
 22 24  2  0
 22 25  1  0
 25 26  1  0
 25 27  1  0
 21 28  2  0
 28 29  1  0
 29 30  2  0
 30  3  1  0
 16 10  1  0
 30 19  1  0
  1 31  1  0
  1 32  1  0
  1 33  1  0
  2 34  1  0
  2 35  1  0
  4 36  1  0
  9 37  1  0
  9 38  1  0
 11 39  1  0
 12 40  1  0
 15 41  1  0
 16 42  1  0
 20 43  1  0
 25 44  1  0
 26 45  1  0
 26 46  1  0
 26 47  1  0
 27 48  1  0
 27 49  1  0
 27 50  1  0
 28 51  1  0
 29 52  1  0
M  CHG  2   8  -1  25   1
M  END
>  <UniqueID>  (42) 
35

>  <SMILES>  (42) 
CCn1cc(C(=O)[N-]Cc2ccc(Cl)cc2)c(=O)c2cc(S(=O)(=O)[NH+](C)C)ccc21

>  <Energy>  (42) 
59.08850580346716

>  <Genealogy>  (42) 
CCn1cc(C(=O)[N-]Cc2ccc(Cl)cc2)c(=O)c2cc(S(=O)(=O)[NH+](C)C)ccc21 (protonated)
CCn1cc(C(=O)[N-]Cc2ccc(Cl)cc2)c(=O)c2cc(S(=O)(=O)[NH+](C)C)ccc21 (3D coordinates assigned)
CCn1cc(C(=O)[N-]Cc2ccc(Cl)cc2)c(=O)c2cc(S(=O)(=O)[NH+](C)C)ccc21 (optimized conformer: 59.08850580346716 kcal/mol)

>  <smiles>  (42) 
CCn1cc(C(=O)NCc2ccc(Cl)cc2)c(=O)c2cc(S(=O)(=O)N(C)C)ccc21

>  <score_type>  (42) 
oracle

>  <origin>  (42) 
adg

>  <m_score__min__energy>  (42) 
-8.8599999999999994

>  <m_primary>  (42) 
energy

$$$$
42:0
     RDKit          3D

 38 39  0  0  0  0  0  0  0  0999 V2000
   59.8980   30.9970   47.0680 C   0  0  0  0  0  0  0  0  0  0  0  0
   58.9640   31.6330   46.1290 N   0  0  0  0  0  0  0  0  0  0  0  0
   58.5290   32.9830   46.4440 C   0  0  0  0  0  0  0  0  0  0  0  0
   57.5460   33.1390   47.2200 O   0  0  0  0  0  0  0  0  0  0  0  0
   59.1860   34.1920   45.8830 C   0  0  0  0  0  0  0  0  0  0  0  0
   60.3010   34.7520   46.3770 C   0  0  0  0  0  0  0  0  0  0  0  0
   61.3940   34.0150   47.0520 C   0  0  0  0  0  0  0  0  0  0  0  0
   62.6040   33.8080   46.3670 C   0  0  0  0  0  0  0  0  0  0  0  0
   63.6900   33.2070   47.0050 C   0  0  0  0  0  0  0  0  0  0  0  0
   63.5910   32.8270   48.3420 C   0  0  0  0  0  0  0  0  0  0  0  0
   62.4040   33.0420   49.0440 C   0  0  0  0  0  0  0  0  0  0  0  0
   61.2920   33.6320   48.4160 C   0  0  0  0  0  0  0  0  0  0  0  0
   60.0760   33.8100   49.1680 N   0  0  0  0  0  0  0  0  0  0  0  0
   59.5840   34.9460   49.3300 O   0  0  0  0  0  0  0  0  0  0  0  0
   59.3510   32.7140   49.5780 O   0  0  0  0  0  0  0  0  0  0  0  0
   58.4990   30.8590   44.9540 C   0  0  1  0  0  0  0  0  0  0  0  0
   58.6490   29.3330   45.1600 C   0  0  0  0  0  0  0  0  0  0  0  0
   57.6750   28.6090   44.2330 C   0  0  0  0  0  0  0  0  0  0  0  0
   56.3250   29.7210   43.9900 S   0  0  0  0  0  0  0  0  0  0  0  0
   55.9230   29.7900   42.5440 O   0  0  0  0  0  0  0  0  0  0  0  0
   55.1490   29.3500   44.8490 O   0  0  0  0  0  0  0  0  0  0  0  0
   57.0670   31.2290   44.5320 C   0  0  0  0  0  0  0  0  0  0  0  0
   59.5832   31.2113   48.1000 H   0  0  0  0  0  0  0  0  0  0  0  0
   59.8995   29.9094   46.9035 H   0  0  0  0  0  0  0  0  0  0  0  0
   60.9105   31.3941   46.9035 H   0  0  0  0  0  0  0  0  0  0  0  0
   58.7260   34.6610   45.0007 H   0  0  0  0  0  0  0  0  0  0  0  0
   60.4116   35.8414   46.2726 H   0  0  0  0  0  0  0  0  0  0  0  0
   62.6958   34.1230   45.3171 H   0  0  0  0  0  0  0  0  0  0  0  0
   64.6249   33.0331   46.4520 H   0  0  0  0  0  0  0  0  0  0  0  0
   64.4492   32.3571   48.8447 H   0  0  0  0  0  0  0  0  0  0  0  0
   62.3372   32.7464   50.1014 H   0  0  0  0  0  0  0  0  0  0  0  0
   59.1619   31.1437   44.1237 H   0  0  0  0  0  0  0  0  0  0  0  0
   59.6791   29.0283   44.9235 H   0  0  0  0  0  0  0  0  0  0  0  0
   58.4280   29.0753   46.2063 H   0  0  0  0  0  0  0  0  0  0  0  0
   58.1595   28.3791   43.2726 H   0  0  0  0  0  0  0  0  0  0  0  0
   57.3402   27.6539   44.6639 H   0  0  0  0  0  0  0  0  0  0  0  0
   57.0859   31.9633   43.7132 H   0  0  0  0  0  0  0  0  0  0  0  0
   56.5041   31.6842   45.3602 H   0  0  0  0  0  0  0  0  0  0  0  0
  1  2  1  0
  2  3  1  0
  3  4  2  0
  3  5  1  0
  5  6  2  3
  6  7  1  0
  7  8  2  0
  8  9  1  0
  9 10  2  0
 10 11  1  0
 11 12  2  0
 12 13  1  0
 13 14  2  0
 13 15  1  0
  2 16  1  0
 16 17  1  0
 17 18  1  0
 18 19  1  0
 19 20  2  0
 19 21  2  0
 19 22  1  0
 12  7  1  0
 22 16  1  0
  1 23  1  0
  1 24  1  0
  1 25  1  0
  5 26  1  0
  6 27  1  0
  8 28  1  0
  9 29  1  0
 10 30  1  0
 11 31  1  0
 16 32  1  6
 17 33  1  0
 17 34  1  0
 18 35  1  0
 18 36  1  0
 22 37  1  0
 22 38  1  0
M  CHG  2  13   1  15  -1
M  END
>  <UniqueID>  (43) 
36

>  <SMILES>  (43) 
CN(C(=O)C=Cc1ccccc1[N+](=O)[O-])[C@H]1CCS(=O)(=O)C1

>  <Energy>  (43) 
51.819434756340236

>  <Genealogy>  (43) 
CN(C(=O)C=Cc1ccccc1[N+](=O)[O-])[C@H]1CCS(=O)(=O)C1 (chirality)
CN(C(=O)C=Cc1ccccc1[N+](=O)[O-])[C@H]1CCS(=O)(=O)C1 (3D coordinates assigned)
CN(C(=O)C=Cc1ccccc1[N+](=O)[O-])[C@H]1CCS(=O)(=O)C1 (nonaromatic ring conformer: 51.819434756340236 kcal/mol)

>  <smiles>  (43) 
CN(C(=O)C=Cc1ccccc1[N+](=O)[O-])C1CCS(=O)(=O)C1

>  <score_type>  (43) 
oracle

>  <origin>  (43) 
adg

>  <m_score__min__energy>  (43) 
-8.5899999999999999

>  <m_primary>  (43) 
energy

$$$$
43:0
     RDKit          3D

 33 35  0  0  0  0  0  0  0  0999 V2000
   62.2250   34.4530   50.0140 H   0  0  0  0  0  0  0  0  0  0  0  0
   61.2440   34.2000   50.0130 O   0  0  0  0  0  0  0  0  0  0  0  0
   60.6130   33.6740   48.8840 C   0  0  0  0  0  0  0  0  0  0  0  0
   59.2720   33.2930   48.9780 C   0  0  0  0  0  0  0  0  0  0  0  0
   58.7371   33.4092   49.9321 H   0  0  0  0  0  0  0  0  0  0  0  0
   58.6060   32.7660   47.8700 C   0  0  0  0  0  0  0  0  0  0  0  0
   57.5535   32.4590   47.9588 H   0  0  0  0  0  0  0  0  0  0  0  0
   59.2740   32.6260   46.6420 C   0  0  0  0  0  0  0  0  0  0  0  0
   58.6120   32.0500   45.4490 C   0  0  0  0  0  0  0  0  0  0  0  0
   58.6976   32.5942   44.4969 H   0  0  0  0  0  0  0  0  0  0  0  0
   57.9140   30.9040   45.4600 C   0  0  0  0  0  0  0  0  0  0  0  0
   56.7320   30.7370   44.8910 O   0  0  0  0  0  0  0  0  0  0  0  0
   56.3440   29.4920   45.0780 C   0  0  0  0  0  0  0  0  0  0  0  0
   55.1430   28.9760   44.6100 O   0  0  0  0  0  0  0  0  0  0  0  0
   57.3040   28.8040   45.7940 C   0  0  0  0  0  0  0  0  0  0  0  0
   57.3970   27.4890   46.2520 C   0  0  0  0  0  0  0  0  0  0  0  0
   56.2200   26.3850   45.9830 S   0  0  0  0  0  0  0  0  0  0  0  0
   58.5160   27.1300   46.9480 N   0  0  0  0  0  0  0  0  0  0  0  0
   59.5360   28.0090   47.2070 C   0  0  0  0  0  0  0  0  0  0  0  0
   60.6020   27.5920   47.8920 C   0  0  0  0  0  0  0  0  0  0  0  0
   60.6566   26.5515   48.2446 H   0  0  0  0  0  0  0  0  0  0  0  0
   61.4264   28.2887   48.1043 H   0  0  0  0  0  0  0  0  0  0  0  0
   59.4520   29.3420   46.7480 C   0  0  0  0  0  0  0  0  0  0  0  0
   60.2569   30.0659   46.9431 H   0  0  0  0  0  0  0  0  0  0  0  0
   58.3070   29.7040   46.0370 C   0  0  0  0  0  0  0  0  0  0  0  0
   60.6290   32.9870   46.5550 C   0  0  0  0  0  0  0  0  0  0  0  0
   61.1681   32.8522   45.6057 H   0  0  0  0  0  0  0  0  0  0  0  0
   61.3050   33.5200   47.6710 C   0  0  0  0  0  0  0  0  0  0  0  0
   62.6550   33.9030   47.6070 O   0  0  0  0  0  0  0  0  0  0  0  0
   63.7100   33.0730   47.1300 C   0  0  0  0  0  0  0  0  0  0  0  0
   64.2545   32.6447   47.9845 H   0  0  0  0  0  0  0  0  0  0  0  0
   63.2897   32.2608   46.5186 H   0  0  0  0  0  0  0  0  0  0  0  0
   64.4004   33.6726   46.5186 H   0  0  0  0  0  0  0  0  0  0  0  0
  1  2  1  0
  2  3  1  0
  3  4  2  0
  4  5  1  0
  4  6  1  0
  6  7  1  0
  6  8  2  0
  8  9  1  0
  9 10  1  0
  9 11  2  0
 11 12  1  0
 12 13  1  0
 13 14  1  0
 13 15  2  0
 15 16  1  0
 16 17  2  0
 16 18  1  0
 18 19  1  0
 19 20  2  0
 20 21  1  0
 20 22  1  0
 19 23  1  0
 23 24  1  0
 23 25  2  0
  8 26  1  0
 26 27  1  0
 26 28  2  0
 28 29  1  0
 29 30  1  0
 30 31  1  0
 30 32  1  0
 30 33  1  0
 28  3  1  0
 25 11  1  0
 25 15  1  0
M  CHG  2  14  -1  18  -1
M  END
>  <UniqueID>  (44) 
37

>  <SMILES>  (44) 
C=c1cc2/c(=C/c3ccc(O)c(OC)c3)oc([O-])c2c(=S)[n-]1

>  <Energy>  (44) 
78.39635002646027

>  <Genealogy>  (44) 
C=c1cc2c(=Cc3ccc(O)c(OC)c3)oc([O-])c2c(=S)[n-]1 (protonated)
C=c1cc2/c(=C/c3ccc(O)c(OC)c3)oc([O-])c2c(=S)[n-]1 (cis-trans isomerization)
C=c1cc2/c(=C/c3ccc(O)c(OC)c3)oc([O-])c2c(=S)[n-]1 (3D coordinates assigned)
C=c1cc2/c(=C/c3ccc(O)c(OC)c3)oc([O-])c2c(=S)[n-]1 (optimized conformer: 78.39635002646027 kcal/mol)

>  <smiles>  (44) 
C=c1cc2c(=Cc3ccc(O)c(OC)c3)oc(O)c2c(=S)[nH]1

>  <score_type>  (44) 
oracle

>  <origin>  (44) 
adg

>  <m_score__min__energy>  (44) 
-10.43

>  <m_primary>  (44) 
energy

$$$$
44:0
     RDKit          3D

 47 50  0  0  0  0  0  0  0  0999 V2000
   56.9030   24.1800   46.8880 C   0  0  0  0  0  0  0  0  0  0  0  0
   57.3370   25.5830   46.5780 C   0  0  0  0  0  0  0  0  0  0  0  0
   58.6010   26.0360   46.9840 C   0  0  0  0  0  0  0  0  0  0  0  0
   59.0000   27.3490   46.7200 C   0  0  0  0  0  0  0  0  0  0  0  0
   58.1370   28.2230   46.0460 C   0  0  0  0  0  0  0  0  0  0  0  0
   58.5270   29.5310   45.7330 C   0  0  0  0  0  0  0  0  0  0  0  0
   57.6530   30.3840   45.0390 C   0  0  0  0  0  0  0  0  0  0  0  0
   58.1040   31.7780   44.6450 C   0  0  0  0  0  0  0  0  0  0  0  0
   57.6990   32.8310   45.6080 N   0  0  0  0  0  0  0  0  0  0  0  0
   58.0970   34.2140   45.2620 C   0  0  0  0  0  0  0  0  0  0  0  0
   59.4790   34.5960   45.8290 C   0  0  0  0  0  0  0  0  0  0  0  0
   59.7360   33.9340   47.1140 N   0  0  0  0  0  0  0  0  0  0  0  0
   61.0920   33.6930   47.5540 C   0  0  0  0  0  0  0  0  0  0  0  0
   61.5440   34.1640   48.8020 C   0  0  0  0  0  0  0  0  0  0  0  0
   62.8440   33.8920   49.2360 C   0  0  0  0  0  0  0  0  0  0  0  0
   63.7070   33.1360   48.4400 C   0  0  0  0  0  0  0  0  0  0  0  0
   64.9610   32.8590   48.8710 F   0  0  0  0  0  0  0  0  0  0  0  0
   63.2720   32.6580   47.2020 C   0  0  0  0  0  0  0  0  0  0  0  0
   61.9750   32.9350   46.7600 C   0  0  0  0  0  0  0  0  0  0  0  0
   58.5750   33.4750   47.8780 C   0  0  0  0  0  0  0  0  0  0  0  0
   57.7880   32.4590   47.0420 C   0  0  0  0  0  0  0  0  0  0  0  0
   56.3570   29.9140   44.7340 C   0  0  0  0  0  0  0  0  0  0  0  0
   55.5190   30.6600   44.1630 O   0  0  0  0  0  0  0  0  0  0  0  0
   56.0030   28.6380   45.0420 N   0  0  0  0  0  0  0  0  0  0  0  0
   56.8540   27.7830   45.6670 C   0  0  0  0  0  0  0  0  0  0  0  0
   56.4560   26.4690   45.9390 C   0  0  0  0  0  0  0  0  0  0  0  0
   56.8603   24.0419   47.9785 H   0  0  0  0  0  0  0  0  0  0  0  0
   55.9073   24.0004   46.4564 H   0  0  0  0  0  0  0  0  0  0  0  0
   57.6234   23.4695   46.4564 H   0  0  0  0  0  0  0  0  0  0  0  0
   59.2822   25.3536   47.5134 H   0  0  0  0  0  0  0  0  0  0  0  0
   59.9928   27.6967   47.0417 H   0  0  0  0  0  0  0  0  0  0  0  0
   59.5221   29.8921   46.0319 H   0  0  0  0  0  0  0  0  0  0  0  0
   59.2014   31.7796   44.5701 H   0  0  0  0  0  0  0  0  0  0  0  0
   57.6172   32.0143   43.6873 H   0  0  0  0  0  0  0  0  0  0  0  0
   58.1283   34.3073   44.1664 H   0  0  0  0  0  0  0  0  0  0  0  0
   57.3560   34.8939   45.7077 H   0  0  0  0  0  0  0  0  0  0  0  0
   60.2556   34.2951   45.1104 H   0  0  0  0  0  0  0  0  0  0  0  0
   59.4961   35.6837   45.9920 H   0  0  0  0  0  0  0  0  0  0  0  0
   60.8677   34.7511   49.4406 H   0  0  0  0  0  0  0  0  0  0  0  0
   63.1888   34.2747   50.2080 H   0  0  0  0  0  0  0  0  0  0  0  0
   63.9509   32.0627   46.5738 H   0  0  0  0  0  0  0  0  0  0  0  0
   61.6406   32.5573   45.7825 H   0  0  0  0  0  0  0  0  0  0  0  0
   58.9133   33.0000   48.8107 H   0  0  0  0  0  0  0  0  0  0  0  0
   57.9298   34.3327   48.1189 H   0  0  0  0  0  0  0  0  0  0  0  0
   58.2854   31.4810   47.1200 H   0  0  0  0  0  0  0  0  0  0  0  0
   56.7623   32.4316   47.4385 H   0  0  0  0  0  0  0  0  0  0  0  0
   55.4500   26.1299   45.6511 H   0  0  0  0  0  0  0  0  0  0  0  0
  1  2  1  0
  2  3  2  0
  3  4  1  0
  4  5  2  0
  5  6  1  0
  6  7  2  0
  7  8  1  0
  8  9  1  0
  9 10  1  0
 10 11  1  0
 11 12  1  0
 12 13  1  0
 13 14  2  0
 14 15  1  0
 15 16  2  0
 16 17  1  0
 16 18  1  0
 18 19  2  0
 12 20  1  0
 20 21  1  0
  7 22  1  0
 22 23  2  0
 22 24  1  0
 24 25  1  0
 25 26  2  0
 26  2  1  0
 25  5  1  0
 21  9  1  0
 19 13  1  0
  1 27  1  0
  1 28  1  0
  1 29  1  0
  3 30  1  0
  4 31  1  0
  6 32  1  0
  8 33  1  0
  8 34  1  0
 10 35  1  0
 10 36  1  0
 11 37  1  0
 11 38  1  0
 14 39  1  0
 15 40  1  0
 18 41  1  0
 19 42  1  0
 20 43  1  0
 20 44  1  0
 21 45  1  0
 21 46  1  0
 26 47  1  0
M  CHG  1  24  -1
M  END
>  <UniqueID>  (45) 
38

>  <SMILES>  (45) 
Cc1ccc2cc(CN3CCN(c4ccc(F)cc4)CC3)c(=O)[n-]c2c1

>  <Energy>  (45) 
66.04335822567899

>  <Genealogy>  (45) 
Cc1ccc2cc(CN3CCN(c4ccc(F)cc4)CC3)c(=O)[n-]c2c1 (protonated)
Cc1ccc2cc(CN3CCN(c4ccc(F)cc4)CC3)c(=O)[n-]c2c1 (3D coordinates assigned)
Cc1ccc2cc(CN3CCN(c4ccc(F)cc4)CC3)c(=O)[n-]c2c1 (nonaromatic ring conformer: 66.04335822567899 kcal/mol)

>  <smiles>  (45) 
Cc1ccc2cc(CN3CCN(c4ccc(F)cc4)CC3)c(=O)[nH]c2c1

>  <score_type>  (45) 
oracle

>  <origin>  (45) 
adg

>  <m_score__min__energy>  (45) 
-11.51

>  <m_primary>  (45) 
energy

$$$$
45:0
     RDKit          3D

 66 69  0  0  0  0  0  0  0  0999 V2000
   67.5020   29.8100   51.6590 C   0  0  0  0  0  0  0  0  0  0  0  0
   66.4160   30.7310   51.1860 C   0  0  0  0  0  0  0  0  0  0  0  0
   66.7400   31.9040   50.4860 C   0  0  0  0  0  0  0  0  0  0  0  0
   65.7280   32.7450   50.0150 C   0  0  0  0  0  0  0  0  0  0  0  0
   64.3840   32.4170   50.2320 C   0  0  0  0  0  0  0  0  0  0  0  0
   63.0840   33.4940   49.6160 S   0  0  0  0  0  0  0  0  0  0  0  0
   63.7250   33.5830   47.9050 C   0  0  0  0  0  0  0  0  0  0  0  0
   62.5950   33.8450   46.9050 C   0  0  0  0  0  0  0  0  0  0  0  0
   61.3050   34.2580   47.6200 C   0  0  0  0  0  0  0  0  0  0  0  0
   60.1260   33.5490   47.0110 C   0  0  0  0  0  0  0  0  0  0  0  0
   59.2580   32.7990   47.8190 C   0  0  0  0  0  0  0  0  0  0  0  0
   58.2180   32.0640   47.2440 C   0  0  0  0  0  0  0  0  0  0  0  0
   58.0570   32.0410   45.8520 C   0  0  0  0  0  0  0  0  0  0  0  0
   57.0400   31.2740   45.2660 O   0  0  0  0  0  0  0  0  0  0  0  0
   57.1800   29.9160   44.8030 C   0  0  0  0  0  0  0  0  0  0  0  0
   56.0540   29.6790   43.8200 C   0  0  0  0  0  0  0  0  0  0  0  0
   54.9180   29.2990   44.2120 O   0  0  0  0  0  0  0  0  0  0  0  0
   56.2430   29.9600   42.4710 O   0  0  0  0  0  0  0  0  0  0  0  0
   58.5600   29.7260   44.0980 C   0  0  0  0  0  0  0  0  0  0  0  0
   59.0540   28.2730   44.1970 C   0  0  0  0  0  0  0  0  0  0  0  0
   59.2350   27.8200   45.6040 N   0  0  0  0  0  0  0  0  0  0  0  0
   60.6490   27.8770   46.0330 C   0  0  0  0  0  0  0  0  0  0  0  0
   60.7650   28.5210   47.3930 C   0  0  0  0  0  0  0  0  0  0  0  0
   60.5870   27.7430   48.5530 C   0  0  0  0  0  0  0  0  0  0  0  0
   60.3040   26.4190   48.4580 F   0  0  0  0  0  0  0  0  0  0  0  0
   60.7020   28.3290   49.8180 C   0  0  0  0  0  0  0  0  0  0  0  0
   60.9910   29.6890   49.9380 C   0  0  0  0  0  0  0  0  0  0  0  0
   61.1680   30.4700   48.7930 C   0  0  0  0  0  0  0  0  0  0  0  0
   61.0560   29.8940   47.5240 C   0  0  0  0  0  0  0  0  0  0  0  0
   61.2360   30.6740   46.4280 F   0  0  0  0  0  0  0  0  0  0  0  0
   58.3680   28.5210   46.5840 C   0  0  0  0  0  0  0  0  0  0  0  0
   57.0130   28.9070   45.9760 C   0  0  0  0  0  0  0  0  0  0  0  0
   58.8920   32.8270   45.0480 C   0  0  0  0  0  0  0  0  0  0  0  0
   59.9320   33.5640   45.6210 C   0  0  0  0  0  0  0  0  0  0  0  0
   64.0560   31.2320   50.9010 C   0  0  0  0  0  0  0  0  0  0  0  0
   65.0670   30.3910   51.3750 C   0  0  0  0  0  0  0  0  0  0  0  0
   67.5180   29.7964   52.7588 H   0  0  0  0  0  0  0  0  0  0  0  0
   67.3111   28.7942   51.2825 H   0  0  0  0  0  0  0  0  0  0  0  0
   68.4730   30.1642   51.2825 H   0  0  0  0  0  0  0  0  0  0  0  0
   67.7943   32.1621   50.3076 H   0  0  0  0  0  0  0  0  0  0  0  0
   65.9877   33.6662   49.4729 H   0  0  0  0  0  0  0  0  0  0  0  0
   64.4596   34.3991   47.8387 H   0  0  0  0  0  0  0  0  0  0  0  0
   64.1938   32.6192   47.6573 H   0  0  0  0  0  0  0  0  0  0  0  0
   62.9004   34.6515   46.2222 H   0  0  0  0  0  0  0  0  0  0  0  0
   62.4016   32.9164   46.3479 H   0  0  0  0  0  0  0  0  0  0  0  0
   61.3785   33.9928   48.6850 H   0  0  0  0  0  0  0  0  0  0  0  0
   61.1663   35.3440   47.5132 H   0  0  0  0  0  0  0  0  0  0  0  0
   59.3969   32.7896   48.9102 H   0  0  0  0  0  0  0  0  0  0  0  0
   57.5237   31.5018   47.8857 H   0  0  0  0  0  0  0  0  0  0  0  0
   58.4583   29.9964   43.0366 H   0  0  0  0  0  0  0  0  0  0  0  0
   59.2940   30.3728   44.6010 H   0  0  0  0  0  0  0  0  0  0  0  0
   58.3180   27.6174   43.7086 H   0  0  0  0  0  0  0  0  0  0  0  0
   60.0359   28.2225   43.7037 H   0  0  0  0  0  0  0  0  0  0  0  0
   61.0539   26.8554   46.0809 H   0  0  0  0  0  0  0  0  0  0  0  0
   61.2165   28.4771   45.3065 H   0  0  0  0  0  0  0  0  0  0  0  0
   60.5642   27.7160   50.7209 H   0  0  0  0  0  0  0  0  0  0  0  0
   61.0795   30.1464   50.9345 H   0  0  0  0  0  0  0  0  0  0  0  0
   61.3962   31.5416   48.8903 H   0  0  0  0  0  0  0  0  0  0  0  0
   58.1957   27.8578   47.4445 H   0  0  0  0  0  0  0  0  0  0  0  0
   58.8793   29.4451   46.8916 H   0  0  0  0  0  0  0  0  0  0  0  0
   56.5190   27.9994   45.5990 H   0  0  0  0  0  0  0  0  0  0  0  0
   56.4075   29.3862   46.7594 H   0  0  0  0  0  0  0  0  0  0  0  0
   58.7285   32.8644   43.9609 H   0  0  0  0  0  0  0  0  0  0  0  0
   60.6007   34.1578   44.9805 H   0  0  0  0  0  0  0  0  0  0  0  0
   63.0007   30.9621   51.0540 H   0  0  0  0  0  0  0  0  0  0  0  0
   64.8047   29.4595   51.8979 H   0  0  0  0  0  0  0  0  0  0  0  0
  1  2  1  0
  2  3  2  0
  3  4  1  0
  4  5  2  0
  5  6  1  0
  6  7  1  0
  7  8  1  0
  8  9  1  0
  9 10  1  0
 10 11  2  0
 11 12  1  0
 12 13  2  0
 13 14  1  0
 14 15  1  0
 15 16  1  0
 16 17  2  0
 16 18  1  0
 15 19  1  0
 19 20  1  0
 20 21  1  0
 21 22  1  0
 22 23  1  0
 23 24  2  0
 24 25  1  0
 24 26  1  0
 26 27  2  0
 27 28  1  0
 28 29  2  0
 29 30  1  0
 21 31  1  0
 31 32  1  0
 13 33  1  0
 33 34  2  0
  5 35  1  0
 35 36  2  0
 36  2  1  0
 34 10  1  0
 32 15  1  0
 29 23  1  0
  1 37  1  0
  1 38  1  0
  1 39  1  0
  3 40  1  0
  4 41  1  0
  7 42  1  0
  7 43  1  0
  8 44  1  0
  8 45  1  0
  9 46  1  0
  9 47  1  0
 11 48  1  0
 12 49  1  0
 19 50  1  0
 19 51  1  0
 20 52  1  0
 20 53  1  0
 22 54  1  0
 22 55  1  0
 26 56  1  0
 27 57  1  0
 28 58  1  0
 31 59  1  0
 31 60  1  0
 32 61  1  0
 32 62  1  0
 33 63  1  0
 34 64  1  0
 35 65  1  0
 36 66  1  0
M  CHG  1  18  -1
M  END
>  <UniqueID>  (46) 
39

>  <SMILES>  (46) 
Cc1ccc(SCCCc2ccc(OC3(C(=O)[O-])CCN(Cc4c(F)cccc4F)CC3)cc2)cc1

>  <Energy>  (46) 
79.5368771327094

>  <Genealogy>  (46) 
Cc1ccc(SCCCc2ccc(OC3(C(=O)[O-])CCN(Cc4c(F)cccc4F)CC3)cc2)cc1 (protonated)
Cc1ccc(SCCCc2ccc(OC3(C(=O)[O-])CCN(Cc4c(F)cccc4F)CC3)cc2)cc1 (3D coordinates assigned)
Cc1ccc(SCCCc2ccc(OC3(C(=O)[O-])CCN(Cc4c(F)cccc4F)CC3)cc2)cc1 (nonaromatic ring conformer: 79.5368771327094 kcal/mol)

>  <smiles>  (46) 
Cc1ccc(SCCCc2ccc(OC3(C(=O)O)CCN(Cc4c(F)cccc4F)CC3)cc2)cc1

>  <score_type>  (46) 
oracle

>  <origin>  (46) 
adg

>  <m_score__min__energy>  (46) 
-12.08

>  <m_primary>  (46) 
energy

$$$$
46:0
     RDKit          3D

 41 44  0  0  0  0  0  0  0  0999 V2000
   62.2040   33.7050   46.7150 C   0  0  0  0  0  0  0  0  0  0  0  0
   61.0490   33.8390   48.0620 S   0  0  0  0  0  0  0  0  0  0  0  0
   59.7190   34.3370   47.5680 O   0  0  0  0  0  0  0  0  0  0  0  0
   61.5890   34.8190   49.0650 O   0  0  0  0  0  0  0  0  0  0  0  0
   60.8550   32.3000   48.8390 N   0  0  0  0  0  0  0  0  0  0  0  0
   60.4370   31.0840   48.2010 C   0  0  0  0  0  0  0  0  0  0  0  0
   61.0070   29.8440   48.5080 C   0  0  0  0  0  0  0  0  0  0  0  0
   60.5560   28.6890   47.8720 C   0  0  0  0  0  0  0  0  0  0  0  0
   59.5280   28.7330   46.9130 C   0  0  0  0  0  0  0  0  0  0  0  0
   58.9730   30.0000   46.5640 C   0  0  0  0  0  0  0  0  0  0  0  0
   59.4280   31.1500   47.2380 C   0  0  0  0  0  0  0  0  0  0  0  0
   57.8790   30.2060   45.5410 C   0  0  0  0  0  0  0  0  0  0  0  0
   57.8510   29.1570   44.4390 C   0  0  0  0  0  0  0  0  0  0  0  0
   57.2310   27.9410   44.9420 N   0  0  0  0  0  0  0  0  0  0  0  0
   57.8110   27.1730   45.8200 C   0  0  0  0  0  0  0  0  0  0  0  0
   57.1690   25.9170   46.2750 C   0  0  0  0  0  0  0  0  0  0  0  0
   57.8830   24.8990   46.8200 N   0  0  0  0  0  0  0  0  0  0  0  0
   56.9690   23.9460   47.0800 C   0  0  0  0  0  0  0  0  0  0  0  0
   57.2250   22.7320   47.6310 N   0  0  0  0  0  0  0  0  0  0  0  0
   56.1930   21.8570   47.8250 C   0  0  0  0  0  0  0  0  0  0  0  0
   54.8740   22.2060   47.4530 C   0  0  0  0  0  0  0  0  0  0  0  0
   54.6210   23.4650   46.8800 C   0  0  0  0  0  0  0  0  0  0  0  0
   55.7060   24.3160   46.7110 C   0  0  0  0  0  0  0  0  0  0  0  0
   55.8170   25.5760   46.1860 C   0  0  0  0  0  0  0  0  0  0  0  0
   54.7840   26.3260   45.6370 O   0  0  0  0  0  0  0  0  0  0  0  0
   59.1210   27.4810   46.3230 N   0  0  0  0  0  0  0  0  0  0  0  0
   63.2218   33.5869   47.1151 H   0  0  0  0  0  0  0  0  0  0  0  0
   61.9486   32.8305   46.0986 H   0  0  0  0  0  0  0  0  0  0  0  0
   62.1556   34.6148   46.0986 H   0  0  0  0  0  0  0  0  0  0  0  0
   61.8134   29.7804   49.2534 H   0  0  0  0  0  0  0  0  0  0  0  0
   61.0140   27.7216   48.1255 H   0  0  0  0  0  0  0  0  0  0  0  0
   58.9771   32.1247   46.9998 H   0  0  0  0  0  0  0  0  0  0  0  0
   56.9106   30.1848   46.0623 H   0  0  0  0  0  0  0  0  0  0  0  0
   58.0792   31.1716   45.0537 H   0  0  0  0  0  0  0  0  0  0  0  0
   57.2715   29.5378   43.5851 H   0  0  0  0  0  0  0  0  0  0  0  0
   58.8793   28.9374   44.1159 H   0  0  0  0  0  0  0  0  0  0  0  0
   56.2760   27.7160   44.5880 H   0  0  0  0  0  0  0  0  0  0  0  0
   56.3902   20.8726   48.2745 H   0  0  0  0  0  0  0  0  0  0  0  0
   54.0493   21.4955   47.6112 H   0  0  0  0  0  0  0  0  0  0  0  0
   53.6062   23.7636   46.5782 H   0  0  0  0  0  0  0  0  0  0  0  0
   59.7320   26.6530   46.5060 H   0  0  0  0  0  0  0  0  0  0  0  0
  1  2  1  0
  2  3  2  0
  2  4  2  0
  2  5  1  0
  5  6  1  0
  6  7  2  0
  7  8  1  0
  8  9  2  0
  9 10  1  0
 10 11  2  0
 10 12  1  0
 12 13  1  0
 13 14  1  0
 14 15  2  0
 15 16  1  0
 16 17  1  0
 17 18  1  0
 18 19  2  0
 19 20  1  0
 20 21  2  0
 21 22  1  0
 22 23  2  0
 23 24  1  0
 24 25  1  0
 15 26  1  0
 11  6  1  0
 24 16  2  0
 26  9  1  0
 23 18  1  0
  1 27  1  0
  1 28  1  0
  1 29  1  0
  7 30  1  0
  8 31  1  0
 11 32  1  0
 12 33  1  0
 12 34  1  0
 13 35  1  0
 13 36  1  0
 14 37  1  0
 20 38  1  0
 21 39  1  0
 22 40  1  0
 26 41  1  0
M  CHG  4   5  -1  14   1  17  -1  25  -1
M  END
>  <UniqueID>  (47) 
40

>  <SMILES>  (47) 
CS(=O)(=O)[N-]c1ccc2c(c1)CC[NH+]=C(c1[n-]c3ncccc3c1[O-])N2

>  <Energy>  (47) 
93.08695397680486

>  <Genealogy>  (47) 
CS(=O)(=O)[N-]c1ccc2c(c1)CC[NH+]=C(c1[n-]c3ncccc3c1[O-])N2 (protonated)
CS(=O)(=O)[N-]c1ccc2c(c1)CC[NH+]=C(c1[n-]c3ncccc3c1[O-])N2 (3D coordinates assigned)
CS(=O)(=O)[N-]c1ccc2c(c1)CC[NH+]=C(c1[n-]c3ncccc3c1[O-])N2 (nonaromatic ring conformer: 93.08695397680486 kcal/mol)

>  <smiles>  (47) 
CS(=O)(=O)Nc1ccc2c(c1)CCN=C(c1[nH]c3ncccc3c1O)N2

>  <score_type>  (47) 
oracle

>  <origin>  (47) 
adg

>  <m_score__min__energy>  (47) 
-10.94

>  <m_primary>  (47) 
energy

$$$$
47:0
     RDKit          3D

 69 73  0  0  0  0  0  0  0  0999 V2000
   59.4500   29.1220   47.0450 C   0  0  0  0  0  0  0  0  0  0  0  0
   58.4290   29.8230   46.1920 C   0  0  0  0  0  0  0  0  0  0  0  0
   57.2680   29.1160   45.8480 C   0  0  0  0  0  0  0  0  0  0  0  0
   56.2970   29.6910   45.0330 C   0  0  0  0  0  0  0  0  0  0  0  0
   55.1430   28.9810   44.7200 O   0  0  0  0  0  0  0  0  0  0  0  0
   56.4820   30.9740   44.5270 C   0  0  0  0  0  0  0  0  0  0  0  0
   57.6410   31.7060   44.8310 C   0  0  0  0  0  0  0  0  0  0  0  0
   57.7920   33.0790   44.2240 C   0  0  0  0  0  0  0  0  0  0  0  0
   58.6280   31.1430   45.6970 C   0  0  0  0  0  0  0  0  0  0  0  0
   59.8540   31.9590   46.1010 C   0  0  0  0  0  0  0  0  0  0  0  0
   59.4960   33.1280   47.0620 C   0  0  2  0  0  0  0  0  0  0  0  0
   59.5880   34.4250   46.3850 N   0  0  0  0  0  0  0  0  0  0  0  0
   60.3350   33.0980   48.3280 C   0  0  0  0  0  0  0  0  0  0  0  0
   60.9290   34.1580   48.6630 O   0  0  0  0  0  0  0  0  0  0  0  0
   60.4270   31.9450   49.1950 N   0  0  0  0  0  0  0  0  0  0  0  0
   59.2950   31.3950   49.9290 C   0  0  0  0  0  0  0  0  0  0  0  0
   59.6020   29.9190   50.1360 C   0  0  0  0  0  0  0  0  0  0  0  0
   61.1060   29.7930   49.9640 C   0  0  0  0  0  0  0  0  0  0  0  0
   61.4970   30.9600   49.0570 C   0  0  2  0  0  0  0  0  0  0  0  0
   62.8260   31.5410   49.4600 C   0  0  0  0  0  0  0  0  0  0  0  0
   63.3450   32.6850   48.7950 C   0  0  0  0  0  0  0  0  0  0  0  0
   64.6040   33.2010   49.1590 C   0  0  0  0  0  0  0  0  0  0  0  0
   65.2940   32.5370   50.1660 C   0  0  0  0  0  0  0  0  0  0  0  0
   66.5180   32.7370   50.7760 C   0  0  0  0  0  0  0  0  0  0  0  0
   67.4870   33.8410   50.5070 C   0  0  0  0  0  0  0  0  0  0  0  0
   66.6770   31.7800   51.7230 N   0  0  0  0  0  0  0  0  0  0  0  0
   65.6140   30.9810   51.7180 N   0  0  0  0  0  0  0  0  0  0  0  0
   65.4240   29.8330   52.6050 C   0  0  0  0  0  0  0  0  0  0  0  0
   66.0650   28.5990   52.0070 C   0  0  0  0  0  0  0  0  0  0  0  0
   67.3910   28.6830   51.5330 C   0  0  0  0  0  0  0  0  0  0  0  0
   68.1000   29.8340   51.6710 F   0  0  0  0  0  0  0  0  0  0  0  0
   67.9930   27.5890   50.9060 C   0  0  0  0  0  0  0  0  0  0  0  0
   67.2830   26.3970   50.7480 C   0  0  0  0  0  0  0  0  0  0  0  0
   65.9740   26.2910   51.2270 C   0  0  0  0  0  0  0  0  0  0  0  0
   65.3590   27.3800   51.8600 C   0  0  0  0  0  0  0  0  0  0  0  0
   63.7210   27.1660   52.4680 Cl  0  0  0  0  0  0  0  0  0  0  0  0
   64.7680   31.4400   50.7780 C   0  0  0  0  0  0  0  0  0  0  0  0
   63.5550   30.9320   50.4470 N   0  0  0  0  0  0  0  0  0  0  0  0
   59.2140   29.2840   48.1071 H   0  0  0  0  0  0  0  0  0  0  0  0
   59.4331   28.0442   46.8259 H   0  0  0  0  0  0  0  0  0  0  0  0
   60.4498   29.5250   46.8259 H   0  0  0  0  0  0  0  0  0  0  0  0
   57.1226   28.0937   46.2271 H   0  0  0  0  0  0  0  0  0  0  0  0
   55.7112   31.4200   43.8813 H   0  0  0  0  0  0  0  0  0  0  0  0
   57.8743   33.8274   45.0259 H   0  0  0  0  0  0  0  0  0  0  0  0
   58.6987   33.1071   43.6018 H   0  0  0  0  0  0  0  0  0  0  0  0
   56.9131   33.3035   43.6018 H   0  0  0  0  0  0  0  0  0  0  0  0
   60.5709   31.2940   46.6049 H   0  0  0  0  0  0  0  0  0  0  0  0
   60.2835   32.3950   45.1870 H   0  0  0  0  0  0  0  0  0  0  0  0
   58.4486   32.9876   47.3673 H   0  0  0  0  0  0  0  0  0  0  0  0
   60.3600   34.3790   45.6830 H   0  0  0  0  0  0  0  0  0  0  0  0
   59.8580   35.1640   47.0710 H   0  0  0  0  0  0  0  0  0  0  0  0
   59.1866   31.9019   50.8992 H   0  0  0  0  0  0  0  0  0  0  0  0
   58.3530   31.5358   49.3787 H   0  0  0  0  0  0  0  0  0  0  0  0
   59.3019   29.6012   51.1454 H   0  0  0  0  0  0  0  0  0  0  0  0
   59.0538   29.2831   49.4253 H   0  0  0  0  0  0  0  0  0  0  0  0
   61.6147   29.8711   50.9362 H   0  0  0  0  0  0  0  0  0  0  0  0
   61.3941   28.8214   49.5363 H   0  0  0  0  0  0  0  0  0  0  0  0
   61.6122   30.6354   48.0123 H   0  0  0  0  0  0  0  0  0  0  0  0
   62.7632   33.1675   47.9958 H   0  0  0  0  0  0  0  0  0  0  0  0
   65.0230   34.0913   48.6673 H   0  0  0  0  0  0  0  0  0  0  0  0
   67.8481   34.2525   51.4611 H   0  0  0  0  0  0  0  0  0  0  0  0
   68.3383   33.4494   49.9309 H   0  0  0  0  0  0  0  0  0  0  0  0
   66.9883   34.6343   49.9309 H   0  0  0  0  0  0  0  0  0  0  0  0
   67.4950   31.6790   52.3660 H   0  0  0  0  0  0  0  0  0  0  0  0
   65.8865   30.0466   53.5799 H   0  0  0  0  0  0  0  0  0  0  0  0
   64.3465   29.6520   52.7323 H   0  0  0  0  0  0  0  0  0  0  0  0
   69.0263   27.6667   50.5368 H   0  0  0  0  0  0  0  0  0  0  0  0
   67.7547   25.5396   50.2456 H   0  0  0  0  0  0  0  0  0  0  0  0
   65.4229   25.3467   51.1064 H   0  0  0  0  0  0  0  0  0  0  0  0
  1  2  1  0
  2  3  2  0
  3  4  1  0
  4  5  1  0
  4  6  2  0
  6  7  1  0
  7  8  1  0
  7  9  2  0
  9 10  1  0
 10 11  1  0
 11 12  1  0
 11 13  1  0
 13 14  2  0
 13 15  1  0
 15 16  1  0
 16 17  1  0
 17 18  1  0
 18 19  1  0
 19 20  1  0
 20 21  2  0
 21 22  1  0
 22 23  2  0
 23 24  1  0
 24 25  1  0
 24 26  2  0
 26 27  1  0
 27 28  1  0
 28 29  1  0
 29 30  2  0
 30 31  1  0
 30 32  1  0
 32 33  2  0
 33 34  1  0
 34 35  2  0
 35 36  1  0
 27 37  1  0
 37 38  2  0
  9  2  1  0
 19 15  1  0
 38 20  1  0
 37 23  1  0
 35 29  1  0
  1 39  1  0
  1 40  1  0
  1 41  1  0
  3 42  1  0
  6 43  1  0
  8 44  1  0
  8 45  1  0
  8 46  1  0
 10 47  1  0
 10 48  1  0
 11 49  1  1
 12 50  1  0
 12 51  1  0
 16 52  1  0
 16 53  1  0
 17 54  1  0
 17 55  1  0
 18 56  1  0
 18 57  1  0
 19 58  1  6
 21 59  1  0
 22 60  1  0
 25 61  1  0
 25 62  1  0
 25 63  1  0
 26 64  1  0
 28 65  1  0
 28 66  1  0
 32 67  1  0
 33 68  1  0
 34 69  1  0
M  CHG  2   5  -1  26   1
M  END
>  <UniqueID>  (48) 
41

>  <SMILES>  (48) 
Cc1cc([O-])cc(C)c1C[C@H](N)C(=O)N1CCC[C@@H]1c1ccc2c(C)[nH+]n(Cc3c(F)cccc3Cl)c2n1

>  <Energy>  (48) 
117.59800041133303

>  <Genealogy>  (48) 
Cc1cc([O-])cc(C)c1CC(N)C(=O)N1CCCC1c1ccc2c(C)[nH+]n(Cc3c(F)cccc3Cl)c2n1 (protonated)
Cc1cc([O-])cc(C)c1C[C@H](N)C(=O)N1CCC[C@@H]1c1ccc2c(C)[nH+]n(Cc3c(F)cccc3Cl)c2n1 (chirality)
Cc1cc([O-])cc(C)c1C[C@H](N)C(=O)N1CCC[C@@H]1c1ccc2c(C)[nH+]n(Cc3c(F)cccc3Cl)c2n1 (3D coordinates assigned)
Cc1cc([O-])cc(C)c1C[C@H](N)C(=O)N1CCC[C@@H]1c1ccc2c(C)[nH+]n(Cc3c(F)cccc3Cl)c2n1 (nonaromatic ring conformer: 117.59800041133303 kcal/mol)

>  <smiles>  (48) 
Cc1cc(O)cc(C)c1CC(N)C(=O)N1CCCC1c1ccc2c(C)nn(Cc3c(F)cccc3Cl)c2n1

>  <score_type>  (48) 
oracle

>  <origin>  (48) 
adg

>  <m_score__min__energy>  (48) 
-12.42

>  <m_primary>  (48) 
energy

$$$$
48:0
     RDKit          3D

 37 39  0  0  0  0  0  0  0  0999 V2000
   57.9770   27.9040   44.1450 C   0  0  0  0  0  0  0  0  0  0  0  0
   57.3370   28.6680   45.2240 C   0  0  0  0  0  0  0  0  0  0  0  0
   57.4280   28.2150   46.4060 O   0  0  0  0  0  0  0  0  0  0  0  0
   56.6340   29.8720   44.9870 O   0  0  0  0  0  0  0  0  0  0  0  0
   57.1470   30.8300   44.1270 C   0  0  0  0  0  0  0  0  0  0  0  0
   56.7390   30.7600   42.8060 C   0  0  0  0  0  0  0  0  0  0  0  0
   57.1860   31.6570   41.8660 C   0  0  0  0  0  0  0  0  0  0  0  0
   58.0560   32.6330   42.2740 C   0  0  0  0  0  0  0  0  0  0  0  0
   58.4550   32.6970   43.5750 C   0  0  0  0  0  0  0  0  0  0  0  0
   58.0160   31.7960   44.5540 C   0  0  0  0  0  0  0  0  0  0  0  0
   58.4650   31.9390   45.9290 C   0  0  0  0  0  0  0  0  0  0  0  0
   59.1960   32.9770   46.3660 N   0  0  0  0  0  0  0  0  0  0  0  0
   59.4810   32.8580   47.6680 C   0  0  0  0  0  0  0  0  0  0  0  0
   60.2400   33.8430   48.4120 C   0  0  0  0  0  0  0  0  0  0  0  0
   59.6680   34.9500   48.6680 O   0  0  0  0  0  0  0  0  0  0  0  0
   61.5910   33.6820   48.8930 C   0  0  0  0  0  0  0  0  0  0  0  0
   61.7490   33.5430   50.2760 C   0  0  0  0  0  0  0  0  0  0  0  0
   63.0150   33.3590   50.7980 C   0  0  0  0  0  0  0  0  0  0  0  0
   64.1090   33.3150   49.9580 C   0  0  0  0  0  0  0  0  0  0  0  0
   63.9900   33.4470   48.5960 C   0  0  0  0  0  0  0  0  0  0  0  0
   62.7100   33.6310   48.0920 C   0  0  0  0  0  0  0  0  0  0  0  0
   62.5610   33.8340   46.3660 Cl  0  0  0  0  0  0  0  0  0  0  0  0
   58.8950   31.6790   48.0710 C   0  0  0  0  0  0  0  0  0  0  0  0
   58.2900   31.1510   46.9950 N   0  0  0  0  0  0  0  0  0  0  0  0
   58.6260   27.1293   44.5793 H   0  0  0  0  0  0  0  0  0  0  0  0
   57.2037   27.4285   43.5238 H   0  0  0  0  0  0  0  0  0  0  0  0
   58.5807   28.5820   43.5238 H   0  0  0  0  0  0  0  0  0  0  0  0
   56.0400   29.9671   42.5015 H   0  0  0  0  0  0  0  0  0  0  0  0
   56.8555   31.5932   40.8188 H   0  0  0  0  0  0  0  0  0  0  0  0
   58.4341   33.3681   41.5483 H   0  0  0  0  0  0  0  0  0  0  0  0
   59.1543   33.4930   43.8706 H   0  0  0  0  0  0  0  0  0  0  0  0
   60.8739   33.5798   50.9414 H   0  0  0  0  0  0  0  0  0  0  0  0
   63.1509   33.2475   51.8839 H   0  0  0  0  0  0  0  0  0  0  0  0
   65.1087   33.1695   50.3933 H   0  0  0  0  0  0  0  0  0  0  0  0
   64.8686   33.4086   47.9352 H   0  0  0  0  0  0  0  0  0  0  0  0
   58.9182   31.2504   49.0838 H   0  0  0  0  0  0  0  0  0  0  0  0
   57.7650   30.2570   47.0260 H   0  0  0  0  0  0  0  0  0  0  0  0
  1  2  1  0
  2  3  2  0
  2  4  1  0
  4  5  1  0
  5  6  2  0
  6  7  1  0
  7  8  2  0
  8  9  1  0
  9 10  2  0
 10 11  1  0
 11 12  2  0
 12 13  1  0
 13 14  1  0
 14 15  2  0
 14 16  1  0
 16 17  2  0
 17 18  1  0
 18 19  2  0
 19 20  1  0
 20 21  2  0
 21 22  1  0
 13 23  2  0
 23 24  1  0
 10  5  1  0
 24 11  1  0
 21 16  1  0
  1 25  1  0
  1 26  1  0
  1 27  1  0
  6 28  1  0
  7 29  1  0
  8 30  1  0
  9 31  1  0
 17 32  1  0
 18 33  1  0
 19 34  1  0
 20 35  1  0
 23 36  1  0
 24 37  1  0
M  END
>  <smiles>  (49) 
CC(=O)Oc1ccccc1-c1nc(C(=O)c2ccccc2Cl)c[nH]1

>  <score_type>  (49) 
oracle

>  <origin>  (49) 
adg

>  <m_score__min__energy>  (49) 
-8.2300000000000004

>  <m_primary>  (49) 
energy

$$$$
49:0
     RDKit          3D

 49 52  0  0  0  0  0  0  0  0999 V2000
   54.0886   29.8939   44.1177 H   0  0  0  0  0  0  0  0  0  0  0  0
   55.1570   29.7830   44.3550 C   0  0  0  0  0  0  0  0  0  0  0  0
   55.6160   28.6200   44.8750 N   0  0  0  0  0  0  0  0  0  0  0  0
   56.9330   28.4200   45.1360 C   0  0  0  0  0  0  0  0  0  0  0  0
   57.3490   27.1710   45.6110 C   0  0  0  0  0  0  0  0  0  0  0  0
   56.6017   26.4017   45.8553 H   0  0  0  0  0  0  0  0  0  0  0  0
   58.7060   26.8970   45.7760 C   0  0  0  0  0  0  0  0  0  0  0  0
   59.2220   25.3240   46.3550 Cl  0  0  0  0  0  0  0  0  0  0  0  0
   59.6550   27.8590   45.4300 C   0  0  0  0  0  0  0  0  0  0  0  0
   60.7264   27.6283   45.5238 H   0  0  0  0  0  0  0  0  0  0  0  0
   59.2530   29.1140   44.9650 C   0  0  0  0  0  0  0  0  0  0  0  0
   60.0120   29.8494   44.6599 H   0  0  0  0  0  0  0  0  0  0  0  0
   57.8800   29.4500   44.8820 C   0  0  0  0  0  0  0  0  0  0  0  0
   57.3890   30.7250   44.4540 C   0  0  0  0  0  0  0  0  0  0  0  0
   58.0960   31.8240   44.3840 N   0  0  0  0  0  0  0  0  0  0  0  0
   58.8000   32.5360   45.4100 C   0  0  0  0  0  0  0  0  0  0  0  0
   59.2780   33.8250   45.1490 C   0  0  0  0  0  0  0  0  0  0  0  0
   59.1496   34.2648   44.1490 H   0  0  0  0  0  0  0  0  0  0  0  0
   59.9180   34.5560   46.1540 C   0  0  0  0  0  0  0  0  0  0  0  0
   60.3284   35.5518   45.9306 H   0  0  0  0  0  0  0  0  0  0  0  0
   60.0390   34.0230   47.4490 C   0  0  0  0  0  0  0  0  0  0  0  0
   60.7390   34.7320   48.4820 N   0  0  0  0  0  0  0  0  0  0  0  0
   61.3310   34.2250   49.5280 C   0  0  0  0  0  0  0  0  0  0  0  0
   60.5640   33.8210   50.5720 N   0  0  0  0  0  0  0  0  0  0  0  0
   61.1130   33.2910   51.6930 C   0  0  0  0  0  0  0  0  0  0  0  0
   60.2290   32.8340   52.8100 C   0  0  0  0  0  0  0  0  0  0  0  0
   60.7002   33.0776   53.7737 H   0  0  0  0  0  0  0  0  0  0  0  0
   59.2559   33.3420   52.7388 H   0  0  0  0  0  0  0  0  0  0  0  0
   60.0809   31.7463   52.7388 H   0  0  0  0  0  0  0  0  0  0  0  0
   62.4970   33.1470   51.7830 C   0  0  0  0  0  0  0  0  0  0  0  0
   62.9540   32.6984   52.6774 H   0  0  0  0  0  0  0  0  0  0  0  0
   63.3000   33.5830   50.7150 C   0  0  0  0  0  0  0  0  0  0  0  0
   64.7430   33.4620   50.7760 N   0  0  0  0  0  0  0  0  0  0  0  0
   65.5080   34.1430   51.8280 C   0  0  0  0  0  0  0  0  0  0  0  0
   65.1440   33.8190   52.8142 H   0  0  0  0  0  0  0  0  0  0  0  0
   66.5737   33.8893   51.7290 H   0  0  0  0  0  0  0  0  0  0  0  0
   65.3794   35.2310   51.7290 H   0  0  0  0  0  0  0  0  0  0  0  0
   65.4610   32.6490   49.7880 C   0  0  0  0  0  0  0  0  0  0  0  0
   66.1027   31.9224   50.3078 H   0  0  0  0  0  0  0  0  0  0  0  0
   64.7361   32.1130   49.1577 H   0  0  0  0  0  0  0  0  0  0  0  0
   66.0825   33.3021   49.1577 H   0  0  0  0  0  0  0  0  0  0  0  0
   62.6940   34.1260   49.6140 N   0  0  0  0  0  0  0  0  0  0  0  0
   63.2920   34.5180   48.8570 H   0  0  0  0  0  0  0  0  0  0  0  0
   59.5570   32.7350   47.7110 C   0  0  0  0  0  0  0  0  0  0  0  0
   59.6824   32.2964   48.7119 H   0  0  0  0  0  0  0  0  0  0  0  0
   58.9170   32.0040   46.7060 C   0  0  0  0  0  0  0  0  0  0  0  0
   58.5037   31.0095   46.9299 H   0  0  0  0  0  0  0  0  0  0  0  0
   56.0330   30.8380   44.1200 C   0  0  0  0  0  0  0  0  0  0  0  0
   55.6580   31.7683   43.6684 H   0  0  0  0  0  0  0  0  0  0  0  0
  1  2  1  0
  2  3  1  0
  3  4  1  0
  4  5  2  0
  5  6  1  0
  5  7  1  0
  7  8  1  0
  7  9  2  0
  9 10  1  0
  9 11  1  0
 11 12  1  0
 11 13  2  0
 13 14  1  0
 14 15  2  0
 15 16  1  0
 16 17  2  0
 17 18  1  0
 17 19  1  0
 19 20  1  0
 19 21  2  0
 21 22  1  0
 22 23  2  0
 23 24  1  0
 24 25  2  0
 25 26  1  0
 26 27  1  0
 26 28  1  0
 26 29  1  0
 25 30  1  0
 30 31  1  0
 30 32  2  0
 32 33  1  0
 33 34  1  0
 34 35  1  0
 34 36  1  0
 34 37  1  0
 33 38  1  0
 38 39  1  0
 38 40  1  0
 38 41  1  0
 32 42  1  0
 42 43  1  0
 21 44  1  0
 44 45  1  0
 44 46  2  0
 46 47  1  0
 14 48  1  0
 48 49  1  0
 48  2  2  0
 13  4  1  0
 46 16  1  0
 42 23  1  0
M  CHG  1   3  -1
M  END
>  <UniqueID>  (50) 
42

>  <SMILES>  (50) 
Cc1cc(N(C)C)[nH]/c(=N\c2ccc(/N=c3/cc[n-]c4cc(Cl)ccc34)cc2)n1

>  <Energy>  (50) 
85.71750841537819

>  <Genealogy>  (50) 
Cc1cc(N(C)C)[nH]c(=Nc2ccc(N=c3cc[n-]c4cc(Cl)ccc34)cc2)n1 (protonated)
Cc1cc(N(C)C)[nH]/c(=N\c2ccc(/N=c3/cc[n-]c4cc(Cl)ccc34)cc2)n1 (cis-trans isomerization)
Cc1cc(N(C)C)[nH]/c(=N\c2ccc(/N=c3/cc[n-]c4cc(Cl)ccc34)cc2)n1 (3D coordinates assigned)
Cc1cc(N(C)C)[nH]/c(=N\c2ccc(/N=c3/cc[n-]c4cc(Cl)ccc34)cc2)n1 (optimized conformer: 85.71750841537819 kcal/mol)

>  <smiles>  (50) 
Cc1cc(N(C)C)[nH]c(=Nc2ccc(N=c3cc[nH]c4cc(Cl)ccc34)cc2)n1

>  <score_type>  (50) 
oracle

>  <origin>  (50) 
adg

>  <m_score__min__energy>  (50) 
-9.7699999999999996

>  <m_primary>  (50) 
energy

$$$$
50:0
     RDKit          3D

 32 34  0  0  0  0  0  0  0  0999 V2000
   60.0450   28.9860   45.8680 O   0  0  0  0  0  0  0  0  0  0  0  0
   58.8640   28.6230   45.6230 C   0  0  0  0  0  0  0  0  0  0  0  0
   58.4310   27.3550   45.7400 N   0  0  0  0  0  0  0  0  0  0  0  0
   57.1370   27.3770   45.5030 C   0  0  0  0  0  0  0  0  0  0  0  0
   56.7570   28.6710   45.2170 C   0  0  0  0  0  0  0  0  0  0  0  0
   55.4470   29.1090   45.0350 O   0  0  0  0  0  0  0  0  0  0  0  0
   57.8640   29.4610   45.2500 N   0  0  0  0  0  0  0  0  0  0  0  0
   57.9390   30.8820   45.0470 C   0  0  0  0  0  0  0  0  0  0  0  0
   57.8350   31.4160   43.7530 C   0  0  0  0  0  0  0  0  0  0  0  0
   57.9110   32.7970   43.5520 C   0  0  0  0  0  0  0  0  0  0  0  0
   58.0980   33.6550   44.6380 C   0  0  0  0  0  0  0  0  0  0  0  0
   58.2260   33.1360   45.9360 C   0  0  0  0  0  0  0  0  0  0  0  0
   58.3910   34.0610   47.1090 C   0  0  0  0  0  0  0  0  0  0  0  0
   59.1880   35.1550   46.7520 O   0  0  0  0  0  0  0  0  0  0  0  0
   58.1350   31.7490   46.1350 C   0  0  0  0  0  0  0  0  0  0  0  0
   56.4190   26.1840   45.9840 C   0  0  0  0  0  0  0  0  0  0  0  0
   57.5850   25.3210   46.5430 C   0  0  0  0  0  0  0  0  0  0  0  0
   58.8720   26.1830   46.4530 C   0  0  0  0  0  0  0  0  0  0  0  0
   54.7750   28.5700   44.5050 H   0  0  0  0  0  0  0  0  0  0  0  0
   57.6931   30.7446   42.8933 H   0  0  0  0  0  0  0  0  0  0  0  0
   57.8233   33.2092   42.5359 H   0  0  0  0  0  0  0  0  0  0  0  0
   58.1452   34.7419   44.4756 H   0  0  0  0  0  0  0  0  0  0  0  0
   57.4024   34.4208   47.4302 H   0  0  0  0  0  0  0  0  0  0  0  0
   58.8768   33.5155   47.9315 H   0  0  0  0  0  0  0  0  0  0  0  0
   58.8880   35.9200   47.3110 H   0  0  0  0  0  0  0  0  0  0  0  0
   58.2179   31.3376   47.1518 H   0  0  0  0  0  0  0  0  0  0  0  0
   55.6964   26.4413   46.7724 H   0  0  0  0  0  0  0  0  0  0  0  0
   55.8204   25.6802   45.2108 H   0  0  0  0  0  0  0  0  0  0  0  0
   57.3852   25.0489   47.5899 H   0  0  0  0  0  0  0  0  0  0  0  0
   57.6952   24.3903   45.9671 H   0  0  0  0  0  0  0  0  0  0  0  0
   59.2419   26.4462   47.4550 H   0  0  0  0  0  0  0  0  0  0  0  0
   59.7062   25.6642   45.9582 H   0  0  0  0  0  0  0  0  0  0  0  0
  1  2  2  0
  2  3  1  0
  3  4  1  0
  4  5  2  0
  5  6  1  0
  5  7  1  0
  7  8  1  0
  8  9  2  0
  9 10  1  0
 10 11  2  0
 11 12  1  0
 12 13  1  0
 13 14  1  0
 12 15  2  0
  4 16  1  0
 16 17  1  0
 17 18  1  0
  7  2  1  0
 15  8  1  0
 18  3  1  0
  6 19  1  0
  9 20  1  0
 10 21  1  0
 11 22  1  0
 13 23  1  0
 13 24  1  0
 14 25  1  0
 15 26  1  0
 16 27  1  0
 16 28  1  0
 17 29  1  0
 17 30  1  0
 18 31  1  0
 18 32  1  0
M  END
>  <UniqueID>  (51) 
43

>  <SMILES>  (51) 
O=c1n2c(c(O)n1-c1cccc(CO)c1)CCC2

>  <Energy>  (51) 
94.24442412336917

>  <Genealogy>  (51) 
O=c1n2c(c(O)n1-c1cccc(CO)c1)CCC2 (3D coordinates assigned)
O=c1n2c(c(O)n1-c1cccc(CO)c1)CCC2 (nonaromatic ring conformer: 94.24442412336917 kcal/mol)

>  <smiles>  (51) 
O=c1n2c(c(O)n1-c1cccc(CO)c1)CCC2

>  <score_type>  (51) 
oracle

>  <origin>  (51) 
adg

>  <m_score__min__energy>  (51) 
-7.3600000000000003

>  <m_primary>  (51) 
energy

$$$$
51:0
     RDKit          3D

 51 54  0  0  0  0  0  0  0  0999 V2000
   56.3411   32.5372   44.1983 H   0  0  0  0  0  0  0  0  0  0  0  0
   57.1950   32.4760   44.8890 C   0  0  0  0  0  0  0  0  0  0  0  0
   57.6350   33.5560   45.4650 N   0  0  0  0  0  0  0  0  0  0  0  0
   58.8150   33.6720   46.2780 C   0  0  0  0  0  0  0  0  0  0  0  0
   60.0600   33.6880   45.6360 C   0  0  0  0  0  0  0  0  0  0  0  0
   60.1080   33.6172   44.5393 H   0  0  0  0  0  0  0  0  0  0  0  0
   61.2420   33.7930   46.3750 C   0  0  0  0  0  0  0  0  0  0  0  0
   62.2127   33.8112   45.8579 H   0  0  0  0  0  0  0  0  0  0  0  0
   61.1930   33.8750   47.7720 C   0  0  0  0  0  0  0  0  0  0  0  0
   62.6760   34.0160   48.7110 S   0  0  0  0  0  0  0  0  0  0  0  0
   63.7730   34.5190   47.8170 O   0  0  0  0  0  0  0  0  0  0  0  0
   62.4920   34.9800   49.8500 O   0  0  0  0  0  0  0  0  0  0  0  0
   63.1280   32.4670   49.3480 N   0  0  0  0  0  0  0  0  0  0  0  0
   62.3420   31.4340   49.3850 C   0  0  0  0  0  0  0  0  0  0  0  0
   62.0780   30.7720   50.5310 N   0  0  0  0  0  0  0  0  0  0  0  0
   61.2330   29.7270   50.3210 C   0  0  0  0  0  0  0  0  0  0  0  0
   60.8998   29.0667   51.1352 H   0  0  0  0  0  0  0  0  0  0  0  0
   60.8200   29.5520   49.0050 C   0  0  0  0  0  0  0  0  0  0  0  0
   60.1419   28.7665   48.6400 H   0  0  0  0  0  0  0  0  0  0  0  0
   61.5380   30.7510   48.0680 S   0  0  0  0  0  0  0  0  0  0  0  0
   59.9550   33.8370   48.4230 C   0  0  0  0  0  0  0  0  0  0  0  0
   59.9126   33.8893   49.5209 H   0  0  0  0  0  0  0  0  0  0  0  0
   58.7720   33.7330   47.6860 C   0  0  0  0  0  0  0  0  0  0  0  0
   57.8035   33.6986   48.2065 H   0  0  0  0  0  0  0  0  0  0  0  0
   57.8290   31.1690   45.1520 C   0  0  0  0  0  0  0  0  0  0  0  0
   57.8410   30.6580   46.4590 C   0  0  0  0  0  0  0  0  0  0  0  0
   57.3801   31.2347   47.2745 H   0  0  0  0  0  0  0  0  0  0  0  0
   58.4340   29.4220   46.7330 C   0  0  0  0  0  0  0  0  0  0  0  0
   58.4459   29.0380   47.7637 H   0  0  0  0  0  0  0  0  0  0  0  0
   59.0150   28.6670   45.7000 C   0  0  0  0  0  0  0  0  0  0  0  0
   59.6630   27.3630   45.9790 C   0  0  0  0  0  0  0  0  0  0  0  0
   60.9050   27.2470   45.7920 O   0  0  0  0  0  0  0  0  0  0  0  0
   58.9260   26.1870   46.4870 C   0  0  0  0  0  0  0  0  0  0  0  0
   59.4912   25.2728   46.7210 H   0  0  0  0  0  0  0  0  0  0  0  0
   57.5990   26.1860   46.6750 C   0  0  0  0  0  0  0  0  0  0  0  0
   57.1582   26.9614   47.3188 H   0  0  0  0  0  0  0  0  0  0  0  0
   56.7010   25.1870   46.0540 C   0  0  0  0  0  0  0  0  0  0  0  0
   57.2020   23.8960   45.8210 C   0  0  0  0  0  0  0  0  0  0  0  0
   58.2380   23.6544   46.1008 H   0  0  0  0  0  0  0  0  0  0  0  0
   56.3960   22.9160   45.2370 C   0  0  0  0  0  0  0  0  0  0  0  0
   56.8022   21.9112   45.0488 H   0  0  0  0  0  0  0  0  0  0  0  0
   55.0760   23.2100   44.8920 C   0  0  0  0  0  0  0  0  0  0  0  0
   54.4458   22.4403   44.4225 H   0  0  0  0  0  0  0  0  0  0  0  0
   54.5550   24.4820   45.1430 C   0  0  0  0  0  0  0  0  0  0  0  0
   53.5127   24.7096   44.8751 H   0  0  0  0  0  0  0  0  0  0  0  0
   55.3540   25.4680   45.7340 C   0  0  0  0  0  0  0  0  0  0  0  0
   54.7870   26.7050   46.0250 O   0  0  0  0  0  0  0  0  0  0  0  0
   59.0240   29.1870   44.3960 C   0  0  0  0  0  0  0  0  0  0  0  0
   59.5007   28.6182   43.5840 H   0  0  0  0  0  0  0  0  0  0  0  0
   58.4310   30.4230   44.1230 C   0  0  0  0  0  0  0  0  0  0  0  0
   58.4352   30.8152   43.0953 H   0  0  0  0  0  0  0  0  0  0  0  0
  1  2  1  0
  2  3  2  3
  3  4  1  0
  4  5  2  0
  5  6  1  0
  5  7  1  0
  7  8  1  0
  7  9  2  0
  9 10  1  0
 10 11  2  0
 10 12  2  0
 10 13  1  0
 13 14  2  3
 14 15  1  0
 15 16  1  0
 16 17  1  0
 16 18  2  0
 18 19  1  0
 18 20  1  0
  9 21  1  0
 21 22  1  0
 21 23  2  0
 23 24  1  0
  2 25  1  0
 25 26  2  0
 26 27  1  0
 26 28  1  0
 28 29  1  0
 28 30  2  0
 30 31  1  0
 31 32  2  0
 31 33  1  0
 33 34  1  0
 33 35  2  0
 35 36  1  0
 35 37  1  0
 37 38  2  0
 38 39  1  0
 38 40  1  0
 40 41  1  0
 40 42  2  0
 42 43  1  0
 42 44  1  0
 44 45  1  0
 44 46  2  0
 46 47  1  0
 30 48  1  0
 48 49  1  0
 48 50  2  0
 50 51  1  0
 23  4  1  0
 50 25  1  0
 20 14  1  0
 46 37  1  0
M  CHG  2  15  -1  47  -1
M  END
>  <UniqueID>  (52) 
44

>  <SMILES>  (52) 
O=C(/C=C/c1ccccc1[O-])c1ccc(C=Nc2ccc(S(=O)(=O)N=c3[n-]ccs3)cc2)cc1

>  <Energy>  (52) 
101.67804772225027

>  <Genealogy>  (52) 
O=C(C=Cc1ccccc1[O-])c1ccc(C=Nc2ccc(S(=O)(=O)N=c3[n-]ccs3)cc2)cc1 (protonated)
O=C(/C=C/c1ccccc1[O-])c1ccc(C=Nc2ccc(S(=O)(=O)N=c3[n-]ccs3)cc2)cc1 (cis-trans isomerization)
O=C(/C=C/c1ccccc1[O-])c1ccc(C=Nc2ccc(S(=O)(=O)N=c3[n-]ccs3)cc2)cc1 (3D coordinates assigned)
O=C(/C=C/c1ccccc1[O-])c1ccc(C=Nc2ccc(S(=O)(=O)N=c3[n-]ccs3)cc2)cc1 (optimized conformer: 101.67804772225027 kcal/mol)

>  <smiles>  (52) 
O=C(C=Cc1ccccc1O)c1ccc(C=Nc2ccc(S(=O)(=O)N=c3[nH]ccs3)cc2)cc1

>  <score_type>  (52) 
oracle

>  <origin>  (52) 
adg

>  <m_score__min__energy>  (52) 
-14.57

>  <m_primary>  (52) 
energy

$$$$
52:0
     RDKit          3D

 24 25  0  0  0  0  0  0  0  0999 V2000
   55.1500   29.3600   44.9500 O   0  0  0  0  0  0  0  0  0  0  0  0
   56.2200   29.7730   44.4310 C   0  0  0  0  0  0  0  0  0  0  0  0
   57.2320   28.7670   43.9590 C   0  0  0  0  0  0  0  0  0  0  0  0
   58.1160   28.0370   45.3790 S   0  0  0  0  0  0  0  0  0  0  0  0
   57.0180   26.6290   45.5290 C   0  0  0  0  0  0  0  0  0  0  0  0
   55.7630   26.7060   46.0190 N   0  0  0  0  0  0  0  0  0  0  0  0
   55.1360   25.5300   46.0370 N   0  0  0  0  0  0  0  0  0  0  0  0
   55.8880   24.5090   45.5680 C   0  0  0  0  0  0  0  0  0  0  0  0
   57.4120   25.0520   45.0990 S   0  0  0  0  0  0  0  0  0  0  0  0
   56.4830   31.1830   44.4230 N   0  0  0  0  0  0  0  0  0  0  0  0
   57.3780   31.8830   45.2970 C   0  0  0  0  0  0  0  0  0  0  0  0
   57.4210   33.2820   45.2480 C   0  0  0  0  0  0  0  0  0  0  0  0
   58.2950   33.9910   46.0770 C   0  0  0  0  0  0  0  0  0  0  0  0
   59.1530   33.3030   46.9410 C   0  0  0  0  0  0  0  0  0  0  0  0
   60.3500   34.2710   48.0710 Br  0  0  0  0  0  0  0  0  0  0  0  0
   59.1430   31.9040   46.9670 C   0  0  0  0  0  0  0  0  0  0  0  0
   58.2660   31.1950   46.1410 C   0  0  0  0  0  0  0  0  0  0  0  0
   56.7176   27.9690   43.4035 H   0  0  0  0  0  0  0  0  0  0  0  0
   57.9602   29.2728   43.3079 H   0  0  0  0  0  0  0  0  0  0  0  0
   55.5501   23.4643   45.5016 H   0  0  0  0  0  0  0  0  0  0  0  0
   56.7636   33.8257   44.5536 H   0  0  0  0  0  0  0  0  0  0  0  0
   58.3080   35.0906   46.0498 H   0  0  0  0  0  0  0  0  0  0  0  0
   59.8257   31.3618   47.6378 H   0  0  0  0  0  0  0  0  0  0  0  0
   58.2711   30.0951   46.1518 H   0  0  0  0  0  0  0  0  0  0  0  0
  1  2  2  0
  2  3  1  0
  3  4  1  0
  4  5  1  0
  5  6  2  0
  6  7  1  0
  7  8  2  0
  8  9  1  0
  2 10  1  0
 10 11  1  0
 11 12  2  0
 12 13  1  0
 13 14  2  0
 14 15  1  0
 14 16  1  0
 16 17  2  0
  9  5  1  0
 17 11  1  0
  3 18  1  0
  3 19  1  0
  8 20  1  0
 12 21  1  0
 13 22  1  0
 16 23  1  0
 17 24  1  0
M  CHG  1  10  -1
M  END
>  <UniqueID>  (53) 
45

>  <SMILES>  (53) 
O=C(CSc1nncs1)[N-]c1ccc(Br)cc1

>  <Energy>  (53) 
57.54296780577293

>  <Genealogy>  (53) 
O=C(CSc1nncs1)[N-]c1ccc(Br)cc1 (protonated)
O=C(CSc1nncs1)[N-]c1ccc(Br)cc1 (3D coordinates assigned)
O=C(CSc1nncs1)[N-]c1ccc(Br)cc1 (optimized conformer: 57.54296780577293 kcal/mol)

>  <smiles>  (53) 
O=C(CSc1nncs1)Nc1ccc(Br)cc1

>  <score_type>  (53) 
oracle

>  <origin>  (53) 
adg

>  <m_score__min__energy>  (53) 
-9.3699999999999992

>  <m_primary>  (53) 
energy

$$$$
53:0
     RDKit          3D

 48 50  0  0  0  0  0  0  0  0999 V2000
   59.4783   35.1927   46.3533 H   0  0  0  0  0  0  0  0  0  0  0  0
   59.0940   34.2000   46.0760 C   0  0  0  0  0  0  0  0  0  0  0  0
   57.5950   33.8840   45.3790 S   0  0  0  0  0  0  0  0  0  0  0  0
   57.8610   32.2310   45.3220 C   0  0  0  0  0  0  0  0  0  0  0  0
   56.9990   31.3820   44.8480 N   0  0  0  0  0  0  0  0  0  0  0  0
   56.9740   29.9660   45.0960 C   0  0  0  0  0  0  0  0  0  0  0  0
   55.8860   29.3280   45.0870 O   0  0  0  0  0  0  0  0  0  0  0  0
   58.2540   29.2310   45.4180 C   0  0  0  0  0  0  0  0  0  0  0  0
   59.0706   29.9673   45.3861 H   0  0  0  0  0  0  0  0  0  0  0  0
   58.2520   28.6400   46.8520 C   0  0  0  0  0  0  0  0  0  0  0  0
   57.5164   29.1903   47.4570 H   0  0  0  0  0  0  0  0  0  0  0  0
   59.2716   28.7429   47.2518 H   0  0  0  0  0  0  0  0  0  0  0  0
   57.8930   27.1430   46.8850 C   0  0  0  0  0  0  0  0  0  0  0  0
   57.4313   26.8994   47.8532 H   0  0  0  0  0  0  0  0  0  0  0  0
   58.8076   26.5469   46.7503 H   0  0  0  0  0  0  0  0  0  0  0  0
   56.9480   26.8340   45.8020 N   0  0  0  0  0  0  0  0  0  0  0  0
   56.2210   25.2610   46.0260 S   0  0  0  0  0  0  0  0  0  0  0  0
   56.3140   24.8850   47.4780 O   0  0  0  0  0  0  0  0  0  0  0  0
   54.7690   25.3430   45.6430 O   0  0  0  0  0  0  0  0  0  0  0  0
   57.0260   24.0030   45.0270 C   0  0  0  0  0  0  0  0  0  0  0  0
   56.8086   23.0163   45.4619 H   0  0  0  0  0  0  0  0  0  0  0  0
   58.1045   24.2196   45.0268 H   0  0  0  0  0  0  0  0  0  0  0  0
   56.5520   24.0110   43.5670 C   0  0  0  0  0  0  0  0  0  0  0  0
   57.3208   24.5007   42.9512 H   0  0  0  0  0  0  0  0  0  0  0  0
   55.5948   24.5520   43.5340 H   0  0  0  0  0  0  0  0  0  0  0  0
   56.3050   22.6090   43.0140 C   0  0  0  0  0  0  0  0  0  0  0  0
   56.1805   21.9026   43.8479 H   0  0  0  0  0  0  0  0  0  0  0  0
   55.3938   22.6131   42.3979 H   0  0  0  0  0  0  0  0  0  0  0  0
   57.1628   22.3015   42.3979 H   0  0  0  0  0  0  0  0  0  0  0  0
   57.5900   26.9290   44.4760 C   0  0  0  0  0  0  0  0  0  0  0  0
   56.8057   27.0200   43.7102 H   0  0  0  0  0  0  0  0  0  0  0  0
   58.1935   26.0208   44.3313 H   0  0  0  0  0  0  0  0  0  0  0  0
   58.5380   28.1460   44.3620 C   0  0  0  0  0  0  0  0  0  0  0  0
   58.4198   28.5900   43.3626 H   0  0  0  0  0  0  0  0  0  0  0  0
   59.5623   27.7823   44.5311 H   0  0  0  0  0  0  0  0  0  0  0  0
   59.0700   31.8940   45.8210 N   0  0  0  0  0  0  0  0  0  0  0  0
   59.7690   32.9840   46.2430 C   0  0  0  0  0  0  0  0  0  0  0  0
   61.1250   32.8450   46.8360 C   0  0  0  0  0  0  0  0  0  0  0  0
   62.0920   33.8600   46.7010 C   0  0  0  0  0  0  0  0  0  0  0  0
   61.8524   34.7821   46.1512 H   0  0  0  0  0  0  0  0  0  0  0  0
   63.3550   33.6900   47.2680 C   0  0  0  0  0  0  0  0  0  0  0  0
   64.1135   34.4803   47.1681 H   0  0  0  0  0  0  0  0  0  0  0  0
   63.6560   32.5190   47.9610 C   0  0  0  0  0  0  0  0  0  0  0  0
   64.6489   32.3792   48.4132 H   0  0  0  0  0  0  0  0  0  0  0  0
   62.6830   31.5270   48.0740 C   0  0  0  0  0  0  0  0  0  0  0  0
   62.9096   30.5975   48.6168 H   0  0  0  0  0  0  0  0  0  0  0  0
   61.4540   31.7030   47.5160 N   0  0  0  0  0  0  0  0  0  0  0  0
   60.7530   30.9360   47.6280 H   0  0  0  0  0  0  0  0  0  0  0  0
  1  2  1  0
  2  3  1  0
  3  4  1  0
  4  5  2  0
  5  6  1  0
  6  7  2  0
  6  8  1  0
  8  9  1  0
  8 10  1  0
 10 11  1  0
 10 12  1  0
 10 13  1  0
 13 14  1  0
 13 15  1  0
 13 16  1  0
 16 17  1  0
 17 18  2  0
 17 19  2  0
 17 20  1  0
 20 21  1  0
 20 22  1  0
 20 23  1  0
 23 24  1  0
 23 25  1  0
 23 26  1  0
 26 27  1  0
 26 28  1  0
 26 29  1  0
 16 30  1  0
 30 31  1  0
 30 32  1  0
 30 33  1  0
 33 34  1  0
 33 35  1  0
  4 36  1  0
 36 37  1  0
 37 38  1  0
 38 39  2  0
 39 40  1  0
 39 41  1  0
 41 42  1  0
 41 43  2  0
 43 44  1  0
 43 45  1  0
 45 46  1  0
 45 47  2  0
 47 48  1  0
 37  2  2  0
 47 38  1  0
 33  8  1  0
M  CHG  2  36  -1  47   1
M  END
>  <UniqueID>  (54) 
46

>  <SMILES>  (54) 
CCCS(=O)(=O)N1CCC(C(=O)/N=c2\[n-]c(-c3cccc[nH+]3)cs2)CC1

>  <Energy>  (54) 
79.68230346153014

>  <Genealogy>  (54) 
CCCS(=O)(=O)N1CCC(C(=O)N=c2[n-]c(-c3cccc[nH+]3)cs2)CC1 (protonated)
CCCS(=O)(=O)N1CCC(C(=O)/N=c2\[n-]c(-c3cccc[nH+]3)cs2)CC1 (cis-trans isomerization)
CCCS(=O)(=O)N1CCC(C(=O)/N=c2\[n-]c(-c3cccc[nH+]3)cs2)CC1 (3D coordinates assigned)
CCCS(=O)(=O)N1CCC(C(=O)/N=c2\[n-]c(-c3cccc[nH+]3)cs2)CC1 (nonaromatic ring conformer: 79.68230346153014 kcal/mol)

>  <smiles>  (54) 
CCCS(=O)(=O)N1CCC(C(=O)N=c2[nH]c(-c3ccccn3)cs2)CC1

>  <score_type>  (54) 
oracle

>  <origin>  (54) 
adg

>  <m_score__min__energy>  (54) 
-9.7200000000000006

>  <m_primary>  (54) 
energy

$$$$
54:0
     RDKit          3D

 47 49  0  0  0  0  0  0  0  0999 V2000
   63.6990   30.5720   51.5600 C   0  0  0  0  0  0  0  0  0  0  0  0
   63.6260   31.2740   50.2320 C   0  0  0  0  0  0  0  0  0  0  0  0
   62.4660   31.2070   49.4590 C   0  0  0  0  0  0  0  0  0  0  0  0
   62.3610   31.8710   48.2610 N   0  0  0  0  0  0  0  0  0  0  0  0
   61.0910   31.7900   47.4820 C   0  0  1  0  0  0  0  0  0  0  0  0
   60.5140   30.3430   47.4170 C   0  0  0  0  0  0  0  0  0  0  0  0
   60.4770   29.7350   46.0030 C   0  0  0  0  0  0  0  0  0  0  0  0
   59.0850   29.7050   45.4230 C   0  0  0  0  0  0  0  0  0  0  0  0
   58.2120   28.6450   45.7220 C   0  0  0  0  0  0  0  0  0  0  0  0
   56.9120   28.6360   45.2060 C   0  0  0  0  0  0  0  0  0  0  0  0
   56.4750   29.6830   44.3900 C   0  0  0  0  0  0  0  0  0  0  0  0
   57.3360   30.7410   44.0900 C   0  0  0  0  0  0  0  0  0  0  0  0
   58.6370   30.7550   44.6050 C   0  0  0  0  0  0  0  0  0  0  0  0
   60.0730   32.8500   47.9750 C   0  0  0  0  0  0  0  0  0  0  0  0
   59.1600   33.3720   46.8920 C   0  0  0  0  0  0  0  0  0  0  0  0
   59.6770   34.1310   45.8290 C   0  0  0  0  0  0  0  0  0  0  0  0
   58.8320   34.5930   44.8160 C   0  0  0  0  0  0  0  0  0  0  0  0
   57.4650   34.3050   44.8580 C   0  0  0  0  0  0  0  0  0  0  0  0
   56.9410   33.5580   45.9160 C   0  0  0  0  0  0  0  0  0  0  0  0
   57.7820   33.0980   46.9330 C   0  0  0  0  0  0  0  0  0  0  0  0
   63.4180   32.6620   47.8480 C   0  0  0  0  0  0  0  0  0  0  0  0
   63.3560   33.5630   46.4680 S   0  0  0  0  0  0  0  0  0  0  0  0
   64.5520   32.7400   48.6020 N   0  0  0  0  0  0  0  0  0  0  0  0
   64.6750   32.0720   49.7760 C   0  0  0  0  0  0  0  0  0  0  0  0
   65.7360   32.1830   50.4490 O   0  0  0  0  0  0  0  0  0  0  0  0
   63.6221   31.3117   52.3705 H   0  0  0  0  0  0  0  0  0  0  0  0
   62.8708   29.8525   51.6404 H   0  0  0  0  0  0  0  0  0  0  0  0
   64.6575   30.0383   51.6404 H   0  0  0  0  0  0  0  0  0  0  0  0
   61.6156   30.6083   49.8175 H   0  0  0  0  0  0  0  0  0  0  0  0
   61.3212   32.0390   46.4356 H   0  0  0  0  0  0  0  0  0  0  0  0
   61.1357   29.6960   48.0533 H   0  0  0  0  0  0  0  0  0  0  0  0
   59.4703   30.4060   47.7586 H   0  0  0  0  0  0  0  0  0  0  0  0
   61.1209   30.3358   45.3438 H   0  0  0  0  0  0  0  0  0  0  0  0
   60.8306   28.6960   46.0768 H   0  0  0  0  0  0  0  0  0  0  0  0
   58.5524   27.8193   46.3642 H   0  0  0  0  0  0  0  0  0  0  0  0
   56.2328   27.8038   45.4428 H   0  0  0  0  0  0  0  0  0  0  0  0
   55.4527   29.6738   43.9839 H   0  0  0  0  0  0  0  0  0  0  0  0
   56.9908   31.5647   43.4478 H   0  0  0  0  0  0  0  0  0  0  0  0
   59.3112   31.5913   44.3683 H   0  0  0  0  0  0  0  0  0  0  0  0
   59.4527   32.3950   48.7613 H   0  0  0  0  0  0  0  0  0  0  0  0
   60.6570   33.7074   48.3408 H   0  0  0  0  0  0  0  0  0  0  0  0
   60.7517   34.3628   45.7937 H   0  0  0  0  0  0  0  0  0  0  0  0
   59.2435   35.1841   43.9845 H   0  0  0  0  0  0  0  0  0  0  0  0
   56.8018   34.6664   44.0582 H   0  0  0  0  0  0  0  0  0  0  0  0
   55.8650   33.3316   45.9486 H   0  0  0  0  0  0  0  0  0  0  0  0
   57.3636   32.5189   47.7694 H   0  0  0  0  0  0  0  0  0  0  0  0
   65.3470   33.3390   48.2820 H   0  0  0  0  0  0  0  0  0  0  0  0
  1  2  1  0
  2  3  2  0
  3  4  1  0
  4  5  1  0
  5  6  1  0
  6  7  1  0
  7  8  1  0
  8  9  2  0
  9 10  1  0
 10 11  2  0
 11 12  1  0
 12 13  2  0
  5 14  1  0
 14 15  1  0
 15 16  2  0
 16 17  1  0
 17 18  2  0
 18 19  1  0
 19 20  2  0
  4 21  1  0
 21 22  2  0
 21 23  1  0
 23 24  1  0
 24 25  2  0
 24  2  1  0
 13  8  1  0
 20 15  1  0
  1 26  1  0
  1 27  1  0
  1 28  1  0
  3 29  1  0
  5 30  1  6
  6 31  1  0
  6 32  1  0
  7 33  1  0
  7 34  1  0
  9 35  1  0
 10 36  1  0
 11 37  1  0
 12 38  1  0
 13 39  1  0
 14 40  1  0
 14 41  1  0
 16 42  1  0
 17 43  1  0
 18 44  1  0
 19 45  1  0
 20 46  1  0
 23 47  1  0
M  END
>  <UniqueID>  (55) 
47

>  <SMILES>  (55) 
Cc1cn([C@@H](CCc2ccccc2)Cc2ccccc2)c(=S)[nH]c1=O

>  <Energy>  (55) 
53.16858848270994

>  <Genealogy>  (55) 
Cc1cn([C@@H](CCc2ccccc2)Cc2ccccc2)c(=S)[nH]c1=O (chirality)
Cc1cn([C@@H](CCc2ccccc2)Cc2ccccc2)c(=S)[nH]c1=O (3D coordinates assigned)
Cc1cn([C@@H](CCc2ccccc2)Cc2ccccc2)c(=S)[nH]c1=O (optimized conformer: 53.16858848270994 kcal/mol)

>  <smiles>  (55) 
Cc1cn(C(CCc2ccccc2)Cc2ccccc2)c(=S)[nH]c1=O

>  <score_type>  (55) 
oracle

>  <origin>  (55) 
adg

>  <m_score__min__energy>  (55) 
-8.2300000000000004

>  <m_primary>  (55) 
energy

$$$$
55:0
     RDKit          3D

 30 30  0  0  0  0  0  0  0  0999 V2000
   60.2060   31.5470   46.7250 C   0  0  0  0  0  0  0  0  0  0  0  0
   60.7420   30.1220   46.6360 C   0  0  0  0  0  0  0  0  0  0  0  0
   59.6700   29.1840   46.1800 C   0  0  0  0  0  0  0  0  0  0  0  0
   58.3250   29.4840   46.0680 C   0  0  0  0  0  0  0  0  0  0  0  0
   57.7390   28.2930   45.6820 C   0  0  0  0  0  0  0  0  0  0  0  0
   56.2940   28.1060   45.4380 C   0  0  0  0  0  0  0  0  0  0  0  0
   55.7530   27.0060   45.7340 O   0  0  0  0  0  0  0  0  0  0  0  0
   55.5010   29.1590   44.8790 N   0  0  0  0  0  0  0  0  0  0  0  0
   55.7110   29.7160   43.5480 C   0  0  0  0  0  0  0  0  0  0  0  0
   56.7260   30.8550   43.5930 C   0  0  0  0  0  0  0  0  0  0  0  0
   56.6510   31.5210   44.8490 O   0  0  0  0  0  0  0  0  0  0  0  0
   57.3050   32.7140   45.0860 N   0  0  0  0  0  0  0  0  0  0  0  0
   56.8810   33.5230   45.9370 O   0  0  0  0  0  0  0  0  0  0  0  0
   58.4400   33.0150   44.3730 O   0  0  0  0  0  0  0  0  0  0  0  0
   58.7070   27.3490   45.5870 N   0  0  0  0  0  0  0  0  0  0  0  0
   58.5530   25.9420   45.2320 C   0  0  0  0  0  0  0  0  0  0  0  0
   59.8780   27.8840   45.8960 N   0  0  0  0  0  0  0  0  0  0  0  0
   60.0984   31.8330   47.7817 H   0  0  0  0  0  0  0  0  0  0  0  0
   60.9071   32.2341   46.2287 H   0  0  0  0  0  0  0  0  0  0  0  0
   59.2258   31.6017   46.2287 H   0  0  0  0  0  0  0  0  0  0  0  0
   61.5761   30.0936   45.9194 H   0  0  0  0  0  0  0  0  0  0  0  0
   61.0861   29.8096   47.6330 H   0  0  0  0  0  0  0  0  0  0  0  0
   57.8327   30.4515   46.2458 H   0  0  0  0  0  0  0  0  0  0  0  0
   56.0849   28.9255   42.8808 H   0  0  0  0  0  0  0  0  0  0  0  0
   54.7542   30.1099   43.1748 H   0  0  0  0  0  0  0  0  0  0  0  0
   57.7384   30.4471   43.4563 H   0  0  0  0  0  0  0  0  0  0  0  0
   56.5023   31.5716   42.7890 H   0  0  0  0  0  0  0  0  0  0  0  0
   58.4869   25.3377   46.1487 H   0  0  0  0  0  0  0  0  0  0  0  0
   57.6352   25.8116   44.6398 H   0  0  0  0  0  0  0  0  0  0  0  0
   59.4208   25.6161   44.6398 H   0  0  0  0  0  0  0  0  0  0  0  0
  1  2  1  0
  2  3  1  0
  3  4  1  0
  4  5  2  0
  5  6  1  0
  6  7  2  0
  6  8  1  0
  8  9  1  0
  9 10  1  0
 10 11  1  0
 11 12  1  0
 12 13  2  0
 12 14  1  0
  5 15  1  0
 15 16  1  0
 15 17  1  0
 17  3  2  0
  1 18  1  0
  1 19  1  0
  1 20  1  0
  2 21  1  0
  2 22  1  0
  4 23  1  0
  9 24  1  0
  9 25  1  0
 10 26  1  0
 10 27  1  0
 16 28  1  0
 16 29  1  0
 16 30  1  0
M  CHG  3   8  -1  12   1  14  -1
M  END
>  <UniqueID>  (56) 
48

>  <SMILES>  (56) 
CCc1cc(C(=O)[N-]CCO[N+](=O)[O-])n(C)n1

>  <Energy>  (56) 
47.55209427906517

>  <Genealogy>  (56) 
CCc1cc(C(=O)[N-]CCO[N+](=O)[O-])n(C)n1 (protonated)
CCc1cc(C(=O)[N-]CCO[N+](=O)[O-])n(C)n1 (3D coordinates assigned)
CCc1cc(C(=O)[N-]CCO[N+](=O)[O-])n(C)n1 (optimized conformer: 47.55209427906517 kcal/mol)

>  <smiles>  (56) 
CCc1cc(C(=O)NCCO[N+](=O)[O-])n(C)n1

>  <score_type>  (56) 
oracle

>  <origin>  (56) 
adg

>  <m_score__min__energy>  (56) 
-7.9900000000000002

>  <m_primary>  (56) 
energy

$$$$
56:0
     RDKit          3D

 41 44  0  0  0  0  0  0  0  0999 V2000
   54.5229   30.4173   43.8700 H   0  0  0  0  0  0  0  0  0  0  0  0
   55.4780   30.0550   44.2780 C   0  0  0  0  0  0  0  0  0  0  0  0
   55.5380   28.8470   44.8860 N   0  0  0  0  0  0  0  0  0  0  0  0
   56.7050   28.3390   45.3620 C   0  0  0  0  0  0  0  0  0  0  0  0
   56.7080   27.0560   45.9210 C   0  0  0  0  0  0  0  0  0  0  0  0
   55.7601   26.5136   46.0530 H   0  0  0  0  0  0  0  0  0  0  0  0
   57.9070   26.4630   46.3110 C   0  0  0  0  0  0  0  0  0  0  0  0
   57.9019   25.4668   46.7775 H   0  0  0  0  0  0  0  0  0  0  0  0
   59.1120   27.1320   46.1100 C   0  0  0  0  0  0  0  0  0  0  0  0
   60.0599   26.6463   46.3848 H   0  0  0  0  0  0  0  0  0  0  0  0
   59.1230   28.4170   45.5610 C   0  0  0  0  0  0  0  0  0  0  0  0
   60.0835   28.9187   45.3721 H   0  0  0  0  0  0  0  0  0  0  0  0
   57.9140   29.0810   45.2450 C   0  0  0  0  0  0  0  0  0  0  0  0
   57.8380   30.4090   44.7170 C   0  0  0  0  0  0  0  0  0  0  0  0
   58.8070   31.2880   44.7360 N   0  0  0  0  0  0  0  0  0  0  0  0
   58.9130   32.5320   45.4450 C   0  0  0  0  0  0  0  0  0  0  0  0
   58.7520   33.7430   44.7490 C   0  0  0  0  0  0  0  0  0  0  0  0
   58.4785   33.7286   43.6837 H   0  0  0  0  0  0  0  0  0  0  0  0
   58.9370   34.9640   45.4010 C   0  0  0  0  0  0  0  0  0  0  0  0
   58.7891   35.9071   44.8545 H   0  0  0  0  0  0  0  0  0  0  0  0
   59.3090   34.9880   46.7440 C   0  0  0  0  0  0  0  0  0  0  0  0
   59.4495   35.9506   47.2575 H   0  0  0  0  0  0  0  0  0  0  0  0
   59.5040   33.7910   47.4400 C   0  0  0  0  0  0  0  0  0  0  0  0
   59.8030   33.8180   48.4982 H   0  0  0  0  0  0  0  0  0  0  0  0
   59.3210   32.5520   46.7980 C   0  0  0  0  0  0  0  0  0  0  0  0
   59.5340   31.2950   47.5620 C   0  0  0  0  0  0  0  0  0  0  0  0
   58.5400   30.6380   47.9720 O   0  0  0  0  0  0  0  0  0  0  0  0
   60.8480   30.8600   47.9460 N   0  0  0  0  0  0  0  0  0  0  0  0
   61.9010   31.6020   48.1600 C   0  0  0  0  0  0  0  0  0  0  0  0
   62.5820   32.2650   47.1150 C   0  0  0  0  0  0  0  0  0  0  0  0
   62.2298   32.1707   46.0772 H   0  0  0  0  0  0  0  0  0  0  0  0
   63.7040   33.0400   47.4080 C   0  0  0  0  0  0  0  0  0  0  0  0
   64.2348   33.5671   46.6015 H   0  0  0  0  0  0  0  0  0  0  0  0
   64.1520   33.1460   48.7230 C   0  0  0  0  0  0  0  0  0  0  0  0
   65.0332   33.7593   48.9623 H   0  0  0  0  0  0  0  0  0  0  0  0
   63.4710   32.4660   49.7330 C   0  0  0  0  0  0  0  0  0  0  0  0
   63.8184   32.5394   50.7741 H   0  0  0  0  0  0  0  0  0  0  0  0
   62.3780   31.7120   49.4340 N   0  0  0  0  0  0  0  0  0  0  0  0
   61.8900   31.2140   50.2140 H   0  0  0  0  0  0  0  0  0  0  0  0
   56.6230   30.8400   44.1680 C   0  0  0  0  0  0  0  0  0  0  0  0
   56.5732   31.8068   43.6456 H   0  0  0  0  0  0  0  0  0  0  0  0
  1  2  1  0
  2  3  1  0
  3  4  1  0
  4  5  2  0
  5  6  1  0
  5  7  1  0
  7  8  1  0
  7  9  2  0
  9 10  1  0
  9 11  1  0
 11 12  1  0
 11 13  2  0
 13 14  1  0
 14 15  2  0
 15 16  1  0
 16 17  2  0
 17 18  1  0
 17 19  1  0
 19 20  1  0
 19 21  2  0
 21 22  1  0
 21 23  1  0
 23 24  1  0
 23 25  2  0
 25 26  1  0
 26 27  2  0
 26 28  1  0
 28 29  2  3
 29 30  1  0
 30 31  1  0
 30 32  2  0
 32 33  1  0
 32 34  1  0
 34 35  1  0
 34 36  2  0
 36 37  1  0
 36 38  1  0
 38 39  1  0
 14 40  1  0
 40 41  1  0
 40  2  2  0
 13  4  1  0
 25 16  1  0
 38 29  1  0
M  CHG  1   3  -1
M  END
>  <UniqueID>  (57) 
49

>  <SMILES>  (57) 
O=C(N=c1cccc[nH]1)c1ccccc1/N=c1/cc[n-]c2ccccc12

>  <Energy>  (57) 
81.69275598246966

>  <Genealogy>  (57) 
O=C(N=c1cccc[nH]1)c1ccccc1N=c1cc[n-]c2ccccc12 (protonated)
O=C(N=c1cccc[nH]1)c1ccccc1/N=c1/cc[n-]c2ccccc12 (cis-trans isomerization)
O=C(N=c1cccc[nH]1)c1ccccc1/N=c1/cc[n-]c2ccccc12 (3D coordinates assigned)
O=C(N=c1cccc[nH]1)c1ccccc1/N=c1/cc[n-]c2ccccc12 (optimized conformer: 81.69275598246966 kcal/mol)

>  <smiles>  (57) 
O=C(N=c1cccc[nH]1)c1ccccc1N=c1cc[nH]c2ccccc12

>  <score_type>  (57) 
oracle

>  <origin>  (57) 
adg

>  <m_score__min__energy>  (57) 
-10.529999999999999

>  <m_primary>  (57) 
energy

$$$$
57:0
     RDKit          3D

 32 33  0  0  0  0  0  0  0  0999 V2000
   64.4330   32.7830   49.3380 C   0  0  0  0  0  0  0  0  0  0  0  0
   63.8700   32.6540   47.9820 N   0  0  0  0  0  0  0  0  0  0  0  0
   62.8490   31.5670   47.9320 C   0  0  0  0  0  0  0  0  0  0  0  0
   61.4060   32.0900   47.9150 C   0  0  0  0  0  0  0  0  0  0  0  0
   61.2250   33.0250   46.7970 N   0  0  0  0  0  0  0  0  0  0  0  0
   59.9360   33.1760   46.1610 C   0  0  0  0  0  0  0  0  0  0  0  0
   59.3320   34.4410   46.0600 C   0  0  0  0  0  0  0  0  0  0  0  0
   58.0880   34.5860   45.4420 C   0  0  0  0  0  0  0  0  0  0  0  0
   57.4300   33.4720   44.9180 C   0  0  0  0  0  0  0  0  0  0  0  0
   58.0130   32.1990   45.0070 C   0  0  0  0  0  0  0  0  0  0  0  0
   57.3010   31.0350   44.4500 C   0  0  0  0  0  0  0  0  0  0  0  0
   56.1560   30.7140   44.8640 O   0  0  0  0  0  0  0  0  0  0  0  0
   59.2660   32.0580   45.6290 C   0  0  0  0  0  0  0  0  0  0  0  0
   62.3680   33.8430   46.3680 C   0  0  0  0  0  0  0  0  0  0  0  0
   63.3800   33.9760   47.5110 C   0  0  0  0  0  0  0  0  0  0  0  0
   63.6430   32.6020   50.0818 H   0  0  0  0  0  0  0  0  0  0  0  0
   65.2387   32.0462   49.4721 H   0  0  0  0  0  0  0  0  0  0  0  0
   64.8375   33.7971   49.4721 H   0  0  0  0  0  0  0  0  0  0  0  0
   64.6610   32.3730   47.3530 H   0  0  0  0  0  0  0  0  0  0  0  0
   63.0158   30.9729   47.0214 H   0  0  0  0  0  0  0  0  0  0  0  0
   62.9673   30.9665   48.8460 H   0  0  0  0  0  0  0  0  0  0  0  0
   60.7130   31.2438   47.7983 H   0  0  0  0  0  0  0  0  0  0  0  0
   61.1997   32.6128   48.8606 H   0  0  0  0  0  0  0  0  0  0  0  0
   59.8432   35.3240   46.4710 H   0  0  0  0  0  0  0  0  0  0  0  0
   57.6253   35.5812   45.3679 H   0  0  0  0  0  0  0  0  0  0  0  0
   56.4500   33.5928   44.4331 H   0  0  0  0  0  0  0  0  0  0  0  0
   57.7777   30.4368   43.6595 H   0  0  0  0  0  0  0  0  0  0  0  0
   59.7282   31.0624   45.7008 H   0  0  0  0  0  0  0  0  0  0  0  0
   62.8545   33.3642   45.5054 H   0  0  0  0  0  0  0  0  0  0  0  0
   62.0087   34.8441   46.0875 H   0  0  0  0  0  0  0  0  0  0  0  0
   64.2380   34.5668   47.1578 H   0  0  0  0  0  0  0  0  0  0  0  0
   62.8749   34.4696   48.3543 H   0  0  0  0  0  0  0  0  0  0  0  0
  1  2  1  0
  2  3  1  0
  3  4  1  0
  4  5  1  0
  5  6  1  0
  6  7  2  0
  7  8  1  0
  8  9  2  0
  9 10  1  0
 10 11  1  0
 11 12  2  0
 10 13  2  0
  5 14  1  0
 14 15  1  0
 15  2  1  0
 13  6  1  0
  1 16  1  0
  1 17  1  0
  1 18  1  0
  2 19  1  0
  3 20  1  0
  3 21  1  0
  4 22  1  0
  4 23  1  0
  7 24  1  0
  8 25  1  0
  9 26  1  0
 11 27  1  0
 13 28  1  0
 14 29  1  0
 14 30  1  0
 15 31  1  0
 15 32  1  0
M  CHG  1   2   1
M  END
>  <UniqueID>  (58) 
50

>  <SMILES>  (58) 
C[NH+]1CCN(c2cccc(C=O)c2)CC1

>  <Energy>  (58) 
40.86623989407414

>  <Genealogy>  (58) 
C[NH+]1CCN(c2cccc(C=O)c2)CC1 (protonated)
C[NH+]1CCN(c2cccc(C=O)c2)CC1 (3D coordinates assigned)
C[NH+]1CCN(c2cccc(C=O)c2)CC1 (nonaromatic ring conformer: 40.86623989407414 kcal/mol)

>  <smiles>  (58) 
CN1CCN(c2cccc(C=O)c2)CC1

>  <score_type>  (58) 
oracle

>  <origin>  (58) 
adg

>  <m_score__min__energy>  (58) 
-5.2000000000000002

>  <m_primary>  (58) 
energy

$$$$
58:0
     RDKit          3D

 63 67  0  0  0  0  0  0  0  0999 V2000
   60.6600   27.1410   49.0930 C   0  0  0  0  0  0  0  0  0  0  0  0
   60.2700   28.4370   48.6510 N   0  0  0  0  0  0  0  0  0  0  0  0
   58.9540   28.7910   49.1270 C   0  0  0  0  0  0  0  0  0  0  0  0
   58.9930   30.0180   49.9630 C   0  0  0  0  0  0  0  0  0  0  0  0
   57.8230   30.4760   50.4950 N   0  0  0  0  0  0  0  0  0  0  0  0
   57.8460   31.5850   51.2540 C   0  0  0  0  0  0  0  0  0  0  0  0
   56.7740   32.0070   51.7430 O   0  0  0  0  0  0  0  0  0  0  0  0
   59.0200   32.2660   51.5060 C   0  0  0  0  0  0  0  0  0  0  0  0
   59.3670   33.4020   52.2230 C   0  0  0  0  0  0  0  0  0  0  0  0
   60.7040   33.5470   52.0760 N   0  0  0  0  0  0  0  0  0  0  0  0
   61.1950   32.5860   51.3230 N   0  0  0  0  0  0  0  0  0  0  0  0
   62.6080   32.4880   50.9940 C   0  0  0  0  0  0  0  0  0  0  0  0
   62.7160   32.7380   49.5330 C   0  0  0  0  0  0  0  0  0  0  0  0
   63.6140   31.9640   48.8170 C   0  0  0  0  0  0  0  0  0  0  0  0
   63.7560   32.1530   47.4560 C   0  0  0  0  0  0  0  0  0  0  0  0
   63.0230   33.0950   46.7910 C   0  0  0  0  0  0  0  0  0  0  0  0
   62.1220   33.8710   47.5070 C   0  0  0  0  0  0  0  0  0  0  0  0
   61.9730   33.6900   48.8690 C   0  0  0  0  0  0  0  0  0  0  0  0
   60.1910   31.7810   50.9550 C   0  0  0  0  0  0  0  0  0  0  0  0
   60.1460   30.6710   50.1990 N   0  0  0  0  0  0  0  0  0  0  0  0
   60.4710   28.7290   47.2680 C   0  0  0  0  0  0  0  0  0  0  0  0
   61.0180   30.1090   47.0120 C   0  0  0  0  0  0  0  0  0  0  0  0
   59.9790   31.1780   46.8820 C   0  0  0  0  0  0  0  0  0  0  0  0
   58.7830   30.7760   46.2570 N   0  0  0  0  0  0  0  0  0  0  0  0
   57.8620   31.7750   45.8630 C   0  0  0  0  0  0  0  0  0  0  0  0
   58.4750   33.1120   46.0760 C   0  0  0  0  0  0  0  0  0  0  0  0
   59.0030   33.7800   44.9770 C   0  0  0  0  0  0  0  0  0  0  0  0
   59.5780   35.0360   45.1630 C   0  0  0  0  0  0  0  0  0  0  0  0
   59.6390   35.6380   46.4020 C   0  0  0  0  0  0  0  0  0  0  0  0
   59.1150   34.9750   47.4930 C   0  0  0  0  0  0  0  0  0  0  0  0
   58.5440   33.7270   47.3080 C   0  0  0  0  0  0  0  0  0  0  0  0
   58.7250   29.5190   45.6250 C   0  0  0  0  0  0  0  0  0  0  0  0
   59.2750   28.3750   46.4390 C   0  0  0  0  0  0  0  0  0  0  0  0
   60.6677   27.1155   50.1927 H   0  0  0  0  0  0  0  0  0  0  0  0
   59.9468   26.3943   48.7139 H   0  0  0  0  0  0  0  0  0  0  0  0
   61.6669   26.9119   48.7139 H   0  0  0  0  0  0  0  0  0  0  0  0
   58.2961   28.9671   48.2632 H   0  0  0  0  0  0  0  0  0  0  0  0
   58.5743   27.9632   49.7439 H   0  0  0  0  0  0  0  0  0  0  0  0
   58.6909   34.0537   52.7958 H   0  0  0  0  0  0  0  0  0  0  0  0
   63.1820   33.2420   51.5526 H   0  0  0  0  0  0  0  0  0  0  0  0
   63.0124   31.5005   51.2610 H   0  0  0  0  0  0  0  0  0  0  0  0
   64.2139   31.1991   49.3319 H   0  0  0  0  0  0  0  0  0  0  0  0
   64.4727   31.5334   46.8970 H   0  0  0  0  0  0  0  0  0  0  0  0
   63.1448   33.2360   45.7069 H   0  0  0  0  0  0  0  0  0  0  0  0
   61.5235   34.6340   46.9877 H   0  0  0  0  0  0  0  0  0  0  0  0
   61.2562   34.3103   49.4271 H   0  0  0  0  0  0  0  0  0  0  0  0
   61.0190   30.2940   49.7790 H   0  0  0  0  0  0  0  0  0  0  0  0
   61.2773   28.0641   46.9249 H   0  0  0  0  0  0  0  0  0  0  0  0
   61.6813   30.3754   47.8481 H   0  0  0  0  0  0  0  0  0  0  0  0
   61.5394   30.0625   46.0446 H   0  0  0  0  0  0  0  0  0  0  0  0
   59.7317   31.5373   47.8918 H   0  0  0  0  0  0  0  0  0  0  0  0
   60.4165   31.9533   46.2359 H   0  0  0  0  0  0  0  0  0  0  0  0
   57.6142   31.6486   44.7988 H   0  0  0  0  0  0  0  0  0  0  0  0
   56.9430   31.6888   46.4613 H   0  0  0  0  0  0  0  0  0  0  0  0
   58.9675   33.3245   43.9764 H   0  0  0  0  0  0  0  0  0  0  0  0
   59.9966   35.5639   44.2935 H   0  0  0  0  0  0  0  0  0  0  0  0
   60.0980   36.6308   46.5189 H   0  0  0  0  0  0  0  0  0  0  0  0
   59.1503   35.4306   48.4936 H   0  0  0  0  0  0  0  0  0  0  0  0
   58.1276   33.2039   48.1815 H   0  0  0  0  0  0  0  0  0  0  0  0
   57.6718   29.3000   45.3952 H   0  0  0  0  0  0  0  0  0  0  0  0
   59.3587   29.5938   44.7290 H   0  0  0  0  0  0  0  0  0  0  0  0
   58.4818   28.0187   47.1127 H   0  0  0  0  0  0  0  0  0  0  0  0
   59.6035   27.6075   45.7228 H   0  0  0  0  0  0  0  0  0  0  0  0
  1  2  1  0
  2  3  1  0
  3  4  1  0
  4  5  2  0
  5  6  1  0
  6  7  2  0
  6  8  1  0
  8  9  1  0
  9 10  2  0
 10 11  1  0
 11 12  1  0
 12 13  1  0
 13 14  2  0
 14 15  1  0
 15 16  2  0
 16 17  1  0
 17 18  2  0
 11 19  1  0
 19 20  1  0
  2 21  1  0
 21 22  1  0
 22 23  1  0
 23 24  1  0
 24 25  1  0
 25 26  1  0
 26 27  2  0
 27 28  1  0
 28 29  2  0
 29 30  1  0
 30 31  2  0
 24 32  1  0
 32 33  1  0
 20  4  1  0
 33 21  1  0
 19  8  2  0
 31 26  1  0
 18 13  1  0
  1 34  1  0
  1 35  1  0
  1 36  1  0
  3 37  1  0
  3 38  1  0
  9 39  1  0
 12 40  1  0
 12 41  1  0
 14 42  1  0
 15 43  1  0
 16 44  1  0
 17 45  1  0
 18 46  1  0
 20 47  1  0
 21 48  1  0
 22 49  1  0
 22 50  1  0
 23 51  1  0
 23 52  1  0
 25 53  1  0
 25 54  1  0
 27 55  1  0
 28 56  1  0
 29 57  1  0
 30 58  1  0
 31 59  1  0
 32 60  1  0
 32 61  1  0
 33 62  1  0
 33 63  1  0
M  END
>  <smiles>  (59) 
CN(Cc1nc(=O)c2cnn(Cc3ccccc3)c2[nH]1)C1CCN(Cc2ccccc2)CC1

>  <score_type>  (59) 
oracle

>  <origin>  (59) 
adg

>  <m_score__min__energy>  (59) 
-9.0700000000000003

>  <m_primary>  (59) 
energy

$$$$
59:0
     RDKit          3D

 51 53  0  0  0  0  0  0  0  0999 V2000
   58.8270   29.2120   49.8870 N   0  0  0  0  0  0  0  0  0  0  0  0
   60.0950   28.6940   48.8300 S   0  0  0  0  0  0  0  0  0  0  0  0
   60.6160   27.3640   49.3040 O   0  0  0  0  0  0  0  0  0  0  0  0
   61.2090   29.7050   48.8610 O   0  0  0  0  0  0  0  0  0  0  0  0
   59.5000   28.5330   47.1820 C   0  0  0  0  0  0  0  0  0  0  0  0
   60.4060   28.2920   46.1400 C   0  0  0  0  0  0  0  0  0  0  0  0
   59.9520   28.2030   44.8190 C   0  0  0  0  0  0  0  0  0  0  0  0
   58.5930   28.3550   44.5340 C   0  0  0  0  0  0  0  0  0  0  0  0
   57.6740   28.5640   45.5690 C   0  0  0  0  0  0  0  0  0  0  0  0
   56.2860   28.7330   45.2460 N   0  0  0  0  0  0  0  0  0  0  0  0
   55.7920   29.5550   44.1830 C   0  0  0  0  0  0  0  0  0  0  0  0
   54.6300   29.3520   43.7430 O   0  0  0  0  0  0  0  0  0  0  0  0
   56.5960   30.6660   43.6400 C   0  0  0  0  0  0  0  0  0  0  0  0
   56.6580   30.8280   42.3910 O   0  0  0  0  0  0  0  0  0  0  0  0
   57.3150   31.5410   44.5240 N   0  0  0  0  0  0  0  0  0  0  0  0
   58.1760   32.6290   44.0520 C   0  0  0  0  0  0  0  0  0  0  0  0
   58.2360   33.8010   45.0600 C   0  0  2  0  0  0  0  0  0  0  0  0
   59.4650   34.6880   44.8780 C   0  0  0  0  0  0  0  0  0  0  0  0
   59.6690   35.3260   46.2420 C   0  0  0  0  0  0  0  0  0  0  0  0
   58.6300   34.6750   47.1530 C   0  0  0  0  0  0  0  0  0  0  0  0
   58.1550   33.4500   46.4930 N   0  0  0  0  0  0  0  0  0  0  0  0
   59.1780   32.1000   46.9760 S   0  0  0  0  0  0  0  0  0  0  0  0
   58.5120   31.2830   48.0480 O   0  0  0  0  0  0  0  0  0  0  0  0
   59.4710   31.2050   45.8020 O   0  0  0  0  0  0  0  0  0  0  0  0
   60.6860   32.7100   47.6550 C   0  0  0  0  0  0  0  0  0  0  0  0
   61.8300   32.8500   46.8570 C   0  0  0  0  0  0  0  0  0  0  0  0
   63.0150   33.3470   47.4110 C   0  0  0  0  0  0  0  0  0  0  0  0
   63.0620   33.7070   48.7620 C   0  0  0  0  0  0  0  0  0  0  0  0
   61.9240   33.5740   49.5610 C   0  0  0  0  0  0  0  0  0  0  0  0
   60.7370   33.0800   49.0080 C   0  0  0  0  0  0  0  0  0  0  0  0
   58.1330   28.6660   46.8950 C   0  0  0  0  0  0  0  0  0  0  0  0
   58.0640   29.5950   49.2860 H   0  0  0  0  0  0  0  0  0  0  0  0
   61.4769   28.1725   46.3611 H   0  0  0  0  0  0  0  0  0  0  0  0
   60.6663   28.0131   44.0043 H   0  0  0  0  0  0  0  0  0  0  0  0
   58.2435   28.3103   43.4919 H   0  0  0  0  0  0  0  0  0  0  0  0
   57.3120   31.3260   45.5470 H   0  0  0  0  0  0  0  0  0  0  0  0
   59.1929   32.2373   43.9021 H   0  0  0  0  0  0  0  0  0  0  0  0
   57.7538   33.0119   43.1112 H   0  0  0  0  0  0  0  0  0  0  0  0
   57.3119   34.3388   44.8015 H   0  0  0  0  0  0  0  0  0  0  0  0
   60.3412   34.0870   44.5933 H   0  0  0  0  0  0  0  0  0  0  0  0
   59.3326   35.4331   44.0797 H   0  0  0  0  0  0  0  0  0  0  0  0
   60.6852   35.1259   46.6125 H   0  0  0  0  0  0  0  0  0  0  0  0
   59.5527   36.4192   46.2041 H   0  0  0  0  0  0  0  0  0  0  0  0
   59.0868   34.4246   48.1218 H   0  0  0  0  0  0  0  0  0  0  0  0
   57.7914   35.3640   47.3316 H   0  0  0  0  0  0  0  0  0  0  0  0
   61.7961   32.5688   45.7941 H   0  0  0  0  0  0  0  0  0  0  0  0
   63.9115   33.4548   46.7828 H   0  0  0  0  0  0  0  0  0  0  0  0
   63.9956   34.0950   49.1953 H   0  0  0  0  0  0  0  0  0  0  0  0
   61.9607   33.8571   50.6233 H   0  0  0  0  0  0  0  0  0  0  0  0
   59.8398   32.9812   49.6367 H   0  0  0  0  0  0  0  0  0  0  0  0
   57.4175   28.8507   47.7098 H   0  0  0  0  0  0  0  0  0  0  0  0
  1  2  1  0
  2  3  2  0
  2  4  2  0
  2  5  1  0
  5  6  2  0
  6  7  1  0
  7  8  2  0
  8  9  1  0
  9 10  1  0
 10 11  1  0
 11 12  2  0
 11 13  1  0
 13 14  2  0
 13 15  1  0
 15 16  1  0
 16 17  1  0
 17 18  1  0
 18 19  1  0
 19 20  1  0
 20 21  1  0
 21 22  1  0
 22 23  2  0
 22 24  2  0
 22 25  1  0
 25 26  2  0
 26 27  1  0
 27 28  2  0
 28 29  1  0
 29 30  2  0
  9 31  2  0
 31  5  1  0
 21 17  1  0
 30 25  1  0
  1 32  1  0
  6 33  1  0
  7 34  1  0
  8 35  1  0
 15 36  1  0
 16 37  1  0
 16 38  1  0
 17 39  1  6
 18 40  1  0
 18 41  1  0
 19 42  1  0
 19 43  1  0
 20 44  1  0
 20 45  1  0
 26 46  1  0
 27 47  1  0
 28 48  1  0
 29 49  1  0
 30 50  1  0
 31 51  1  0
M  CHG  2   1  -1  10  -1
M  END
>  <UniqueID>  (60) 
51

>  <SMILES>  (60) 
[NH-]S(=O)(=O)c1cccc([N-]C(=O)C(=O)NC[C@@H]2CCCN2S(=O)(=O)c2ccccc2)c1

>  <Energy>  (60) 
60.09223924777759

>  <Genealogy>  (60) 
[NH-]S(=O)(=O)c1cccc([N-]C(=O)C(=O)NCC2CCCN2S(=O)(=O)c2ccccc2)c1 (protonated)
[NH-]S(=O)(=O)c1cccc([N-]C(=O)C(=O)NC[C@@H]2CCCN2S(=O)(=O)c2ccccc2)c1 (chirality)
[NH-]S(=O)(=O)c1cccc([N-]C(=O)C(=O)NC[C@@H]2CCCN2S(=O)(=O)c2ccccc2)c1 (3D coordinates assigned)
[NH-]S(=O)(=O)c1cccc([N-]C(=O)C(=O)NC[C@@H]2CCCN2S(=O)(=O)c2ccccc2)c1 (nonaromatic ring conformer: 60.09223924777759 kcal/mol)

>  <smiles>  (60) 
NS(=O)(=O)c1cccc(NC(=O)C(=O)NCC2CCCN2S(=O)(=O)c2ccccc2)c1

>  <score_type>  (60) 
oracle

>  <origin>  (60) 
adg

>  <m_score__min__energy>  (60) 
-13.5

>  <m_primary>  (60) 
energy

$$$$
60:0
     RDKit          3D

 39 42  0  0  0  0  0  0  0  0999 V2000
   56.2640   30.3480   44.7480 O   0  0  0  0  0  0  0  0  0  0  0  0
   57.2660   29.7230   45.1910 C   0  0  0  0  0  0  0  0  0  0  0  0
   58.2210   30.3980   46.0290 N   0  0  0  0  0  0  0  0  0  0  0  0
   58.3300   31.8290   46.1240 C   0  0  0  0  0  0  0  0  0  0  0  0
   58.9460   32.4110   47.2410 C   0  0  0  0  0  0  0  0  0  0  0  0
   59.0530   33.8020   47.3320 C   0  0  0  0  0  0  0  0  0  0  0  0
   59.6850   34.3580   48.4540 O   0  0  0  0  0  0  0  0  0  0  0  0
   60.9480   33.9900   48.9400 C   0  0  0  0  0  0  0  0  0  0  0  0
   61.2110   33.7770   50.3120 C   0  0  0  0  0  0  0  0  0  0  0  0
   62.5040   33.3860   50.7290 C   0  0  0  0  0  0  0  0  0  0  0  0
   63.5030   33.1980   49.8150 N   0  0  0  0  0  0  0  0  0  0  0  0
   63.2330   33.3910   48.4990 C   0  0  0  0  0  0  0  0  0  0  0  0
   64.0980   33.2420   47.4850 N   0  0  0  0  0  0  0  0  0  0  0  0
   63.3930   33.5350   46.3670 C   0  0  0  0  0  0  0  0  0  0  0  0
   62.0770   33.8700   46.6820 C   0  0  0  0  0  0  0  0  0  0  0  0
   62.0000   33.7690   48.0550 C   0  0  0  0  0  0  0  0  0  0  0  0
   58.5720   34.5960   46.2790 C   0  0  0  0  0  0  0  0  0  0  0  0
   57.9700   33.9850   45.1790 C   0  0  0  0  0  0  0  0  0  0  0  0
   57.8640   32.6310   45.1250 N   0  0  0  0  0  0  0  0  0  0  0  0
   57.4220   28.2830   44.8680 C   0  0  0  0  0  0  0  0  0  0  0  0
   57.9620   27.8920   43.6270 C   0  0  0  0  0  0  0  0  0  0  0  0
   58.1180   26.5380   43.3160 C   0  0  0  0  0  0  0  0  0  0  0  0
   57.7440   25.5600   44.2400 C   0  0  0  0  0  0  0  0  0  0  0  0
   57.2180   25.9340   45.4790 C   0  0  0  0  0  0  0  0  0  0  0  0
   57.0580   27.2870   45.7950 C   0  0  0  0  0  0  0  0  0  0  0  0
   58.8450   29.8210   46.6350 H   0  0  0  0  0  0  0  0  0  0  0  0
   59.3445   31.7741   48.0445 H   0  0  0  0  0  0  0  0  0  0  0  0
   60.4110   33.9152   51.0543 H   0  0  0  0  0  0  0  0  0  0  0  0
   62.7081   33.2316   51.7988 H   0  0  0  0  0  0  0  0  0  0  0  0
   65.1010   32.9600   47.5420 H   0  0  0  0  0  0  0  0  0  0  0  0
   63.8036   33.5118   45.3468 H   0  0  0  0  0  0  0  0  0  0  0  0
   61.2738   34.1535   45.9859 H   0  0  0  0  0  0  0  0  0  0  0  0
   58.6690   35.6909   46.3210 H   0  0  0  0  0  0  0  0  0  0  0  0
   57.5805   34.5998   44.3542 H   0  0  0  0  0  0  0  0  0  0  0  0
   58.2632   28.6579   42.8971 H   0  0  0  0  0  0  0  0  0  0  0  0
   58.5359   26.2426   42.3423 H   0  0  0  0  0  0  0  0  0  0  0  0
   57.8636   24.4950   43.9922 H   0  0  0  0  0  0  0  0  0  0  0  0
   56.9290   25.1625   46.2078 H   0  0  0  0  0  0  0  0  0  0  0  0
   56.6455   27.5750   46.7732 H   0  0  0  0  0  0  0  0  0  0  0  0
  1  2  2  0
  2  3  1  0
  3  4  1  0
  4  5  2  0
  5  6  1  0
  6  7  1  0
  7  8  1  0
  8  9  2  0
  9 10  1  0
 10 11  2  0
 11 12  1  0
 12 13  1  0
 13 14  1  0
 14 15  2  0
 15 16  1  0
  6 17  2  0
 17 18  1  0
 18 19  2  0
  2 20  1  0
 20 21  2  0
 21 22  1  0
 22 23  2  0
 23 24  1  0
 24 25  2  0
 19  4  1  0
 25 20  1  0
 16  8  1  0
 16 12  2  0
  3 26  1  0
  5 27  1  0
  9 28  1  0
 10 29  1  0
 13 30  1  0
 14 31  1  0
 15 32  1  0
 17 33  1  0
 18 34  1  0
 21 35  1  0
 22 36  1  0
 23 37  1  0
 24 38  1  0
 25 39  1  0
M  END
>  <UniqueID>  (61) 
52

>  <SMILES>  (61) 
O=C(Nc1cc(Oc2ccnc3[nH]ccc23)ccn1)c1ccccc1

>  <Energy>  (61) 
88.82657596672557

>  <Genealogy>  (61) 
O=C(Nc1cc(Oc2ccnc3[nH]ccc23)ccn1)c1ccccc1 (3D coordinates assigned)
O=C(Nc1cc(Oc2ccnc3[nH]ccc23)ccn1)c1ccccc1 (optimized conformer: 88.82657596672557 kcal/mol)

>  <smiles>  (61) 
O=C(Nc1cc(Oc2ccnc3[nH]ccc23)ccn1)c1ccccc1

>  <score_type>  (61) 
oracle

>  <origin>  (61) 
adg

>  <m_score__min__energy>  (61) 
-8.2400000000000002

>  <m_primary>  (61) 
energy

$$$$
61:0
     RDKit          3D

 54 58  0  0  0  0  0  0  0  0999 V2000
   60.1470   33.9160   45.1480 O   0  0  0  0  0  0  0  0  0  0  0  0
   59.5100   33.5970   46.1890 C   0  0  0  0  0  0  0  0  0  0  0  0
   60.1970   33.3520   47.3950 C   0  0  0  0  0  0  0  0  0  0  0  0
   59.4370   32.9810   48.5330 C   0  0  0  0  0  0  0  0  0  0  0  0
   60.0780   32.7270   49.7670 C   0  0  0  0  0  0  0  0  0  0  0  0
   61.4700   32.8300   49.8880 C   0  0  0  0  0  0  0  0  0  0  0  0
   62.2100   33.1840   48.7570 C   0  0  0  0  0  0  0  0  0  0  0  0
   61.5980   33.4470   47.5520 C   0  0  0  0  0  0  0  0  0  0  0  0
   62.6010   33.8140   46.6700 C   0  0  0  0  0  0  0  0  0  0  0  0
   63.7810   33.7560   47.3930 C   0  0  0  0  0  0  0  0  0  0  0  0
   63.5490   33.3490   48.6640 N   0  0  0  0  0  0  0  0  0  0  0  0
   64.5360   33.2630   49.7550 C   0  0  0  0  0  0  0  0  0  0  0  0
   64.7150   31.7950   50.1840 C   0  0  0  0  0  0  0  0  0  0  0  0
   65.3570   31.7180   51.5740 C   0  0  0  0  0  0  0  0  0  0  0  0
   64.5290   32.3520   52.6210 N   0  0  0  0  0  0  0  0  0  0  0  0
   63.5960   33.3860   52.1330 C   0  0  0  0  0  0  0  0  0  0  0  0
   64.1710   34.1820   50.9510 C   0  0  0  0  0  0  0  0  0  0  0  0
   58.0860   32.8720   48.4320 N   0  0  0  0  0  0  0  0  0  0  0  0
   57.4470   33.1150   47.2600 C   0  0  0  0  0  0  0  0  0  0  0  0
   58.1430   33.4850   46.1430 N   0  0  0  0  0  0  0  0  0  0  0  0
   57.4080   33.7070   44.8860 C   0  0  0  0  0  0  0  0  0  0  0  0
   57.3720   32.4300   44.0480 C   0  0  0  0  0  0  0  0  0  0  0  0
   56.9850   31.3270   44.8650 O   0  0  0  0  0  0  0  0  0  0  0  0
   57.6310   30.0830   44.8770 C   0  0  0  0  0  0  0  0  0  0  0  0
   59.0350   29.9600   44.8800 C   0  0  0  0  0  0  0  0  0  0  0  0
   59.6310   28.6960   44.8940 C   0  0  0  0  0  0  0  0  0  0  0  0
   58.8370   27.5470   44.9040 C   0  0  0  0  0  0  0  0  0  0  0  0
   57.4440   27.6590   44.9010 C   0  0  0  0  0  0  0  0  0  0  0  0
   56.8430   28.9220   44.8870 C   0  0  0  0  0  0  0  0  0  0  0  0
   55.4900   29.0210   44.8860 F   0  0  0  0  0  0  0  0  0  0  0  0
   59.4762   32.4449   50.6435 H   0  0  0  0  0  0  0  0  0  0  0  0
   61.9680   32.6369   50.8496 H   0  0  0  0  0  0  0  0  0  0  0  0
   62.4844   34.0940   45.6126 H   0  0  0  0  0  0  0  0  0  0  0  0
   64.7731   34.0067   46.9894 H   0  0  0  0  0  0  0  0  0  0  0  0
   65.5004   33.6333   49.3772 H   0  0  0  0  0  0  0  0  0  0  0  0
   63.7315   31.3031   50.2114 H   0  0  0  0  0  0  0  0  0  0  0  0
   65.3709   31.2895   49.4599 H   0  0  0  0  0  0  0  0  0  0  0  0
   65.5048   30.6597   51.8351 H   0  0  0  0  0  0  0  0  0  0  0  0
   66.3112   32.2634   51.5297 H   0  0  0  0  0  0  0  0  0  0  0  0
   65.1710   32.7910   53.3240 H   0  0  0  0  0  0  0  0  0  0  0  0
   62.6646   32.8977   51.8105 H   0  0  0  0  0  0  0  0  0  0  0  0
   63.4161   34.0918   52.9573 H   0  0  0  0  0  0  0  0  0  0  0  0
   63.4221   34.9162   50.6193 H   0  0  0  0  0  0  0  0  0  0  0  0
   65.0914   34.6790   51.2913 H   0  0  0  0  0  0  0  0  0  0  0  0
   57.5150   32.5950   49.2630 H   0  0  0  0  0  0  0  0  0  0  0  0
   56.3530   33.0128   47.2078 H   0  0  0  0  0  0  0  0  0  0  0  0
   56.3780   34.0146   45.1196 H   0  0  0  0  0  0  0  0  0  0  0  0
   57.9202   34.4926   44.3111 H   0  0  0  0  0  0  0  0  0  0  0  0
   56.6469   32.5505   43.2297 H   0  0  0  0  0  0  0  0  0  0  0  0
   58.3724   32.2404   43.6317 H   0  0  0  0  0  0  0  0  0  0  0  0
   59.6641   30.8623   44.8713 H   0  0  0  0  0  0  0  0  0  0  0  0
   60.7273   28.6059   44.8972 H   0  0  0  0  0  0  0  0  0  0  0  0
   59.3085   26.5532   44.9142 H   0  0  0  0  0  0  0  0  0  0  0  0
   56.8198   26.7533   44.9097 H   0  0  0  0  0  0  0  0  0  0  0  0
  1  2  2  0
  2  3  1  0
  3  4  2  0
  4  5  1  0
  5  6  2  0
  6  7  1  0
  7  8  2  0
  8  9  1  0
  9 10  2  0
 10 11  1  0
 11 12  1  0
 12 13  1  0
 13 14  1  0
 14 15  1  0
 15 16  1  0
 16 17  1  0
  4 18  1  0
 18 19  2  0
 19 20  1  0
 20 21  1  0
 21 22  1  0
 22 23  1  0
 23 24  1  0
 24 25  2  0
 25 26  1  0
 26 27  2  0
 27 28  1  0
 28 29  2  0
 29 30  1  0
 20  2  1  0
 29 24  1  0
  8  3  1  0
 17 12  1  0
 11  7  1  0
  5 31  1  0
  6 32  1  0
  9 33  1  0
 10 34  1  0
 12 35  1  0
 13 36  1  0
 13 37  1  0
 14 38  1  0
 14 39  1  0
 15 40  1  0
 16 41  1  0
 16 42  1  0
 17 43  1  0
 17 44  1  0
 18 45  1  0
 19 46  1  0
 21 47  1  0
 21 48  1  0
 22 49  1  0
 22 50  1  0
 25 51  1  0
 26 52  1  0
 27 53  1  0
 28 54  1  0
M  CHG  1  18   1
M  END
>  <UniqueID>  (62) 
53

>  <SMILES>  (62) 
O=c1c2c(ccc3c2ccn3C2CCNCC2)[nH+]cn1CCOc1ccccc1F

>  <Energy>  (62) 
104.17637376558216

>  <Genealogy>  (62) 
O=c1c2c(ccc3c2ccn3C2CCNCC2)[nH+]cn1CCOc1ccccc1F (protonated)
O=c1c2c(ccc3c2ccn3C2CCNCC2)[nH+]cn1CCOc1ccccc1F (3D coordinates assigned)
O=c1c2c(ccc3c2ccn3C2CCNCC2)[nH+]cn1CCOc1ccccc1F (nonaromatic ring conformer: 104.17637376558216 kcal/mol)

>  <smiles>  (62) 
O=c1c2c(ccc3c2ccn3C2CCNCC2)ncn1CCOc1ccccc1F

>  <score_type>  (62) 
oracle

>  <origin>  (62) 
adg

>  <m_score__min__energy>  (62) 
-7.2000000000000002

>  <m_primary>  (62) 
energy

$$$$
62:0
     RDKit          3D

 56 59  0  0  0  0  0  0  0  0999 V2000
   64.1960   32.4660   49.9310 C   0  0  0  0  0  0  0  0  0  0  0  0
   63.4600   33.3210   48.9960 N   0  0  0  0  0  0  0  0  0  0  0  0
   64.1010   33.7930   47.7690 C   0  0  0  0  0  0  0  0  0  0  0  0
   63.4370   33.1320   46.5650 C   0  0  0  0  0  0  0  0  0  0  0  0
   62.1560   33.7000   46.3200 O   0  0  0  0  0  0  0  0  0  0  0  0
   60.9900   33.5400   47.0900 C   0  0  0  0  0  0  0  0  0  0  0  0
   59.8040   33.3730   46.3640 C   0  0  0  0  0  0  0  0  0  0  0  0
   58.5870   33.1780   47.0080 C   0  0  0  0  0  0  0  0  0  0  0  0
   58.5310   33.1400   48.3950 C   0  0  0  0  0  0  0  0  0  0  0  0
   59.6940   33.3120   49.1540 C   0  0  0  0  0  0  0  0  0  0  0  0
   59.5750   33.2170   50.5910 C   0  0  0  0  0  0  0  0  0  0  0  0
   59.4750   33.1370   51.7900 C   0  0  0  0  0  0  0  0  0  0  0  0
   59.3520   33.0430   53.2570 C   0  0  2  0  0  0  0  0  0  0  0  0
   58.6400   34.2950   53.7780 C   0  0  0  0  0  0  0  0  0  0  0  0
   60.6360   32.9890   53.8330 O   0  0  0  0  0  0  0  0  0  0  0  0
   58.5420   31.8210   53.6290 C   0  0  0  0  0  0  0  0  0  0  0  0
   57.5410   31.9440   54.3860 O   0  0  0  0  0  0  0  0  0  0  0  0
   58.9490   30.5280   53.1450 N   0  0  0  0  0  0  0  0  0  0  0  0
   59.2550   30.1540   51.9320 C   0  0  0  0  0  0  0  0  0  0  0  0
   60.5310   29.6690   51.5810 C   0  0  0  0  0  0  0  0  0  0  0  0
   60.7830   29.2820   50.2640 C   0  0  0  0  0  0  0  0  0  0  0  0
   59.7760   29.3620   49.2950 C   0  0  0  0  0  0  0  0  0  0  0  0
   60.0340   28.9520   47.8890 C   0  0  0  0  0  0  0  0  0  0  0  0
   60.3200   29.9170   46.9040 C   0  0  0  0  0  0  0  0  0  0  0  0
   60.5650   29.5290   45.5830 C   0  0  0  0  0  0  0  0  0  0  0  0
   60.5270   28.1780   45.2310 C   0  0  0  0  0  0  0  0  0  0  0  0
   60.2440   27.2120   46.1990 C   0  0  0  0  0  0  0  0  0  0  0  0
   59.9990   27.5940   47.5210 C   0  0  0  0  0  0  0  0  0  0  0  0
   58.5130   29.8310   49.6870 C   0  0  0  0  0  0  0  0  0  0  0  0
   58.2840   30.2030   50.9750 N   0  0  0  0  0  0  0  0  0  0  0  0
   60.9460   33.5300   48.5170 C   0  0  0  0  0  0  0  0  0  0  0  0
   62.1460   33.7860   49.3620 C   0  0  0  0  0  0  0  0  0  0  0  0
   61.9990   34.4050   50.4520 O   0  0  0  0  0  0  0  0  0  0  0  0
   63.9484   32.7536   50.9635 H   0  0  0  0  0  0  0  0  0  0  0  0
   63.9154   31.4153   49.7657 H   0  0  0  0  0  0  0  0  0  0  0  0
   65.2767   32.5872   49.7657 H   0  0  0  0  0  0  0  0  0  0  0  0
   63.9923   34.8851   47.6946 H   0  0  0  0  0  0  0  0  0  0  0  0
   65.1696   33.5327   47.7887 H   0  0  0  0  0  0  0  0  0  0  0  0
   64.0715   33.2772   45.6783 H   0  0  0  0  0  0  0  0  0  0  0  0
   63.3129   32.0594   46.7753 H   0  0  0  0  0  0  0  0  0  0  0  0
   59.8357   33.3965   45.2647 H   0  0  0  0  0  0  0  0  0  0  0  0
   57.6672   33.0536   46.4177 H   0  0  0  0  0  0  0  0  0  0  0  0
   57.5677   32.9739   48.8995 H   0  0  0  0  0  0  0  0  0  0  0  0
   58.6439   34.2881   54.8780 H   0  0  0  0  0  0  0  0  0  0  0  0
   59.1631   35.1920   53.4151 H   0  0  0  0  0  0  0  0  0  0  0  0
   57.6016   34.3041   53.4151 H   0  0  0  0  0  0  0  0  0  0  0  0
   60.8330   32.0400   54.0540 H   0  0  0  0  0  0  0  0  0  0  0  0
   61.3234   29.5960   52.3405 H   0  0  0  0  0  0  0  0  0  0  0  0
   61.7805   28.9113   49.9853 H   0  0  0  0  0  0  0  0  0  0  0  0
   60.3509   30.9825   47.1754 H   0  0  0  0  0  0  0  0  0  0  0  0
   60.7880   30.2892   44.8198 H   0  0  0  0  0  0  0  0  0  0  0  0
   60.7200   27.8748   44.1914 H   0  0  0  0  0  0  0  0  0  0  0  0
   60.2138   26.1483   45.9205 H   0  0  0  0  0  0  0  0  0  0  0  0
   59.7774   26.8281   48.2788 H   0  0  0  0  0  0  0  0  0  0  0  0
   57.7019   29.8983   48.9470 H   0  0  0  0  0  0  0  0  0  0  0  0
   57.3280   30.5430   51.2290 H   0  0  0  0  0  0  0  0  0  0  0  0
  1  2  1  0
  2  3  1  0
  3  4  1  0
  4  5  1  0
  5  6  1  0
  6  7  2  0
  7  8  1  0
  8  9  2  0
  9 10  1  0
 10 11  1  0
 11 12  3  0
 13 12  1  6
 13 14  1  0
 13 15  1  0
 13 16  1  0
 16 17  2  0
 16 18  1  0
 18 19  2  3
 19 20  1  0
 20 21  2  0
 21 22  1  0
 22 23  1  0
 23 24  2  0
 24 25  1  0
 25 26  2  0
 26 27  1  0
 27 28  2  0
 22 29  2  0
 29 30  1  0
 10 31  2  0
 31 32  1  0
 32 33  2  0
 32  2  1  0
 31  6  1  0
 30 19  1  0
 28 23  1  0
  1 34  1  0
  1 35  1  0
  1 36  1  0
  3 37  1  0
  3 38  1  0
  4 39  1  0
  4 40  1  0
  7 41  1  0
  8 42  1  0
  9 43  1  0
 14 44  1  0
 14 45  1  0
 14 46  1  0
 15 47  1  0
 20 48  1  0
 21 49  1  0
 24 50  1  0
 25 51  1  0
 26 52  1  0
 27 53  1  0
 28 54  1  0
 29 55  1  0
 30 56  1  0
M  END
>  <UniqueID>  (63) 
54

>  <SMILES>  (63) 
CN1CCOc2cccc(C#C[C@](C)(O)C(=O)N=c3ccc(-c4ccccc4)c[nH]3)c2C1=O

>  <Energy>  (63) 
80.16931332435925

>  <Genealogy>  (63) 
CN1CCOc2cccc(C#C[C@](C)(O)C(=O)N=c3ccc(-c4ccccc4)c[nH]3)c2C1=O (chirality)
CN1CCOc2cccc(C#C[C@](C)(O)C(=O)N=c3ccc(-c4ccccc4)c[nH]3)c2C1=O (3D coordinates assigned)
CN1CCOc2cccc(C#C[C@](C)(O)C(=O)N=c3ccc(-c4ccccc4)c[nH]3)c2C1=O (nonaromatic ring conformer: 80.16931332435925 kcal/mol)

>  <smiles>  (63) 
CN1CCOc2cccc(C#CC(C)(O)C(=O)N=c3ccc(-c4ccccc4)c[nH]3)c2C1=O

>  <score_type>  (63) 
oracle

>  <origin>  (63) 
adg

>  <m_score__min__energy>  (63) 
-6.8899999999999997

>  <m_primary>  (63) 
energy

$$$$
63:0
     RDKit          3D

 46 49  0  0  0  0  0  0  0  0999 V2000
   57.0530   31.9800   40.6260 N   0  0  0  0  0  0  0  0  0  0  0  0
   57.2560   31.7600   42.0250 C   0  0  0  0  0  0  0  0  0  0  0  0
   56.7620   30.5990   42.6340 C   0  0  0  0  0  0  0  0  0  0  0  0
   56.9540   30.3840   44.0010 C   0  0  0  0  0  0  0  0  0  0  0  0
   57.6360   31.3320   44.7700 C   0  0  0  0  0  0  0  0  0  0  0  0
   57.8060   31.1290   46.0960 N   0  0  0  0  0  0  0  0  0  0  0  0
   58.4230   32.0450   46.8860 C   0  0  0  0  0  0  0  0  0  0  0  0
   58.5690   31.6600   48.6430 S   0  0  0  0  0  0  0  0  0  0  0  0
   59.9940   30.5360   48.4380 C   0  0  0  0  0  0  0  0  0  0  0  0
   59.6780   29.1610   48.9580 C   0  0  0  0  0  0  0  0  0  0  0  0
   60.1610   28.8110   50.0660 O   0  0  0  0  0  0  0  0  0  0  0  0
   58.7470   28.2840   48.3070 N   0  0  0  0  0  0  0  0  0  0  0  0
   58.6550   28.0030   46.9040 C   0  0  0  0  0  0  0  0  0  0  0  0
   59.6650   28.4690   46.0530 C   0  0  0  0  0  0  0  0  0  0  0  0
   59.6120   28.2050   44.6820 C   0  0  0  0  0  0  0  0  0  0  0  0
   58.5300   27.5000   44.1470 C   0  0  0  0  0  0  0  0  0  0  0  0
   58.4830   27.2370   42.8170 F   0  0  0  0  0  0  0  0  0  0  0  0
   57.4900   27.0810   44.9810 C   0  0  0  0  0  0  0  0  0  0  0  0
   57.5420   27.3460   46.3540 C   0  0  0  0  0  0  0  0  0  0  0  0
   58.9100   33.2130   46.3450 N   0  0  0  0  0  0  0  0  0  0  0  0
   59.6150   34.1990   47.1890 C   0  0  0  0  0  0  0  0  0  0  0  0
   61.0650   33.8420   47.2950 C   0  0  0  0  0  0  0  0  0  0  0  0
   61.7270   33.4760   48.4510 C   0  0  0  0  0  0  0  0  0  0  0  0
   63.0260   33.2270   48.0690 C   0  0  0  0  0  0  0  0  0  0  0  0
   63.0770   33.4550   46.7080 C   0  0  0  0  0  0  0  0  0  0  0  0
   61.8920   33.8190   46.2760 O   0  0  0  0  0  0  0  0  0  0  0  0
   58.7960   33.4350   44.9920 C   0  0  0  0  0  0  0  0  0  0  0  0
   59.2770   34.4820   44.4750 O   0  0  0  0  0  0  0  0  0  0  0  0
   58.1360   32.5010   44.1730 C   0  0  0  0  0  0  0  0  0  0  0  0
   57.9470   32.7080   42.7940 C   0  0  0  0  0  0  0  0  0  0  0  0
   57.6690   32.6340   40.0930 H   0  0  0  0  0  0  0  0  0  0  0  0
   56.2870   31.4890   40.1130 H   0  0  0  0  0  0  0  0  0  0  0  0
   56.2206   29.8534   42.0332 H   0  0  0  0  0  0  0  0  0  0  0  0
   56.5683   29.4682   44.4728 H   0  0  0  0  0  0  0  0  0  0  0  0
   60.2462   30.4668   47.3695 H   0  0  0  0  0  0  0  0  0  0  0  0
   60.8424   30.9395   49.0102 H   0  0  0  0  0  0  0  0  0  0  0  0
   60.5051   29.0463   46.4665 H   0  0  0  0  0  0  0  0  0  0  0  0
   60.4219   28.5520   44.0235 H   0  0  0  0  0  0  0  0  0  0  0  0
   56.6295   26.5422   44.5577 H   0  0  0  0  0  0  0  0  0  0  0  0
   56.7094   27.0391   47.0040 H   0  0  0  0  0  0  0  0  0  0  0  0
   59.5182   35.1982   46.7393 H   0  0  0  0  0  0  0  0  0  0  0  0
   59.1691   34.1964   48.1946 H   0  0  0  0  0  0  0  0  0  0  0  0
   61.3049   33.3996   49.4639 H   0  0  0  0  0  0  0  0  0  0  0  0
   63.8562   32.9102   48.7174 H   0  0  0  0  0  0  0  0  0  0  0  0
   63.9744   33.3479   46.0810 H   0  0  0  0  0  0  0  0  0  0  0  0
   58.3427   33.6169   42.3172 H   0  0  0  0  0  0  0  0  0  0  0  0
  1  2  1  0
  2  3  2  0
  3  4  1  0
  4  5  2  0
  5  6  1  0
  6  7  2  0
  7  8  1  0
  8  9  1  0
  9 10  1  0
 10 11  2  0
 10 12  1  0
 12 13  1  0
 13 14  2  0
 14 15  1  0
 15 16  2  0
 16 17  1  0
 16 18  1  0
 18 19  2  0
  7 20  1  0
 20 21  1  0
 21 22  1  0
 22 23  2  0
 23 24  1  0
 24 25  2  0
 25 26  1  0
 20 27  1  0
 27 28  2  0
 27 29  1  0
 29 30  2  0
 30  2  1  0
 29  5  1  0
 19 13  1  0
 26 22  1  0
  1 31  1  0
  1 32  1  0
  3 33  1  0
  4 34  1  0
  9 35  1  0
  9 36  1  0
 14 37  1  0
 15 38  1  0
 18 39  1  0
 19 40  1  0
 21 41  1  0
 21 42  1  0
 23 43  1  0
 24 44  1  0
 25 45  1  0
 30 46  1  0
M  CHG  1  12  -1
M  END
>  <UniqueID>  (64) 
55

>  <SMILES>  (64) 
Nc1ccc2nc(SCC(=O)[N-]c3ccc(F)cc3)n(Cc3ccco3)c(=O)c2c1

>  <Energy>  (64) 
78.8401332262251

>  <Genealogy>  (64) 
Nc1ccc2nc(SCC(=O)[N-]c3ccc(F)cc3)n(Cc3ccco3)c(=O)c2c1 (protonated)
Nc1ccc2nc(SCC(=O)[N-]c3ccc(F)cc3)n(Cc3ccco3)c(=O)c2c1 (3D coordinates assigned)
Nc1ccc2nc(SCC(=O)[N-]c3ccc(F)cc3)n(Cc3ccco3)c(=O)c2c1 (optimized conformer: 78.8401332262251 kcal/mol)

>  <smiles>  (64) 
Nc1ccc2nc(SCC(=O)Nc3ccc(F)cc3)n(Cc3ccco3)c(=O)c2c1

>  <score_type>  (64) 
oracle

>  <origin>  (64) 
adg

>  <m_score__min__energy>  (64) 
-9

>  <m_primary>  (64) 
energy

$$$$
64:0
     RDKit          3D

 31 31  0  0  0  0  0  0  0  0999 V2000
   61.1690   32.1880   48.9137 H   0  0  0  0  0  0  0  0  0  0  0  0
   61.3450   31.9180   47.8620 C   0  0  0  0  0  0  0  0  0  0  0  0
   62.6220   31.7020   47.4900 C   0  0  0  0  0  0  0  0  0  0  0  0
   62.8788   30.6826   47.1660 H   0  0  0  0  0  0  0  0  0  0  0  0
   63.6920   32.6830   47.4750 N   0  0  0  0  0  0  0  0  0  0  0  0
   64.5190   32.2010   47.0490 H   0  0  0  0  0  0  0  0  0  0  0  0
   63.3920   33.8330   46.6060 C   0  0  0  0  0  0  0  0  0  0  0  0
   63.1628   34.7117   47.2268 H   0  0  0  0  0  0  0  0  0  0  0  0
   64.2636   34.0500   45.9710 H   0  0  0  0  0  0  0  0  0  0  0  0
   62.5255   33.5965   45.9710 H   0  0  0  0  0  0  0  0  0  0  0  0
   64.1060   33.1070   48.8230 C   0  0  0  0  0  0  0  0  0  0  0  0
   63.5458   32.5333   49.5760 H   0  0  0  0  0  0  0  0  0  0  0  0
   65.1833   32.9248   48.9500 H   0  0  0  0  0  0  0  0  0  0  0  0
   63.8981   34.1797   48.9500 H   0  0  0  0  0  0  0  0  0  0  0  0
   60.1620   31.8250   46.9860 C   0  0  0  0  0  0  0  0  0  0  0  0
   59.8910   30.5950   46.3690 C   0  0  0  0  0  0  0  0  0  0  0  0
   60.5273   29.7221   46.5768 H   0  0  0  0  0  0  0  0  0  0  0  0
   58.8150   30.4810   45.4930 C   0  0  0  0  0  0  0  0  0  0  0  0
   58.5812   29.5118   45.0283 H   0  0  0  0  0  0  0  0  0  0  0  0
   58.0370   31.5980   45.2080 C   0  0  0  0  0  0  0  0  0  0  0  0
   57.1775   31.5162   44.5264 H   0  0  0  0  0  0  0  0  0  0  0  0
   58.3560   32.8230   45.7940 C   0  0  0  0  0  0  0  0  0  0  0  0
   57.7529   33.7116   45.5558 H   0  0  0  0  0  0  0  0  0  0  0  0
   59.4110   32.9350   46.6630 N   0  0  0  0  0  0  0  0  0  0  0  0
   59.7450   34.2750   47.1780 C   0  0  0  0  0  0  0  0  0  0  0  0
   60.7719   34.2660   47.5722 H   0  0  0  0  0  0  0  0  0  0  0  0
   59.0352   34.5369   47.9765 H   0  0  0  0  0  0  0  0  0  0  0  0
   59.6430   35.3140   46.0660 C   0  0  0  0  0  0  0  0  0  0  0  0
   59.5446   36.3162   46.5085 H   0  0  0  0  0  0  0  0  0  0  0  0
   60.5493   35.2753   45.4438 H   0  0  0  0  0  0  0  0  0  0  0  0
   58.7616   35.0998   45.4438 H   0  0  0  0  0  0  0  0  0  0  0  0
  1  2  1  0
  2  3  2  0
  3  4  1  0
  3  5  1  0
  5  6  1  0
  5  7  1  0
  7  8  1  0
  7  9  1  0
  7 10  1  0
  5 11  1  0
 11 12  1  0
 11 13  1  0
 11 14  1  0
  2 15  1  0
 15 16  2  0
 16 17  1  0
 16 18  1  0
 18 19  1  0
 18 20  2  0
 20 21  1  0
 20 22  1  0
 22 23  1  0
 22 24  2  0
 24 25  1  0
 25 26  1  0
 25 27  1  0
 25 28  1  0
 28 29  1  0
 28 30  1  0
 28 31  1  0
 24 15  1  0
M  CHG  2   5   1  24   1
M  END
>  <UniqueID>  (65) 
56

>  <SMILES>  (65) 
CC[n+]1ccccc1/C=C\[NH+](C)C

>  <Energy>  (65) 
40.422785288208786

>  <Genealogy>  (65) 
CC[n+]1ccccc1C=C[NH+](C)C (protonated)
CC[n+]1ccccc1/C=C\[NH+](C)C (cis-trans isomerization)
CC[n+]1ccccc1/C=C\[NH+](C)C (3D coordinates assigned)
CC[n+]1ccccc1/C=C\[NH+](C)C (optimized conformer: 40.422785288208786 kcal/mol)

>  <smiles>  (65) 
CC[n+]1ccccc1C=CN(C)C

>  <score_type>  (65) 
oracle

>  <origin>  (65) 
adg

>  <m_score__min__energy>  (65) 
-2

>  <m_primary>  (65) 
energy

$$$$
65:0
     RDKit          3D

 28 28  0  0  0  0  0  0  0  0999 V2000
   57.4980   29.4330   45.1140 C   0  0  0  0  0  0  0  0  0  0  0  0
   56.5540   30.4080   44.5460 N   0  0  0  0  0  0  0  0  0  0  0  0
   55.4640   29.7360   43.8220 C   0  0  0  0  0  0  0  0  0  0  0  0
   57.2190   31.4590   43.7430 C   0  0  0  0  0  0  0  0  0  0  0  0
   57.7120   32.6700   44.5610 C   0  0  0  0  0  0  0  0  0  0  0  0
   57.6750   32.3750   45.9960 N   0  0  0  0  0  0  0  0  0  0  0  0
   58.4660   33.0860   46.9680 C   0  0  0  0  0  0  0  0  0  0  0  0
   58.5680   32.6510   48.3050 C   0  0  0  0  0  0  0  0  0  0  0  0
   59.3440   33.3660   49.2220 C   0  0  0  0  0  0  0  0  0  0  0  0
   60.0260   34.5170   48.8200 C   0  0  0  0  0  0  0  0  0  0  0  0
   59.9320   34.9560   47.4970 C   0  0  0  0  0  0  0  0  0  0  0  0
   59.1560   34.2460   46.5760 C   0  0  0  0  0  0  0  0  0  0  0  0
   57.4548   29.4777   46.2122 H   0  0  0  0  0  0  0  0  0  0  0  0
   57.2273   28.4214   44.7772 H   0  0  0  0  0  0  0  0  0  0  0  0
   58.5178   29.6709   44.7772 H   0  0  0  0  0  0  0  0  0  0  0  0
   54.7578   29.3006   44.5443 H   0  0  0  0  0  0  0  0  0  0  0  0
   54.9382   30.4670   43.1901 H   0  0  0  0  0  0  0  0  0  0  0  0
   55.8809   28.9379   43.1901 H   0  0  0  0  0  0  0  0  0  0  0  0
   58.0864   31.0089   43.2381 H   0  0  0  0  0  0  0  0  0  0  0  0
   56.4643   31.8415   43.0401 H   0  0  0  0  0  0  0  0  0  0  0  0
   58.7452   32.9075   44.2676 H   0  0  0  0  0  0  0  0  0  0  0  0
   57.0516   33.5261   44.3586 H   0  0  0  0  0  0  0  0  0  0  0  0
   57.0470   31.6110   46.3380 H   0  0  0  0  0  0  0  0  0  0  0  0
   58.0346   31.7449   48.6282 H   0  0  0  0  0  0  0  0  0  0  0  0
   59.4179   33.0210   50.2639 H   0  0  0  0  0  0  0  0  0  0  0  0
   60.6362   35.0769   49.5441 H   0  0  0  0  0  0  0  0  0  0  0  0
   60.4694   35.8617   47.1795 H   0  0  0  0  0  0  0  0  0  0  0  0
   59.0849   34.5980   45.5363 H   0  0  0  0  0  0  0  0  0  0  0  0
  1  2  1  0
  2  3  1  0
  2  4  1  0
  4  5  1  0
  5  6  1  0
  6  7  1  0
  7  8  2  0
  8  9  1  0
  9 10  2  0
 10 11  1  0
 11 12  2  0
 12  7  1  0
  1 13  1  0
  1 14  1  0
  1 15  1  0
  3 16  1  0
  3 17  1  0
  3 18  1  0
  4 19  1  0
  4 20  1  0
  5 21  1  0
  5 22  1  0
  6 23  1  0
  8 24  1  0
  9 25  1  0
 10 26  1  0
 11 27  1  0
 12 28  1  0
M  END
>  <UniqueID>  (66) 
57

>  <SMILES>  (66) 
CN(C)CCNc1ccccc1

>  <Energy>  (66) 
26.622435154877287

>  <Genealogy>  (66) 
CN(C)CCNc1ccccc1 (3D coordinates assigned)
CN(C)CCNc1ccccc1 (optimized conformer: 26.622435154877287 kcal/mol)

>  <smiles>  (66) 
CN(C)CCNc1ccccc1

>  <score_type>  (66) 
oracle

>  <origin>  (66) 
adg

>  <m_score__min__energy>  (66) 
-4.8600000000000003

>  <m_primary>  (66) 
energy

$$$$
66:0
     RDKit          3D

 42 43  0  0  0  0  0  0  0  0999 V2000
   60.9944   29.2462   45.3683 H   0  0  0  0  0  0  0  0  0  0  0  0
   60.2700   29.3290   46.1920 C   0  0  0  0  0  0  0  0  0  0  0  0
   60.5300   30.1090   47.1960 N   0  0  0  0  0  0  0  0  0  0  0  0
   61.3490   31.3130   47.0800 C   0  0  0  0  0  0  0  0  0  0  0  0
   62.3935   31.0579   47.3125 H   0  0  0  0  0  0  0  0  0  0  0  0
   61.2568   31.6939   46.0522 H   0  0  0  0  0  0  0  0  0  0  0  0
   60.8780   32.4130   48.0440 C   0  0  0  0  0  0  0  0  0  0  0  0
   61.0049   32.0512   49.0750 H   0  0  0  0  0  0  0  0  0  0  0  0
   61.4861   33.3066   47.8399 H   0  0  0  0  0  0  0  0  0  0  0  0
   59.4070   32.8090   47.8440 C   0  0  0  0  0  0  0  0  0  0  0  0
   58.8207   31.9049   47.6231 H   0  0  0  0  0  0  0  0  0  0  0  0
   59.0519   33.2916   48.7665 H   0  0  0  0  0  0  0  0  0  0  0  0
   59.2500   33.7590   46.7400 N   0  0  0  0  0  0  0  0  0  0  0  0
   58.4180   33.7040   45.6770 C   0  0  0  0  0  0  0  0  0  0  0  0
   57.4400   32.6060   45.4010 C   0  0  0  0  0  0  0  0  0  0  0  0
   57.0731   32.1940   46.3527 H   0  0  0  0  0  0  0  0  0  0  0  0
   56.5933   33.0057   44.8237 H   0  0  0  0  0  0  0  0  0  0  0  0
   57.9346   31.8110   44.8237 H   0  0  0  0  0  0  0  0  0  0  0  0
   58.6170   34.7440   44.8430 N   0  0  0  0  0  0  0  0  0  0  0  0
   59.5800   35.4730   45.3870 N   0  0  0  0  0  0  0  0  0  0  0  0
   59.9680   36.3490   44.9770 H   0  0  0  0  0  0  0  0  0  0  0  0
   59.9650   34.8790   46.5300 C   0  0  0  0  0  0  0  0  0  0  0  0
   60.7530   35.2555   47.1988 H   0  0  0  0  0  0  0  0  0  0  0  0
   59.0160   28.5510   46.1390 C   0  0  0  0  0  0  0  0  0  0  0  0
   58.9320   27.2620   46.6880 C   0  0  0  0  0  0  0  0  0  0  0  0
   59.8148   26.8132   47.1669 H   0  0  0  0  0  0  0  0  0  0  0  0
   57.7350   26.5460   46.6300 C   0  0  0  0  0  0  0  0  0  0  0  0
   57.6809   25.5366   47.0638 H   0  0  0  0  0  0  0  0  0  0  0  0
   56.5980   27.1060   46.0210 C   0  0  0  0  0  0  0  0  0  0  0  0
   55.3770   26.4150   45.9440 O   0  0  0  0  0  0  0  0  0  0  0  0
   55.2500   25.0390   45.6000 C   0  0  0  0  0  0  0  0  0  0  0  0
   55.1943   24.4352   46.5178 H   0  0  0  0  0  0  0  0  0  0  0  0
   54.3345   24.8920   45.0082 H   0  0  0  0  0  0  0  0  0  0  0  0
   56.1232   24.7269   45.0082 H   0  0  0  0  0  0  0  0  0  0  0  0
   56.6710   28.3950   45.4700 C   0  0  0  0  0  0  0  0  0  0  0  0
   55.5190   28.9280   44.8700 O   0  0  0  0  0  0  0  0  0  0  0  0
   55.5210   29.7460   43.7050 C   0  0  0  0  0  0  0  0  0  0  0  0
   55.5236   30.8055   44.0009 H   0  0  0  0  0  0  0  0  0  0  0  0
   56.4186   29.5301   43.1069 H   0  0  0  0  0  0  0  0  0  0  0  0
   54.6223   29.5345   43.1069 H   0  0  0  0  0  0  0  0  0  0  0  0
   57.8820   29.1120   45.5330 C   0  0  0  0  0  0  0  0  0  0  0  0
   57.9390   30.1226   45.1024 H   0  0  0  0  0  0  0  0  0  0  0  0
  1  2  1  0
  2  3  2  0
  3  4  1  0
  4  5  1  0
  4  6  1  0
  4  7  1  0
  7  8  1  0
  7  9  1  0
  7 10  1  0
 10 11  1  0
 10 12  1  0
 10 13  1  0
 13 14  1  0
 14 15  1  0
 15 16  1  0
 15 17  1  0
 15 18  1  0
 14 19  2  0
 19 20  1  0
 20 21  1  0
 20 22  2  0
 22 23  1  0
  2 24  1  0
 24 25  2  0
 25 26  1  0
 25 27  1  0
 27 28  1  0
 27 29  2  0
 29 30  1  0
 30 31  1  0
 31 32  1  0
 31 33  1  0
 31 34  1  0
 29 35  1  0
 35 36  1  0
 36 37  1  0
 37 38  1  0
 37 39  1  0
 37 40  1  0
 35 41  2  0
 41 42  1  0
 22 13  1  0
 41 24  1  0
M  CHG  1  20   1
M  END
>  <UniqueID>  (67) 
58

>  <SMILES>  (67) 
COc1ccc(/C=N/CCCn2c[nH+]nc2C)cc1OC

>  <Energy>  (67) 
67.99244460631465

>  <Genealogy>  (67) 
COc1ccc(C=NCCCn2c[nH+]nc2C)cc1OC (protonated)
COc1ccc(/C=N/CCCn2c[nH+]nc2C)cc1OC (cis-trans isomerization)
COc1ccc(/C=N/CCCn2c[nH+]nc2C)cc1OC (3D coordinates assigned)
COc1ccc(/C=N/CCCn2c[nH+]nc2C)cc1OC (optimized conformer: 67.99244460631465 kcal/mol)

>  <smiles>  (67) 
COc1ccc(C=NCCCn2cnnc2C)cc1OC

>  <score_type>  (67) 
oracle

>  <origin>  (67) 
adg

>  <m_score__min__energy>  (67) 
-6.0099999999999998

>  <m_primary>  (67) 
energy

$$$$
67:0
     RDKit          3D

 39 41  0  0  0  0  0  0  0  0999 V2000
   60.6110   29.0560   47.4420 O   0  0  0  0  0  0  0  0  0  0  0  0
   59.9660   30.1210   47.2300 C   0  0  0  0  0  0  0  0  0  0  0  0
   60.2340   31.2680   47.9880 O   0  0  0  0  0  0  0  0  0  0  0  0
   61.3910   32.0390   47.8460 C   0  0  0  0  0  0  0  0  0  0  0  0
   62.5450   31.4290   47.3410 C   0  0  0  0  0  0  0  0  0  0  0  0
   63.7220   32.1660   47.1760 C   0  0  0  0  0  0  0  0  0  0  0  0
   63.7550   33.5170   47.5280 C   0  0  0  0  0  0  0  0  0  0  0  0
   62.6160   34.1300   48.0570 C   0  0  0  0  0  0  0  0  0  0  0  0
   61.4320   33.3980   48.2250 C   0  0  0  0  0  0  0  0  0  0  0  0
   60.0560   34.1840   48.9870 Cl  0  0  0  0  0  0  0  0  0  0  0  0
   58.9360   30.1680   46.1130 C   0  0  1  0  0  0  0  0  0  0  0  0
   58.4720   31.5700   45.9630 N   0  0  0  0  0  0  0  0  0  0  0  0
   57.9260   32.3940   46.8890 C   0  0  0  0  0  0  0  0  0  0  0  0
   57.6020   33.6060   46.3180 C   0  0  0  0  0  0  0  0  0  0  0  0
   57.9560   33.5240   44.9900 C   0  0  0  0  0  0  0  0  0  0  0  0
   58.4830   32.2650   44.8020 C   0  0  0  0  0  0  0  0  0  0  0  0
   59.6000   29.7370   44.7580 C   0  0  0  0  0  0  0  0  0  0  0  0
   59.5200   28.2300   44.4580 C   0  0  0  0  0  0  0  0  0  0  0  0
   58.1030   27.8150   44.0440 C   0  0  0  0  0  0  0  0  0  0  0  0
   56.8910   28.5220   45.1480 S   0  0  0  0  0  0  0  0  0  0  0  0
   55.9450   27.4550   45.6220 O   0  0  0  0  0  0  0  0  0  0  0  0
   56.1180   29.5920   44.4310 O   0  0  0  0  0  0  0  0  0  0  0  0
   57.7780   29.2040   46.5420 C   0  0  0  0  0  0  0  0  0  0  0  0
   62.5261   30.3626   47.0720 H   0  0  0  0  0  0  0  0  0  0  0  0
   64.6218   31.6815   46.7690 H   0  0  0  0  0  0  0  0  0  0  0  0
   64.6780   34.0989   47.3888 H   0  0  0  0  0  0  0  0  0  0  0  0
   62.6485   35.1917   48.3429 H   0  0  0  0  0  0  0  0  0  0  0  0
   57.7643   32.1333   47.9454 H   0  0  0  0  0  0  0  0  0  0  0  0
   57.1487   34.4707   46.8248 H   0  0  0  0  0  0  0  0  0  0  0  0
   57.8407   34.3095   44.2286 H   0  0  0  0  0  0  0  0  0  0  0  0
   58.8596   31.8791   43.8432 H   0  0  0  0  0  0  0  0  0  0  0  0
   59.0969   30.2767   43.9421 H   0  0  0  0  0  0  0  0  0  0  0  0
   60.6690   29.9825   44.8419 H   0  0  0  0  0  0  0  0  0  0  0  0
   60.2160   27.9906   43.6405 H   0  0  0  0  0  0  0  0  0  0  0  0
   59.7876   27.6808   45.3728 H   0  0  0  0  0  0  0  0  0  0  0  0
   57.9081   28.1673   43.0203 H   0  0  0  0  0  0  0  0  0  0  0  0
   58.0275   26.7186   44.0910 H   0  0  0  0  0  0  0  0  0  0  0  0
   57.0691   29.7640   47.1696 H   0  0  0  0  0  0  0  0  0  0  0  0
   58.2320   28.3641   47.0883 H   0  0  0  0  0  0  0  0  0  0  0  0
  1  2  2  0
  2  3  1  0
  3  4  1  0
  4  5  2  0
  5  6  1  0
  6  7  2  0
  7  8  1  0
  8  9  2  0
  9 10  1  0
  2 11  1  0
 11 12  1  6
 12 13  1  0
 13 14  2  0
 14 15  1  0
 15 16  2  0
 11 17  1  0
 17 18  1  0
 18 19  1  0
 19 20  1  0
 20 21  2  0
 20 22  2  0
 20 23  1  0
  9  4  1  0
 23 11  1  0
 16 12  1  0
  5 24  1  0
  6 25  1  0
  7 26  1  0
  8 27  1  0
 13 28  1  0
 14 29  1  0
 15 30  1  0
 16 31  1  0
 17 32  1  0
 17 33  1  0
 18 34  1  0
 18 35  1  0
 19 36  1  0
 19 37  1  0
 23 38  1  0
 23 39  1  0
M  END
>  <UniqueID>  (68) 
59

>  <SMILES>  (68) 
O=C(Oc1ccccc1Cl)[C@@]1(n2cccc2)CCCS(=O)(=O)C1

>  <Energy>  (68) 
77.3907669127768

>  <Genealogy>  (68) 
O=C(Oc1ccccc1Cl)[C@@]1(n2cccc2)CCCS(=O)(=O)C1 (chirality)
O=C(Oc1ccccc1Cl)[C@@]1(n2cccc2)CCCS(=O)(=O)C1 (3D coordinates assigned)
O=C(Oc1ccccc1Cl)[C@@]1(n2cccc2)CCCS(=O)(=O)C1 (nonaromatic ring conformer: 77.3907669127768 kcal/mol)

>  <smiles>  (68) 
O=C(Oc1ccccc1Cl)C1(n2cccc2)CCCS(=O)(=O)C1

>  <score_type>  (68) 
oracle

>  <origin>  (68) 
adg

>  <m_score__min__energy>  (68) 
-7.8099999999999996

>  <m_primary>  (68) 
energy

$$$$
68:0
     RDKit          3D

 52 54  0  0  0  0  0  0  0  0999 V2000
   59.2650   35.3150   44.9320 C   0  0  0  0  0  0  0  0  0  0  0  0
   59.3580   34.1590   45.9350 C   0  0  0  0  0  0  0  0  0  0  0  0
   58.8210   34.5760   47.3100 C   0  0  0  0  0  0  0  0  0  0  0  0
   58.6390   32.9270   45.4200 C   0  0  0  0  0  0  0  0  0  0  0  0
   58.1470   32.8720   44.1020 C   0  0  0  0  0  0  0  0  0  0  0  0
   57.4620   31.7420   43.6480 C   0  0  0  0  0  0  0  0  0  0  0  0
   57.2670   30.6420   44.4970 C   0  0  0  0  0  0  0  0  0  0  0  0
   56.4400   29.4790   44.0360 C   0  0  0  0  0  0  0  0  0  0  0  0
   55.9500   28.7700   45.2060 N   0  0  0  0  0  0  0  0  0  0  0  0
   56.3880   27.4650   45.6010 C   0  0  0  0  0  0  0  0  0  0  0  0
   55.5870   26.6690   46.1590 O   0  0  0  0  0  0  0  0  0  0  0  0
   57.8000   27.0310   45.3280 C   0  0  0  0  0  0  0  0  0  0  0  0
   58.7650   27.7290   46.2520 C   0  0  0  0  0  0  0  0  0  0  0  0
   58.4910   27.8000   47.6270 C   0  0  0  0  0  0  0  0  0  0  0  0
   59.2840   28.5900   48.4640 C   0  0  0  0  0  0  0  0  0  0  0  0
   60.3560   29.3310   47.9370 C   0  0  0  0  0  0  0  0  0  0  0  0
   61.1710   30.2100   48.8060 C   0  0  0  0  0  0  0  0  0  0  0  0
   61.3670   29.8670   50.0040 O   0  0  0  0  0  0  0  0  0  0  0  0
   61.7750   31.4720   48.3100 C   0  0  0  0  0  0  0  0  0  0  0  0
   61.2280   32.7240   48.6560 C   0  0  0  0  0  0  0  0  0  0  0  0
   61.8030   33.9030   48.1730 C   0  0  0  0  0  0  0  0  0  0  0  0
   62.9140   33.8480   47.3300 C   0  0  0  0  0  0  0  0  0  0  0  0
   63.4520   32.6130   46.9640 C   0  0  0  0  0  0  0  0  0  0  0  0
   62.8850   31.4290   47.4480 C   0  0  0  0  0  0  0  0  0  0  0  0
   60.6530   29.2260   46.5690 C   0  0  0  0  0  0  0  0  0  0  0  0
   59.8560   28.4420   45.7310 C   0  0  0  0  0  0  0  0  0  0  0  0
   57.7500   30.6950   45.8130 C   0  0  0  0  0  0  0  0  0  0  0  0
   58.4340   31.8250   46.2690 C   0  0  0  0  0  0  0  0  0  0  0  0
   59.1884   36.2677   45.4766 H   0  0  0  0  0  0  0  0  0  0  0  0
   60.1652   35.3254   44.2999 H   0  0  0  0  0  0  0  0  0  0  0  0
   58.3747   35.1813   44.2999 H   0  0  0  0  0  0  0  0  0  0  0  0
   60.4213   33.9025   46.0520 H   0  0  0  0  0  0  0  0  0  0  0  0
   59.4269   34.1055   48.0984 H   0  0  0  0  0  0  0  0  0  0  0  0
   58.8764   35.6702   47.4088 H   0  0  0  0  0  0  0  0  0  0  0  0
   57.7746   34.2514   47.4088 H   0  0  0  0  0  0  0  0  0  0  0  0
   58.3030   33.7247   43.4249 H   0  0  0  0  0  0  0  0  0  0  0  0
   57.0734   31.7146   42.6193 H   0  0  0  0  0  0  0  0  0  0  0  0
   55.5903   29.8413   43.4387 H   0  0  0  0  0  0  0  0  0  0  0  0
   57.0490   28.8059   43.4146 H   0  0  0  0  0  0  0  0  0  0  0  0
   57.8785   25.9443   45.4793 H   0  0  0  0  0  0  0  0  0  0  0  0
   58.0542   27.2936   44.2905 H   0  0  0  0  0  0  0  0  0  0  0  0
   57.6485   27.2314   48.0475 H   0  0  0  0  0  0  0  0  0  0  0  0
   59.0679   28.6321   49.5417 H   0  0  0  0  0  0  0  0  0  0  0  0
   60.3444   32.7736   49.3092 H   0  0  0  0  0  0  0  0  0  0  0  0
   61.3786   34.8770   48.4581 H   0  0  0  0  0  0  0  0  0  0  0  0
   63.3657   34.7778   46.9540 H   0  0  0  0  0  0  0  0  0  0  0  0
   64.3233   32.5706   46.2939 H   0  0  0  0  0  0  0  0  0  0  0  0
   63.3102   30.4586   47.1523 H   0  0  0  0  0  0  0  0  0  0  0  0
   61.5182   29.7641   46.1544 H   0  0  0  0  0  0  0  0  0  0  0  0
   60.0849   28.3832   44.6567 H   0  0  0  0  0  0  0  0  0  0  0  0
   57.5895   29.8426   46.4895 H   0  0  0  0  0  0  0  0  0  0  0  0
   58.8152   31.8527   47.3005 H   0  0  0  0  0  0  0  0  0  0  0  0
  1  2  1  0
  2  3  1  0
  2  4  1  0
  4  5  2  0
  5  6  1  0
  6  7  2  0
  7  8  1  0
  8  9  1  0
  9 10  1  0
 10 11  2  0
 10 12  1  0
 12 13  1  0
 13 14  2  0
 14 15  1  0
 15 16  2  0
 16 17  1  0
 17 18  2  0
 17 19  1  0
 19 20  2  0
 20 21  1  0
 21 22  2  0
 22 23  1  0
 23 24  2  0
 16 25  1  0
 25 26  2  0
  7 27  1  0
 27 28  2  0
 28  4  1  0
 26 13  1  0
 24 19  1  0
  1 29  1  0
  1 30  1  0
  1 31  1  0
  2 32  1  0
  3 33  1  0
  3 34  1  0
  3 35  1  0
  5 36  1  0
  6 37  1  0
  8 38  1  0
  8 39  1  0
 12 40  1  0
 12 41  1  0
 14 42  1  0
 15 43  1  0
 20 44  1  0
 21 45  1  0
 22 46  1  0
 23 47  1  0
 24 48  1  0
 25 49  1  0
 26 50  1  0
 27 51  1  0
 28 52  1  0
M  CHG  1   9  -1
M  END
>  <UniqueID>  (69) 
60

>  <SMILES>  (69) 
CC(C)c1ccc(C[N-]C(=O)Cc2ccc(C(=O)c3ccccc3)cc2)cc1

>  <Energy>  (69) 
50.50266875849589

>  <Genealogy>  (69) 
CC(C)c1ccc(C[N-]C(=O)Cc2ccc(C(=O)c3ccccc3)cc2)cc1 (protonated)
CC(C)c1ccc(C[N-]C(=O)Cc2ccc(C(=O)c3ccccc3)cc2)cc1 (3D coordinates assigned)
CC(C)c1ccc(C[N-]C(=O)Cc2ccc(C(=O)c3ccccc3)cc2)cc1 (optimized conformer: 50.50266875849589 kcal/mol)

>  <smiles>  (69) 
CC(C)c1ccc(CNC(=O)Cc2ccc(C(=O)c3ccccc3)cc2)cc1

>  <score_type>  (69) 
oracle

>  <origin>  (69) 
adg

>  <m_score__min__energy>  (69) 
-11.550000000000001

>  <m_primary>  (69) 
energy

$$$$
69:0
     RDKit          3D

 43 45  0  0  0  0  0  0  0  0999 V2000
   56.9090   24.8720   44.5610 C   0  0  0  0  0  0  0  0  0  0  0  0
   56.3770   25.8130   45.9720 S   0  0  0  0  0  0  0  0  0  0  0  0
   56.3990   24.9400   47.1950 O   0  0  0  0  0  0  0  0  0  0  0  0
   54.9710   26.2990   45.7520 O   0  0  0  0  0  0  0  0  0  0  0  0
   57.4540   27.1860   46.1970 C   0  0  0  0  0  0  0  0  0  0  0  0
   58.0150   27.8300   45.0870 C   0  0  0  0  0  0  0  0  0  0  0  0
   58.8840   28.9110   45.2650 C   0  0  0  0  0  0  0  0  0  0  0  0
   59.2120   29.3530   46.5580 C   0  0  0  0  0  0  0  0  0  0  0  0
   60.1280   30.5020   46.7490 C   0  0  0  0  0  0  0  0  0  0  0  0
   61.4640   30.2480   47.1000 C   0  0  0  0  0  0  0  0  0  0  0  0
   62.3490   31.2970   47.3500 C   0  0  0  0  0  0  0  0  0  0  0  0
   61.9140   32.6280   47.2690 C   0  0  0  0  0  0  0  0  0  0  0  0
   62.8810   33.7640   47.4920 C   0  0  0  0  0  0  0  0  0  0  0  0
   64.1260   33.2780   47.8530 F   0  0  0  0  0  0  0  0  0  0  0  0
   63.0290   34.5170   46.3400 F   0  0  0  0  0  0  0  0  0  0  0  0
   62.4040   34.5770   48.5020 F   0  0  0  0  0  0  0  0  0  0  0  0
   60.5920   32.8910   46.8760 C   0  0  0  0  0  0  0  0  0  0  0  0
   59.6890   31.8430   46.6240 C   0  0  0  0  0  0  0  0  0  0  0  0
   58.3240   32.1750   46.1500 C   0  0  0  0  0  0  0  0  0  0  0  0
   57.5120   32.7020   46.9590 O   0  0  0  0  0  0  0  0  0  0  0  0
   57.8870   31.8960   44.7590 C   0  0  0  0  0  0  0  0  0  0  0  0
   56.8960   30.9270   44.5120 C   0  0  0  0  0  0  0  0  0  0  0  0
   56.4690   30.6680   43.2060 C   0  0  0  0  0  0  0  0  0  0  0  0
   57.0200   31.3740   42.1340 C   0  0  0  0  0  0  0  0  0  0  0  0
   57.9950   32.3460   42.3680 C   0  0  0  0  0  0  0  0  0  0  0  0
   58.4250   32.6110   43.6710 C   0  0  0  0  0  0  0  0  0  0  0  0
   58.6430   28.7080   47.6680 C   0  0  0  0  0  0  0  0  0  0  0  0
   57.7740   27.6270   47.4880 C   0  0  0  0  0  0  0  0  0  0  0  0
   57.4239   23.9612   44.9006 H   0  0  0  0  0  0  0  0  0  0  0  0
   56.0343   24.5942   43.9546 H   0  0  0  0  0  0  0  0  0  0  0  0
   57.5980   25.4782   43.9546 H   0  0  0  0  0  0  0  0  0  0  0  0
   57.7712   27.4842   44.0716 H   0  0  0  0  0  0  0  0  0  0  0  0
   59.3131   29.4181   44.3882 H   0  0  0  0  0  0  0  0  0  0  0  0
   61.8169   29.2091   47.1787 H   0  0  0  0  0  0  0  0  0  0  0  0
   63.3948   31.0789   47.6123 H   0  0  0  0  0  0  0  0  0  0  0  0
   60.2575   33.9329   46.7635 H   0  0  0  0  0  0  0  0  0  0  0  0
   56.4548   30.3701   45.3518 H   0  0  0  0  0  0  0  0  0  0  0  0
   55.6971   29.9062   43.0222 H   0  0  0  0  0  0  0  0  0  0  0  0
   56.6864   31.1646   41.1069 H   0  0  0  0  0  0  0  0  0  0  0  0
   58.4258   32.9048   41.5241 H   0  0  0  0  0  0  0  0  0  0  0  0
   59.1885   33.3828   43.8482 H   0  0  0  0  0  0  0  0  0  0  0  0
   58.8820   29.0547   48.6842 H   0  0  0  0  0  0  0  0  0  0  0  0
   57.3401   27.1211   48.3631 H   0  0  0  0  0  0  0  0  0  0  0  0
  1  2  1  0
  2  3  2  0
  2  4  2  0
  2  5  1  0
  5  6  2  0
  6  7  1  0
  7  8  2  0
  8  9  1  0
  9 10  2  0
 10 11  1  0
 11 12  2  0
 12 13  1  0
 13 14  1  0
 13 15  1  0
 13 16  1  0
 12 17  1  0
 17 18  2  0
 18 19  1  0
 19 20  2  0
 19 21  1  0
 21 22  2  0
 22 23  1  0
 23 24  2  0
 24 25  1  0
 25 26  2  0
  8 27  1  0
 27 28  2  0
 28  5  1  0
 18  9  1  0
 26 21  1  0
  1 29  1  0
  1 30  1  0
  1 31  1  0
  6 32  1  0
  7 33  1  0
 10 34  1  0
 11 35  1  0
 17 36  1  0
 22 37  1  0
 23 38  1  0
 24 39  1  0
 25 40  1  0
 26 41  1  0
 27 42  1  0
 28 43  1  0
M  END
>  <UniqueID>  (70) 
61

>  <SMILES>  (70) 
CS(=O)(=O)c1ccc(-c2ccc(C(F)(F)F)cc2C(=O)c2ccccc2)cc1

>  <Energy>  (70) 
57.3153513258491

>  <Genealogy>  (70) 
CS(=O)(=O)c1ccc(-c2ccc(C(F)(F)F)cc2C(=O)c2ccccc2)cc1 (3D coordinates assigned)
CS(=O)(=O)c1ccc(-c2ccc(C(F)(F)F)cc2C(=O)c2ccccc2)cc1 (optimized conformer: 57.3153513258491 kcal/mol)

>  <smiles>  (70) 
CS(=O)(=O)c1ccc(-c2ccc(C(F)(F)F)cc2C(=O)c2ccccc2)cc1

>  <score_type>  (70) 
oracle

>  <origin>  (70) 
adg

>  <m_score__min__energy>  (70) 
-8.6600000000000001

>  <m_primary>  (70) 
energy

$$$$
70:0
     RDKit          3D

 81 86  0  0  0  0  0  0  0  0999 V2000
   55.3550   29.8810   55.6490 C   0  0  0  0  0  0  0  0  0  0  0  0
   56.3930   29.6570   54.6200 N   0  0  0  0  0  0  0  0  0  0  0  0
   55.7950   28.8740   53.5180 C   0  0  0  0  0  0  0  0  0  0  0  0
   56.9640   30.9460   54.1190 C   0  0  0  0  0  0  0  0  0  0  0  0
   58.4880   30.8410   53.8600 C   0  0  0  0  0  0  0  0  0  0  0  0
   59.0900   32.1660   53.3310 C   0  0  0  0  0  0  0  0  0  0  0  0
   58.0520   33.1140   52.8650 N   0  0  0  0  0  0  0  0  0  0  0  0
   58.6470   34.2620   52.1440 C   0  0  0  0  0  0  0  0  0  0  0  0
   59.8700   33.8380   51.3190 C   0  0  0  0  0  0  0  0  0  0  0  0
   59.4750   32.9290   50.2460 N   0  0  0  0  0  0  0  0  0  0  0  0
   59.3780   31.5880   50.3420 C   0  0  0  0  0  0  0  0  0  0  0  0
   59.0510   31.1030   49.0940 C   0  0  0  0  0  0  0  0  0  0  0  0
   59.0720   29.7300   48.6900 N   0  0  0  0  0  0  0  0  0  0  0  0
   59.8690   29.2570   47.5960 C   0  0  0  0  0  0  0  0  0  0  0  0
   60.8410   29.9470   47.1780 O   0  0  0  0  0  0  0  0  0  0  0  0
   59.5970   27.9360   46.9900 C   0  0  0  0  0  0  0  0  0  0  0  0
   60.6550   27.0160   46.7850 C   0  0  0  0  0  0  0  0  0  0  0  0
   60.4040   25.7440   46.2430 C   0  0  0  0  0  0  0  0  0  0  0  0
   59.0960   25.4100   45.8880 C   0  0  0  0  0  0  0  0  0  0  0  0
   58.7230   24.2140   45.3650 N   0  0  0  0  0  0  0  0  0  0  0  0
   57.3900   24.1900   45.1040 C   0  0  0  0  0  0  0  0  0  0  0  0
   56.7150   23.0180   44.6150 N   0  0  0  0  0  0  0  0  0  0  0  0
   55.3800   22.6400   45.1030 C   0  0  0  0  0  0  0  0  0  0  0  0
   55.3750   21.1820   45.5870 C   0  0  0  0  0  0  0  0  0  0  0  0
   56.2660   20.2450   44.7380 C   0  0  0  0  0  0  0  0  0  0  0  0
   56.6460   20.8590   43.3830 C   0  0  0  0  0  0  0  0  0  0  0  0
   57.3740   22.1930   43.5910 C   0  0  0  0  0  0  0  0  0  0  0  0
   56.6260   25.6450   45.5370 S   0  0  0  0  0  0  0  0  0  0  0  0
   58.0680   26.3220   46.0640 C   0  0  0  0  0  0  0  0  0  0  0  0
   58.2820   27.5820   46.6140 C   0  0  0  0  0  0  0  0  0  0  0  0
   58.9700   32.2160   48.2680 C   0  0  0  0  0  0  0  0  0  0  0  0
   58.6150   32.2630   46.8330 C   0  0  0  0  0  0  0  0  0  0  0  0
   59.0390   33.3230   46.0180 C   0  0  0  0  0  0  0  0  0  0  0  0
   58.7430   33.3290   44.6550 C   0  0  0  0  0  0  0  0  0  0  0  0
   58.0230   32.2790   44.0760 C   0  0  0  0  0  0  0  0  0  0  0  0
   57.7700   32.3290   42.3350 Cl  0  0  0  0  0  0  0  0  0  0  0  0
   57.5870   31.1980   44.8800 C   0  0  0  0  0  0  0  0  0  0  0  0
   56.8420   30.0990   44.3240 N   0  0  0  0  0  0  0  0  0  0  0  0
   57.3640   29.3540   43.4680 O   0  0  0  0  0  0  0  0  0  0  0  0
   55.6090   29.7550   44.8300 O   0  0  0  0  0  0  0  0  0  0  0  0
   57.9040   31.2010   46.2510 C   0  0  0  0  0  0  0  0  0  0  0  0
   59.2410   33.3180   49.0010 N   0  0  0  0  0  0  0  0  0  0  0  0
   57.0920   32.4130   51.9940 C   0  0  0  0  0  0  0  0  0  0  0  0
   56.2740   31.3890   52.8010 C   0  0  0  0  0  0  0  0  0  0  0  0
   55.8031   29.7843   56.6489 H   0  0  0  0  0  0  0  0  0  0  0  0
   54.9343   30.8906   55.5318 H   0  0  0  0  0  0  0  0  0  0  0  0
   54.5554   29.1347   55.5318 H   0  0  0  0  0  0  0  0  0  0  0  0
   55.1774   28.0653   53.9359 H   0  0  0  0  0  0  0  0  0  0  0  0
   55.1675   29.5321   52.8990 H   0  0  0  0  0  0  0  0  0  0  0  0
   56.5951   28.4419   52.8990 H   0  0  0  0  0  0  0  0  0  0  0  0
   56.7818   31.6911   54.9075 H   0  0  0  0  0  0  0  0  0  0  0  0
   58.9891   30.5770   54.8030 H   0  0  0  0  0  0  0  0  0  0  0  0
   58.6449   30.0708   53.0905 H   0  0  0  0  0  0  0  0  0  0  0  0
   59.6637   32.6409   54.1405 H   0  0  0  0  0  0  0  0  0  0  0  0
   59.7307   31.9222   52.4707 H   0  0  0  0  0  0  0  0  0  0  0  0
   57.8915   34.6898   51.4686 H   0  0  0  0  0  0  0  0  0  0  0  0
   58.9737   35.0037   52.8877 H   0  0  0  0  0  0  0  0  0  0  0  0
   60.3388   34.7318   50.8816 H   0  0  0  0  0  0  0  0  0  0  0  0
   60.5815   33.3202   51.9791 H   0  0  0  0  0  0  0  0  0  0  0  0
   59.5320   30.9891   51.2517 H   0  0  0  0  0  0  0  0  0  0  0  0
   58.5170   29.0430   49.2480 H   0  0  0  0  0  0  0  0  0  0  0  0
   61.6833   27.3004   47.0528 H   0  0  0  0  0  0  0  0  0  0  0  0
   61.2237   25.0243   46.1010 H   0  0  0  0  0  0  0  0  0  0  0  0
   55.1001   23.2992   45.9379 H   0  0  0  0  0  0  0  0  0  0  0  0
   54.6585   22.7430   44.2791 H   0  0  0  0  0  0  0  0  0  0  0  0
   55.7367   21.1590   46.6256 H   0  0  0  0  0  0  0  0  0  0  0  0
   54.3420   20.8152   45.4957 H   0  0  0  0  0  0  0  0  0  0  0  0
   57.1878   20.0317   45.2990 H   0  0  0  0  0  0  0  0  0  0  0  0
   55.6909   19.3287   44.5389 H   0  0  0  0  0  0  0  0  0  0  0  0
   57.3064   20.1652   42.8422 H   0  0  0  0  0  0  0  0  0  0  0  0
   55.7302   21.0371   42.8003 H   0  0  0  0  0  0  0  0  0  0  0  0
   58.4075   21.9896   43.9079 H   0  0  0  0  0  0  0  0  0  0  0  0
   57.3550   22.7461   42.6404 H   0  0  0  0  0  0  0  0  0  0  0  0
   57.4477   28.2853   46.7527 H   0  0  0  0  0  0  0  0  0  0  0  0
   59.6089   34.1553   46.4568 H   0  0  0  0  0  0  0  0  0  0  0  0
   59.0794   34.1685   44.0288 H   0  0  0  0  0  0  0  0  0  0  0  0
   57.5887   30.3549   46.8792 H   0  0  0  0  0  0  0  0  0  0  0  0
   56.4082   33.1482   51.5447 H   0  0  0  0  0  0  0  0  0  0  0  0
   57.6493   31.8812   51.2087 H   0  0  0  0  0  0  0  0  0  0  0  0
   55.3020   31.8392   53.0511 H   0  0  0  0  0  0  0  0  0  0  0  0
   56.1690   30.4918   52.1733 H   0  0  0  0  0  0  0  0  0  0  0  0
  1  2  1  0
  2  3  1  0
  2  4  1  0
  4  5  1  0
  5  6  1  0
  6  7  1  0
  7  8  1  0
  8  9  1  0
  9 10  1  0
 10 11  1  0
 11 12  2  0
 12 13  1  0
 13 14  1  0
 14 15  2  0
 14 16  1  0
 16 17  2  0
 17 18  1  0
 18 19  2  0
 19 20  1  0
 20 21  2  0
 21 22  1  0
 22 23  1  0
 23 24  1  0
 24 25  1  0
 25 26  1  0
 26 27  1  0
 21 28  1  0
 28 29  1  0
 29 30  2  0
 12 31  1  0
 31 32  1  0
 32 33  2  0
 33 34  1  0
 34 35  2  0
 35 36  1  0
 35 37  1  0
 37 38  1  0
 38 39  2  0
 38 40  1  0
 37 41  2  0
 31 42  2  0
  7 43  1  0
 43 44  1  0
 44  4  1  0
 42 10  1  0
 30 16  1  0
 41 32  1  0
 29 19  1  0
 27 22  1  0
  1 45  1  0
  1 46  1  0
  1 47  1  0
  3 48  1  0
  3 49  1  0
  3 50  1  0
  4 51  1  0
  5 52  1  0
  5 53  1  0
  6 54  1  0
  6 55  1  0
  8 56  1  0
  8 57  1  0
  9 58  1  0
  9 59  1  0
 11 60  1  0
 13 61  1  0
 17 62  1  0
 18 63  1  0
 23 64  1  0
 23 65  1  0
 24 66  1  0
 24 67  1  0
 25 68  1  0
 25 69  1  0
 26 70  1  0
 26 71  1  0
 27 72  1  0
 27 73  1  0
 30 74  1  0
 33 75  1  0
 34 76  1  0
 41 77  1  0
 43 78  1  0
 43 79  1  0
 44 80  1  0
 44 81  1  0
M  CHG  2  38   1  40  -1
M  END
>  <UniqueID>  (71) 
62

>  <SMILES>  (71) 
CN(C)C1CCN(CCn2cc(NC(=O)c3ccc4nc(N5CCCCC5)sc4c3)c(-c3ccc(Cl)c([N+](=O)[O-])c3)n2)CC1

>  <Energy>  (71) 
177.7980343048449

>  <Genealogy>  (71) 
CN(C)C1CCN(CCn2cc(NC(=O)c3ccc4nc(N5CCCCC5)sc4c3)c(-c3ccc(Cl)c([N+](=O)[O-])c3)n2)CC1 (3D coordinates assigned)
CN(C)C1CCN(CCn2cc(NC(=O)c3ccc4nc(N5CCCCC5)sc4c3)c(-c3ccc(Cl)c([N+](=O)[O-])c3)n2)CC1 (nonaromatic ring conformer: 177.7980343048449 kcal/mol)

>  <smiles>  (71) 
CN(C)C1CCN(CCn2cc(NC(=O)c3ccc4nc(N5CCCCC5)sc4c3)c(-c3ccc(Cl)c([N+](=O)[O-])c3)n2)CC1

>  <score_type>  (71) 
oracle

>  <origin>  (71) 
adg

>  <m_score__min__energy>  (71) 
-10.52

>  <m_primary>  (71) 
energy

$$$$
71:0
     RDKit          3D

 53 56  0  0  0  0  0  0  0  0999 V2000
   63.7430   33.0890   47.2140 C   0  0  0  0  0  0  0  0  0  0  0  0
   63.2150   31.7670   47.2440 O   0  0  0  0  0  0  0  0  0  0  0  0
   62.2470   31.3140   48.1570 C   0  0  0  0  0  0  0  0  0  0  0  0
   62.2870   31.6740   49.5170 C   0  0  0  0  0  0  0  0  0  0  0  0
   61.3000   31.2040   50.3930 C   0  0  0  0  0  0  0  0  0  0  0  0
   61.3390   31.5750   51.8410 C   0  0  0  0  0  0  0  0  0  0  0  0
   60.3130   30.3940   49.9300 N   0  0  0  0  0  0  0  0  0  0  0  0
   60.2410   30.0200   48.6260 C   0  0  0  0  0  0  0  0  0  0  0  0
   59.2030   29.1840   48.2000 C   0  0  0  0  0  0  0  0  0  0  0  0
   59.1270   28.7760   46.8560 C   0  0  0  0  0  0  0  0  0  0  0  0
   58.0730   27.9230   46.3870 N   0  0  0  0  0  0  0  0  0  0  0  0
   56.9800   28.3150   45.5460 C   0  0  0  0  0  0  0  0  0  0  0  0
   55.8950   27.6790   45.6330 O   0  0  0  0  0  0  0  0  0  0  0  0
   57.0710   29.4710   44.6230 C   0  0  0  0  0  0  0  0  0  0  0  0
   56.6970   29.3460   43.2760 C   0  0  0  0  0  0  0  0  0  0  0  0
   56.7870   30.4410   42.4140 C   0  0  0  0  0  0  0  0  0  0  0  0
   57.2600   31.6690   42.8810 C   0  0  0  0  0  0  0  0  0  0  0  0
   57.3470   32.7130   42.0200 F   0  0  0  0  0  0  0  0  0  0  0  0
   57.6530   31.8070   44.2230 C   0  0  0  0  0  0  0  0  0  0  0  0
   58.2670   33.3480   44.8370 S   0  0  0  0  0  0  0  0  0  0  0  0
   59.2440   33.9290   43.8530 O   0  0  0  0  0  0  0  0  0  0  0  0
   57.1220   34.3130   44.9730 O   0  0  0  0  0  0  0  0  0  0  0  0
   59.0500   33.1630   46.3880 N   0  0  0  0  0  0  0  0  0  0  0  0
   59.8870   34.3370   46.6790 C   0  0  0  0  0  0  0  0  0  0  0  0
   60.5250   34.1740   48.0650 C   0  0  0  0  0  0  0  0  0  0  0  0
   59.5300   34.0310   49.0600 O   0  0  0  0  0  0  0  0  0  0  0  0
   58.7560   32.8730   48.8040 C   0  0  0  0  0  0  0  0  0  0  0  0
   58.0480   32.9830   47.4480 C   0  0  0  0  0  0  0  0  0  0  0  0
   57.5600   30.7050   45.0850 C   0  0  0  0  0  0  0  0  0  0  0  0
   60.0730   29.2470   45.9400 C   0  0  0  0  0  0  0  0  0  0  0  0
   61.1130   30.0850   46.3570 C   0  0  0  0  0  0  0  0  0  0  0  0
   61.2100   30.4760   47.7030 C   0  0  0  0  0  0  0  0  0  0  0  0
   63.8871   33.4497   48.2431 H   0  0  0  0  0  0  0  0  0  0  0  0
   64.7090   33.0862   46.6878 H   0  0  0  0  0  0  0  0  0  0  0  0
   63.0408   33.7524   46.6878 H   0  0  0  0  0  0  0  0  0  0  0  0
   63.0920   32.3234   49.8915 H   0  0  0  0  0  0  0  0  0  0  0  0
   61.2436   30.6672   52.4548 H   0  0  0  0  0  0  0  0  0  0  0  0
   62.2943   32.0715   52.0667 H   0  0  0  0  0  0  0  0  0  0  0  0
   60.5078   32.2593   52.0667 H   0  0  0  0  0  0  0  0  0  0  0  0
   58.4431   28.8444   48.9192 H   0  0  0  0  0  0  0  0  0  0  0  0
   56.3310   28.3803   42.8973 H   0  0  0  0  0  0  0  0  0  0  0  0
   56.4838   30.3356   41.3619 H   0  0  0  0  0  0  0  0  0  0  0  0
   60.6772   34.4225   45.9185 H   0  0  0  0  0  0  0  0  0  0  0  0
   59.2663   35.2450   46.6636 H   0  0  0  0  0  0  0  0  0  0  0  0
   61.1661   33.2802   48.0645 H   0  0  0  0  0  0  0  0  0  0  0  0
   61.1211   35.0713   48.2875 H   0  0  0  0  0  0  0  0  0  0  0  0
   59.4152   31.9924   48.7968 H   0  0  0  0  0  0  0  0  0  0  0  0
   57.9958   32.7742   49.5929 H   0  0  0  0  0  0  0  0  0  0  0  0
   57.4737   32.0642   47.2581 H   0  0  0  0  0  0  0  0  0  0  0  0
   57.3651   33.8453   47.4587 H   0  0  0  0  0  0  0  0  0  0  0  0
   57.8732   30.8074   46.1345 H   0  0  0  0  0  0  0  0  0  0  0  0
   59.9988   28.9559   44.8818 H   0  0  0  0  0  0  0  0  0  0  0  0
   61.8573   30.4389   45.6285 H   0  0  0  0  0  0  0  0  0  0  0  0
  1  2  1  0
  2  3  1  0
  3  4  2  0
  4  5  1  0
  5  6  1  0
  5  7  2  0
  7  8  1  0
  8  9  2  0
  9 10  1  0
 10 11  1  0
 11 12  1  0
 12 13  2  0
 12 14  1  0
 14 15  2  0
 15 16  1  0
 16 17  2  0
 17 18  1  0
 17 19  1  0
 19 20  1  0
 20 21  2  0
 20 22  2  0
 20 23  1  0
 23 24  1  0
 24 25  1  0
 25 26  1  0
 26 27  1  0
 27 28  1  0
 19 29  2  0
 10 30  2  0
 30 31  1  0
 31 32  2  0
 32  3  1  0
 32  8  1  0
 29 14  1  0
 28 23  1  0
  1 33  1  0
  1 34  1  0
  1 35  1  0
  4 36  1  0
  6 37  1  0
  6 38  1  0
  6 39  1  0
  9 40  1  0
 15 41  1  0
 16 42  1  0
 24 43  1  0
 24 44  1  0
 25 45  1  0
 25 46  1  0
 27 47  1  0
 27 48  1  0
 28 49  1  0
 28 50  1  0
 29 51  1  0
 30 52  1  0
 31 53  1  0
M  CHG  1  11  -1
M  END
>  <UniqueID>  (72) 
63

>  <SMILES>  (72) 
COc1cc(C)nc2cc([N-]C(=O)c3ccc(F)c(S(=O)(=O)N4CCOCC4)c3)ccc12

>  <Energy>  (72) 
65.63572661955726

>  <Genealogy>  (72) 
COc1cc(C)nc2cc([N-]C(=O)c3ccc(F)c(S(=O)(=O)N4CCOCC4)c3)ccc12 (protonated)
COc1cc(C)nc2cc([N-]C(=O)c3ccc(F)c(S(=O)(=O)N4CCOCC4)c3)ccc12 (3D coordinates assigned)
COc1cc(C)nc2cc([N-]C(=O)c3ccc(F)c(S(=O)(=O)N4CCOCC4)c3)ccc12 (nonaromatic ring conformer: 65.63572661955726 kcal/mol)

>  <smiles>  (72) 
COc1cc(C)nc2cc(NC(=O)c3ccc(F)c(S(=O)(=O)N4CCOCC4)c3)ccc12

>  <score_type>  (72) 
oracle

>  <origin>  (72) 
adg

>  <m_score__min__energy>  (72) 
-11.34

>  <m_primary>  (72) 
energy

$$$$
72:0
     RDKit          3D

 18 18  0  0  0  0  0  0  0  0999 V2000
   57.4180   33.6280   44.9370 C   0  0  0  0  0  0  0  0  0  0  0  0
   57.8060   32.4050   45.3080 C   0  0  0  0  0  0  0  0  0  0  0  0
   58.1120   31.3340   44.2980 C   0  0  0  0  0  0  0  0  0  0  0  0
   57.6470   30.0230   44.7770 N   0  0  0  0  0  0  0  0  0  0  0  0
   58.5620   29.0810   45.1580 C   0  0  0  0  0  0  0  0  0  0  0  0
   58.1470   27.8250   45.5970 C   0  0  0  0  0  0  0  0  0  0  0  0
   59.0570   26.8940   45.9770 F   0  0  0  0  0  0  0  0  0  0  0  0
   56.7820   27.5510   45.6330 C   0  0  0  0  0  0  0  0  0  0  0  0
   56.3680   26.4280   46.0250 O   0  0  0  0  0  0  0  0  0  0  0  0
   55.8950   28.4990   45.2420 N   0  0  0  0  0  0  0  0  0  0  0  0
   56.3080   29.7210   44.8150 C   0  0  0  0  0  0  0  0  0  0  0  0
   55.4460   30.5670   44.4540 O   0  0  0  0  0  0  0  0  0  0  0  0
   57.2011   34.3910   45.6991 H   0  0  0  0  0  0  0  0  0  0  0  0
   57.3154   33.8722   43.8694 H   0  0  0  0  0  0  0  0  0  0  0  0
   57.9041   32.1755   46.3793 H   0  0  0  0  0  0  0  0  0  0  0  0
   57.6050   31.5739   43.3518 H   0  0  0  0  0  0  0  0  0  0  0  0
   59.2005   31.2904   44.1458 H   0  0  0  0  0  0  0  0  0  0  0  0
   59.6357   29.3167   45.1176 H   0  0  0  0  0  0  0  0  0  0  0  0
  1  2  2  0
  2  3  1  0
  3  4  1  0
  4  5  1  0
  5  6  2  0
  6  7  1  0
  6  8  1  0
  8  9  2  0
  8 10  1  0
 10 11  1  0
 11 12  2  0
 11  4  1  0
  1 13  1  0
  1 14  1  0
  2 15  1  0
  3 16  1  0
  3 17  1  0
  5 18  1  0
M  CHG  1  10  -1
M  END
>  <UniqueID>  (73) 
64

>  <SMILES>  (73) 
C=CCn1cc(F)c(=O)[n-]c1=O

>  <Energy>  (73) 
16.182028661821587

>  <Genealogy>  (73) 
C=CCn1cc(F)c(=O)[n-]c1=O (protonated)
C=CCn1cc(F)c(=O)[n-]c1=O (3D coordinates assigned)
C=CCn1cc(F)c(=O)[n-]c1=O (optimized conformer: 16.182028661821587 kcal/mol)

>  <smiles>  (73) 
C=CCn1cc(F)c(=O)[nH]c1=O

>  <score_type>  (73) 
oracle

>  <origin>  (73) 
adg

>  <m_score__min__energy>  (73) 
-6.2699999999999996

>  <m_primary>  (73) 
energy

$$$$
73:0
     RDKit          3D

 43 45  0  0  0  0  0  0  0  0999 V2000
   56.2640   29.8110   43.8010 C   0  0  0  0  0  0  0  0  0  0  0  0
   56.5700   29.9330   45.1870 O   0  0  0  0  0  0  0  0  0  0  0  0
   57.7780   30.4390   45.6950 C   0  0  0  0  0  0  0  0  0  0  0  0
   58.1180   31.8020   45.5880 C   0  0  0  0  0  0  0  0  0  0  0  0
   59.3320   32.2750   46.1060 C   0  0  0  0  0  0  0  0  0  0  0  0
   59.6850   33.6280   45.9780 C   0  0  0  0  0  0  0  0  0  0  0  0
   60.9020   34.0870   46.4880 C   0  0  0  0  0  0  0  0  0  0  0  0
   61.7740   33.2040   47.1310 C   0  0  0  0  0  0  0  0  0  0  0  0
   63.4380   33.8410   47.8200 Br  0  0  0  0  0  0  0  0  0  0  0  0
   61.4320   31.8550   47.2670 C   0  0  0  0  0  0  0  0  0  0  0  0
   60.2130   31.3820   46.7580 C   0  0  0  0  0  0  0  0  0  0  0  0
   59.8680   30.0300   46.8750 C   0  0  0  0  0  0  0  0  0  0  0  0
   58.6700   29.5530   46.3280 C   0  0  0  0  0  0  0  0  0  0  0  0
   58.3730   28.1110   46.4000 C   0  0  0  0  0  0  0  0  0  0  0  0
   57.9950   27.6280   47.5030 O   0  0  0  0  0  0  0  0  0  0  0  0
   58.5440   27.2470   45.2530 N   0  0  0  0  0  0  0  0  0  0  0  0
   59.0020   27.8320   43.9900 C   0  0  0  0  0  0  0  0  0  0  0  0
   58.2070   25.8140   45.3240 C   0  0  0  0  0  0  0  0  0  0  0  0
   56.7160   25.6260   45.3970 C   0  0  0  0  0  0  0  0  0  0  0  0
   55.8320   26.4990   45.9990 C   0  0  0  0  0  0  0  0  0  0  0  0
   54.5970   25.9660   45.9810 N   0  0  0  0  0  0  0  0  0  0  0  0
   54.6530   24.7870   45.3820 N   0  0  0  0  0  0  0  0  0  0  0  0
   55.9250   24.5510   45.0030 C   0  0  0  0  0  0  0  0  0  0  0  0
   56.3150   23.3120   44.3000 C   0  0  0  0  0  0  0  0  0  0  0  0
   57.6140   22.6130   44.5480 C   0  0  0  0  0  0  0  0  0  0  0  0
   55.5330   22.8380   43.4330 O   0  0  0  0  0  0  0  0  0  0  0  0
   55.2480   29.4059   43.6841 H   0  0  0  0  0  0  0  0  0  0  0  0
   56.3212   30.8007   43.3244 H   0  0  0  0  0  0  0  0  0  0  0  0
   56.9865   29.1322   43.3244 H   0  0  0  0  0  0  0  0  0  0  0  0
   57.4260   32.5002   45.0945 H   0  0  0  0  0  0  0  0  0  0  0  0
   59.0018   34.3281   45.4750 H   0  0  0  0  0  0  0  0  0  0  0  0
   61.1750   35.1474   46.3831 H   0  0  0  0  0  0  0  0  0  0  0  0
   62.1203   31.1629   47.7742 H   0  0  0  0  0  0  0  0  0  0  0  0
   60.5425   29.3377   47.4001 H   0  0  0  0  0  0  0  0  0  0  0  0
   59.6676   28.6822   44.1998 H   0  0  0  0  0  0  0  0  0  0  0  0
   59.5483   27.0728   43.4110 H   0  0  0  0  0  0  0  0  0  0  0  0
   58.1339   28.1801   43.4110 H   0  0  0  0  0  0  0  0  0  0  0  0
   58.5923   25.3067   44.4272 H   0  0  0  0  0  0  0  0  0  0  0  0
   58.6642   25.3855   46.2281 H   0  0  0  0  0  0  0  0  0  0  0  0
   56.0962   27.4775   46.4265 H   0  0  0  0  0  0  0  0  0  0  0  0
   57.7810   22.5231   45.6315 H   0  0  0  0  0  0  0  0  0  0  0  0
   57.5825   21.6100   44.0974 H   0  0  0  0  0  0  0  0  0  0  0  0
   58.4337   23.1918   44.0974 H   0  0  0  0  0  0  0  0  0  0  0  0
  1  2  1  0
  2  3  1  0
  3  4  2  0
  4  5  1  0
  5  6  2  0
  6  7  1  0
  7  8  2  0
  8  9  1  0
  8 10  1  0
 10 11  2  0
 11 12  1  0
 12 13  2  0
 13 14  1  0
 14 15  2  0
 14 16  1  0
 16 17  1  0
 16 18  1  0
 18 19  1  0
 19 20  2  0
 20 21  1  0
 21 22  1  0
 22 23  2  0
 23 24  1  0
 24 25  1  0
 24 26  2  0
 13  3  1  0
 23 19  1  0
 11  5  1  0
  1 27  1  0
  1 28  1  0
  1 29  1  0
  4 30  1  0
  6 31  1  0
  7 32  1  0
 10 33  1  0
 12 34  1  0
 17 35  1  0
 17 36  1  0
 17 37  1  0
 18 38  1  0
 18 39  1  0
 20 40  1  0
 25 41  1  0
 25 42  1  0
 25 43  1  0
M  CHG  1  21  -1
M  END
>  <UniqueID>  (74) 
65

>  <SMILES>  (74) 
COc1cc2ccc(Br)cc2cc1C(=O)N(C)Cc1c[n-]nc1C(C)=O

>  <Energy>  (74) 
78.93908693659105

>  <Genealogy>  (74) 
COc1cc2ccc(Br)cc2cc1C(=O)N(C)Cc1c[n-]nc1C(C)=O (protonated)
COc1cc2ccc(Br)cc2cc1C(=O)N(C)Cc1c[n-]nc1C(C)=O (3D coordinates assigned)
COc1cc2ccc(Br)cc2cc1C(=O)N(C)Cc1c[n-]nc1C(C)=O (optimized conformer: 78.93908693659105 kcal/mol)

>  <smiles>  (74) 
COc1cc2ccc(Br)cc2cc1C(=O)N(C)Cc1c[nH]nc1C(C)=O

>  <score_type>  (74) 
oracle

>  <origin>  (74) 
adg

>  <m_score__min__energy>  (74) 
-11.49

>  <m_primary>  (74) 
energy

$$$$
74:0
     RDKit          3D

 38 40  0  0  0  0  0  0  0  0999 V2000
   57.0170   31.2300   42.5570 C   0  0  0  0  0  0  0  0  0  0  0  0
   56.5860   30.1070   43.8690 S   0  0  0  0  0  0  0  0  0  0  0  0
   55.1690   29.6550   43.6630 O   0  0  0  0  0  0  0  0  0  0  0  0
   56.6880   30.7930   45.2030 O   0  0  0  0  0  0  0  0  0  0  0  0
   57.6280   28.7190   43.8340 N   0  0  0  0  0  0  0  0  0  0  0  0
   57.9170   27.8990   44.9800 C   0  0  0  0  0  0  0  0  0  0  0  0
   57.7740   26.5000   44.9480 C   0  0  0  0  0  0  0  0  0  0  0  0
   58.0820   25.7330   46.0760 C   0  0  0  0  0  0  0  0  0  0  0  0
   58.5220   26.3520   47.2470 C   0  0  0  0  0  0  0  0  0  0  0  0
   58.6540   27.7430   47.3050 C   0  0  0  0  0  0  0  0  0  0  0  0
   59.0890   28.3270   48.5040 O   0  0  0  0  0  0  0  0  0  0  0  0
   58.8920   29.6650   48.8640 C   0  0  0  0  0  0  0  0  0  0  0  0
   58.5820   29.9710   50.1500 N   0  0  0  0  0  0  0  0  0  0  0  0
   58.3650   31.2570   50.5300 C   0  0  0  0  0  0  0  0  0  0  0  0
   57.9720   31.6130   52.2000 Cl  0  0  0  0  0  0  0  0  0  0  0  0
   58.4560   32.2880   49.5930 C   0  0  0  0  0  0  0  0  0  0  0  0
   58.7700   31.9640   48.2650 C   0  0  0  0  0  0  0  0  0  0  0  0
   58.8890   33.0110   47.2220 C   0  0  0  0  0  0  0  0  0  0  0  0
   59.8760   34.0100   47.3090 C   0  0  0  0  0  0  0  0  0  0  0  0
   59.9580   34.9840   46.3120 C   0  0  0  0  0  0  0  0  0  0  0  0
   59.0650   34.9610   45.2400 C   0  0  0  0  0  0  0  0  0  0  0  0
   58.0980   33.9580   45.1820 C   0  0  0  0  0  0  0  0  0  0  0  0
   58.0310   33.0180   46.1610 N   0  0  0  0  0  0  0  0  0  0  0  0
   58.9720   30.6580   47.9370 N   0  0  0  0  0  0  0  0  0  0  0  0
   58.3770   28.5090   46.1570 C   0  0  0  0  0  0  0  0  0  0  0  0
   57.3797   32.1750   42.9876 H   0  0  0  0  0  0  0  0  0  0  0  0
   57.8073   30.7827   41.9363 H   0  0  0  0  0  0  0  0  0  0  0  0
   56.1303   31.4263   41.9363 H   0  0  0  0  0  0  0  0  0  0  0  0
   58.1640   28.5600   42.9520 H   0  0  0  0  0  0  0  0  0  0  0  0
   57.4182   26.0070   44.0313 H   0  0  0  0  0  0  0  0  0  0  0  0
   57.9772   24.6386   46.0403 H   0  0  0  0  0  0  0  0  0  0  0  0
   58.7663   25.7422   48.1293 H   0  0  0  0  0  0  0  0  0  0  0  0
   58.2849   33.3332   49.8902 H   0  0  0  0  0  0  0  0  0  0  0  0
   60.5777   34.0235   48.1560 H   0  0  0  0  0  0  0  0  0  0  0  0
   60.7262   35.7691   46.3715 H   0  0  0  0  0  0  0  0  0  0  0  0
   59.1231   35.7247   44.4504 H   0  0  0  0  0  0  0  0  0  0  0  0
   57.3881   33.9277   44.3422 H   0  0  0  0  0  0  0  0  0  0  0  0
   58.5229   29.5990   46.1829 H   0  0  0  0  0  0  0  0  0  0  0  0
  1  2  1  0
  2  3  2  0
  2  4  2  0
  2  5  1  0
  5  6  1  0
  6  7  2  0
  7  8  1  0
  8  9  2  0
  9 10  1  0
 10 11  1  0
 11 12  1  0
 12 13  2  0
 13 14  1  0
 14 15  1  0
 14 16  2  0
 16 17  1  0
 17 18  1  0
 18 19  2  0
 19 20  1  0
 20 21  2  0
 21 22  1  0
 22 23  2  0
 17 24  2  0
 10 25  2  0
 25  6  1  0
 24 12  1  0
 23 18  1  0
  1 26  1  0
  1 27  1  0
  1 28  1  0
  5 29  1  0
  7 30  1  0
  8 31  1  0
  9 32  1  0
 16 33  1  0
 19 34  1  0
 20 35  1  0
 21 36  1  0
 22 37  1  0
 25 38  1  0
M  END
>  <UniqueID>  (75) 
66

>  <SMILES>  (75) 
CS(=O)(=O)Nc1cccc(Oc2nc(Cl)cc(-c3ccccn3)n2)c1

>  <Energy>  (75) 
46.32993667177394

>  <Genealogy>  (75) 
CS(=O)(=O)Nc1cccc(Oc2nc(Cl)cc(-c3ccccn3)n2)c1 (3D coordinates assigned)
CS(=O)(=O)Nc1cccc(Oc2nc(Cl)cc(-c3ccccn3)n2)c1 (optimized conformer: 46.32993667177394 kcal/mol)

>  <smiles>  (75) 
CS(=O)(=O)Nc1cccc(Oc2nc(Cl)cc(-c3ccccn3)n2)c1

>  <score_type>  (75) 
oracle

>  <origin>  (75) 
adg

>  <m_score__min__energy>  (75) 
-8.5899999999999999

>  <m_primary>  (75) 
energy

$$$$
75:0
     RDKit          3D

 58 61  0  0  0  0  0  0  0  0999 V2000
   64.2490   35.1230   51.6230 C   0  0  0  0  0  0  0  0  0  0  0  0
   63.8320   34.3080   50.8370 C   0  0  0  0  0  0  0  0  0  0  0  0
   63.3290   33.3320   49.9040 C   0  0  0  0  0  0  0  0  0  0  0  0
   64.1930   32.8360   48.9020 C   0  0  0  0  0  0  0  0  0  0  0  0
   63.7380   31.9600   47.9610 N   0  0  0  0  0  0  0  0  0  0  0  0
   62.4340   31.5870   47.9810 C   0  0  0  0  0  0  0  0  0  0  0  0
   61.7880   30.7080   47.1480 C   0  0  0  0  0  0  0  0  0  0  0  0
   60.4800   30.6720   47.6190 C   0  0  0  0  0  0  0  0  0  0  0  0
   59.4390   29.7840   47.0610 C   0  0  0  0  0  0  0  0  0  0  0  0
   59.4380   28.4130   47.3450 C   0  0  0  0  0  0  0  0  0  0  0  0
   58.4520   27.5810   46.8130 C   0  0  0  0  0  0  0  0  0  0  0  0
   57.4380   28.1130   45.9950 C   0  0  0  0  0  0  0  0  0  0  0  0
   56.4300   27.3080   45.4380 O   0  0  0  0  0  0  0  0  0  0  0  0
   56.3030   25.9080   45.6600 C   0  0  0  0  0  0  0  0  0  0  0  0
   57.4180   29.4900   45.7220 C   0  0  0  0  0  0  0  0  0  0  0  0
   56.3900   29.9940   44.9090 O   0  0  0  0  0  0  0  0  0  0  0  0
   56.3930   29.9520   43.4850 C   0  0  0  0  0  0  0  0  0  0  0  0
   58.4190   30.3210   46.2630 C   0  0  0  0  0  0  0  0  0  0  0  0
   60.3270   31.4850   48.7060 N   0  0  0  0  0  0  0  0  0  0  0  0
   59.1100   31.6570   49.5090 C   0  0  0  0  0  0  0  0  0  0  0  0
   58.1820   32.7060   48.8810 C   0  0  0  0  0  0  0  0  0  0  0  0
   58.6320   33.0480   47.5180 N   0  0  0  0  0  0  0  0  0  0  0  0
   59.5070   34.2290   47.4850 C   0  0  0  0  0  0  0  0  0  0  0  0
   59.2630   34.9420   46.1600 C   0  0  0  0  0  0  0  0  0  0  0  0
   58.0470   34.2660   45.5500 C   0  0  0  0  0  0  0  0  0  0  0  0
   57.5000   33.3800   46.6500 C   0  0  0  0  0  0  0  0  0  0  0  0
   61.5470   32.0410   48.9180 C   0  0  0  0  0  0  0  0  0  0  0  0
   61.9750   32.9090   49.9370 C   0  0  0  0  0  0  0  0  0  0  0  0
   61.0900   33.3440   50.9290 O   0  0  0  0  0  0  0  0  0  0  0  0
   61.0160   32.7320   52.2120 C   0  0  0  0  0  0  0  0  0  0  0  0
   64.6292   35.8660   52.3396 H   0  0  0  0  0  0  0  0  0  0  0  0
   65.2440   33.1599   48.8807 H   0  0  0  0  0  0  0  0  0  0  0  0
   64.3870   31.5890   47.2310 H   0  0  0  0  0  0  0  0  0  0  0  0
   62.2111   30.1547   46.2966 H   0  0  0  0  0  0  0  0  0  0  0  0
   60.2199   27.9887   47.9920 H   0  0  0  0  0  0  0  0  0  0  0  0
   58.4675   26.5036   47.0342 H   0  0  0  0  0  0  0  0  0  0  0  0
   56.2849   25.7084   46.7416 H   0  0  0  0  0  0  0  0  0  0  0  0
   55.3685   25.5479   45.2050 H   0  0  0  0  0  0  0  0  0  0  0  0
   57.1574   25.3856   45.2050 H   0  0  0  0  0  0  0  0  0  0  0  0
   56.4677   28.9072   43.1492 H   0  0  0  0  0  0  0  0  0  0  0  0
   55.4610   30.3942   43.1032 H   0  0  0  0  0  0  0  0  0  0  0  0
   57.2527   30.5222   43.1032 H   0  0  0  0  0  0  0  0  0  0  0  0
   58.4000   31.4014   46.0573 H   0  0  0  0  0  0  0  0  0  0  0  0
   58.5788   30.6956   49.5679 H   0  0  0  0  0  0  0  0  0  0  0  0
   59.3979   31.9996   50.5138 H   0  0  0  0  0  0  0  0  0  0  0  0
   57.1598   32.3023   48.8336 H   0  0  0  0  0  0  0  0  0  0  0  0
   58.2038   33.6149   49.5002 H   0  0  0  0  0  0  0  0  0  0  0  0
   59.2648   34.8996   48.3227 H   0  0  0  0  0  0  0  0  0  0  0  0
   60.5623   33.9325   47.5773 H   0  0  0  0  0  0  0  0  0  0  0  0
   59.0635   36.0103   46.3299 H   0  0  0  0  0  0  0  0  0  0  0  0
   60.1386   34.8797   45.4971 H   0  0  0  0  0  0  0  0  0  0  0  0
   57.2993   35.0141   45.2480 H   0  0  0  0  0  0  0  0  0  0  0  0
   58.3018   33.6936   44.6459 H   0  0  0  0  0  0  0  0  0  0  0  0
   56.7277   33.9161   47.2211 H   0  0  0  0  0  0  0  0  0  0  0  0
   57.0364   32.4724   46.2362 H   0  0  0  0  0  0  0  0  0  0  0  0
   61.1092   33.5024   52.9916 H   0  0  0  0  0  0  0  0  0  0  0  0
   60.0492   32.2182   52.3179 H   0  0  0  0  0  0  0  0  0  0  0  0
   61.8325   32.0025   52.3179 H   0  0  0  0  0  0  0  0  0  0  0  0
  1  2  3  0
  2  3  1  0
  3  4  2  0
  4  5  1  0
  5  6  2  0
  6  7  1  0
  7  8  2  0
  8  9  1  0
  9 10  2  0
 10 11  1  0
 11 12  2  0
 12 13  1  0
 13 14  1  0
 12 15  1  0
 15 16  1  0
 16 17  1  0
 15 18  2  0
  8 19  1  0
 19 20  1  0
 20 21  1  0
 21 22  1  0
 22 23  1  0
 23 24  1  0
 24 25  1  0
 25 26  1  0
 19 27  1  0
 27 28  2  0
 28 29  1  0
 29 30  1  0
 28  3  1  0
 27  6  1  0
 18  9  1  0
 26 22  1  0
  1 31  1  0
  4 32  1  0
  5 33  1  0
  7 34  1  0
 10 35  1  0
 11 36  1  0
 14 37  1  0
 14 38  1  0
 14 39  1  0
 17 40  1  0
 17 41  1  0
 17 42  1  0
 18 43  1  0
 20 44  1  0
 20 45  1  0
 21 46  1  0
 21 47  1  0
 23 48  1  0
 23 49  1  0
 24 50  1  0
 24 51  1  0
 25 52  1  0
 25 53  1  0
 26 54  1  0
 26 55  1  0
 30 56  1  0
 30 57  1  0
 30 58  1  0
M  CHG  1   5   1
M  END
>  <UniqueID>  (76) 
67

>  <SMILES>  (76) 
C#Cc1c[nH+]c2cc(-c3ccc(OC)c(OC)c3)n(CCN3CCCC3)c2c1OC

>  <Energy>  (76) 
105.11872946003379

>  <Genealogy>  (76) 
C#Cc1c[nH+]c2cc(-c3ccc(OC)c(OC)c3)n(CCN3CCCC3)c2c1OC (protonated)
C#Cc1c[nH+]c2cc(-c3ccc(OC)c(OC)c3)n(CCN3CCCC3)c2c1OC (3D coordinates assigned)
C#Cc1c[nH+]c2cc(-c3ccc(OC)c(OC)c3)n(CCN3CCCC3)c2c1OC (nonaromatic ring conformer: 105.11872946003379 kcal/mol)

>  <smiles>  (76) 
C#Cc1cnc2cc(-c3ccc(OC)c(OC)c3)n(CCN3CCCC3)c2c1OC

>  <score_type>  (76) 
oracle

>  <origin>  (76) 
adg

>  <m_score__min__energy>  (76) 
-6.3600000000000003

>  <m_primary>  (76) 
energy

$$$$
76:0
     RDKit          3D

 46 48  0  0  0  0  0  0  0  0999 V2000
   64.0930   32.3390   49.1820 C   0  0  0  0  0  0  0  0  0  0  0  0
   64.0410   33.3880   48.0770 C   0  0  0  0  0  0  0  0  0  0  0  0
   62.6140   33.7350   47.7420 C   0  0  0  0  0  0  0  0  0  0  0  0
   62.2000   33.8090   46.4030 C   0  0  0  0  0  0  0  0  0  0  0  0
   60.8660   34.0890   46.0920 C   0  0  0  0  0  0  0  0  0  0  0  0
   59.9270   34.2930   47.1140 C   0  0  0  0  0  0  0  0  0  0  0  0
   58.4860   34.5570   46.7710 C   0  0  0  0  0  0  0  0  0  0  0  0
   57.8310   33.3220   46.3520 N   0  0  0  0  0  0  0  0  0  0  0  0
   57.9720   32.7530   45.0470 C   0  0  0  0  0  0  0  0  0  0  0  0
   58.0450   33.5040   44.0370 O   0  0  0  0  0  0  0  0  0  0  0  0
   58.0840   31.2890   44.9050 C   0  0  0  0  0  0  0  0  0  0  0  0
   57.1580   30.4070   43.8070 S   0  0  0  0  0  0  0  0  0  0  0  0
   57.7720   28.9380   44.3230 C   0  0  0  0  0  0  0  0  0  0  0  0
   57.4100   27.7290   43.8340 N   0  0  0  0  0  0  0  0  0  0  0  0
   57.9580   26.5900   44.3460 C   0  0  0  0  0  0  0  0  0  0  0  0
   57.5380   25.2560   43.7850 C   0  0  0  0  0  0  0  0  0  0  0  0
   58.9110   26.6790   45.3920 C   0  0  0  0  0  0  0  0  0  0  0  0
   59.5140   25.4330   45.9980 C   0  0  0  0  0  0  0  0  0  0  0  0
   59.2410   27.9610   45.8900 C   0  0  0  0  0  0  0  0  0  0  0  0
   60.0320   28.0660   46.8670 O   0  0  0  0  0  0  0  0  0  0  0  0
   58.6770   29.0730   45.3200 N   0  0  0  0  0  0  0  0  0  0  0  0
   58.8910   30.3960   45.6400 C   0  0  0  0  0  0  0  0  0  0  0  0
   59.9340   30.8500   46.6310 C   0  0  0  0  0  0  0  0  0  0  0  0
   60.3380   34.2030   48.4540 C   0  0  0  0  0  0  0  0  0  0  0  0
   61.6720   33.9240   48.7650 C   0  0  0  0  0  0  0  0  0  0  0  0
   64.0683   32.8375   50.1623 H   0  0  0  0  0  0  0  0  0  0  0  0
   63.2271   31.6668   49.0905 H   0  0  0  0  0  0  0  0  0  0  0  0
   65.0212   31.7558   49.0905 H   0  0  0  0  0  0  0  0  0  0  0  0
   64.5639   34.2950   48.4147 H   0  0  0  0  0  0  0  0  0  0  0  0
   64.5272   32.9807   47.1783 H   0  0  0  0  0  0  0  0  0  0  0  0
   62.9282   33.6460   45.5948 H   0  0  0  0  0  0  0  0  0  0  0  0
   60.5509   34.1497   45.0398 H   0  0  0  0  0  0  0  0  0  0  0  0
   57.9703   34.9594   47.6554 H   0  0  0  0  0  0  0  0  0  0  0  0
   58.4416   35.2834   45.9461 H   0  0  0  0  0  0  0  0  0  0  0  0
   56.7050   27.6820   43.0630 H   0  0  0  0  0  0  0  0  0  0  0  0
   57.3198   24.5631   44.6110 H   0  0  0  0  0  0  0  0  0  0  0  0
   56.6371   25.3853   43.1672 H   0  0  0  0  0  0  0  0  0  0  0  0
   58.3505   24.8458   43.1672 H   0  0  0  0  0  0  0  0  0  0  0  0
   59.4791   25.5050   47.0951 H   0  0  0  0  0  0  0  0  0  0  0  0
   58.9425   24.5522   45.6700 H   0  0  0  0  0  0  0  0  0  0  0  0
   60.5594   25.3347   45.6700 H   0  0  0  0  0  0  0  0  0  0  0  0
   59.5629   30.6884   47.6538 H   0  0  0  0  0  0  0  0  0  0  0  0
   60.8583   30.2728   46.4809 H   0  0  0  0  0  0  0  0  0  0  0  0
   60.1413   31.9198   46.4809 H   0  0  0  0  0  0  0  0  0  0  0  0
   59.6070   34.3527   49.2622 H   0  0  0  0  0  0  0  0  0  0  0  0
   61.9850   33.8522   49.8171 H   0  0  0  0  0  0  0  0  0  0  0  0
  1  2  1  0
  2  3  1  0
  3  4  2  0
  4  5  1  0
  5  6  2  0
  6  7  1  0
  7  8  1  0
  8  9  1  0
  9 10  2  0
  9 11  1  0
 11 12  1  0
 12 13  1  0
 13 14  2  0
 14 15  1  0
 15 16  1  0
 15 17  2  0
 17 18  1  0
 17 19  1  0
 19 20  2  0
 19 21  1  0
 21 22  1  0
 22 23  1  0
  6 24  1  0
 24 25  2  0
 25  3  1  0
 22 11  2  0
 21 13  1  0
  1 26  1  0
  1 27  1  0
  1 28  1  0
  2 29  1  0
  2 30  1  0
  4 31  1  0
  5 32  1  0
  7 33  1  0
  7 34  1  0
 14 35  1  0
 16 36  1  0
 16 37  1  0
 16 38  1  0
 18 39  1  0
 18 40  1  0
 18 41  1  0
 23 42  1  0
 23 43  1  0
 23 44  1  0
 24 45  1  0
 25 46  1  0
M  CHG  2   8  -1  14   1
M  END
>  <UniqueID>  (77) 
68

>  <SMILES>  (77) 
CCc1ccc(C[N-]C(=O)c2sc3[nH+]c(C)c(C)c(=O)n3c2C)cc1

>  <Energy>  (77) 
82.90618799280257

>  <Genealogy>  (77) 
CCc1ccc(C[N-]C(=O)c2sc3[nH+]c(C)c(C)c(=O)n3c2C)cc1 (protonated)
CCc1ccc(C[N-]C(=O)c2sc3[nH+]c(C)c(C)c(=O)n3c2C)cc1 (3D coordinates assigned)
CCc1ccc(C[N-]C(=O)c2sc3[nH+]c(C)c(C)c(=O)n3c2C)cc1 (optimized conformer: 82.90618799280257 kcal/mol)

>  <smiles>  (77) 
CCc1ccc(CNC(=O)c2sc3nc(C)c(C)c(=O)n3c2C)cc1

>  <score_type>  (77) 
oracle

>  <origin>  (77) 
adg

>  <m_score__min__energy>  (77) 
-8.0399999999999991

>  <m_primary>  (77) 
energy

$$$$
77:0
     RDKit          3D

 58 60  0  0  0  0  0  0  0  0999 V2000
   62.0640   33.4860   47.2500 C   0  0  0  0  0  0  0  0  0  0  0  0
   62.3170   33.8450   48.7120 C   0  0  0  0  0  0  0  0  0  0  0  0
   61.0070   34.1830   49.4350 C   0  0  0  0  0  0  0  0  0  0  0  0
   61.0120   33.6410   50.8760 C   0  0  0  0  0  0  0  0  0  0  0  0
   59.7440   32.9000   51.3040 C   0  0  0  0  0  0  0  0  0  0  0  0
   58.9420   33.4320   52.3300 C   0  0  0  0  0  0  0  0  0  0  0  0
   57.8030   32.7650   52.7510 C   0  0  0  0  0  0  0  0  0  0  0  0
   57.4470   31.5430   52.1830 C   0  0  0  0  0  0  0  0  0  0  0  0
   56.2100   30.8610   52.6520 C   0  0  0  0  0  0  0  0  0  0  0  0
   56.0800   30.5240   53.8610 O   0  0  0  0  0  0  0  0  0  0  0  0
   55.1780   30.5950   51.7420 O   0  0  0  0  0  0  0  0  0  0  0  0
   53.7970   30.8020   52.0340 C   0  0  0  0  0  0  0  0  0  0  0  0
   52.9250   30.3240   50.8770 C   0  0  0  0  0  0  0  0  0  0  0  0
   58.2840   30.9970   51.1860 C   0  0  0  0  0  0  0  0  0  0  0  0
   57.9830   29.8840   50.6710 O   0  0  0  0  0  0  0  0  0  0  0  0
   59.4210   31.6620   50.7710 N   0  0  0  0  0  0  0  0  0  0  0  0
   60.2910   31.0250   49.7510 C   0  0  0  0  0  0  0  0  0  0  0  0
   59.6810   31.0880   48.3690 C   0  0  0  0  0  0  0  0  0  0  0  0
   58.6440   31.9990   48.1040 C   0  0  0  0  0  0  0  0  0  0  0  0
   58.0940   32.0940   46.8230 C   0  0  0  0  0  0  0  0  0  0  0  0
   58.5850   31.2940   45.7810 C   0  0  0  0  0  0  0  0  0  0  0  0
   57.9910   31.3800   44.4290 C   0  0  0  0  0  0  0  0  0  0  0  0
   58.3940   32.4390   43.5970 C   0  0  0  0  0  0  0  0  0  0  0  0
   57.9290   32.5300   42.2860 C   0  0  0  0  0  0  0  0  0  0  0  0
   57.0540   31.5670   41.7870 C   0  0  0  0  0  0  0  0  0  0  0  0
   56.6290   30.5180   42.6020 C   0  0  0  0  0  0  0  0  0  0  0  0
   57.0750   30.4110   43.9330 C   0  0  0  0  0  0  0  0  0  0  0  0
   56.5300   29.3150   44.7720 C   0  0  0  0  0  0  0  0  0  0  0  0
   57.2950   28.5590   45.4280 O   0  0  0  0  0  0  0  0  0  0  0  0
   55.1560   29.1380   44.8820 O   0  0  0  0  0  0  0  0  0  0  0  0
   59.6220   30.3860   46.0390 C   0  0  0  0  0  0  0  0  0  0  0  0
   60.1760   30.2940   47.3190 C   0  0  0  0  0  0  0  0  0  0  0  0
   61.4311   32.5879   47.1972 H   0  0  0  0  0  0  0  0  0  0  0  0
   61.5552   34.3231   46.7496 H   0  0  0  0  0  0  0  0  0  0  0  0
   63.0235   33.2883   46.7496 H   0  0  0  0  0  0  0  0  0  0  0  0
   62.7937   32.9902   49.2141 H   0  0  0  0  0  0  0  0  0  0  0  0
   62.9713   34.7286   48.7455 H   0  0  0  0  0  0  0  0  0  0  0  0
   60.8839   35.2757   49.4628 H   0  0  0  0  0  0  0  0  0  0  0  0
   60.1758   33.7135   48.8886 H   0  0  0  0  0  0  0  0  0  0  0  0
   61.8598   32.9471   50.9744 H   0  0  0  0  0  0  0  0  0  0  0  0
   61.0829   34.5223   51.5305 H   0  0  0  0  0  0  0  0  0  0  0  0
   59.2215   34.3855   52.8019 H   0  0  0  0  0  0  0  0  0  0  0  0
   57.1744   33.2035   53.5401 H   0  0  0  0  0  0  0  0  0  0  0  0
   53.5317   30.2410   52.9422 H   0  0  0  0  0  0  0  0  0  0  0  0
   53.6246   31.8776   52.1866 H   0  0  0  0  0  0  0  0  0  0  0  0
   52.0257   29.8311   51.2749 H   0  0  0  0  0  0  0  0  0  0  0  0
   52.6285   31.1857   50.2609 H   0  0  0  0  0  0  0  0  0  0  0  0
   53.4920   29.6106   50.2609 H   0  0  0  0  0  0  0  0  0  0  0  0
   61.2602   31.5451   49.7357 H   0  0  0  0  0  0  0  0  0  0  0  0
   60.4128   29.9657   50.0212 H   0  0  0  0  0  0  0  0  0  0  0  0
   58.2626   32.6419   48.9110 H   0  0  0  0  0  0  0  0  0  0  0  0
   57.2722   32.7995   46.6310 H   0  0  0  0  0  0  0  0  0  0  0  0
   59.0833   33.2037   43.9844 H   0  0  0  0  0  0  0  0  0  0  0  0
   58.2531   33.3629   41.6447 H   0  0  0  0  0  0  0  0  0  0  0  0
   56.6979   31.6343   40.7484 H   0  0  0  0  0  0  0  0  0  0  0  0
   55.9362   29.7643   42.1995 H   0  0  0  0  0  0  0  0  0  0  0  0
   60.0011   29.7434   45.2307 H   0  0  0  0  0  0  0  0  0  0  0  0
   61.0050   29.5957   47.5064 H   0  0  0  0  0  0  0  0  0  0  0  0
  1  2  1  0
  2  3  1  0
  3  4  1  0
  4  5  1  0
  5  6  2  0
  6  7  1  0
  7  8  2  0
  8  9  1  0
  9 10  2  0
  9 11  1  0
 11 12  1  0
 12 13  1  0
  8 14  1  0
 14 15  2  0
 14 16  1  0
 16 17  1  0
 17 18  1  0
 18 19  2  0
 19 20  1  0
 20 21  2  0
 21 22  1  0
 22 23  2  0
 23 24  1  0
 24 25  2  0
 25 26  1  0
 26 27  2  0
 27 28  1  0
 28 29  2  0
 28 30  1  0
 21 31  1  0
 31 32  2  0
 16  5  1  0
 32 18  1  0
 27 22  1  0
  1 33  1  0
  1 34  1  0
  1 35  1  0
  2 36  1  0
  2 37  1  0
  3 38  1  0
  3 39  1  0
  4 40  1  0
  4 41  1  0
  6 42  1  0
  7 43  1  0
 12 44  1  0
 12 45  1  0
 13 46  1  0
 13 47  1  0
 13 48  1  0
 17 49  1  0
 17 50  1  0
 19 51  1  0
 20 52  1  0
 23 53  1  0
 24 54  1  0
 25 55  1  0
 26 56  1  0
 31 57  1  0
 32 58  1  0
M  CHG  1  30  -1
M  END
>  <UniqueID>  (78) 
69

>  <SMILES>  (78) 
CCCCc1ccc(C(=O)OCC)c(=O)n1Cc1ccc(-c2ccccc2C(=O)[O-])cc1

>  <Energy>  (78) 
72.39003506039677

>  <Genealogy>  (78) 
CCCCc1ccc(C(=O)OCC)c(=O)n1Cc1ccc(-c2ccccc2C(=O)[O-])cc1 (protonated)
CCCCc1ccc(C(=O)OCC)c(=O)n1Cc1ccc(-c2ccccc2C(=O)[O-])cc1 (3D coordinates assigned)
CCCCc1ccc(C(=O)OCC)c(=O)n1Cc1ccc(-c2ccccc2C(=O)[O-])cc1 (optimized conformer: 72.39003506039677 kcal/mol)

>  <smiles>  (78) 
CCCCc1ccc(C(=O)OCC)c(=O)n1Cc1ccc(-c2ccccc2C(=O)O)cc1

>  <score_type>  (78) 
oracle

>  <origin>  (78) 
adg

>  <m_score__min__energy>  (78) 
-12

>  <m_primary>  (78) 
energy

$$$$
78:0
     RDKit          3D

 38 40  0  0  1  0  0  0  0  0999 V2000
   56.5220   29.4150   42.8090 N   0  0  0  0  0  0  0  0  0  0  0  0
   56.5930   29.3640   44.2370 C   0  0  0  0  0  0  0  0  0  0  0  0
   55.5240   29.6710   44.8640 O   0  0  0  0  0  0  0  0  0  0  0  0
   57.8050   28.9880   44.9210 C   0  0  0  0  0  0  0  0  0  0  0  0
   58.9760   28.7020   44.2420 C   0  0  0  0  0  0  0  0  0  0  0  0
   60.0990   28.3490   44.9510 C   0  0  0  0  0  0  0  0  0  0  0  0
   60.1200   28.2630   46.3390 C   0  0  0  0  0  0  0  0  0  0  0  0
   58.9310   28.5540   47.0040 C   0  0  0  0  0  0  0  0  0  0  0  0
   58.8500   28.4940   48.4380 N   0  0  0  0  0  0  0  0  0  0  0  0
   59.1710   29.5010   49.1770 C   0  0  0  0  0  0  0  0  0  0  0  0
   59.1340   30.7600   48.6160 C   0  0  0  0  0  0  0  0  0  0  0  0
   59.4710   31.9050   49.3620 C   0  0  0  0  0  0  0  0  0  0  0  0
   59.4180   33.1540   48.7520 N   0  0  0  0  0  0  0  0  0  0  0  0
   58.9520   33.4690   47.4580 C   0  0  0  0  0  0  0  0  0  0  0  0
   57.9930   32.7620   46.7700 C   0  0  0  0  0  0  0  0  0  0  0  0
   57.5730   33.1200   45.4940 C   0  0  0  0  0  0  0  0  0  0  0  0
   56.6250   32.3930   44.8530 F   0  0  0  0  0  0  0  0  0  0  0  0
   58.1170   34.2080   44.8790 C   0  0  0  0  0  0  0  0  0  0  0  0
   59.0670   34.9340   45.5230 C   0  0  0  0  0  0  0  0  0  0  0  0
   59.6190   36.0270   44.9160 F   0  0  0  0  0  0  0  0  0  0  0  0
   59.4760   34.5740   46.7820 C   0  0  0  0  0  0  0  0  0  0  0  0
   59.8210   31.6520   50.6340 N   0  0  0  0  0  0  0  0  0  0  0  0
   59.8550   30.4200   51.1710 C   0  0  0  0  0  0  0  0  0  0  0  0
   59.5330   29.3240   50.4600 N   0  0  0  0  0  0  0  0  0  0  0  0
   57.7910   28.9120   46.2990 C   0  0  0  0  0  0  0  0  0  0  0  0
   55.6320   29.1320   42.3280 H   0  0  0  0  0  0  0  0  0  0  0  0
   57.3260   29.7220   42.2180 H   0  0  0  0  0  0  0  0  0  0  0  0
   59.0079   28.7567   43.1438 H   0  0  0  0  0  0  0  0  0  0  0  0
   61.0220   28.1246   44.3963 H   0  0  0  0  0  0  0  0  0  0  0  0
   61.0315   27.9789   46.8853 H   0  0  0  0  0  0  0  0  0  0  0  0
   58.8348   30.8719   47.5634 H   0  0  0  0  0  0  0  0  0  0  0  0
   59.7670   33.9830   49.3230 H   0  0  0  0  0  0  0  0  0  0  0  0
   57.5414   31.8800   47.2477 H   0  0  0  0  0  0  0  0  0  0  0  0
   57.7892   34.4957   43.8692 H   0  0  0  0  0  0  0  0  0  0  0  0
   60.2477   35.1797   47.2795 H   0  0  0  0  0  0  0  0  0  0  0  0
   60.1550   30.3045   52.2230 H   0  0  0  0  0  0  0  0  0  0  0  0
   59.5550   28.3630   50.8690 H   0  0  0  0  0  0  0  0  0  0  0  0
   56.8636   29.1383   46.8456 H   0  0  0  0  0  0  0  0  0  0  0  0
  1  2  1  0
  2  3  2  0
  2  4  1  0
  4  5  2  0
  5  6  1  0
  6  7  2  0
  7  8  1  0
  8  9  1  0
  9 10  2  0
 10 11  1  0
 11 12  2  0
 12 13  1  0
 13 14  1  0
 14 15  2  0
 15 16  1  0
 16 17  1  0
 16 18  2  0
 18 19  1  0
 19 20  1  0
 19 21  2  0
 12 22  1  0
 22 23  2  0
 23 24  1  0
  8 25  2  0
 25  4  1  0
 24 10  1  0
 21 14  1  0
  1 26  1  0
  1 27  1  0
  5 28  1  0
  6 29  1  0
  7 30  1  0
 11 31  1  0
 13 32  1  0
 15 33  1  0
 18 34  1  0
 21 35  1  0
 23 36  1  0
 24 37  1  0
 25 38  1  0
M  END
>  <smiles>  (79) 
NC(=O)c1cccc(N=c2cc(Nc3cc(F)cc(F)c3)nc[nH]2)c1

>  <score_type>  (79) 
oracle

>  <origin>  (79) 
adg

>  <m_score__min__energy>  (79) 
-8.1199999999999992

>  <m_primary>  (79) 
energy

$$$$
79:0
     RDKit          3D

 57 60  0  0  0  0  0  0  0  0999 V2000
   62.6030   31.4020   50.9300 O   0  0  0  0  0  0  0  0  0  0  0  0
   62.0480   31.1930   49.8210 C   0  0  0  0  0  0  0  0  0  0  0  0
   61.1800   30.0640   49.6780 N   0  0  0  0  0  0  0  0  0  0  0  0
   61.0180   29.2990   48.4450 C   0  0  0  0  0  0  0  0  0  0  0  0
   59.5660   29.0110   48.1660 C   0  0  0  0  0  0  0  0  0  0  0  0
   58.7050   29.2960   49.0460 O   0  0  0  0  0  0  0  0  0  0  0  0
   59.1340   28.4570   46.9030 N   0  0  0  0  0  0  0  0  0  0  0  0
   57.7620   27.9500   46.7800 C   0  0  0  0  0  0  0  0  0  0  0  0
   57.5270   27.2810   45.4160 C   0  0  0  0  0  0  0  0  0  0  0  0
   57.9880   28.1120   44.2820 N   0  0  0  0  0  0  0  0  0  0  0  0
   56.7510   29.2410   43.7660 S   0  0  0  0  0  0  0  0  0  0  0  0
   55.5190   29.0600   44.6110 O   0  0  0  0  0  0  0  0  0  0  0  0
   56.3880   28.9850   42.3280 O   0  0  0  0  0  0  0  0  0  0  0  0
   57.3200   30.9000   43.9630 C   0  0  0  0  0  0  0  0  0  0  0  0
   57.4060   31.4840   45.2340 C   0  0  0  0  0  0  0  0  0  0  0  0
   57.8870   32.7880   45.3800 C   0  0  0  0  0  0  0  0  0  0  0  0
   58.2670   33.5260   44.2530 C   0  0  0  0  0  0  0  0  0  0  0  0
   58.1810   32.9510   42.9790 C   0  0  0  0  0  0  0  0  0  0  0  0
   57.7120   31.6370   42.8370 C   0  0  0  0  0  0  0  0  0  0  0  0
   59.2850   28.8030   44.4840 C   0  0  0  0  0  0  0  0  0  0  0  0
   60.0310   28.3540   45.7440 C   0  0  0  0  0  0  0  0  0  0  0  0
   62.3280   32.1030   48.6910 C   0  0  0  0  0  0  0  0  0  0  0  0
   63.6570   32.2570   48.2710 C   0  0  0  0  0  0  0  0  0  0  0  0
   63.9720   33.1040   47.2050 C   0  0  0  0  0  0  0  0  0  0  0  0
   62.9640   33.8140   46.5530 C   0  0  0  0  0  0  0  0  0  0  0  0
   61.6330   33.7030   46.9810 C   0  0  0  0  0  0  0  0  0  0  0  0
   61.3050   32.8450   48.0510 C   0  0  0  0  0  0  0  0  0  0  0  0
   59.8570   32.7900   48.4840 C   0  0  0  0  0  0  0  0  0  0  0  0
   59.2870   34.2130   48.5350 C   0  0  0  0  0  0  0  0  0  0  0  0
   59.4280   34.9670   47.1920 C   0  0  0  0  0  0  0  0  0  0  0  0
   60.5350   34.4360   46.2520 C   0  0  0  0  0  0  0  0  0  0  0  0
   61.4360   29.8767   47.6074 H   0  0  0  0  0  0  0  0  0  0  0  0
   61.5462   28.3409   48.5591 H   0  0  0  0  0  0  0  0  0  0  0  0
   57.5813   27.2121   47.5755 H   0  0  0  0  0  0  0  0  0  0  0  0
   57.0709   28.8011   46.8698 H   0  0  0  0  0  0  0  0  0  0  0  0
   58.0711   26.3252   45.3951 H   0  0  0  0  0  0  0  0  0  0  0  0
   56.4426   27.1364   45.3009 H   0  0  0  0  0  0  0  0  0  0  0  0
   57.0934   30.9133   46.1209 H   0  0  0  0  0  0  0  0  0  0  0  0
   57.9671   33.2350   46.3819 H   0  0  0  0  0  0  0  0  0  0  0  0
   58.6329   34.5570   44.3680 H   0  0  0  0  0  0  0  0  0  0  0  0
   58.4805   33.5285   42.0920 H   0  0  0  0  0  0  0  0  0  0  0  0
   57.6515   31.1825   41.8371 H   0  0  0  0  0  0  0  0  0  0  0  0
   59.9247   28.6032   43.6117 H   0  0  0  0  0  0  0  0  0  0  0  0
   59.0638   29.8737   44.6052 H   0  0  0  0  0  0  0  0  0  0  0  0
   60.3586   27.3107   45.6247 H   0  0  0  0  0  0  0  0  0  0  0  0
   60.9097   28.9969   45.9003 H   0  0  0  0  0  0  0  0  0  0  0  0
   64.4586   31.7063   48.7851 H   0  0  0  0  0  0  0  0  0  0  0  0
   65.0173   33.2110   46.8794 H   0  0  0  0  0  0  0  0  0  0  0  0
   63.2136   34.4629   45.7006 H   0  0  0  0  0  0  0  0  0  0  0  0
   59.2812   32.1894   47.7645 H   0  0  0  0  0  0  0  0  0  0  0  0
   59.7885   32.3304   49.4810 H   0  0  0  0  0  0  0  0  0  0  0  0
   58.2195   34.1543   48.7940 H   0  0  0  0  0  0  0  0  0  0  0  0
   59.8614   34.7716   49.2887 H   0  0  0  0  0  0  0  0  0  0  0  0
   58.4676   34.8974   46.6602 H   0  0  0  0  0  0  0  0  0  0  0  0
   59.7142   35.9975   47.4491 H   0  0  0  0  0  0  0  0  0  0  0  0
   60.0770   33.7475   45.5266 H   0  0  0  0  0  0  0  0  0  0  0  0
   60.9935   35.3077   45.7622 H   0  0  0  0  0  0  0  0  0  0  0  0
  1  2  2  0
  2  3  1  0
  3  4  1  0
  4  5  1  0
  5  6  2  0
  5  7  1  0
  7  8  1  0
  8  9  1  0
  9 10  1  0
 10 11  1  0
 11 12  2  0
 11 13  2  0
 11 14  1  0
 14 15  2  0
 15 16  1  0
 16 17  2  0
 17 18  1  0
 18 19  2  0
 10 20  1  0
 20 21  1  0
  2 22  1  0
 22 23  2  0
 23 24  1  0
 24 25  2  0
 25 26  1  0
 26 27  2  0
 27 28  1  0
 28 29  1  0
 29 30  1  0
 30 31  1  0
 21  7  1  0
 27 22  1  0
 19 14  1  0
 31 26  1  0
  4 32  1  0
  4 33  1  0
  8 34  1  0
  8 35  1  0
  9 36  1  0
  9 37  1  0
 15 38  1  0
 16 39  1  0
 17 40  1  0
 18 41  1  0
 19 42  1  0
 20 43  1  0
 20 44  1  0
 21 45  1  0
 21 46  1  0
 23 47  1  0
 24 48  1  0
 25 49  1  0
 28 50  1  0
 28 51  1  0
 29 52  1  0
 29 53  1  0
 30 54  1  0
 30 55  1  0
 31 56  1  0
 31 57  1  0
M  CHG  1   3  -1
M  END
>  <UniqueID>  (80) 
70

>  <SMILES>  (80) 
O=C([N-]CC(=O)N1CCN(S(=O)(=O)c2ccccc2)CC1)c1cccc2c1CCCC2

>  <Energy>  (80) 
76.28028812398992

>  <Genealogy>  (80) 
O=C([N-]CC(=O)N1CCN(S(=O)(=O)c2ccccc2)CC1)c1cccc2c1CCCC2 (protonated)
O=C([N-]CC(=O)N1CCN(S(=O)(=O)c2ccccc2)CC1)c1cccc2c1CCCC2 (3D coordinates assigned)
O=C([N-]CC(=O)N1CCN(S(=O)(=O)c2ccccc2)CC1)c1cccc2c1CCCC2 (nonaromatic ring conformer: 76.28028812398992 kcal/mol)

>  <smiles>  (80) 
O=C(NCC(=O)N1CCN(S(=O)(=O)c2ccccc2)CC1)c1cccc2c1CCCC2

>  <score_type>  (80) 
oracle

>  <origin>  (80) 
adg

>  <m_score__min__energy>  (80) 
-11.91

>  <m_primary>  (80) 
energy

$$$$
80:0
     RDKit          3D

 44 46  0  0  0  0  0  0  0  0999 V2000
   58.1400   32.3250   47.8120 C   0  0  0  0  0  0  0  0  0  0  0  0
   58.7280   33.3800   46.9900 N   0  0  0  0  0  0  0  0  0  0  0  0
   58.4460   33.6920   45.7070 C   0  0  0  0  0  0  0  0  0  0  0  0
   57.4520   32.9770   44.8340 C   0  0  0  0  0  0  0  0  0  0  0  0
   58.1120   32.4090   43.5770 C   0  0  0  0  0  0  0  0  0  0  0  0
   58.2460   30.9550   43.6780 N   0  0  0  0  0  0  0  0  0  0  0  0
   57.2200   30.1110   44.2240 C   0  0  0  0  0  0  0  0  0  0  0  0
   56.1170   30.6070   44.5820 O   0  0  0  0  0  0  0  0  0  0  0  0
   57.4420   28.6620   44.3740 C   0  0  0  0  0  0  0  0  0  0  0  0
   58.0620   27.8340   43.4430 C   0  0  0  0  0  0  0  0  0  0  0  0
   58.1360   26.4970   43.8510 C   0  0  0  0  0  0  0  0  0  0  0  0
   57.5760   26.2620   45.1000 C   0  0  0  0  0  0  0  0  0  0  0  0
   56.9880   27.7210   45.6950 S   0  0  0  0  0  0  0  0  0  0  0  0
   59.1380   34.7740   45.3010 N   0  0  0  0  0  0  0  0  0  0  0  0
   59.8610   35.1840   46.3340 N   0  0  0  0  0  0  0  0  0  0  0  0
   59.6040   34.3390   47.3500 C   0  0  0  0  0  0  0  0  0  0  0  0
   60.2840   34.5540   49.0000 S   0  0  0  0  0  0  0  0  0  0  0  0
   61.9590   33.9700   48.5650 C   0  0  0  0  0  0  0  0  0  0  0  0
   61.9190   33.0140   47.4060 C   0  0  0  0  0  0  0  0  0  0  0  0
   62.3760   33.4090   46.3010 O   0  0  0  0  0  0  0  0  0  0  0  0
   61.3470   31.6430   47.5160 C   0  0  0  0  0  0  0  0  0  0  0  0
   60.7680   30.9900   46.4080 C   0  0  0  0  0  0  0  0  0  0  0  0
   60.2510   29.6970   46.5350 C   0  0  0  0  0  0  0  0  0  0  0  0
   60.3020   29.0370   47.7670 C   0  0  0  0  0  0  0  0  0  0  0  0
   59.6540   27.4140   47.9220 Cl  0  0  0  0  0  0  0  0  0  0  0  0
   60.8700   29.6730   48.8720 C   0  0  0  0  0  0  0  0  0  0  0  0
   61.3870   30.9640   48.7490 C   0  0  0  0  0  0  0  0  0  0  0  0
   58.2765   32.5699   48.8757 H   0  0  0  0  0  0  0  0  0  0  0  0
   57.0659   32.2426   47.5896 H   0  0  0  0  0  0  0  0  0  0  0  0
   58.6349   31.3681   47.5896 H   0  0  0  0  0  0  0  0  0  0  0  0
   57.0038   32.1512   45.4060 H   0  0  0  0  0  0  0  0  0  0  0  0
   56.6849   33.7011   44.5222 H   0  0  0  0  0  0  0  0  0  0  0  0
   57.4936   32.6551   42.7012 H   0  0  0  0  0  0  0  0  0  0  0  0
   59.1137   32.8511   43.4717 H   0  0  0  0  0  0  0  0  0  0  0  0
   59.1250   30.5270   43.3120 H   0  0  0  0  0  0  0  0  0  0  0  0
   58.4552   28.1947   42.4811 H   0  0  0  0  0  0  0  0  0  0  0  0
   58.5949   25.7062   43.2394 H   0  0  0  0  0  0  0  0  0  0  0  0
   57.5257   25.2896   45.6117 H   0  0  0  0  0  0  0  0  0  0  0  0
   62.5815   34.8356   48.2944 H   0  0  0  0  0  0  0  0  0  0  0  0
   62.3808   33.4447   49.4346 H   0  0  0  0  0  0  0  0  0  0  0  0
   60.7228   31.5023   45.4356 H   0  0  0  0  0  0  0  0  0  0  0  0
   59.8029   29.1975   45.6634 H   0  0  0  0  0  0  0  0  0  0  0  0
   60.9104   29.1558   49.8420 H   0  0  0  0  0  0  0  0  0  0  0  0
   61.8312   31.4570   49.6263 H   0  0  0  0  0  0  0  0  0  0  0  0
  1  2  1  0
  2  3  1  0
  3  4  1  0
  4  5  1  0
  5  6  1  0
  6  7  1  0
  7  8  2  0
  7  9  1  0
  9 10  2  0
 10 11  1  0
 11 12  2  0
 12 13  1  0
  3 14  2  0
 14 15  1  0
 15 16  2  0
 16 17  1  0
 17 18  1  0
 18 19  1  0
 19 20  2  0
 19 21  1  0
 21 22  2  0
 22 23  1  0
 23 24  2  0
 24 25  1  0
 24 26  1  0
 26 27  2  0
 16  2  1  0
 27 21  1  0
 13  9  1  0
  1 28  1  0
  1 29  1  0
  1 30  1  0
  4 31  1  0
  4 32  1  0
  5 33  1  0
  5 34  1  0
  6 35  1  0
 10 36  1  0
 11 37  1  0
 12 38  1  0
 18 39  1  0
 18 40  1  0
 22 41  1  0
 23 42  1  0
 26 43  1  0
 27 44  1  0
M  END
>  <UniqueID>  (81) 
71

>  <SMILES>  (81) 
Cn1c(CCNC(=O)c2cccs2)nnc1SCC(=O)c1ccc(Cl)cc1

>  <Energy>  (81) 
94.52611533295672

>  <Genealogy>  (81) 
Cn1c(CCNC(=O)c2cccs2)nnc1SCC(=O)c1ccc(Cl)cc1 (3D coordinates assigned)
Cn1c(CCNC(=O)c2cccs2)nnc1SCC(=O)c1ccc(Cl)cc1 (optimized conformer: 94.52611533295672 kcal/mol)

>  <smiles>  (81) 
Cn1c(CCNC(=O)c2cccs2)nnc1SCC(=O)c1ccc(Cl)cc1

>  <score_type>  (81) 
oracle

>  <origin>  (81) 
adg

>  <m_score__min__energy>  (81) 
-9.5099999999999998

>  <m_primary>  (81) 
energy

$$$$
81:0
     RDKit          3D

 48 51  0  0  0  0  0  0  0  0999 V2000
   59.6680   28.9480   48.8780 C   0  0  0  0  0  0  0  0  0  0  0  0
   60.7040   29.8430   48.2100 C   0  0  0  0  0  0  0  0  0  0  0  0
   60.0750   31.0530   47.6860 N   0  0  0  0  0  0  0  0  0  0  0  0
   60.5950   32.3910   47.7760 C   0  0  0  0  0  0  0  0  0  0  0  0
   61.5060   32.7520   48.5670 O   0  0  0  0  0  0  0  0  0  0  0  0
   59.9350   33.2400   46.7870 C   0  0  0  0  0  0  0  0  0  0  0  0
   60.0430   34.5830   46.4260 C   0  0  0  0  0  0  0  0  0  0  0  0
   59.2350   35.0440   45.3580 C   0  0  0  0  0  0  0  0  0  0  0  0
   58.3560   34.1600   44.6760 C   0  0  0  0  0  0  0  0  0  0  0  0
   58.2860   32.8080   45.0650 C   0  0  0  0  0  0  0  0  0  0  0  0
   57.4810   31.8260   44.4580 C   0  0  0  0  0  0  0  0  0  0  0  0
   57.5250   30.4840   44.9300 C   0  0  0  0  0  0  0  0  0  0  0  0
   56.4980   29.2670   44.1770 S   0  0  0  0  0  0  0  0  0  0  0  0
   55.8940   28.4040   45.2480 O   0  0  0  0  0  0  0  0  0  0  0  0
   55.3830   29.9300   43.4170 O   0  0  0  0  0  0  0  0  0  0  0  0
   57.4310   28.2730   43.1000 N   0  0  0  0  0  0  0  0  0  0  0  0
   58.6430   27.8080   43.7790 C   0  0  0  0  0  0  0  0  0  0  0  0
   58.2870   26.7270   44.7620 C   0  0  0  0  0  0  0  0  0  0  0  0
   57.7190   25.5250   44.3170 C   0  0  0  0  0  0  0  0  0  0  0  0
   57.4190   24.5060   45.2270 C   0  0  0  0  0  0  0  0  0  0  0  0
   57.6930   24.6690   46.5900 C   0  0  0  0  0  0  0  0  0  0  0  0
   57.3740   23.6180   47.4640 O   0  0  0  0  0  0  0  0  0  0  0  0
   56.0480   23.2620   47.8420 C   0  0  0  0  0  0  0  0  0  0  0  0
   58.2780   25.8700   47.0350 C   0  0  0  0  0  0  0  0  0  0  0  0
   58.5770   26.8880   46.1250 C   0  0  0  0  0  0  0  0  0  0  0  0
   58.3680   30.1300   46.0160 C   0  0  0  0  0  0  0  0  0  0  0  0
   59.1430   31.1350   46.6010 C   0  0  0  0  0  0  0  0  0  0  0  0
   59.0830   32.4100   46.1220 C   0  0  0  0  0  0  0  0  0  0  0  0
   59.7628   29.0299   49.9708 H   0  0  0  0  0  0  0  0  0  0  0  0
   58.6594   29.2636   48.5728 H   0  0  0  0  0  0  0  0  0  0  0  0
   59.8337   27.9043   48.5728 H   0  0  0  0  0  0  0  0  0  0  0  0
   61.4694   30.1239   48.9484 H   0  0  0  0  0  0  0  0  0  0  0  0
   61.1644   29.2925   47.3764 H   0  0  0  0  0  0  0  0  0  0  0  0
   60.7316   35.2603   46.9523 H   0  0  0  0  0  0  0  0  0  0  0  0
   59.2886   36.0994   45.0527 H   0  0  0  0  0  0  0  0  0  0  0  0
   57.7331   34.5298   43.8482 H   0  0  0  0  0  0  0  0  0  0  0  0
   56.8197   32.0949   43.6211 H   0  0  0  0  0  0  0  0  0  0  0  0
   56.8430   27.4370   42.8750 H   0  0  0  0  0  0  0  0  0  0  0  0
   59.3489   27.4090   43.0357 H   0  0  0  0  0  0  0  0  0  0  0  0
   59.1080   28.6494   44.3136 H   0  0  0  0  0  0  0  0  0  0  0  0
   57.5082   25.3825   43.2468 H   0  0  0  0  0  0  0  0  0  0  0  0
   56.9647   23.5703   44.8692 H   0  0  0  0  0  0  0  0  0  0  0  0
   55.9725   23.2417   48.9392 H   0  0  0  0  0  0  0  0  0  0  0  0
   55.3408   24.0021   47.4394 H   0  0  0  0  0  0  0  0  0  0  0  0
   55.8065   22.2672   47.4394 H   0  0  0  0  0  0  0  0  0  0  0  0
   58.5007   26.0077   48.1034 H   0  0  0  0  0  0  0  0  0  0  0  0
   59.0419   27.8198   46.4794 H   0  0  0  0  0  0  0  0  0  0  0  0
   58.4099   29.0950   46.3861 H   0  0  0  0  0  0  0  0  0  0  0  0
  1  2  1  0
  2  3  1  0
  3  4  1  0
  4  5  2  0
  4  6  1  0
  6  7  2  0
  7  8  1  0
  8  9  2  0
  9 10  1  0
 10 11  2  0
 11 12  1  0
 12 13  1  0
 13 14  2  0
 13 15  2  0
 13 16  1  0
 16 17  1  0
 17 18  1  0
 18 19  2  0
 19 20  1  0
 20 21  2  0
 21 22  1  0
 22 23  1  0
 21 24  1  0
 24 25  2  0
 12 26  2  0
 26 27  1  0
 27 28  2  0
 27  3  1  0
 28  6  1  0
 28 10  1  0
 25 18  1  0
  1 29  1  0
  1 30  1  0
  1 31  1  0
  2 32  1  0
  2 33  1  0
  7 34  1  0
  8 35  1  0
  9 36  1  0
 11 37  1  0
 16 38  1  0
 17 39  1  0
 17 40  1  0
 19 41  1  0
 20 42  1  0
 23 43  1  0
 23 44  1  0
 23 45  1  0
 24 46  1  0
 25 47  1  0
 26 48  1  0
M  END
>  <UniqueID>  (82) 
72

>  <SMILES>  (82) 
CCN1C(=O)c2cccc3cc(S(=O)(=O)NCc4ccc(OC)cc4)cc1c23

>  <Energy>  (82) 
87.05821998571022

>  <Genealogy>  (82) 
CCN1C(=O)c2cccc3cc(S(=O)(=O)NCc4ccc(OC)cc4)cc1c23 (3D coordinates assigned)
CCN1C(=O)c2cccc3cc(S(=O)(=O)NCc4ccc(OC)cc4)cc1c23 (nonaromatic ring conformer: 87.05821998571022 kcal/mol)

>  <smiles>  (82) 
CCN1C(=O)c2cccc3cc(S(=O)(=O)NCc4ccc(OC)cc4)cc1c23

>  <score_type>  (82) 
oracle

>  <origin>  (82) 
adg

>  <m_score__min__energy>  (82) 
-9.3800000000000008

>  <m_primary>  (82) 
energy

$$$$
82:0
     RDKit          3D

 40 40  0  0  0  0  0  0  0  0999 V2000
   57.3980   32.3350   41.0830 C   0  0  0  0  0  0  0  0  0  0  0  0
   57.6960   31.6000   42.3250 N   0  0  0  0  0  0  0  0  0  0  0  0
   57.7710   32.5460   43.4500 C   0  0  0  0  0  0  0  0  0  0  0  0
   56.6600   30.5770   42.5880 C   0  0  0  0  0  0  0  0  0  0  0  0
   56.7950   30.0100   43.9810 C   0  0  0  0  0  0  0  0  0  0  0  0
   55.8870   30.2550   44.8250 O   0  0  0  0  0  0  0  0  0  0  0  0
   57.8920   29.1400   44.3460 N   0  0  0  0  0  0  0  0  0  0  0  0
   57.7630   27.6830   44.2460 C   0  0  0  0  0  0  0  0  0  0  0  0
   59.1470   29.7210   44.8460 C   0  0  0  0  0  0  0  0  0  0  0  0
   58.8660   30.6520   45.9430 C   0  0  0  0  0  0  0  0  0  0  0  0
   58.6280   31.4140   46.8450 C   0  0  0  0  0  0  0  0  0  0  0  0
   58.3450   32.3410   47.9590 C   0  0  0  0  0  0  0  0  0  0  0  0
   58.5240   33.7610   47.5850 N   0  0  0  0  0  0  0  0  0  0  0  0
   58.0940   34.0590   46.2060 C   0  0  0  0  0  0  0  0  0  0  0  0
   59.2080   34.8420   45.5300 C   0  0  0  0  0  0  0  0  0  0  0  0
   60.4430   34.5350   46.3450 C   0  0  0  0  0  0  0  0  0  0  0  0
   59.9100   34.2360   47.7330 C   0  0  0  0  0  0  0  0  0  0  0  0
   56.9954   33.3279   41.3321 H   0  0  0  0  0  0  0  0  0  0  0  0
   58.3204   32.4503   40.4949 H   0  0  0  0  0  0  0  0  0  0  0  0
   56.6557   31.7754   40.4949 H   0  0  0  0  0  0  0  0  0  0  0  0
   57.7270   31.9914   44.3990 H   0  0  0  0  0  0  0  0  0  0  0  0
   58.7163   33.1058   43.3959 H   0  0  0  0  0  0  0  0  0  0  0  0
   56.9257   33.2478   43.3959 H   0  0  0  0  0  0  0  0  0  0  0  0
   55.6664   31.0369   42.4824 H   0  0  0  0  0  0  0  0  0  0  0  0
   56.7868   29.7582   41.8644 H   0  0  0  0  0  0  0  0  0  0  0  0
   57.7245   27.2482   45.2557 H   0  0  0  0  0  0  0  0  0  0  0  0
   56.8392   27.4331   43.7037 H   0  0  0  0  0  0  0  0  0  0  0  0
   58.6285   27.2746   43.7037 H   0  0  0  0  0  0  0  0  0  0  0  0
   59.8016   28.9156   45.2103 H   0  0  0  0  0  0  0  0  0  0  0  0
   59.6440   30.2647   44.0291 H   0  0  0  0  0  0  0  0  0  0  0  0
   57.3048   32.1920   48.2841 H   0  0  0  0  0  0  0  0  0  0  0  0
   59.0610   32.1186   48.7639 H   0  0  0  0  0  0  0  0  0  0  0  0
   57.9113   33.1215   45.6603 H   0  0  0  0  0  0  0  0  0  0  0  0
   57.1626   34.6442   46.2123 H   0  0  0  0  0  0  0  0  0  0  0  0
   59.3382   34.5110   44.4891 H   0  0  0  0  0  0  0  0  0  0  0  0
   58.9935   35.9201   45.4901 H   0  0  0  0  0  0  0  0  0  0  0  0
   60.9738   33.6631   45.9351 H   0  0  0  0  0  0  0  0  0  0  0  0
   61.1661   35.3640   46.3416 H   0  0  0  0  0  0  0  0  0  0  0  0
   60.5239   33.4585   48.2111 H   0  0  0  0  0  0  0  0  0  0  0  0
   59.9443   35.1375   48.3624 H   0  0  0  0  0  0  0  0  0  0  0  0
  1  2  1  0
  2  3  1  0
  2  4  1  0
  4  5  1  0
  5  6  2  0
  5  7  1  0
  7  8  1  0
  7  9  1  0
  9 10  1  0
 10 11  3  0
 11 12  1  0
 12 13  1  0
 13 14  1  0
 14 15  1  0
 15 16  1  0
 16 17  1  0
 17 13  1  0
  1 18  1  0
  1 19  1  0
  1 20  1  0
  3 21  1  0
  3 22  1  0
  3 23  1  0
  4 24  1  0
  4 25  1  0
  8 26  1  0
  8 27  1  0
  8 28  1  0
  9 29  1  0
  9 30  1  0
 12 31  1  0
 12 32  1  0
 14 33  1  0
 14 34  1  0
 15 35  1  0
 15 36  1  0
 16 37  1  0
 16 38  1  0
 17 39  1  0
 17 40  1  0
M  END
>  <UniqueID>  (83) 
73

>  <SMILES>  (83) 
CN(C)CC(=O)N(C)CC#CCN1CCCC1

>  <Energy>  (83) 
34.09737964082901

>  <Genealogy>  (83) 
CN(C)CC(=O)N(C)CC#CCN1CCCC1 (3D coordinates assigned)
CN(C)CC(=O)N(C)CC#CCN1CCCC1 (nonaromatic ring conformer: 34.09737964082901 kcal/mol)

>  <smiles>  (83) 
CN(C)CC(=O)N(C)CC#CCN1CCCC1

>  <score_type>  (83) 
oracle

>  <origin>  (83) 
adg

>  <m_score__min__energy>  (83) 
-5.3300000000000001

>  <m_primary>  (83) 
energy

$$$$
83:0
     RDKit          3D

 50 51  0  0  1  0  0  0  0  0999 V2000
   55.1310   24.7810   45.5830 C   0  0  0  0  0  0  0  0  0  0  0  0
   55.3830   26.1200   46.0200 N   0  0  0  0  0  0  0  0  0  0  0  0
   56.5430   26.6630   45.9710 C   0  0  0  0  0  0  0  0  0  0  0  0
   57.5720   26.1340   46.6180 N   0  0  0  0  0  0  0  0  0  0  0  0
   58.7850   26.6990   46.5690 C   0  0  0  0  0  0  0  0  0  0  0  0
   59.0500   27.8700   45.8430 C   0  0  0  0  0  0  0  0  0  0  0  0
   60.3860   28.4560   45.8170 C   0  0  0  0  0  0  0  0  0  0  0  0
   57.9630   28.3950   45.1820 C   0  0  0  0  0  0  0  0  0  0  0  0
   58.0120   29.4370   44.4900 N   0  0  0  0  0  0  0  0  0  0  0  0
   57.9480   30.7430   44.9590 C   0  0  0  0  0  0  0  0  0  0  0  0
   57.6970   31.8790   44.2180 C   0  0  0  0  0  0  0  0  0  0  0  0
   57.7280   33.1540   44.7530 C   0  0  0  0  0  0  0  0  0  0  0  0
   58.0230   33.2930   46.0950 C   0  0  0  0  0  0  0  0  0  0  0  0
   58.0550   34.5770   46.6430 O   0  0  0  0  0  0  0  0  0  0  0  0
   59.3040   35.2160   46.8140 C   0  0  0  0  0  0  0  0  0  0  0  0
   60.4550   34.3080   46.7710 C   0  0  0  0  0  0  0  0  0  0  0  0
   60.7810   33.8460   45.6230 O   0  0  0  0  0  0  0  0  0  0  0  0
   61.2190   33.9130   47.9030 N   0  0  0  0  0  0  0  0  0  0  0  0
   62.3360   33.0070   47.7240 C   0  0  0  0  0  0  0  0  0  0  0  0
   63.0170   32.8550   49.0690 C   0  0  0  0  0  0  0  0  0  0  0  0
   63.3610   33.5760   46.7620 C   0  0  0  0  0  0  0  0  0  0  0  0
   61.8990   31.6580   47.2510 C   0  0  0  0  0  0  0  0  0  0  0  0
   58.2820   32.1890   46.8810 C   0  0  0  0  0  0  0  0  0  0  0  0
   58.2450   30.9360   46.3280 C   0  0  0  0  0  0  0  0  0  0  0  0
   56.7380   27.7790   45.2620 N   0  0  0  0  0  0  0  0  0  0  0  0
   55.0078   24.1266   46.4586 H   0  0  0  0  0  0  0  0  0  0  0  0
   54.2131   24.7596   44.9772 H   0  0  0  0  0  0  0  0  0  0  0  0
   55.9784   24.4274   44.9772 H   0  0  0  0  0  0  0  0  0  0  0  0
   57.4420   25.2580   47.1800 H   0  0  0  0  0  0  0  0  0  0  0  0
   59.6093   26.2246   47.1218 H   0  0  0  0  0  0  0  0  0  0  0  0
   60.7387   28.6107   46.8474 H   0  0  0  0  0  0  0  0  0  0  0  0
   61.0740   27.7770   45.2920 H   0  0  0  0  0  0  0  0  0  0  0  0
   60.3525   29.4221   45.2920 H   0  0  0  0  0  0  0  0  0  0  0  0
   57.4607   31.7654   43.1497 H   0  0  0  0  0  0  0  0  0  0  0  0
   57.5231   34.0343   44.1260 H   0  0  0  0  0  0  0  0  0  0  0  0
   59.4226   35.9613   46.0137 H   0  0  0  0  0  0  0  0  0  0  0  0
   59.2939   35.6661   47.8177 H   0  0  0  0  0  0  0  0  0  0  0  0
   60.9440   34.2970   48.8440 H   0  0  0  0  0  0  0  0  0  0  0  0
   62.2833   33.0188   49.8721 H   0  0  0  0  0  0  0  0  0  0  0  0
   63.4354   31.8414   49.1557 H   0  0  0  0  0  0  0  0  0  0  0  0
   63.8267   33.5945   49.1557 H   0  0  0  0  0  0  0  0  0  0  0  0
   64.1840   34.0329   47.3311 H   0  0  0  0  0  0  0  0  0  0  0  0
   63.7571   32.7687   46.1285 H   0  0  0  0  0  0  0  0  0  0  0  0
   62.8853   34.3392   46.1285 H   0  0  0  0  0  0  0  0  0  0  0  0
   61.6907   31.0149   48.1188 H   0  0  0  0  0  0  0  0  0  0  0  0
   60.9879   31.7600   46.6431 H   0  0  0  0  0  0  0  0  0  0  0  0
   62.6968   31.2064   46.6431 H   0  0  0  0  0  0  0  0  0  0  0  0
   58.5174   32.3144   47.9482 H   0  0  0  0  0  0  0  0  0  0  0  0
   58.4507   30.0614   46.9626 H   0  0  0  0  0  0  0  0  0  0  0  0
   55.9040   28.1710   44.7620 H   0  0  0  0  0  0  0  0  0  0  0  0
  1  2  1  0
  2  3  2  0
  3  4  1  0
  4  5  1  0
  5  6  2  0
  6  7  1  0
  6  8  1  0
  8  9  2  0
  9 10  1  0
 10 11  2  0
 11 12  1  0
 12 13  2  0
 13 14  1  0
 14 15  1  0
 15 16  1  0
 16 17  2  0
 16 18  1  0
 18 19  1  0
 19 20  1  0
 19 21  1  0
 19 22  1  0
 13 23  1  0
 23 24  2  0
  8 25  1  0
 25  3  1  0
 24 10  1  0
  1 26  1  0
  1 27  1  0
  1 28  1  0
  4 29  1  0
  5 30  1  0
  7 31  1  0
  7 32  1  0
  7 33  1  0
 11 34  1  0
 12 35  1  0
 15 36  1  0
 15 37  1  0
 18 38  1  0
 20 39  1  0
 20 40  1  0
 20 41  1  0
 21 42  1  0
 21 43  1  0
 21 44  1  0
 22 45  1  0
 22 46  1  0
 22 47  1  0
 23 48  1  0
 24 49  1  0
 25 50  1  0
M  END
>  <smiles>  (84) 
CN=c1[nH]cc(C)c(=Nc2ccc(OCC(=O)NC(C)(C)C)cc2)[nH]1

>  <score_type>  (84) 
oracle

>  <origin>  (84) 
adg

>  <m_score__min__energy>  (84) 
-7.8700000000000001

>  <m_primary>  (84) 
energy

$$$$
84:0
     RDKit          3D

 33 35  0  0  0  0  0  0  0  0999 V2000
   59.9035   35.5973   48.1291 H   0  0  0  0  0  0  0  0  0  0  0  0
   59.4920   35.0380   47.2760 C   0  0  0  0  0  0  0  0  0  0  0  0
   59.8420   35.3970   45.9700 C   0  0  0  0  0  0  0  0  0  0  0  0
   60.5273   36.2397   45.7965 H   0  0  0  0  0  0  0  0  0  0  0  0
   59.3210   34.6850   44.8850 C   0  0  0  0  0  0  0  0  0  0  0  0
   59.6003   34.9655   43.8587 H   0  0  0  0  0  0  0  0  0  0  0  0
   58.4430   33.6140   45.1040 C   0  0  0  0  0  0  0  0  0  0  0  0
   57.7710   32.7050   43.7140 S   0  0  0  0  0  0  0  0  0  0  0  0
   57.7660   31.1620   44.6160 C   0  0  0  0  0  0  0  0  0  0  0  0
   56.6510   30.4390   44.8570 N   0  0  0  0  0  0  0  0  0  0  0  0
   56.8890   29.3190   45.5370 N   0  0  0  0  0  0  0  0  0  0  0  0
   58.1910   29.1520   45.8470 C   0  0  0  0  0  0  0  0  0  0  0  0
   58.6240   28.0950   46.4690 N   0  0  0  0  0  0  0  0  0  0  0  0
   58.0510   26.7830   46.3940 C   0  0  0  0  0  0  0  0  0  0  0  0
   58.5210   25.8770   47.1310 O   0  0  0  0  0  0  0  0  0  0  0  0
   56.9940   26.4920   45.4620 N   0  0  0  0  0  0  0  0  0  0  0  0
   56.6620   27.2550   44.8330 H   0  0  0  0  0  0  0  0  0  0  0  0
   56.3050   25.2320   45.4000 C   0  0  0  0  0  0  0  0  0  0  0  0
   56.9810   24.0510   45.0420 C   0  0  0  0  0  0  0  0  0  0  0  0
   58.0592   24.0817   44.8263 H   0  0  0  0  0  0  0  0  0  0  0  0
   56.2890   22.8380   44.9590 C   0  0  0  0  0  0  0  0  0  0  0  0
   56.8260   21.9171   44.6876 H   0  0  0  0  0  0  0  0  0  0  0  0
   54.9180   22.7940   45.2200 C   0  0  0  0  0  0  0  0  0  0  0  0
   54.3768   21.8382   45.1604 H   0  0  0  0  0  0  0  0  0  0  0  0
   54.2340   23.9650   45.5570 C   0  0  0  0  0  0  0  0  0  0  0  0
   53.1527   23.9304   45.7561 H   0  0  0  0  0  0  0  0  0  0  0  0
   54.9200   25.1810   45.6420 C   0  0  0  0  0  0  0  0  0  0  0  0
   54.2240   26.3370   45.9770 O   0  0  0  0  0  0  0  0  0  0  0  0
   59.1380   30.4210   45.2500 S   0  0  0  0  0  0  0  0  0  0  0  0
   58.0960   33.2550   46.4120 C   0  0  0  0  0  0  0  0  0  0  0  0
   57.4117   32.4118   46.5872 H   0  0  0  0  0  0  0  0  0  0  0  0
   58.6190   33.9680   47.4970 C   0  0  0  0  0  0  0  0  0  0  0  0
   58.3432   33.6866   48.5240 H   0  0  0  0  0  0  0  0  0  0  0  0
  1  2  1  0
  2  3  2  0
  3  4  1  0
  3  5  1  0
  5  6  1  0
  5  7  2  0
  7  8  1  0
  8  9  1  0
  9 10  2  0
 10 11  1  0
 11 12  1  0
 12 13  2  0
 13 14  1  0
 14 15  2  0
 14 16  1  0
 16 17  1  0
 16 18  1  0
 18 19  2  0
 19 20  1  0
 19 21  1  0
 21 22  1  0
 21 23  2  0
 23 24  1  0
 23 25  1  0
 25 26  1  0
 25 27  2  0
 27 28  1  0
 12 29  1  0
  7 30  1  0
 30 31  1  0
 30 32  2  0
 32 33  1  0
 32  2  1  0
 29  9  1  0
 27 18  1  0
M  CHG  2  11  -1  28  -1
M  END
>  <UniqueID>  (85) 
74

>  <SMILES>  (85) 
O=C(/N=c1/[n-]nc(Sc2ccccc2)s1)Nc1ccccc1[O-]

>  <Energy>  (85) 
76.6373380551248

>  <Genealogy>  (85) 
O=C(N=c1[n-]nc(Sc2ccccc2)s1)Nc1ccccc1[O-] (protonated)
O=C(/N=c1/[n-]nc(Sc2ccccc2)s1)Nc1ccccc1[O-] (cis-trans isomerization)
O=C(/N=c1/[n-]nc(Sc2ccccc2)s1)Nc1ccccc1[O-] (3D coordinates assigned)
O=C(/N=c1/[n-]nc(Sc2ccccc2)s1)Nc1ccccc1[O-] (optimized conformer: 76.6373380551248 kcal/mol)

>  <smiles>  (85) 
O=C(N=c1[nH]nc(Sc2ccccc2)s1)Nc1ccccc1O

>  <score_type>  (85) 
oracle

>  <origin>  (85) 
adg

>  <m_score__min__energy>  (85) 
-14.119999999999999

>  <m_primary>  (85) 
energy

$$$$
85:0
     RDKit          3D

 39 41  0  0  1  0  0  0  0  0999 V2000
   57.0280   21.0490   42.8160 C   0  0  0  0  0  0  0  0  0  0  0  0
   56.0490   21.6020   43.6390 O   0  0  0  0  0  0  0  0  0  0  0  0
   56.2660   22.3940   44.7480 C   0  0  0  0  0  0  0  0  0  0  0  0
   56.0860   23.7570   44.8150 C   0  0  0  0  0  0  0  0  0  0  0  0
   56.3040   24.4870   45.9370 C   0  0  0  0  0  0  0  0  0  0  0  0
   56.2210   25.9090   46.0770 C   0  0  0  0  0  0  0  0  0  0  0  0
   55.0000   26.3760   46.0010 O   0  0  0  0  0  0  0  0  0  0  0  0
   57.1810   26.8950   46.2750 N   0  0  0  0  0  0  0  0  0  0  0  0
   57.1020   28.0740   45.7790 C   0  0  0  0  0  0  0  0  0  0  0  0
   55.9510   28.4510   45.1850 N   0  0  0  0  0  0  0  0  0  0  0  0
   55.8780   29.7200   44.7470 C   0  0  0  0  0  0  0  0  0  0  0  0
   56.8940   30.6050   44.8810 N   0  0  0  0  0  0  0  0  0  0  0  0
   58.0500   30.2280   45.4760 C   0  0  0  0  0  0  0  0  0  0  0  0
   59.1950   30.8790   45.7640 N   0  0  0  0  0  0  0  0  0  0  0  0
   60.0270   30.0050   46.4040 C   0  0  0  0  0  0  0  0  0  0  0  0
   59.3940   28.7990   46.5130 N   0  0  0  0  0  0  0  0  0  0  0  0
   58.1680   28.9140   45.9460 C   0  0  0  0  0  0  0  0  0  0  0  0
   56.7330   23.7800   47.0770 C   0  0  0  0  0  0  0  0  0  0  0  0
   56.9310   22.4180   47.0660 C   0  0  0  0  0  0  0  0  0  0  0  0
   57.3490   21.8020   48.2340 O   0  0  0  0  0  0  0  0  0  0  0  0
   56.4140   21.2020   49.1140 C   0  0  0  0  0  0  0  0  0  0  0  0
   56.6990   21.7240   45.8980 C   0  0  0  0  0  0  0  0  0  0  0  0
   56.9060   20.3720   45.8950 O   0  0  0  0  0  0  0  0  0  0  0  0
   55.8860   19.4110   45.8360 C   0  0  0  0  0  0  0  0  0  0  0  0
   57.8190   20.6022   43.4363 H   0  0  0  0  0  0  0  0  0  0  0  0
   56.5772   20.2721   42.1810 H   0  0  0  0  0  0  0  0  0  0  0  0
   57.4607   21.8361   42.1810 H   0  0  0  0  0  0  0  0  0  0  0  0
   55.7471   24.2824   43.9099 H   0  0  0  0  0  0  0  0  0  0  0  0
   55.1470   27.7830   45.0720 H   0  0  0  0  0  0  0  0  0  0  0  0
   54.9512   30.0543   44.2578 H   0  0  0  0  0  0  0  0  0  0  0  0
   59.4010   31.8920   45.5270 H   0  0  0  0  0  0  0  0  0  0  0  0
   61.0385   30.2340   46.7707 H   0  0  0  0  0  0  0  0  0  0  0  0
   56.9162   24.3356   48.0085 H   0  0  0  0  0  0  0  0  0  0  0  0
   56.7141   21.3946   50.1546 H   0  0  0  0  0  0  0  0  0  0  0  0
   55.4161   21.6288   48.9352 H   0  0  0  0  0  0  0  0  0  0  0  0
   56.3862   20.1170   48.9352 H   0  0  0  0  0  0  0  0  0  0  0  0
   55.5876   19.1299   46.8567 H   0  0  0  0  0  0  0  0  0  0  0  0
   55.0193   19.8284   45.3025 H   0  0  0  0  0  0  0  0  0  0  0  0
   56.2511   18.5210   45.3025 H   0  0  0  0  0  0  0  0  0  0  0  0
  1  2  1  0
  2  3  1  0
  3  4  2  0
  4  5  1  0
  5  6  1  0
  6  7  2  0
  6  8  1  0
  8  9  2  0
  9 10  1  0
 10 11  1  0
 11 12  2  0
 12 13  1  0
 13 14  1  0
 14 15  1  0
 15 16  2  0
 16 17  1  0
  5 18  2  0
 18 19  1  0
 19 20  1  0
 20 21  1  0
 19 22  2  0
 22 23  1  0
 23 24  1  0
 22  3  1  0
 17  9  1  0
 17 13  2  0
  1 25  1  0
  1 26  1  0
  1 27  1  0
  4 28  1  0
 10 29  1  0
 11 30  1  0
 14 31  1  0
 15 32  1  0
 18 33  1  0
 21 34  1  0
 21 35  1  0
 21 36  1  0
 24 37  1  0
 24 38  1  0
 24 39  1  0
M  END
>  <smiles>  (86) 
COc1cc(C(=O)N=c2[nH]cnc3[nH]cnc23)cc(OC)c1OC

>  <score_type>  (86) 
oracle

>  <origin>  (86) 
adg

>  <m_score__min__energy>  (86) 
-6.8099999999999996

>  <m_primary>  (86) 
energy

$$$$
86:0
     RDKit          3D

 48 51  0  0  0  0  0  0  0  0999 V2000
   57.3160   20.7310   45.0410 C   0  0  0  0  0  0  0  0  0  0  0  0
   56.2060   21.5850   44.7890 O   0  0  0  0  0  0  0  0  0  0  0  0
   56.2410   22.6040   43.8310 C   0  0  0  0  0  0  0  0  0  0  0  0
   55.9790   22.3450   42.6240 O   0  0  0  0  0  0  0  0  0  0  0  0
   56.5840   23.9850   44.2370 C   0  0  0  0  0  0  0  0  0  0  0  0
   57.4450   24.7640   43.4460 C   0  0  0  0  0  0  0  0  0  0  0  0
   57.7730   26.0690   43.8270 C   0  0  0  0  0  0  0  0  0  0  0  0
   57.2490   26.6190   45.0090 C   0  0  0  0  0  0  0  0  0  0  0  0
   57.5860   28.0080   45.4110 C   0  0  0  0  0  0  0  0  0  0  0  0
   57.9980   28.2720   46.7240 C   0  0  0  0  0  0  0  0  0  0  0  0
   58.2980   29.5060   47.1100 O   0  0  0  0  0  0  0  0  0  0  0  0
   58.2320   30.5520   46.2930 C   0  0  0  0  0  0  0  0  0  0  0  0
   58.5620   31.8180   46.7840 C   0  0  0  0  0  0  0  0  0  0  0  0
   58.5000   32.9450   45.9470 C   0  0  0  0  0  0  0  0  0  0  0  0
   58.8140   34.2390   46.3940 O   0  0  0  0  0  0  0  0  0  0  0  0
   60.0770   34.8850   46.2300 C   0  0  0  0  0  0  0  0  0  0  0  0
   61.1490   34.1730   47.0120 C   0  0  0  0  0  0  0  0  0  0  0  0
   60.9370   33.8170   48.3550 C   0  0  0  0  0  0  0  0  0  0  0  0
   61.9350   33.1470   49.0710 C   0  0  0  0  0  0  0  0  0  0  0  0
   63.1450   32.8220   48.4500 C   0  0  0  0  0  0  0  0  0  0  0  0
   63.3570   33.1620   47.1120 C   0  0  0  0  0  0  0  0  0  0  0  0
   62.3620   33.8300   46.3920 C   0  0  0  0  0  0  0  0  0  0  0  0
   58.1120   32.7850   44.6140 C   0  0  0  0  0  0  0  0  0  0  0  0
   57.7770   31.5230   44.1040 C   0  0  0  0  0  0  0  0  0  0  0  0
   57.3900   31.4080   42.7680 O   0  0  0  0  0  0  0  0  0  0  0  0
   57.8320   30.3880   44.9460 C   0  0  0  0  0  0  0  0  0  0  0  0
   57.5130   29.0840   44.5060 C   0  0  0  0  0  0  0  0  0  0  0  0
   57.1820   28.8730   43.3060 O   0  0  0  0  0  0  0  0  0  0  0  0
   56.3810   25.8440   45.7960 C   0  0  0  0  0  0  0  0  0  0  0  0
   56.0540   24.5390   45.4160 C   0  0  0  0  0  0  0  0  0  0  0  0
   57.4565   20.6229   46.1266 H   0  0  0  0  0  0  0  0  0  0  0  0
   57.1271   19.7431   44.5956 H   0  0  0  0  0  0  0  0  0  0  0  0
   58.2225   21.1668   44.5956 H   0  0  0  0  0  0  0  0  0  0  0  0
   57.8644   24.3442   42.5198 H   0  0  0  0  0  0  0  0  0  0  0  0
   58.4459   26.6691   43.1969 H   0  0  0  0  0  0  0  0  0  0  0  0
   58.0739   27.4448   47.4451 H   0  0  0  0  0  0  0  0  0  0  0  0
   58.8725   31.9331   47.8330 H   0  0  0  0  0  0  0  0  0  0  0  0
   60.3471   34.8827   45.1637 H   0  0  0  0  0  0  0  0  0  0  0  0
   59.9957   35.9166   46.6030 H   0  0  0  0  0  0  0  0  0  0  0  0
   59.9839   34.0658   48.8445 H   0  0  0  0  0  0  0  0  0  0  0  0
   61.7676   32.8756   50.1238 H   0  0  0  0  0  0  0  0  0  0  0  0
   63.9300   32.2985   49.0154 H   0  0  0  0  0  0  0  0  0  0  0  0
   64.3084   32.9038   46.6239 H   0  0  0  0  0  0  0  0  0  0  0  0
   62.5296   34.0880   45.3359 H   0  0  0  0  0  0  0  0  0  0  0  0
   58.0688   33.6640   43.9540 H   0  0  0  0  0  0  0  0  0  0  0  0
   57.7030   30.6390   42.1870 H   0  0  0  0  0  0  0  0  0  0  0  0
   55.9555   26.2671   46.7180 H   0  0  0  0  0  0  0  0  0  0  0  0
   55.3771   23.9410   46.0439 H   0  0  0  0  0  0  0  0  0  0  0  0
  1  2  1  0
  2  3  1  0
  3  4  2  0
  3  5  1  0
  5  6  2  0
  6  7  1  0
  7  8  2  0
  8  9  1  0
  9 10  2  0
 10 11  1  0
 11 12  1  0
 12 13  2  0
 13 14  1  0
 14 15  1  0
 15 16  1  0
 16 17  1  0
 17 18  2  0
 18 19  1  0
 19 20  2  0
 20 21  1  0
 21 22  2  0
 14 23  2  0
 23 24  1  0
 24 25  1  0
 24 26  2  0
 26 27  1  0
 27 28  2  0
  8 29  1  0
 29 30  2  0
 30  5  1  0
 27  9  1  0
 26 12  1  0
 22 17  1  0
  1 31  1  0
  1 32  1  0
  1 33  1  0
  6 34  1  0
  7 35  1  0
 10 36  1  0
 13 37  1  0
 16 38  1  0
 16 39  1  0
 18 40  1  0
 19 41  1  0
 20 42  1  0
 21 43  1  0
 22 44  1  0
 23 45  1  0
 25 46  1  0
 29 47  1  0
 30 48  1  0
M  END
>  <UniqueID>  (87) 
75

>  <SMILES>  (87) 
COC(=O)c1ccc(-c2coc3cc(OCc4ccccc4)cc(O)c3c2=O)cc1

>  <Energy>  (87) 
64.40130834253611

>  <Genealogy>  (87) 
COC(=O)c1ccc(-c2coc3cc(OCc4ccccc4)cc(O)c3c2=O)cc1 (3D coordinates assigned)
COC(=O)c1ccc(-c2coc3cc(OCc4ccccc4)cc(O)c3c2=O)cc1 (optimized conformer: 64.40130834253611 kcal/mol)

>  <smiles>  (87) 
COC(=O)c1ccc(-c2coc3cc(OCc4ccccc4)cc(O)c3c2=O)cc1

>  <score_type>  (87) 
oracle

>  <origin>  (87) 
adg

>  <m_score__min__energy>  (87) 
-8.4800000000000004

>  <m_primary>  (87) 
energy

$$$$
87:0
     RDKit          3D

 40 43  0  0  0  0  0  0  0  0999 V2000
   56.7390   19.7054   45.6786 H   0  0  0  0  0  0  0  0  0  0  0  0
   56.7970   20.7040   45.2210 C   0  0  0  0  0  0  0  0  0  0  0  0
   56.2490   20.9180   43.9840 N   0  0  0  0  0  0  0  0  0  0  0  0
   56.2950   22.1390   43.3750 C   0  0  0  0  0  0  0  0  0  0  0  0
   55.7810   22.3060   42.2380 O   0  0  0  0  0  0  0  0  0  0  0  0
   56.9210   23.1880   44.0450 C   0  0  0  0  0  0  0  0  0  0  0  0
   57.1240   24.5060   43.6980 C   0  0  0  0  0  0  0  0  0  0  0  0
   56.8117   25.0122   42.7727 H   0  0  0  0  0  0  0  0  0  0  0  0
   57.8130   25.0570   44.7790 C   0  0  0  0  0  0  0  0  0  0  0  0
   58.2610   26.4570   44.8820 C   0  0  0  0  0  0  0  0  0  0  0  0
   59.1020   27.1150   46.1890 S   0  0  0  0  0  0  0  0  0  0  0  0
   59.1910   28.6450   45.4850 C   0  0  0  0  0  0  0  0  0  0  0  0
   59.7520   29.6960   46.0080 N   0  0  0  0  0  0  0  0  0  0  0  0
   59.0960   30.6370   46.9140 C   0  0  0  0  0  0  0  0  0  0  0  0
   59.7787   30.8748   47.7431 H   0  0  0  0  0  0  0  0  0  0  0  0
   58.1750   30.1735   47.2972 H   0  0  0  0  0  0  0  0  0  0  0  0
   58.7320   31.9110   46.1920 C   0  0  0  0  0  0  0  0  0  0  0  0
   59.4050   33.1060   46.4990 C   0  0  0  0  0  0  0  0  0  0  0  0
   60.1889   33.1085   47.2707 H   0  0  0  0  0  0  0  0  0  0  0  0
   59.0860   34.2890   45.8320 C   0  0  0  0  0  0  0  0  0  0  0  0
   59.6200   35.2190   46.0770 H   0  0  0  0  0  0  0  0  0  0  0  0
   58.0910   34.2940   44.8550 C   0  0  0  0  0  0  0  0  0  0  0  0
   57.8421   35.2279   44.3298 H   0  0  0  0  0  0  0  0  0  0  0  0
   57.4100   33.1160   44.5420 C   0  0  0  0  0  0  0  0  0  0  0  0
   56.6254   33.1270   43.7711 H   0  0  0  0  0  0  0  0  0  0  0  0
   57.7210   31.9130   45.2070 C   0  0  0  0  0  0  0  0  0  0  0  0
   57.0530   30.7120   44.9170 O   0  0  0  0  0  0  0  0  0  0  0  0
   56.2610   30.4880   43.7550 C   0  0  0  0  0  0  0  0  0  0  0  0
   55.2427   30.2000   44.0552 H   0  0  0  0  0  0  0  0  0  0  0  0
   56.2198   31.4097   43.1561 H   0  0  0  0  0  0  0  0  0  0  0  0
   56.7087   29.6812   43.1561 H   0  0  0  0  0  0  0  0  0  0  0  0
   58.5910   28.6680   44.2760 N   0  0  0  0  0  0  0  0  0  0  0  0
   58.5310   29.5150   43.6690 H   0  0  0  0  0  0  0  0  0  0  0  0
   58.0740   27.4590   43.9320 C   0  0  0  0  0  0  0  0  0  0  0  0
   57.5502   27.2856   42.9804 H   0  0  0  0  0  0  0  0  0  0  0  0
   58.0240   24.1290   45.7440 N   0  0  0  0  0  0  0  0  0  0  0  0
   58.5120   24.2610   46.6570 H   0  0  0  0  0  0  0  0  0  0  0  0
   57.4750   22.9940   45.2800 C   0  0  0  0  0  0  0  0  0  0  0  0
   57.4340   21.7530   45.9110 C   0  0  0  0  0  0  0  0  0  0  0  0
   57.8797   21.5992   46.9048 H   0  0  0  0  0  0  0  0  0  0  0  0
  1  2  1  0
  2  3  1  0
  3  4  1  0
  4  5  2  0
  4  6  1  0
  6  7  1  0
  7  8  1  0
  7  9  2  0
  9 10  1  0
 10 11  1  0
 11 12  1  0
 12 13  2  0
 13 14  1  0
 14 15  1  0
 14 16  1  0
 14 17  1  0
 17 18  2  0
 18 19  1  0
 18 20  1  0
 20 21  1  0
 20 22  2  0
 22 23  1  0
 22 24  1  0
 24 25  1  0
 24 26  2  0
 26 27  1  0
 27 28  1  0
 28 29  1  0
 28 30  1  0
 28 31  1  0
 12 32  1  0
 32 33  1  0
 32 34  1  0
 34 35  1  0
  9 36  1  0
 36 37  1  0
 36 38  1  0
 38 39  1  0
 39 40  1  0
 39  2  2  0
 38  6  2  0
 34 10  2  0
 26 17  1  0
M  CHG  1   3  -1
M  END
>  <UniqueID>  (88) 
76

>  <SMILES>  (88) 
COc1ccccc1C/N=c1/[nH]cc(-c2cc3c(=O)[n-]ccc3[nH]2)s1

>  <Energy>  (88) 
108.18967897848444

>  <Genealogy>  (88) 
COc1ccccc1CN=c1[nH]cc(-c2cc3c(=O)[n-]ccc3[nH]2)s1 (protonated)
COc1ccccc1C/N=c1/[nH]cc(-c2cc3c(=O)[n-]ccc3[nH]2)s1 (cis-trans isomerization)
COc1ccccc1C/N=c1/[nH]cc(-c2cc3c(=O)[n-]ccc3[nH]2)s1 (3D coordinates assigned)
COc1ccccc1C/N=c1/[nH]cc(-c2cc3c(=O)[n-]ccc3[nH]2)s1 (optimized conformer: 108.18967897848444 kcal/mol)

>  <smiles>  (88) 
COc1ccccc1CN=c1[nH]cc(-c2cc3c(=O)[nH]ccc3[nH]2)s1

>  <score_type>  (88) 
oracle

>  <origin>  (88) 
adg

>  <m_score__min__energy>  (88) 
-9.1400000000000006

>  <m_primary>  (88) 
energy

$$$$
88:0
     RDKit          3D

 56 60  0  0  0  0  0  0  0  0999 V2000
   58.6320   28.8640   48.3590 O   0  0  0  0  0  0  0  0  0  0  0  0
   58.9510   30.1080   47.5780 S   0  0  0  0  0  0  0  0  0  0  0  0
   57.8700   30.4640   46.5970 O   0  0  0  0  0  0  0  0  0  0  0  0
   59.3830   31.4490   48.5940 C   0  0  0  0  0  0  0  0  0  0  0  0
   58.6050   32.1510   49.5130 C   0  0  0  0  0  0  0  0  0  0  0  0
   59.1990   33.2240   50.2070 C   0  0  0  0  0  0  0  0  0  0  0  0
   60.5480   33.5750   49.9730 C   0  0  0  0  0  0  0  0  0  0  0  0
   61.3110   32.8470   49.0420 C   0  0  0  0  0  0  0  0  0  0  0  0
   62.6580   33.1220   48.7500 C   0  0  0  0  0  0  0  0  0  0  0  0
   63.3450   32.3350   47.8030 C   0  0  0  0  0  0  0  0  0  0  0  0
   62.6940   31.2830   47.1290 C   0  0  0  0  0  0  0  0  0  0  0  0
   61.3460   31.0230   47.4190 C   0  0  0  0  0  0  0  0  0  0  0  0
   60.6940   31.7930   48.3690 C   0  0  0  0  0  0  0  0  0  0  0  0
   60.5110   30.0100   46.8280 N   0  0  0  0  0  0  0  0  0  0  0  0
   60.7790   29.2470   45.6080 C   0  0  0  0  0  0  0  0  0  0  0  0
   60.0250   27.9370   45.6090 C   0  0  0  0  0  0  0  0  0  0  0  0
   60.5140   26.8580   46.3660 C   0  0  0  0  0  0  0  0  0  0  0  0
   59.8310   25.6410   46.3880 C   0  0  0  0  0  0  0  0  0  0  0  0
   58.6580   25.4860   45.6520 C   0  0  0  0  0  0  0  0  0  0  0  0
   58.1590   26.5470   44.8940 C   0  0  0  0  0  0  0  0  0  0  0  0
   58.8340   27.7840   44.8650 C   0  0  0  0  0  0  0  0  0  0  0  0
   58.3510   28.8810   44.1320 O   0  0  0  0  0  0  0  0  0  0  0  0
   57.0390   29.0210   43.5900 C   0  0  0  0  0  0  0  0  0  0  0  0
   56.8170   30.4540   43.0950 C   0  0  0  0  0  0  0  0  0  0  0  0
   57.8780   31.3640   43.5600 N   0  0  0  0  0  0  0  0  0  0  0  0
   57.4680   32.7770   43.6350 C   0  0  0  0  0  0  0  0  0  0  0  0
   58.1060   33.5090   44.7910 C   0  0  0  0  0  0  0  0  0  0  0  0
   59.3150   34.2040   44.6130 C   0  0  0  0  0  0  0  0  0  0  0  0
   59.9180   34.8570   45.6930 C   0  0  0  0  0  0  0  0  0  0  0  0
   59.3230   34.8180   46.9570 C   0  0  0  0  0  0  0  0  0  0  0  0
   58.1210   34.1280   47.1420 C   0  0  0  0  0  0  0  0  0  0  0  0
   57.5130   33.4770   46.0640 C   0  0  0  0  0  0  0  0  0  0  0  0
   57.5553   31.8748   49.6918 H   0  0  0  0  0  0  0  0  0  0  0  0
   58.6069   33.7941   50.9381 H   0  0  0  0  0  0  0  0  0  0  0  0
   61.0007   34.4164   50.5182 H   0  0  0  0  0  0  0  0  0  0  0  0
   63.1749   33.9490   49.2589 H   0  0  0  0  0  0  0  0  0  0  0  0
   64.4030   32.5452   47.5877 H   0  0  0  0  0  0  0  0  0  0  0  0
   63.2336   30.6754   46.3876 H   0  0  0  0  0  0  0  0  0  0  0  0
   60.4660   29.8410   44.7367 H   0  0  0  0  0  0  0  0  0  0  0  0
   61.8564   29.0301   45.5611 H   0  0  0  0  0  0  0  0  0  0  0  0
   61.4419   26.9738   46.9453 H   0  0  0  0  0  0  0  0  0  0  0  0
   60.2189   24.8037   46.9867 H   0  0  0  0  0  0  0  0  0  0  0  0
   58.1235   24.5247   45.6682 H   0  0  0  0  0  0  0  0  0  0  0  0
   57.2326   26.4166   44.3154 H   0  0  0  0  0  0  0  0  0  0  0  0
   56.9181   28.3236   42.7479 H   0  0  0  0  0  0  0  0  0  0  0  0
   56.3022   28.7960   44.3751 H   0  0  0  0  0  0  0  0  0  0  0  0
   56.8056   30.4530   41.9951 H   0  0  0  0  0  0  0  0  0  0  0  0
   55.8586   30.8110   43.5000 H   0  0  0  0  0  0  0  0  0  0  0  0
   58.1760   31.0550   44.5150 H   0  0  0  0  0  0  0  0  0  0  0  0
   57.7573   33.2774   42.6991 H   0  0  0  0  0  0  0  0  0  0  0  0
   56.3790   32.7989   43.7887 H   0  0  0  0  0  0  0  0  0  0  0  0
   59.7886   34.2344   43.6206 H   0  0  0  0  0  0  0  0  0  0  0  0
   60.8622   35.4022   45.5472 H   0  0  0  0  0  0  0  0  0  0  0  0
   59.8000   35.3298   47.8058 H   0  0  0  0  0  0  0  0  0  0  0  0
   57.6530   34.0972   48.1370 H   0  0  0  0  0  0  0  0  0  0  0  0
   56.5662   32.9375   46.2136 H   0  0  0  0  0  0  0  0  0  0  0  0
  1  2  2  0
  2  3  2  0
  2  4  1  0
  4  5  2  0
  5  6  1  0
  6  7  2  0
  7  8  1  0
  8  9  2  0
  9 10  1  0
 10 11  2  0
 11 12  1  0
 12 13  2  0
 12 14  1  0
 14 15  1  0
 15 16  1  0
 16 17  2  0
 17 18  1  0
 18 19  2  0
 19 20  1  0
 20 21  2  0
 21 22  1  0
 22 23  1  0
 23 24  1  0
 24 25  1  0
 25 26  1  0
 26 27  1  0
 27 28  2  0
 28 29  1  0
 29 30  2  0
 30 31  1  0
 31 32  2  0
 14  2  1  0
 21 16  1  0
 32 27  1  0
 13  4  1  0
 13  8  1  0
  5 33  1  0
  6 34  1  0
  7 35  1  0
  9 36  1  0
 10 37  1  0
 11 38  1  0
 15 39  1  0
 15 40  1  0
 17 41  1  0
 18 42  1  0
 19 43  1  0
 20 44  1  0
 23 45  1  0
 23 46  1  0
 24 47  1  0
 24 48  1  0
 25 49  1  0
 26 50  1  0
 26 51  1  0
 28 52  1  0
 29 53  1  0
 30 54  1  0
 31 55  1  0
 32 56  1  0
M  END
>  <UniqueID>  (89) 
77

>  <SMILES>  (89) 
O=S1(=O)c2cccc3cccc(c23)N1Cc1ccccc1OCCNCc1ccccc1

>  <Energy>  (89) 
89.52055065881352

>  <Genealogy>  (89) 
O=S1(=O)c2cccc3cccc(c23)N1Cc1ccccc1OCCNCc1ccccc1 (3D coordinates assigned)
O=S1(=O)c2cccc3cccc(c23)N1Cc1ccccc1OCCNCc1ccccc1 (nonaromatic ring conformer: 89.52055065881352 kcal/mol)

>  <smiles>  (89) 
O=S1(=O)c2cccc3cccc(c23)N1Cc1ccccc1OCCNCc1ccccc1

>  <score_type>  (89) 
oracle

>  <origin>  (89) 
adg

>  <m_score__min__energy>  (89) 
-8.7300000000000004

>  <m_primary>  (89) 
energy

$$$$
89:0
     RDKit          3D

 46 49  0  0  0  0  0  0  0  0999 V2000
   54.6250   29.3890   45.2720 H   0  0  0  0  0  0  0  0  0  0  0  0
   55.5170   29.0220   44.8750 N   0  0  0  0  0  0  0  0  0  0  0  0
   56.3560   29.8500   44.0710 C   0  0  0  0  0  0  0  0  0  0  0  0
   56.2480   29.8110   42.8160 O   0  0  0  0  0  0  0  0  0  0  0  0
   57.3900   30.6950   44.7050 C   0  0  0  0  0  0  0  0  0  0  0  0
   57.0230   32.0070   45.0450 C   0  0  0  0  0  0  0  0  0  0  0  0
   56.0813   32.4257   44.6605 H   0  0  0  0  0  0  0  0  0  0  0  0
   57.8170   32.7630   45.8420 N   0  0  0  0  0  0  0  0  0  0  0  0
   58.9890   32.3000   46.3510 C   0  0  0  0  0  0  0  0  0  0  0  0
   59.7780   33.1470   47.2100 N   0  0  0  0  0  0  0  0  0  0  0  0
   59.4470   34.3520   47.7490 C   0  0  0  0  0  0  0  0  0  0  0  0
   58.4715   34.8355   47.5922 H   0  0  0  0  0  0  0  0  0  0  0  0
   60.4400   34.9010   48.5010 N   0  0  0  0  0  0  0  0  0  0  0  0
   61.4230   33.9870   48.4170 C   0  0  0  0  0  0  0  0  0  0  0  0
   62.6850   34.0200   48.9980 C   0  0  0  0  0  0  0  0  0  0  0  0
   63.0057   34.8656   49.6242 H   0  0  0  0  0  0  0  0  0  0  0  0
   63.5370   32.9240   48.7510 C   0  0  0  0  0  0  0  0  0  0  0  0
   64.8570   32.8940   49.3220 C   0  0  0  0  0  0  0  0  0  0  0  0
   65.9200   32.8690   49.7800 N   0  0  0  0  0  0  0  0  0  0  0  0
   63.0860   31.8540   47.9380 C   0  0  0  0  0  0  0  0  0  0  0  0
   63.7499   30.9988   47.7434 H   0  0  0  0  0  0  0  0  0  0  0  0
   61.8320   31.8770   47.3940 N   0  0  0  0  0  0  0  0  0  0  0  0
   61.0310   32.9430   47.6420 C   0  0  0  0  0  0  0  0  0  0  0  0
   59.4170   31.0090   46.0110 C   0  0  0  0  0  0  0  0  0  0  0  0
   60.3542   30.6163   46.4323 H   0  0  0  0  0  0  0  0  0  0  0  0
   58.6600   30.2140   45.1380 C   0  0  0  0  0  0  0  0  0  0  0  0
   59.2010   29.0870   44.7520 N   0  0  0  0  0  0  0  0  0  0  0  0
   58.6090   27.7870   44.6190 C   0  0  0  0  0  0  0  0  0  0  0  0
   58.2870   27.2680   43.3560 C   0  0  0  0  0  0  0  0  0  0  0  0
   58.4437   27.8792   42.4549 H   0  0  0  0  0  0  0  0  0  0  0  0
   57.7680   25.9770   43.2410 C   0  0  0  0  0  0  0  0  0  0  0  0
   57.4950   25.5821   42.2513 H   0  0  0  0  0  0  0  0  0  0  0  0
   57.5940   25.1840   44.3800 C   0  0  0  0  0  0  0  0  0  0  0  0
   57.1740   24.1720   44.2834 H   0  0  0  0  0  0  0  0  0  0  0  0
   57.9540   25.6750   45.6500 C   0  0  0  0  0  0  0  0  0  0  0  0
   57.8220   24.8810   46.8430 N   0  0  0  0  0  0  0  0  0  0  0  0
   58.3750   25.1480   47.6890 H   0  0  0  0  0  0  0  0  0  0  0  0
   56.7460   23.5290   47.0170 S   0  0  0  0  0  0  0  0  0  0  0  0
   55.3350   24.0390   47.0890 O   0  0  0  0  0  0  0  0  0  0  0  0
   57.0530   22.7850   48.2860 O   0  0  0  0  0  0  0  0  0  0  0  0
   56.8900   22.4470   45.6110 C   0  0  0  0  0  0  0  0  0  0  0  0
   57.0277   21.4121   45.9574 H   0  0  0  0  0  0  0  0  0  0  0  0
   55.9753   22.5116   45.0034 H   0  0  0  0  0  0  0  0  0  0  0  0
   57.7559   22.7486   45.0034 H   0  0  0  0  0  0  0  0  0  0  0  0
   58.4750   26.9760   45.7520 C   0  0  0  0  0  0  0  0  0  0  0  0
   58.7816   27.3623   46.7352 H   0  0  0  0  0  0  0  0  0  0  0  0
  1  2  1  0
  2  3  1  0
  3  4  2  0
  3  5  1  0
  5  6  2  0
  6  7  1  0
  6  8  1  0
  8  9  1  0
  9 10  1  0
 10 11  1  0
 11 12  1  0
 11 13  2  0
 13 14  1  0
 14 15  2  0
 15 16  1  0
 15 17  1  0
 17 18  1  0
 18 19  3  0
 17 20  2  0
 20 21  1  0
 20 22  1  0
 22 23  2  0
  9 24  2  0
 24 25  1  0
 24 26  1  0
 26 27  2  0
 27 28  1  0
 28 29  2  0
 29 30  1  0
 29 31  1  0
 31 32  1  0
 31 33  2  0
 33 34  1  0
 33 35  1  0
 35 36  1  0
 36 37  1  0
 36 38  1  0
 38 39  2  0
 38 40  2  0
 38 41  1  0
 41 42  1  0
 41 43  1  0
 41 44  1  0
 35 45  2  0
 45 46  1  0
 26  5  1  0
 45 28  1  0
 23 10  1  0
 23 14  1  0
M  CHG  2   2  -1   8  -1
M  END
>  <UniqueID>  (90) 
78

>  <SMILES>  (90) 
CS(=O)(=O)Nc1cccc(/N=c2/cc(-n3cnc4cc(C#N)cnc43)[n-]cc2C([NH-])=O)c1

>  <Energy>  (90) 
112.07118284198262

>  <Genealogy>  (90) 
CS(=O)(=O)Nc1cccc(N=c2cc(-n3cnc4cc(C#N)cnc43)[n-]cc2C([NH-])=O)c1 (protonated)
CS(=O)(=O)Nc1cccc(/N=c2/cc(-n3cnc4cc(C#N)cnc43)[n-]cc2C([NH-])=O)c1 (cis-trans isomerization)
CS(=O)(=O)Nc1cccc(/N=c2/cc(-n3cnc4cc(C#N)cnc43)[n-]cc2C([NH-])=O)c1 (3D coordinates assigned)
CS(=O)(=O)Nc1cccc(/N=c2/cc(-n3cnc4cc(C#N)cnc43)[n-]cc2C([NH-])=O)c1 (optimized conformer: 112.07118284198262 kcal/mol)

>  <smiles>  (90) 
CS(=O)(=O)Nc1cccc(N=c2cc(-n3cnc4cc(C#N)cnc43)[nH]cc2C(N)=O)c1

>  <score_type>  (90) 
oracle

>  <origin>  (90) 
adg

>  <m_score__min__energy>  (90) 
-13.59

>  <m_primary>  (90) 
energy

$$$$
90:0
     RDKit          3D

 46 48  0  0  0  0  0  0  0  0999 V2000
   60.2810   34.9610   46.6930 C   0  0  0  0  0  0  0  0  0  0  0  0
   59.3210   33.9590   46.1210 C   0  0  0  0  0  0  0  0  0  0  0  0
   58.9930   33.9860   44.7550 C   0  0  0  0  0  0  0  0  0  0  0  0
   58.0800   33.0690   44.2300 C   0  0  0  0  0  0  0  0  0  0  0  0
   57.4930   32.1040   45.0560 C   0  0  0  0  0  0  0  0  0  0  0  0
   56.5430   31.1920   44.4940 N   0  0  0  0  0  0  0  0  0  0  0  0
   56.3690   29.8180   44.8640 C   0  0  0  0  0  0  0  0  0  0  0  0
   55.2080   29.3290   44.8510 O   0  0  0  0  0  0  0  0  0  0  0  0
   57.5390   28.9080   45.1390 C   0  0  0  0  0  0  0  0  0  0  0  0
   58.8500   29.5010   44.6140 C   0  0  0  0  0  0  0  0  0  0  0  0
   60.2860   28.7980   45.4220 S   0  0  0  0  0  0  0  0  0  0  0  0
   61.4550   28.7450   44.4770 O   0  0  0  0  0  0  0  0  0  0  0  0
   59.9710   27.3930   45.8570 O   0  0  0  0  0  0  0  0  0  0  0  0
   60.6890   29.7770   46.8430 C   0  0  0  0  0  0  0  0  0  0  0  0
   61.8680   30.5380   46.8120 C   0  0  0  0  0  0  0  0  0  0  0  0
   62.2360   31.3310   47.9040 C   0  0  0  0  0  0  0  0  0  0  0  0
   61.4250   31.3670   49.0440 C   0  0  0  0  0  0  0  0  0  0  0  0
   60.2640   30.5960   49.1000 C   0  0  0  0  0  0  0  0  0  0  0  0
   59.8870   29.7850   48.0150 C   0  0  0  0  0  0  0  0  0  0  0  0
   58.6120   28.9890   48.1200 C   0  0  0  0  0  0  0  0  0  0  0  0
   61.7940   32.1570   50.1390 O   0  0  0  0  0  0  0  0  0  0  0  0
   62.7650   33.2050   50.0550 C   0  0  0  0  0  0  0  0  0  0  0  0
   63.7890   32.9280   48.9910 C   0  0  0  0  0  0  0  0  0  0  0  0
   64.9110   33.4960   49.0330 O   0  0  0  0  0  0  0  0  0  0  0  0
   63.4570   32.0770   47.8900 N   0  0  0  0  0  0  0  0  0  0  0  0
   57.7830   32.1020   46.4290 C   0  0  0  0  0  0  0  0  0  0  0  0
   58.6970   33.0200   46.9590 C   0  0  0  0  0  0  0  0  0  0  0  0
   58.9650   32.9980   48.2900 F   0  0  0  0  0  0  0  0  0  0  0  0
   60.2421   34.9204   47.7916 H   0  0  0  0  0  0  0  0  0  0  0  0
   61.3008   34.7271   46.3533 H   0  0  0  0  0  0  0  0  0  0  0  0
   60.0037   35.9698   46.3533 H   0  0  0  0  0  0  0  0  0  0  0  0
   59.4580   34.7336   44.0955 H   0  0  0  0  0  0  0  0  0  0  0  0
   57.8209   33.1054   43.1616 H   0  0  0  0  0  0  0  0  0  0  0  0
   57.6255   28.7561   46.2250 H   0  0  0  0  0  0  0  0  0  0  0  0
   57.3616   27.9536   44.6217 H   0  0  0  0  0  0  0  0  0  0  0  0
   58.9199   29.3039   43.5341 H   0  0  0  0  0  0  0  0  0  0  0  0
   58.8396   30.5804   44.8256 H   0  0  0  0  0  0  0  0  0  0  0  0
   62.5098   30.5105   45.9190 H   0  0  0  0  0  0  0  0  0  0  0  0
   59.6364   30.6227   50.0030 H   0  0  0  0  0  0  0  0  0  0  0  0
   58.3630   28.8336   49.1801 H   0  0  0  0  0  0  0  0  0  0  0  0
   57.7954   29.5380   47.6283 H   0  0  0  0  0  0  0  0  0  0  0  0
   58.7467   28.0143   47.6283 H   0  0  0  0  0  0  0  0  0  0  0  0
   62.2517   34.1488   49.8190 H   0  0  0  0  0  0  0  0  0  0  0  0
   63.2841   33.2706   51.0226 H   0  0  0  0  0  0  0  0  0  0  0  0
   64.1230   31.9860   47.0900 H   0  0  0  0  0  0  0  0  0  0  0  0
   57.2898   31.3757   47.0917 H   0  0  0  0  0  0  0  0  0  0  0  0
  1  2  1  0
  2  3  2  0
  3  4  1  0
  4  5  2  0
  5  6  1  0
  6  7  1  0
  7  8  2  0
  7  9  1  0
  9 10  1  0
 10 11  1  0
 11 12  2  0
 11 13  2  0
 11 14  1  0
 14 15  2  0
 15 16  1  0
 16 17  2  0
 17 18  1  0
 18 19  2  0
 19 20  1  0
 17 21  1  0
 21 22  1  0
 22 23  1  0
 23 24  2  0
 23 25  1  0
  5 26  1  0
 26 27  2  0
 27 28  1  0
 27  2  1  0
 19 14  1  0
 25 16  1  0
  1 29  1  0
  1 30  1  0
  1 31  1  0
  3 32  1  0
  4 33  1  0
  9 34  1  0
  9 35  1  0
 10 36  1  0
 10 37  1  0
 15 38  1  0
 18 39  1  0
 20 40  1  0
 20 41  1  0
 20 42  1  0
 22 43  1  0
 22 44  1  0
 25 45  1  0
 26 46  1  0
M  CHG  1   6  -1
M  END
>  <UniqueID>  (91) 
79

>  <SMILES>  (91) 
Cc1ccc([N-]C(=O)CCS(=O)(=O)c2cc3c(cc2C)OCC(=O)N3)cc1F

>  <Energy>  (91) 
50.47748660458377

>  <Genealogy>  (91) 
Cc1ccc([N-]C(=O)CCS(=O)(=O)c2cc3c(cc2C)OCC(=O)N3)cc1F (protonated)
Cc1ccc([N-]C(=O)CCS(=O)(=O)c2cc3c(cc2C)OCC(=O)N3)cc1F (3D coordinates assigned)
Cc1ccc([N-]C(=O)CCS(=O)(=O)c2cc3c(cc2C)OCC(=O)N3)cc1F (nonaromatic ring conformer: 50.47748660458377 kcal/mol)

>  <smiles>  (91) 
Cc1ccc(NC(=O)CCS(=O)(=O)c2cc3c(cc2C)OCC(=O)N3)cc1F

>  <score_type>  (91) 
oracle

>  <origin>  (91) 
adg

>  <m_score__min__energy>  (91) 
-11.33

>  <m_primary>  (91) 
energy

$$$$
91:0
     RDKit          3D

 56 59  0  0  0  0  0  0  0  0999 V2000
   58.4610   27.9320   43.7480 C   0  0  0  0  0  0  0  0  0  0  0  0
   58.2520   29.3140   44.3010 C   0  0  0  0  0  0  0  0  0  0  0  0
   57.4650   30.2390   43.5970 C   0  0  0  0  0  0  0  0  0  0  0  0
   57.2680   31.5270   44.0980 C   0  0  0  0  0  0  0  0  0  0  0  0
   57.8460   31.9060   45.3160 C   0  0  0  0  0  0  0  0  0  0  0  0
   57.5990   33.5370   45.9490 S   0  0  0  0  0  0  0  0  0  0  0  0
   56.6430   33.4790   47.1080 O   0  0  0  0  0  0  0  0  0  0  0  0
   56.9820   34.3970   44.8800 O   0  0  0  0  0  0  0  0  0  0  0  0
   59.1050   34.2570   46.4730 N   0  0  0  0  0  0  0  0  0  0  0  0
   60.2290   33.7420   45.6690 C   0  0  0  0  0  0  0  0  0  0  0  0
   61.5610   33.9410   46.4090 C   0  0  0  0  0  0  0  0  0  0  0  0
   61.6300   33.2770   47.6670 O   0  0  0  0  0  0  0  0  0  0  0  0
   60.3600   33.0140   48.2480 C   0  0  0  0  0  0  0  0  0  0  0  0
   59.3110   34.0960   47.9290 C   0  0  0  0  0  0  0  0  0  0  0  0
   58.6250   30.9860   46.0280 C   0  0  0  0  0  0  0  0  0  0  0  0
   58.8590   29.6980   45.5140 C   0  0  0  0  0  0  0  0  0  0  0  0
   59.6610   28.7470   46.2320 N   0  0  0  0  0  0  0  0  0  0  0  0
   59.1960   27.8240   47.2250 C   0  0  0  0  0  0  0  0  0  0  0  0
   60.0050   27.2700   48.0190 O   0  0  0  0  0  0  0  0  0  0  0  0
   57.7480   27.4550   47.2670 C   0  0  0  0  0  0  0  0  0  0  0  0
   57.4940   26.3210   46.3780 N   0  0  0  0  0  0  0  0  0  0  0  0
   56.3040   25.9760   45.8360 C   0  0  0  0  0  0  0  0  0  0  0  0
   55.1310   26.7080   45.9890 O   0  0  0  0  0  0  0  0  0  0  0  0
   56.4200   24.7970   45.1300 C   0  0  0  0  0  0  0  0  0  0  0  0
   57.7390   24.4140   45.2200 C   0  0  0  0  0  0  0  0  0  0  0  0
   58.3670   25.3500   46.0180 C   0  0  0  0  0  0  0  0  0  0  0  0
   59.7000   25.2880   46.4180 O   0  0  0  0  0  0  0  0  0  0  0  0
   58.2760   23.1280   44.6710 C   0  0  0  0  0  0  0  0  0  0  0  0
   57.3250   22.5690   43.5930 C   0  0  0  0  0  0  0  0  0  0  0  0
   55.8500   22.6220   44.0480 C   0  0  0  0  0  0  0  0  0  0  0  0
   55.3880   24.0670   44.3260 C   0  0  0  0  0  0  0  0  0  0  0  0
   58.5690   27.2176   44.5775 H   0  0  0  0  0  0  0  0  0  0  0  0
   57.5954   27.6492   43.1309 H   0  0  0  0  0  0  0  0  0  0  0  0
   59.3715   27.9178   43.1309 H   0  0  0  0  0  0  0  0  0  0  0  0
   57.0002   29.9468   42.6438 H   0  0  0  0  0  0  0  0  0  0  0  0
   56.6566   32.2468   43.5341 H   0  0  0  0  0  0  0  0  0  0  0  0
   60.0769   32.6689   45.4811 H   0  0  0  0  0  0  0  0  0  0  0  0
   60.2663   34.2939   44.7182 H   0  0  0  0  0  0  0  0  0  0  0  0
   62.3715   33.5585   45.7712 H   0  0  0  0  0  0  0  0  0  0  0  0
   61.6541   35.0180   46.6123 H   0  0  0  0  0  0  0  0  0  0  0  0
   59.9942   32.0492   47.8668 H   0  0  0  0  0  0  0  0  0  0  0  0
   60.4960   33.0022   49.3395 H   0  0  0  0  0  0  0  0  0  0  0  0
   58.3552   33.8117   48.3935 H   0  0  0  0  0  0  0  0  0  0  0  0
   59.6785   35.0531   48.3277 H   0  0  0  0  0  0  0  0  0  0  0  0
   59.0577   31.2730   46.9977 H   0  0  0  0  0  0  0  0  0  0  0  0
   57.4719   27.1802   48.2957 H   0  0  0  0  0  0  0  0  0  0  0  0
   57.1468   28.3147   46.9360 H   0  0  0  0  0  0  0  0  0  0  0  0
   60.2880   26.1110   46.4370 H   0  0  0  0  0  0  0  0  0  0  0  0
   59.2649   23.3087   44.2244 H   0  0  0  0  0  0  0  0  0  0  0  0
   58.3602   22.3968   45.4885 H   0  0  0  0  0  0  0  0  0  0  0  0
   57.4365   23.1655   42.6755 H   0  0  0  0  0  0  0  0  0  0  0  0
   57.5907   21.5166   43.4143 H   0  0  0  0  0  0  0  0  0  0  0  0
   55.2178   22.1919   43.2572 H   0  0  0  0  0  0  0  0  0  0  0  0
   55.7595   22.0484   44.9822 H   0  0  0  0  0  0  0  0  0  0  0  0
   55.2361   24.5897   43.3701 H   0  0  0  0  0  0  0  0  0  0  0  0
   54.4462   24.0387   44.8937 H   0  0  0  0  0  0  0  0  0  0  0  0
  1  2  1  0
  2  3  2  0
  3  4  1  0
  4  5  2  0
  5  6  1  0
  6  7  2  0
  6  8  2  0
  6  9  1  0
  9 10  1  0
 10 11  1  0
 11 12  1  0
 12 13  1  0
 13 14  1  0
  5 15  1  0
 15 16  2  0
 16 17  1  0
 17 18  1  0
 18 19  2  0
 18 20  1  0
 20 21  1  0
 21 22  1  0
 22 23  1  0
 22 24  2  0
 24 25  1  0
 25 26  2  0
 26 27  1  0
 25 28  1  0
 28 29  1  0
 29 30  1  0
 30 31  1  0
 16  2  1  0
 26 21  1  0
 14  9  1  0
 31 24  1  0
  1 32  1  0
  1 33  1  0
  1 34  1  0
  3 35  1  0
  4 36  1  0
 10 37  1  0
 10 38  1  0
 11 39  1  0
 11 40  1  0
 13 41  1  0
 13 42  1  0
 14 43  1  0
 14 44  1  0
 15 45  1  0
 20 46  1  0
 20 47  1  0
 27 48  1  0
 28 49  1  0
 28 50  1  0
 29 51  1  0
 29 52  1  0
 30 53  1  0
 30 54  1  0
 31 55  1  0
 31 56  1  0
M  CHG  2  17  -1  23  -1
M  END
>  <UniqueID>  (92) 
80

>  <SMILES>  (92) 
Cc1ccc(S(=O)(=O)N2CCOCC2)cc1[N-]C(=O)Cn1c([O-])c2c(c1O)CCCC2

>  <Energy>  (92) 
98.47711444646451

>  <Genealogy>  (92) 
Cc1ccc(S(=O)(=O)N2CCOCC2)cc1[N-]C(=O)Cn1c([O-])c2c(c1O)CCCC2 (protonated)
Cc1ccc(S(=O)(=O)N2CCOCC2)cc1[N-]C(=O)Cn1c([O-])c2c(c1O)CCCC2 (3D coordinates assigned)
Cc1ccc(S(=O)(=O)N2CCOCC2)cc1[N-]C(=O)Cn1c([O-])c2c(c1O)CCCC2 (nonaromatic ring conformer: 98.47711444646451 kcal/mol)

>  <smiles>  (92) 
Cc1ccc(S(=O)(=O)N2CCOCC2)cc1NC(=O)Cn1c(O)c2c(c1O)CCCC2

>  <score_type>  (92) 
oracle

>  <origin>  (92) 
adg

>  <m_score__min__energy>  (92) 
-14.6

>  <m_primary>  (92) 
energy

$$$$
92:0
     RDKit          3D

 57 59  0  0  0  0  0  0  0  0999 V2000
   62.2207   31.1031   47.5468 H   0  0  0  0  0  0  0  0  0  0  0  0
   62.5380   31.5990   48.4760 C   0  0  0  0  0  0  0  0  0  0  0  0
   63.2280   32.7560   48.3590 C   0  0  0  0  0  0  0  0  0  0  0  0
   64.3690   33.0050   49.3120 C   0  0  0  0  0  0  0  0  0  0  0  0
   64.0059   32.9258   50.3473 H   0  0  0  0  0  0  0  0  0  0  0  0
   65.1584   32.2580   49.1421 H   0  0  0  0  0  0  0  0  0  0  0  0
   64.7754   34.0130   49.1421 H   0  0  0  0  0  0  0  0  0  0  0  0
   62.9050   33.8190   47.3250 C   0  0  0  0  0  0  0  0  0  0  0  0
   62.6027   34.7389   47.8469 H   0  0  0  0  0  0  0  0  0  0  0  0
   63.8067   33.9786   46.7156 H   0  0  0  0  0  0  0  0  0  0  0  0
   61.7720   33.3930   46.3810 C   0  0  0  0  0  0  0  0  0  0  0  0
   61.8066   34.0195   45.4775 H   0  0  0  0  0  0  0  0  0  0  0  0
   61.9156   32.3314   46.1312 H   0  0  0  0  0  0  0  0  0  0  0  0
   60.4170   33.5440   47.0290 C   0  0  0  0  0  0  0  0  0  0  0  0
   60.2560   33.0081   47.9760 H   0  0  0  0  0  0  0  0  0  0  0  0
   59.3810   34.2760   46.5560 C   0  0  0  0  0  0  0  0  0  0  0  0
   59.6540   35.7000   46.1440 C   0  0  0  0  0  0  0  0  0  0  0  0
   59.7738   36.3248   47.0414 H   0  0  0  0  0  0  0  0  0  0  0  0
   60.5758   35.7381   45.5450 H   0  0  0  0  0  0  0  0  0  0  0  0
   58.8116   36.0763   45.5450 H   0  0  0  0  0  0  0  0  0  0  0  0
   57.9590   33.7610   46.4500 C   0  0  0  0  0  0  0  0  0  0  0  0
   57.6433   33.3661   47.4269 H   0  0  0  0  0  0  0  0  0  0  0  0
   57.3024   34.5894   46.1456 H   0  0  0  0  0  0  0  0  0  0  0  0
   57.8700   32.6650   45.4200 C   0  0  0  0  0  0  0  0  0  0  0  0
   57.8400   32.9800   44.0520 C   0  0  0  0  0  0  0  0  0  0  0  0
   57.9221   34.0290   43.7312 H   0  0  0  0  0  0  0  0  0  0  0  0
   57.7060   31.9660   43.0910 C   0  0  0  0  0  0  0  0  0  0  0  0
   57.7000   32.3050   41.6300 C   0  0  0  0  0  0  0  0  0  0  0  0
   57.6807   33.3980   41.5073 H   0  0  0  0  0  0  0  0  0  0  0  0
   58.6055   31.8987   41.1556 H   0  0  0  0  0  0  0  0  0  0  0  0
   56.8095   31.8669   41.1556 H   0  0  0  0  0  0  0  0  0  0  0  0
   57.6380   30.6270   43.5040 C   0  0  0  0  0  0  0  0  0  0  0  0
   57.5510   29.8281   42.7529 H   0  0  0  0  0  0  0  0  0  0  0  0
   57.6800   30.2990   44.8660 C   0  0  0  0  0  0  0  0  0  0  0  0
   57.5450   28.8710   45.3030 C   0  0  0  0  0  0  0  0  0  0  0  0
   57.5404   28.8227   46.4019 H   0  0  0  0  0  0  0  0  0  0  0  0
   56.6036   28.4559   44.9138 H   0  0  0  0  0  0  0  0  0  0  0  0
   58.3919   28.2868   44.9138 H   0  0  0  0  0  0  0  0  0  0  0  0
   57.7750   31.3240   45.8200 C   0  0  0  0  0  0  0  0  0  0  0  0
   57.7750   31.0734   46.8911 H   0  0  0  0  0  0  0  0  0  0  0  0
   62.1680   30.9330   49.7800 C   0  0  0  0  0  0  0  0  0  0  0  0
   62.1631   29.8425   49.6360 H   0  0  0  0  0  0  0  0  0  0  0  0
   62.9091   31.2235   50.5392 H   0  0  0  0  0  0  0  0  0  0  0  0
   60.8060   31.3710   50.2550 C   0  0  0  0  0  0  0  0  0  0  0  0
   60.5400   32.7440   50.4990 C   0  0  0  0  0  0  0  0  0  0  0  0
   61.3294   33.4911   50.3294 H   0  0  0  0  0  0  0  0  0  0  0  0
   59.2750   33.1570   50.9560 C   0  0  0  0  0  0  0  0  0  0  0  0
   59.0562   34.2194   51.1389 H   0  0  0  0  0  0  0  0  0  0  0  0
   58.3100   32.1780   51.1690 C   0  0  0  0  0  0  0  0  0  0  0  0
   58.5610   30.8630   50.9510 C   0  0  0  0  0  0  0  0  0  0  0  0
   59.7980   30.4110   50.4990 C   0  0  0  0  0  0  0  0  0  0  0  0
   59.9850   29.3392   50.3368 H   0  0  0  0  0  0  0  0  0  0  0  0
   57.4320   30.1230   51.2470 O   0  0  0  0  0  0  0  0  0  0  0  0
   56.4090   31.0310   51.6780 C   0  0  0  0  0  0  0  0  0  0  0  0
   55.5367   30.9749   51.0102 H   0  0  0  0  0  0  0  0  0  0  0  0
   56.0484   30.7949   52.6900 H   0  0  0  0  0  0  0  0  0  0  0  0
   57.0110   32.3320   51.6120 O   0  0  0  0  0  0  0  0  0  0  0  0
  1  2  1  0
  2  3  2  0
  3  4  1  0
  4  5  1  0
  4  6  1  0
  4  7  1  0
  3  8  1  0
  8  9  1  0
  8 10  1  0
  8 11  1  0
 11 12  1  0
 11 13  1  0
 11 14  1  0
 14 15  1  0
 14 16  2  0
 16 17  1  0
 17 18  1  0
 17 19  1  0
 17 20  1  0
 16 21  1  0
 21 22  1  0
 21 23  1  0
 21 24  1  0
 24 25  2  0
 25 26  1  0
 25 27  1  0
 27 28  1  0
 28 29  1  0
 28 30  1  0
 28 31  1  0
 27 32  2  0
 32 33  1  0
 32 34  1  0
 34 35  1  0
 35 36  1  0
 35 37  1  0
 35 38  1  0
 34 39  2  0
 39 40  1  0
  2 41  1  0
 41 42  1  0
 41 43  1  0
 41 44  1  0
 44 45  2  0
 45 46  1  0
 45 47  1  0
 47 48  1  0
 47 49  2  0
 49 50  1  0
 50 51  2  0
 51 52  1  0
 50 53  1  0
 53 54  1  0
 54 55  1  0
 54 56  1  0
 54 57  1  0
 39 24  1  0
 51 44  1  0
 57 49  1  0
M  END
>  <UniqueID>  (93) 
81

>  <SMILES>  (93) 
C/C(=C/Cc1ccc2c(c1)OCO2)CC/C=C(/C)Cc1cc(C)cc(C)c1

>  <Energy>  (93) 
75.666269926652

>  <Genealogy>  (93) 
C/C(=C/Cc1ccc2c(c1)OCO2)CC/C=C(/C)Cc1cc(C)cc(C)c1 (cis-trans isomerization)
C/C(=C/Cc1ccc2c(c1)OCO2)CC/C=C(/C)Cc1cc(C)cc(C)c1 (3D coordinates assigned)
C/C(=C/Cc1ccc2c(c1)OCO2)CC/C=C(/C)Cc1cc(C)cc(C)c1 (nonaromatic ring conformer: 75.666269926652 kcal/mol)

>  <smiles>  (93) 
CC(=CCc1ccc2c(c1)OCO2)CCC=C(C)Cc1cc(C)cc(C)c1

>  <score_type>  (93) 
oracle

>  <origin>  (93) 
adg

>  <m_score__min__energy>  (93) 
-8.5099999999999998

>  <m_primary>  (93) 
energy

$$$$
93:0
     RDKit          3D

 33 35  0  0  0  0  0  0  0  0999 V2000
   61.5760   34.2710   49.0420 C   0  0  0  0  0  0  0  0  0  0  0  0
   60.7070   34.9680   48.1560 O   0  0  0  0  0  0  0  0  0  0  0  0
   60.0610   34.3880   47.0510 C   0  0  0  0  0  0  0  0  0  0  0  0
   59.7860   33.0070   46.9890 C   0  0  0  0  0  0  0  0  0  0  0  0
   59.1370   32.4540   45.8710 C   0  0  0  0  0  0  0  0  0  0  0  0
   58.8500   31.0080   45.8030 C   0  0  0  0  0  0  0  0  0  0  0  0
   57.5900   30.4890   45.8320 N   0  0  0  0  0  0  0  0  0  0  0  0
   57.8270   29.1690   45.7470 C   0  0  0  0  0  0  0  0  0  0  0  0
   56.8970   28.1330   45.7320 C   0  0  0  0  0  0  0  0  0  0  0  0
   57.3870   26.8120   45.6340 C   0  0  0  0  0  0  0  0  0  0  0  0
   56.2630   25.4570   45.6270 S   0  0  0  0  0  0  0  0  0  0  0  0
   54.6680   26.0290   45.9670 N   0  0  0  0  0  0  0  0  0  0  0  0
   56.2820   24.7880   44.2820 O   0  0  0  0  0  0  0  0  0  0  0  0
   56.6680   24.4550   46.6700 O   0  0  0  0  0  0  0  0  0  0  0  0
   58.7840   26.5770   45.5640 C   0  0  0  0  0  0  0  0  0  0  0  0
   59.6920   27.6530   45.5810 C   0  0  0  0  0  0  0  0  0  0  0  0
   59.1650   28.9370   45.6740 C   0  0  0  0  0  0  0  0  0  0  0  0
   59.7920   30.0810   45.7090 O   0  0  0  0  0  0  0  0  0  0  0  0
   58.7640   33.2960   44.8110 C   0  0  0  0  0  0  0  0  0  0  0  0
   59.0330   34.6630   44.8680 C   0  0  0  0  0  0  0  0  0  0  0  0
   59.6780   35.2140   45.9790 C   0  0  0  0  0  0  0  0  0  0  0  0
   59.9300   36.5850   46.0000 O   0  0  0  0  0  0  0  0  0  0  0  0
   61.2963   34.4954   50.0819 H   0  0  0  0  0  0  0  0  0  0  0  0
   61.4897   33.1889   48.8644 H   0  0  0  0  0  0  0  0  0  0  0  0
   62.6136   34.5901   48.8644 H   0  0  0  0  0  0  0  0  0  0  0  0
   60.0822   32.3551   47.8240 H   0  0  0  0  0  0  0  0  0  0  0  0
   55.8178   28.3363   45.7943 H   0  0  0  0  0  0  0  0  0  0  0  0
   54.7690   26.9830   46.3790 H   0  0  0  0  0  0  0  0  0  0  0  0
   59.1611   25.5459   45.4959 H   0  0  0  0  0  0  0  0  0  0  0  0
   60.7775   27.4846   45.5229 H   0  0  0  0  0  0  0  0  0  0  0  0
   58.2567   32.8748   43.9306 H   0  0  0  0  0  0  0  0  0  0  0  0
   58.7353   35.3130   44.0320 H   0  0  0  0  0  0  0  0  0  0  0  0
   59.6500   37.1750   46.7740 H   0  0  0  0  0  0  0  0  0  0  0  0
  1  2  1  0
  2  3  1  0
  3  4  2  0
  4  5  1  0
  5  6  1  0
  6  7  2  0
  7  8  1  0
  8  9  2  0
  9 10  1  0
 10 11  1  0
 11 12  1  0
 11 13  2  0
 11 14  2  0
 10 15  2  0
 15 16  1  0
 16 17  2  0
 17 18  1  0
  5 19  2  0
 19 20  1  0
 20 21  2  0
 21 22  1  0
 21  3  1  0
 18  6  1  0
 17  8  1  0
  1 23  1  0
  1 24  1  0
  1 25  1  0
  4 26  1  0
  9 27  1  0
 12 28  1  0
 15 29  1  0
 16 30  1  0
 19 31  1  0
 20 32  1  0
 22 33  1  0
M  CHG  1  12  -1
M  END
>  <UniqueID>  (94) 
82

>  <SMILES>  (94) 
COc1cc(-c2nc3cc(S([NH-])(=O)=O)ccc3o2)ccc1O

>  <Energy>  (94) 
72.47708672461722

>  <Genealogy>  (94) 
COc1cc(-c2nc3cc(S([NH-])(=O)=O)ccc3o2)ccc1O (protonated)
COc1cc(-c2nc3cc(S([NH-])(=O)=O)ccc3o2)ccc1O (3D coordinates assigned)
COc1cc(-c2nc3cc(S([NH-])(=O)=O)ccc3o2)ccc1O (optimized conformer: 72.47708672461722 kcal/mol)

>  <smiles>  (94) 
COc1cc(-c2nc3cc(S(N)(=O)=O)ccc3o2)ccc1O

>  <score_type>  (94) 
oracle

>  <origin>  (94) 
adg

>  <m_score__min__energy>  (94) 
-9.4399999999999995

>  <m_primary>  (94) 
energy

$$$$
94:0
     RDKit          3D

 49 51  0  0  0  0  0  0  0  0999 V2000
   57.5160   34.5270   44.8680 C   0  0  0  0  0  0  0  0  0  0  0  0
   57.7930   33.0620   45.0730 C   0  0  0  0  0  0  0  0  0  0  0  0
   57.0500   32.1370   44.3180 C   0  0  0  0  0  0  0  0  0  0  0  0
   57.2190   30.7650   44.4940 C   0  0  0  0  0  0  0  0  0  0  0  0
   58.1200   30.2830   45.4510 C   0  0  0  0  0  0  0  0  0  0  0  0
   58.3280   28.8730   45.6410 N   0  0  0  0  0  0  0  0  0  0  0  0
   57.3190   27.8730   45.4260 C   0  0  0  0  0  0  0  0  0  0  0  0
   56.1160   28.2020   45.2480 O   0  0  0  0  0  0  0  0  0  0  0  0
   57.6950   26.4270   45.4130 C   0  0  0  0  0  0  0  0  0  0  0  0
   56.2240   25.4190   45.7850 S   0  0  0  0  0  0  0  0  0  0  0  0
   56.8890   23.9550   45.0030 C   0  0  0  0  0  0  0  0  0  0  0  0
   56.1500   23.2820   44.0820 N   0  0  0  0  0  0  0  0  0  0  0  0
   56.6380   22.1690   43.4760 C   0  0  0  0  0  0  0  0  0  0  0  0
   55.9370   21.5590   42.6260 O   0  0  0  0  0  0  0  0  0  0  0  0
   57.9150   21.7040   43.7970 C   0  0  0  0  0  0  0  0  0  0  0  0
   58.6610   22.4070   44.7480 C   0  0  0  0  0  0  0  0  0  0  0  0
   59.9720   21.9710   45.1080 N   0  0  0  0  0  0  0  0  0  0  0  0
   58.1330   23.5160   45.3310 N   0  0  0  0  0  0  0  0  0  0  0  0
   58.8790   31.1940   46.1930 C   0  0  0  0  0  0  0  0  0  0  0  0
   58.7450   32.5830   46.0140 C   0  0  0  0  0  0  0  0  0  0  0  0
   59.7710   33.6400   47.0220 S   0  0  0  0  0  0  0  0  0  0  0  0
   60.0440   34.9430   46.3230 O   0  0  0  0  0  0  0  0  0  0  0  0
   59.0050   33.9670   48.2740 O   0  0  0  0  0  0  0  0  0  0  0  0
   61.2870   32.8960   47.4970 N   0  0  0  0  0  0  0  0  0  0  0  0
   61.5000   32.9020   48.9590 C   0  0  0  0  0  0  0  0  0  0  0  0
   62.4880   34.0030   49.3800 C   0  0  0  0  0  0  0  0  0  0  0  0
   63.7710   33.8760   48.7750 O   0  0  0  0  0  0  0  0  0  0  0  0
   63.7440   33.2430   47.5010 C   0  0  0  0  0  0  0  0  0  0  0  0
   62.4250   33.4550   46.7400 C   0  0  0  0  0  0  0  0  0  0  0  0
   57.4223   35.0227   45.8455 H   0  0  0  0  0  0  0  0  0  0  0  0
   58.3441   34.9814   44.3043 H   0  0  0  0  0  0  0  0  0  0  0  0
   56.5791   34.6477   44.3043 H   0  0  0  0  0  0  0  0  0  0  0  0
   56.3239   32.5023   43.5768 H   0  0  0  0  0  0  0  0  0  0  0  0
   56.6425   30.0583   43.8789 H   0  0  0  0  0  0  0  0  0  0  0  0
   59.2460   28.5610   46.0350 H   0  0  0  0  0  0  0  0  0  0  0  0
   58.0837   26.1573   44.4199 H   0  0  0  0  0  0  0  0  0  0  0  0
   58.4703   26.2411   46.1708 H   0  0  0  0  0  0  0  0  0  0  0  0
   58.3247   20.8053   43.3128 H   0  0  0  0  0  0  0  0  0  0  0  0
   60.1200   21.0620   45.5990 H   0  0  0  0  0  0  0  0  0  0  0  0
   60.8040   22.5610   44.8800 H   0  0  0  0  0  0  0  0  0  0  0  0
   59.5980   30.8153   46.9343 H   0  0  0  0  0  0  0  0  0  0  0  0
   60.5363   33.0759   49.4599 H   0  0  0  0  0  0  0  0  0  0  0  0
   61.9227   31.9291   49.2503 H   0  0  0  0  0  0  0  0  0  0  0  0
   62.0644   34.9779   49.0969 H   0  0  0  0  0  0  0  0  0  0  0  0
   62.6319   33.9106   50.4666 H   0  0  0  0  0  0  0  0  0  0  0  0
   64.5661   33.6486   46.8930 H   0  0  0  0  0  0  0  0  0  0  0  0
   63.8481   32.1617   47.6741 H   0  0  0  0  0  0  0  0  0  0  0  0
   62.2641   34.5329   46.5906 H   0  0  0  0  0  0  0  0  0  0  0  0
   62.4906   32.9396   45.7704 H   0  0  0  0  0  0  0  0  0  0  0  0
  1  2  1  0
  2  3  2  0
  3  4  1  0
  4  5  2  0
  5  6  1  0
  6  7  1  0
  7  8  2  0
  7  9  1  0
  9 10  1  0
 10 11  1  0
 11 12  2  0
 12 13  1  0
 13 14  2  0
 13 15  1  0
 15 16  2  0
 16 17  1  0
 16 18  1  0
  5 19  1  0
 19 20  2  0
 20 21  1  0
 21 22  2  0
 21 23  2  0
 21 24  1  0
 24 25  1  0
 25 26  1  0
 26 27  1  0
 27 28  1  0
 28 29  1  0
 20  2  1  0
 29 24  1  0
 18 11  1  0
  1 30  1  0
  1 31  1  0
  1 32  1  0
  3 33  1  0
  4 34  1  0
  6 35  1  0
  9 36  1  0
  9 37  1  0
 15 38  1  0
 17 39  1  0
 17 40  1  0
 19 41  1  0
 25 42  1  0
 25 43  1  0
 26 44  1  0
 26 45  1  0
 28 46  1  0
 28 47  1  0
 29 48  1  0
 29 49  1  0
M  CHG  1  18  -1
M  END
>  <UniqueID>  (95) 
83

>  <SMILES>  (95) 
Cc1ccc(NC(=O)CSc2nc(=O)cc(N)[n-]2)cc1S(=O)(=O)N1CCOCC1

>  <Energy>  (95) 
65.25289544513349

>  <Genealogy>  (95) 
Cc1ccc(NC(=O)CSc2nc(=O)cc(N)[n-]2)cc1S(=O)(=O)N1CCOCC1 (protonated)
Cc1ccc(NC(=O)CSc2nc(=O)cc(N)[n-]2)cc1S(=O)(=O)N1CCOCC1 (3D coordinates assigned)
Cc1ccc(NC(=O)CSc2nc(=O)cc(N)[n-]2)cc1S(=O)(=O)N1CCOCC1 (nonaromatic ring conformer: 65.25289544513349 kcal/mol)

>  <smiles>  (95) 
Cc1ccc(NC(=O)CSc2nc(=O)cc(N)[nH]2)cc1S(=O)(=O)N1CCOCC1

>  <score_type>  (95) 
oracle

>  <origin>  (95) 
adg

>  <m_score__min__energy>  (95) 
-11.17

>  <m_primary>  (95) 
energy

$$$$
95:0
     RDKit          3D

 37 39  0  0  0  0  0  0  0  0999 V2000
   55.8934   30.5492   43.6507 H   0  0  0  0  0  0  0  0  0  0  0  0
   56.6870   30.3780   44.3930 C   0  0  0  0  0  0  0  0  0  0  0  0
   57.4180   31.5590   44.9100 C   0  0  0  0  0  0  0  0  0  0  0  0
   57.5250   32.7000   44.1000 C   0  0  0  0  0  0  0  0  0  0  0  0
   57.0508   32.7112   43.1075 H   0  0  0  0  0  0  0  0  0  0  0  0
   58.2300   33.8230   44.5450 C   0  0  0  0  0  0  0  0  0  0  0  0
   58.3017   34.7138   43.9036 H   0  0  0  0  0  0  0  0  0  0  0  0
   58.8460   33.8190   45.8050 C   0  0  0  0  0  0  0  0  0  0  0  0
   59.6380   35.0070   46.2640 C   0  0  0  0  0  0  0  0  0  0  0  0
   59.6556   35.0333   47.3635 H   0  0  0  0  0  0  0  0  0  0  0  0
   60.6670   34.9313   45.8826 H   0  0  0  0  0  0  0  0  0  0  0  0
   59.1724   35.9277   45.8826 H   0  0  0  0  0  0  0  0  0  0  0  0
   58.7820   32.6630   46.5970 C   0  0  0  0  0  0  0  0  0  0  0  0
   59.2908   32.6391   47.5719 H   0  0  0  0  0  0  0  0  0  0  0  0
   58.0750   31.5410   46.1540 C   0  0  0  0  0  0  0  0  0  0  0  0
   58.0322   30.6388   46.7819 H   0  0  0  0  0  0  0  0  0  0  0  0
   56.9310   29.1070   44.7730 C   0  0  0  0  0  0  0  0  0  0  0  0
   55.9240   28.3250   45.2480 N   0  0  0  0  0  0  0  0  0  0  0  0
   56.1150   27.0360   45.6300 C   0  0  0  0  0  0  0  0  0  0  0  0
   55.1200   26.3670   46.0150 O   0  0  0  0  0  0  0  0  0  0  0  0
   57.4120   26.4740   45.5470 C   0  0  0  0  0  0  0  0  0  0  0  0
   57.7280   25.2120   45.9090 C   0  0  0  0  0  0  0  0  0  0  0  0
   58.1283   25.0692   46.9236 H   0  0  0  0  0  0  0  0  0  0  0  0
   57.5860   24.0060   45.0690 C   0  0  0  0  0  0  0  0  0  0  0  0
   58.5300   22.9670   45.1370 C   0  0  0  0  0  0  0  0  0  0  0  0
   59.3624   23.0275   45.8536 H   0  0  0  0  0  0  0  0  0  0  0  0
   58.4130   21.8560   44.2950 C   0  0  0  0  0  0  0  0  0  0  0  0
   59.1441   21.0368   44.3612 H   0  0  0  0  0  0  0  0  0  0  0  0
   57.3670   21.7860   43.3690 C   0  0  0  0  0  0  0  0  0  0  0  0
   57.2710   20.9082   42.7131 H   0  0  0  0  0  0  0  0  0  0  0  0
   56.4440   22.8310   43.2770 C   0  0  0  0  0  0  0  0  0  0  0  0
   55.6266   22.7788   42.5428 H   0  0  0  0  0  0  0  0  0  0  0  0
   56.5580   23.9430   44.1170 C   0  0  0  0  0  0  0  0  0  0  0  0
   55.8391   24.7711   44.0309 H   0  0  0  0  0  0  0  0  0  0  0  0
   58.4090   27.2500   45.0400 N   0  0  0  0  0  0  0  0  0  0  0  0
   58.2140   28.5360   44.6530 C   0  0  0  0  0  0  0  0  0  0  0  0
   59.1880   29.1950   44.1970 O   0  0  0  0  0  0  0  0  0  0  0  0
  1  2  1  0
  2  3  1  0
  3  4  2  0
  4  5  1  0
  4  6  1  0
  6  7  1  0
  6  8  2  0
  8  9  1  0
  9 10  1  0
  9 11  1  0
  9 12  1  0
  8 13  1  0
 13 14  1  0
 13 15  2  0
 15 16  1  0
  2 17  2  3
 17 18  1  0
 18 19  1  0
 19 20  2  0
 19 21  1  0
 21 22  2  0
 22 23  1  0
 22 24  1  0
 24 25  2  0
 25 26  1  0
 25 27  1  0
 27 28  1  0
 27 29  2  0
 29 30  1  0
 29 31  1  0
 31 32  1  0
 31 33  2  0
 33 34  1  0
 21 35  1  0
 35 36  1  0
 36 37  2  0
 15  3  1  0
 36 17  1  0
 33 24  1  0
M  CHG  2  18  -1  35  -1
M  END
>  <UniqueID>  (96) 
84

>  <SMILES>  (96) 
Cc1ccc(C=c2[n-]c(=O)/c(=C\c3ccccc3)[n-]c2=O)cc1

>  <Energy>  (96) 
60.43690166251623

>  <Genealogy>  (96) 
Cc1ccc(C=c2[n-]c(=O)c(=Cc3ccccc3)[n-]c2=O)cc1 (protonated)
Cc1ccc(C=c2[n-]c(=O)/c(=C\c3ccccc3)[n-]c2=O)cc1 (cis-trans isomerization)
Cc1ccc(C=c2[n-]c(=O)/c(=C\c3ccccc3)[n-]c2=O)cc1 (3D coordinates assigned)
Cc1ccc(C=c2[n-]c(=O)/c(=C\c3ccccc3)[n-]c2=O)cc1 (optimized conformer: 60.43690166251623 kcal/mol)

>  <smiles>  (96) 
Cc1ccc(C=c2[nH]c(=O)c(=Cc3ccccc3)[nH]c2=O)cc1

>  <score_type>  (96) 
oracle

>  <origin>  (96) 
adg

>  <m_score__min__energy>  (96) 
-11.630000000000001

>  <m_primary>  (96) 
energy

$$$$
96:0
     RDKit          3D

 40 41  0  0  0  0  0  0  0  0999 V2000
   54.6710   24.5120   47.1440 H   0  0  0  0  0  0  0  0  0  0  0  0
   55.6670   24.3250   47.1550 O   0  0  0  0  0  0  0  0  0  0  0  0
   56.5790   25.1960   46.5640 C   0  0  0  0  0  0  0  0  0  0  0  0
   57.9460   24.8830   46.5360 C   0  0  0  0  0  0  0  0  0  0  0  0
   58.3030   23.9431   46.9823 H   0  0  0  0  0  0  0  0  0  0  0  0
   58.8560   25.7630   45.9420 C   0  0  0  0  0  0  0  0  0  0  0  0
   59.9260   25.5089   45.9166 H   0  0  0  0  0  0  0  0  0  0  0  0
   58.4110   26.9690   45.3780 C   0  0  0  0  0  0  0  0  0  0  0  0
   59.3850   27.8930   44.7010 C   0  0  0  0  0  0  0  0  0  0  0  0
   59.2934   27.7832   43.6103 H   0  0  0  0  0  0  0  0  0  0  0  0
   60.4066   27.6356   45.0175 H   0  0  0  0  0  0  0  0  0  0  0  0
   59.0940   29.3170   45.0840 C   0  0  0  0  0  0  0  0  0  0  0  0
   58.2450   29.9830   44.3520 N   0  0  0  0  0  0  0  0  0  0  0  0
   57.3480   31.0280   44.7620 C   0  0  0  0  0  0  0  0  0  0  0  0
   56.1010   30.8290   44.7670 O   0  0  0  0  0  0  0  0  0  0  0  0
   57.8920   32.3140   45.2600 C   0  0  0  0  0  0  0  0  0  0  0  0
   58.5010   33.2250   44.3760 C   0  0  0  0  0  0  0  0  0  0  0  0
   58.5781   32.9803   43.3063 H   0  0  0  0  0  0  0  0  0  0  0  0
   59.0080   34.4380   44.8490 C   0  0  0  0  0  0  0  0  0  0  0  0
   59.4818   35.1439   44.1509 H   0  0  0  0  0  0  0  0  0  0  0  0
   58.9150   34.7570   46.2060 C   0  0  0  0  0  0  0  0  0  0  0  0
   59.3163   35.7120   46.5760 H   0  0  0  0  0  0  0  0  0  0  0  0
   58.3120   33.8620   47.0920 C   0  0  0  0  0  0  0  0  0  0  0  0
   58.2390   34.1132   48.1605 H   0  0  0  0  0  0  0  0  0  0  0  0
   57.8010   32.6480   46.6250 C   0  0  0  0  0  0  0  0  0  0  0  0
   57.3247   31.9489   47.3281 H   0  0  0  0  0  0  0  0  0  0  0  0
   59.6640   29.8420   46.3470 C   0  0  0  0  0  0  0  0  0  0  0  0
   60.8100   30.3700   46.3590 O   0  0  0  0  0  0  0  0  0  0  0  0
   58.8850   29.8250   47.5090 O   0  0  0  0  0  0  0  0  0  0  0  0
   59.3010   29.2060   48.7250 C   0  0  0  0  0  0  0  0  0  0  0  0
   58.4167   28.9971   49.3451 H   0  0  0  0  0  0  0  0  0  0  0  0
   59.9846   29.8869   49.2533 H   0  0  0  0  0  0  0  0  0  0  0  0
   60.0330   27.8990   48.4400 C   0  0  0  0  0  0  0  0  0  0  0  0
   60.3037   27.4156   49.3903 H   0  0  0  0  0  0  0  0  0  0  0  0
   59.3780   27.2304   47.8621 H   0  0  0  0  0  0  0  0  0  0  0  0
   60.9453   28.1082   47.8621 H   0  0  0  0  0  0  0  0  0  0  0  0
   57.0390   27.2720   45.3970 C   0  0  0  0  0  0  0  0  0  0  0  0
   56.6792   28.2067   44.9421 H   0  0  0  0  0  0  0  0  0  0  0  0
   56.1280   26.3920   45.9910 C   0  0  0  0  0  0  0  0  0  0  0  0
   54.7750   26.7080   46.0090 O   0  0  0  0  0  0  0  0  0  0  0  0
  1  2  1  0
  2  3  1  0
  3  4  2  0
  4  5  1  0
  4  6  1  0
  6  7  1  0
  6  8  2  0
  8  9  1  0
  9 10  1  0
  9 11  1  0
  9 12  1  0
 12 13  2  0
 13 14  1  0
 14 15  2  0
 14 16  1  0
 16 17  2  0
 17 18  1  0
 17 19  1  0
 19 20  1  0
 19 21  2  0
 21 22  1  0
 21 23  1  0
 23 24  1  0
 23 25  2  0
 25 26  1  0
 12 27  1  0
 27 28  2  0
 27 29  1  0
 29 30  1  0
 30 31  1  0
 30 32  1  0
 30 33  1  0
 33 34  1  0
 33 35  1  0
 33 36  1  0
  8 37  1  0
 37 38  1  0
 37 39  2  0
 39 40  1  0
 39  3  1  0
 25 16  1  0
M  CHG  1  40  -1
M  END
>  <UniqueID>  (97) 
85

>  <SMILES>  (97) 
CCOC(=O)/C(Cc1ccc(O)c([O-])c1)=N\C(=O)c1ccccc1

>  <Energy>  (97) 
42.3105377881171

>  <Genealogy>  (97) 
CCOC(=O)C(Cc1ccc(O)c([O-])c1)=NC(=O)c1ccccc1 (protonated)
CCOC(=O)/C(Cc1ccc(O)c([O-])c1)=N\C(=O)c1ccccc1 (cis-trans isomerization)
CCOC(=O)/C(Cc1ccc(O)c([O-])c1)=N\C(=O)c1ccccc1 (3D coordinates assigned)
CCOC(=O)/C(Cc1ccc(O)c([O-])c1)=N\C(=O)c1ccccc1 (optimized conformer: 42.3105377881171 kcal/mol)

>  <smiles>  (97) 
CCOC(=O)C(Cc1ccc(O)c(O)c1)=NC(=O)c1ccccc1

>  <score_type>  (97) 
oracle

>  <origin>  (97) 
adg

>  <m_score__min__energy>  (97) 
-11.73

>  <m_primary>  (97) 
energy

$$$$
