0:0
     RDKit          3D

 60 62  0  0  0  0  0  0  0  0999 V2000
   57.5640   23.5850   44.5810 C   0  0  0  0  0  0  0  0  0  0  0  0
   56.5800   24.7440   44.4930 C   0  0  0  0  0  0  0  0  0  0  0  0
   56.0290   25.2350   46.1180 S   0  0  0  0  0  0  0  0  0  0  0  0
   55.2260   26.5010   46.0060 O   0  0  0  0  0  0  0  0  0  0  0  0
   55.1670   24.1460   46.6900 O   0  0  0  0  0  0  0  0  0  0  0  0
   57.4170   25.4830   47.1370 N   0  0  0  0  0  0  0  0  0  0  0  0
   58.3380   26.4510   46.5390 C   0  0  0  0  0  0  0  0  0  0  0  0
   59.0040   27.2790   47.6050 C   0  0  0  0  0  0  0  0  0  0  0  0
   58.5770   28.5930   47.8450 C   0  0  0  0  0  0  0  0  0  0  0  0
   59.1870   29.3670   48.8370 C   0  0  0  0  0  0  0  0  0  0  0  0
   60.2430   28.8380   49.6050 C   0  0  0  0  0  0  0  0  0  0  0  0
   60.8900   29.6070   50.6360 N   0  0  0  0  0  0  0  0  0  0  0  0
   62.2390   30.1600   50.4980 C   0  0  0  0  0  0  0  0  0  0  0  0
   62.1910   31.5280   49.8720 C   0  0  0  0  0  0  0  0  0  0  0  0
   62.9380   32.5820   50.4170 C   0  0  0  0  0  0  0  0  0  0  0  0
   62.8510   33.8620   49.8670 C   0  0  0  0  0  0  0  0  0  0  0  0
   62.0120   34.1020   48.7760 C   0  0  0  0  0  0  0  0  0  0  0  0
   61.2510   33.0610   48.2180 C   0  0  0  0  0  0  0  0  0  0  0  0
   60.3460   33.3310   47.0770 C   0  0  0  0  0  0  0  0  0  0  0  0
   60.8180   33.3740   45.9080 O   0  0  0  0  0  0  0  0  0  0  0  0
   58.9380   33.5330   47.2800 N   0  0  0  0  0  0  0  0  0  0  0  0
   58.0750   34.1020   46.2480 C   0  0  0  0  0  0  0  0  0  0  0  0
   57.8890   33.1130   45.1300 C   0  0  0  0  0  0  0  0  0  0  0  0
   58.2400   33.4660   43.8190 C   0  0  0  0  0  0  0  0  0  0  0  0
   58.1020   32.5420   42.7820 C   0  0  0  0  0  0  0  0  0  0  0  0
   57.6200   31.2580   43.0430 C   0  0  0  0  0  0  0  0  0  0  0  0
   57.2720   30.8800   44.3530 C   0  0  0  0  0  0  0  0  0  0  0  0
   56.7690   29.5130   44.6310 C   0  0  0  0  0  0  0  0  0  0  0  0
   55.4080   29.3020   45.0010 N   0  0  0  0  0  0  0  0  0  0  0  0
   57.5420   28.5210   44.5430 O   0  0  0  0  0  0  0  0  0  0  0  0
   57.4120   31.8180   45.3930 C   0  0  0  0  0  0  0  0  0  0  0  0
   61.3370   31.7750   48.7850 C   0  0  0  0  0  0  0  0  0  0  0  0
   60.6710   27.5250   49.3560 C   0  0  0  0  0  0  0  0  0  0  0  0
   60.0590   26.7510   48.3640 C   0  0  0  0  0  0  0  0  0  0  0  0
   57.7621   23.3516   45.6375 H   0  0  0  0  0  0  0  0  0  0  0  0
   57.1356   22.7018   44.0845 H   0  0  0  0  0  0  0  0  0  0  0  0
   58.5050   23.8644   44.0845 H   0  0  0  0  0  0  0  0  0  0  0  0
   57.0725   25.5986   44.0060 H   0  0  0  0  0  0  0  0  0  0  0  0
   55.7064   24.4202   43.9082 H   0  0  0  0  0  0  0  0  0  0  0  0
   59.1075   25.9118   45.9670 H   0  0  0  0  0  0  0  0  0  0  0  0
   57.7683   27.1189   45.8762 H   0  0  0  0  0  0  0  0  0  0  0  0
   57.7562   29.0179   47.2485 H   0  0  0  0  0  0  0  0  0  0  0  0
   58.8403   30.3950   49.0188 H   0  0  0  0  0  0  0  0  0  0  0  0
   60.3620   29.7830   51.5220 H   0  0  0  0  0  0  0  0  0  0  0  0
   62.7025   30.2340   51.4928 H   0  0  0  0  0  0  0  0  0  0  0  0
   62.8296   29.4951   49.8507 H   0  0  0  0  0  0  0  0  0  0  0  0
   63.5945   32.3997   51.2805 H   0  0  0  0  0  0  0  0  0  0  0  0
   63.4446   34.6839   50.2937 H   0  0  0  0  0  0  0  0  0  0  0  0
   61.9467   35.1142   48.3504 H   0  0  0  0  0  0  0  0  0  0  0  0
   58.4970   33.2440   48.1820 H   0  0  0  0  0  0  0  0  0  0  0  0
   57.0956   34.3455   46.6857 H   0  0  0  0  0  0  0  0  0  0  0  0
   58.5425   35.0143   45.8490 H   0  0  0  0  0  0  0  0  0  0  0  0
   58.6253   34.4743   43.6072 H   0  0  0  0  0  0  0  0  0  0  0  0
   58.3741   32.8266   41.7549 H   0  0  0  0  0  0  0  0  0  0  0  0
   57.5116   30.5371   42.2192 H   0  0  0  0  0  0  0  0  0  0  0  0
   55.1530   28.6120   45.7420 H   0  0  0  0  0  0  0  0  0  0  0  0
   57.1453   31.5343   46.4218 H   0  0  0  0  0  0  0  0  0  0  0  0
   60.7294   30.9560   48.3725 H   0  0  0  0  0  0  0  0  0  0  0  0
   61.4959   27.1000   49.9466 H   0  0  0  0  0  0  0  0  0  0  0  0
   60.4066   25.7240   48.1785 H   0  0  0  0  0  0  0  0  0  0  0  0
  1  2  1  0
  2  3  1  0
  3  4  2  0
  3  5  2  0
  3  6  1  0
  6  7  1  0
  7  8  1  0
  8  9  2  0
  9 10  1  0
 10 11  2  0
 11 12  1  0
 12 13  1  0
 13 14  1  0
 14 15  2  0
 15 16  1  0
 16 17  2  0
 17 18  1  0
 18 19  1  0
 19 20  2  0
 19 21  1  0
 21 22  1  0
 22 23  1  0
 23 24  2  0
 24 25  1  0
 25 26  2  0
 26 27  1  0
 27 28  1  0
 28 29  1  0
 28 30  2  0
 27 31  2  0
 18 32  2  0
 11 33  1  0
 33 34  2  0
 34  8  1  0
 32 14  1  0
 31 23  1  0
  1 35  1  0
  1 36  1  0
  1 37  1  0
  2 38  1  0
  2 39  1  0
  7 40  1  0
  7 41  1  0
  9 42  1  0
 10 43  1  0
 12 44  1  0
 13 45  1  0
 13 46  1  0
 15 47  1  0
 16 48  1  0
 17 49  1  0
 21 50  1  0
 22 51  1  0
 22 52  1  0
 24 53  1  0
 25 54  1  0
 26 55  1  0
 29 56  1  0
 31 57  1  0
 32 58  1  0
 33 59  1  0
 34 60  1  0
M  CHG  2   6  -1  29  -1
M  END
>  <UniqueID>  (1) 
1

>  <SMILES>  (1) 
CCS(=O)(=O)[N-]Cc1ccc(NCc2cccc(C(=O)NCc3cccc(C([NH-])=O)c3)c2)cc1

>  <Energy>  (1) 
52.80496885137522

>  <Genealogy>  (1) 
CCS(=O)(=O)[N-]Cc1ccc(NCc2cccc(C(=O)NCc3cccc(C([NH-])=O)c3)c2)cc1 (protonated)
CCS(=O)(=O)[N-]Cc1ccc(NCc2cccc(C(=O)NCc3cccc(C([NH-])=O)c3)c2)cc1 (3D coordinates assigned)
CCS(=O)(=O)[N-]Cc1ccc(NCc2cccc(C(=O)NCc3cccc(C([NH-])=O)c3)c2)cc1 (optimized conformer: 52.80496885137522 kcal/mol)

>  <smiles>  (1) 
CCS(=O)(=O)NCc1ccc(NCc2cccc(C(=O)NCc3cccc(C(N)=O)c3)c2)cc1

>  <score_type>  (1) 
oracle

>  <origin>  (1) 
adg

>  <m_score__min__energy>  (1) 
-16.399999999999999

>  <m_primary>  (1) 
energy

$$$$
1:0
     RDKit          3D

 66 68  0  0  0  0  0  0  0  0999 V2000
   58.7930   30.9620   50.5310 C   0  0  0  0  0  0  0  0  0  0  0  0
   59.1320   31.4640   49.1950 N   0  0  0  0  0  0  0  0  0  0  0  0
   59.1960   30.3730   48.2140 C   0  0  0  0  0  0  0  0  0  0  0  0
   59.3210   29.0180   48.9230 C   0  0  0  0  0  0  0  0  0  0  0  0
   60.6650   28.3470   48.6310 C   0  0  0  0  0  0  0  0  0  0  0  0
   60.4630   26.9690   47.4390 S   0  0  0  0  0  0  0  0  0  0  0  0
   59.3390   27.8550   46.3550 C   0  0  0  0  0  0  0  0  0  0  0  0
   59.8300   28.8430   45.4940 C   0  0  0  0  0  0  0  0  0  0  0  0
   58.9580   29.5330   44.6470 C   0  0  0  0  0  0  0  0  0  0  0  0
   57.5870   29.2360   44.6560 C   0  0  0  0  0  0  0  0  0  0  0  0
   56.4810   30.0990   43.5930 S   0  0  0  0  0  0  0  0  0  0  0  0
   55.1350   30.1800   44.2580 O   0  0  0  0  0  0  0  0  0  0  0  0
   56.3360   29.3700   42.2860 O   0  0  0  0  0  0  0  0  0  0  0  0
   57.0530   31.7080   43.2790 N   0  0  0  0  0  0  0  0  0  0  0  0
   57.6580   32.5600   44.2690 C   0  0  0  0  0  0  0  0  0  0  0  0
   58.7440   33.3690   43.9020 C   0  0  0  0  0  0  0  0  0  0  0  0
   59.3490   34.2160   44.8330 C   0  0  0  0  0  0  0  0  0  0  0  0
   58.8710   34.2760   46.1500 C   0  0  0  0  0  0  0  0  0  0  0  0
   59.4720   35.2410   47.1390 C   0  0  0  0  0  0  0  0  0  0  0  0
   59.8750   34.5350   48.4370 C   0  0  0  0  0  0  0  0  0  0  0  0
   60.9610   33.5730   48.1810 N   0  0  0  0  0  0  0  0  0  0  0  0
   62.0210   33.6050   49.2030 C   0  0  0  0  0  0  0  0  0  0  0  0
   62.4170   32.1930   49.7060 C   0  0  1  0  0  0  0  0  0  0  0  0
   62.0580   31.1880   48.7880 O   0  0  0  0  0  0  0  0  0  0  0  0
   63.8980   32.1460   50.0380 C   0  0  0  0  0  0  0  0  0  0  0  0
   64.4490   31.1710   50.8890 C   0  0  0  0  0  0  0  0  0  0  0  0
   65.8230   31.1550   51.1420 C   0  0  0  0  0  0  0  0  0  0  0  0
   66.6430   32.1040   50.5320 C   0  0  0  0  0  0  0  0  0  0  0  0
   66.1040   33.0290   49.6970 N   0  0  0  0  0  0  0  0  0  0  0  0
   64.7700   33.0710   49.4380 C   0  0  0  0  0  0  0  0  0  0  0  0
   57.7790   33.4770   46.5210 C   0  0  0  0  0  0  0  0  0  0  0  0
   57.1830   32.6180   45.5930 C   0  0  0  0  0  0  0  0  0  0  0  0
   57.0970   28.2510   45.5240 C   0  0  0  0  0  0  0  0  0  0  0  0
   57.9710   27.5630   46.3720 C   0  0  0  0  0  0  0  0  0  0  0  0
   59.2369   31.6193   51.2932 H   0  0  0  0  0  0  0  0  0  0  0  0
   57.6996   30.9478   50.6508 H   0  0  0  0  0  0  0  0  0  0  0  0
   59.1883   29.9425   50.6508 H   0  0  0  0  0  0  0  0  0  0  0  0
   60.0860   31.8900   49.2640 H   0  0  0  0  0  0  0  0  0  0  0  0
   58.2798   30.3796   47.6052 H   0  0  0  0  0  0  0  0  0  0  0  0
   60.0782   30.5219   47.5741 H   0  0  0  0  0  0  0  0  0  0  0  0
   59.2288   29.1738   50.0080 H   0  0  0  0  0  0  0  0  0  0  0  0
   58.5219   28.3610   48.5492 H   0  0  0  0  0  0  0  0  0  0  0  0
   61.3547   29.0917   48.2071 H   0  0  0  0  0  0  0  0  0  0  0  0
   61.0673   27.9421   49.5713 H   0  0  0  0  0  0  0  0  0  0  0  0
   60.9047   29.0772   45.4838 H   0  0  0  0  0  0  0  0  0  0  0  0
   59.3473   30.3099   43.9725 H   0  0  0  0  0  0  0  0  0  0  0  0
   56.9540   32.0600   42.2990 H   0  0  0  0  0  0  0  0  0  0  0  0
   59.1229   33.3357   42.8699 H   0  0  0  0  0  0  0  0  0  0  0  0
   60.2042   34.8388   44.5320 H   0  0  0  0  0  0  0  0  0  0  0  0
   60.3644   35.7026   46.6911 H   0  0  0  0  0  0  0  0  0  0  0  0
   58.7167   36.0033   47.3805 H   0  0  0  0  0  0  0  0  0  0  0  0
   60.2183   35.2840   49.1658 H   0  0  0  0  0  0  0  0  0  0  0  0
   59.0040   33.9933   48.8345 H   0  0  0  0  0  0  0  0  0  0  0  0
   60.5690   32.6080   48.1010 H   0  0  0  0  0  0  0  0  0  0  0  0
   62.9109   34.0859   48.7708 H   0  0  0  0  0  0  0  0  0  0  0  0
   61.6311   34.1653   50.0656 H   0  0  0  0  0  0  0  0  0  0  0  0
   61.8516   31.9913   50.6278 H   0  0  0  0  0  0  0  0  0  0  0  0
   61.1890   31.4390   48.3800 H   0  0  0  0  0  0  0  0  0  0  0  0
   63.7964   30.4190   51.3566 H   0  0  0  0  0  0  0  0  0  0  0  0
   66.2542   30.4005   51.8164 H   0  0  0  0  0  0  0  0  0  0  0  0
   67.7255   32.1031   50.7272 H   0  0  0  0  0  0  0  0  0  0  0  0
   64.3702   33.8342   48.7541 H   0  0  0  0  0  0  0  0  0  0  0  0
   57.3894   33.5268   47.5485 H   0  0  0  0  0  0  0  0  0  0  0  0
   56.3380   31.9837   45.8991 H   0  0  0  0  0  0  0  0  0  0  0  0
   56.0220   28.0182   45.5385 H   0  0  0  0  0  0  0  0  0  0  0  0
   57.5823   26.7915   47.0530 H   0  0  0  0  0  0  0  0  0  0  0  0
  1  2  1  0
  2  3  1  0
  3  4  1  0
  4  5  1  0
  5  6  1  0
  6  7  1  0
  7  8  2  0
  8  9  1  0
  9 10  2  0
 10 11  1  0
 11 12  2  0
 11 13  2  0
 11 14  1  0
 14 15  1  0
 15 16  2  0
 16 17  1  0
 17 18  2  0
 18 19  1  0
 19 20  1  0
 20 21  1  0
 21 22  1  0
 22 23  1  0
 23 24  1  0
 23 25  1  0
 25 26  2  0
 26 27  1  0
 27 28  2  0
 28 29  1  0
 29 30  2  0
 18 31  1  0
 31 32  2  0
 10 33  1  0
 33 34  2  0
 34  7  1  0
 32 15  1  0
 30 25  1  0
  1 35  1  0
  1 36  1  0
  1 37  1  0
  2 38  1  0
  3 39  1  0
  3 40  1  0
  4 41  1  0
  4 42  1  0
  5 43  1  0
  5 44  1  0
  8 45  1  0
  9 46  1  0
 14 47  1  0
 16 48  1  0
 17 49  1  0
 19 50  1  0
 19 51  1  0
 20 52  1  0
 20 53  1  0
 21 54  1  0
 22 55  1  0
 22 56  1  0
 23 57  1  1
 24 58  1  0
 26 59  1  0
 27 60  1  0
 28 61  1  0
 30 62  1  0
 31 63  1  0
 32 64  1  0
 33 65  1  0
 34 66  1  0
M  END
>  <UniqueID>  (2) 
2

>  <SMILES>  (2) 
CNCCCSc1ccc(S(=O)(=O)Nc2ccc(CCNC[C@@H](O)c3cccnc3)cc2)cc1

>  <Energy>  (2) 
60.11735405657858

>  <Genealogy>  (2) 
CNCCCSc1ccc(S(=O)(=O)Nc2ccc(CCNC[C@@H](O)c3cccnc3)cc2)cc1 (chirality)
CNCCCSc1ccc(S(=O)(=O)Nc2ccc(CCNC[C@@H](O)c3cccnc3)cc2)cc1 (3D coordinates assigned)
CNCCCSc1ccc(S(=O)(=O)Nc2ccc(CCNC[C@@H](O)c3cccnc3)cc2)cc1 (optimized conformer: 60.11735405657858 kcal/mol)

>  <smiles>  (2) 
CNCCCSc1ccc(S(=O)(=O)Nc2ccc(CCNCC(O)c3cccnc3)cc2)cc1

>  <score_type>  (2) 
oracle

>  <origin>  (2) 
adg

>  <m_score__min__energy>  (2) 
-9

>  <m_primary>  (2) 
energy

$$$$
2:0
     RDKit          3D

 37 39  0  0  0  0  0  0  0  0999 V2000
   60.6500   31.2920   48.5680 C   0  0  0  0  0  0  0  0  0  0  0  0
   59.7480   32.0380   47.6300 C   0  0  0  0  0  0  0  0  0  0  0  0
   59.5220   33.4070   47.8090 C   0  0  0  0  0  0  0  0  0  0  0  0
   58.6500   34.0930   46.9620 C   0  0  0  0  0  0  0  0  0  0  0  0
   57.9780   33.4210   45.9270 C   0  0  0  0  0  0  0  0  0  0  0  0
   57.0510   34.2040   45.0360 C   0  0  0  0  0  0  0  0  0  0  0  0
   58.2150   32.0370   45.7320 C   0  0  0  0  0  0  0  0  0  0  0  0
   57.4320   31.1260   44.4280 S   0  0  0  0  0  0  0  0  0  0  0  0
   56.0450   30.7490   44.8660 O   0  0  0  0  0  0  0  0  0  0  0  0
   57.3440   31.9490   43.1740 O   0  0  0  0  0  0  0  0  0  0  0  0
   58.3170   29.6740   44.0730 N   0  0  0  0  0  0  0  0  0  0  0  0
   58.2640   28.4770   44.8720 C   0  0  0  0  0  0  0  0  0  0  0  0
   59.4430   28.0140   45.4840 C   0  0  0  0  0  0  0  0  0  0  0  0
   59.4370   26.8480   46.2550 C   0  0  0  0  0  0  0  0  0  0  0  0
   58.2510   26.1290   46.4220 C   0  0  0  0  0  0  0  0  0  0  0  0
   58.2290   24.9910   47.1650 N   0  0  0  0  0  0  0  0  0  0  0  0
   57.0810   24.2820   47.3330 C   0  0  0  0  0  0  0  0  0  0  0  0
   57.0890   23.2320   48.0270 O   0  0  0  0  0  0  0  0  0  0  0  0
   55.8980   24.7320   46.7280 C   0  0  0  0  0  0  0  0  0  0  0  0
   54.8210   24.0940   46.8670 O   0  0  0  0  0  0  0  0  0  0  0  0
   55.9180   25.8690   45.9830 N   0  0  0  0  0  0  0  0  0  0  0  0
   57.0640   26.5810   45.8150 C   0  0  0  0  0  0  0  0  0  0  0  0
   57.0700   27.7490   45.0450 C   0  0  0  0  0  0  0  0  0  0  0  0
   59.0780   31.3560   46.6060 C   0  0  0  0  0  0  0  0  0  0  0  0
   60.3707   31.5230   49.6066 H   0  0  0  0  0  0  0  0  0  0  0  0
   60.5480   30.2109   48.3926 H   0  0  0  0  0  0  0  0  0  0  0  0
   61.6928   31.5951   48.3926 H   0  0  0  0  0  0  0  0  0  0  0  0
   60.0336   33.9450   48.6206 H   0  0  0  0  0  0  0  0  0  0  0  0
   58.4871   35.1713   47.1063 H   0  0  0  0  0  0  0  0  0  0  0  0
   56.3563   34.7908   45.6549 H   0  0  0  0  0  0  0  0  0  0  0  0
   57.6392   34.8828   44.4010 H   0  0  0  0  0  0  0  0  0  0  0  0
   56.4801   33.5105   44.4010 H   0  0  0  0  0  0  0  0  0  0  0  0
   58.9200   29.6870   43.2190 H   0  0  0  0  0  0  0  0  0  0  0  0
   60.3799   28.5756   45.3544 H   0  0  0  0  0  0  0  0  0  0  0  0
   60.3652   26.4970   46.7297 H   0  0  0  0  0  0  0  0  0  0  0  0
   56.1403   28.1000   44.5734 H   0  0  0  0  0  0  0  0  0  0  0  0
   59.2298   30.2733   46.4850 H   0  0  0  0  0  0  0  0  0  0  0  0
  1  2  1  0
  2  3  2  0
  3  4  1  0
  4  5  2  0
  5  6  1  0
  5  7  1  0
  7  8  1  0
  8  9  2  0
  8 10  2  0
  8 11  1  0
 11 12  1  0
 12 13  2  0
 13 14  1  0
 14 15  2  0
 15 16  1  0
 16 17  1  0
 17 18  2  0
 17 19  1  0
 19 20  2  0
 19 21  1  0
 21 22  1  0
 22 23  2  0
  7 24  2  0
 24  2  1  0
 23 12  1  0
 22 15  1  0
  1 25  1  0
  1 26  1  0
  1 27  1  0
  3 28  1  0
  4 29  1  0
  6 30  1  0
  6 31  1  0
  6 32  1  0
 11 33  1  0
 13 34  1  0
 14 35  1  0
 23 36  1  0
 24 37  1  0
M  CHG  2  16  -1  21  -1
M  END
>  <UniqueID>  (3) 
3

>  <SMILES>  (3) 
Cc1ccc(C)c(S(=O)(=O)Nc2ccc3[n-]c(=O)c(=O)[n-]c3c2)c1

>  <Energy>  (3) 
47.4926795402647

>  <Genealogy>  (3) 
Cc1ccc(C)c(S(=O)(=O)Nc2ccc3[n-]c(=O)c(=O)[n-]c3c2)c1 (protonated)
Cc1ccc(C)c(S(=O)(=O)Nc2ccc3[n-]c(=O)c(=O)[n-]c3c2)c1 (3D coordinates assigned)
Cc1ccc(C)c(S(=O)(=O)Nc2ccc3[n-]c(=O)c(=O)[n-]c3c2)c1 (optimized conformer: 47.4926795402647 kcal/mol)

>  <smiles>  (3) 
Cc1ccc(C)c(S(=O)(=O)Nc2ccc3[nH]c(=O)c(=O)[nH]c3c2)c1

>  <score_type>  (3) 
oracle

>  <origin>  (3) 
adg

>  <m_score__min__energy>  (3) 
-12.119999999999999

>  <m_primary>  (3) 
energy

$$$$
3:0
     RDKit          3D

 37 39  0  0  0  0  0  0  0  0999 V2000
   57.7380   26.2400   44.4160 C   0  0  0  0  0  0  0  0  0  0  0  0
   56.6410   26.7980   45.7040 S   0  0  0  0  0  0  0  0  0  0  0  0
   55.5850   25.7640   45.9790 O   0  0  0  0  0  0  0  0  0  0  0  0
   57.4430   27.0160   46.9550 O   0  0  0  0  0  0  0  0  0  0  0  0
   55.9010   28.2990   45.2500 N   0  0  0  0  0  0  0  0  0  0  0  0
   56.5500   29.4010   44.5950 C   0  0  0  0  0  0  0  0  0  0  0  0
   56.2110   29.7780   43.2810 C   0  0  0  0  0  0  0  0  0  0  0  0
   56.8590   30.8470   42.6570 C   0  0  0  0  0  0  0  0  0  0  0  0
   57.8520   31.5570   43.3300 C   0  0  0  0  0  0  0  0  0  0  0  0
   58.2010   31.2070   44.6360 C   0  0  0  0  0  0  0  0  0  0  0  0
   59.1660   31.9080   45.2870 N   0  0  0  0  0  0  0  0  0  0  0  0
   59.5500   31.6200   46.5620 C   0  0  0  0  0  0  0  0  0  0  0  0
   60.5820   32.4130   47.1920 N   0  0  0  0  0  0  0  0  0  0  0  0
   60.3420   33.8140   47.5650 C   0  0  0  0  0  0  0  0  0  0  0  0
   61.2740   34.2330   48.7050 C   0  0  0  0  0  0  0  0  0  0  0  0
   62.6170   33.9120   48.4040 O   0  0  0  0  0  0  0  0  0  0  0  0
   62.7620   32.5090   48.3370 C   0  0  0  0  0  0  0  0  0  0  0  0
   61.9720   31.9370   47.1570 C   0  0  0  0  0  0  0  0  0  0  0  0
   58.9210   30.5580   47.2380 C   0  0  0  0  0  0  0  0  0  0  0  0
   57.9290   29.8150   46.5950 C   0  0  0  0  0  0  0  0  0  0  0  0
   57.5520   30.1280   45.2780 C   0  0  0  0  0  0  0  0  0  0  0  0
   58.6321   25.7852   44.8674 H   0  0  0  0  0  0  0  0  0  0  0  0
   57.2224   25.4946   43.7927 H   0  0  0  0  0  0  0  0  0  0  0  0
   58.0368   27.0957   43.7927 H   0  0  0  0  0  0  0  0  0  0  0  0
   55.4283   29.2253   42.7407 H   0  0  0  0  0  0  0  0  0  0  0  0
   56.5843   31.1296   41.6300 H   0  0  0  0  0  0  0  0  0  0  0  0
   58.3617   32.3946   42.8313 H   0  0  0  0  0  0  0  0  0  0  0  0
   60.5259   34.4575   46.6921 H   0  0  0  0  0  0  0  0  0  0  0  0
   59.2998   33.9190   47.9009 H   0  0  0  0  0  0  0  0  0  0  0  0
   61.1892   35.3189   48.8585 H   0  0  0  0  0  0  0  0  0  0  0  0
   60.9795   33.6914   49.6160 H   0  0  0  0  0  0  0  0  0  0  0  0
   63.8266   32.2620   48.2120 H   0  0  0  0  0  0  0  0  0  0  0  0
   62.3738   32.0694   49.2676 H   0  0  0  0  0  0  0  0  0  0  0  0
   62.4418   32.2592   46.2160 H   0  0  0  0  0  0  0  0  0  0  0  0
   61.9749   30.8391   47.2244 H   0  0  0  0  0  0  0  0  0  0  0  0
   59.2103   30.3137   48.2708 H   0  0  0  0  0  0  0  0  0  0  0  0
   57.4408   28.9816   47.1213 H   0  0  0  0  0  0  0  0  0  0  0  0
  1  2  1  0
  2  3  2  0
  2  4  2  0
  2  5  1  0
  5  6  1  0
  6  7  2  0
  7  8  1  0
  8  9  2  0
  9 10  1  0
 10 11  2  0
 11 12  1  0
 12 13  1  0
 13 14  1  0
 14 15  1  0
 15 16  1  0
 16 17  1  0
 17 18  1  0
 12 19  2  0
 19 20  1  0
 20 21  2  0
 21  6  1  0
 21 10  1  0
 18 13  1  0
  1 22  1  0
  1 23  1  0
  1 24  1  0
  7 25  1  0
  8 26  1  0
  9 27  1  0
 14 28  1  0
 14 29  1  0
 15 30  1  0
 15 31  1  0
 17 32  1  0
 17 33  1  0
 18 34  1  0
 18 35  1  0
 19 36  1  0
 20 37  1  0
M  CHG  1   5  -1
M  END
>  <UniqueID>  (4) 
4

>  <SMILES>  (4) 
CS(=O)(=O)[N-]c1cccc2nc(N3CCOCC3)ccc12

>  <Energy>  (4) 
45.74257674300528

>  <Genealogy>  (4) 
CS(=O)(=O)[N-]c1cccc2nc(N3CCOCC3)ccc12 (protonated)
CS(=O)(=O)[N-]c1cccc2nc(N3CCOCC3)ccc12 (3D coordinates assigned)
CS(=O)(=O)[N-]c1cccc2nc(N3CCOCC3)ccc12 (nonaromatic ring conformer: 45.74257674300528 kcal/mol)

>  <smiles>  (4) 
CS(=O)(=O)Nc1cccc2nc(N3CCOCC3)ccc12

>  <score_type>  (4) 
oracle

>  <origin>  (4) 
adg

>  <m_score__min__energy>  (4) 
-9.1500000000000004

>  <m_primary>  (4) 
energy

$$$$
4:0
     RDKit          3D

 65 67  0  0  0  0  0  0  0  0999 V2000
   56.2300   20.0640   44.5520 C   0  0  0  0  0  0  0  0  0  0  0  0
   56.0870   20.8820   43.4090 O   0  0  0  0  0  0  0  0  0  0  0  0
   57.0180   21.9510   43.4430 C   0  0  0  0  0  0  0  0  0  0  0  0
   56.3540   23.2490   42.9900 C   0  0  0  0  0  0  0  0  0  0  0  0
   55.6770   23.8820   44.1180 N   0  0  0  0  0  0  0  0  0  0  0  0
   56.2030   24.8140   44.8560 C   0  0  0  0  0  0  0  0  0  0  0  0
   57.4130   25.3280   44.5180 N   0  0  0  0  0  0  0  0  0  0  0  0
   57.9920   26.3090   45.2570 C   0  0  0  0  0  0  0  0  0  0  0  0
   57.3340   26.8230   46.3790 C   0  0  0  0  0  0  0  0  0  0  0  0
   57.9560   27.8540   47.1650 N   0  0  0  0  0  0  0  0  0  0  0  0
   59.1570   27.6590   47.9320 C   0  0  0  0  0  0  0  0  0  0  0  0
   59.5250   26.4910   48.2370 O   0  0  0  0  0  0  0  0  0  0  0  0
   59.9330   28.8210   48.4260 C   0  0  0  0  0  0  0  0  0  0  0  0
   60.9700   29.3650   47.6480 C   0  0  0  0  0  0  0  0  0  0  0  0
   61.7200   30.4440   48.1200 C   0  0  0  0  0  0  0  0  0  0  0  0
   61.4560   30.9970   49.3780 C   0  0  0  0  0  0  0  0  0  0  0  0
   62.2580   32.1000   49.8260 N   0  0  0  0  0  0  0  0  0  0  0  0
   62.1680   33.4610   49.3840 C   0  0  0  0  0  0  0  0  0  0  0  0
   62.9330   34.3450   49.8620 O   0  0  0  0  0  0  0  0  0  0  0  0
   61.2030   33.8260   48.3200 C   0  0  0  0  0  0  0  0  0  0  0  0
   61.6200   33.9010   46.9660 C   0  0  0  0  0  0  0  0  0  0  0  0
   63.0450   33.6280   46.5540 C   0  0  0  0  0  0  0  0  0  0  0  0
   60.6900   34.2420   45.9720 C   0  0  0  0  0  0  0  0  0  0  0  0
   59.3670   34.5460   46.2960 C   0  0  0  0  0  0  0  0  0  0  0  0
   58.4980   34.9040   45.2560 O   0  0  0  0  0  0  0  0  0  0  0  0
   57.5280   34.0370   44.6720 C   0  0  0  0  0  0  0  0  0  0  0  0
   57.1870   32.9150   45.6470 C   0  0  0  0  0  0  0  0  0  0  0  0
   56.9960   31.7030   44.9420 O   0  0  0  0  0  0  0  0  0  0  0  0
   58.1880   30.9520   44.9130 C   0  0  0  0  0  0  0  0  0  0  0  0
   58.9550   34.4880   47.6360 C   0  0  0  0  0  0  0  0  0  0  0  0
   59.8540   34.1160   48.6490 C   0  0  0  0  0  0  0  0  0  0  0  0
   59.3520   34.0480   50.0710 C   0  0  0  0  0  0  0  0  0  0  0  0
   60.3890   30.4910   50.1400 C   0  0  0  0  0  0  0  0  0  0  0  0
   59.6390   29.4080   49.6700 C   0  0  0  0  0  0  0  0  0  0  0  0
   56.0950   26.2650   46.7260 C   0  0  0  0  0  0  0  0  0  0  0  0
   55.5570   25.2820   45.9610 N   0  0  0  0  0  0  0  0  0  0  0  0
   56.1226   20.6782   45.4582 H   0  0  0  0  0  0  0  0  0  0  0  0
   55.4546   19.2838   44.5439 H   0  0  0  0  0  0  0  0  0  0  0  0
   57.2241   19.5931   44.5439 H   0  0  0  0  0  0  0  0  0  0  0  0
   57.3913   22.0741   44.4704 H   0  0  0  0  0  0  0  0  0  0  0  0
   57.8515   21.7203   42.7633 H   0  0  0  0  0  0  0  0  0  0  0  0
   57.1205   23.9320   42.5949 H   0  0  0  0  0  0  0  0  0  0  0  0
   55.6164   23.0234   42.2058 H   0  0  0  0  0  0  0  0  0  0  0  0
   58.9801   26.7000   44.9728 H   0  0  0  0  0  0  0  0  0  0  0  0
   57.4320   28.7470   47.2950 H   0  0  0  0  0  0  0  0  0  0  0  0
   61.1923   28.9371   46.6593 H   0  0  0  0  0  0  0  0  0  0  0  0
   62.5248   30.8627   47.4980 H   0  0  0  0  0  0  0  0  0  0  0  0
   63.6696   33.5083   47.4515 H   0  0  0  0  0  0  0  0  0  0  0  0
   63.0833   32.7062   45.9550 H   0  0  0  0  0  0  0  0  0  0  0  0
   63.4213   34.4704   45.9550 H   0  0  0  0  0  0  0  0  0  0  0  0
   61.0092   34.2702   44.9197 H   0  0  0  0  0  0  0  0  0  0  0  0
   56.6177   34.6098   44.4411 H   0  0  0  0  0  0  0  0  0  0  0  0
   57.9369   33.6038   43.7472 H   0  0  0  0  0  0  0  0  0  0  0  0
   58.0116   32.7929   46.3648 H   0  0  0  0  0  0  0  0  0  0  0  0
   56.2610   33.1710   46.1828 H   0  0  0  0  0  0  0  0  0  0  0  0
   58.5162   30.7452   45.9423 H   0  0  0  0  0  0  0  0  0  0  0  0
   58.0104   30.0024   44.3870 H   0  0  0  0  0  0  0  0  0  0  0  0
   58.9679   31.5222   44.3870 H   0  0  0  0  0  0  0  0  0  0  0  0
   57.9156   34.7368   47.8963 H   0  0  0  0  0  0  0  0  0  0  0  0
   60.1982   34.1626   50.7644 H   0  0  0  0  0  0  0  0  0  0  0  0
   58.6254   34.8559   50.2424 H   0  0  0  0  0  0  0  0  0  0  0  0
   58.8666   33.0759   50.2424 H   0  0  0  0  0  0  0  0  0  0  0  0
   60.1428   30.9484   51.1096 H   0  0  0  0  0  0  0  0  0  0  0  0
   58.8124   29.0120   50.2782 H   0  0  0  0  0  0  0  0  0  0  0  0
   55.5599   26.6239   47.6175 H   0  0  0  0  0  0  0  0  0  0  0  0
  1  2  1  0
  2  3  1  0
  3  4  1  0
  4  5  1  0
  5  6  2  3
  6  7  1  0
  7  8  2  0
  8  9  1  0
  9 10  1  0
 10 11  1  0
 11 12  2  0
 11 13  1  0
 13 14  2  0
 14 15  1  0
 15 16  2  0
 16 17  1  0
 17 18  1  0
 18 19  2  0
 18 20  1  0
 20 21  2  0
 21 22  1  0
 21 23  1  0
 23 24  2  0
 24 25  1  0
 25 26  1  0
 26 27  1  0
 27 28  1  0
 28 29  1  0
 24 30  1  0
 30 31  2  0
 31 32  1  0
 16 33  1  0
 33 34  2  0
  9 35  2  0
 35 36  1  0
 36  6  1  0
 34 13  1  0
 31 20  1  0
  1 37  1  0
  1 38  1  0
  1 39  1  0
  3 40  1  0
  3 41  1  0
  4 42  1  0
  4 43  1  0
  8 44  1  0
 10 45  1  0
 14 46  1  0
 15 47  1  0
 22 48  1  0
 22 49  1  0
 22 50  1  0
 23 51  1  0
 26 52  1  0
 26 53  1  0
 27 54  1  0
 27 55  1  0
 29 56  1  0
 29 57  1  0
 29 58  1  0
 30 59  1  0
 32 60  1  0
 32 61  1  0
 32 62  1  0
 33 63  1  0
 34 64  1  0
 35 65  1  0
M  CHG  2  17  -1  36  -1
M  END
>  <UniqueID>  (5) 
5

>  <SMILES>  (5) 
COCCN=c1ncc(NC(=O)c2ccc([N-]C(=O)c3c(C)cc(OCCOC)cc3C)cc2)c[n-]1

>  <Energy>  (5) 
82.78220462952278

>  <Genealogy>  (5) 
COCCN=c1ncc(NC(=O)c2ccc([N-]C(=O)c3c(C)cc(OCCOC)cc3C)cc2)c[n-]1 (protonated)
COCCN=c1ncc(NC(=O)c2ccc([N-]C(=O)c3c(C)cc(OCCOC)cc3C)cc2)c[n-]1 (3D coordinates assigned)
COCCN=c1ncc(NC(=O)c2ccc([N-]C(=O)c3c(C)cc(OCCOC)cc3C)cc2)c[n-]1 (optimized conformer: 82.78220462952278 kcal/mol)

>  <smiles>  (5) 
COCCN=c1ncc(NC(=O)c2ccc(NC(=O)c3c(C)cc(OCCOC)cc3C)cc2)c[nH]1

>  <score_type>  (5) 
oracle

>  <origin>  (5) 
adg

>  <m_score__min__energy>  (5) 
-10.51

>  <m_primary>  (5) 
energy

$$$$
5:0
     RDKit          3D

 47 49  0  0  0  0  0  0  0  0999 V2000
   60.3160   30.0360   47.8330 O   0  0  0  0  0  0  0  0  0  0  0  0
   59.9960   30.7260   46.8280 C   0  0  0  0  0  0  0  0  0  0  0  0
   60.3430   32.1830   46.7950 C   0  0  0  0  0  0  0  0  0  0  0  0
   61.4360   32.4700   47.7860 C   0  0  0  0  0  0  0  0  0  0  0  0
   62.7650   32.6030   47.3530 C   0  0  0  0  0  0  0  0  0  0  0  0
   63.7900   32.8170   48.2780 C   0  0  0  0  0  0  0  0  0  0  0  0
   63.5030   32.8820   49.6490 C   0  0  0  0  0  0  0  0  0  0  0  0
   64.8000   33.1270   50.8180 S   0  0  0  0  0  0  0  0  0  0  0  0
   64.8290   34.5730   51.2270 O   0  0  0  0  0  0  0  0  0  0  0  0
   64.5070   32.3100   52.0460 O   0  0  0  0  0  0  0  0  0  0  0  0
   66.3700   32.6730   50.1870 N   0  0  0  0  0  0  0  0  0  0  0  0
   66.7270   31.2770   50.5080 C   0  0  0  0  0  0  0  0  0  0  0  0
   67.3330   31.1150   51.9230 C   0  0  0  0  0  0  0  0  0  0  0  0
   67.6250   32.3470   52.5520 O   0  0  0  0  0  0  0  0  0  0  0  0
   68.3400   33.1740   51.6650 C   0  0  0  0  0  0  0  0  0  0  0  0
   67.4290   33.6500   50.5230 C   0  0  0  0  0  0  0  0  0  0  0  0
   62.1770   32.7490   50.0830 C   0  0  0  0  0  0  0  0  0  0  0  0
   61.1500   32.5400   49.1590 C   0  0  0  0  0  0  0  0  0  0  0  0
   59.2320   30.1460   45.7600 N   0  0  0  0  0  0  0  0  0  0  0  0
   58.8360   28.7660   45.7440 C   0  0  0  0  0  0  0  0  0  0  0  0
   59.7840   27.7760   46.0580 C   0  0  0  0  0  0  0  0  0  0  0  0
   59.4560   26.4240   45.9690 C   0  0  0  0  0  0  0  0  0  0  0  0
   58.1810   26.0390   45.5570 C   0  0  0  0  0  0  0  0  0  0  0  0
   57.7370   24.1860   45.4310 Br  0  0  0  0  0  0  0  0  0  0  0  0
   57.2270   27.0090   45.2390 C   0  0  0  0  0  0  0  0  0  0  0  0
   57.5350   28.3810   45.3320 C   0  0  0  0  0  0  0  0  0  0  0  0
   56.4710   29.3760   45.0390 C   0  0  0  0  0  0  0  0  0  0  0  0
   56.7600   30.5940   44.9040 O   0  0  0  0  0  0  0  0  0  0  0  0
   55.1490   28.9820   44.8690 O   0  0  0  0  0  0  0  0  0  0  0  0
   60.6855   32.4538   45.7854 H   0  0  0  0  0  0  0  0  0  0  0  0
   59.4526   32.7738   47.0560 H   0  0  0  0  0  0  0  0  0  0  0  0
   63.0003   32.5384   46.2804 H   0  0  0  0  0  0  0  0  0  0  0  0
   64.8266   32.9350   47.9293 H   0  0  0  0  0  0  0  0  0  0  0  0
   65.8188   30.6597   50.4434 H   0  0  0  0  0  0  0  0  0  0  0  0
   67.4930   30.9599   49.7850 H   0  0  0  0  0  0  0  0  0  0  0  0
   66.6150   30.5651   52.5492 H   0  0  0  0  0  0  0  0  0  0  0  0
   68.2842   30.5743   51.8095 H   0  0  0  0  0  0  0  0  0  0  0  0
   68.7214   34.0484   52.2127 H   0  0  0  0  0  0  0  0  0  0  0  0
   69.1761   32.6004   51.2385 H   0  0  0  0  0  0  0  0  0  0  0  0
   66.9525   34.5945   50.8244 H   0  0  0  0  0  0  0  0  0  0  0  0
   68.0579   33.7761   49.6293 H   0  0  0  0  0  0  0  0  0  0  0  0
   61.9437   32.8095   51.1563 H   0  0  0  0  0  0  0  0  0  0  0  0
   60.1129   32.4298   49.5086 H   0  0  0  0  0  0  0  0  0  0  0  0
   58.9000   30.7680   44.9880 H   0  0  0  0  0  0  0  0  0  0  0  0
   60.7944   28.0713   46.3770 H   0  0  0  0  0  0  0  0  0  0  0  0
   60.2046   25.6595   46.2243 H   0  0  0  0  0  0  0  0  0  0  0  0
   56.2237   26.6981   44.9122 H   0  0  0  0  0  0  0  0  0  0  0  0
  1  2  2  0
  2  3  1  0
  3  4  1  0
  4  5  2  0
  5  6  1  0
  6  7  2  0
  7  8  1  0
  8  9  2  0
  8 10  2  0
  8 11  1  0
 11 12  1  0
 12 13  1  0
 13 14  1  0
 14 15  1  0
 15 16  1  0
  7 17  1  0
 17 18  2  0
  2 19  1  0
 19 20  1  0
 20 21  2  0
 21 22  1  0
 22 23  2  0
 23 24  1  0
 23 25  1  0
 25 26  2  0
 26 27  1  0
 27 28  2  0
 27 29  1  0
 18  4  1  0
 26 20  1  0
 16 11  1  0
  3 30  1  0
  3 31  1  0
  5 32  1  0
  6 33  1  0
 12 34  1  0
 12 35  1  0
 13 36  1  0
 13 37  1  0
 15 38  1  0
 15 39  1  0
 16 40  1  0
 16 41  1  0
 17 42  1  0
 18 43  1  0
 19 44  1  0
 21 45  1  0
 22 46  1  0
 25 47  1  0
M  CHG  1  29  -1
M  END
>  <UniqueID>  (6) 
6

>  <SMILES>  (6) 
O=C(Cc1ccc(S(=O)(=O)N2CCOCC2)cc1)Nc1ccc(Br)cc1C(=O)[O-]

>  <Energy>  (6) 
62.969150810985646

>  <Genealogy>  (6) 
O=C(Cc1ccc(S(=O)(=O)N2CCOCC2)cc1)Nc1ccc(Br)cc1C(=O)[O-] (protonated)
O=C(Cc1ccc(S(=O)(=O)N2CCOCC2)cc1)Nc1ccc(Br)cc1C(=O)[O-] (3D coordinates assigned)
O=C(Cc1ccc(S(=O)(=O)N2CCOCC2)cc1)Nc1ccc(Br)cc1C(=O)[O-] (nonaromatic ring conformer: 62.969150810985646 kcal/mol)

>  <smiles>  (6) 
O=C(Cc1ccc(S(=O)(=O)N2CCOCC2)cc1)Nc1ccc(Br)cc1C(=O)O

>  <score_type>  (6) 
oracle

>  <origin>  (6) 
adg

>  <m_score__min__energy>  (6) 
-11.26

>  <m_primary>  (6) 
energy

$$$$
6:0
     RDKit          3D

 62 65  0  0  0  0  0  0  0  0999 V2000
   61.8700   32.0490   48.9240 C   0  0  0  0  0  0  0  0  0  0  0  0
   62.1950   33.4860   48.8930 N   0  0  0  0  0  0  0  0  0  0  0  0
   63.0260   33.9040   47.7430 C   0  0  0  0  0  0  0  0  0  0  0  0
   62.3160   33.7970   46.3840 C   0  0  0  0  0  0  0  0  0  0  0  0
   60.9500   34.4930   46.3690 C   0  0  0  0  0  0  0  0  0  0  0  0
   59.9140   33.7540   47.1020 N   0  0  0  0  0  0  0  0  0  0  0  0
   59.0640   32.8410   46.3820 C   0  0  0  0  0  0  0  0  0  0  0  0
   59.0110   31.4870   46.7450 C   0  0  0  0  0  0  0  0  0  0  0  0
   58.1560   30.6080   46.0740 C   0  0  0  0  0  0  0  0  0  0  0  0
   57.3450   31.0640   45.0210 C   0  0  0  0  0  0  0  0  0  0  0  0
   56.4040   30.1330   44.3510 C   0  0  0  0  0  0  0  0  0  0  0  0
   56.0300   30.3800   43.1700 O   0  0  0  0  0  0  0  0  0  0  0  0
   55.9540   28.9190   44.9760 N   0  0  0  0  0  0  0  0  0  0  0  0
   56.7810   27.8050   45.3370 C   0  0  0  0  0  0  0  0  0  0  0  0
   58.1710   27.8300   45.1290 C   0  0  0  0  0  0  0  0  0  0  0  0
   58.9550   26.7320   45.4870 C   0  0  0  0  0  0  0  0  0  0  0  0
   58.3630   25.6060   46.0580 C   0  0  0  0  0  0  0  0  0  0  0  0
   56.9770   25.5710   46.2780 C   0  0  0  0  0  0  0  0  0  0  0  0
   56.3530   24.4340   46.8860 N   0  0  0  0  0  0  0  0  0  0  0  0
   56.9550   22.8150   46.7310 S   0  0  0  0  0  0  0  0  0  0  0  0
   56.9540   22.1640   48.0870 O   0  0  0  0  0  0  0  0  0  0  0  0
   58.3610   22.8210   46.2000 O   0  0  0  0  0  0  0  0  0  0  0  0
   55.8600   21.9160   45.6400 C   0  0  0  0  0  0  0  0  0  0  0  0
   54.4780   22.5080   45.6410 C   0  0  0  0  0  0  0  0  0  0  0  0
   54.1490   23.5600   44.7620 C   0  0  0  0  0  0  0  0  0  0  0  0
   52.8520   24.0980   44.7610 C   0  0  0  0  0  0  0  0  0  0  0  0
   51.8760   23.5830   45.6230 C   0  0  0  0  0  0  0  0  0  0  0  0
   52.1940   22.5250   46.4860 C   0  0  0  0  0  0  0  0  0  0  0  0
   53.4870   21.9830   46.4910 C   0  0  0  0  0  0  0  0  0  0  0  0
   56.1940   26.6820   45.9350 C   0  0  0  0  0  0  0  0  0  0  0  0
   54.8200   26.6580   46.1660 O   0  0  0  0  0  0  0  0  0  0  0  0
   57.4030   32.4220   44.6580 C   0  0  0  0  0  0  0  0  0  0  0  0
   58.2590   33.3000   45.3300 C   0  0  0  0  0  0  0  0  0  0  0  0
   59.7340   33.9190   48.5480 C   0  0  0  0  0  0  0  0  0  0  0  0
   61.0500   34.3640   49.1930 C   0  0  0  0  0  0  0  0  0  0  0  0
   61.7939   31.7127   49.9686 H   0  0  0  0  0  0  0  0  0  0  0  0
   60.9107   31.8789   48.4133 H   0  0  0  0  0  0  0  0  0  0  0  0
   62.6627   31.4827   48.4133 H   0  0  0  0  0  0  0  0  0  0  0  0
   63.3246   34.9517   47.8952 H   0  0  0  0  0  0  0  0  0  0  0  0
   63.8854   33.2183   47.7068 H   0  0  0  0  0  0  0  0  0  0  0  0
   62.9543   34.2598   45.6169 H   0  0  0  0  0  0  0  0  0  0  0  0
   62.1449   32.7290   46.1837 H   0  0  0  0  0  0  0  0  0  0  0  0
   61.0596   35.4873   46.8266 H   0  0  0  0  0  0  0  0  0  0  0  0
   60.6264   34.5535   45.3194 H   0  0  0  0  0  0  0  0  0  0  0  0
   59.6460   31.1148   47.5625 H   0  0  0  0  0  0  0  0  0  0  0  0
   58.1177   29.5501   46.3729 H   0  0  0  0  0  0  0  0  0  0  0  0
   58.6425   28.7179   44.6826 H   0  0  0  0  0  0  0  0  0  0  0  0
   60.0418   26.7550   45.3184 H   0  0  0  0  0  0  0  0  0  0  0  0
   58.9842   24.7422   46.3370 H   0  0  0  0  0  0  0  0  0  0  0  0
   56.2643   21.9523   44.6176 H   0  0  0  0  0  0  0  0  0  0  0  0
   55.7922   20.8774   45.9960 H   0  0  0  0  0  0  0  0  0  0  0  0
   54.9098   23.9601   44.0756 H   0  0  0  0  0  0  0  0  0  0  0  0
   52.6020   24.9261   44.0814 H   0  0  0  0  0  0  0  0  0  0  0  0
   50.8614   24.0079   45.6230 H   0  0  0  0  0  0  0  0  0  0  0  0
   51.4266   22.1188   47.1614 H   0  0  0  0  0  0  0  0  0  0  0  0
   53.7276   21.1448   47.1614 H   0  0  0  0  0  0  0  0  0  0  0  0
   56.7703   32.7958   43.8395 H   0  0  0  0  0  0  0  0  0  0  0  0
   58.3010   34.3578   45.0312 H   0  0  0  0  0  0  0  0  0  0  0  0
   58.9616   34.6797   48.7344 H   0  0  0  0  0  0  0  0  0  0  0  0
   59.4248   32.9581   48.9851 H   0  0  0  0  0  0  0  0  0  0  0  0
   61.2867   35.3757   48.8319 H   0  0  0  0  0  0  0  0  0  0  0  0
   60.8981   34.3258   50.2818 H   0  0  0  0  0  0  0  0  0  0  0  0
  1  2  1  0
  2  3  1  0
  3  4  1  0
  4  5  1  0
  5  6  1  0
  6  7  1  0
  7  8  2  0
  8  9  1  0
  9 10  2  0
 10 11  1  0
 11 12  2  0
 11 13  1  0
 13 14  1  0
 14 15  2  0
 15 16  1  0
 16 17  2  0
 17 18  1  0
 18 19  1  0
 19 20  1  0
 20 21  2  0
 20 22  2  0
 20 23  1  0
 23 24  1  0
 24 25  2  0
 25 26  1  0
 26 27  2  0
 27 28  1  0
 28 29  2  0
 18 30  2  0
 30 31  1  0
 10 32  1  0
 32 33  2  0
  6 34  1  0
 34 35  1  0
 35  2  1  0
 33  7  1  0
 30 14  1  0
 29 24  1  0
  1 36  1  0
  1 37  1  0
  1 38  1  0
  3 39  1  0
  3 40  1  0
  4 41  1  0
  4 42  1  0
  5 43  1  0
  5 44  1  0
  8 45  1  0
  9 46  1  0
 15 47  1  0
 16 48  1  0
 17 49  1  0
 23 50  1  0
 23 51  1  0
 25 52  1  0
 26 53  1  0
 27 54  1  0
 28 55  1  0
 29 56  1  0
 32 57  1  0
 33 58  1  0
 34 59  1  0
 34 60  1  0
 35 61  1  0
 35 62  1  0
M  CHG  3  13  -1  19  -1  31  -1
M  END
>  <UniqueID>  (7) 
7

>  <SMILES>  (7) 
CN1CCCN(c2ccc(C(=O)[N-]c3cccc([N-]S(=O)(=O)Cc4ccccc4)c3[O-])cc2)CC1

>  <Energy>  (7) 
89.7410898792204

>  <Genealogy>  (7) 
CN1CCCN(c2ccc(C(=O)[N-]c3cccc([N-]S(=O)(=O)Cc4ccccc4)c3[O-])cc2)CC1 (protonated)
CN1CCCN(c2ccc(C(=O)[N-]c3cccc([N-]S(=O)(=O)Cc4ccccc4)c3[O-])cc2)CC1 (3D coordinates assigned)
CN1CCCN(c2ccc(C(=O)[N-]c3cccc([N-]S(=O)(=O)Cc4ccccc4)c3[O-])cc2)CC1 (nonaromatic ring conformer: 89.7410898792204 kcal/mol)

>  <smiles>  (7) 
CN1CCCN(c2ccc(C(=O)Nc3cccc(NS(=O)(=O)Cc4ccccc4)c3O)cc2)CC1

>  <score_type>  (7) 
oracle

>  <origin>  (7) 
adg

>  <m_score__min__energy>  (7) 
-15.19

>  <m_primary>  (7) 
energy

$$$$
7:0
     RDKit          3D

 40 42  0  0  1  0  0  0  0  0999 V2000
   51.9460   24.2820   44.8650 C   0  0  0  0  0  0  0  0  0  0  0  0
   53.0300   24.8070   45.6040 O   0  0  0  0  0  0  0  0  0  0  0  0
   54.3120   24.2790   45.5100 C   0  0  0  0  0  0  0  0  0  0  0  0
   55.3600   24.9420   46.0310 N   0  0  0  0  0  0  0  0  0  0  0  0
   57.2840   28.9770   44.7750 C   0  0  0  0  0  0  0  0  0  0  0  0
   56.4410   29.9530   44.7360 N   0  0  0  0  0  0  0  0  0  0  0  0
   58.6290   25.6960   45.7560 C   0  0  0  0  0  0  0  0  0  0  0  0
   58.2950   27.0480   45.2270 C   0  0  0  0  0  0  0  0  0  0  0  0
   59.0730   27.8230   44.3640 C   0  0  0  0  0  0  0  0  0  0  0  0
   58.4430   28.9880   44.1010 N   0  0  0  0  0  0  0  0  0  0  0  0
   56.5900   24.4190   45.9320 C   0  0  0  0  0  0  0  0  0  0  0  0
   57.5790   25.0380   46.4200 N   0  0  0  0  0  0  0  0  0  0  0  0
   56.8680   31.2460   44.3250 C   0  0  0  0  0  0  0  0  0  0  0  0
   57.4110   31.4910   43.2270 O   0  0  0  0  0  0  0  0  0  0  0  0
   56.6700   32.3400   45.2130 N   0  0  0  0  0  0  0  0  0  0  0  0
   57.6140   33.1750   45.4760 C   0  0  0  0  0  0  0  0  0  0  0  0
   57.7970   33.5090   46.7660 N   0  0  0  0  0  0  0  0  0  0  0  0
   58.7600   34.3740   47.1320 C   0  0  0  0  0  0  0  0  0  0  0  0
   59.6130   34.9660   46.1980 C   0  0  0  0  0  0  0  0  0  0  0  0
   59.3960   34.5990   44.8690 C   0  0  0  0  0  0  0  0  0  0  0  0
   58.4120   33.7210   44.5420 N   0  0  0  0  0  0  0  0  0  0  0  0
   57.2040   27.8150   45.4430 N   0  0  0  0  0  0  0  0  0  0  0  0
   56.7870   23.2170   45.3060 C   0  0  0  0  0  0  0  0  0  0  0  0
   58.3340   22.4850   45.1410 Cl  0  0  0  0  0  0  0  0  0  0  0  0
   55.6820   22.5800   44.7900 C   0  0  0  0  0  0  0  0  0  0  0  0
   54.4300   23.0940   44.8810 N   0  0  0  0  0  0  0  0  0  0  0  0
   51.1766   23.9094   45.5572 H   0  0  0  0  0  0  0  0  0  0  0  0
   51.5173   25.0723   44.2313 H   0  0  0  0  0  0  0  0  0  0  0  0
   52.3003   23.4556   44.2313 H   0  0  0  0  0  0  0  0  0  0  0  0
   59.4645   25.8039   46.4633 H   0  0  0  0  0  0  0  0  0  0  0  0
   58.8727   25.0766   44.8802 H   0  0  0  0  0  0  0  0  0  0  0  0
   60.0524   27.5284   43.9591 H   0  0  0  0  0  0  0  0  0  0  0  0
   58.7920   29.7630   43.4860 H   0  0  0  0  0  0  0  0  0  0  0  0
   58.8790   34.6221   48.1970 H   0  0  0  0  0  0  0  0  0  0  0  0
   60.4027   35.6739   46.4901 H   0  0  0  0  0  0  0  0  0  0  0  0
   60.0291   35.0256   44.0770 H   0  0  0  0  0  0  0  0  0  0  0  0
   58.2810   33.4720   43.5460 H   0  0  0  0  0  0  0  0  0  0  0  0
   56.4010   27.5640   46.0400 H   0  0  0  0  0  0  0  0  0  0  0  0
   55.8196   21.6138   44.2826 H   0  0  0  0  0  0  0  0  0  0  0  0
   53.5920   22.5970   44.4830 H   0  0  0  0  0  0  0  0  0  0  0  0
  1  2  1  0
  2  3  1  0
  3  4  2  0
  4  5  1  0
  5  6  2  0
  6  7  1  0
  7  8  1  0
  8  9  2  0
  9 10  1  0
 10 11  1  0
 11 12  2  0
 12 13  1  0
 13 14  2  0
 13 15  1  0
 15 16  2  3
 16 17  1  0
 17 18  2  0
 18 19  1  0
 19 20  2  0
 20 21  1  0
 11 22  1  0
  5 23  1  0
 23 24  1  0
 23 25  2  0
 25 26  1  0
 26  3  1  0
 22  8  1  0
 21 16  1  0
  1 27  1  0
  1 28  1  0
  1 29  1  0
  7 30  1  0
  7 31  1  0
  9 32  1  0
 10 33  1  0
 18 34  1  0
 19 35  1  0
 20 36  1  0
 21 37  1  0
 22 38  1  0
 25 39  1  0
 26 40  1  0
M  END
>  <smiles>  (8) 
COc1nc(=NCc2c[nH]c(=NC(=O)N=c3nccc[nH]3)[nH]2)c(Cl)c[nH]1

>  <score_type>  (8) 
oracle

>  <origin>  (8) 
adg

>  <m_score__min__energy>  (8) 
-6.8700000000000001

>  <m_primary>  (8) 
energy

$$$$
8:0
     RDKit          3D

 40 41  0  0  0  0  0  0  0  0999 V2000
   56.7680   20.7160   42.9830 C   0  0  0  0  0  0  0  0  0  0  0  0
   55.8970   21.7840   43.3400 O   0  0  0  0  0  0  0  0  0  0  0  0
   56.2710   22.8900   44.1200 C   0  0  0  0  0  0  0  0  0  0  0  0
   57.6170   23.2620   44.2890 C   0  0  0  0  0  0  0  0  0  0  0  0
   57.9510   24.3690   45.0720 C   0  0  0  0  0  0  0  0  0  0  0  0
   56.9530   25.1240   45.7030 C   0  0  0  0  0  0  0  0  0  0  0  0
   57.3160   26.2970   46.5310 C   0  0  0  0  0  0  0  0  0  0  0  0
   57.8280   26.1300   47.6720 O   0  0  0  0  0  0  0  0  0  0  0  0
   57.1360   27.5900   46.0210 O   0  0  0  0  0  0  0  0  0  0  0  0
   57.4290   28.7480   46.7230 N   0  0  0  0  0  0  0  0  0  0  0  0
   58.4250   29.5330   46.4490 C   0  0  0  0  0  0  0  0  0  0  0  0
   58.2200   30.8490   45.8000 C   0  0  0  0  0  0  0  0  0  0  0  0
   58.8420   31.9570   46.4000 C   0  0  0  0  0  0  0  0  0  0  0  0
   58.7400   33.2290   45.8350 C   0  0  0  0  0  0  0  0  0  0  0  0
   58.0080   33.4140   44.6650 C   0  0  0  0  0  0  0  0  0  0  0  0
   57.3620   32.3340   44.0660 C   0  0  0  0  0  0  0  0  0  0  0  0
   57.4400   31.0460   44.6250 C   0  0  0  0  0  0  0  0  0  0  0  0
   56.4980   29.7510   43.8630 S   0  0  0  0  0  0  0  0  0  0  0  0
   55.1470   29.3490   44.8620 N   0  0  0  0  0  0  0  0  0  0  0  0
   56.0240   30.1930   42.5070 O   0  0  0  0  0  0  0  0  0  0  0  0
   57.3540   28.5270   43.6870 O   0  0  0  0  0  0  0  0  0  0  0  0
   55.6070   24.7530   45.5340 C   0  0  0  0  0  0  0  0  0  0  0  0
   55.2620   23.6370   44.7440 C   0  0  0  0  0  0  0  0  0  0  0  0
   53.9270   23.2410   44.5570 O   0  0  0  0  0  0  0  0  0  0  0  0
   52.7930   24.0050   44.9540 C   0  0  0  0  0  0  0  0  0  0  0  0
   57.1567   20.2394   43.8950 H   0  0  0  0  0  0  0  0  0  0  0  0
   56.2141   19.9741   42.3891 H   0  0  0  0  0  0  0  0  0  0  0  0
   57.6062   21.1093   42.3891 H   0  0  0  0  0  0  0  0  0  0  0  0
   58.4112   22.6775   43.8015 H   0  0  0  0  0  0  0  0  0  0  0  0
   59.0071   24.6510   45.1946 H   0  0  0  0  0  0  0  0  0  0  0  0
   59.4462   29.2138   46.7047 H   0  0  0  0  0  0  0  0  0  0  0  0
   59.4171   31.8199   47.3276 H   0  0  0  0  0  0  0  0  0  0  0  0
   59.2377   34.0852   46.3138 H   0  0  0  0  0  0  0  0  0  0  0  0
   57.9395   34.4144   44.2127 H   0  0  0  0  0  0  0  0  0  0  0  0
   56.7835   32.4912   43.1437 H   0  0  0  0  0  0  0  0  0  0  0  0
   55.5110   28.7690   45.6500 H   0  0  0  0  0  0  0  0  0  0  0  0
   54.8152   25.3394   46.0231 H   0  0  0  0  0  0  0  0  0  0  0  0
   52.7408   24.0402   46.0522 H   0  0  0  0  0  0  0  0  0  0  0  0
   52.8829   25.0274   44.5583 H   0  0  0  0  0  0  0  0  0  0  0  0
   51.8792   23.5377   44.5583 H   0  0  0  0  0  0  0  0  0  0  0  0
  1  2  1  0
  2  3  1  0
  3  4  2  0
  4  5  1  0
  5  6  2  0
  6  7  1  0
  7  8  2  0
  7  9  1  0
  9 10  1  0
 10 11  2  3
 11 12  1  0
 12 13  2  0
 13 14  1  0
 14 15  2  0
 15 16  1  0
 16 17  2  0
 17 18  1  0
 18 19  1  0
 18 20  2  0
 18 21  2  0
  6 22  1  0
 22 23  2  0
 23 24  1  0
 24 25  1  0
 23  3  1  0
 17 12  1  0
  1 26  1  0
  1 27  1  0
  1 28  1  0
  4 29  1  0
  5 30  1  0
 11 31  1  0
 13 32  1  0
 14 33  1  0
 15 34  1  0
 16 35  1  0
 19 36  1  0
 22 37  1  0
 25 38  1  0
 25 39  1  0
 25 40  1  0
M  CHG  1  19  -1
M  END
>  <UniqueID>  (9) 
8

>  <SMILES>  (9) 
COc1ccc(C(=O)ON=Cc2ccccc2S([NH-])(=O)=O)cc1OC

>  <Energy>  (9) 
51.2973199698678

>  <Genealogy>  (9) 
COc1ccc(C(=O)ON=Cc2ccccc2S([NH-])(=O)=O)cc1OC (protonated)
COc1ccc(C(=O)ON=Cc2ccccc2S([NH-])(=O)=O)cc1OC (3D coordinates assigned)
COc1ccc(C(=O)ON=Cc2ccccc2S([NH-])(=O)=O)cc1OC (optimized conformer: 51.2973199698678 kcal/mol)

>  <smiles>  (9) 
COc1ccc(C(=O)ON=Cc2ccccc2S(N)(=O)=O)cc1OC

>  <score_type>  (9) 
oracle

>  <origin>  (9) 
adg

>  <m_score__min__energy>  (9) 
-11

>  <m_primary>  (9) 
energy

$$$$
9:0
     RDKit          3D

 44 45  0  0  0  0  0  0  0  0999 V2000
   57.4570   33.5390   46.5310 C   0  0  0  0  0  0  0  0  0  0  0  0
   58.0300   32.8110   45.3950 N   0  0  0  0  0  0  0  0  0  0  0  0
   58.7900   33.5180   44.3640 C   0  0  0  0  0  0  0  0  0  0  0  0
   57.8810   31.3750   45.3210 C   0  0  0  0  0  0  0  0  0  0  0  0
   56.6510   30.8230   45.1200 N   0  0  0  0  0  0  0  0  0  0  0  0
   56.4810   29.4780   45.0420 C   0  0  0  0  0  0  0  0  0  0  0  0
   55.2010   28.9660   44.8510 O   0  0  0  0  0  0  0  0  0  0  0  0
   57.5900   28.6260   45.1520 C   0  0  0  0  0  0  0  0  0  0  0  0
   57.4400   27.1270   45.0720 C   0  0  0  0  0  0  0  0  0  0  0  0
   56.6400   26.6160   46.2400 C   0  0  0  0  0  0  0  0  0  0  0  0
   55.2180   26.5040   46.1440 N   0  0  0  0  0  0  0  0  0  0  0  0
   57.2270   26.2850   47.3130 O   0  0  0  0  0  0  0  0  0  0  0  0
   58.8530   29.2130   45.3570 C   0  0  0  0  0  0  0  0  0  0  0  0
   59.9850   28.4070   45.4890 O   0  0  0  0  0  0  0  0  0  0  0  0
   60.2610   27.6680   46.6780 C   0  0  0  0  0  0  0  0  0  0  0  0
   60.7050   28.5820   47.8360 C   0  0  0  0  0  0  0  0  0  0  0  0
   59.5570   29.4360   48.4080 C   0  0  0  0  0  0  0  0  0  0  0  0
   59.8690   30.9150   48.4040 C   0  0  0  0  0  0  0  0  0  0  0  0
   60.9600   31.4090   47.6610 C   0  0  0  0  0  0  0  0  0  0  0  0
   61.2640   32.7790   47.6780 C   0  0  0  0  0  0  0  0  0  0  0  0
   60.4730   33.6630   48.4220 C   0  0  0  0  0  0  0  0  0  0  0  0
   59.3800   33.1790   49.1550 C   0  0  0  0  0  0  0  0  0  0  0  0
   59.0750   31.8130   49.1430 C   0  0  0  0  0  0  0  0  0  0  0  0
   58.9680   30.5660   45.4440 N   0  0  0  0  0  0  0  0  0  0  0  0
   57.8108   33.0896   47.4706 H   0  0  0  0  0  0  0  0  0  0  0  0
   57.7709   34.5924   46.4874 H   0  0  0  0  0  0  0  0  0  0  0  0
   56.3594   33.4814   46.4874 H   0  0  0  0  0  0  0  0  0  0  0  0
   59.5156   34.1930   44.8414 H   0  0  0  0  0  0  0  0  0  0  0  0
   59.3247   32.7887   43.7377 H   0  0  0  0  0  0  0  0  0  0  0  0
   58.1012   34.1039   43.7377 H   0  0  0  0  0  0  0  0  0  0  0  0
   56.9242   26.8639   44.1367 H   0  0  0  0  0  0  0  0  0  0  0  0
   58.4389   26.6670   45.0955 H   0  0  0  0  0  0  0  0  0  0  0  0
   54.7200   26.7090   45.2390 H   0  0  0  0  0  0  0  0  0  0  0  0
   59.3511   27.1287   46.9801 H   0  0  0  0  0  0  0  0  0  0  0  0
   61.0836   26.9706   46.4612 H   0  0  0  0  0  0  0  0  0  0  0  0
   61.1088   27.9530   48.6431 H   0  0  0  0  0  0  0  0  0  0  0  0
   61.4601   29.2744   47.4356 H   0  0  0  0  0  0  0  0  0  0  0  0
   58.6558   29.2653   47.8009 H   0  0  0  0  0  0  0  0  0  0  0  0
   59.4077   29.1319   49.4545 H   0  0  0  0  0  0  0  0  0  0  0  0
   61.5754   30.7184   47.0657 H   0  0  0  0  0  0  0  0  0  0  0  0
   62.1240   33.1585   47.1067 H   0  0  0  0  0  0  0  0  0  0  0  0
   60.7091   34.7373   48.4315 H   0  0  0  0  0  0  0  0  0  0  0  0
   58.7609   33.8744   49.7408 H   0  0  0  0  0  0  0  0  0  0  0  0
   58.2116   31.4395   49.7131 H   0  0  0  0  0  0  0  0  0  0  0  0
  1  2  1  0
  2  3  1  0
  2  4  1  0
  4  5  2  0
  5  6  1  0
  6  7  1  0
  6  8  2  0
  8  9  1  0
  9 10  1  0
 10 11  1  0
 10 12  2  0
  8 13  1  0
 13 14  1  0
 14 15  1  0
 15 16  1  0
 16 17  1  0
 17 18  1  0
 18 19  2  0
 19 20  1  0
 20 21  2  0
 21 22  1  0
 22 23  2  0
 13 24  2  0
 24  4  1  0
 23 18  1  0
  1 25  1  0
  1 26  1  0
  1 27  1  0
  3 28  1  0
  3 29  1  0
  3 30  1  0
  9 31  1  0
  9 32  1  0
 11 33  1  0
 15 34  1  0
 15 35  1  0
 16 36  1  0
 16 37  1  0
 17 38  1  0
 17 39  1  0
 19 40  1  0
 20 41  1  0
 21 42  1  0
 22 43  1  0
 23 44  1  0
M  CHG  2   7  -1  11  -1
M  END
>  <UniqueID>  (10) 
9

>  <SMILES>  (10) 
CN(C)c1nc([O-])c(CC([NH-])=O)c(OCCCc2ccccc2)n1

>  <Energy>  (10) 
41.155729016547625

>  <Genealogy>  (10) 
CN(C)c1nc([O-])c(CC([NH-])=O)c(OCCCc2ccccc2)n1 (protonated)
CN(C)c1nc([O-])c(CC([NH-])=O)c(OCCCc2ccccc2)n1 (3D coordinates assigned)
CN(C)c1nc([O-])c(CC([NH-])=O)c(OCCCc2ccccc2)n1 (optimized conformer: 41.155729016547625 kcal/mol)

>  <smiles>  (10) 
CN(C)c1nc(O)c(CC(N)=O)c(OCCCc2ccccc2)n1

>  <score_type>  (10) 
oracle

>  <origin>  (10) 
adg

>  <m_score__min__energy>  (10) 
-14.02

>  <m_primary>  (10) 
energy

$$$$
10:0
     RDKit          3D

 49 51  0  0  0  0  0  0  0  0999 V2000
   63.3200   32.5200   47.4770 C   0  0  0  0  0  0  0  0  0  0  0  0
   62.8050   32.4920   48.8040 O   0  0  0  0  0  0  0  0  0  0  0  0
   61.5120   32.0620   49.1490 C   0  0  0  0  0  0  0  0  0  0  0  0
   61.2590   30.7450   49.5800 C   0  0  0  0  0  0  0  0  0  0  0  0
   59.9610   30.3430   49.9040 C   0  0  0  0  0  0  0  0  0  0  0  0
   58.9020   31.2450   49.8010 C   0  0  0  0  0  0  0  0  0  0  0  0
   59.1380   32.5540   49.3760 C   0  0  0  0  0  0  0  0  0  0  0  0
   60.4400   32.9760   49.0560 C   0  0  0  0  0  0  0  0  0  0  0  0
   60.6670   34.3870   48.5670 C   0  0  0  0  0  0  0  0  0  0  0  0
   59.4870   34.8810   47.7280 C   0  0  0  0  0  0  0  0  0  0  0  0
   59.5920   34.3680   46.3630 N   0  0  0  0  0  0  0  0  0  0  0  0
   58.2110   33.3840   45.9920 S   0  0  0  0  0  0  0  0  0  0  0  0
   57.1300   33.6230   47.0090 O   0  0  0  0  0  0  0  0  0  0  0  0
   57.6830   33.7700   44.6390 O   0  0  0  0  0  0  0  0  0  0  0  0
   58.6510   31.6760   45.9790 C   0  0  0  0  0  0  0  0  0  0  0  0
   59.9490   31.2830   46.3240 C   0  0  0  0  0  0  0  0  0  0  0  0
   60.2950   29.9300   46.3240 C   0  0  0  0  0  0  0  0  0  0  0  0
   59.3460   28.9630   45.9820 C   0  0  0  0  0  0  0  0  0  0  0  0
   58.0360   29.3400   45.6360 C   0  0  0  0  0  0  0  0  0  0  0  0
   57.0290   28.3090   45.2750 C   0  0  0  0  0  0  0  0  0  0  0  0
   55.8070   28.6110   45.2340 O   0  0  0  0  0  0  0  0  0  0  0  0
   57.4220   26.9850   44.8850 N   0  0  0  0  0  0  0  0  0  0  0  0
   57.1770   25.8570   45.4960 C   0  0  0  0  0  0  0  0  0  0  0  0
   58.1960   24.9580   45.5910 N   0  0  0  0  0  0  0  0  0  0  0  0
   58.0620   23.7620   46.2200 C   0  0  0  0  0  0  0  0  0  0  0  0
   56.8460   23.4120   46.8010 C   0  0  0  0  0  0  0  0  0  0  0  0
   55.7690   24.2930   46.7100 C   0  0  0  0  0  0  0  0  0  0  0  0
   55.9130   25.5180   46.0450 C   0  0  0  0  0  0  0  0  0  0  0  0
   54.8050   26.3560   45.9170 O   0  0  0  0  0  0  0  0  0  0  0  0
   57.6970   30.7060   45.6470 C   0  0  0  0  0  0  0  0  0  0  0  0
   64.4179   32.5797   47.5109 H   0  0  0  0  0  0  0  0  0  0  0  0
   63.0188   31.6042   46.9474 H   0  0  0  0  0  0  0  0  0  0  0  0
   62.9213   33.3978   46.9474 H   0  0  0  0  0  0  0  0  0  0  0  0
   62.0893   30.0281   49.6620 H   0  0  0  0  0  0  0  0  0  0  0  0
   59.7736   29.3128   50.2411 H   0  0  0  0  0  0  0  0  0  0  0  0
   57.8806   30.9250   50.0547 H   0  0  0  0  0  0  0  0  0  0  0  0
   58.2988   33.2601   49.2910 H   0  0  0  0  0  0  0  0  0  0  0  0
   60.7926   35.0512   49.4348 H   0  0  0  0  0  0  0  0  0  0  0  0
   61.5686   34.3953   47.9369 H   0  0  0  0  0  0  0  0  0  0  0  0
   58.5474   34.5281   48.1781 H   0  0  0  0  0  0  0  0  0  0  0  0
   59.4992   35.9806   47.7015 H   0  0  0  0  0  0  0  0  0  0  0  0
   60.6982   32.0412   46.5957 H   0  0  0  0  0  0  0  0  0  0  0  0
   61.3168   29.6248   46.5938 H   0  0  0  0  0  0  0  0  0  0  0  0
   59.6256   27.8991   45.9834 H   0  0  0  0  0  0  0  0  0  0  0  0
   58.9148   23.0691   46.2706 H   0  0  0  0  0  0  0  0  0  0  0  0
   56.7362   22.4515   47.3258 H   0  0  0  0  0  0  0  0  0  0  0  0
   54.8026   24.0253   47.1620 H   0  0  0  0  0  0  0  0  0  0  0  0
   54.7660   27.0850   45.2140 H   0  0  0  0  0  0  0  0  0  0  0  0
   56.6724   31.0148   45.3923 H   0  0  0  0  0  0  0  0  0  0  0  0
  1  2  1  0
  2  3  1  0
  3  4  2  0
  4  5  1  0
  5  6  2  0
  6  7  1  0
  7  8  2  0
  8  9  1  0
  9 10  1  0
 10 11  1  0
 11 12  1  0
 12 13  2  0
 12 14  2  0
 12 15  1  0
 15 16  2  0
 16 17  1  0
 17 18  2  0
 18 19  1  0
 19 20  1  0
 20 21  2  0
 20 22  1  0
 22 23  2  3
 23 24  1  0
 24 25  1  0
 25 26  2  0
 26 27  1  0
 27 28  2  0
 28 29  1  0
 19 30  2  0
  8  3  1  0
 30 15  1  0
 28 23  1  0
  1 31  1  0
  1 32  1  0
  1 33  1  0
  4 34  1  0
  5 35  1  0
  6 36  1  0
  7 37  1  0
  9 38  1  0
  9 39  1  0
 10 40  1  0
 10 41  1  0
 16 42  1  0
 17 43  1  0
 18 44  1  0
 25 45  1  0
 26 46  1  0
 27 47  1  0
 29 48  1  0
 30 49  1  0
M  CHG  2  11  -1  24  -1
M  END
>  <UniqueID>  (11) 
10

>  <SMILES>  (11) 
COc1ccccc1CC[N-]S(=O)(=O)c1cccc(C(=O)N=c2[n-]cccc2O)c1

>  <Energy>  (11) 
60.56748129629397

>  <Genealogy>  (11) 
COc1ccccc1CC[N-]S(=O)(=O)c1cccc(C(=O)N=c2[n-]cccc2O)c1 (protonated)
COc1ccccc1CC[N-]S(=O)(=O)c1cccc(C(=O)N=c2[n-]cccc2O)c1 (3D coordinates assigned)
COc1ccccc1CC[N-]S(=O)(=O)c1cccc(C(=O)N=c2[n-]cccc2O)c1 (optimized conformer: 60.56748129629397 kcal/mol)

>  <smiles>  (11) 
COc1ccccc1CCNS(=O)(=O)c1cccc(C(=O)N=c2[nH]cccc2O)c1

>  <score_type>  (11) 
oracle

>  <origin>  (11) 
adg

>  <m_score__min__energy>  (11) 
-12.369999999999999

>  <m_primary>  (11) 
energy

$$$$
11:0
     RDKit          3D

 44 46  0  0  0  0  0  0  0  0999 V2000
   59.1410   34.9640   45.0070 C   0  0  0  0  0  0  0  0  0  0  0  0
   60.0220   34.2260   45.8500 O   0  0  0  0  0  0  0  0  0  0  0  0
   59.6180   33.4980   46.9810 C   0  0  0  0  0  0  0  0  0  0  0  0
   59.6560   34.0590   48.2740 C   0  0  0  0  0  0  0  0  0  0  0  0
   59.3050   33.2930   49.3900 C   0  0  0  0  0  0  0  0  0  0  0  0
   58.9140   31.9640   49.2310 C   0  0  0  0  0  0  0  0  0  0  0  0
   58.8670   31.3990   47.9570 C   0  0  0  0  0  0  0  0  0  0  0  0
   59.1960   32.1600   46.8240 C   0  0  0  0  0  0  0  0  0  0  0  0
   59.1450   31.5350   45.5300 N   0  0  0  0  0  0  0  0  0  0  0  0
   58.0390   31.7000   44.6350 C   0  0  0  0  0  0  0  0  0  0  0  0
   57.1910   32.6140   44.8170 O   0  0  0  0  0  0  0  0  0  0  0  0
   57.8710   30.7940   43.5400 N   0  0  0  0  0  0  0  0  0  0  0  0
   56.5750   30.4130   43.0700 C   0  0  0  0  0  0  0  0  0  0  0  0
   56.3430   30.4060   41.8320 O   0  0  0  0  0  0  0  0  0  0  0  0
   55.5260   29.9310   44.0260 C   0  0  0  0  0  0  0  0  0  0  0  0
   56.1080   29.6510   45.3360 N   0  0  0  0  0  0  0  0  0  0  0  0
   57.1240   28.6790   45.6200 C   0  0  0  0  0  0  0  0  0  0  0  0
   58.2720   29.0890   45.9390 O   0  0  0  0  0  0  0  0  0  0  0  0
   56.8730   27.2260   45.5660 C   0  0  0  0  0  0  0  0  0  0  0  0
   57.8580   26.2580   45.3660 C   0  0  0  0  0  0  0  0  0  0  0  0
   57.1910   25.0550   45.4210 C   0  0  0  0  0  0  0  0  0  0  0  0
   57.6630   23.7490   45.2990 C   0  0  0  0  0  0  0  0  0  0  0  0
   56.7310   22.6990   45.4320 C   0  0  0  0  0  0  0  0  0  0  0  0
   57.2670   21.0350   45.2980 Cl  0  0  0  0  0  0  0  0  0  0  0  0
   55.3680   22.9810   45.6790 C   0  0  0  0  0  0  0  0  0  0  0  0
   54.9270   24.3100   45.8010 C   0  0  0  0  0  0  0  0  0  0  0  0
   55.8720   25.3260   45.6650 C   0  0  0  0  0  0  0  0  0  0  0  0
   55.6640   26.6490   45.7680 N   0  0  0  0  0  0  0  0  0  0  0  0
   58.4441   35.5477   45.6264 H   0  0  0  0  0  0  0  0  0  0  0  0
   59.7262   35.6454   44.3720 H   0  0  0  0  0  0  0  0  0  0  0  0
   58.5727   34.2684   44.3720 H   0  0  0  0  0  0  0  0  0  0  0  0
   59.9640   35.1068   48.4058 H   0  0  0  0  0  0  0  0  0  0  0  0
   59.3374   33.7395   50.3948 H   0  0  0  0  0  0  0  0  0  0  0  0
   58.6427   31.3614   50.1104 H   0  0  0  0  0  0  0  0  0  0  0  0
   58.5692   30.3467   47.8386 H   0  0  0  0  0  0  0  0  0  0  0  0
   59.7730   30.7160   45.3640 H   0  0  0  0  0  0  0  0  0  0  0  0
   58.7080   30.3170   43.1360 H   0  0  0  0  0  0  0  0  0  0  0  0
   54.7523   30.7056   44.1331 H   0  0  0  0  0  0  0  0  0  0  0  0
   55.0868   29.0036   43.6296 H   0  0  0  0  0  0  0  0  0  0  0  0
   58.9332   26.4207   45.2005 H   0  0  0  0  0  0  0  0  0  0  0  0
   58.7263   23.5444   45.1055 H   0  0  0  0  0  0  0  0  0  0  0  0
   54.6480   22.1551   45.7763 H   0  0  0  0  0  0  0  0  0  0  0  0
   53.8697   24.5412   45.9976 H   0  0  0  0  0  0  0  0  0  0  0  0
   54.7620   27.1180   46.0080 H   0  0  0  0  0  0  0  0  0  0  0  0
  1  2  1  0
  2  3  1  0
  3  4  2  0
  4  5  1  0
  5  6  2  0
  6  7  1  0
  7  8  2  0
  8  9  1  0
  9 10  1  0
 10 11  2  0
 10 12  1  0
 12 13  1  0
 13 14  2  0
 13 15  1  0
 15 16  1  0
 16 17  1  0
 17 18  2  0
 17 19  1  0
 19 20  2  0
 20 21  1  0
 21 22  2  0
 22 23  1  0
 23 24  1  0
 23 25  2  0
 25 26  1  0
 26 27  2  0
 27 28  1  0
  8  3  1  0
 28 19  1  0
 27 21  1  0
  1 29  1  0
  1 30  1  0
  1 31  1  0
  4 32  1  0
  5 33  1  0
  6 34  1  0
  7 35  1  0
  9 36  1  0
 12 37  1  0
 15 38  1  0
 15 39  1  0
 20 40  1  0
 22 41  1  0
 25 42  1  0
 26 43  1  0
 28 44  1  0
M  CHG  1  16  -1
M  END
>  <UniqueID>  (12) 
11

>  <SMILES>  (12) 
COc1ccccc1NC(=O)NC(=O)C[N-]C(=O)c1cc2cc(Cl)ccc2[nH]1

>  <Energy>  (12) 
86.2402845059726

>  <Genealogy>  (12) 
COc1ccccc1NC(=O)NC(=O)C[N-]C(=O)c1cc2cc(Cl)ccc2[nH]1 (protonated)
COc1ccccc1NC(=O)NC(=O)C[N-]C(=O)c1cc2cc(Cl)ccc2[nH]1 (3D coordinates assigned)
COc1ccccc1NC(=O)NC(=O)C[N-]C(=O)c1cc2cc(Cl)ccc2[nH]1 (optimized conformer: 86.2402845059726 kcal/mol)

>  <smiles>  (12) 
COc1ccccc1NC(=O)NC(=O)CNC(=O)c1cc2cc(Cl)ccc2[nH]1

>  <score_type>  (12) 
oracle

>  <origin>  (12) 
adg

>  <m_score__min__energy>  (12) 
-9.5700000000000003

>  <m_primary>  (12) 
energy

$$$$
12:0
     RDKit          3D

 59 62  0  0  0  0  0  0  0  0999 V2000
   63.9440   33.0930   47.1450 C   0  0  0  0  0  0  0  0  0  0  0  0
   63.0270   32.9410   48.2870 N   0  0  0  0  0  0  0  0  0  0  0  0
   62.1360   34.1190   48.3780 C   0  0  0  0  0  0  0  0  0  0  0  0
   60.9690   33.8560   49.3380 C   0  0  0  0  0  0  0  0  0  0  0  0
   60.1620   32.6610   48.9670 N   0  0  0  0  0  0  0  0  0  0  0  0
   58.7910   33.0090   48.5450 C   0  0  0  0  0  0  0  0  0  0  0  0
   58.7380   33.2930   47.0650 C   0  0  0  0  0  0  0  0  0  0  0  0
   59.1960   34.5250   46.5660 C   0  0  0  0  0  0  0  0  0  0  0  0
   59.1580   34.7810   45.1930 C   0  0  0  0  0  0  0  0  0  0  0  0
   58.6600   33.8160   44.3100 C   0  0  0  0  0  0  0  0  0  0  0  0
   58.1900   32.5830   44.7920 C   0  0  0  0  0  0  0  0  0  0  0  0
   57.7060   31.5940   43.8640 N   0  0  0  0  0  0  0  0  0  0  0  0
   56.7680   30.5810   44.2410 C   0  0  0  0  0  0  0  0  0  0  0  0
   55.5340   30.8290   44.1500 O   0  0  0  0  0  0  0  0  0  0  0  0
   57.2340   29.2810   44.7760 C   0  0  0  0  0  0  0  0  0  0  0  0
   58.6080   28.9860   44.8250 C   0  0  0  0  0  0  0  0  0  0  0  0
   59.0510   27.7620   45.3380 C   0  0  0  0  0  0  0  0  0  0  0  0
   58.1290   26.8200   45.8070 C   0  0  0  0  0  0  0  0  0  0  0  0
   56.7480   27.0880   45.7420 C   0  0  0  0  0  0  0  0  0  0  0  0
   55.7770   26.1560   46.2460 N   0  0  0  0  0  0  0  0  0  0  0  0
   55.9870   24.7580   46.4770 C   0  0  0  0  0  0  0  0  0  0  0  0
   55.8480   24.3160   47.6500 O   0  0  0  0  0  0  0  0  0  0  0  0
   56.3140   23.8180   45.3770 C   0  0  0  0  0  0  0  0  0  0  0  0
   55.6070   23.8870   44.1600 C   0  0  0  0  0  0  0  0  0  0  0  0
   55.9120   23.0060   43.1190 C   0  0  0  0  0  0  0  0  0  0  0  0
   56.9320   22.0600   43.2710 C   0  0  0  0  0  0  0  0  0  0  0  0
   57.2300   21.2120   42.2560 F   0  0  0  0  0  0  0  0  0  0  0  0
   57.6510   21.9950   44.4680 C   0  0  0  0  0  0  0  0  0  0  0  0
   57.3450   22.8680   45.5170 C   0  0  0  0  0  0  0  0  0  0  0  0
   56.3110   28.3240   45.2430 C   0  0  0  0  0  0  0  0  0  0  0  0
   58.2320   32.3280   46.1760 C   0  0  0  0  0  0  0  0  0  0  0  0
   60.8060   31.8060   47.9480 C   0  0  0  0  0  0  0  0  0  0  0  0
   62.3040   31.6420   48.2380 C   0  0  0  0  0  0  0  0  0  0  0  0
   64.9659   33.2624   47.5153 H   0  0  0  0  0  0  0  0  0  0  0  0
   63.9225   32.1790   46.5333 H   0  0  0  0  0  0  0  0  0  0  0  0
   63.6287   33.9511   46.5333 H   0  0  0  0  0  0  0  0  0  0  0  0
   62.7149   34.9799   48.7436 H   0  0  0  0  0  0  0  0  0  0  0  0
   61.7262   34.3251   47.3782 H   0  0  0  0  0  0  0  0  0  0  0  0
   61.3754   33.7033   50.3487 H   0  0  0  0  0  0  0  0  0  0  0  0
   60.3018   34.7292   49.2884 H   0  0  0  0  0  0  0  0  0  0  0  0
   58.1195   32.1685   48.7745 H   0  0  0  0  0  0  0  0  0  0  0  0
   58.4756   33.9126   49.0872 H   0  0  0  0  0  0  0  0  0  0  0  0
   59.5844   35.2878   47.2569 H   0  0  0  0  0  0  0  0  0  0  0  0
   59.5207   35.7442   44.8047 H   0  0  0  0  0  0  0  0  0  0  0  0
   58.6364   34.0247   43.2302 H   0  0  0  0  0  0  0  0  0  0  0  0
   58.0650   31.5890   42.8780 H   0  0  0  0  0  0  0  0  0  0  0  0
   59.3387   29.7217   44.4579 H   0  0  0  0  0  0  0  0  0  0  0  0
   60.1277   27.5396   45.3727 H   0  0  0  0  0  0  0  0  0  0  0  0
   58.4837   25.8675   46.2276 H   0  0  0  0  0  0  0  0  0  0  0  0
   54.8127   24.6366   44.0290 H   0  0  0  0  0  0  0  0  0  0  0  0
   55.3479   23.0563   42.1760 H   0  0  0  0  0  0  0  0  0  0  0  0
   58.4580   21.2567   44.5850 H   0  0  0  0  0  0  0  0  0  0  0  0
   57.9130   22.8125   46.4574 H   0  0  0  0  0  0  0  0  0  0  0  0
   55.2346   28.5490   45.2159 H   0  0  0  0  0  0  0  0  0  0  0  0
   57.8661   31.3663   46.5650 H   0  0  0  0  0  0  0  0  0  0  0  0
   60.3274   30.8156   47.9543 H   0  0  0  0  0  0  0  0  0  0  0  0
   60.6888   32.2832   46.9639 H   0  0  0  0  0  0  0  0  0  0  0  0
   62.4210   31.1378   49.2086 H   0  0  0  0  0  0  0  0  0  0  0  0
   62.7377   31.0522   47.4170 H   0  0  0  0  0  0  0  0  0  0  0  0
  1  2  1  0
  2  3  1  0
  3  4  1  0
  4  5  1  0
  5  6  1  0
  6  7  1  0
  7  8  2  0
  8  9  1  0
  9 10  2  0
 10 11  1  0
 11 12  1  0
 12 13  1  0
 13 14  2  0
 13 15  1  0
 15 16  2  0
 16 17  1  0
 17 18  2  0
 18 19  1  0
 19 20  1  0
 20 21  1  0
 21 22  2  0
 21 23  1  0
 23 24  2  0
 24 25  1  0
 25 26  2  0
 26 27  1  0
 26 28  1  0
 28 29  2  0
 19 30  2  0
 11 31  2  0
  5 32  1  0
 32 33  1  0
 33  2  1  0
 31  7  1  0
 30 15  1  0
 29 23  1  0
  1 34  1  0
  1 35  1  0
  1 36  1  0
  3 37  1  0
  3 38  1  0
  4 39  1  0
  4 40  1  0
  6 41  1  0
  6 42  1  0
  8 43  1  0
  9 44  1  0
 10 45  1  0
 12 46  1  0
 16 47  1  0
 17 48  1  0
 18 49  1  0
 24 50  1  0
 25 51  1  0
 28 52  1  0
 29 53  1  0
 30 54  1  0
 31 55  1  0
 32 56  1  0
 32 57  1  0
 33 58  1  0
 33 59  1  0
M  CHG  1  20  -1
M  END
>  <UniqueID>  (13) 
12

>  <SMILES>  (13) 
CN1CCN(Cc2cccc(NC(=O)c3cccc([N-]C(=O)c4ccc(F)cc4)c3)c2)CC1

>  <Energy>  (13) 
87.84245500977596

>  <Genealogy>  (13) 
CN1CCN(Cc2cccc(NC(=O)c3cccc([N-]C(=O)c4ccc(F)cc4)c3)c2)CC1 (protonated)
CN1CCN(Cc2cccc(NC(=O)c3cccc([N-]C(=O)c4ccc(F)cc4)c3)c2)CC1 (3D coordinates assigned)
CN1CCN(Cc2cccc(NC(=O)c3cccc([N-]C(=O)c4ccc(F)cc4)c3)c2)CC1 (nonaromatic ring conformer: 87.84245500977596 kcal/mol)

>  <smiles>  (13) 
CN1CCN(Cc2cccc(NC(=O)c3cccc(NC(=O)c4ccc(F)cc4)c3)c2)CC1

>  <score_type>  (13) 
oracle

>  <origin>  (13) 
adg

>  <m_score__min__energy>  (13) 
-12.65

>  <m_primary>  (13) 
energy

$$$$
13:0
     RDKit          3D

 44 46  0  0  0  0  0  0  0  0999 V2000
   54.8320   23.7460   46.2930 O   0  0  0  0  0  0  0  0  0  0  0  0
   55.8110   24.1460   46.9790 C   0  0  0  0  0  0  0  0  0  0  0  0
   56.0570   23.5600   48.2640 N   0  0  0  0  0  0  0  0  0  0  0  0
   56.3790   22.1510   48.4650 C   0  0  0  0  0  0  0  0  0  0  0  0
   55.8150   21.2880   47.3300 C   0  0  0  0  0  0  0  0  0  0  0  0
   56.5700   21.5040   46.0430 C   0  0  0  0  0  0  0  0  0  0  0  0
   57.9620   21.6920   46.0590 C   0  0  0  0  0  0  0  0  0  0  0  0
   58.6630   21.8650   44.8620 C   0  0  0  0  0  0  0  0  0  0  0  0
   57.9830   21.8420   43.6410 C   0  0  0  0  0  0  0  0  0  0  0  0
   56.5990   21.6400   43.6160 C   0  0  0  0  0  0  0  0  0  0  0  0
   55.9250   21.6080   42.4020 O   0  0  0  0  0  0  0  0  0  0  0  0
   55.8950   21.4660   44.8120 C   0  0  0  0  0  0  0  0  0  0  0  0
   56.7150   25.2060   46.4590 C   0  0  0  0  0  0  0  0  0  0  0  0
   58.1050   24.9840   46.4390 C   0  0  0  0  0  0  0  0  0  0  0  0
   58.9770   25.9550   45.9390 C   0  0  0  0  0  0  0  0  0  0  0  0
   58.4780   27.1640   45.4380 C   0  0  0  0  0  0  0  0  0  0  0  0
   59.4180   28.2220   44.9270 C   0  0  0  0  0  0  0  0  0  0  0  0
   58.8090   29.5870   45.0990 C   0  0  0  0  0  0  0  0  0  0  0  0
   58.0000   30.1340   44.0900 C   0  0  0  0  0  0  0  0  0  0  0  0
   57.4670   31.4190   44.2340 C   0  0  0  0  0  0  0  0  0  0  0  0
   57.7440   32.1700   45.3810 C   0  0  0  0  0  0  0  0  0  0  0  0
   57.0790   33.7830   45.5580 Cl  0  0  0  0  0  0  0  0  0  0  0  0
   58.5590   31.6350   46.3840 C   0  0  0  0  0  0  0  0  0  0  0  0
   59.0930   30.3510   46.2430 C   0  0  0  0  0  0  0  0  0  0  0  0
   57.0960   27.4000   45.4670 C   0  0  0  0  0  0  0  0  0  0  0  0
   56.2180   26.4340   45.9700 C   0  0  0  0  0  0  0  0  0  0  0  0
   54.8560   26.7160   45.9790 O   0  0  0  0  0  0  0  0  0  0  0  0
   57.4722   22.0333   48.4964 H   0  0  0  0  0  0  0  0  0  0  0  0
   55.9270   21.8212   49.4121 H   0  0  0  0  0  0  0  0  0  0  0  0
   55.8910   20.2284   47.6153 H   0  0  0  0  0  0  0  0  0  0  0  0
   54.7659   21.5758   47.1667 H   0  0  0  0  0  0  0  0  0  0  0  0
   58.5024   21.7031   47.0170 H   0  0  0  0  0  0  0  0  0  0  0  0
   59.7519   22.0195   44.8810 H   0  0  0  0  0  0  0  0  0  0  0  0
   58.5358   21.9826   42.7004 H   0  0  0  0  0  0  0  0  0  0  0  0
   54.8081   21.2987   44.7883 H   0  0  0  0  0  0  0  0  0  0  0  0
   58.5095   24.0352   46.8214 H   0  0  0  0  0  0  0  0  0  0  0  0
   60.0611   25.7687   45.9389 H   0  0  0  0  0  0  0  0  0  0  0  0
   60.3617   28.1719   45.4900 H   0  0  0  0  0  0  0  0  0  0  0  0
   59.6080   28.0465   43.8578 H   0  0  0  0  0  0  0  0  0  0  0  0
   57.7847   29.5498   43.1832 H   0  0  0  0  0  0  0  0  0  0  0  0
   56.8285   31.8400   43.4434 H   0  0  0  0  0  0  0  0  0  0  0  0
   58.7800   32.2257   47.2852 H   0  0  0  0  0  0  0  0  0  0  0  0
   59.7386   29.9369   47.0315 H   0  0  0  0  0  0  0  0  0  0  0  0
   56.6984   28.3540   45.0905 H   0  0  0  0  0  0  0  0  0  0  0  0
  1  2  2  0
  2  3  1  0
  3  4  1  0
  4  5  1  0
  5  6  1  0
  6  7  2  0
  7  8  1  0
  8  9  2  0
  9 10  1  0
 10 11  1  0
 10 12  2  0
  2 13  1  0
 13 14  2  0
 14 15  1  0
 15 16  2  0
 16 17  1  0
 17 18  1  0
 18 19  2  0
 19 20  1  0
 20 21  2  0
 21 22  1  0
 21 23  1  0
 23 24  2  0
 16 25  1  0
 25 26  2  0
 26 27  1  0
 12  6  1  0
 26 13  1  0
 24 18  1  0
  4 28  1  0
  4 29  1  0
  5 30  1  0
  5 31  1  0
  7 32  1  0
  8 33  1  0
  9 34  1  0
 12 35  1  0
 14 36  1  0
 15 37  1  0
 17 38  1  0
 17 39  1  0
 19 40  1  0
 20 41  1  0
 23 42  1  0
 24 43  1  0
 25 44  1  0
M  CHG  3   3  -1  11  -1  27  -1
M  END
>  <UniqueID>  (14) 
13

>  <SMILES>  (14) 
O=C([N-]CCc1cccc([O-])c1)c1ccc(Cc2ccc(Cl)cc2)cc1[O-]

>  <Energy>  (14) 
42.7806793949665

>  <Genealogy>  (14) 
O=C([N-]CCc1cccc([O-])c1)c1ccc(Cc2ccc(Cl)cc2)cc1[O-] (protonated)
O=C([N-]CCc1cccc([O-])c1)c1ccc(Cc2ccc(Cl)cc2)cc1[O-] (3D coordinates assigned)
O=C([N-]CCc1cccc([O-])c1)c1ccc(Cc2ccc(Cl)cc2)cc1[O-] (optimized conformer: 42.7806793949665 kcal/mol)

>  <smiles>  (14) 
O=C(NCCc1cccc(O)c1)c1ccc(Cc2ccc(Cl)cc2)cc1O

>  <score_type>  (14) 
oracle

>  <origin>  (14) 
adg

>  <m_score__min__energy>  (14) 
-14.83

>  <m_primary>  (14) 
energy

$$$$
14:0
     RDKit          3D

 44 46  0  0  0  0  0  0  0  0999 V2000
   58.2497   30.2112   44.5470 H   0  0  0  0  0  0  0  0  0  0  0  0
   58.1040   31.2320   44.9300 C   0  0  0  0  0  0  0  0  0  0  0  0
   58.1640   31.4770   46.3050 C   0  0  0  0  0  0  0  0  0  0  0  0
   58.3600   30.6476   47.0005 H   0  0  0  0  0  0  0  0  0  0  0  0
   57.9750   32.7790   46.8040 C   0  0  0  0  0  0  0  0  0  0  0  0
   58.0820   33.0440   48.2190 N   0  0  0  0  0  0  0  0  0  0  0  0
   58.2560   34.0660   48.3640 H   0  0  0  0  0  0  0  0  0  0  0  0
   57.1820   32.8130   48.7040 H   0  0  0  0  0  0  0  0  0  0  0  0
   59.1910   32.2870   48.8230 C   0  0  0  0  0  0  0  0  0  0  0  0
   59.8887   32.9936   49.2963 H   0  0  0  0  0  0  0  0  0  0  0  0
   59.6890   31.7146   48.0265 H   0  0  0  0  0  0  0  0  0  0  0  0
   58.7000   31.3130   49.8650 C   0  0  0  0  0  0  0  0  0  0  0  0
   58.1280   31.6620   51.0720 C   0  0  0  0  0  0  0  0  0  0  0  0
   57.9787   32.6697   51.4871 H   0  0  0  0  0  0  0  0  0  0  0  0
   57.7860   30.4430   51.6380 C   0  0  0  0  0  0  0  0  0  0  0  0
   57.1950   30.2500   52.7820 N   0  0  0  0  0  0  0  0  0  0  0  0
   56.6050   29.0200   53.2310 C   0  0  0  0  0  0  0  0  0  0  0  0
   57.2250   28.3200   54.0730 O   0  0  0  0  0  0  0  0  0  0  0  0
   55.3240   28.5740   52.7670 N   0  0  0  0  0  0  0  0  0  0  0  0
   54.2380   29.4130   52.3470 C   0  0  0  0  0  0  0  0  0  0  0  0
   54.5260   30.6030   51.6710 C   0  0  0  0  0  0  0  0  0  0  0  0
   55.5719   30.8757   51.4666 H   0  0  0  0  0  0  0  0  0  0  0  0
   53.4930   31.4490   51.2530 C   0  0  0  0  0  0  0  0  0  0  0  0
   53.7326   32.3874   50.7314 H   0  0  0  0  0  0  0  0  0  0  0  0
   52.1520   31.1080   51.4950 C   0  0  0  0  0  0  0  0  0  0  0  0
   51.0620   32.0080   51.0570 C   0  0  0  0  0  0  0  0  0  0  0  0
   50.8280   32.1820   49.8310 O   0  0  0  0  0  0  0  0  0  0  0  0
   50.2780   32.6730   51.9930 O   0  0  0  0  0  0  0  0  0  0  0  0
   51.8640   29.8990   52.1530 C   0  0  0  0  0  0  0  0  0  0  0  0
   50.8181   29.6157   52.3423 H   0  0  0  0  0  0  0  0  0  0  0  0
   52.8980   29.0550   52.5680 C   0  0  0  0  0  0  0  0  0  0  0  0
   52.6610   28.1055   53.0703 H   0  0  0  0  0  0  0  0  0  0  0  0
   58.1110   29.4320   50.8130 N   0  0  0  0  0  0  0  0  0  0  0  0
   58.6710   29.9670   49.7390 N   0  0  0  0  0  0  0  0  0  0  0  0
   59.1530   29.1790   48.6100 C   0  0  0  0  0  0  0  0  0  0  0  0
   59.6930   28.2962   48.9829 H   0  0  0  0  0  0  0  0  0  0  0  0
   58.2986   28.8546   47.9979 H   0  0  0  0  0  0  0  0  0  0  0  0
   59.8309   29.7919   47.9979 H   0  0  0  0  0  0  0  0  0  0  0  0
   57.7330   33.8300   45.9000 C   0  0  0  0  0  0  0  0  0  0  0  0
   57.5910   34.8536   46.2770 H   0  0  0  0  0  0  0  0  0  0  0  0
   57.6720   33.5810   44.5260 C   0  0  0  0  0  0  0  0  0  0  0  0
   57.4768   34.4066   43.8258 H   0  0  0  0  0  0  0  0  0  0  0  0
   57.8590   32.2830   44.0410 C   0  0  0  0  0  0  0  0  0  0  0  0
   57.7900   31.9730   42.3150 Cl  0  0  0  0  0  0  0  0  0  0  0  0
  1  2  1  0
  2  3  2  0
  3  4  1  0
  3  5  1  0
  5  6  1  0
  6  7  1  0
  6  8  1  0
  6  9  1  0
  9 10  1  0
  9 11  1  0
  9 12  1  0
 12 13  2  0
 13 14  1  0
 13 15  1  0
 15 16  2  0
 16 17  1  0
 17 18  2  0
 17 19  1  0
 19 20  1  0
 20 21  2  0
 21 22  1  0
 21 23  1  0
 23 24  1  0
 23 25  2  0
 25 26  1  0
 26 27  2  0
 26 28  1  0
 25 29  1  0
 29 30  1  0
 29 31  2  0
 31 32  1  0
 15 33  1  0
 33 34  1  0
 34 35  1  0
 35 36  1  0
 35 37  1  0
 35 38  1  0
  5 39  2  0
 39 40  1  0
 39 41  1  0
 41 42  1  0
 41 43  2  0
 43 44  1  0
 43  2  1  0
 34 12  1  0
 31 20  1  0
M  CHG  4   6   1  19  -1  28  -1  33  -1
M  END
>  <UniqueID>  (15) 
14

>  <SMILES>  (15) 
Cn1[n-]/c(=N/C(=O)[N-]c2ccc(C(=O)[O-])cc2)cc1C[NH2+]c1ccc(Cl)cc1

>  <Energy>  (15) 
84.84438489001428

>  <Genealogy>  (15) 
Cn1[n-]c(=NC(=O)[N-]c2ccc(C(=O)[O-])cc2)cc1C[NH2+]c1ccc(Cl)cc1 (protonated)
Cn1[n-]/c(=N/C(=O)[N-]c2ccc(C(=O)[O-])cc2)cc1C[NH2+]c1ccc(Cl)cc1 (cis-trans isomerization)
Cn1[n-]/c(=N/C(=O)[N-]c2ccc(C(=O)[O-])cc2)cc1C[NH2+]c1ccc(Cl)cc1 (3D coordinates assigned)
Cn1[n-]/c(=N/C(=O)[N-]c2ccc(C(=O)[O-])cc2)cc1C[NH2+]c1ccc(Cl)cc1 (optimized conformer: 84.84438489001428 kcal/mol)

>  <smiles>  (15) 
Cn1[nH]c(=NC(=O)Nc2ccc(C(=O)O)cc2)cc1CNc1ccc(Cl)cc1

>  <score_type>  (15) 
oracle

>  <origin>  (15) 
adg

>  <m_score__min__energy>  (15) 
-11.82

>  <m_primary>  (15) 
energy

$$$$
15:0
     RDKit          3D

 47 49  0  0  0  0  0  0  0  0999 V2000
   60.5250   28.7800   44.8780 C   0  0  0  0  0  0  0  0  0  0  0  0
   59.4730   28.8500   45.8340 O   0  0  0  0  0  0  0  0  0  0  0  0
   58.7110   27.7530   46.2730 C   0  0  0  0  0  0  0  0  0  0  0  0
   59.2740   26.7600   47.0950 C   0  0  0  0  0  0  0  0  0  0  0  0
   58.5080   25.6830   47.5310 C   0  0  0  0  0  0  0  0  0  0  0  0
   57.1740   25.5740   47.1530 C   0  0  0  0  0  0  0  0  0  0  0  0
   56.5820   26.5450   46.3250 C   0  0  0  0  0  0  0  0  0  0  0  0
   55.2450   26.4290   45.9080 O   0  0  0  0  0  0  0  0  0  0  0  0
   54.5850   25.2000   45.6260 C   0  0  0  0  0  0  0  0  0  0  0  0
   57.3530   27.6490   45.8840 C   0  0  0  0  0  0  0  0  0  0  0  0
   56.7440   28.6630   44.9840 C   0  0  0  0  0  0  0  0  0  0  0  0
   57.4440   29.3850   44.0810 N   0  0  0  0  0  0  0  0  0  0  0  0
   56.5010   30.1320   43.4810 C   0  0  0  0  0  0  0  0  0  0  0  0
   56.7690   31.0430   42.3240 C   0  0  0  0  0  0  0  0  0  0  0  0
   58.1230   31.5980   42.4320 N   0  0  0  0  0  0  0  0  0  0  0  0
   58.1500   32.8310   43.2380 C   0  0  0  0  0  0  0  0  0  0  0  0
   57.6120   32.5460   44.6420 C   0  0  0  0  0  0  0  0  0  0  0  0
   58.3230   33.3820   45.6770 C   0  0  0  0  0  0  0  0  0  0  0  0
   58.9710   34.5710   45.3030 C   0  0  0  0  0  0  0  0  0  0  0  0
   59.6510   35.3340   46.2570 C   0  0  0  0  0  0  0  0  0  0  0  0
   59.6940   34.9130   47.5890 C   0  0  0  0  0  0  0  0  0  0  0  0
   59.0700   33.7210   47.9660 C   0  0  0  0  0  0  0  0  0  0  0  0
   59.1310   33.3040   49.2540 F   0  0  0  0  0  0  0  0  0  0  0  0
   58.3890   32.9550   47.0140 C   0  0  0  0  0  0  0  0  0  0  0  0
   55.2710   29.8460   44.0260 C   0  0  0  0  0  0  0  0  0  0  0  0
   55.4570   28.9390   44.9510 O   0  0  0  0  0  0  0  0  0  0  0  0
   61.4911   28.7157   45.4000 H   0  0  0  0  0  0  0  0  0  0  0  0
   60.3889   27.8889   44.2476 H   0  0  0  0  0  0  0  0  0  0  0  0
   60.5081   29.6813   44.2476 H   0  0  0  0  0  0  0  0  0  0  0  0
   60.3293   26.8354   47.3959 H   0  0  0  0  0  0  0  0  0  0  0  0
   58.9592   24.9153   48.1768 H   0  0  0  0  0  0  0  0  0  0  0  0
   56.5761   24.7203   47.5049 H   0  0  0  0  0  0  0  0  0  0  0  0
   54.3177   24.7023   46.5699 H   0  0  0  0  0  0  0  0  0  0  0  0
   53.6723   25.3988   45.0451 H   0  0  0  0  0  0  0  0  0  0  0  0
   55.2548   24.5490   45.0451 H   0  0  0  0  0  0  0  0  0  0  0  0
   56.6802   30.4768   41.3851 H   0  0  0  0  0  0  0  0  0  0  0  0
   56.0378   31.8648   42.3317 H   0  0  0  0  0  0  0  0  0  0  0  0
   58.7320   30.8860   42.9000 H   0  0  0  0  0  0  0  0  0  0  0  0
   59.1849   33.1967   43.3110 H   0  0  0  0  0  0  0  0  0  0  0  0
   57.5200   33.5931   42.7561 H   0  0  0  0  0  0  0  0  0  0  0  0
   56.5373   32.7788   44.6688 H   0  0  0  0  0  0  0  0  0  0  0  0
   57.7839   31.4843   44.8728 H   0  0  0  0  0  0  0  0  0  0  0  0
   58.9433   34.9032   44.2547 H   0  0  0  0  0  0  0  0  0  0  0  0
   60.1526   36.2665   45.9590 H   0  0  0  0  0  0  0  0  0  0  0  0
   60.2193   35.5203   48.3409 H   0  0  0  0  0  0  0  0  0  0  0  0
   57.9032   32.0146   47.3133 H   0  0  0  0  0  0  0  0  0  0  0  0
   54.3095   30.2960   43.7379 H   0  0  0  0  0  0  0  0  0  0  0  0
  1  2  1  0
  2  3  1  0
  3  4  2  0
  4  5  1  0
  5  6  2  0
  6  7  1  0
  7  8  1  0
  8  9  1  0
  7 10  2  0
 10 11  1  0
 11 12  2  0
 12 13  1  0
 13 14  1  0
 14 15  1  0
 15 16  1  0
 16 17  1  0
 17 18  1  0
 18 19  2  0
 19 20  1  0
 20 21  2  0
 21 22  1  0
 22 23  1  0
 22 24  2  0
 13 25  2  0
 25 26  1  0
 10  3  1  0
 26 11  1  0
 24 18  1  0
  1 27  1  0
  1 28  1  0
  1 29  1  0
  4 30  1  0
  5 31  1  0
  6 32  1  0
  9 33  1  0
  9 34  1  0
  9 35  1  0
 14 36  1  0
 14 37  1  0
 15 38  1  0
 16 39  1  0
 16 40  1  0
 17 41  1  0
 17 42  1  0
 19 43  1  0
 20 44  1  0
 21 45  1  0
 24 46  1  0
 25 47  1  0
M  END
>  <UniqueID>  (16) 
15

>  <SMILES>  (16) 
COc1cccc(OC)c1-c1nc(CNCCc2cccc(F)c2)co1

>  <Energy>  (16) 
71.48087445695288

>  <Genealogy>  (16) 
COc1cccc(OC)c1-c1nc(CNCCc2cccc(F)c2)co1 (3D coordinates assigned)
COc1cccc(OC)c1-c1nc(CNCCc2cccc(F)c2)co1 (optimized conformer: 71.48087445695288 kcal/mol)

>  <smiles>  (16) 
COc1cccc(OC)c1-c1nc(CNCCc2cccc(F)c2)co1

>  <score_type>  (16) 
oracle

>  <origin>  (16) 
adg

>  <m_score__min__energy>  (16) 
-8.1999999999999993

>  <m_primary>  (16) 
energy

$$$$
16:0
     RDKit          3D

 54 56  0  0  1  0  0  0  0  0999 V2000
   63.3600   33.7470   46.6880 C   0  0  0  0  0  0  0  0  0  0  0  0
   62.4570   33.0150   47.6460 C   0  0  0  0  0  0  0  0  0  0  0  0
   61.2480   33.8510   48.0230 C   0  0  0  0  0  0  0  0  0  0  0  0
   60.2390   33.7840   46.9510 C   0  0  0  0  0  0  0  0  0  0  0  0
   59.8130   34.9650   46.3950 C   0  0  0  0  0  0  0  0  0  0  0  0
   58.8730   34.9190   45.4050 C   0  0  0  0  0  0  0  0  0  0  0  0
   58.3890   33.6730   45.0080 C   0  0  0  0  0  0  0  0  0  0  0  0
   58.8030   32.4950   45.5510 C   0  0  0  0  0  0  0  0  0  0  0  0
   58.2820   31.1900   45.1670 C   0  0  0  0  0  0  0  0  0  0  0  0
   59.0370   30.0460   45.2470 C   0  0  0  0  0  0  0  0  0  0  0  0
   58.6020   28.7970   44.8700 C   0  0  0  0  0  0  0  0  0  0  0  0
   59.4180   27.7790   44.9400 N   0  0  0  0  0  0  0  0  0  0  0  0
   59.0420   26.5410   45.4910 C   0  0  0  0  0  0  0  0  0  0  0  0
   59.9440   25.9150   46.1530 O   0  0  0  0  0  0  0  0  0  0  0  0
   57.7590   25.8890   45.3990 C   0  0  0  0  0  0  0  0  0  0  0  0
   56.6650   26.1490   46.1810 C   0  0  0  0  0  0  0  0  0  0  0  0
   55.4750   25.4350   45.9910 C   0  0  0  0  0  0  0  0  0  0  0  0
   55.3530   24.4580   45.0260 C   0  0  0  0  0  0  0  0  0  0  0  0
   56.4520   24.1960   44.2380 C   0  0  0  0  0  0  0  0  0  0  0  0
   56.4670   23.2180   43.2060 N   0  0  0  0  0  0  0  0  0  0  0  0
   56.8130   21.5520   43.5230 S   0  0  0  0  0  0  0  0  0  0  0  0
   58.5020   21.4990   44.0930 C   0  0  0  0  0  0  0  0  0  0  0  0
   56.6480   20.7510   42.2750 O   0  0  0  0  0  0  0  0  0  0  0  0
   55.8720   21.0350   44.5710 O   0  0  0  0  0  0  0  0  0  0  0  0
   57.6230   24.9060   44.4330 C   0  0  0  0  0  0  0  0  0  0  0  0
   57.3530   28.6980   44.3960 N   0  0  0  0  0  0  0  0  0  0  0  0
   56.5700   29.8110   44.3000 C   0  0  0  0  0  0  0  0  0  0  0  0
   55.1640   29.7160   43.7590 C   0  0  0  0  0  0  0  0  0  0  0  0
   57.0180   31.0310   44.6750 N   0  0  0  0  0  0  0  0  0  0  0  0
   59.7530   32.5410   46.5500 C   0  0  0  0  0  0  0  0  0  0  0  0
   64.0922   34.3405   47.2551 H   0  0  0  0  0  0  0  0  0  0  0  0
   63.8892   33.0198   46.0546 H   0  0  0  0  0  0  0  0  0  0  0  0
   62.7580   34.4152   46.0546 H   0  0  0  0  0  0  0  0  0  0  0  0
   62.1134   32.0838   47.1719 H   0  0  0  0  0  0  0  0  0  0  0  0
   63.0274   32.8020   48.5621 H   0  0  0  0  0  0  0  0  0  0  0  0
   60.8142   33.4647   48.9571 H   0  0  0  0  0  0  0  0  0  0  0  0
   61.5596   34.8966   48.1628 H   0  0  0  0  0  0  0  0  0  0  0  0
   60.2199   35.9272   46.7393 H   0  0  0  0  0  0  0  0  0  0  0  0
   58.5068   35.8423   44.9325 H   0  0  0  0  0  0  0  0  0  0  0  0
   57.6306   33.6399   44.2119 H   0  0  0  0  0  0  0  0  0  0  0  0
   60.0606   30.1346   45.6398 H   0  0  0  0  0  0  0  0  0  0  0  0
   56.7212   26.9219   46.9617 H   0  0  0  0  0  0  0  0  0  0  0  0
   54.6103   25.6610   46.6322 H   0  0  0  0  0  0  0  0  0  0  0  0
   54.4108   23.9069   44.8900 H   0  0  0  0  0  0  0  0  0  0  0  0
   56.2610   23.5210   42.2070 H   0  0  0  0  0  0  0  0  0  0  0  0
   58.5179   21.4985   45.1929 H   0  0  0  0  0  0  0  0  0  0  0  0
   58.9867   20.5852   43.7188 H   0  0  0  0  0  0  0  0  0  0  0  0
   59.0431   22.3806   43.7188 H   0  0  0  0  0  0  0  0  0  0  0  0
   58.4867   24.6792   43.7907 H   0  0  0  0  0  0  0  0  0  0  0  0
   56.9860   27.7720   44.1030 H   0  0  0  0  0  0  0  0  0  0  0  0
   54.4516   29.6679   44.5958 H   0  0  0  0  0  0  0  0  0  0  0  0
   54.9473   30.6016   43.1435 H   0  0  0  0  0  0  0  0  0  0  0  0
   55.0684   28.8093   43.1435 H   0  0  0  0  0  0  0  0  0  0  0  0
   60.1191   31.6164   47.0201 H   0  0  0  0  0  0  0  0  0  0  0  0
  1  2  1  0
  2  3  1  0
  3  4  1  0
  4  5  2  0
  5  6  1  0
  6  7  2  0
  7  8  1  0
  8  9  1  0
  9 10  2  0
 10 11  1  0
 11 12  2  0
 12 13  1  0
 13 14  2  0
 13 15  1  0
 15 16  2  0
 16 17  1  0
 17 18  2  0
 18 19  1  0
 19 20  1  0
 20 21  1  0
 21 22  1  0
 21 23  2  0
 21 24  2  0
 19 25  2  0
 11 26  1  0
 26 27  1  0
 27 28  1  0
 27 29  2  0
  8 30  2  0
 30  4  1  0
 29  9  1  0
 25 15  1  0
  1 31  1  0
  1 32  1  0
  1 33  1  0
  2 34  1  0
  2 35  1  0
  3 36  1  0
  3 37  1  0
  5 38  1  0
  6 39  1  0
  7 40  1  0
 10 41  1  0
 16 42  1  0
 17 43  1  0
 18 44  1  0
 20 45  1  0
 22 46  1  0
 22 47  1  0
 22 48  1  0
 25 49  1  0
 26 50  1  0
 28 51  1  0
 28 52  1  0
 28 53  1  0
 30 54  1  0
M  END
>  <smiles>  (17) 
CCCc1cccc(-c2cc(=NC(=O)c3cccc(NS(C)(=O)=O)c3)[nH]c(C)n2)c1

>  <score_type>  (17) 
oracle

>  <origin>  (17) 
adg

>  <m_score__min__energy>  (17) 
-10.16

>  <m_primary>  (17) 
energy

$$$$
17:0
     RDKit          3D

 48 51  0  0  0  0  0  0  0  0999 V2000
   55.6020   29.3400   44.8160 O   0  0  0  0  0  0  0  0  0  0  0  0
   56.6330   30.0590   44.7840 C   0  0  0  0  0  0  0  0  0  0  0  0
   57.9120   29.4560   45.0440 N   0  0  0  0  0  0  0  0  0  0  0  0
   58.6000   29.5170   46.1500 C   0  0  0  0  0  0  0  0  0  0  0  0
   59.6180   30.4700   46.3600 C   0  0  0  0  0  0  0  0  0  0  0  0
   60.2590   30.5310   47.5960 C   0  0  0  0  0  0  0  0  0  0  0  0
   59.9130   29.6310   48.6120 C   0  0  0  0  0  0  0  0  0  0  0  0
   60.5100   29.7700   49.9850 C   0  0  0  0  0  0  0  0  0  0  0  0
   59.5650   30.5330   50.8730 C   0  0  0  0  0  0  0  0  0  0  0  0
   59.9580   31.7550   51.4390 C   0  0  0  0  0  0  0  0  0  0  0  0
   59.0580   32.4980   52.2030 C   0  0  0  0  0  0  0  0  0  0  0  0
   57.7570   32.0330   52.4050 C   0  0  0  0  0  0  0  0  0  0  0  0
   57.3360   30.8160   51.8360 C   0  0  0  0  0  0  0  0  0  0  0  0
   55.9510   30.3290   52.0400 C   0  0  0  0  0  0  0  0  0  0  0  0
   55.7570   29.1400   52.4090 O   0  0  0  0  0  0  0  0  0  0  0  0
   54.8440   31.2330   51.8720 N   0  0  0  0  0  0  0  0  0  0  0  0
   53.5930   30.9460   51.6490 C   0  0  0  0  0  0  0  0  0  0  0  0
   52.6580   31.9100   51.5140 N   0  0  0  0  0  0  0  0  0  0  0  0
   51.5210   31.2280   51.2760 C   0  0  0  0  0  0  0  0  0  0  0  0
   51.7870   29.8770   51.2620 C   0  0  0  0  0  0  0  0  0  0  0  0
   53.0970   29.6970   51.4950 N   0  0  0  0  0  0  0  0  0  0  0  0
   58.2520   30.0720   51.0680 C   0  0  0  0  0  0  0  0  0  0  0  0
   58.9330   28.6650   48.3500 C   0  0  0  0  0  0  0  0  0  0  0  0
   58.3130   28.6300   47.1410 N   0  0  0  0  0  0  0  0  0  0  0  0
   56.4950   31.4650   44.5270 N   0  0  0  0  0  0  0  0  0  0  0  0
   57.3570   32.5020   45.0190 C   0  0  0  0  0  0  0  0  0  0  0  0
   57.4030   32.8410   46.3840 C   0  0  0  0  0  0  0  0  0  0  0  0
   58.2900   33.8240   46.8360 C   0  0  0  0  0  0  0  0  0  0  0  0
   59.1200   34.4870   45.9270 C   0  0  0  0  0  0  0  0  0  0  0  0
   59.0540   34.1800   44.5660 C   0  0  0  0  0  0  0  0  0  0  0  0
   58.1690   33.1960   44.1120 C   0  0  0  0  0  0  0  0  0  0  0  0
   59.9043   31.1609   45.5533 H   0  0  0  0  0  0  0  0  0  0  0  0
   61.0379   31.2871   47.7740 H   0  0  0  0  0  0  0  0  0  0  0  0
   60.6855   28.7709   50.4104 H   0  0  0  0  0  0  0  0  0  0  0  0
   61.4636   30.3138   49.9147 H   0  0  0  0  0  0  0  0  0  0  0  0
   60.9802   32.1288   51.2796 H   0  0  0  0  0  0  0  0  0  0  0  0
   59.3742   33.4531   52.6477 H   0  0  0  0  0  0  0  0  0  0  0  0
   57.0553   32.6223   53.0136 H   0  0  0  0  0  0  0  0  0  0  0  0
   50.5313   31.6811   51.1171 H   0  0  0  0  0  0  0  0  0  0  0  0
   51.0499   29.0791   51.0890 H   0  0  0  0  0  0  0  0  0  0  0  0
   53.5880   28.7780   51.5050 H   0  0  0  0  0  0  0  0  0  0  0  0
   57.9365   29.1201   50.6160 H   0  0  0  0  0  0  0  0  0  0  0  0
   58.6643   27.9324   49.1253 H   0  0  0  0  0  0  0  0  0  0  0  0
   56.7393   32.3314   47.0980 H   0  0  0  0  0  0  0  0  0  0  0  0
   58.3344   34.0751   47.9060 H   0  0  0  0  0  0  0  0  0  0  0  0
   59.8259   35.2513   46.2841 H   0  0  0  0  0  0  0  0  0  0  0  0
   59.6982   34.7122   43.8506 H   0  0  0  0  0  0  0  0  0  0  0  0
   58.1103   32.9661   43.0379 H   0  0  0  0  0  0  0  0  0  0  0  0
  1  2  2  0
  2  3  1  0
  3  4  2  3
  4  5  1  0
  5  6  2  0
  6  7  1  0
  7  8  1  0
  8  9  1  0
  9 10  2  0
 10 11  1  0
 11 12  2  0
 12 13  1  0
 13 14  1  0
 14 15  2  0
 14 16  1  0
 16 17  2  3
 17 18  1  0
 18 19  1  0
 19 20  2  0
 20 21  1  0
 13 22  2  0
  7 23  2  0
 23 24  1  0
  2 25  1  0
 25 26  1  0
 26 27  2  0
 27 28  1  0
 28 29  2  0
 29 30  1  0
 30 31  2  0
 24  4  1  0
 31 26  1  0
 22  9  1  0
 21 17  1  0
  5 32  1  0
  6 33  1  0
  8 34  1  0
  8 35  1  0
 10 36  1  0
 11 37  1  0
 12 38  1  0
 19 39  1  0
 20 40  1  0
 21 41  1  0
 22 42  1  0
 23 43  1  0
 27 44  1  0
 28 45  1  0
 29 46  1  0
 30 47  1  0
 31 48  1  0
M  CHG  3  18  -1  24  -1  25  -1
M  END
>  <UniqueID>  (18) 
16

>  <SMILES>  (18) 
O=C(N=c1ccc(Cc2cccc(C(=O)N=c3[n-]cc[nH]3)c2)c[n-]1)[N-]c1ccccc1

>  <Energy>  (18) 
96.89859346616737

>  <Genealogy>  (18) 
O=C(N=c1ccc(Cc2cccc(C(=O)N=c3[n-]cc[nH]3)c2)c[n-]1)[N-]c1ccccc1 (protonated)
O=C(N=c1ccc(Cc2cccc(C(=O)N=c3[n-]cc[nH]3)c2)c[n-]1)[N-]c1ccccc1 (3D coordinates assigned)
O=C(N=c1ccc(Cc2cccc(C(=O)N=c3[n-]cc[nH]3)c2)c[n-]1)[N-]c1ccccc1 (optimized conformer: 96.89859346616737 kcal/mol)

>  <smiles>  (18) 
O=C(N=c1ccc(Cc2cccc(C(=O)N=c3[nH]cc[nH]3)c2)c[nH]1)Nc1ccccc1

>  <score_type>  (18) 
oracle

>  <origin>  (18) 
adg

>  <m_score__min__energy>  (18) 
-13.24

>  <m_primary>  (18) 
energy

$$$$
18:0
     RDKit          3D

 39 41  0  0  0  0  0  0  0  0999 V2000
   59.6390   35.5690   45.6640 O   0  0  0  0  0  0  0  0  0  0  0  0
   59.6180   34.4270   46.1970 C   0  0  0  0  0  0  0  0  0  0  0  0
   60.3550   34.1270   47.3940 N   0  0  0  0  0  0  0  0  0  0  0  0
   57.5870   26.1670   46.9170 C   0  0  0  0  0  0  0  0  0  0  0  0
   58.2520   26.8890   45.9430 C   0  0  0  0  0  0  0  0  0  0  0  0
   62.6380   31.5780   48.2550 C   0  0  0  0  0  0  0  0  0  0  0  0
   63.6900   31.9950   47.5230 N   0  0  0  0  0  0  0  0  0  0  0  0
   63.6570   33.1020   46.7510 C   0  0  0  0  0  0  0  0  0  0  0  0
   61.4870   32.3290   48.1990 C   0  0  0  0  0  0  0  0  0  0  0  0
   58.8360   33.3290   45.6180 C   0  0  0  0  0  0  0  0  0  0  0  0
   58.4360   33.3400   44.2840 C   0  0  0  0  0  0  0  0  0  0  0  0
   57.6900   32.2730   43.7700 C   0  0  0  0  0  0  0  0  0  0  0  0
   57.3650   31.2350   44.5980 C   0  0  0  0  0  0  0  0  0  0  0  0
   56.4560   29.8300   44.0930 S   0  0  0  0  0  0  0  0  0  0  0  0
   55.8370   30.0670   42.7390 O   0  0  0  0  0  0  0  0  0  0  0  0
   55.3260   29.5630   45.0570 O   0  0  0  0  0  0  0  0  0  0  0  0
   57.5360   28.4150   43.9710 C   0  0  0  0  0  0  0  0  0  0  0  0
   57.3690   27.5430   45.1330 C   0  0  0  0  0  0  0  0  0  0  0  0
   62.4970   33.8750   46.6830 C   0  0  0  0  0  0  0  0  0  0  0  0
   61.4330   33.4590   47.4200 C   0  0  0  0  0  0  0  0  0  0  0  0
   57.9790   25.4460   47.8360 O   0  0  0  0  0  0  0  0  0  0  0  0
   56.2700   26.4150   46.6580 N   0  0  0  0  0  0  0  0  0  0  0  0
   56.1360   27.2110   45.6260 N   0  0  0  0  0  0  0  0  0  0  0  0
   57.7790   31.2540   45.9280 C   0  0  0  0  0  0  0  0  0  0  0  0
   58.5130   32.2810   46.4720 C   0  0  0  0  0  0  0  0  0  0  0  0
   59.3459   26.9307   45.8353 H   0  0  0  0  0  0  0  0  0  0  0  0
   62.6976   30.6708   48.8742 H   0  0  0  0  0  0  0  0  0  0  0  0
   64.5540   31.3980   47.5880 H   0  0  0  0  0  0  0  0  0  0  0  0
   64.5465   33.3954   46.1742 H   0  0  0  0  0  0  0  0  0  0  0  0
   60.6052   32.0231   48.7811 H   0  0  0  0  0  0  0  0  0  0  0  0
   58.7060   34.1862   43.6351 H   0  0  0  0  0  0  0  0  0  0  0  0
   57.3706   32.2698   42.7174 H   0  0  0  0  0  0  0  0  0  0  0  0
   57.2935   27.8519   43.0577 H   0  0  0  0  0  0  0  0  0  0  0  0
   58.5784   28.7645   43.9347 H   0  0  0  0  0  0  0  0  0  0  0  0
   62.4459   34.7806   46.0607 H   0  0  0  0  0  0  0  0  0  0  0  0
   55.4830   26.0190   47.2150 H   0  0  0  0  0  0  0  0  0  0  0  0
   55.2090   27.5280   45.2600 H   0  0  0  0  0  0  0  0  0  0  0  0
   57.5054   30.4066   46.5738 H   0  0  0  0  0  0  0  0  0  0  0  0
   58.8277   32.2739   47.5260 H   0  0  0  0  0  0  0  0  0  0  0  0
  1  2  2  0
  2  3  1  0
  3  4  2  3
  4  5  1  0
  5  6  2  0
  6  7  1  0
  7  8  1  0
  8  9  2  0
  2 10  1  0
 10 11  2  0
 11 12  1  0
 12 13  2  0
 13 14  1  0
 14 15  2  0
 14 16  2  0
 14 17  1  0
 17 18  1  0
 18 19  2  0
 19 20  1  0
 20 21  2  0
 20 22  1  0
 22 23  1  0
 13 24  1  0
 24 25  2  0
  9  4  1  0
 25 10  1  0
 23 18  1  0
  5 26  1  0
  6 27  1  0
  7 28  1  0
  8 29  1  0
  9 30  1  0
 11 31  1  0
 12 32  1  0
 17 33  1  0
 17 34  1  0
 19 35  1  0
 22 36  1  0
 23 37  1  0
 24 38  1  0
 25 39  1  0
M  END
>  <smiles>  (19) 
O=C(N=c1cc[nH]cc1)c1ccc(S(=O)(=O)Cc2cc(=O)[nH][nH]2)cc1

>  <score_type>  (19) 
oracle

>  <origin>  (19) 
adg

>  <m_score__min__energy>  (19) 
-10.44

>  <m_primary>  (19) 
energy

$$$$
19:0
     RDKit          3D

 32 34  0  0  0  0  0  0  0  0999 V2000
   55.7070   28.7700   44.8700 N   0  0  0  0  0  0  0  0  0  0  0  0
   56.5260   29.7840   44.2770 C   0  0  0  0  0  0  0  0  0  0  0  0
   56.2070   30.2310   43.0300 N   0  0  0  0  0  0  0  0  0  0  0  0
   56.9400   31.1760   42.3880 C   0  0  0  0  0  0  0  0  0  0  0  0
   58.0670   31.7190   43.0000 C   0  0  0  0  0  0  0  0  0  0  0  0
   58.4250   31.2880   44.2770 C   0  0  0  0  0  0  0  0  0  0  0  0
   57.6530   30.3220   44.9440 C   0  0  0  0  0  0  0  0  0  0  0  0
   58.0680   29.8700   46.3190 C   0  0  0  0  0  0  0  0  0  0  0  0
   59.4190   28.6540   46.1870 S   0  0  0  0  0  0  0  0  0  0  0  0
   58.3040   27.2760   45.9510 C   0  0  0  0  0  0  0  0  0  0  0  0
   57.1170   27.1510   46.5680 N   0  0  0  0  0  0  0  0  0  0  0  0
   56.5950   26.0150   46.1350 N   0  0  0  0  0  0  0  0  0  0  0  0
   57.4860   25.4900   45.2690 C   0  0  0  0  0  0  0  0  0  0  0  0
   57.2960   24.2140   44.5470 C   0  0  0  0  0  0  0  0  0  0  0  0
   56.2590   24.0850   43.6050 C   0  0  0  0  0  0  0  0  0  0  0  0
   56.0730   22.8820   42.9180 C   0  0  0  0  0  0  0  0  0  0  0  0
   56.9160   21.7970   43.1620 C   0  0  0  0  0  0  0  0  0  0  0  0
   57.9490   21.9130   44.0940 C   0  0  0  0  0  0  0  0  0  0  0  0
   58.1420   23.1130   44.7870 C   0  0  0  0  0  0  0  0  0  0  0  0
   59.1560   23.1930   45.6870 F   0  0  0  0  0  0  0  0  0  0  0  0
   58.5400   26.2630   45.1540 O   0  0  0  0  0  0  0  0  0  0  0  0
   56.0640   27.7900   44.9340 H   0  0  0  0  0  0  0  0  0  0  0  0
   54.7690   28.9690   45.2780 H   0  0  0  0  0  0  0  0  0  0  0  0
   56.6437   31.5131   41.3837 H   0  0  0  0  0  0  0  0  0  0  0  0
   58.6686   32.4800   42.4814 H   0  0  0  0  0  0  0  0  0  0  0  0
   59.3173   31.7069   44.7651 H   0  0  0  0  0  0  0  0  0  0  0  0
   58.4132   30.7379   46.9001 H   0  0  0  0  0  0  0  0  0  0  0  0
   57.2083   29.4047   46.8234 H   0  0  0  0  0  0  0  0  0  0  0  0
   55.5905   24.9360   43.4079 H   0  0  0  0  0  0  0  0  0  0  0  0
   55.2598   22.7903   42.1829 H   0  0  0  0  0  0  0  0  0  0  0  0
   56.7667   20.8512   42.6205 H   0  0  0  0  0  0  0  0  0  0  0  0
   58.6138   21.0575   44.2842 H   0  0  0  0  0  0  0  0  0  0  0  0
  1  2  1  0
  2  3  2  0
  3  4  1  0
  4  5  2  0
  5  6  1  0
  6  7  2  0
  7  8  1  0
  8  9  1  0
  9 10  1  0
 10 11  2  0
 11 12  1  0
 12 13  2  0
 13 14  1  0
 14 15  2  0
 15 16  1  0
 16 17  2  0
 17 18  1  0
 18 19  2  0
 19 20  1  0
 13 21  1  0
  7  2  1  0
 21 10  1  0
 19 14  1  0
  1 22  1  0
  1 23  1  0
  4 24  1  0
  5 25  1  0
  6 26  1  0
  8 27  1  0
  8 28  1  0
 15 29  1  0
 16 30  1  0
 17 31  1  0
 18 32  1  0
M  END
>  <UniqueID>  (20) 
17

>  <SMILES>  (20) 
Nc1ncccc1CSc1nnc(-c2ccccc2F)o1

>  <Energy>  (20) 
67.56957081105875

>  <Genealogy>  (20) 
Nc1ncccc1CSc1nnc(-c2ccccc2F)o1 (3D coordinates assigned)
Nc1ncccc1CSc1nnc(-c2ccccc2F)o1 (optimized conformer: 67.56957081105875 kcal/mol)

>  <smiles>  (20) 
Nc1ncccc1CSc1nnc(-c2ccccc2F)o1

>  <score_type>  (20) 
oracle

>  <origin>  (20) 
adg

>  <m_score__min__energy>  (20) 
-8.7699999999999996

>  <m_primary>  (20) 
energy

$$$$
20:0
     RDKit          3D

 41 43  0  0  0  0  0  0  0  0999 V2000
   54.7580   29.5650   53.1930 O   0  0  0  0  0  0  0  0  0  0  0  0
   54.3570   30.6050   52.6020 C   0  0  0  0  0  0  0  0  0  0  0  0
   52.9430   31.0540   52.7720 C   0  0  0  0  0  0  0  0  0  0  0  0
   52.2320   31.0020   51.4560 C   0  0  0  0  0  0  0  0  0  0  0  0
   52.4370   29.8010   50.2900 S   0  0  0  0  0  0  0  0  0  0  0  0
   51.4040   30.5660   49.2060 C   0  0  0  0  0  0  0  0  0  0  0  0
   51.1220   30.1220   48.0620 O   0  0  0  0  0  0  0  0  0  0  0  0
   50.9070   31.7240   49.6880 N   0  0  0  0  0  0  0  0  0  0  0  0
   51.3760   31.9710   50.9390 C   0  0  0  0  0  0  0  0  0  0  0  0
   51.0200   33.1170   51.6380 O   0  0  0  0  0  0  0  0  0  0  0  0
   55.2400   31.3600   51.7640 N   0  0  0  0  0  0  0  0  0  0  0  0
   56.6210   31.6540   52.0280 C   0  0  0  0  0  0  0  0  0  0  0  0
   57.0460   32.9550   52.3440 C   0  0  0  0  0  0  0  0  0  0  0  0
   58.3930   33.2120   52.5940 C   0  0  0  0  0  0  0  0  0  0  0  0
   59.3330   32.1870   52.4980 C   0  0  0  0  0  0  0  0  0  0  0  0
   58.9410   30.8870   52.1370 C   0  0  0  0  0  0  0  0  0  0  0  0
   59.9860   29.8560   51.9710 C   0  0  0  0  0  0  0  0  0  0  0  0
   59.7490   28.6560   52.2720 O   0  0  0  0  0  0  0  0  0  0  0  0
   61.2570   30.2160   51.4160 N   0  0  0  0  0  0  0  0  0  0  0  0
   61.5130   30.3060   49.9830 C   0  0  0  0  0  0  0  0  0  0  0  0
   60.7120   31.4340   49.3800 C   0  0  0  0  0  0  0  0  0  0  0  0
   61.1060   32.7640   49.6080 C   0  0  0  0  0  0  0  0  0  0  0  0
   60.3590   33.8230   49.0880 C   0  0  0  0  0  0  0  0  0  0  0  0
   59.2110   33.5680   48.3360 C   0  0  0  0  0  0  0  0  0  0  0  0
   58.8050   32.2520   48.1060 C   0  0  0  0  0  0  0  0  0  0  0  0
   59.5460   31.1820   48.6240 C   0  0  0  0  0  0  0  0  0  0  0  0
   58.9790   29.5440   48.3160 Cl  0  0  0  0  0  0  0  0  0  0  0  0
   57.5650   30.6170   51.9240 C   0  0  0  0  0  0  0  0  0  0  0  0
   57.0960   29.3280   51.6490 O   0  0  0  0  0  0  0  0  0  0  0  0
   52.4337   30.3927   53.4885 H   0  0  0  0  0  0  0  0  0  0  0  0
   52.9333   32.0873   53.1491 H   0  0  0  0  0  0  0  0  0  0  0  0
   56.3133   33.7739   52.3944 H   0  0  0  0  0  0  0  0  0  0  0  0
   58.7155   34.2273   52.8681 H   0  0  0  0  0  0  0  0  0  0  0  0
   60.3921   32.3981   52.7070 H   0  0  0  0  0  0  0  0  0  0  0  0
   62.5843   30.4916   49.8163 H   0  0  0  0  0  0  0  0  0  0  0  0
   61.2168   29.3604   49.5055 H   0  0  0  0  0  0  0  0  0  0  0  0
   62.0093   32.9720   50.2003 H   0  0  0  0  0  0  0  0  0  0  0  0
   60.6759   34.8603   49.2714 H   0  0  0  0  0  0  0  0  0  0  0  0
   58.6261   34.4039   47.9246 H   0  0  0  0  0  0  0  0  0  0  0  0
   57.8986   32.0544   47.5150 H   0  0  0  0  0  0  0  0  0  0  0  0
   56.1160   29.0850   51.6200 H   0  0  0  0  0  0  0  0  0  0  0  0
  1  2  2  0
  2  3  1  0
  3  4  1  0
  4  5  1  0
  5  6  1  0
  6  7  2  0
  6  8  1  0
  8  9  1  0
  9 10  1  0
  2 11  1  0
 11 12  1  0
 12 13  2  0
 13 14  1  0
 14 15  2  0
 15 16  1  0
 16 17  1  0
 17 18  2  0
 17 19  1  0
 19 20  1  0
 20 21  1  0
 21 22  2  0
 22 23  1  0
 23 24  2  0
 24 25  1  0
 25 26  2  0
 26 27  1  0
 16 28  2  0
 28 29  1  0
  9  4  2  0
 28 12  1  0
 26 21  1  0
  3 30  1  0
  3 31  1  0
 13 32  1  0
 14 33  1  0
 15 34  1  0
 20 35  1  0
 20 36  1  0
 22 37  1  0
 23 38  1  0
 24 39  1  0
 25 40  1  0
 29 41  1  0
M  CHG  4   8  -1  10  -1  11  -1  19  -1
M  END
>  <UniqueID>  (21) 
18

>  <SMILES>  (21) 
O=C(Cc1sc(=O)[n-]c1[O-])[N-]c1cccc(C(=O)[N-]Cc2ccccc2Cl)c1O

>  <Energy>  (21) 
80.33910190856164

>  <Genealogy>  (21) 
O=C(Cc1sc(=O)[n-]c1[O-])[N-]c1cccc(C(=O)[N-]Cc2ccccc2Cl)c1O (protonated)
O=C(Cc1sc(=O)[n-]c1[O-])[N-]c1cccc(C(=O)[N-]Cc2ccccc2Cl)c1O (3D coordinates assigned)
O=C(Cc1sc(=O)[n-]c1[O-])[N-]c1cccc(C(=O)[N-]Cc2ccccc2Cl)c1O (optimized conformer: 80.33910190856164 kcal/mol)

>  <smiles>  (21) 
O=C(Cc1sc(=O)[nH]c1O)Nc1cccc(C(=O)NCc2ccccc2Cl)c1O

>  <score_type>  (21) 
oracle

>  <origin>  (21) 
adg

>  <m_score__min__energy>  (21) 
-17.859999999999999

>  <m_primary>  (21) 
energy

$$$$
21:0
     RDKit          3D

 39 41  0  0  0  0  0  0  0  0999 V2000
   55.2220   29.3050   44.8550 N   0  0  0  0  0  0  0  0  0  0  0  0
   56.4940   29.6190   44.2910 C   0  0  0  0  0  0  0  0  0  0  0  0
   56.5470   30.0390   43.1040 O   0  0  0  0  0  0  0  0  0  0  0  0
   57.7350   29.4560   45.0920 C   0  0  0  0  0  0  0  0  0  0  0  0
   57.8480   30.0800   46.3500 C   0  0  0  0  0  0  0  0  0  0  0  0
   59.0010   29.9270   47.1300 C   0  0  0  0  0  0  0  0  0  0  0  0
   59.0720   30.5950   48.3980 N   0  0  0  0  0  0  0  0  0  0  0  0
   59.6700   31.8750   48.6490 C   0  0  0  0  0  0  0  0  0  0  0  0
   59.1670   32.6110   49.5390 O   0  0  0  0  0  0  0  0  0  0  0  0
   60.9090   32.3070   47.9570 C   0  0  0  0  0  0  0  0  0  0  0  0
   62.0900   31.5740   48.1680 C   0  0  0  0  0  0  0  0  0  0  0  0
   63.2900   31.9750   47.5800 C   0  0  0  0  0  0  0  0  0  0  0  0
   63.3290   33.1130   46.7770 C   0  0  0  0  0  0  0  0  0  0  0  0
   62.1660   33.8530   46.5540 C   0  0  0  0  0  0  0  0  0  0  0  0
   60.9480   33.4650   47.1370 C   0  0  0  0  0  0  0  0  0  0  0  0
   59.7300   34.2380   46.8160 C   0  0  0  0  0  0  0  0  0  0  0  0
   59.5060   35.3310   47.4020 O   0  0  0  0  0  0  0  0  0  0  0  0
   58.7960   33.7630   45.8450 N   0  0  0  0  0  0  0  0  0  0  0  0
   58.6930   32.6770   44.8530 C   0  0  0  0  0  0  0  0  0  0  0  0
   57.4020   33.1310   44.2550 C   0  0  0  0  0  0  0  0  0  0  0  0
   57.5220   34.2220   45.2660 C   0  0  0  0  0  0  0  0  0  0  0  0
   60.0760   29.1780   46.6300 C   0  0  0  0  0  0  0  0  0  0  0  0
   59.9780   28.5530   45.3860 C   0  0  0  0  0  0  0  0  0  0  0  0
   58.8180   28.6830   44.6190 C   0  0  0  0  0  0  0  0  0  0  0  0
   58.7640   28.0600   43.4140 F   0  0  0  0  0  0  0  0  0  0  0  0
   55.1410   28.6460   45.6620 H   0  0  0  0  0  0  0  0  0  0  0  0
   57.0180   30.6967   46.7253 H   0  0  0  0  0  0  0  0  0  0  0  0
   62.0677   30.6758   48.8027 H   0  0  0  0  0  0  0  0  0  0  0  0
   64.2069   31.3917   47.7507 H   0  0  0  0  0  0  0  0  0  0  0  0
   64.2774   33.4290   46.3180 H   0  0  0  0  0  0  0  0  0  0  0  0
   62.2038   34.7482   45.9159 H   0  0  0  0  0  0  0  0  0  0  0  0
   59.5215   32.6829   44.1294 H   0  0  0  0  0  0  0  0  0  0  0  0
   58.7339   31.6456   45.2331 H   0  0  0  0  0  0  0  0  0  0  0  0
   57.4519   33.4503   43.2035 H   0  0  0  0  0  0  0  0  0  0  0  0
   56.5156   32.4889   44.1458 H   0  0  0  0  0  0  0  0  0  0  0  0
   57.5993   35.2188   44.8072 H   0  0  0  0  0  0  0  0  0  0  0  0
   56.6780   34.3569   45.9585 H   0  0  0  0  0  0  0  0  0  0  0  0
   60.9994   29.0828   47.2202 H   0  0  0  0  0  0  0  0  0  0  0  0
   60.8195   27.9543   45.0072 H   0  0  0  0  0  0  0  0  0  0  0  0
  1  2  1  0
  2  3  2  0
  2  4  1  0
  4  5  2  0
  5  6  1  0
  6  7  1  0
  7  8  1  0
  8  9  2  0
  8 10  1  0
 10 11  2  0
 11 12  1  0
 12 13  2  0
 13 14  1  0
 14 15  2  0
 15 16  1  0
 16 17  2  0
 16 18  1  0
 18 19  1  0
 19 20  1  0
 20 21  1  0
  6 22  2  0
 22 23  1  0
 23 24  2  0
 24 25  1  0
 24  4  1  0
 15 10  1  0
 21 18  1  0
  1 26  1  0
  5 27  1  0
 11 28  1  0
 12 29  1  0
 13 30  1  0
 14 31  1  0
 19 32  1  0
 19 33  1  0
 20 34  1  0
 20 35  1  0
 21 36  1  0
 21 37  1  0
 22 38  1  0
 23 39  1  0
M  CHG  2   1  -1   7  -1
M  END
>  <UniqueID>  (22) 
19

>  <SMILES>  (22) 
[NH-]C(=O)c1cc([N-]C(=O)c2ccccc2C(=O)N2CCC2)ccc1F

>  <Energy>  (22) 
98.34698569605735

>  <Genealogy>  (22) 
[NH-]C(=O)c1cc([N-]C(=O)c2ccccc2C(=O)N2CCC2)ccc1F (protonated)
[NH-]C(=O)c1cc([N-]C(=O)c2ccccc2C(=O)N2CCC2)ccc1F (3D coordinates assigned)
[NH-]C(=O)c1cc([N-]C(=O)c2ccccc2C(=O)N2CCC2)ccc1F (nonaromatic ring conformer: 98.34698569605735 kcal/mol)

>  <smiles>  (22) 
NC(=O)c1cc(NC(=O)c2ccccc2C(=O)N2CCC2)ccc1F

>  <score_type>  (22) 
oracle

>  <origin>  (22) 
adg

>  <m_score__min__energy>  (22) 
-12.390000000000001

>  <m_primary>  (22) 
energy

$$$$
22:0
     RDKit          3D

 48 51  0  0  0  0  0  0  0  0999 V2000
   58.8890   22.7810   45.6980 O   0  0  0  0  0  0  0  0  0  0  0  0
   57.9150   23.2280   46.3600 C   0  0  0  0  0  0  0  0  0  0  0  0
   57.3860   22.4320   47.4280 N   0  0  0  0  0  0  0  0  0  0  0  0
   55.9930   22.2810   47.7450 C   0  0  0  0  0  0  0  0  0  0  0  0
   55.5420   22.3560   49.0760 C   0  0  0  0  0  0  0  0  0  0  0  0
   54.1850   22.2020   49.3700 C   0  0  0  0  0  0  0  0  0  0  0  0
   53.2670   21.9790   48.3430 C   0  0  0  0  0  0  0  0  0  0  0  0
   53.7030   21.9130   47.0170 C   0  0  0  0  0  0  0  0  0  0  0  0
   55.0630   22.0770   46.7080 C   0  0  0  0  0  0  0  0  0  0  0  0
   55.5030   22.0110   45.3400 N   0  0  0  0  0  0  0  0  0  0  0  0
   56.0710   20.7660   44.8210 C   0  0  0  0  0  0  0  0  0  0  0  0
   56.9870   21.0790   43.6340 C   0  0  0  0  0  0  0  0  0  0  0  0
   56.3030   21.8560   42.6690 O   0  0  0  0  0  0  0  0  0  0  0  0
   55.9860   23.1250   43.2130 C   0  0  0  0  0  0  0  0  0  0  0  0
   54.9980   22.9900   44.3760 C   0  0  0  0  0  0  0  0  0  0  0  0
   57.3850   24.5780   46.0580 C   0  0  0  0  0  0  0  0  0  0  0  0
   58.0220   25.3990   45.1160 C   0  0  0  0  0  0  0  0  0  0  0  0
   57.5270   26.6770   44.8490 C   0  0  0  0  0  0  0  0  0  0  0  0
   56.4010   27.1360   45.5370 C   0  0  0  0  0  0  0  0  0  0  0  0
   55.8990   28.4120   45.2540 O   0  0  0  0  0  0  0  0  0  0  0  0
   56.6170   29.4580   44.6560 C   0  0  0  0  0  0  0  0  0  0  0  0
   56.2720   29.9850   43.3960 C   0  0  0  0  0  0  0  0  0  0  0  0
   57.0150   31.0350   42.8450 C   0  0  0  0  0  0  0  0  0  0  0  0
   58.0930   31.5770   43.5520 C   0  0  0  0  0  0  0  0  0  0  0  0
   58.4260   31.0750   44.8130 C   0  0  0  0  0  0  0  0  0  0  0  0
   57.6880   30.0220   45.3630 C   0  0  0  0  0  0  0  0  0  0  0  0
   55.7910   26.3240   46.4450 N   0  0  0  0  0  0  0  0  0  0  0  0
   56.2540   25.0780   46.7230 C   0  0  0  0  0  0  0  0  0  0  0  0
   56.2612   22.5367   49.8885 H   0  0  0  0  0  0  0  0  0  0  0  0
   53.8395   22.2566   50.4129 H   0  0  0  0  0  0  0  0  0  0  0  0
   52.1994   21.8551   48.5774 H   0  0  0  0  0  0  0  0  0  0  0  0
   52.9769   21.7316   46.2108 H   0  0  0  0  0  0  0  0  0  0  0  0
   56.6525   20.2703   45.6123 H   0  0  0  0  0  0  0  0  0  0  0  0
   55.2586   20.1012   44.4921 H   0  0  0  0  0  0  0  0  0  0  0  0
   57.8646   21.6374   43.9919 H   0  0  0  0  0  0  0  0  0  0  0  0
   57.3018   20.1329   43.1695 H   0  0  0  0  0  0  0  0  0  0  0  0
   56.9082   23.6012   43.5773 H   0  0  0  0  0  0  0  0  0  0  0  0
   55.5216   23.7383   42.4268 H   0  0  0  0  0  0  0  0  0  0  0  0
   54.8812   23.9649   44.8718 H   0  0  0  0  0  0  0  0  0  0  0  0
   54.0244   22.6533   43.9903 H   0  0  0  0  0  0  0  0  0  0  0  0
   58.9144   25.0349   44.5859 H   0  0  0  0  0  0  0  0  0  0  0  0
   58.0198   27.3175   44.1027 H   0  0  0  0  0  0  0  0  0  0  0  0
   55.4161   29.5699   42.8436 H   0  0  0  0  0  0  0  0  0  0  0  0
   56.7509   31.4345   41.8547 H   0  0  0  0  0  0  0  0  0  0  0  0
   58.6792   32.3990   43.1153 H   0  0  0  0  0  0  0  0  0  0  0  0
   59.2682   31.5079   45.3727 H   0  0  0  0  0  0  0  0  0  0  0  0
   57.9500   29.6333   46.3581 H   0  0  0  0  0  0  0  0  0  0  0  0
   55.7407   24.4577   47.4725 H   0  0  0  0  0  0  0  0  0  0  0  0
  1  2  2  0
  2  3  1  0
  3  4  1  0
  4  5  2  0
  5  6  1  0
  6  7  2  0
  7  8  1  0
  8  9  2  0
  9 10  1  0
 10 11  1  0
 11 12  1  0
 12 13  1  0
 13 14  1  0
 14 15  1  0
  2 16  1  0
 16 17  2  0
 17 18  1  0
 18 19  2  0
 19 20  1  0
 20 21  1  0
 21 22  2  0
 22 23  1  0
 23 24  2  0
 24 25  1  0
 25 26  2  0
 19 27  1  0
 27 28  2  0
  9  4  1  0
 15 10  1  0
 28 16  1  0
 26 21  1  0
  5 29  1  0
  6 30  1  0
  7 31  1  0
  8 32  1  0
 11 33  1  0
 11 34  1  0
 12 35  1  0
 12 36  1  0
 14 37  1  0
 14 38  1  0
 15 39  1  0
 15 40  1  0
 17 41  1  0
 18 42  1  0
 22 43  1  0
 23 44  1  0
 24 45  1  0
 25 46  1  0
 26 47  1  0
 28 48  1  0
M  CHG  1   3  -1
M  END
>  <UniqueID>  (23) 
20

>  <SMILES>  (23) 
O=C([N-]c1ccccc1N1CCOCC1)c1ccc(Oc2ccccc2)nc1

>  <Energy>  (23) 
70.12698038303004

>  <Genealogy>  (23) 
O=C([N-]c1ccccc1N1CCOCC1)c1ccc(Oc2ccccc2)nc1 (protonated)
O=C([N-]c1ccccc1N1CCOCC1)c1ccc(Oc2ccccc2)nc1 (3D coordinates assigned)
O=C([N-]c1ccccc1N1CCOCC1)c1ccc(Oc2ccccc2)nc1 (nonaromatic ring conformer: 70.12698038303004 kcal/mol)

>  <smiles>  (23) 
O=C(Nc1ccccc1N1CCOCC1)c1ccc(Oc2ccccc2)nc1

>  <score_type>  (23) 
oracle

>  <origin>  (23) 
adg

>  <m_score__min__energy>  (23) 
-9.3399999999999999

>  <m_primary>  (23) 
energy

$$$$
23:0
     RDKit          3D

 49 50  0  0  0  0  0  0  0  0999 V2000
   55.8910   23.6230   43.8150 C   0  0  0  0  0  0  0  0  0  0  0  0
   55.1480   23.8030   44.9110 C   0  0  0  0  0  0  0  0  0  0  0  0
   55.7680   24.0720   46.2550 C   0  0  0  0  0  0  0  0  0  0  0  0
   56.8360   25.1370   46.1480 C   0  0  0  0  0  0  0  0  0  0  0  0
   58.1950   24.7710   46.1480 C   0  0  0  0  0  0  0  0  0  0  0  0
   58.5570   23.4300   46.2790 O   0  0  0  0  0  0  0  0  0  0  0  0
   59.1860   25.7490   46.0150 C   0  0  0  0  0  0  0  0  0  0  0  0
   58.8440   27.1060   45.8680 C   0  0  0  0  0  0  0  0  0  0  0  0
   59.8260   28.1060   45.7700 O   0  0  0  0  0  0  0  0  0  0  0  0
   60.3560   28.6080   44.5470 C   0  0  0  0  0  0  0  0  0  0  0  0
   57.4840   27.4740   45.8370 C   0  0  0  0  0  0  0  0  0  0  0  0
   57.0920   28.8860   45.6390 C   0  0  0  0  0  0  0  0  0  0  0  0
   57.5020   29.7600   46.4490 O   0  0  0  0  0  0  0  0  0  0  0  0
   56.1260   29.2810   44.5520 C   0  0  0  0  0  0  0  0  0  0  0  0
   56.8290   29.4430   43.1930 C   0  0  0  0  0  0  0  0  0  0  0  0
   56.9940   30.9080   42.7550 C   0  0  0  0  0  0  0  0  0  0  0  0
   57.8460   31.7040   43.7140 C   0  0  0  0  0  0  0  0  0  0  0  0
   57.3450   32.5630   44.6110 C   0  0  0  0  0  0  0  0  0  0  0  0
   58.1590   33.2860   45.6090 C   0  0  0  0  0  0  0  0  0  0  0  0
   58.8960   34.4310   45.2530 C   0  0  0  0  0  0  0  0  0  0  0  0
   59.6490   35.1090   46.2160 C   0  0  0  0  0  0  0  0  0  0  0  0
   59.6540   34.6650   47.5410 C   0  0  0  0  0  0  0  0  0  0  0  0
   58.8950   33.5500   47.9090 C   0  0  0  0  0  0  0  0  0  0  0  0
   58.1430   32.8670   46.9470 C   0  0  0  0  0  0  0  0  0  0  0  0
   56.4860   26.4920   45.9890 C   0  0  0  0  0  0  0  0  0  0  0  0
   55.1450   26.8640   45.9630 O   0  0  0  0  0  0  0  0  0  0  0  0
   55.4056   23.4281   42.8473 H   0  0  0  0  0  0  0  0  0  0  0  0
   56.9881   23.6697   43.8805 H   0  0  0  0  0  0  0  0  0  0  0  0
   54.0523   23.7531   44.8281 H   0  0  0  0  0  0  0  0  0  0  0  0
   54.9872   24.4124   46.9511 H   0  0  0  0  0  0  0  0  0  0  0  0
   56.2299   23.1441   46.6232 H   0  0  0  0  0  0  0  0  0  0  0  0
   58.5590   22.7990   45.4880 H   0  0  0  0  0  0  0  0  0  0  0  0
   60.2456   25.4538   46.0254 H   0  0  0  0  0  0  0  0  0  0  0  0
   61.1390   29.3496   44.7637 H   0  0  0  0  0  0  0  0  0  0  0  0
   60.7868   27.7790   43.9664 H   0  0  0  0  0  0  0  0  0  0  0  0
   59.5515   29.0831   43.9664 H   0  0  0  0  0  0  0  0  0  0  0  0
   55.3534   28.5032   44.4626 H   0  0  0  0  0  0  0  0  0  0  0  0
   55.6824   30.2499   44.8248 H   0  0  0  0  0  0  0  0  0  0  0  0
   57.8273   28.9861   43.2614 H   0  0  0  0  0  0  0  0  0  0  0  0
   56.1941   28.9515   42.4412 H   0  0  0  0  0  0  0  0  0  0  0  0
   57.4669   30.9285   41.7620 H   0  0  0  0  0  0  0  0  0  0  0  0
   55.9942   31.3664   42.7355 H   0  0  0  0  0  0  0  0  0  0  0  0
   58.9372   31.5712   43.6738 H   0  0  0  0  0  0  0  0  0  0  0  0
   56.2596   32.7412   44.6040 H   0  0  0  0  0  0  0  0  0  0  0  0
   58.8794   34.7932   44.2145 H   0  0  0  0  0  0  0  0  0  0  0  0
   60.2382   35.9929   45.9305 H   0  0  0  0  0  0  0  0  0  0  0  0
   60.2557   35.1933   48.2952 H   0  0  0  0  0  0  0  0  0  0  0  0
   58.8891   33.2097   48.9550 H   0  0  0  0  0  0  0  0  0  0  0  0
   57.5367   31.9977   47.2415 H   0  0  0  0  0  0  0  0  0  0  0  0
  1  2  2  0
  2  3  1  0
  3  4  1  0
  4  5  2  0
  5  6  1  0
  5  7  1  0
  7  8  2  0
  8  9  1  0
  9 10  1  0
  8 11  1  0
 11 12  1  0
 12 13  2  0
 12 14  1  0
 14 15  1  0
 15 16  1  0
 16 17  1  0
 17 18  2  3
 18 19  1  0
 19 20  2  0
 20 21  1  0
 21 22  2  0
 22 23  1  0
 23 24  2  0
 11 25  2  0
 25 26  1  0
 25  4  1  0
 24 19  1  0
  1 27  1  0
  1 28  1  0
  2 29  1  0
  3 30  1  0
  3 31  1  0
  6 32  1  0
  7 33  1  0
 10 34  1  0
 10 35  1  0
 10 36  1  0
 14 37  1  0
 14 38  1  0
 15 39  1  0
 15 40  1  0
 16 41  1  0
 16 42  1  0
 17 43  1  0
 18 44  1  0
 20 45  1  0
 21 46  1  0
 22 47  1  0
 23 48  1  0
 24 49  1  0
M  CHG  1  26  -1
M  END
>  <UniqueID>  (24) 
21

>  <SMILES>  (24) 
C=CCc1c(O)cc(OC)c(C(=O)CCCC=Cc2ccccc2)c1[O-]

>  <Energy>  (24) 
53.54022315055965

>  <Genealogy>  (24) 
C=CCc1c(O)cc(OC)c(C(=O)CCCC=Cc2ccccc2)c1[O-] (protonated)
C=CCc1c(O)cc(OC)c(C(=O)CCCC=Cc2ccccc2)c1[O-] (3D coordinates assigned)
C=CCc1c(O)cc(OC)c(C(=O)CCCC=Cc2ccccc2)c1[O-] (optimized conformer: 53.54022315055965 kcal/mol)

>  <smiles>  (24) 
C=CCc1c(O)cc(OC)c(C(=O)CCCC=Cc2ccccc2)c1O

>  <score_type>  (24) 
oracle

>  <origin>  (24) 
adg

>  <m_score__min__energy>  (24) 
-11.640000000000001

>  <m_primary>  (24) 
energy

$$$$
24:0
     RDKit          3D

 45 47  0  0  0  0  0  0  0  0999 V2000
   55.3300   29.0150   44.8650 O   0  0  0  0  0  0  0  0  0  0  0  0
   56.4750   29.5190   44.7290 C   0  0  0  0  0  0  0  0  0  0  0  0
   57.6800   28.6390   44.9490 C   0  0  0  0  0  0  0  0  0  0  0  0
   57.4640   27.6900   45.9910 O   0  0  0  0  0  0  0  0  0  0  0  0
   57.9470   26.3770   45.9620 C   0  0  0  0  0  0  0  0  0  0  0  0
   59.1400   26.1380   46.2960 O   0  0  0  0  0  0  0  0  0  0  0  0
   57.0330   25.2750   45.5680 C   0  0  0  0  0  0  0  0  0  0  0  0
   57.5800   24.0520   45.1330 C   0  0  0  0  0  0  0  0  0  0  0  0
   56.7530   23.0100   44.7100 C   0  0  0  0  0  0  0  0  0  0  0  0
   55.3680   23.1670   44.7220 C   0  0  0  0  0  0  0  0  0  0  0  0
   54.8060   24.3680   45.1580 C   0  0  0  0  0  0  0  0  0  0  0  0
   55.6260   25.4260   45.5790 C   0  0  0  0  0  0  0  0  0  0  0  0
   55.0390   26.6210   45.9970 O   0  0  0  0  0  0  0  0  0  0  0  0
   56.5760   30.9000   44.3460 N   0  0  0  0  0  0  0  0  0  0  0  0
   57.3740   31.9090   44.9770 C   0  0  0  0  0  0  0  0  0  0  0  0
   57.9490   31.6370   46.2220 C   0  0  0  0  0  0  0  0  0  0  0  0
   58.6920   32.6170   46.8870 C   0  0  0  0  0  0  0  0  0  0  0  0
   58.8890   33.8800   46.3010 C   0  0  0  0  0  0  0  0  0  0  0  0
   59.6430   34.9350   47.0150 C   0  0  0  0  0  0  0  0  0  0  0  0
   59.8890   36.0300   46.4400 O   0  0  0  0  0  0  0  0  0  0  0  0
   60.1340   34.6830   48.3030 O   0  0  0  0  0  0  0  0  0  0  0  0
   61.4130   34.1910   48.6040 C   0  0  0  0  0  0  0  0  0  0  0  0
   62.3060   33.7560   47.6060 C   0  0  0  0  0  0  0  0  0  0  0  0
   63.5760   33.2840   47.9550 C   0  0  0  0  0  0  0  0  0  0  0  0
   63.9680   33.2510   49.2970 C   0  0  0  0  0  0  0  0  0  0  0  0
   65.5610   32.6600   49.7330 Cl  0  0  0  0  0  0  0  0  0  0  0  0
   63.0920   33.7000   50.2900 C   0  0  0  0  0  0  0  0  0  0  0  0
   61.8230   34.1740   49.9430 C   0  0  0  0  0  0  0  0  0  0  0  0
   58.3500   34.1320   45.0270 C   0  0  0  0  0  0  0  0  0  0  0  0
   57.6040   33.1510   44.3680 C   0  0  0  0  0  0  0  0  0  0  0  0
   57.9005   28.0988   44.0165 H   0  0  0  0  0  0  0  0  0  0  0  0
   58.5219   29.2825   45.2440 H   0  0  0  0  0  0  0  0  0  0  0  0
   58.6716   23.9165   45.1266 H   0  0  0  0  0  0  0  0  0  0  0  0
   57.1951   22.0631   44.3665 H   0  0  0  0  0  0  0  0  0  0  0  0
   54.7182   22.3447   44.3880 H   0  0  0  0  0  0  0  0  0  0  0  0
   53.7124   24.4859   45.1717 H   0  0  0  0  0  0  0  0  0  0  0  0
   55.1270   27.4740   45.4580 H   0  0  0  0  0  0  0  0  0  0  0  0
   57.8161   30.6462   46.6810 H   0  0  0  0  0  0  0  0  0  0  0  0
   59.1250   32.3988   47.8744 H   0  0  0  0  0  0  0  0  0  0  0  0
   62.0042   33.7874   46.5487 H   0  0  0  0  0  0  0  0  0  0  0  0
   64.2674   32.9382   47.1724 H   0  0  0  0  0  0  0  0  0  0  0  0
   63.4014   33.6804   51.3454 H   0  0  0  0  0  0  0  0  0  0  0  0
   61.1420   34.5361   50.7273 H   0  0  0  0  0  0  0  0  0  0  0  0
   58.5165   35.1072   44.5461 H   0  0  0  0  0  0  0  0  0  0  0  0
   57.1954   33.3541   43.3671 H   0  0  0  0  0  0  0  0  0  0  0  0
  1  2  2  0
  2  3  1  0
  3  4  1  0
  4  5  1  0
  5  6  2  0
  5  7  1  0
  7  8  2  0
  8  9  1  0
  9 10  2  0
 10 11  1  0
 11 12  2  0
 12 13  1  0
  2 14  1  0
 14 15  1  0
 15 16  2  0
 16 17  1  0
 17 18  2  0
 18 19  1  0
 19 20  2  0
 19 21  1  0
 21 22  1  0
 22 23  2  0
 23 24  1  0
 24 25  2  0
 25 26  1  0
 25 27  1  0
 27 28  2  0
 18 29  1  0
 29 30  2  0
 12  7  1  0
 30 15  1  0
 28 22  1  0
  3 31  1  0
  3 32  1  0
  8 33  1  0
  9 34  1  0
 10 35  1  0
 11 36  1  0
 13 37  1  0
 16 38  1  0
 17 39  1  0
 23 40  1  0
 24 41  1  0
 27 42  1  0
 28 43  1  0
 29 44  1  0
 30 45  1  0
M  CHG  1  14  -1
M  END
>  <UniqueID>  (25) 
22

>  <SMILES>  (25) 
O=C(COC(=O)c1ccccc1O)[N-]c1ccc(C(=O)Oc2ccc(Cl)cc2)cc1

>  <Energy>  (25) 
54.69819425921653

>  <Genealogy>  (25) 
O=C(COC(=O)c1ccccc1O)[N-]c1ccc(C(=O)Oc2ccc(Cl)cc2)cc1 (protonated)
O=C(COC(=O)c1ccccc1O)[N-]c1ccc(C(=O)Oc2ccc(Cl)cc2)cc1 (3D coordinates assigned)
O=C(COC(=O)c1ccccc1O)[N-]c1ccc(C(=O)Oc2ccc(Cl)cc2)cc1 (optimized conformer: 54.69819425921653 kcal/mol)

>  <smiles>  (25) 
O=C(COC(=O)c1ccccc1O)Nc1ccc(C(=O)Oc2ccc(Cl)cc2)cc1

>  <score_type>  (25) 
oracle

>  <origin>  (25) 
adg

>  <m_score__min__energy>  (25) 
-11.949999999999999

>  <m_primary>  (25) 
energy

$$$$
25:0
     RDKit          3D

 21 22  0  0  0  0  0  0  0  0999 V2000
   58.2500   34.6080   46.1060 O   0  0  0  0  0  0  0  0  0  0  0  0
   57.3740   34.1690   45.3160 C   0  0  0  0  0  0  0  0  0  0  0  0
   57.5220   32.8520   44.6920 C   0  0  0  0  0  0  0  0  0  0  0  0
   57.7830   32.6060   43.3590 C   0  0  0  0  0  0  0  0  0  0  0  0
   57.8370   31.2350   43.2350 C   0  0  0  0  0  0  0  0  0  0  0  0
   57.6040   30.7270   44.5050 C   0  0  0  0  0  0  0  0  0  0  0  0
   57.5590   29.3000   44.9020 C   0  0  0  0  0  0  0  0  0  0  0  0
   58.7490   28.5520   44.9380 C   0  0  0  0  0  0  0  0  0  0  0  0
   58.7300   27.2040   45.3090 C   0  0  0  0  0  0  0  0  0  0  0  0
   57.5230   26.5880   45.6480 C   0  0  0  0  0  0  0  0  0  0  0  0
   56.3320   27.3200   45.6170 C   0  0  0  0  0  0  0  0  0  0  0  0
   55.1330   26.7060   45.9550 O   0  0  0  0  0  0  0  0  0  0  0  0
   56.3470   28.6690   45.2470 C   0  0  0  0  0  0  0  0  0  0  0  0
   57.4210   31.7200   45.3480 O   0  0  0  0  0  0  0  0  0  0  0  0
   56.4878   34.7809   45.0918 H   0  0  0  0  0  0  0  0  0  0  0  0
   57.9196   33.3506   42.5609 H   0  0  0  0  0  0  0  0  0  0  0  0
   58.0263   30.6602   42.3164 H   0  0  0  0  0  0  0  0  0  0  0  0
   59.7028   29.0312   44.6721 H   0  0  0  0  0  0  0  0  0  0  0  0
   59.6667   26.6279   45.3339 H   0  0  0  0  0  0  0  0  0  0  0  0
   57.5094   25.5273   45.9393 H   0  0  0  0  0  0  0  0  0  0  0  0
   55.4074   29.2405   45.2252 H   0  0  0  0  0  0  0  0  0  0  0  0
  1  2  2  0
  2  3  1  0
  3  4  2  0
  4  5  1  0
  5  6  2  0
  6  7  1  0
  7  8  2  0
  8  9  1  0
  9 10  2  0
 10 11  1  0
 11 12  1  0
 11 13  2  0
  6 14  1  0
 14  3  1  0
 13  7  1  0
  2 15  1  0
  4 16  1  0
  5 17  1  0
  8 18  1  0
  9 19  1  0
 10 20  1  0
 13 21  1  0
M  CHG  1  12  -1
M  END
>  <UniqueID>  (26) 
23

>  <SMILES>  (26) 
O=Cc1ccc(-c2cccc([O-])c2)o1

>  <Energy>  (26) 
47.884837576983074

>  <Genealogy>  (26) 
O=Cc1ccc(-c2cccc([O-])c2)o1 (protonated)
O=Cc1ccc(-c2cccc([O-])c2)o1 (3D coordinates assigned)
O=Cc1ccc(-c2cccc([O-])c2)o1 (optimized conformer: 47.884837576983074 kcal/mol)

>  <smiles>  (26) 
O=Cc1ccc(-c2cccc(O)c2)o1

>  <score_type>  (26) 
oracle

>  <origin>  (26) 
adg

>  <m_score__min__energy>  (26) 
-9.2300000000000004

>  <m_primary>  (26) 
energy

$$$$
26:0
     RDKit          3D

 47 49  0  0  0  0  0  0  0  0999 V2000
   51.0650   32.2870   50.1080 O   0  0  0  0  0  0  0  0  0  0  0  0
   51.1910   32.3200   51.3590 C   0  0  0  0  0  0  0  0  0  0  0  0
   50.6470   33.3760   52.0800 O   0  0  0  0  0  0  0  0  0  0  0  0
   51.9650   31.2510   52.0670 C   0  0  0  0  0  0  0  0  0  0  0  0
   52.9120   30.5220   51.1110 C   0  0  0  0  0  0  0  0  0  0  0  0
   54.2100   30.2880   51.7390 N   0  0  0  0  0  0  0  0  0  0  0  0
   55.1280   31.2190   52.0580 C   0  0  0  0  0  0  0  0  0  0  0  0
   56.2080   30.5330   52.5710 C   0  0  0  0  0  0  0  0  0  0  0  0
   57.5080   31.1130   53.0350 C   0  0  0  0  0  0  0  0  0  0  0  0
   58.5840   30.6590   52.2150 O   0  0  0  0  0  0  0  0  0  0  0  0
   58.6770   30.8440   50.8250 C   0  0  0  0  0  0  0  0  0  0  0  0
   58.3850   32.0720   50.2010 C   0  0  0  0  0  0  0  0  0  0  0  0
   58.5020   32.2040   48.8140 C   0  0  0  0  0  0  0  0  0  0  0  0
   58.9340   31.1240   48.0330 C   0  0  0  0  0  0  0  0  0  0  0  0
   59.0680   31.2970   46.5710 C   0  0  0  0  0  0  0  0  0  0  0  0
   58.7500   30.3700   45.6520 C   0  0  0  0  0  0  0  0  0  0  0  0
   59.2630   28.9830   45.6230 C   0  0  0  0  0  0  0  0  0  0  0  0
   60.4660   28.8040   45.2930 O   0  0  0  0  0  0  0  0  0  0  0  0
   58.4390   27.8120   46.0120 C   0  0  0  0  0  0  0  0  0  0  0  0
   59.0530   26.6760   46.5690 C   0  0  0  0  0  0  0  0  0  0  0  0
   58.2890   25.5550   46.9100 C   0  0  0  0  0  0  0  0  0  0  0  0
   56.9070   25.5610   46.7070 C   0  0  0  0  0  0  0  0  0  0  0  0
   56.2830   26.6920   46.1720 C   0  0  0  0  0  0  0  0  0  0  0  0
   54.9070   26.6980   45.9770 O   0  0  0  0  0  0  0  0  0  0  0  0
   57.0430   27.8160   45.8330 C   0  0  0  0  0  0  0  0  0  0  0  0
   59.1930   29.8900   48.6520 C   0  0  0  0  0  0  0  0  0  0  0  0
   59.0770   29.7580   50.0380 C   0  0  0  0  0  0  0  0  0  0  0  0
   55.9160   29.2190   52.5290 N   0  0  0  0  0  0  0  0  0  0  0  0
   54.7020   29.0910   52.0200 N   0  0  0  0  0  0  0  0  0  0  0  0
   52.5548   31.7107   52.8737 H   0  0  0  0  0  0  0  0  0  0  0  0
   51.2520   30.5187   52.4737 H   0  0  0  0  0  0  0  0  0  0  0  0
   52.4677   29.5552   50.8319 H   0  0  0  0  0  0  0  0  0  0  0  0
   53.0614   31.1486   50.2193 H   0  0  0  0  0  0  0  0  0  0  0  0
   55.0352   32.3081   51.9343 H   0  0  0  0  0  0  0  0  0  0  0  0
   57.4527   32.2104   52.9833 H   0  0  0  0  0  0  0  0  0  0  0  0
   57.6907   30.7885   54.0700 H   0  0  0  0  0  0  0  0  0  0  0  0
   58.0633   32.9315   50.8075 H   0  0  0  0  0  0  0  0  0  0  0  0
   58.2534   33.1615   48.3331 H   0  0  0  0  0  0  0  0  0  0  0  0
   59.4582   32.2591   46.2075 H   0  0  0  0  0  0  0  0  0  0  0  0
   58.0510   30.6667   44.8561 H   0  0  0  0  0  0  0  0  0  0  0  0
   60.1400   26.6690   46.7374 H   0  0  0  0  0  0  0  0  0  0  0  0
   58.7772   24.6674   47.3387 H   0  0  0  0  0  0  0  0  0  0  0  0
   56.3092   24.6753   46.9682 H   0  0  0  0  0  0  0  0  0  0  0  0
   56.5468   28.7085   45.4240 H   0  0  0  0  0  0  0  0  0  0  0  0
   59.4886   29.0233   48.0425 H   0  0  0  0  0  0  0  0  0  0  0  0
   59.3019   28.7925   50.5147 H   0  0  0  0  0  0  0  0  0  0  0  0
   56.5250   28.4270   52.8290 H   0  0  0  0  0  0  0  0  0  0  0  0
  1  2  2  0
  2  3  1  0
  2  4  1  0
  4  5  1  0
  5  6  1  0
  6  7  1  0
  7  8  2  0
  8  9  1  0
  9 10  1  0
 10 11  1  0
 11 12  2  0
 12 13  1  0
 13 14  2  0
 14 15  1  0
 15 16  2  3
 16 17  1  0
 17 18  2  0
 17 19  1  0
 19 20  2  0
 20 21  1  0
 21 22  2  0
 22 23  1  0
 23 24  1  0
 23 25  2  0
 14 26  1  0
 26 27  2  0
  8 28  1  0
 28 29  2  0
 29  6  1  0
 27 11  1  0
 25 19  1  0
  4 30  1  0
  4 31  1  0
  5 32  1  0
  5 33  1  0
  7 34  1  0
  9 35  1  0
  9 36  1  0
 12 37  1  0
 13 38  1  0
 15 39  1  0
 16 40  1  0
 20 41  1  0
 21 42  1  0
 22 43  1  0
 25 44  1  0
 26 45  1  0
 27 46  1  0
 28 47  1  0
M  CHG  3   3  -1  24  -1  28   1
M  END
>  <UniqueID>  (27) 
24

>  <SMILES>  (27) 
O=C([O-])CCn1cc(COc2ccc(C=CC(=O)c3cccc([O-])c3)cc2)[nH+]n1

>  <Energy>  (27) 
89.84714679726412

>  <Genealogy>  (27) 
O=C([O-])CCn1cc(COc2ccc(C=CC(=O)c3cccc([O-])c3)cc2)[nH+]n1 (protonated)
O=C([O-])CCn1cc(COc2ccc(C=CC(=O)c3cccc([O-])c3)cc2)[nH+]n1 (3D coordinates assigned)
O=C([O-])CCn1cc(COc2ccc(C=CC(=O)c3cccc([O-])c3)cc2)[nH+]n1 (optimized conformer: 89.84714679726412 kcal/mol)

>  <smiles>  (27) 
O=C(O)CCn1cc(COc2ccc(C=CC(=O)c3cccc(O)c3)cc2)nn1

>  <score_type>  (27) 
oracle

>  <origin>  (27) 
adg

>  <m_score__min__energy>  (27) 
-14.49

>  <m_primary>  (27) 
energy

$$$$
27:0
     RDKit          3D

 33 34  0  0  0  0  0  0  0  0999 V2000
   55.3660   29.2570   44.9010 N   0  0  0  0  0  0  0  0  0  0  0  0
   56.5860   29.4780   44.1330 C   0  0  0  0  0  0  0  0  0  0  0  0
   57.7780   29.4950   45.0550 C   0  0  0  0  0  0  0  0  0  0  0  0
   58.8470   30.3640   44.7950 C   0  0  0  0  0  0  0  0  0  0  0  0
   59.9690   30.3700   45.6250 C   0  0  0  0  0  0  0  0  0  0  0  0
   60.0400   29.5040   46.7160 C   0  0  0  0  0  0  0  0  0  0  0  0
   58.9840   28.6220   46.9960 C   0  0  0  0  0  0  0  0  0  0  0  0
   59.1210   27.6470   48.1400 C   0  0  0  0  0  0  0  0  0  0  0  0
   60.3260   26.7830   47.9460 C   0  0  0  0  0  0  0  0  0  0  0  0
   60.6370   26.3810   46.7940 O   0  0  0  0  0  0  0  0  0  0  0  0
   61.0850   26.3910   49.0410 O   0  0  0  0  0  0  0  0  0  0  0  0
   57.8460   28.6170   46.1560 C   0  0  0  0  0  0  0  0  0  0  0  0
   56.7940   27.7210   46.3840 O   0  0  0  0  0  0  0  0  0  0  0  0
   56.7060   26.4230   45.8510 C   0  0  0  0  0  0  0  0  0  0  0  0
   57.9020   25.7880   45.4920 C   0  0  0  0  0  0  0  0  0  0  0  0
   57.8920   24.4940   44.9650 C   0  0  0  0  0  0  0  0  0  0  0  0
   56.6810   23.8210   44.7850 C   0  0  0  0  0  0  0  0  0  0  0  0
   56.6680   22.0520   44.0670 Br  0  0  0  0  0  0  0  0  0  0  0  0
   55.4790   24.4470   45.1270 C   0  0  0  0  0  0  0  0  0  0  0  0
   55.4800   25.7430   45.6530 C   0  0  0  0  0  0  0  0  0  0  0  0
   54.2620   26.3400   45.9570 O   0  0  0  0  0  0  0  0  0  0  0  0
   55.1690   28.2300   44.8980 H   0  0  0  0  0  0  0  0  0  0  0  0
   55.5540   29.5210   45.8960 H   0  0  0  0  0  0  0  0  0  0  0  0
   56.7055   28.6687   43.3977 H   0  0  0  0  0  0  0  0  0  0  0  0
   56.5164   30.4454   43.6141 H   0  0  0  0  0  0  0  0  0  0  0  0
   58.8012   31.0448   43.9322 H   0  0  0  0  0  0  0  0  0  0  0  0
   60.8002   31.0601   45.4180 H   0  0  0  0  0  0  0  0  0  0  0  0
   60.9302   29.5120   47.3621 H   0  0  0  0  0  0  0  0  0  0  0  0
   59.2231   28.2055   49.0822 H   0  0  0  0  0  0  0  0  0  0  0  0
   58.2257   27.0088   48.1745 H   0  0  0  0  0  0  0  0  0  0  0  0
   58.8589   26.3136   45.6264 H   0  0  0  0  0  0  0  0  0  0  0  0
   58.8385   24.0047   44.6916 H   0  0  0  0  0  0  0  0  0  0  0  0
   54.5261   23.9170   44.9815 H   0  0  0  0  0  0  0  0  0  0  0  0
  1  2  1  0
  2  3  1  0
  3  4  2  0
  4  5  1  0
  5  6  2  0
  6  7  1  0
  7  8  1  0
  8  9  1  0
  9 10  2  0
  9 11  1  0
  7 12  2  0
 12 13  1  0
 13 14  1  0
 14 15  2  0
 15 16  1  0
 16 17  2  0
 17 18  1  0
 17 19  1  0
 19 20  2  0
 20 21  1  0
 12  3  1  0
 20 14  1  0
  1 22  1  0
  1 23  1  0
  2 24  1  0
  2 25  1  0
  4 26  1  0
  5 27  1  0
  6 28  1  0
  8 29  1  0
  8 30  1  0
 15 31  1  0
 16 32  1  0
 19 33  1  0
M  CHG  2  11  -1  21  -1
M  END
>  <UniqueID>  (28) 
25

>  <SMILES>  (28) 
NCc1cccc(CC(=O)[O-])c1Oc1ccc(Br)cc1[O-]

>  <Energy>  (28) 
41.03845197773619

>  <Genealogy>  (28) 
NCc1cccc(CC(=O)[O-])c1Oc1ccc(Br)cc1[O-] (protonated)
NCc1cccc(CC(=O)[O-])c1Oc1ccc(Br)cc1[O-] (3D coordinates assigned)
NCc1cccc(CC(=O)[O-])c1Oc1ccc(Br)cc1[O-] (optimized conformer: 41.03845197773619 kcal/mol)

>  <smiles>  (28) 
NCc1cccc(CC(=O)O)c1Oc1ccc(Br)cc1O

>  <score_type>  (28) 
oracle

>  <origin>  (28) 
adg

>  <m_score__min__energy>  (28) 
-13.25

>  <m_primary>  (28) 
energy

$$$$
28:0
     RDKit          3D

 59 62  0  0  0  0  0  0  0  0999 V2000
   56.7249   32.2710   46.5790 H   0  0  0  0  0  0  0  0  0  0  0  0
   57.7030   32.7700   46.6450 C   0  0  0  0  0  0  0  0  0  0  0  0
   58.1720   33.1890   47.8510 N   0  0  0  0  0  0  0  0  0  0  0  0
   59.3800   33.8070   47.9810 C   0  0  0  0  0  0  0  0  0  0  0  0
   59.8160   34.2070   49.1400 N   0  0  0  0  0  0  0  0  0  0  0  0
   59.6970   33.5200   50.3950 C   0  0  0  0  0  0  0  0  0  0  0  0
   58.8210   33.8530   51.2410 O   0  0  0  0  0  0  0  0  0  0  0  0
   60.6240   32.3670   50.6840 C   0  0  1  0  0  0  0  0  0  0  0  0
   60.8575   32.4019   51.7584 H   0  0  0  0  0  0  0  0  0  0  0  0
   59.9820   31.0810   50.4010 N   0  0  0  0  0  0  0  0  0  0  0  0
   59.8870   30.5500   49.2170 C   0  0  0  0  0  0  0  0  0  0  0  0
   60.8690   30.6890   48.2900 N   0  0  0  0  0  0  0  0  0  0  0  0
   60.3710   30.0100   47.2470 C   0  0  0  0  0  0  0  0  0  0  0  0
   60.9620   29.8070   46.0040 C   0  0  0  0  0  0  0  0  0  0  0  0
   61.9543   30.2212   45.7721 H   0  0  0  0  0  0  0  0  0  0  0  0
   60.2480   29.0540   45.0530 C   0  0  0  0  0  0  0  0  0  0  0  0
   60.6911   28.8664   44.0638 H   0  0  0  0  0  0  0  0  0  0  0  0
   58.9600   28.5330   45.3570 C   0  0  0  0  0  0  0  0  0  0  0  0
   58.2190   27.7590   44.3350 C   0  0  0  0  0  0  0  0  0  0  0  0
   57.6170   28.3750   43.4110 O   0  0  0  0  0  0  0  0  0  0  0  0
   58.1550   26.3250   44.3930 N   0  0  0  0  0  0  0  0  0  0  0  0
   58.6020   25.8160   45.1900 H   0  0  0  0  0  0  0  0  0  0  0  0
   57.4280   25.5350   43.4010 C   0  0  0  0  0  0  0  0  0  0  0  0
   56.6445   26.1584   42.9456 H   0  0  0  0  0  0  0  0  0  0  0  0
   58.1356   25.1924   42.6316 H   0  0  0  0  0  0  0  0  0  0  0  0
   56.7880   24.3260   44.0500 C   0  0  0  0  0  0  0  0  0  0  0  0
   56.9070   23.0840   43.3980 C   0  0  0  0  0  0  0  0  0  0  0  0
   57.5074   23.0087   42.4794 H   0  0  0  0  0  0  0  0  0  0  0  0
   56.2740   21.9480   43.9010 C   0  0  0  0  0  0  0  0  0  0  0  0
   56.3817   20.9839   43.3825 H   0  0  0  0  0  0  0  0  0  0  0  0
   55.5050   22.0330   45.0600 C   0  0  0  0  0  0  0  0  0  0  0  0
   55.0020   21.1368   45.4521 H   0  0  0  0  0  0  0  0  0  0  0  0
   55.3720   23.2530   45.7240 C   0  0  0  0  0  0  0  0  0  0  0  0
   54.7579   23.3111   46.6348 H   0  0  0  0  0  0  0  0  0  0  0  0
   56.0130   24.4100   45.2440 C   0  0  0  0  0  0  0  0  0  0  0  0
   55.8340   25.6650   46.0140 C   0  0  0  0  0  0  0  0  0  0  0  0
   54.7500   26.3060   45.9740 O   0  0  0  0  0  0  0  0  0  0  0  0
   56.8900   26.1820   46.7540 O   0  0  0  0  0  0  0  0  0  0  0  0
   58.4060   28.7550   46.6420 C   0  0  0  0  0  0  0  0  0  0  0  0
   57.4190   28.3507   46.9109 H   0  0  0  0  0  0  0  0  0  0  0  0
   59.1480   29.5000   47.5540 C   0  0  0  0  0  0  0  0  0  0  0  0
   58.8110   29.8240   48.8100 N   0  0  0  0  0  0  0  0  0  0  0  0
   61.9530   32.4970   49.9070 C   0  0  0  0  0  0  0  0  0  0  0  0
   61.7833   32.1449   48.8788 H   0  0  0  0  0  0  0  0  0  0  0  0
   62.6917   31.8959   50.4574 H   0  0  0  0  0  0  0  0  0  0  0  0
   62.5260   33.9240   49.8350 C   0  0  0  0  0  0  0  0  0  0  0  0
   63.2476   34.0616   50.6538 H   0  0  0  0  0  0  0  0  0  0  0  0
   61.6927   34.6364   49.9250 H   0  0  0  0  0  0  0  0  0  0  0  0
   63.3710   34.2250   48.2400 S   0  0  0  0  0  0  0  0  0  0  0  0
   63.3110   32.4870   47.6840 C   0  0  0  0  0  0  0  0  0  0  0  0
   63.2881   31.8223   48.5602 H   0  0  0  0  0  0  0  0  0  0  0  0
   62.4068   32.3268   47.0784 H   0  0  0  0  0  0  0  0  0  0  0  0
   64.2020   32.2648   47.0784 H   0  0  0  0  0  0  0  0  0  0  0  0
   60.1700   34.0170   46.8440 C   0  0  0  0  0  0  0  0  0  0  0  0
   61.1503   34.5079   46.9339 H   0  0  0  0  0  0  0  0  0  0  0  0
   59.7050   33.5990   45.5950 C   0  0  0  0  0  0  0  0  0  0  0  0
   60.3174   33.7633   44.6961 H   0  0  0  0  0  0  0  0  0  0  0  0
   58.4630   32.9730   45.4890 C   0  0  0  0  0  0  0  0  0  0  0  0
   57.8120   32.3970   43.7890 Br  0  0  0  0  0  0  0  0  0  0  0  0
  1  2  1  0
  2  3  1  0
  3  4  1  0
  4  5  2  0
  5  6  1  0
  6  7  2  0
  6  8  1  0
  8  9  1  1
  8 10  1  0
 10 11  2  3
 11 12  1  0
 12 13  1  0
 13 14  2  0
 14 15  1  0
 14 16  1  0
 16 17  1  0
 16 18  2  0
 18 19  1  0
 19 20  2  0
 19 21  1  0
 21 22  1  0
 21 23  1  0
 23 24  1  0
 23 25  1  0
 23 26  1  0
 26 27  2  0
 27 28  1  0
 27 29  1  0
 29 30  1  0
 29 31  2  0
 31 32  1  0
 31 33  1  0
 33 34  1  0
 33 35  2  0
 35 36  1  0
 36 37  2  0
 36 38  1  0
 18 39  1  0
 39 40  1  0
 39 41  2  0
 41 42  1  0
  8 43  1  0
 43 44  1  0
 43 45  1  0
 43 46  1  0
 46 47  1  0
 46 48  1  0
 46 49  1  0
 49 50  1  0
 50 51  1  0
 50 52  1  0
 50 53  1  0
  4 54  1  0
 54 55  1  0
 54 56  2  0
 56 57  1  0
 56 58  1  0
 58 59  1  0
 58  2  2  0
 42 11  1  0
 41 13  1  0
 35 26  1  0
M  CHG  4   3  -1  12  -1  38  -1  42  -1
M  END
>  <UniqueID>  (29) 
26

>  <SMILES>  (29) 
CSCC[C@H](N=c1[n-]c2ccc(C(=O)NCc3ccccc3C(=O)[O-])cc2[n-]1)C(=O)/N=c1/ccc(Br)c[n-]1

>  <Energy>  (29) 
101.8392474517315

>  <Genealogy>  (29) 
CSCCC(N=c1[n-]c2ccc(C(=O)NCc3ccccc3C(=O)[O-])cc2[n-]1)C(=O)N=c1ccc(Br)c[n-]1 (protonated)
CSCC[C@H](N=c1[n-]c2ccc(C(=O)NCc3ccccc3C(=O)[O-])cc2[n-]1)C(=O)N=c1ccc(Br)c[n-]1 (chirality)
CSCC[C@H](N=c1[n-]c2ccc(C(=O)NCc3ccccc3C(=O)[O-])cc2[n-]1)C(=O)/N=c1/ccc(Br)c[n-]1 (cis-trans isomerization)
CSCC[C@H](N=c1[n-]c2ccc(C(=O)NCc3ccccc3C(=O)[O-])cc2[n-]1)C(=O)/N=c1/ccc(Br)c[n-]1 (3D coordinates assigned)
CSCC[C@H](N=c1[n-]c2ccc(C(=O)NCc3ccccc3C(=O)[O-])cc2[n-]1)C(=O)/N=c1/ccc(Br)c[n-]1 (optimized conformer: 101.8392474517315 kcal/mol)

>  <smiles>  (29) 
CSCCC(N=c1[nH]c2ccc(C(=O)NCc3ccccc3C(=O)O)cc2[nH]1)C(=O)N=c1ccc(Br)c[nH]1

>  <score_type>  (29) 
oracle

>  <origin>  (29) 
adg

>  <m_score__min__energy>  (29) 
-14.85

>  <m_primary>  (29) 
energy

$$$$
29:0
     RDKit          3D

 46 48  0  0  0  0  0  0  0  0999 V2000
   58.0090   31.9710   50.9030 C   0  0  0  0  0  0  0  0  0  0  0  0
   59.1780   32.0950   50.1220 O   0  0  0  0  0  0  0  0  0  0  0  0
   59.3050   33.4190   49.6370 C   0  0  0  0  0  0  0  0  0  0  0  0
   60.4990   33.5350   48.7280 C   0  0  0  0  0  0  0  0  0  0  0  0
   61.7410   33.3250   49.2460 N   0  0  0  0  0  0  0  0  0  0  0  0
   62.8530   33.4420   48.4780 C   0  0  0  0  0  0  0  0  0  0  0  0
   64.1480   33.2100   49.0520 C   0  0  0  0  0  0  0  0  0  0  0  0
   65.1930   33.0250   49.5150 N   0  0  0  0  0  0  0  0  0  0  0  0
   62.7430   33.7710   47.1660 N   0  0  0  0  0  0  0  0  0  0  0  0
   61.5280   34.0000   46.6040 C   0  0  0  0  0  0  0  0  0  0  0  0
   60.3630   33.9030   47.3790 C   0  0  0  0  0  0  0  0  0  0  0  0
   59.0890   34.1210   46.8310 O   0  0  0  0  0  0  0  0  0  0  0  0
   58.5710   33.4770   45.6980 C   0  0  0  0  0  0  0  0  0  0  0  0
   59.0990   33.6920   44.4120 C   0  0  0  0  0  0  0  0  0  0  0  0
   58.5290   33.0620   43.3040 C   0  0  0  0  0  0  0  0  0  0  0  0
   57.4320   32.2120   43.4680 C   0  0  0  0  0  0  0  0  0  0  0  0
   56.9010   31.9790   44.7420 C   0  0  0  0  0  0  0  0  0  0  0  0
   55.7490   31.1320   44.8670 N   0  0  0  0  0  0  0  0  0  0  0  0
   55.5980   29.8290   44.2960 C   0  0  0  0  0  0  0  0  0  0  0  0
   55.4420   29.7210   43.0500 O   0  0  0  0  0  0  0  0  0  0  0  0
   55.7250   28.6580   45.1150 N   0  0  0  0  0  0  0  0  0  0  0  0
   56.9540   28.0970   45.5980 C   0  0  0  0  0  0  0  0  0  0  0  0
   57.8920   28.9470   46.1950 C   0  0  0  0  0  0  0  0  0  0  0  0
   59.0910   28.4350   46.6960 C   0  0  0  0  0  0  0  0  0  0  0  0
   60.3790   29.6110   47.4750 Br  0  0  0  0  0  0  0  0  0  0  0  0
   59.3510   27.0630   46.6260 C   0  0  0  0  0  0  0  0  0  0  0  0
   58.3980   26.1860   46.0780 C   0  0  0  0  0  0  0  0  0  0  0  0
   58.6710   24.7040   45.9950 C   0  0  0  0  0  0  0  0  0  0  0  0
   58.0750   24.0300   47.0480 F   0  0  0  0  0  0  0  0  0  0  0  0
   58.1680   24.1870   44.8130 F   0  0  0  0  0  0  0  0  0  0  0  0
   60.0370   24.4890   46.0380 F   0  0  0  0  0  0  0  0  0  0  0  0
   57.2070   26.7140   45.5490 C   0  0  0  0  0  0  0  0  0  0  0  0
   57.4600   32.6390   45.8520 C   0  0  0  0  0  0  0  0  0  0  0  0
   58.2760   31.9993   51.9697 H   0  0  0  0  0  0  0  0  0  0  0  0
   57.3252   32.8017   50.6740 H   0  0  0  0  0  0  0  0  0  0  0  0
   57.5147   31.0154   50.6740 H   0  0  0  0  0  0  0  0  0  0  0  0
   58.3968   33.6884   49.0779 H   0  0  0  0  0  0  0  0  0  0  0  0
   59.4404   34.0992   50.4908 H   0  0  0  0  0  0  0  0  0  0  0  0
   61.4574   34.2623   45.5381 H   0  0  0  0  0  0  0  0  0  0  0  0
   59.9638   34.3587   44.2789 H   0  0  0  0  0  0  0  0  0  0  0  0
   58.9442   33.2351   42.3002 H   0  0  0  0  0  0  0  0  0  0  0  0
   56.9831   31.7231   42.5908 H   0  0  0  0  0  0  0  0  0  0  0  0
   57.6837   30.0245   46.2701 H   0  0  0  0  0  0  0  0  0  0  0  0
   60.3062   26.6674   47.0016 H   0  0  0  0  0  0  0  0  0  0  0  0
   56.4669   26.0400   45.0930 H   0  0  0  0  0  0  0  0  0  0  0  0
   57.0200   32.4952   46.8499 H   0  0  0  0  0  0  0  0  0  0  0  0
  1  2  1  0
  2  3  1  0
  3  4  1  0
  4  5  2  0
  5  6  1  0
  6  7  1  0
  7  8  3  0
  6  9  2  0
  9 10  1  0
 10 11  2  0
 11 12  1  0
 12 13  1  0
 13 14  2  0
 14 15  1  0
 15 16  2  0
 16 17  1  0
 17 18  1  0
 18 19  1  0
 19 20  2  0
 19 21  1  0
 21 22  1  0
 22 23  2  0
 23 24  1  0
 24 25  1  0
 24 26  2  0
 26 27  1  0
 27 28  1  0
 28 29  1  0
 28 30  1  0
 28 31  1  0
 27 32  2  0
 17 33  2  0
 11  4  1  0
 33 13  1  0
 32 22  1  0
  1 34  1  0
  1 35  1  0
  1 36  1  0
  3 37  1  0
  3 38  1  0
 10 39  1  0
 14 40  1  0
 15 41  1  0
 16 42  1  0
 23 43  1  0
 26 44  1  0
 32 45  1  0
 33 46  1  0
M  CHG  2  18  -1  21  -1
M  END
>  <UniqueID>  (30) 
27

>  <SMILES>  (30) 
COCc1nc(C#N)ncc1Oc1cccc([N-]C(=O)[N-]c2cc(Br)cc(C(F)(F)F)c2)c1

>  <Energy>  (30) 
62.93248725534242

>  <Genealogy>  (30) 
COCc1nc(C#N)ncc1Oc1cccc([N-]C(=O)[N-]c2cc(Br)cc(C(F)(F)F)c2)c1 (protonated)
COCc1nc(C#N)ncc1Oc1cccc([N-]C(=O)[N-]c2cc(Br)cc(C(F)(F)F)c2)c1 (3D coordinates assigned)
COCc1nc(C#N)ncc1Oc1cccc([N-]C(=O)[N-]c2cc(Br)cc(C(F)(F)F)c2)c1 (optimized conformer: 62.93248725534242 kcal/mol)

>  <smiles>  (30) 
COCc1nc(C#N)ncc1Oc1cccc(NC(=O)Nc2cc(Br)cc(C(F)(F)F)c2)c1

>  <score_type>  (30) 
oracle

>  <origin>  (30) 
adg

>  <m_score__min__energy>  (30) 
-11.300000000000001

>  <m_primary>  (30) 
energy

$$$$
30:0
     RDKit          3D

 41 43  0  0  0  0  0  0  0  0999 V2000
   55.0410   30.0660   53.8330 O   0  0  0  0  0  0  0  0  0  0  0  0
   55.0260   30.2850   52.3450 S   0  0  0  0  0  0  0  0  0  0  0  0
   54.8420   31.7500   52.0520 O   0  0  0  0  0  0  0  0  0  0  0  0
   56.5230   29.7410   51.6470 N   0  0  0  0  0  0  0  0  0  0  0  0
   57.6600   30.4840   52.1940 C   0  0  0  0  0  0  0  0  0  0  0  0
   58.6360   30.8280   51.1020 C   0  0  0  0  0  0  0  0  0  0  0  0
   59.6150   29.9040   50.7000 C   0  0  0  0  0  0  0  0  0  0  0  0
   60.4970   30.2210   49.6650 C   0  0  0  0  0  0  0  0  0  0  0  0
   60.4180   31.4630   49.0300 C   0  0  0  0  0  0  0  0  0  0  0  0
   59.4630   32.4100   49.4420 C   0  0  0  0  0  0  0  0  0  0  0  0
   59.3380   33.6640   48.8250 O   0  0  0  0  0  0  0  0  0  0  0  0
   58.9130   33.8910   47.5080 C   0  0  0  0  0  0  0  0  0  0  0  0
   59.6920   34.7160   46.6840 C   0  0  0  0  0  0  0  0  0  0  0  0
   59.3120   34.9540   45.3600 C   0  0  0  0  0  0  0  0  0  0  0  0
   58.1550   34.3630   44.8460 C   0  0  0  0  0  0  0  0  0  0  0  0
   57.3820   33.5230   45.6530 C   0  0  0  0  0  0  0  0  0  0  0  0
   57.7620   33.2780   46.9780 C   0  0  0  0  0  0  0  0  0  0  0  0
   58.5680   32.0790   50.4680 C   0  0  0  0  0  0  0  0  0  0  0  0
   53.7250   29.3740   51.6340 N   0  0  0  0  0  0  0  0  0  0  0  0
   52.9170   30.2130   50.7490 C   0  0  0  0  0  0  0  0  0  0  0  0
   52.0770   31.1600   51.5480 C   0  0  0  0  0  0  0  0  0  0  0  0
   51.6530   30.9500   52.8480 C   0  0  0  0  0  0  0  0  0  0  0  0
   50.9090   32.0550   53.1910 C   0  0  0  0  0  0  0  0  0  0  0  0
   50.9220   32.8720   52.0820 C   0  0  0  0  0  0  0  0  0  0  0  0
   50.2830   34.1020   52.0000 O   0  0  0  0  0  0  0  0  0  0  0  0
   51.6310   32.3400   51.0690 N   0  0  0  0  0  0  0  0  0  0  0  0
   57.2963   31.4114   52.6604 H   0  0  0  0  0  0  0  0  0  0  0  0
   58.1681   29.8584   52.9426 H   0  0  0  0  0  0  0  0  0  0  0  0
   59.6869   28.9279   51.2021 H   0  0  0  0  0  0  0  0  0  0  0  0
   61.2563   29.4907   49.3486 H   0  0  0  0  0  0  0  0  0  0  0  0
   61.1052   31.7012   48.2048 H   0  0  0  0  0  0  0  0  0  0  0  0
   60.6073   35.1785   47.0818 H   0  0  0  0  0  0  0  0  0  0  0  0
   59.9248   35.6076   44.7218 H   0  0  0  0  0  0  0  0  0  0  0  0
   57.8524   34.5586   43.8067 H   0  0  0  0  0  0  0  0  0  0  0  0
   56.4739   33.0539   45.2464 H   0  0  0  0  0  0  0  0  0  0  0  0
   57.1599   32.6051   47.6062 H   0  0  0  0  0  0  0  0  0  0  0  0
   57.8043   32.8066   50.7800 H   0  0  0  0  0  0  0  0  0  0  0  0
   53.5823   30.7882   50.0883 H   0  0  0  0  0  0  0  0  0  0  0  0
   52.2559   29.5675   50.1521 H   0  0  0  0  0  0  0  0  0  0  0  0
   51.8676   30.0756   53.4800 H   0  0  0  0  0  0  0  0  0  0  0  0
   50.4078   32.2464   54.1513 H   0  0  0  0  0  0  0  0  0  0  0  0
  1  2  2  0
  2  3  2  0
  2  4  1  0
  4  5  1  0
  5  6  1  0
  6  7  2  0
  7  8  1  0
  8  9  2  0
  9 10  1  0
 10 11  1  0
 11 12  1  0
 12 13  2  0
 13 14  1  0
 14 15  2  0
 15 16  1  0
 16 17  2  0
 10 18  2  0
  2 19  1  0
 19 20  1  0
 20 21  1  0
 21 22  2  0
 22 23  1  0
 23 24  2  0
 24 25  1  0
 24 26  1  0
 18  6  1  0
 26 21  1  0
 17 12  1  0
  5 27  1  0
  5 28  1  0
  7 29  1  0
  8 30  1  0
  9 31  1  0
 13 32  1  0
 14 33  1  0
 15 34  1  0
 16 35  1  0
 17 36  1  0
 18 37  1  0
 20 38  1  0
 20 39  1  0
 22 40  1  0
 23 41  1  0
M  CHG  4   4  -1  19  -1  25  -1  26  -1
M  END
>  <UniqueID>  (31) 
28

>  <SMILES>  (31) 
O=S(=O)([N-]Cc1cccc(Oc2ccccc2)c1)[N-]Cc1ccc([O-])[n-]1

>  <Energy>  (31) 
70.86831110911494

>  <Genealogy>  (31) 
O=S(=O)([N-]Cc1cccc(Oc2ccccc2)c1)[N-]Cc1ccc([O-])[n-]1 (protonated)
O=S(=O)([N-]Cc1cccc(Oc2ccccc2)c1)[N-]Cc1ccc([O-])[n-]1 (3D coordinates assigned)
O=S(=O)([N-]Cc1cccc(Oc2ccccc2)c1)[N-]Cc1ccc([O-])[n-]1 (optimized conformer: 70.86831110911494 kcal/mol)

>  <smiles>  (31) 
O=S(=O)(NCc1cccc(Oc2ccccc2)c1)NCc1ccc(O)[nH]1

>  <score_type>  (31) 
oracle

>  <origin>  (31) 
adg

>  <m_score__min__energy>  (31) 
-16.59

>  <m_primary>  (31) 
energy

$$$$
31:0
     RDKit          3D

 44 46  0  0  1  0  0  0  0  0999 V2000
   62.9470   33.8580   45.9580 O   0  0  0  0  0  0  0  0  0  0  0  0
   62.1140   33.6550   46.9100 C   0  0  0  0  0  0  0  0  0  0  0  0
   60.8150   34.2060   46.7620 N   0  0  0  0  0  0  0  0  0  0  0  0
   59.7820   33.4930   46.4520 C   0  0  0  0  0  0  0  0  0  0  0  0
   59.1860   33.3140   45.2290 C   0  0  0  0  0  0  0  0  0  0  0  0
   58.1120   32.4500   45.4760 C   0  0  0  0  0  0  0  0  0  0  0  0
   57.1850   31.9740   44.4580 C   0  0  0  0  0  0  0  0  0  0  0  0
   57.5320   31.9930   43.2530 O   0  0  0  0  0  0  0  0  0  0  0  0
   55.9310   31.5010   44.8100 O   0  0  0  0  0  0  0  0  0  0  0  0
   58.1040   32.1530   46.8030 N   0  0  0  0  0  0  0  0  0  0  0  0
   59.1110   32.7810   47.3940 N   0  0  0  0  0  0  0  0  0  0  0  0
   62.5370   32.8800   48.0760 C   0  0  0  0  0  0  0  0  0  0  0  0
   63.5480   33.2600   48.9160 C   0  0  0  0  0  0  0  0  0  0  0  0
   63.8480   32.4400   49.9880 C   0  0  0  0  0  0  0  0  0  0  0  0
   63.1840   31.2780   50.2470 C   0  0  0  0  0  0  0  0  0  0  0  0
   62.1690   30.9000   49.4030 C   0  0  0  0  0  0  0  0  0  0  0  0
   61.3600   29.6680   49.5810 C   0  0  0  0  0  0  0  0  0  0  0  0
   60.7610   29.2090   48.3450 N   0  0  0  0  0  0  0  0  0  0  0  0
   59.5160   29.6420   47.8470 C   0  0  0  0  0  0  0  0  0  0  0  0
   58.8710   30.4910   48.5300 O   0  0  0  0  0  0  0  0  0  0  0  0
   58.9260   29.1760   46.5940 C   0  0  0  0  0  0  0  0  0  0  0  0
   59.7160   28.7070   45.5540 C   0  0  0  0  0  0  0  0  0  0  0  0
   59.1490   28.2580   44.3560 C   0  0  0  0  0  0  0  0  0  0  0  0
   57.7540   28.2960   44.2360 C   0  0  0  0  0  0  0  0  0  0  0  0
   56.9640   28.7650   45.2760 C   0  0  0  0  0  0  0  0  0  0  0  0
   55.5590   28.7970   45.1430 O   0  0  0  0  0  0  0  0  0  0  0  0
   57.5480   29.2030   46.4500 C   0  0  0  0  0  0  0  0  0  0  0  0
   61.8540   31.7030   48.3260 C   0  0  0  0  0  0  0  0  0  0  0  0
   59.4860   33.7529   44.2660 H   0  0  0  0  0  0  0  0  0  0  0  0
   55.7750   30.5990   45.2460 H   0  0  0  0  0  0  0  0  0  0  0  0
   57.4120   31.5210   47.3060 H   0  0  0  0  0  0  0  0  0  0  0  0
   59.3290   32.7190   48.4310 H   0  0  0  0  0  0  0  0  0  0  0  0
   64.1065   34.1918   48.7433 H   0  0  0  0  0  0  0  0  0  0  0  0
   64.6618   32.7398   50.6646 H   0  0  0  0  0  0  0  0  0  0  0  0
   63.4554   30.6567   51.1132 H   0  0  0  0  0  0  0  0  0  0  0  0
   62.0114   28.8729   49.9729 H   0  0  0  0  0  0  0  0  0  0  0  0
   60.5428   29.9051   50.2781 H   0  0  0  0  0  0  0  0  0  0  0  0
   61.2880   28.4980   47.7720 H   0  0  0  0  0  0  0  0  0  0  0  0
   60.8093   28.6878   45.6736 H   0  0  0  0  0  0  0  0  0  0  0  0
   59.7791   27.8868   43.5343 H   0  0  0  0  0  0  0  0  0  0  0  0
   57.2790   27.9499   43.3062 H   0  0  0  0  0  0  0  0  0  0  0  0
   55.1420   27.9050   44.9370 H   0  0  0  0  0  0  0  0  0  0  0  0
   56.9175   29.5737   47.2716 H   0  0  0  0  0  0  0  0  0  0  0  0
   61.0406   31.4002   47.6502 H   0  0  0  0  0  0  0  0  0  0  0  0
  1  2  2  0
  2  3  1  0
  3  4  2  0
  4  5  1  0
  5  6  2  0
  6  7  1  0
  7  8  2  0
  7  9  1  0
  6 10  1  0
 10 11  1  0
  2 12  1  0
 12 13  2  0
 13 14  1  0
 14 15  2  0
 15 16  1  0
 16 17  1  0
 17 18  1  0
 18 19  1  0
 19 20  2  0
 19 21  1  0
 21 22  2  0
 22 23  1  0
 23 24  2  0
 24 25  1  0
 25 26  1  0
 25 27  2  0
 16 28  2  0
 11  4  1  0
 28 12  1  0
 27 21  1  0
  5 29  1  0
  9 30  1  0
 10 31  1  0
 11 32  1  0
 13 33  1  0
 14 34  1  0
 15 35  1  0
 17 36  1  0
 17 37  1  0
 18 38  1  0
 22 39  1  0
 23 40  1  0
 24 41  1  0
 26 42  1  0
 27 43  1  0
 28 44  1  0
M  END
>  <smiles>  (32) 
O=C(N=c1cc(C(=O)O)[nH][nH]1)c1cccc(CNC(=O)c2cccc(O)c2)c1

>  <score_type>  (32) 
oracle

>  <origin>  (32) 
adg

>  <m_score__min__energy>  (32) 
-9.7100000000000009

>  <m_primary>  (32) 
energy

$$$$
32:0
     RDKit          3D

 50 52  0  0  0  0  0  0  0  0999 V2000
   59.2680   33.5680   48.5300 N   0  0  0  0  0  0  0  0  0  0  0  0
   59.6710   34.3220   47.0300 S   0  0  0  0  0  0  0  0  0  0  0  0
   59.1880   35.7440   47.0350 O   0  0  0  0  0  0  0  0  0  0  0  0
   61.1640   34.3190   46.8570 O   0  0  0  0  0  0  0  0  0  0  0  0
   58.9130   33.4410   45.7070 C   0  0  0  0  0  0  0  0  0  0  0  0
   59.1110   33.8560   44.3850 C   0  0  0  0  0  0  0  0  0  0  0  0
   58.5120   33.1570   43.3340 C   0  0  0  0  0  0  0  0  0  0  0  0
   57.7000   32.0500   43.5980 C   0  0  0  0  0  0  0  0  0  0  0  0
   57.4700   31.6430   44.9240 C   0  0  0  0  0  0  0  0  0  0  0  0
   56.6580   30.5030   45.2410 N   0  0  0  0  0  0  0  0  0  0  0  0
   56.2630   29.4600   44.3430 C   0  0  0  0  0  0  0  0  0  0  0  0
   55.1030   28.9680   44.3930 O   0  0  0  0  0  0  0  0  0  0  0  0
   57.2700   28.8780   43.4080 C   0  0  0  0  0  0  0  0  0  0  0  0
   57.8800   27.7080   44.0270 N   0  0  0  0  0  0  0  0  0  0  0  0
   57.9290   27.4580   45.4380 C   0  0  0  0  0  0  0  0  0  0  0  0
   57.2900   26.4750   45.8990 O   0  0  0  0  0  0  0  0  0  0  0  0
   58.7330   28.2850   46.3600 C   0  0  0  0  0  0  0  0  0  0  0  0
   59.7230   29.1530   45.8720 C   0  0  0  0  0  0  0  0  0  0  0  0
   60.4640   29.9450   46.7540 C   0  0  0  0  0  0  0  0  0  0  0  0
   60.2170   29.8880   48.1310 C   0  0  0  0  0  0  0  0  0  0  0  0
   61.1400   30.9150   49.2250 S   0  0  0  0  0  0  0  0  0  0  0  0
   62.2400   30.1000   49.8460 O   0  0  0  0  0  0  0  0  0  0  0  0
   60.2490   31.4360   50.3190 O   0  0  0  0  0  0  0  0  0  0  0  0
   61.8310   32.2380   48.3200 N   0  0  0  0  0  0  0  0  0  0  0  0
   62.5160   33.1820   49.2020 C   0  0  0  0  0  0  0  0  0  0  0  0
   63.5970   33.8490   48.3660 C   0  0  0  0  0  0  0  0  0  0  0  0
   63.8170   32.9240   47.1790 C   0  0  0  0  0  0  0  0  0  0  0  0
   62.8510   31.7670   47.3840 C   0  0  0  0  0  0  0  0  0  0  0  0
   59.2090   29.0450   48.6190 C   0  0  0  0  0  0  0  0  0  0  0  0
   58.4690   28.2520   47.7380 C   0  0  0  0  0  0  0  0  0  0  0  0
   58.0940   32.3340   45.9720 C   0  0  0  0  0  0  0  0  0  0  0  0
   59.9680   32.8090   48.6880 H   0  0  0  0  0  0  0  0  0  0  0  0
   59.7392   34.7338   44.1732 H   0  0  0  0  0  0  0  0  0  0  0  0
   58.6798   33.4787   42.2956 H   0  0  0  0  0  0  0  0  0  0  0  0
   57.2400   31.4961   42.7664 H   0  0  0  0  0  0  0  0  0  0  0  0
   56.7745   28.5823   42.4715 H   0  0  0  0  0  0  0  0  0  0  0  0
   58.0458   29.6263   43.1886 H   0  0  0  0  0  0  0  0  0  0  0  0
   59.9164   29.2100   44.7906 H   0  0  0  0  0  0  0  0  0  0  0  0
   61.2442   30.6156   46.3647 H   0  0  0  0  0  0  0  0  0  0  0  0
   61.8069   33.9349   49.5767 H   0  0  0  0  0  0  0  0  0  0  0  0
   62.9478   32.6693   50.0742 H   0  0  0  0  0  0  0  0  0  0  0  0
   63.2633   34.8401   48.0250 H   0  0  0  0  0  0  0  0  0  0  0  0
   64.5218   34.0041   48.9410 H   0  0  0  0  0  0  0  0  0  0  0  0
   63.5962   33.4474   46.2371 H   0  0  0  0  0  0  0  0  0  0  0  0
   64.8599   32.5799   47.1163 H   0  0  0  0  0  0  0  0  0  0  0  0
   62.3874   31.4850   46.4271 H   0  0  0  0  0  0  0  0  0  0  0  0
   63.3705   30.8799   47.7753 H   0  0  0  0  0  0  0  0  0  0  0  0
   59.0000   29.0076   49.6983 H   0  0  0  0  0  0  0  0  0  0  0  0
   57.6747   27.5979   48.1269 H   0  0  0  0  0  0  0  0  0  0  0  0
   57.9400   32.0053   47.0104 H   0  0  0  0  0  0  0  0  0  0  0  0
  1  2  1  0
  2  3  2  0
  2  4  2  0
  2  5  1  0
  5  6  2  0
  6  7  1  0
  7  8  2  0
  8  9  1  0
  9 10  1  0
 10 11  1  0
 11 12  2  0
 11 13  1  0
 13 14  1  0
 14 15  1  0
 15 16  2  0
 15 17  1  0
 17 18  2  0
 18 19  1  0
 19 20  2  0
 20 21  1  0
 21 22  2  0
 21 23  2  0
 21 24  1  0
 24 25  1  0
 25 26  1  0
 26 27  1  0
 27 28  1  0
 20 29  1  0
 29 30  2  0
  9 31  2  0
 31  5  1  0
 30 17  1  0
 28 24  1  0
  1 32  1  0
  6 33  1  0
  7 34  1  0
  8 35  1  0
 13 36  1  0
 13 37  1  0
 18 38  1  0
 19 39  1  0
 25 40  1  0
 25 41  1  0
 26 42  1  0
 26 43  1  0
 27 44  1  0
 27 45  1  0
 28 46  1  0
 28 47  1  0
 29 48  1  0
 30 49  1  0
 31 50  1  0
M  CHG  3   1  -1  10  -1  14  -1
M  END
>  <UniqueID>  (33) 
29

>  <SMILES>  (33) 
[NH-]S(=O)(=O)c1cccc([N-]C(=O)C[N-]C(=O)c2ccc(S(=O)(=O)N3CCCC3)cc2)c1

>  <Energy>  (33) 
57.34074685483073

>  <Genealogy>  (33) 
[NH-]S(=O)(=O)c1cccc([N-]C(=O)C[N-]C(=O)c2ccc(S(=O)(=O)N3CCCC3)cc2)c1 (protonated)
[NH-]S(=O)(=O)c1cccc([N-]C(=O)C[N-]C(=O)c2ccc(S(=O)(=O)N3CCCC3)cc2)c1 (3D coordinates assigned)
[NH-]S(=O)(=O)c1cccc([N-]C(=O)C[N-]C(=O)c2ccc(S(=O)(=O)N3CCCC3)cc2)c1 (nonaromatic ring conformer: 57.34074685483073 kcal/mol)

>  <smiles>  (33) 
NS(=O)(=O)c1cccc(NC(=O)CNC(=O)c2ccc(S(=O)(=O)N3CCCC3)cc2)c1

>  <score_type>  (33) 
oracle

>  <origin>  (33) 
adg

>  <m_score__min__energy>  (33) 
-14.720000000000001

>  <m_primary>  (33) 
energy

$$$$
33:0
     RDKit          3D

 27 28  0  0  0  0  0  0  0  0999 V2000
   51.7880   29.9170   50.1320 O   0  0  0  0  0  0  0  0  0  0  0  0
   52.3450   30.2360   51.2170 C   0  0  0  0  0  0  0  0  0  0  0  0
   53.6570   29.5890   51.5680 C   0  0  0  0  0  0  0  0  0  0  0  0
   54.7420   30.5100   51.4370 O   0  0  0  0  0  0  0  0  0  0  0  0
   55.7750   30.6830   52.3730 C   0  0  0  0  0  0  0  0  0  0  0  0
   57.0590   30.9750   51.8950 C   0  0  0  0  0  0  0  0  0  0  0  0
   58.1260   31.1450   52.7830 C   0  0  0  0  0  0  0  0  0  0  0  0
   57.9150   31.0290   54.1600 C   0  0  0  0  0  0  0  0  0  0  0  0
   56.6380   30.7420   54.6480 C   0  0  0  0  0  0  0  0  0  0  0  0
   55.5690   30.5710   53.7630 C   0  0  0  0  0  0  0  0  0  0  0  0
   51.6940   31.2380   52.1020 C   0  0  0  0  0  0  0  0  0  0  0  0
   51.0450   32.3760   51.5850 C   0  0  0  0  0  0  0  0  0  0  0  0
   51.0270   32.6270   50.2170 O   0  0  0  0  0  0  0  0  0  0  0  0
   50.4450   33.2590   52.4270 N   0  0  0  0  0  0  0  0  0  0  0  0
   50.4680   33.0700   53.7730 C   0  0  0  0  0  0  0  0  0  0  0  0
   49.9090   33.9000   54.5380 O   0  0  0  0  0  0  0  0  0  0  0  0
   51.0950   31.9880   54.2960 N   0  0  0  0  0  0  0  0  0  0  0  0
   51.7050   31.0740   53.5000 C   0  0  0  0  0  0  0  0  0  0  0  0
   52.2630   30.0750   54.0290 O   0  0  0  0  0  0  0  0  0  0  0  0
   53.6136   29.2320   52.6076 H   0  0  0  0  0  0  0  0  0  0  0  0
   53.8272   28.7515   50.8755 H   0  0  0  0  0  0  0  0  0  0  0  0
   57.2294   31.0713   50.8126 H   0  0  0  0  0  0  0  0  0  0  0  0
   59.1315   31.3700   52.3978 H   0  0  0  0  0  0  0  0  0  0  0  0
   58.7539   31.1636   54.8587 H   0  0  0  0  0  0  0  0  0  0  0  0
   56.4729   30.6503   55.7317 H   0  0  0  0  0  0  0  0  0  0  0  0
   54.5646   30.3485   54.1525 H   0  0  0  0  0  0  0  0  0  0  0  0
   49.9650   34.1000   52.0310 H   0  0  0  0  0  0  0  0  0  0  0  0
  1  2  2  0
  2  3  1  0
  3  4  1  0
  4  5  1  0
  5  6  2  0
  6  7  1  0
  7  8  2  0
  8  9  1  0
  9 10  2  0
  2 11  1  0
 11 12  2  0
 12 13  1  0
 12 14  1  0
 14 15  1  0
 15 16  2  0
 15 17  1  0
 17 18  1  0
 18 19  2  0
 10  5  1  0
 18 11  1  0
  3 20  1  0
  3 21  1  0
  6 22  1  0
  7 23  1  0
  8 24  1  0
  9 25  1  0
 10 26  1  0
 14 27  1  0
M  CHG  2  13  -1  17  -1
M  END
>  <UniqueID>  (34) 
30

>  <SMILES>  (34) 
O=C(COc1ccccc1)c1c([O-])[nH]c(=O)[n-]c1=O

>  <Energy>  (34) 
33.72638283737568

>  <Genealogy>  (34) 
O=C(COc1ccccc1)c1c([O-])[nH]c(=O)[n-]c1=O (protonated)
O=C(COc1ccccc1)c1c([O-])[nH]c(=O)[n-]c1=O (3D coordinates assigned)
O=C(COc1ccccc1)c1c([O-])[nH]c(=O)[n-]c1=O (optimized conformer: 33.72638283737568 kcal/mol)

>  <smiles>  (34) 
O=C(COc1ccccc1)c1c(O)[nH]c(=O)[nH]c1=O

>  <score_type>  (34) 
oracle

>  <origin>  (34) 
adg

>  <m_score__min__energy>  (34) 
-12.58

>  <m_primary>  (34) 
energy

$$$$
34:0
     RDKit          3D

 37 39  0  0  0  0  0  0  0  0999 V2000
   56.5350   23.5370   43.5170 C   0  0  0  0  0  0  0  0  0  0  0  0
   57.4280   22.9860   44.5770 C   0  0  0  0  0  0  0  0  0  0  0  0
   57.1060   23.1080   45.8280 N   0  0  0  0  0  0  0  0  0  0  0  0
   56.5940   24.3120   46.4150 C   0  0  0  0  0  0  0  0  0  0  0  0
   55.6030   24.2640   47.1950 O   0  0  0  0  0  0  0  0  0  0  0  0
   57.2460   25.6150   46.1220 C   0  0  0  0  0  0  0  0  0  0  0  0
   56.4750   26.7590   45.8320 C   0  0  0  0  0  0  0  0  0  0  0  0
   55.0850   26.7090   45.9190 O   0  0  0  0  0  0  0  0  0  0  0  0
   57.1020   27.9690   45.4780 C   0  0  0  0  0  0  0  0  0  0  0  0
   56.2960   29.1690   45.1590 C   0  0  0  0  0  0  0  0  0  0  0  0
   56.7180   30.1980   44.4060 C   0  0  0  0  0  0  0  0  0  0  0  0
   57.4230   31.3950   44.9100 C   0  0  0  0  0  0  0  0  0  0  0  0
   57.7130   31.6060   46.1620 N   0  0  0  0  0  0  0  0  0  0  0  0
   58.3750   32.8710   46.2180 C   0  0  0  0  0  0  0  0  0  0  0  0
   58.8960   33.4930   47.3510 C   0  0  0  0  0  0  0  0  0  0  0  0
   59.5280   34.7400   47.1900 C   0  0  0  0  0  0  0  0  0  0  0  0
   59.6290   35.3320   45.9110 C   0  0  0  0  0  0  0  0  0  0  0  0
   59.0980   34.6810   44.7820 C   0  0  0  0  0  0  0  0  0  0  0  0
   58.4770   33.4500   44.9780 C   0  0  0  0  0  0  0  0  0  0  0  0
   57.8540   32.5180   44.0710 C   0  0  0  0  0  0  0  0  0  0  0  0
   57.7200   32.6390   42.8250 O   0  0  0  0  0  0  0  0  0  0  0  0
   58.5090   28.0350   45.4960 C   0  0  0  0  0  0  0  0  0  0  0  0
   59.1950   29.2090   45.1830 O   0  0  0  0  0  0  0  0  0  0  0  0
   59.2290   26.9290   45.8110 N   0  0  0  0  0  0  0  0  0  0  0  0
   58.6510   25.7380   46.1120 C   0  0  0  0  0  0  0  0  0  0  0  0
   59.3890   24.7510   46.3670 O   0  0  0  0  0  0  0  0  0  0  0  0
   55.6882   24.0595   43.9860 H   0  0  0  0  0  0  0  0  0  0  0  0
   57.1007   24.2433   42.8916 H   0  0  0  0  0  0  0  0  0  0  0  0
   56.1575   22.7146   42.8916 H   0  0  0  0  0  0  0  0  0  0  0  0
   58.3613   22.4752   44.2977 H   0  0  0  0  0  0  0  0  0  0  0  0
   55.2765   29.2218   45.5688 H   0  0  0  0  0  0  0  0  0  0  0  0
   56.5227   30.1454   43.3248 H   0  0  0  0  0  0  0  0  0  0  0  0
   58.8156   33.0230   48.3423 H   0  0  0  0  0  0  0  0  0  0  0  0
   59.9463   35.2575   48.0659 H   0  0  0  0  0  0  0  0  0  0  0  0
   60.1254   36.3070   45.7972 H   0  0  0  0  0  0  0  0  0  0  0  0
   59.1709   35.1287   43.7799 H   0  0  0  0  0  0  0  0  0  0  0  0
   59.1440   30.0460   45.7510 H   0  0  0  0  0  0  0  0  0  0  0  0
  1  2  1  0
  2  3  2  3
  3  4  1  0
  4  5  2  0
  4  6  1  0
  6  7  2  0
  7  8  1  0
  7  9  1  0
  9 10  1  0
 10 11  2  3
 11 12  1  0
 12 13  2  0
 13 14  1  0
 14 15  2  0
 15 16  1  0
 16 17  2  0
 17 18  1  0
 18 19  2  0
 19 20  1  0
 20 21  2  0
  9 22  2  0
 22 23  1  0
 22 24  1  0
 24 25  1  0
 25 26  2  0
 25  6  1  0
 20 12  1  0
 19 14  1  0
  1 27  1  0
  1 28  1  0
  1 29  1  0
  2 30  1  0
 10 31  1  0
 11 32  1  0
 15 33  1  0
 16 34  1  0
 17 35  1  0
 18 36  1  0
 23 37  1  0
M  CHG  2   8  -1  24  -1
M  END
>  <UniqueID>  (35) 
31

>  <SMILES>  (35) 
CC=NC(=O)c1c([O-])c(C=CC2=Nc3ccccc3C2=O)c(O)[n-]c1=O

>  <Energy>  (35) 
84.54602579759285

>  <Genealogy>  (35) 
CC=NC(=O)c1c([O-])c(C=CC2=Nc3ccccc3C2=O)c(O)[n-]c1=O (protonated)
CC=NC(=O)c1c([O-])c(C=CC2=Nc3ccccc3C2=O)c(O)[n-]c1=O (3D coordinates assigned)
CC=NC(=O)c1c([O-])c(C=CC2=Nc3ccccc3C2=O)c(O)[n-]c1=O (nonaromatic ring conformer: 84.54602579759285 kcal/mol)

>  <smiles>  (35) 
CC=NC(=O)c1c(O)c(C=CC2=Nc3ccccc3C2=O)c(O)[nH]c1=O

>  <score_type>  (35) 
oracle

>  <origin>  (35) 
adg

>  <m_score__min__energy>  (35) 
-12.93

>  <m_primary>  (35) 
energy

$$$$
35:0
     RDKit          3D

 51 53  0  0  0  0  0  0  0  0999 V2000
   63.8780   33.1220   47.8700 C   0  0  0  0  0  0  0  0  0  0  0  0
   63.0030   33.9490   48.8050 C   0  0  0  0  0  0  0  0  0  0  0  0
   61.5790   33.9370   48.3490 C   0  0  0  0  0  0  0  0  0  0  0  0
   60.6600   34.1860   49.1730 O   0  0  0  0  0  0  0  0  0  0  0  0
   61.2740   33.7330   46.9630 N   0  0  0  0  0  0  0  0  0  0  0  0
   60.0070   33.2480   46.4830 C   0  0  0  0  0  0  0  0  0  0  0  0
   59.4620   33.7940   45.3110 C   0  0  0  0  0  0  0  0  0  0  0  0
   58.2770   33.2830   44.7760 C   0  0  0  0  0  0  0  0  0  0  0  0
   57.6350   32.1920   45.3880 C   0  0  0  0  0  0  0  0  0  0  0  0
   56.4710   31.5810   44.8220 N   0  0  0  0  0  0  0  0  0  0  0  0
   56.4190   29.9950   44.1230 S   0  0  0  0  0  0  0  0  0  0  0  0
   55.1420   29.3230   44.5230 O   0  0  0  0  0  0  0  0  0  0  0  0
   56.4680   30.1190   42.6300 O   0  0  0  0  0  0  0  0  0  0  0  0
   57.7770   29.0420   44.7150 C   0  0  0  0  0  0  0  0  0  0  0  0
   59.0820   29.5240   44.5460 C   0  0  0  0  0  0  0  0  0  0  0  0
   60.1760   28.7150   44.8670 C   0  0  0  0  0  0  0  0  0  0  0  0
   59.9720   27.4180   45.3460 C   0  0  0  0  0  0  0  0  0  0  0  0
   58.6680   26.9290   45.5280 C   0  0  0  0  0  0  0  0  0  0  0  0
   58.4450   25.5340   45.9530 C   0  0  0  0  0  0  0  0  0  0  0  0
   58.5300   25.2500   47.1770 O   0  0  0  0  0  0  0  0  0  0  0  0
   58.0820   24.5140   45.0030 N   0  0  0  0  0  0  0  0  0  0  0  0
   57.4290   24.8580   43.7370 C   0  0  0  0  0  0  0  0  0  0  0  0
   56.4180   23.7710   43.3620 C   0  0  0  0  0  0  0  0  0  0  0  0
   57.0200   22.4940   43.3870 O   0  0  0  0  0  0  0  0  0  0  0  0
   57.4050   22.1750   44.7090 C   0  0  0  0  0  0  0  0  0  0  0  0
   58.5000   23.1240   45.2080 C   0  0  0  0  0  0  0  0  0  0  0  0
   57.5730   27.7540   45.2350 C   0  0  0  0  0  0  0  0  0  0  0  0
   58.1630   31.6630   46.5710 C   0  0  0  0  0  0  0  0  0  0  0  0
   59.3440   32.1800   47.1130 C   0  0  0  0  0  0  0  0  0  0  0  0
   64.5508   32.4861   48.4642 H   0  0  0  0  0  0  0  0  0  0  0  0
   63.2404   32.4888   47.2355 H   0  0  0  0  0  0  0  0  0  0  0  0
   64.4742   33.7943   47.2355 H   0  0  0  0  0  0  0  0  0  0  0  0
   63.0604   33.5275   49.8194 H   0  0  0  0  0  0  0  0  0  0  0  0
   63.3658   34.9875   48.8007 H   0  0  0  0  0  0  0  0  0  0  0  0
   62.0250   33.9310   46.2670 H   0  0  0  0  0  0  0  0  0  0  0  0
   59.9714   34.6303   44.8099 H   0  0  0  0  0  0  0  0  0  0  0  0
   57.8442   33.7362   43.8719 H   0  0  0  0  0  0  0  0  0  0  0  0
   59.2459   30.5409   44.1600 H   0  0  0  0  0  0  0  0  0  0  0  0
   61.1989   29.0998   44.7424 H   0  0  0  0  0  0  0  0  0  0  0  0
   60.8353   26.7782   45.5812 H   0  0  0  0  0  0  0  0  0  0  0  0
   56.9072   25.8203   43.8451 H   0  0  0  0  0  0  0  0  0  0  0  0
   58.1892   24.9351   42.9457 H   0  0  0  0  0  0  0  0  0  0  0  0
   55.5848   23.7907   44.0799 H   0  0  0  0  0  0  0  0  0  0  0  0
   56.0517   23.9674   42.3436 H   0  0  0  0  0  0  0  0  0  0  0  0
   56.5287   22.2588   45.3687 H   0  0  0  0  0  0  0  0  0  0  0  0
   57.8001   21.1485   44.7202 H   0  0  0  0  0  0  0  0  0  0  0  0
   58.6744   22.9492   46.2799 H   0  0  0  0  0  0  0  0  0  0  0  0
   59.4273   22.9365   44.6468 H   0  0  0  0  0  0  0  0  0  0  0  0
   56.5501   27.3907   45.4132 H   0  0  0  0  0  0  0  0  0  0  0  0
   57.6457   30.8351   47.0780 H   0  0  0  0  0  0  0  0  0  0  0  0
   59.7565   31.7488   48.0371 H   0  0  0  0  0  0  0  0  0  0  0  0
  1  2  1  0
  2  3  1  0
  3  4  2  0
  3  5  1  0
  5  6  1  0
  6  7  2  0
  7  8  1  0
  8  9  2  0
  9 10  1  0
 10 11  1  0
 11 12  2  0
 11 13  2  0
 11 14  1  0
 14 15  2  0
 15 16  1  0
 16 17  2  0
 17 18  1  0
 18 19  1  0
 19 20  2  0
 19 21  1  0
 21 22  1  0
 22 23  1  0
 23 24  1  0
 24 25  1  0
 25 26  1  0
 18 27  2  0
  9 28  1  0
 28 29  2  0
 29  6  1  0
 27 14  1  0
 26 21  1  0
  1 30  1  0
  1 31  1  0
  1 32  1  0
  2 33  1  0
  2 34  1  0
  5 35  1  0
  7 36  1  0
  8 37  1  0
 15 38  1  0
 16 39  1  0
 17 40  1  0
 22 41  1  0
 22 42  1  0
 23 43  1  0
 23 44  1  0
 25 45  1  0
 25 46  1  0
 26 47  1  0
 26 48  1  0
 27 49  1  0
 28 50  1  0
 29 51  1  0
M  CHG  1  10  -1
M  END
>  <UniqueID>  (36) 
32

>  <SMILES>  (36) 
CCC(=O)Nc1ccc([N-]S(=O)(=O)c2cccc(C(=O)N3CCOCC3)c2)cc1

>  <Energy>  (36) 
62.47170017085861

>  <Genealogy>  (36) 
CCC(=O)Nc1ccc([N-]S(=O)(=O)c2cccc(C(=O)N3CCOCC3)c2)cc1 (protonated)
CCC(=O)Nc1ccc([N-]S(=O)(=O)c2cccc(C(=O)N3CCOCC3)c2)cc1 (3D coordinates assigned)
CCC(=O)Nc1ccc([N-]S(=O)(=O)c2cccc(C(=O)N3CCOCC3)c2)cc1 (nonaromatic ring conformer: 62.47170017085861 kcal/mol)

>  <smiles>  (36) 
CCC(=O)Nc1ccc(NS(=O)(=O)c2cccc(C(=O)N3CCOCC3)c2)cc1

>  <score_type>  (36) 
oracle

>  <origin>  (36) 
adg

>  <m_score__min__energy>  (36) 
-10.710000000000001

>  <m_primary>  (36) 
energy

$$$$
36:0
     RDKit          3D

 39 42  0  0  0  0  0  0  0  0999 V2000
   57.9220   31.7810   50.5300 C   0  0  0  0  0  0  0  0  0  0  0  0
   58.9330   30.8220   50.0500 N   0  0  0  0  0  0  0  0  0  0  0  0
   59.5390   30.9430   48.8140 C   0  0  0  0  0  0  0  0  0  0  0  0
   60.1700   29.8120   48.2440 C   0  0  0  0  0  0  0  0  0  0  0  0
   60.4280   28.7150   49.0810 C   0  0  0  0  0  0  0  0  0  0  0  0
   61.1000   27.7310   48.6730 O   0  0  0  0  0  0  0  0  0  0  0  0
   59.9570   28.7100   50.3480 N   0  0  0  0  0  0  0  0  0  0  0  0
   59.2060   29.7270   50.8310 C   0  0  0  0  0  0  0  0  0  0  0  0
   58.7550   29.6440   52.0060 O   0  0  0  0  0  0  0  0  0  0  0  0
   60.6140   29.8060   46.7860 C   0  0  1  0  0  0  0  0  0  0  0  0
   60.2590   28.5290   46.1550 N   0  0  0  0  0  0  0  0  0  0  0  0
   58.9160   28.0200   46.0980 C   0  0  0  0  0  0  0  0  0  0  0  0
   58.5290   26.8800   46.8250 C   0  0  0  0  0  0  0  0  0  0  0  0
   57.2110   26.4180   46.7640 C   0  0  0  0  0  0  0  0  0  0  0  0
   56.2640   27.0940   45.9870 C   0  0  0  0  0  0  0  0  0  0  0  0
   54.9560   26.6310   45.9260 O   0  0  0  0  0  0  0  0  0  0  0  0
   56.6360   28.2380   45.2770 C   0  0  0  0  0  0  0  0  0  0  0  0
   57.9540   28.7050   45.3370 C   0  0  0  0  0  0  0  0  0  0  0  0
   59.9820   30.8860   46.0260 N   0  0  0  0  0  0  0  0  0  0  0  0
   59.7190   32.1510   46.6380 C   0  0  0  0  0  0  0  0  0  0  0  0
   59.6940   33.3180   45.8600 C   0  0  0  0  0  0  0  0  0  0  0  0
   59.6030   34.5660   46.4750 C   0  0  0  0  0  0  0  0  0  0  0  0
   59.5700   34.6540   47.8670 C   0  0  0  0  0  0  0  0  0  0  0  0
   59.5750   33.4930   48.6440 C   0  0  0  0  0  0  0  0  0  0  0  0
   59.5650   32.2220   48.0340 C   0  0  0  0  0  0  0  0  0  0  0  0
   57.9155   31.7871   51.6300 H   0  0  0  0  0  0  0  0  0  0  0  0
   58.1661   32.7874   50.1591 H   0  0  0  0  0  0  0  0  0  0  0  0
   56.9298   31.4842   50.1591 H   0  0  0  0  0  0  0  0  0  0  0  0
   61.7044   29.9510   46.7773 H   0  0  0  0  0  0  0  0  0  0  0  0
   61.0420   27.8580   45.9810 H   0  0  0  0  0  0  0  0  0  0  0  0
   59.2669   26.3493   47.4446 H   0  0  0  0  0  0  0  0  0  0  0  0
   56.9177   25.5206   47.3284 H   0  0  0  0  0  0  0  0  0  0  0  0
   55.8914   28.7731   44.6694 H   0  0  0  0  0  0  0  0  0  0  0  0
   58.2382   29.6133   44.7854 H   0  0  0  0  0  0  0  0  0  0  0  0
   59.9910   30.8240   44.9830 H   0  0  0  0  0  0  0  0  0  0  0  0
   59.7462   33.2484   44.7634 H   0  0  0  0  0  0  0  0  0  0  0  0
   59.5573   35.4795   45.8639 H   0  0  0  0  0  0  0  0  0  0  0  0
   59.5400   35.6399   48.3539 H   0  0  0  0  0  0  0  0  0  0  0  0
   59.5868   33.5712   49.7412 H   0  0  0  0  0  0  0  0  0  0  0  0
  1  2  1  0
  2  3  1  0
  3  4  2  0
  4  5  1  0
  5  6  2  0
  5  7  1  0
  7  8  1  0
  8  9  2  0
  4 10  1  0
 10 11  1  0
 11 12  1  0
 12 13  2  0
 13 14  1  0
 14 15  2  0
 15 16  1  0
 15 17  1  0
 17 18  2  0
 10 19  1  0
 19 20  1  0
 20 21  2  0
 21 22  1  0
 22 23  2  0
 23 24  1  0
 24 25  2  0
  8  2  1  0
 18 12  1  0
 25 20  1  0
 25  3  1  0
  1 26  1  0
  1 27  1  0
  1 28  1  0
 10 29  1  1
 11 30  1  0
 13 31  1  0
 14 32  1  0
 17 33  1  0
 18 34  1  0
 19 35  1  0
 21 36  1  0
 22 37  1  0
 23 38  1  0
 24 39  1  0
M  CHG  2   7  -1  16  -1
M  END
>  <UniqueID>  (37) 
33

>  <SMILES>  (37) 
Cn1c2c(c(=O)[n-]c1=O)[C@@H](Nc1ccc([O-])cc1)Nc1ccccc1-2

>  <Energy>  (37) 
67.23462538233514

>  <Genealogy>  (37) 
Cn1c2c(c(=O)[n-]c1=O)C(Nc1ccc([O-])cc1)Nc1ccccc1-2 (protonated)
Cn1c2c(c(=O)[n-]c1=O)[C@@H](Nc1ccc([O-])cc1)Nc1ccccc1-2 (chirality)
Cn1c2c(c(=O)[n-]c1=O)[C@@H](Nc1ccc([O-])cc1)Nc1ccccc1-2 (3D coordinates assigned)
Cn1c2c(c(=O)[n-]c1=O)[C@@H](Nc1ccc([O-])cc1)Nc1ccccc1-2 (nonaromatic ring conformer: 67.23462538233514 kcal/mol)

>  <smiles>  (37) 
Cn1c2c(c(=O)[nH]c1=O)C(Nc1ccc(O)cc1)Nc1ccccc1-2

>  <score_type>  (37) 
oracle

>  <origin>  (37) 
adg

>  <m_score__min__energy>  (37) 
-11.529999999999999

>  <m_primary>  (37) 
energy

$$$$
37:0
     RDKit          3D

 51 54  0  0  0  0  0  0  0  0999 V2000
   63.7260   30.4450   50.9740 H   0  0  0  0  0  0  0  0  0  0  0  0
   63.0870   30.5570   50.1970 O   0  0  0  0  0  0  0  0  0  0  0  0
   61.7400   30.8910   50.3570 C   0  0  0  0  0  0  0  0  0  0  0  0
   61.3820   31.6100   51.4480 N   0  0  0  0  0  0  0  0  0  0  0  0
   60.0990   31.9850   51.6710 C   0  0  0  0  0  0  0  0  0  0  0  0
   59.8370   32.6730   52.6950 O   0  0  0  0  0  0  0  0  0  0  0  0
   59.1090   31.6200   50.7980 N   0  0  0  0  0  0  0  0  0  0  0  0
   57.7190   32.0480   51.0330 C   0  0  0  0  0  0  0  0  0  0  0  0
   57.5312   32.1058   52.1153 H   0  0  0  0  0  0  0  0  0  0  0  0
   57.5583   33.0372   50.5796 H   0  0  0  0  0  0  0  0  0  0  0  0
   57.0297   31.3205   50.5796 H   0  0  0  0  0  0  0  0  0  0  0  0
   59.4280   30.9080   49.6670 C   0  0  0  0  0  0  0  0  0  0  0  0
   58.5190   30.5730   48.8570 O   0  0  0  0  0  0  0  0  0  0  0  0
   60.7620   30.5270   49.4150 C   0  0  0  0  0  0  0  0  0  0  0  0
   61.1280   29.7240   48.2250 C   0  0  0  0  0  0  0  0  0  0  0  0
   61.4763   28.6902   48.3664 H   0  0  0  0  0  0  0  0  0  0  0  0
   61.0480   30.2180   46.9810 C   0  0  0  0  0  0  0  0  0  0  0  0
   61.8873   30.8252   46.6110 H   0  0  0  0  0  0  0  0  0  0  0  0
   59.8960   29.9950   46.0740 C   0  0  0  0  0  0  0  0  0  0  0  0
   59.7510   28.8230   45.3050 C   0  0  0  0  0  0  0  0  0  0  0  0
   60.5084   28.0280   45.3709 H   0  0  0  0  0  0  0  0  0  0  0  0
   58.6510   28.6660   44.4600 C   0  0  0  0  0  0  0  0  0  0  0  0
   58.5410   27.7434   43.8711 H   0  0  0  0  0  0  0  0  0  0  0  0
   57.6890   29.6740   44.3580 C   0  0  0  0  0  0  0  0  0  0  0  0
   56.8214   29.5399   43.6952 H   0  0  0  0  0  0  0  0  0  0  0  0
   57.8280   30.8610   45.1020 C   0  0  0  0  0  0  0  0  0  0  0  0
   56.8990   31.9130   45.0360 O   0  0  0  0  0  0  0  0  0  0  0  0
   57.1680   33.2800   45.3470 C   0  0  0  0  0  0  0  0  0  0  0  0
   58.0771   33.5986   44.8160 H   0  0  0  0  0  0  0  0  0  0  0  0
   56.3079   33.8893   45.0325 H   0  0  0  0  0  0  0  0  0  0  0  0
   57.3750   33.4630   46.8480 C   0  0  0  0  0  0  0  0  0  0  0  0
   56.4010   33.6057   47.3388 H   0  0  0  0  0  0  0  0  0  0  0  0
   57.8651   32.5707   47.2645 H   0  0  0  0  0  0  0  0  0  0  0  0
   58.1830   34.5920   47.0700 O   0  0  0  0  0  0  0  0  0  0  0  0
   59.4180   34.1250   47.3910 N   0  0  0  0  0  0  0  0  0  0  0  0
   60.4870   33.8910   46.4770 C   0  0  0  0  0  0  0  0  0  0  0  0
   60.3540   33.8390   45.2260 O   0  0  0  0  0  0  0  0  0  0  0  0
   61.7400   33.7590   47.2140 C   0  0  0  0  0  0  0  0  0  0  0  0
   63.0390   33.5190   46.7670 C   0  0  0  0  0  0  0  0  0  0  0  0
   63.2539   33.3816   45.6970 H   0  0  0  0  0  0  0  0  0  0  0  0
   64.0660   33.4580   47.7260 C   0  0  0  0  0  0  0  0  0  0  0  0
   65.1007   33.2655   47.4062 H   0  0  0  0  0  0  0  0  0  0  0  0
   63.7790   33.6420   49.0960 C   0  0  0  0  0  0  0  0  0  0  0  0
   64.5917   33.5918   49.8356 H   0  0  0  0  0  0  0  0  0  0  0  0
   62.4620   33.8890   49.5220 C   0  0  0  0  0  0  0  0  0  0  0  0
   62.2296   34.0375   50.5869 H   0  0  0  0  0  0  0  0  0  0  0  0
   61.4600   33.9400   48.5550 C   0  0  0  0  0  0  0  0  0  0  0  0
   60.0260   34.1870   48.6790 C   0  0  0  0  0  0  0  0  0  0  0  0
   59.4090   34.4470   49.7440 O   0  0  0  0  0  0  0  0  0  0  0  0
   58.9310   31.0090   45.9510 C   0  0  0  0  0  0  0  0  0  0  0  0
   59.0444   31.9359   46.5324 H   0  0  0  0  0  0  0  0  0  0  0  0
  1  2  1  0
  2  3  1  0
  3  4  1  0
  4  5  1  0
  5  6  2  0
  5  7  1  0
  7  8  1  0
  8  9  1  0
  8 10  1  0
  8 11  1  0
  7 12  1  0
 12 13  2  0
 12 14  1  0
 14 15  1  0
 15 16  1  0
 15 17  2  0
 17 18  1  0
 17 19  1  0
 19 20  2  0
 20 21  1  0
 20 22  1  0
 22 23  1  0
 22 24  2  0
 24 25  1  0
 24 26  1  0
 26 27  1  0
 27 28  1  0
 28 29  1  0
 28 30  1  0
 28 31  1  0
 31 32  1  0
 31 33  1  0
 31 34  1  0
 34 35  1  0
 35 36  1  0
 36 37  2  0
 36 38  1  0
 38 39  2  0
 39 40  1  0
 39 41  1  0
 41 42  1  0
 41 43  2  0
 43 44  1  0
 43 45  1  0
 45 46  1  0
 45 47  2  0
 47 48  1  0
 48 49  2  0
 26 50  2  0
 50 51  1  0
 14  3  2  0
 50 19  1  0
 48 35  1  0
 47 38  1  0
M  CHG  1   4  -1
M  END
>  <UniqueID>  (38) 
34

>  <SMILES>  (38) 
Cn1c(=O)[n-]c(O)c(/C=C/c2cccc(OCCON3C(=O)c4ccccc4C3=O)c2)c1=O

>  <Energy>  (38) 
99.72642757419509

>  <Genealogy>  (38) 
Cn1c(=O)[n-]c(O)c(C=Cc2cccc(OCCON3C(=O)c4ccccc4C3=O)c2)c1=O (protonated)
Cn1c(=O)[n-]c(O)c(/C=C/c2cccc(OCCON3C(=O)c4ccccc4C3=O)c2)c1=O (cis-trans isomerization)
Cn1c(=O)[n-]c(O)c(/C=C/c2cccc(OCCON3C(=O)c4ccccc4C3=O)c2)c1=O (3D coordinates assigned)
Cn1c(=O)[n-]c(O)c(/C=C/c2cccc(OCCON3C(=O)c4ccccc4C3=O)c2)c1=O (nonaromatic ring conformer: 99.72642757419509 kcal/mol)

>  <smiles>  (38) 
Cn1c(=O)[nH]c(O)c(C=Cc2cccc(OCCON3C(=O)c4ccccc4C3=O)c2)c1=O

>  <score_type>  (38) 
oracle

>  <origin>  (38) 
adg

>  <m_score__min__energy>  (38) 
-12.460000000000001

>  <m_primary>  (38) 
energy

$$$$
38:0
     RDKit          3D

 70 71  0  0  0  0  0  0  0  0999 V2000
   59.4239   26.5911   43.4790 H   0  0  0  0  0  0  0  0  0  0  0  0
   59.2800   33.3900   48.0390 C   0  0  0  0  0  0  0  0  0  0  0  0
   57.5990   25.4960   44.0900 C   0  0  0  0  0  0  0  0  0  0  0  0
   58.7727   32.4486   48.2969 H   0  0  0  0  0  0  0  0  0  0  0  0
   58.3290   26.6670   43.5530 C   0  0  0  0  0  0  0  0  0  0  0  0
   57.3860   25.4440   45.4250 C   0  0  0  0  0  0  0  0  0  0  0  0
   57.7407   24.5355   45.9337 H   0  0  0  0  0  0  0  0  0  0  0  0
   56.7370   26.4540   46.2850 C   0  0  0  0  0  0  0  0  0  0  0  0
   55.4930   26.6740   46.2180 O   0  0  0  0  0  0  0  0  0  0  0  0
   57.5560   27.1470   47.2420 N   0  0  0  0  0  0  0  0  0  0  0  0
   58.5820   28.1420   47.0370 C   0  0  0  0  0  0  0  0  0  0  0  0
   58.6220   29.3570   47.7450 C   0  0  0  0  0  0  0  0  0  0  0  0
   57.8245   29.6019   48.4620 H   0  0  0  0  0  0  0  0  0  0  0  0
   59.6790   30.2570   47.5370 C   0  0  0  0  0  0  0  0  0  0  0  0
   59.7169   31.1988   48.1041 H   0  0  0  0  0  0  0  0  0  0  0  0
   60.6840   29.9600   46.6110 C   0  0  0  0  0  0  0  0  0  0  0  0
   61.5063   30.6712   46.4434 H   0  0  0  0  0  0  0  0  0  0  0  0
   60.6420   28.7600   45.9000 C   0  0  0  0  0  0  0  0  0  0  0  0
   61.4328   28.5248   45.1725 H   0  0  0  0  0  0  0  0  0  0  0  0
   59.5960   27.8560   46.1110 C   0  0  0  0  0  0  0  0  0  0  0  0
   59.5682   26.9126   45.5460 H   0  0  0  0  0  0  0  0  0  0  0  0
   57.0310   24.4770   43.1240 C   0  0  0  0  0  0  0  0  0  0  0  0
   56.5715   23.6526   43.6889 H   0  0  0  0  0  0  0  0  0  0  0  0
   56.2700   24.9565   42.4908 H   0  0  0  0  0  0  0  0  0  0  0  0
   57.8390   24.0819   42.4908 H   0  0  0  0  0  0  0  0  0  0  0  0
   57.7610   27.8120   43.1500 C   0  0  0  0  0  0  0  0  0  0  0  0
   57.6756   27.9922   42.0682 H   0  0  0  0  0  0  0  0  0  0  0  0
   57.2040   30.1840   43.8170 C   0  0  0  0  0  0  0  0  0  0  0  0
   57.6080   32.4040   44.9450 C   0  0  0  0  0  0  0  0  0  0  0  0
   56.8476   28.5201   45.0470 H   0  0  0  0  0  0  0  0  0  0  0  0
   58.7940   34.4650   45.7640 C   0  0  0  0  0  0  0  0  0  0  0  0
   56.5672   32.7166   45.1151 H   0  0  0  0  0  0  0  0  0  0  0  0
   57.2380   28.8560   44.0750 C   0  0  0  0  0  0  0  0  0  0  0  0
   58.6915   30.6651   45.4086 H   0  0  0  0  0  0  0  0  0  0  0  0
   57.8940   31.0940   44.7840 C   0  0  0  0  0  0  0  0  0  0  0  0
   58.6810   33.4250   44.8950 C   0  0  0  0  0  0  0  0  0  0  0  0
   59.4373   33.3356   44.1012 H   0  0  0  0  0  0  0  0  0  0  0  0
   58.5890   34.2070   47.2200 C   0  0  0  0  0  0  0  0  0  0  0  0
   57.7608   34.7592   47.6882 H   0  0  0  0  0  0  0  0  0  0  0  0
   60.6350   33.5710   48.6510 C   0  0  0  0  0  0  0  0  0  0  0  0
   61.7770   33.5860   47.8910 C   0  0  0  0  0  0  0  0  0  0  0  0
   61.7600   33.4790   46.3880 C   0  0  0  0  0  0  0  0  0  0  0  0
   61.5935   32.4314   46.0969 H   0  0  0  0  0  0  0  0  0  0  0  0
   60.9500   34.1047   45.9850 H   0  0  0  0  0  0  0  0  0  0  0  0
   62.7240   33.8228   45.9850 H   0  0  0  0  0  0  0  0  0  0  0  0
   63.1170   33.6930   48.5250 C   0  0  0  0  0  0  0  0  0  0  0  0
   64.1420   33.8940   47.8150 O   0  0  0  0  0  0  0  0  0  0  0  0
   63.2960   33.4400   49.9870 C   0  0  0  0  0  0  0  0  0  0  0  0
   63.4883   32.3690   50.1481 H   0  0  0  0  0  0  0  0  0  0  0  0
   64.1459   34.0367   50.3498 H   0  0  0  0  0  0  0  0  0  0  0  0
   62.0420   33.8470   50.7580 C   0  0  0  0  0  0  0  0  0  0  0  0
   62.1432   33.5054   51.7987 H   0  0  0  0  0  0  0  0  0  0  0  0
   61.9551   34.9417   50.6939 H   0  0  0  0  0  0  0  0  0  0  0  0
   60.7440   33.2400   50.1610 C   0  0  0  0  0  0  0  0  0  0  0  0
   59.5550   33.8390   50.9640 C   0  0  0  0  0  0  0  0  0  0  0  0
   59.7530   33.7393   52.0414 H   0  0  0  0  0  0  0  0  0  0  0  0
   59.4395   34.9029   50.7093 H   0  0  0  0  0  0  0  0  0  0  0  0
   58.6313   33.2987   50.7093 H   0  0  0  0  0  0  0  0  0  0  0  0
   60.7190   31.6990   50.3430 C   0  0  0  0  0  0  0  0  0  0  0  0
   60.7151   31.4565   51.4159 H   0  0  0  0  0  0  0  0  0  0  0  0
   59.8141   31.2887   49.8710 H   0  0  0  0  0  0  0  0  0  0  0  0
   61.6101   31.2595   49.8710 H   0  0  0  0  0  0  0  0  0  0  0  0
   59.6040   35.6850   45.3890 C   0  0  0  0  0  0  0  0  0  0  0  0
   59.9428   36.1953   46.3027 H   0  0  0  0  0  0  0  0  0  0  0  0
   60.4776   35.3770   44.7957 H   0  0  0  0  0  0  0  0  0  0  0  0
   58.9811   36.3705   44.7957 H   0  0  0  0  0  0  0  0  0  0  0  0
   56.6300   30.7280   42.5220 C   0  0  0  0  0  0  0  0  0  0  0  0
   55.8489   31.4683   42.7496 H   0  0  0  0  0  0  0  0  0  0  0  0
   57.4303   31.2069   41.9388 H   0  0  0  0  0  0  0  0  0  0  0  0
   56.1947   29.9031   41.9388 H   0  0  0  0  0  0  0  0  0  0  0  0
  1  2  1  0
  2  3  2  3
  3  4  1  0
  3  5  1  0
  5  6  2  3
  6  7  1  0
  6  8  1  0
  8  9  2  0
  8 10  1  0
 10 11  1  0
 11 12  2  0
 12 13  1  0
 12 14  1  0
 14 15  1  0
 14 16  2  0
 16 17  1  0
 16 18  1  0
 18 19  1  0
 18 20  2  0
 20 21  1  0
  5 22  1  0
 22 23  1  0
 22 24  1  0
 22 25  1  0
  2 26  1  0
 26 27  1  0
 26 28  2  0
 28 29  1  0
 29 30  1  0
 29 31  2  0
 31 32  1  0
 31 33  1  0
 33 34  1  0
 33 35  2  0
 35 36  1  0
 36 37  1  0
 36 38  2  0
 38 39  1  0
 38 40  1  0
 40 41  2  0
 41 42  1  0
 42 43  1  0
 42 44  1  0
 42 45  1  0
 41 46  1  0
 46 47  2  0
 46 48  1  0
 48 49  1  0
 48 50  1  0
 48 51  1  0
 51 52  1  0
 51 53  1  0
 51 54  1  0
 54 55  1  0
 55 56  1  0
 55 57  1  0
 55 58  1  0
 54 59  1  0
 59 60  1  0
 59 61  1  0
 59 62  1  0
 35 63  1  0
 63 64  1  0
 63 65  1  0
 63 66  1  0
 28 67  1  0
 67 68  1  0
 67 69  1  0
 67 70  1  0
 20 11  1  0
 54 40  1  0
M  CHG  1  10  -1
M  END
>  <UniqueID>  (39) 
35

>  <SMILES>  (39) 
CC(C=CC=C(C)/C=C/C=C(C)/C=C\C1=C(C)C(=O)CCC1(C)C)=CC(=O)[N-]c1ccccc1

>  <Energy>  (39) 
111.98871954344476

>  <Genealogy>  (39) 
CC(C=CC=C(C)C=CC1=C(C)C(=O)CCC1(C)C)=CC=CC(C)=CC(=O)[N-]c1ccccc1 (protonated)
CC(C=CC=C(C)/C=C/C=C(C)/C=C\C1=C(C)C(=O)CCC1(C)C)=CC(=O)[N-]c1ccccc1 (cis-trans isomerization)
CC(C=CC=C(C)/C=C/C=C(C)/C=C\C1=C(C)C(=O)CCC1(C)C)=CC(=O)[N-]c1ccccc1 (3D coordinates assigned)
CC(C=CC=C(C)/C=C/C=C(C)/C=C\C1=C(C)C(=O)CCC1(C)C)=CC(=O)[N-]c1ccccc1 (nonaromatic ring conformer: 111.98871954344476 kcal/mol)

>  <smiles>  (39) 
CC(C=CC=C(C)C=CC1=C(C)C(=O)CCC1(C)C)=CC=CC(C)=CC(=O)Nc1ccccc1

>  <score_type>  (39) 
oracle

>  <origin>  (39) 
adg

>  <m_score__min__energy>  (39) 
-12.25

>  <m_primary>  (39) 
energy

$$$$
39:0
     RDKit          3D

 62 65  0  0  0  0  0  0  0  0999 V2000
   60.4540   26.7910   47.9880 C   0  0  0  0  0  0  0  0  0  0  0  0
   60.2130   28.1300   48.6160 C   0  0  0  0  0  0  0  0  0  0  0  0
   59.1480   28.9320   48.1890 C   0  0  0  0  0  0  0  0  0  0  0  0
   58.8970   30.1570   48.8120 C   0  0  0  0  0  0  0  0  0  0  0  0
   59.6920   30.5900   49.8800 C   0  0  0  0  0  0  0  0  0  0  0  0
   59.3770   31.8590   50.4710 N   0  0  0  0  0  0  0  0  0  0  0  0
   59.5890   33.1390   49.8590 C   0  0  0  0  0  0  0  0  0  0  0  0
   59.5910   34.1930   50.5510 O   0  0  0  0  0  0  0  0  0  0  0  0
   59.7880   33.2190   48.4090 C   0  0  0  0  0  0  0  0  0  0  0  0
   58.6750   33.0870   47.5690 C   0  0  0  0  0  0  0  0  0  0  0  0
   58.8140   33.2140   46.1840 C   0  0  0  0  0  0  0  0  0  0  0  0
   57.4100   33.0230   45.1340 S   0  0  0  0  0  0  0  0  0  0  0  0
   56.3260   33.9360   45.6350 O   0  0  0  0  0  0  0  0  0  0  0  0
   57.7730   33.4350   43.7330 O   0  0  0  0  0  0  0  0  0  0  0  0
   56.7930   31.3940   45.0830 N   0  0  0  0  0  0  0  0  0  0  0  0
   57.5590   30.1840   45.1180 C   0  0  0  0  0  0  0  0  0  0  0  0
   58.8940   30.2230   44.6930 C   0  0  0  0  0  0  0  0  0  0  0  0
   59.6570   29.0530   44.6550 C   0  0  0  0  0  0  0  0  0  0  0  0
   59.0880   27.8340   45.0380 C   0  0  0  0  0  0  0  0  0  0  0  0
   57.7680   27.7890   45.5010 C   0  0  0  0  0  0  0  0  0  0  0  0
   57.0500   26.2390   45.9320 S   0  0  0  0  0  0  0  0  0  0  0  0
   55.3310   26.4250   46.0200 N   0  0  0  0  0  0  0  0  0  0  0  0
   57.5680   25.7810   47.2630 O   0  0  0  0  0  0  0  0  0  0  0  0
   57.3980   25.2140   44.8850 O   0  0  0  0  0  0  0  0  0  0  0  0
   57.0160   28.9720   45.5730 C   0  0  0  0  0  0  0  0  0  0  0  0
   60.0730   33.4880   45.6380 C   0  0  0  0  0  0  0  0  0  0  0  0
   61.1850   33.6180   46.4660 C   0  0  0  0  0  0  0  0  0  0  0  0
   61.0600   33.4810   47.8540 C   0  0  0  0  0  0  0  0  0  0  0  0
   62.2420   33.5380   48.6720 N   0  0  0  0  0  0  0  0  0  0  0  0
   63.3900   32.6710   48.3950 C   0  0  0  0  0  0  0  0  0  0  0  0
   63.9970   32.1970   49.7210 C   0  0  0  0  0  0  0  0  0  0  0  0
   64.2760   33.2970   50.5700 O   0  0  0  0  0  0  0  0  0  0  0  0
   63.0710   33.9460   50.9360 C   0  0  0  0  0  0  0  0  0  0  0  0
   62.3900   34.5620   49.7100 C   0  0  0  0  0  0  0  0  0  0  0  0
   60.8020   29.8050   50.2870 C   0  0  0  0  0  0  0  0  0  0  0  0
   61.7770   30.2580   51.3410 C   0  0  0  0  0  0  0  0  0  0  0  0
   61.0240   28.5610   49.6730 C   0  0  0  0  0  0  0  0  0  0  0  0
   60.5900   26.0356   48.7759 H   0  0  0  0  0  0  0  0  0  0  0  0
   59.5905   26.5181   47.3635 H   0  0  0  0  0  0  0  0  0  0  0  0
   61.3584   26.8363   47.3635 H   0  0  0  0  0  0  0  0  0  0  0  0
   58.5069   28.5966   47.3605 H   0  0  0  0  0  0  0  0  0  0  0  0
   58.0670   30.7872   48.4601 H   0  0  0  0  0  0  0  0  0  0  0  0
   57.6849   32.8820   48.0022 H   0  0  0  0  0  0  0  0  0  0  0  0
   59.3434   31.1795   44.3878 H   0  0  0  0  0  0  0  0  0  0  0  0
   60.7053   29.0906   44.3238 H   0  0  0  0  0  0  0  0  0  0  0  0
   59.6793   26.9086   44.9752 H   0  0  0  0  0  0  0  0  0  0  0  0
   55.1330   27.4480   46.0950 H   0  0  0  0  0  0  0  0  0  0  0  0
   55.9973   28.9493   45.9875 H   0  0  0  0  0  0  0  0  0  0  0  0
   60.1848   33.6012   44.5496 H   0  0  0  0  0  0  0  0  0  0  0  0
   62.1705   33.8302   46.0258 H   0  0  0  0  0  0  0  0  0  0  0  0
   63.0602   31.8001   47.8094 H   0  0  0  0  0  0  0  0  0  0  0  0
   64.1449   33.2299   47.8224 H   0  0  0  0  0  0  0  0  0  0  0  0
   63.2853   31.5254   50.2235 H   0  0  0  0  0  0  0  0  0  0  0  0
   64.9382   31.6689   49.5084 H   0  0  0  0  0  0  0  0  0  0  0  0
   62.3917   33.2127   51.3953 H   0  0  0  0  0  0  0  0  0  0  0  0
   63.3063   34.7497   51.6492 H   0  0  0  0  0  0  0  0  0  0  0  0
   61.3981   34.9436   49.9937 H   0  0  0  0  0  0  0  0  0  0  0  0
   63.0032   35.3903   49.3254 H   0  0  0  0  0  0  0  0  0  0  0  0
   61.3560   30.0624   52.3383 H   0  0  0  0  0  0  0  0  0  0  0  0
   62.7221   29.7068   51.2274 H   0  0  0  0  0  0  0  0  0  0  0  0
   61.9652   31.3358   51.2274 H   0  0  0  0  0  0  0  0  0  0  0  0
   61.8439   27.9185   50.0265 H   0  0  0  0  0  0  0  0  0  0  0  0
  1  2  1  0
  2  3  2  0
  3  4  1  0
  4  5  2  0
  5  6  1  0
  6  7  1  0
  7  8  2  0
  7  9  1  0
  9 10  2  0
 10 11  1  0
 11 12  1  0
 12 13  2  0
 12 14  2  0
 12 15  1  0
 15 16  1  0
 16 17  2  0
 17 18  1  0
 18 19  2  0
 19 20  1  0
 20 21  1  0
 21 22  1  0
 21 23  2  0
 21 24  2  0
 20 25  2  0
 11 26  2  0
 26 27  1  0
 27 28  2  0
 28 29  1  0
 29 30  1  0
 30 31  1  0
 31 32  1  0
 32 33  1  0
 33 34  1  0
  5 35  1  0
 35 36  1  0
 35 37  2  0
 37  2  1  0
 28  9  1  0
 34 29  1  0
 25 16  1  0
  1 38  1  0
  1 39  1  0
  1 40  1  0
  3 41  1  0
  4 42  1  0
 10 43  1  0
 17 44  1  0
 18 45  1  0
 19 46  1  0
 22 47  1  0
 25 48  1  0
 26 49  1  0
 27 50  1  0
 30 51  1  0
 30 52  1  0
 31 53  1  0
 31 54  1  0
 33 55  1  0
 33 56  1  0
 34 57  1  0
 34 58  1  0
 36 59  1  0
 36 60  1  0
 36 61  1  0
 37 62  1  0
M  CHG  3   6  -1  15  -1  22  -1
M  END
>  <UniqueID>  (40) 
36

>  <SMILES>  (40) 
Cc1ccc([N-]C(=O)c2cc(S(=O)(=O)[N-]c3cccc(S([NH-])(=O)=O)c3)ccc2N2CCOCC2)c(C)c1

>  <Energy>  (40) 
88.73905553485133

>  <Genealogy>  (40) 
Cc1ccc([N-]C(=O)c2cc(S(=O)(=O)[N-]c3cccc(S([NH-])(=O)=O)c3)ccc2N2CCOCC2)c(C)c1 (protonated)
Cc1ccc([N-]C(=O)c2cc(S(=O)(=O)[N-]c3cccc(S([NH-])(=O)=O)c3)ccc2N2CCOCC2)c(C)c1 (3D coordinates assigned)
Cc1ccc([N-]C(=O)c2cc(S(=O)(=O)[N-]c3cccc(S([NH-])(=O)=O)c3)ccc2N2CCOCC2)c(C)c1 (nonaromatic ring conformer: 88.73905553485133 kcal/mol)

>  <smiles>  (40) 
Cc1ccc(NC(=O)c2cc(S(=O)(=O)Nc3cccc(S(N)(=O)=O)c3)ccc2N2CCOCC2)c(C)c1

>  <score_type>  (40) 
oracle

>  <origin>  (40) 
adg

>  <m_score__min__energy>  (40) 
-15.4

>  <m_primary>  (40) 
energy

$$$$
40:0
     RDKit          3D

 68 72  0  0  0  0  0  0  0  0999 V2000
   57.2077   34.3580   45.2148 H   0  0  0  0  0  0  0  0  0  0  0  0
   57.9670   33.8240   45.8050 C   0  0  0  0  0  0  0  0  0  0  0  0
   58.5970   34.4480   46.8340 N   0  0  0  0  0  0  0  0  0  0  0  0
   59.5300   33.8180   47.5960 C   0  0  0  0  0  0  0  0  0  0  0  0
   60.1930   34.5830   48.7040 C   0  0  0  0  0  0  0  0  0  0  0  0
   59.8535   34.1913   49.6742 H   0  0  0  0  0  0  0  0  0  0  0  0
   61.2844   34.4710   48.6249 H   0  0  0  0  0  0  0  0  0  0  0  0
   59.9270   35.6474   48.6249 H   0  0  0  0  0  0  0  0  0  0  0  0
   59.8160   32.4610   47.3360 C   0  0  0  0  0  0  0  0  0  0  0  0
   60.8320   31.6770   48.1200 C   0  0  0  0  0  0  0  0  0  0  0  0
   61.8356   32.0838   47.9266 H   0  0  0  0  0  0  0  0  0  0  0  0
   60.6011   31.7540   49.1927 H   0  0  0  0  0  0  0  0  0  0  0  0
   60.7920   30.2740   47.7180 N   0  0  0  0  0  0  0  0  0  0  0  0
   60.6450   30.0540   46.7060 H   0  0  0  0  0  0  0  0  0  0  0  0
   60.6550   29.2080   48.6700 C   0  0  0  0  0  0  0  0  0  0  0  0
   61.1130   29.3400   49.8340 O   0  0  0  0  0  0  0  0  0  0  0  0
   60.1160   27.9400   48.2690 N   0  0  0  0  0  0  0  0  0  0  0  0
   59.4170   27.6870   47.1970 C   0  0  0  0  0  0  0  0  0  0  0  0
   59.8730   28.1500   46.0030 N   0  0  0  0  0  0  0  0  0  0  0  0
   59.2060   27.9390   44.8390 C   0  0  0  0  0  0  0  0  0  0  0  0
   59.6094   28.3357   43.8957 H   0  0  0  0  0  0  0  0  0  0  0  0
   58.0100   27.2200   44.8370 C   0  0  0  0  0  0  0  0  0  0  0  0
   57.4651   27.0551   43.8958 H   0  0  0  0  0  0  0  0  0  0  0  0
   57.5070   26.7090   46.0420 C   0  0  0  0  0  0  0  0  0  0  0  0
   56.2640   25.9060   46.0690 C   0  0  0  0  0  0  0  0  0  0  0  0
   55.1530   26.4970   45.9960 O   0  0  0  0  0  0  0  0  0  0  0  0
   56.2920   24.4280   46.1370 C   0  0  0  0  0  0  0  0  0  0  0  0
   56.2920   23.6600   47.2920 C   0  0  0  0  0  0  0  0  0  0  0  0
   56.2081   24.0676   48.3102 H   0  0  0  0  0  0  0  0  0  0  0  0
   56.4090   22.3400   47.0010 N   0  0  0  0  0  0  0  0  0  0  0  0
   56.4720   21.3010   48.0470 C   0  0  0  0  0  0  0  0  0  0  0  0
   57.3664   20.6922   47.8482 H   0  0  0  0  0  0  0  0  0  0  0  0
   55.2880   20.3310   47.9680 C   0  0  0  0  0  0  0  0  0  0  0  0
   54.9634   20.0651   48.9848 H   0  0  0  0  0  0  0  0  0  0  0  0
   54.4562   20.8106   47.4312 H   0  0  0  0  0  0  0  0  0  0  0  0
   55.5946   19.4211   47.4312 H   0  0  0  0  0  0  0  0  0  0  0  0
   56.6850   21.8970   49.4420 C   0  0  0  0  0  0  0  0  0  0  0  0
   56.4181   21.1503   50.2044 H   0  0  0  0  0  0  0  0  0  0  0  0
   57.7407   22.1821   49.5617 H   0  0  0  0  0  0  0  0  0  0  0  0
   56.0491   22.7866   49.5617 H   0  0  0  0  0  0  0  0  0  0  0  0
   56.4900   22.2630   45.6430 C   0  0  0  0  0  0  0  0  0  0  0  0
   56.6310   21.1380   44.8060 C   0  0  0  0  0  0  0  0  0  0  0  0
   56.7020   19.8720   45.2720 F   0  0  0  0  0  0  0  0  0  0  0  0
   56.6990   21.3410   43.4180 C   0  0  0  0  0  0  0  0  0  0  0  0
   56.8122   20.4767   42.7470 H   0  0  0  0  0  0  0  0  0  0  0  0
   56.6240   22.6370   42.8760 C   0  0  0  0  0  0  0  0  0  0  0  0
   56.6756   22.7784   41.7863 H   0  0  0  0  0  0  0  0  0  0  0  0
   56.4840   23.7480   43.7170 C   0  0  0  0  0  0  0  0  0  0  0  0
   56.4229   24.7653   43.3031 H   0  0  0  0  0  0  0  0  0  0  0  0
   56.4240   23.5300   45.0950 C   0  0  0  0  0  0  0  0  0  0  0  0
   58.2270   26.9280   47.2260 C   0  0  0  0  0  0  0  0  0  0  0  0
   57.8646   26.5087   48.1762 H   0  0  0  0  0  0  0  0  0  0  0  0
   59.2000   31.8530   46.2870 N   0  0  0  0  0  0  0  0  0  0  0  0
   58.2920   32.4920   45.5000 C   0  0  0  0  0  0  0  0  0  0  0  0
   57.6820   31.7880   44.3940 N   0  0  0  0  0  0  0  0  0  0  0  0
   57.0360   30.4970   44.6560 C   0  0  0  0  0  0  0  0  0  0  0  0
   57.8038   29.7109   44.7054 H   0  0  0  0  0  0  0  0  0  0  0  0
   56.4940   30.5564   45.6114 H   0  0  0  0  0  0  0  0  0  0  0  0
   56.0420   30.1620   43.5410 C   0  0  0  0  0  0  0  0  0  0  0  0
   55.6645   29.1396   43.6899 H   0  0  0  0  0  0  0  0  0  0  0  0
   55.2144   30.8857   43.5782 H   0  0  0  0  0  0  0  0  0  0  0  0
   56.6600   30.2470   42.2740 O   0  0  0  0  0  0  0  0  0  0  0  0
   57.0400   31.5850   42.0210 C   0  0  0  0  0  0  0  0  0  0  0  0
   57.4393   31.6578   40.9986 H   0  0  0  0  0  0  0  0  0  0  0  0
   56.1547   32.2275   42.1370 H   0  0  0  0  0  0  0  0  0  0  0  0
   58.1130   32.0510   43.0120 C   0  0  0  0  0  0  0  0  0  0  0  0
   59.0492   31.5083   42.8146 H   0  0  0  0  0  0  0  0  0  0  0  0
   58.2700   33.1325   42.8863 H   0  0  0  0  0  0  0  0  0  0  0  0
  1  2  1  0
  2  3  2  0
  3  4  1  0
  4  5  1  0
  5  6  1  0
  5  7  1  0
  5  8  1  0
  4  9  2  0
  9 10  1  0
 10 11  1  0
 10 12  1  0
 10 13  1  0
 13 14  1  0
 13 15  1  0
 15 16  2  0
 15 17  1  0
 17 18  2  0
 18 19  1  0
 19 20  1  0
 20 21  1  0
 20 22  2  0
 22 23  1  0
 22 24  1  0
 24 25  1  0
 25 26  2  0
 25 27  1  0
 27 28  2  0
 28 29  1  0
 28 30  1  0
 30 31  1  0
 31 32  1  0
 31 33  1  0
 33 34  1  0
 33 35  1  0
 33 36  1  0
 31 37  1  0
 37 38  1  0
 37 39  1  0
 37 40  1  0
 30 41  1  0
 41 42  2  0
 42 43  1  0
 42 44  1  0
 44 45  1  0
 44 46  2  0
 46 47  1  0
 46 48  1  0
 48 49  1  0
 48 50  2  0
 24 51  2  0
 51 52  1  0
  9 53  1  0
 53 54  2  0
 54 55  1  0
 55 56  1  0
 56 57  1  0
 56 58  1  0
 56 59  1  0
 59 60  1  0
 59 61  1  0
 59 62  1  0
 62 63  1  0
 63 64  1  0
 63 65  1  0
 63 66  1  0
 66 67  1  0
 66 68  1  0
 54  2  1  0
 66 55  1  0
 51 18  1  0
 50 27  1  0
 50 41  1  0
M  CHG  1  19  -1
M  END
>  <UniqueID>  (41) 
37

>  <SMILES>  (41) 
Cc1ncc(N2CCOCC2)nc1CNC(=O)/N=c1\cc(C(=O)c2cn(C(C)C)c3c(F)cccc23)cc[n-]1

>  <Energy>  (41) 
126.98659108255909

>  <Genealogy>  (41) 
Cc1ncc(N2CCOCC2)nc1CNC(=O)N=c1cc(C(=O)c2cn(C(C)C)c3c(F)cccc23)cc[n-]1 (protonated)
Cc1ncc(N2CCOCC2)nc1CNC(=O)/N=c1\cc(C(=O)c2cn(C(C)C)c3c(F)cccc23)cc[n-]1 (cis-trans isomerization)
Cc1ncc(N2CCOCC2)nc1CNC(=O)/N=c1\cc(C(=O)c2cn(C(C)C)c3c(F)cccc23)cc[n-]1 (3D coordinates assigned)
Cc1ncc(N2CCOCC2)nc1CNC(=O)/N=c1\cc(C(=O)c2cn(C(C)C)c3c(F)cccc23)cc[n-]1 (nonaromatic ring conformer: 126.98659108255909 kcal/mol)

>  <smiles>  (41) 
Cc1ncc(N2CCOCC2)nc1CNC(=O)N=c1cc(C(=O)c2cn(C(C)C)c3c(F)cccc23)cc[nH]1

>  <score_type>  (41) 
oracle

>  <origin>  (41) 
adg

>  <m_score__min__energy>  (41) 
-11.359999999999999

>  <m_primary>  (41) 
energy

$$$$
41:0
     RDKit          3D

 70 74  0  0  0  0  0  0  0  0999 V2000
   63.8300   29.5810   51.5800 C   0  0  0  0  0  0  0  0  0  0  0  0
   62.7600   30.5920   51.6810 N   0  0  2  0  0  0  0  0  0  0  0  0
   62.0560   30.7030   50.3790 C   0  0  0  0  0  0  0  0  0  0  0  0
   60.6010   31.0720   50.5570 C   0  0  0  0  0  0  0  0  0  0  0  0
   59.5950   30.1000   50.4470 C   0  0  0  0  0  0  0  0  0  0  0  0
   58.2560   30.4730   50.5840 C   0  0  0  0  0  0  0  0  0  0  0  0
   57.9310   31.7720   50.8250 N   0  0  0  0  0  0  0  0  0  0  0  0
   58.8850   32.7340   50.9390 C   0  0  0  0  0  0  0  0  0  0  0  0
   60.2350   32.4030   50.8070 C   0  0  0  0  0  0  0  0  0  0  0  0
   63.3210   31.9040   52.0930 C   0  0  0  0  0  0  0  0  0  0  0  0
   64.7210   32.1210   51.5420 C   0  0  0  0  0  0  0  0  0  0  0  0
   65.8120   31.7060   52.3280 C   0  0  0  0  0  0  0  0  0  0  0  0
   67.1190   31.8190   51.8510 C   0  0  0  0  0  0  0  0  0  0  0  0
   67.3570   32.3380   50.5790 C   0  0  0  0  0  0  0  0  0  0  0  0
   66.2890   32.7570   49.7840 C   0  0  0  0  0  0  0  0  0  0  0  0
   64.9680   32.6650   50.2530 C   0  0  0  0  0  0  0  0  0  0  0  0
   63.8810   33.1480   49.3750 C   0  0  0  0  0  0  0  0  0  0  0  0
   63.7780   32.6730   48.0590 C   0  0  0  0  0  0  0  0  0  0  0  0
   62.7640   33.1390   47.2200 C   0  0  0  0  0  0  0  0  0  0  0  0
   61.8500   34.0990   47.6800 C   0  0  0  0  0  0  0  0  0  0  0  0
   60.7380   34.5900   46.7880 C   0  0  0  0  0  0  0  0  0  0  0  0
   59.4780   33.8650   47.0590 N   0  0  0  0  0  0  0  0  0  0  0  0
   59.7440   32.4510   47.4360 C   0  0  0  0  0  0  0  0  0  0  0  0
   58.4800   31.5810   47.3630 C   0  0  0  0  0  0  0  0  0  0  0  0
   57.8180   31.6100   45.9580 C   0  0  0  0  0  0  0  0  0  0  0  0
   57.9470   30.3180   45.2350 N   0  0  0  0  0  0  0  0  0  0  0  0
   59.1570   29.6730   45.1910 C   0  0  0  0  0  0  0  0  0  0  0  0
   59.3060   28.4800   44.4880 C   0  0  0  0  0  0  0  0  0  0  0  0
   58.2060   27.9630   43.8150 C   0  0  0  0  0  0  0  0  0  0  0  0
   58.3030   26.8870   43.1700 O   0  0  0  0  0  0  0  0  0  0  0  0
   57.0270   28.6290   43.8470 N   0  0  0  0  0  0  0  0  0  0  0  0
   56.8860   29.7910   44.5370 C   0  0  0  0  0  0  0  0  0  0  0  0
   55.7690   30.3750   44.5170 O   0  0  0  0  0  0  0  0  0  0  0  0
   58.3490   32.7630   45.0890 C   0  0  0  0  0  0  0  0  0  0  0  0
   58.5090   34.0280   45.9400 C   0  0  0  0  0  0  0  0  0  0  0  0
   61.9590   34.5810   48.9930 C   0  0  0  0  0  0  0  0  0  0  0  0
   62.9760   34.1180   49.8320 C   0  0  0  0  0  0  0  0  0  0  0  0
   64.1475   29.2810   52.5896 H   0  0  0  0  0  0  0  0  0  0  0  0
   63.4533   28.7013   51.0376 H   0  0  0  0  0  0  0  0  0  0  0  0
   64.6869   30.0070   51.0376 H   0  0  0  0  0  0  0  0  0  0  0  0
   62.0790   30.2580   52.4040 H   0  0  0  0  0  0  0  0  0  0  0  0
   62.5483   31.4779   49.7730 H   0  0  0  0  0  0  0  0  0  0  0  0
   62.1017   29.7232   49.8811 H   0  0  0  0  0  0  0  0  0  0  0  0
   59.8595   29.0499   50.2539 H   0  0  0  0  0  0  0  0  0  0  0  0
   57.4631   29.7155   50.4969 H   0  0  0  0  0  0  0  0  0  0  0  0
   58.5925   33.7760   51.1358 H   0  0  0  0  0  0  0  0  0  0  0  0
   61.0070   33.1812   50.8985 H   0  0  0  0  0  0  0  0  0  0  0  0
   62.6644   32.7041   51.7205 H   0  0  0  0  0  0  0  0  0  0  0  0
   63.3812   31.9189   53.1913 H   0  0  0  0  0  0  0  0  0  0  0  0
   65.6328   31.2879   53.3295 H   0  0  0  0  0  0  0  0  0  0  0  0
   67.9626   31.4980   52.4797 H   0  0  0  0  0  0  0  0  0  0  0  0
   68.3872   32.4173   50.2017 H   0  0  0  0  0  0  0  0  0  0  0  0
   66.4836   33.1632   48.7804 H   0  0  0  0  0  0  0  0  0  0  0  0
   64.4991   31.9304   47.6866 H   0  0  0  0  0  0  0  0  0  0  0  0
   62.6813   32.7518   46.1937 H   0  0  0  0  0  0  0  0  0  0  0  0
   60.5805   35.6636   46.9682 H   0  0  0  0  0  0  0  0  0  0  0  0
   61.0254   34.4115   45.7413 H   0  0  0  0  0  0  0  0  0  0  0  0
   60.4981   32.0378   46.7500 H   0  0  0  0  0  0  0  0  0  0  0  0
   60.0998   32.4412   48.4768 H   0  0  0  0  0  0  0  0  0  0  0  0
   58.7521   30.5426   47.6033 H   0  0  0  0  0  0  0  0  0  0  0  0
   57.7536   31.9858   48.0831 H   0  0  0  0  0  0  0  0  0  0  0  0
   56.7472   31.7829   46.1413 H   0  0  0  0  0  0  0  0  0  0  0  0
   60.0211   30.1038   45.7180 H   0  0  0  0  0  0  0  0  0  0  0  0
   60.2741   27.9581   44.4661 H   0  0  0  0  0  0  0  0  0  0  0  0
   59.3250   32.4817   44.6668 H   0  0  0  0  0  0  0  0  0  0  0  0
   57.6351   32.9618   44.2761 H   0  0  0  0  0  0  0  0  0  0  0  0
   58.8592   34.8439   45.2907 H   0  0  0  0  0  0  0  0  0  0  0  0
   57.5280   34.2468   46.3870 H   0  0  0  0  0  0  0  0  0  0  0  0
   61.2405   35.3269   49.3638 H   0  0  0  0  0  0  0  0  0  0  0  0
   63.0674   34.5151   50.8537 H   0  0  0  0  0  0  0  0  0  0  0  0
  1  2  1  0
  2  3  1  0
  3  4  1  0
  4  5  2  0
  5  6  1  0
  6  7  2  0
  7  8  1  0
  8  9  2  0
  2 10  1  0
 10 11  1  0
 11 12  2  0
 12 13  1  0
 13 14  2  0
 14 15  1  0
 15 16  2  0
 16 17  1  0
 17 18  2  0
 18 19  1  0
 19 20  2  0
 20 21  1  0
 21 22  1  0
 22 23  1  0
 23 24  1  0
 24 25  1  0
 25 26  1  0
 26 27  1  0
 27 28  2  0
 28 29  1  0
 29 30  2  0
 29 31  1  0
 31 32  1  0
 32 33  2  0
 25 34  1  0
 34 35  1  0
 20 36  1  0
 36 37  2  0
  9  4  1  0
 16 11  1  0
 37 17  1  0
 35 22  1  0
 32 26  1  0
  1 38  1  0
  1 39  1  0
  1 40  1  0
  2 41  1  1
  3 42  1  0
  3 43  1  0
  5 44  1  0
  6 45  1  0
  8 46  1  0
  9 47  1  0
 10 48  1  0
 10 49  1  0
 12 50  1  0
 13 51  1  0
 14 52  1  0
 15 53  1  0
 18 54  1  0
 19 55  1  0
 21 56  1  0
 21 57  1  0
 23 58  1  0
 23 59  1  0
 24 60  1  0
 24 61  1  0
 25 62  1  0
 27 63  1  0
 28 64  1  0
 34 65  1  0
 34 66  1  0
 35 67  1  0
 35 68  1  0
 36 69  1  0
 37 70  1  0
M  CHG  2   2   1  31  -1
M  END
>  <UniqueID>  (42) 
38

>  <SMILES>  (42) 
C[N@H+](Cc1ccncc1)Cc1ccccc1-c1ccc(CN2CCC(n3ccc(=O)[n-]c3=O)CC2)cc1

>  <Energy>  (42) 
99.72993055456122

>  <Genealogy>  (42) 
C[NH+](Cc1ccncc1)Cc1ccccc1-c1ccc(CN2CCC(n3ccc(=O)[n-]c3=O)CC2)cc1 (protonated)
C[N@H+](Cc1ccncc1)Cc1ccccc1-c1ccc(CN2CCC(n3ccc(=O)[n-]c3=O)CC2)cc1 (chirality)
C[N@H+](Cc1ccncc1)Cc1ccccc1-c1ccc(CN2CCC(n3ccc(=O)[n-]c3=O)CC2)cc1 (3D coordinates assigned)
C[N@H+](Cc1ccncc1)Cc1ccccc1-c1ccc(CN2CCC(n3ccc(=O)[n-]c3=O)CC2)cc1 (nonaromatic ring conformer: 99.72993055456122 kcal/mol)

>  <smiles>  (42) 
CN(Cc1ccncc1)Cc1ccccc1-c1ccc(CN2CCC(n3ccc(=O)[nH]c3=O)CC2)cc1

>  <score_type>  (42) 
oracle

>  <origin>  (42) 
adg

>  <m_score__min__energy>  (42) 
-9.9299999999999997

>  <m_primary>  (42) 
energy

$$$$
42:0
     RDKit          3D

 41 45  0  0  0  0  0  0  0  0999 V2000
   55.1400   27.9900   44.9080 H   0  0  0  0  0  0  0  0  0  0  0  0
   55.2370   28.9940   44.8170 O   0  0  0  0  0  0  0  0  0  0  0  0
   56.4940   29.5810   44.7540 C   0  0  0  0  0  0  0  0  0  0  0  0
   56.7170   30.9210   44.9110 N   0  0  0  0  0  0  0  0  0  0  0  0
   58.0750   31.0270   44.8780 C   0  0  0  0  0  0  0  0  0  0  0  0
   58.7470   32.1280   45.0470 N   0  0  0  0  0  0  0  0  0  0  0  0
   58.2130   33.4570   44.9740 C   0  0  0  0  0  0  0  0  0  0  0  0
   57.3210   33.7520   44.1330 O   0  0  0  0  0  0  0  0  0  0  0  0
   58.6750   34.4360   45.9140 N   0  0  0  0  0  0  0  0  0  0  0  0
   59.6380   34.2320   46.9570 C   0  0  0  0  0  0  0  0  0  0  0  0
   59.3210   34.4290   48.3140 C   0  0  0  0  0  0  0  0  0  0  0  0
   58.3027   34.7320   48.5989 H   0  0  0  0  0  0  0  0  0  0  0  0
   60.2920   34.2420   49.3020 C   0  0  0  0  0  0  0  0  0  0  0  0
   60.0314   34.3874   50.3607 H   0  0  0  0  0  0  0  0  0  0  0  0
   61.5960   33.8700   48.9490 C   0  0  0  0  0  0  0  0  0  0  0  0
   62.5790   33.6810   49.9340 C   0  0  0  0  0  0  0  0  0  0  0  0
   62.3259   33.8198   50.9954 H   0  0  0  0  0  0  0  0  0  0  0  0
   63.8780   33.3170   49.5690 C   0  0  0  0  0  0  0  0  0  0  0  0
   64.6437   33.1662   50.3442 H   0  0  0  0  0  0  0  0  0  0  0  0
   64.2070   33.1440   48.2210 C   0  0  0  0  0  0  0  0  0  0  0  0
   65.2315   32.8599   47.9388 H   0  0  0  0  0  0  0  0  0  0  0  0
   63.2380   33.3310   47.2310 C   0  0  0  0  0  0  0  0  0  0  0  0
   63.5019   33.1934   46.1720 H   0  0  0  0  0  0  0  0  0  0  0  0
   61.9290   33.6940   47.5850 C   0  0  0  0  0  0  0  0  0  0  0  0
   60.9480   33.8850   46.6000 C   0  0  0  0  0  0  0  0  0  0  0  0
   61.2094   33.7613   45.5387 H   0  0  0  0  0  0  0  0  0  0  0  0
   58.6430   29.8330   44.6890 N   0  0  0  0  0  0  0  0  0  0  0  0
   59.8600   29.3340   44.7680 N   0  0  0  0  0  0  0  0  0  0  0  0
   59.6700   27.9870   44.6830 C   0  0  0  0  0  0  0  0  0  0  0  0
   60.4766   27.2393   44.6982 H   0  0  0  0  0  0  0  0  0  0  0  0
   58.2990   27.6840   44.5730 C   0  0  0  0  0  0  0  0  0  0  0  0
   57.7640   26.4570   44.5150 C   0  0  0  0  0  0  0  0  0  0  0  0
   57.6757   25.9801   43.5277 H   0  0  0  0  0  0  0  0  0  0  0  0
   57.2880   25.7080   45.6850 C   0  0  0  0  0  0  0  0  0  0  0  0
   57.9550   24.6770   46.2310 N   0  0  0  0  0  0  0  0  0  0  0  0
   57.1040   24.2190   47.1750 C   0  0  0  0  0  0  0  0  0  0  0  0
   57.3840   23.2500   47.9260 O   0  0  0  0  0  0  0  0  0  0  0  0
   55.9250   24.8730   47.2410 N   0  0  0  0  0  0  0  0  0  0  0  0
   56.0520   25.8040   46.2800 C   0  0  0  0  0  0  0  0  0  0  0  0
   55.0470   26.7010   45.9390 O   0  0  0  0  0  0  0  0  0  0  0  0
   57.7050   28.9320   44.6080 C   0  0  0  0  0  0  0  0  0  0  0  0
  1  2  1  0
  2  3  1  0
  3  4  1  0
  4  5  1  0
  5  6  2  0
  6  7  1  0
  7  8  2  0
  7  9  1  0
  9 10  1  0
 10 11  2  0
 11 12  1  0
 11 13  1  0
 13 14  1  0
 13 15  2  0
 15 16  1  0
 16 17  1  0
 16 18  2  0
 18 19  1  0
 18 20  1  0
 20 21  1  0
 20 22  2  0
 22 23  1  0
 22 24  1  0
 24 25  2  0
 25 26  1  0
  5 27  1  0
 27 28  1  0
 28 29  2  0
 29 30  1  0
 29 31  1  0
 31 32  2  0
 32 33  1  0
 32 34  1  0
 34 35  1  0
 35 36  1  0
 36 37  2  0
 36 38  1  0
 38 39  1  0
 39 40  1  0
 31 41  1  0
 41  3  2  0
 25 10  1  0
 41 27  1  0
 24 15  1  0
 39 34  2  0
M  CHG  5   4  -1   9  -1  35  -1  38  -1  40  -1
M  END
>  <UniqueID>  (43) 
39

>  <SMILES>  (43) 
O=C(/N=c1\[n-]c(O)c2/c(=C\c3[n-]c(=O)[n-]c3[O-])cnn12)[N-]c1ccc2ccccc2c1

>  <Energy>  (43) 
186.03423796437903

>  <Genealogy>  (43) 
O=C(N=c1[n-]c(O)c2c(=Cc3[n-]c(=O)[n-]c3[O-])cnn12)[N-]c1ccc2ccccc2c1 (protonated)
O=C(/N=c1\[n-]c(O)c2/c(=C\c3[n-]c(=O)[n-]c3[O-])cnn12)[N-]c1ccc2ccccc2c1 (cis-trans isomerization)
O=C(/N=c1\[n-]c(O)c2/c(=C\c3[n-]c(=O)[n-]c3[O-])cnn12)[N-]c1ccc2ccccc2c1 (3D coordinates assigned)
O=C(/N=c1\[n-]c(O)c2/c(=C\c3[n-]c(=O)[n-]c3[O-])cnn12)[N-]c1ccc2ccccc2c1 (optimized conformer: 186.03423796437903 kcal/mol)

>  <smiles>  (43) 
O=C(N=c1[nH]c(O)c2c(=Cc3[nH]c(=O)[nH]c3O)cnn12)Nc1ccc2ccccc2c1

>  <score_type>  (43) 
oracle

>  <origin>  (43) 
adg

>  <m_score__min__energy>  (43) 
-20.739999999999998

>  <m_primary>  (43) 
energy

$$$$
43:0
     RDKit          3D

 41 45  0  0  0  0  0  0  0  0999 V2000
   52.8730   31.9219   53.2316 H   0  0  0  0  0  0  0  0  0  0  0  0
   53.1490   31.2670   52.3920 C   0  0  0  0  0  0  0  0  0  0  0  0
   52.3360   31.3410   51.1680 C   0  0  0  0  0  0  0  0  0  0  0  0
   52.3310   30.3840   50.2230 N   0  0  0  0  0  0  0  0  0  0  0  0
   51.3920   30.8110   49.3510 C   0  0  0  0  0  0  0  0  0  0  0  0
   51.1020   30.1770   48.3030 O   0  0  0  0  0  0  0  0  0  0  0  0
   50.7790   31.9640   49.6950 N   0  0  0  0  0  0  0  0  0  0  0  0
   51.3780   32.2800   50.8550 C   0  0  0  0  0  0  0  0  0  0  0  0
   51.0270   33.3800   51.6280 O   0  0  0  0  0  0  0  0  0  0  0  0
   54.2050   30.4540   52.5530 C   0  0  0  0  0  0  0  0  0  0  0  0
   54.1550   29.0780   52.6740 C   0  0  0  0  0  0  0  0  0  0  0  0
   53.2355   28.4753   52.7107 H   0  0  0  0  0  0  0  0  0  0  0  0
   55.4120   28.5900   52.7400 N   0  0  0  0  0  0  0  0  0  0  0  0
   55.6050   27.5770   52.6990 H   0  0  0  0  0  0  0  0  0  0  0  0
   56.2760   29.5980   52.6900 N   0  0  0  0  0  0  0  0  0  0  0  0
   57.6540   29.6320   52.6200 C   0  0  0  0  0  0  0  0  0  0  0  0
   58.4850   28.6720   52.9520 N   0  0  0  0  0  0  0  0  0  0  0  0
   59.8390   28.1130   52.7840 C   0  0  0  0  0  0  0  0  0  0  0  0
   59.6259   27.2422   53.4214 H   0  0  0  0  0  0  0  0  0  0  0  0
   60.9600   29.1140   52.6740 C   0  0  0  0  0  0  0  0  0  0  0  0
   60.7433   30.1919   52.7086 H   0  0  0  0  0  0  0  0  0  0  0  0
   61.9066   29.2905   53.2057 H   0  0  0  0  0  0  0  0  0  0  0  0
   60.5260   28.2750   51.4530 C   0  0  0  0  0  0  0  0  0  0  0  0
   59.9988   28.7526   50.6140 H   0  0  0  0  0  0  0  0  0  0  0  0
   61.0327   27.6009   50.7468 H   0  0  0  0  0  0  0  0  0  0  0  0
   58.2290   30.8190   52.2820 N   0  0  0  0  0  0  0  0  0  0  0  0
   57.4930   31.9450   52.0540 C   0  0  0  0  0  0  0  0  0  0  0  0
   58.0630   33.0750   51.7510 N   0  0  0  0  0  0  0  0  0  0  0  0
   59.2790   33.2560   51.0060 C   0  0  0  0  0  0  0  0  0  0  0  0
   60.4950   33.2860   51.7000 C   0  0  0  0  0  0  0  0  0  0  0  0
   60.5048   33.1474   52.7912 H   0  0  0  0  0  0  0  0  0  0  0  0
   61.6970   33.4910   51.0150 C   0  0  0  0  0  0  0  0  0  0  0  0
   62.6487   33.4972   51.5666 H   0  0  0  0  0  0  0  0  0  0  0  0
   61.6920   33.6880   49.6310 C   0  0  0  0  0  0  0  0  0  0  0  0
   62.8630   33.8880   48.9770 F   0  0  0  0  0  0  0  0  0  0  0  0
   60.4790   33.6930   48.9320 C   0  0  0  0  0  0  0  0  0  0  0  0
   60.4570   33.9720   47.1980 Cl  0  0  0  0  0  0  0  0  0  0  0  0
   59.2750   33.4890   49.6160 C   0  0  0  0  0  0  0  0  0  0  0  0
   58.3222   33.5106   49.0667 H   0  0  0  0  0  0  0  0  0  0  0  0
   56.1460   31.9040   52.1940 N   0  0  0  0  0  0  0  0  0  0  0  0
   55.5610   30.7320   52.5320 C   0  0  0  0  0  0  0  0  0  0  0  0
  1  2  1  0
  2  3  1  0
  3  4  1  0
  4  5  1  0
  5  6  2  0
  5  7  1  0
  7  8  1  0
  8  9  1  0
  2 10  2  3
 10 11  1  0
 11 12  1  0
 11 13  2  0
 13 14  1  0
 13 15  1  0
 15 16  1  0
 16 17  2  0
 17 18  1  0
 18 19  1  0
 18 20  1  0
 20 21  1  0
 20 22  1  0
 20 23  1  0
 23 24  1  0
 23 25  1  0
 16 26  1  0
 26 27  1  0
 27 28  2  3
 28 29  1  0
 29 30  2  0
 30 31  1  0
 30 32  1  0
 32 33  1  0
 32 34  2  0
 34 35  1  0
 34 36  1  0
 36 37  1  0
 36 38  2  0
 38 39  1  0
 27 40  1  0
 40 41  2  0
  8  3  2  0
 41 10  1  0
 41 15  1  0
 23 18  1  0
 38 29  1  0
M  CHG  5   4  -1   7  -1   9  -1  13   1  26  -1
M  END
>  <UniqueID>  (44) 
40

>  <SMILES>  (44) 
O=c1[n-]c([O-])c(C=c2c[nH+]n3/c(=N\C4CC4)[n-]c(=Nc4ccc(F)c(Cl)c4)nc23)[n-]1

>  <Energy>  (44) 
432.1127641793269

>  <Genealogy>  (44) 
O=c1[n-]c([O-])c(C=c2c[nH+]n3c(=NC4CC4)[n-]c(=Nc4ccc(F)c(Cl)c4)nc23)[n-]1 (protonated)
O=c1[n-]c([O-])c(C=c2c[nH+]n3/c(=N\C4CC4)[n-]c(=Nc4ccc(F)c(Cl)c4)nc23)[n-]1 (cis-trans isomerization)
O=c1[n-]c([O-])c(C=c2c[nH+]n3/c(=N\C4CC4)[n-]c(=Nc4ccc(F)c(Cl)c4)nc23)[n-]1 (3D coordinates assigned)
O=c1[n-]c([O-])c(C=c2c[nH+]n3/c(=N\C4CC4)[n-]c(=Nc4ccc(F)c(Cl)c4)nc23)[n-]1 (nonaromatic ring conformer: 432.1127641793269 kcal/mol)

>  <smiles>  (44) 
O=c1[nH]c(O)c(C=c2cnn3c(=NC4CC4)[nH]c(=Nc4ccc(F)c(Cl)c4)nc23)[nH]1

>  <score_type>  (44) 
oracle

>  <origin>  (44) 
adg

>  <m_score__min__energy>  (44) 
-16.510000000000002

>  <m_primary>  (44) 
energy

$$$$
44:0
     RDKit          3D

 48 50  0  0  0  0  0  0  0  0999 V2000
   61.4670   30.2980   49.9790 C   0  0  0  0  0  0  0  0  0  0  0  0
   60.6980   31.3260   49.6200 C   0  0  0  0  0  0  0  0  0  0  0  0
   61.0320   32.1900   48.5140 N   0  0  0  0  0  0  0  0  0  0  0  0
   62.3510   32.2900   48.1720 C   0  0  0  0  0  0  0  0  0  0  0  0
   62.7540   33.1050   47.1200 C   0  0  0  0  0  0  0  0  0  0  0  0
   61.8050   33.8330   46.4130 C   0  0  0  0  0  0  0  0  0  0  0  0
   60.4490   33.7590   46.7640 C   0  0  0  0  0  0  0  0  0  0  0  0
   59.4500   34.5600   46.0100 C   0  0  0  0  0  0  0  0  0  0  0  0
   59.7070   35.7520   45.6890 O   0  0  0  0  0  0  0  0  0  0  0  0
   58.1710   33.9930   45.6920 N   0  0  0  0  0  0  0  0  0  0  0  0
   57.9250   32.9010   44.7940 C   0  0  0  0  0  0  0  0  0  0  0  0
   58.2170   33.0660   43.4360 C   0  0  0  0  0  0  0  0  0  0  0  0
   57.9610   32.0360   42.5270 C   0  0  0  0  0  0  0  0  0  0  0  0
   57.3840   30.8420   42.9650 C   0  0  0  0  0  0  0  0  0  0  0  0
   57.0440   30.6700   44.3170 C   0  0  0  0  0  0  0  0  0  0  0  0
   56.4140   29.4060   44.7720 C   0  0  0  0  0  0  0  0  0  0  0  0
   55.1600   29.3420   44.8760 O   0  0  0  0  0  0  0  0  0  0  0  0
   57.1850   28.2270   45.0460 N   0  0  0  0  0  0  0  0  0  0  0  0
   58.2830   28.1370   45.9680 C   0  0  0  0  0  0  0  0  0  0  0  0
   59.2450   29.1610   46.0390 C   0  0  0  0  0  0  0  0  0  0  0  0
   60.3230   29.0600   46.9200 C   0  0  0  0  0  0  0  0  0  0  0  0
   60.4480   27.9430   47.7440 C   0  0  0  0  0  0  0  0  0  0  0  0
   59.4910   26.9270   47.6990 C   0  0  0  0  0  0  0  0  0  0  0  0
   58.3930   27.0200   46.8260 C   0  0  0  0  0  0  0  0  0  0  0  0
   57.4000   25.8850   46.7640 C   0  0  0  0  0  0  0  0  0  0  0  0
   57.5270   25.1250   45.4470 C   0  0  0  0  0  0  0  0  0  0  0  0
   57.3300   31.7030   45.2280 C   0  0  0  0  0  0  0  0  0  0  0  0
   60.0810   32.9340   47.8530 C   0  0  0  0  0  0  0  0  0  0  0  0
   58.8800   32.9100   48.2410 O   0  0  0  0  0  0  0  0  0  0  0  0
   61.1755   29.6636   50.8290 H   0  0  0  0  0  0  0  0  0  0  0  0
   62.3930   30.0841   49.4252 H   0  0  0  0  0  0  0  0  0  0  0  0
   59.7762   31.5225   50.1871 H   0  0  0  0  0  0  0  0  0  0  0  0
   63.1033   31.7188   48.7358 H   0  0  0  0  0  0  0  0  0  0  0  0
   63.8179   33.1730   46.8491 H   0  0  0  0  0  0  0  0  0  0  0  0
   62.1188   34.4708   45.5735 H   0  0  0  0  0  0  0  0  0  0  0  0
   58.6509   34.0126   43.0814 H   0  0  0  0  0  0  0  0  0  0  0  0
   58.2144   32.1659   41.4645 H   0  0  0  0  0  0  0  0  0  0  0  0
   57.1945   30.0309   42.2465 H   0  0  0  0  0  0  0  0  0  0  0  0
   59.1470   30.0478   45.3955 H   0  0  0  0  0  0  0  0  0  0  0  0
   61.0742   29.8624   46.9639 H   0  0  0  0  0  0  0  0  0  0  0  0
   61.3027   27.8615   48.4316 H   0  0  0  0  0  0  0  0  0  0  0  0
   59.5971   26.0476   48.3513 H   0  0  0  0  0  0  0  0  0  0  0  0
   57.5895   25.1941   47.5987 H   0  0  0  0  0  0  0  0  0  0  0  0
   56.3842   26.3011   46.8343 H   0  0  0  0  0  0  0  0  0  0  0  0
   57.7051   24.0595   45.6542 H   0  0  0  0  0  0  0  0  0  0  0  0
   56.5979   25.2358   44.8687 H   0  0  0  0  0  0  0  0  0  0  0  0
   58.3696   25.5318   44.8687 H   0  0  0  0  0  0  0  0  0  0  0  0
   57.0853   31.5721   46.2924 H   0  0  0  0  0  0  0  0  0  0  0  0
  1  2  2  0
  2  3  1  0
  3  4  1  0
  4  5  2  0
  5  6  1  0
  6  7  2  0
  7  8  1  0
  8  9  2  0
  8 10  1  0
 10 11  1  0
 11 12  2  0
 12 13  1  0
 13 14  2  0
 14 15  1  0
 15 16  1  0
 16 17  2  0
 16 18  1  0
 18 19  1  0
 19 20  2  0
 20 21  1  0
 21 22  2  0
 22 23  1  0
 23 24  2  0
 24 25  1  0
 25 26  1  0
 15 27  2  0
  7 28  1  0
 28 29  2  0
 28  3  1  0
 27 11  1  0
 24 19  1  0
  1 30  1  0
  1 31  1  0
  2 32  1  0
  4 33  1  0
  5 34  1  0
  6 35  1  0
 12 36  1  0
 13 37  1  0
 14 38  1  0
 20 39  1  0
 21 40  1  0
 22 41  1  0
 23 42  1  0
 25 43  1  0
 25 44  1  0
 26 45  1  0
 26 46  1  0
 26 47  1  0
 27 48  1  0
M  CHG  2  10  -1  18  -1
M  END
>  <UniqueID>  (45) 
41

>  <SMILES>  (45) 
C=Cn1cccc(C(=O)[N-]c2cccc(C(=O)[N-]c3ccccc3CC)c2)c1=O

>  <Energy>  (45) 
66.19093693186176

>  <Genealogy>  (45) 
C=Cn1cccc(C(=O)[N-]c2cccc(C(=O)[N-]c3ccccc3CC)c2)c1=O (protonated)
C=Cn1cccc(C(=O)[N-]c2cccc(C(=O)[N-]c3ccccc3CC)c2)c1=O (3D coordinates assigned)
C=Cn1cccc(C(=O)[N-]c2cccc(C(=O)[N-]c3ccccc3CC)c2)c1=O (optimized conformer: 66.19093693186176 kcal/mol)

>  <smiles>  (45) 
C=Cn1cccc(C(=O)Nc2cccc(C(=O)Nc3ccccc3CC)c2)c1=O

>  <score_type>  (45) 
oracle

>  <origin>  (45) 
adg

>  <m_score__min__energy>  (45) 
-11.51

>  <m_primary>  (45) 
energy

$$$$
45:0
     RDKit          3D

 45 46  0  0  0  0  0  0  0  0999 V2000
   58.1250   33.7090   46.4350 C   0  0  0  0  0  0  0  0  0  0  0  0
   58.2640   32.4100   45.8730 O   0  0  0  0  0  0  0  0  0  0  0  0
   57.8130   32.0370   44.5970 C   0  0  0  0  0  0  0  0  0  0  0  0
   58.1140   32.8040   43.4530 C   0  0  0  0  0  0  0  0  0  0  0  0
   57.7160   32.3700   42.1850 C   0  0  0  0  0  0  0  0  0  0  0  0
   57.0220   31.1670   42.0430 C   0  0  0  0  0  0  0  0  0  0  0  0
   56.7110   30.4030   43.1690 C   0  0  0  0  0  0  0  0  0  0  0  0
   57.0730   30.8430   44.4490 C   0  0  0  0  0  0  0  0  0  0  0  0
   56.7590   30.0070   45.5720 N   0  0  0  0  0  0  0  0  0  0  0  0
   57.5100   28.8560   45.9720 C   0  0  0  0  0  0  0  0  0  0  0  0
   57.1360   27.7000   45.6350 O   0  0  0  0  0  0  0  0  0  0  0  0
   58.7500   29.0260   46.7800 C   0  0  0  0  0  0  0  0  0  0  0  0
   58.9540   27.8580   47.5680 O   0  0  0  0  0  0  0  0  0  0  0  0
   60.0950   27.0610   47.4550 C   0  0  0  0  0  0  0  0  0  0  0  0
   60.9900   27.0900   48.3460 O   0  0  0  0  0  0  0  0  0  0  0  0
   60.2690   26.1790   46.2530 C   0  0  0  0  0  0  0  0  0  0  0  0
   58.9890   25.8480   45.6120 N   0  0  0  0  0  0  0  0  0  0  0  0
   58.5060   24.2010   45.9320 S   0  0  0  0  0  0  0  0  0  0  0  0
   59.6840   23.2960   45.7040 O   0  0  0  0  0  0  0  0  0  0  0  0
   58.0890   24.0780   47.3710 O   0  0  0  0  0  0  0  0  0  0  0  0
   57.2150   23.7260   44.8070 C   0  0  0  0  0  0  0  0  0  0  0  0
   57.5520   22.8080   43.7990 C   0  0  0  0  0  0  0  0  0  0  0  0
   56.6250   22.4390   42.8240 C   0  0  0  0  0  0  0  0  0  0  0  0
   55.3490   22.9970   42.8290 C   0  0  0  0  0  0  0  0  0  0  0  0
   54.9880   23.9030   43.8260 C   0  0  0  0  0  0  0  0  0  0  0  0
   55.8970   24.2570   44.8380 C   0  0  0  0  0  0  0  0  0  0  0  0
   55.4060   25.1220   45.9220 C   0  0  0  0  0  0  0  0  0  0  0  0
   54.7470   26.1600   45.6540 O   0  0  0  0  0  0  0  0  0  0  0  0
   55.5840   24.7490   47.2490 O   0  0  0  0  0  0  0  0  0  0  0  0
   58.1328   33.6364   47.5326 H   0  0  0  0  0  0  0  0  0  0  0  0
   58.9604   34.3432   46.1036 H   0  0  0  0  0  0  0  0  0  0  0  0
   57.1743   34.1521   46.1036 H   0  0  0  0  0  0  0  0  0  0  0  0
   58.6655   33.7499   43.5587 H   0  0  0  0  0  0  0  0  0  0  0  0
   57.9500   32.9772   41.2981 H   0  0  0  0  0  0  0  0  0  0  0  0
   56.7202   30.8211   41.0434 H   0  0  0  0  0  0  0  0  0  0  0  0
   56.1777   29.4483   43.0505 H   0  0  0  0  0  0  0  0  0  0  0  0
   59.6096   29.1733   46.1096 H   0  0  0  0  0  0  0  0  0  0  0  0
   58.6487   29.9034   47.4357 H   0  0  0  0  0  0  0  0  0  0  0  0
   60.9061   26.6990   45.5224 H   0  0  0  0  0  0  0  0  0  0  0  0
   60.7286   25.2383   46.5906 H   0  0  0  0  0  0  0  0  0  0  0  0
   58.2490   26.4950   45.9650 H   0  0  0  0  0  0  0  0  0  0  0  0
   58.5623   22.3733   43.7780 H   0  0  0  0  0  0  0  0  0  0  0  0
   56.9020   21.7071   42.0510 H   0  0  0  0  0  0  0  0  0  0  0  0
   54.6259   22.7232   42.0466 H   0  0  0  0  0  0  0  0  0  0  0  0
   53.9809   24.3454   43.8203 H   0  0  0  0  0  0  0  0  0  0  0  0
  1  2  1  0
  2  3  1  0
  3  4  2  0
  4  5  1  0
  5  6  2  0
  6  7  1  0
  7  8  2  0
  8  9  1  0
  9 10  1  0
 10 11  2  0
 10 12  1  0
 12 13  1  0
 13 14  1  0
 14 15  2  0
 14 16  1  0
 16 17  1  0
 17 18  1  0
 18 19  2  0
 18 20  2  0
 18 21  1  0
 21 22  2  0
 22 23  1  0
 23 24  2  0
 24 25  1  0
 25 26  2  0
 26 27  1  0
 27 28  2  0
 27 29  1  0
  8  3  1  0
 26 21  1  0
  1 30  1  0
  1 31  1  0
  1 32  1  0
  4 33  1  0
  5 34  1  0
  6 35  1  0
  7 36  1  0
 12 37  1  0
 12 38  1  0
 16 39  1  0
 16 40  1  0
 17 41  1  0
 22 42  1  0
 23 43  1  0
 24 44  1  0
 25 45  1  0
M  CHG  2   9  -1  29  -1
M  END
>  <UniqueID>  (46) 
42

>  <SMILES>  (46) 
COc1ccccc1[N-]C(=O)COC(=O)CNS(=O)(=O)c1ccccc1C(=O)[O-]

>  <Energy>  (46) 
50.33698345963073

>  <Genealogy>  (46) 
COc1ccccc1[N-]C(=O)COC(=O)CNS(=O)(=O)c1ccccc1C(=O)[O-] (protonated)
COc1ccccc1[N-]C(=O)COC(=O)CNS(=O)(=O)c1ccccc1C(=O)[O-] (3D coordinates assigned)
COc1ccccc1[N-]C(=O)COC(=O)CNS(=O)(=O)c1ccccc1C(=O)[O-] (optimized conformer: 50.33698345963073 kcal/mol)

>  <smiles>  (46) 
COc1ccccc1NC(=O)COC(=O)CNS(=O)(=O)c1ccccc1C(=O)O

>  <score_type>  (46) 
oracle

>  <origin>  (46) 
adg

>  <m_score__min__energy>  (46) 
-11.69

>  <m_primary>  (46) 
energy

$$$$
46:0
     RDKit          3D

 41 43  0  0  0  0  0  0  0  0999 V2000
   56.9830   30.4860   43.6440 C   0  0  0  0  0  0  0  0  0  0  0  0
   57.0030   30.5300   45.0410 O   0  0  0  0  0  0  0  0  0  0  0  0
   57.6920   29.6230   45.8150 C   0  0  0  0  0  0  0  0  0  0  0  0
   57.5620   28.2810   45.4670 C   0  0  0  0  0  0  0  0  0  0  0  0
   58.2190   27.3100   46.1930 C   0  0  0  0  0  0  0  0  0  0  0  0
   58.1410   25.9230   45.9040 N   0  0  0  0  0  0  0  0  0  0  0  0
   56.7120   25.0220   46.2190 S   0  0  0  0  0  0  0  0  0  0  0  0
   56.7790   24.5210   47.6330 O   0  0  0  0  0  0  0  0  0  0  0  0
   55.4990   25.8820   46.0470 O   0  0  0  0  0  0  0  0  0  0  0  0
   56.6680   23.6700   45.0780 C   0  0  0  0  0  0  0  0  0  0  0  0
   55.7510   23.6370   44.0410 C   0  0  0  0  0  0  0  0  0  0  0  0
   55.8050   22.5590   43.2310 N   0  0  0  0  0  0  0  0  0  0  0  0
   56.6940   21.5580   43.4040 C   0  0  0  0  0  0  0  0  0  0  0  0
   56.7410   20.5290   42.6250 N   0  0  0  0  0  0  0  0  0  0  0  0
   57.5870   21.5920   44.4140 N   0  0  0  0  0  0  0  0  0  0  0  0
   57.5880   22.6450   45.2660 C   0  0  0  0  0  0  0  0  0  0  0  0
   58.9930   27.7220   47.2570 C   0  0  0  0  0  0  0  0  0  0  0  0
   59.1120   29.0540   47.5920 C   0  0  0  0  0  0  0  0  0  0  0  0
   58.4480   30.0560   46.8590 C   0  0  0  0  0  0  0  0  0  0  0  0
   58.6430   31.3380   47.2870 O   0  0  0  0  0  0  0  0  0  0  0  0
   59.6140   32.2330   46.9970 C   0  0  0  0  0  0  0  0  0  0  0  0
   59.2880   33.2910   46.1440 C   0  0  0  0  0  0  0  0  0  0  0  0
   57.6770   33.4570   45.4690 Cl  0  0  0  0  0  0  0  0  0  0  0  0
   60.1900   34.2210   45.8080 N   0  0  0  0  0  0  0  0  0  0  0  0
   61.4310   34.1940   46.2570 N   0  0  0  0  0  0  0  0  0  0  0  0
   61.8380   33.2030   47.0920 C   0  0  0  0  0  0  0  0  0  0  0  0
   63.0110   33.1670   47.5240 O   0  0  0  0  0  0  0  0  0  0  0  0
   60.9120   32.2210   47.4570 C   0  0  0  0  0  0  0  0  0  0  0  0
   61.5050   30.8900   48.6640 Br  0  0  0  0  0  0  0  0  0  0  0  0
   56.5489   29.5309   43.3134 H   0  0  0  0  0  0  0  0  0  0  0  0
   56.3745   31.3179   43.2596 H   0  0  0  0  0  0  0  0  0  0  0  0
   58.0098   30.5747   43.2596 H   0  0  0  0  0  0  0  0  0  0  0  0
   56.9336   27.9947   44.6108 H   0  0  0  0  0  0  0  0  0  0  0  0
   58.9950   25.4830   45.4930 H   0  0  0  0  0  0  0  0  0  0  0  0
   55.0197   24.4440   43.8862 H   0  0  0  0  0  0  0  0  0  0  0  0
   56.9740   19.5760   43.0280 H   0  0  0  0  0  0  0  0  0  0  0  0
   58.2820   20.8210   44.5580 H   0  0  0  0  0  0  0  0  0  0  0  0
   58.3080   22.6885   46.0965 H   0  0  0  0  0  0  0  0  0  0  0  0
   59.5290   26.9691   47.8535 H   0  0  0  0  0  0  0  0  0  0  0  0
   59.7387   29.3398   48.4497 H   0  0  0  0  0  0  0  0  0  0  0  0
   62.1550   34.9130   46.0040 H   0  0  0  0  0  0  0  0  0  0  0  0
  1  2  1  0
  2  3  1  0
  3  4  2  0
  4  5  1  0
  5  6  1  0
  6  7  1  0
  7  8  2  0
  7  9  2  0
  7 10  1  0
 10 11  1  0
 11 12  2  0
 12 13  1  0
 13 14  2  3
 13 15  1  0
 15 16  1  0
  5 17  2  0
 17 18  1  0
 18 19  2  0
 19 20  1  0
 20 21  1  0
 21 22  1  0
 22 23  1  0
 22 24  2  0
 24 25  1  0
 25 26  1  0
 26 27  2  0
 26 28  1  0
 28 29  1  0
 19  3  1  0
 28 21  2  0
 16 10  2  0
  1 30  1  0
  1 31  1  0
  1 32  1  0
  4 33  1  0
  6 34  1  0
 11 35  1  0
 14 36  1  0
 15 37  1  0
 16 38  1  0
 17 39  1  0
 18 40  1  0
 25 41  1  0
M  END
>  <smiles>  (47) 
COc1cc(NS(=O)(=O)c2cnc(=N)[nH]c2)ccc1Oc1c(Cl)n[nH]c(=O)c1Br

>  <score_type>  (47) 
oracle

>  <origin>  (47) 
adg

>  <m_score__min__energy>  (47) 
-9.4499999999999993

>  <m_primary>  (47) 
energy

$$$$
47:0
     RDKit          3D

 47 49  0  0  0  0  0  0  0  0999 V2000
   58.7970   34.6220   44.9750 C   0  0  0  0  0  0  0  0  0  0  0  0
   57.8120   33.5080   44.6420 C   0  0  0  0  0  0  0  0  0  0  0  0
   58.0970   32.9480   43.3630 O   0  0  0  0  0  0  0  0  0  0  0  0
   57.3990   31.8600   42.8230 C   0  0  0  0  0  0  0  0  0  0  0  0
   57.1320   31.8160   41.5920 O   0  0  0  0  0  0  0  0  0  0  0  0
   56.9710   30.7670   43.7010 C   0  0  0  0  0  0  0  0  0  0  0  0
   55.6540   30.4070   43.9720 C   0  0  0  0  0  0  0  0  0  0  0  0
   55.5150   29.3590   44.8260 N   0  0  0  0  0  0  0  0  0  0  0  0
   56.7160   28.8850   45.2300 C   0  0  0  0  0  0  0  0  0  0  0  0
   56.8720   27.8980   46.0620 N   0  0  0  0  0  0  0  0  0  0  0  0
   56.5740   26.5210   45.7900 C   0  0  0  0  0  0  0  0  0  0  0  0
   55.5030   25.9940   46.1990 O   0  0  0  0  0  0  0  0  0  0  0  0
   57.5440   25.6920   45.0040 C   0  0  0  0  0  0  0  0  0  0  0  0
   58.9240   25.0550   46.0280 S   0  0  0  0  0  0  0  0  0  0  0  0
   59.5150   26.6680   46.5370 C   0  0  0  0  0  0  0  0  0  0  0  0
   59.9020   27.6330   45.6880 N   0  0  0  0  0  0  0  0  0  0  0  0
   60.1960   28.7000   46.4080 N   0  0  0  0  0  0  0  0  0  0  0  0
   59.9760   28.3360   47.6880 C   0  0  0  0  0  0  0  0  0  0  0  0
   60.0760   29.2660   48.8520 C   0  0  0  0  0  0  0  0  0  0  0  0
   59.7120   30.5850   48.4440 O   0  0  0  0  0  0  0  0  0  0  0  0
   60.6140   31.5820   48.0290 C   0  0  0  0  0  0  0  0  0  0  0  0
   61.9830   31.3110   47.8290 C   0  0  0  0  0  0  0  0  0  0  0  0
   62.8450   32.3150   47.3820 C   0  0  0  0  0  0  0  0  0  0  0  0
   62.3570   33.5960   47.1290 C   0  0  0  0  0  0  0  0  0  0  0  0
   61.0060   33.8830   47.3350 C   0  0  0  0  0  0  0  0  0  0  0  0
   60.1310   32.8860   47.7990 C   0  0  0  0  0  0  0  0  0  0  0  0
   58.6710   33.1950   47.9770 C   0  0  0  0  0  0  0  0  0  0  0  0
   59.5680   27.0900   47.7750 O   0  0  0  0  0  0  0  0  0  0  0  0
   57.9970   29.7390   44.5580 S   0  0  0  0  0  0  0  0  0  0  0  0
   58.8839   34.7203   46.0671 H   0  0  0  0  0  0  0  0  0  0  0  0
   59.7819   34.3800   44.5491 H   0  0  0  0  0  0  0  0  0  0  0  0
   58.4362   35.5699   44.5491 H   0  0  0  0  0  0  0  0  0  0  0  0
   57.8867   32.7199   45.4058 H   0  0  0  0  0  0  0  0  0  0  0  0
   56.7957   33.9285   44.6249 H   0  0  0  0  0  0  0  0  0  0  0  0
   54.7932   30.9298   43.5296 H   0  0  0  0  0  0  0  0  0  0  0  0
   57.0048   24.8373   44.5695 H   0  0  0  0  0  0  0  0  0  0  0  0
   57.9783   26.3376   44.2265 H   0  0  0  0  0  0  0  0  0  0  0  0
   59.9450   27.5810   44.6450 H   0  0  0  0  0  0  0  0  0  0  0  0
   59.3971   28.9290   49.6492 H   0  0  0  0  0  0  0  0  0  0  0  0
   61.1101   29.2720   49.2270 H   0  0  0  0  0  0  0  0  0  0  0  0
   62.3748   30.3023   48.0263 H   0  0  0  0  0  0  0  0  0  0  0  0
   63.9117   32.0943   47.2292 H   0  0  0  0  0  0  0  0  0  0  0  0
   63.0367   34.3814   46.7668 H   0  0  0  0  0  0  0  0  0  0  0  0
   60.6247   34.8948   47.1330 H   0  0  0  0  0  0  0  0  0  0  0  0
   58.4350   33.2450   49.0502 H   0  0  0  0  0  0  0  0  0  0  0  0
   58.4407   34.1618   47.5055 H   0  0  0  0  0  0  0  0  0  0  0  0
   58.0688   32.4044   47.5055 H   0  0  0  0  0  0  0  0  0  0  0  0
  1  2  1  0
  2  3  1  0
  3  4  1  0
  4  5  2  0
  4  6  1  0
  6  7  2  0
  7  8  1  0
  8  9  1  0
  9 10  2  3
 10 11  1  0
 11 12  2  0
 11 13  1  0
 13 14  1  0
 14 15  1  0
 15 16  2  0
 16 17  1  0
 17 18  2  0
 18 19  1  0
 19 20  1  0
 20 21  1  0
 21 22  2  0
 22 23  1  0
 23 24  2  0
 24 25  1  0
 25 26  2  0
 26 27  1  0
 18 28  1  0
  9 29  1  0
 29  6  1  0
 28 15  1  0
 26 21  1  0
  1 30  1  0
  1 31  1  0
  1 32  1  0
  2 33  1  0
  2 34  1  0
  7 35  1  0
 13 36  1  0
 13 37  1  0
 16 38  1  0
 19 39  1  0
 19 40  1  0
 22 41  1  0
 23 42  1  0
 24 43  1  0
 25 44  1  0
 27 45  1  0
 27 46  1  0
 27 47  1  0
M  CHG  2   8  -1  16   1
M  END
>  <UniqueID>  (48) 
43

>  <SMILES>  (48) 
CCOC(=O)c1c[n-]c(=NC(=O)CSc2[nH+]nc(COc3ccccc3C)o2)s1

>  <Energy>  (48) 
104.53527993462751

>  <Genealogy>  (48) 
CCOC(=O)c1c[n-]c(=NC(=O)CSc2[nH+]nc(COc3ccccc3C)o2)s1 (protonated)
CCOC(=O)c1c[n-]c(=NC(=O)CSc2[nH+]nc(COc3ccccc3C)o2)s1 (3D coordinates assigned)
CCOC(=O)c1c[n-]c(=NC(=O)CSc2[nH+]nc(COc3ccccc3C)o2)s1 (optimized conformer: 104.53527993462751 kcal/mol)

>  <smiles>  (48) 
CCOC(=O)c1c[nH]c(=NC(=O)CSc2nnc(COc3ccccc3C)o2)s1

>  <score_type>  (48) 
oracle

>  <origin>  (48) 
adg

>  <m_score__min__energy>  (48) 
-9.4499999999999993

>  <m_primary>  (48) 
energy

$$$$
48:0
     RDKit          3D

 41 43  0  0  0  0  0  0  0  0999 V2000
   55.6220   30.7190   44.4000 O   0  0  0  0  0  0  0  0  0  0  0  0
   56.8700   30.6090   44.5260 C   0  0  0  0  0  0  0  0  0  0  0  0
   57.7760   31.2000   43.4760 C   0  0  0  0  0  0  0  0  0  0  0  0
   57.7960   32.7330   43.5340 C   0  0  0  0  0  0  0  0  0  0  0  0
   58.2990   33.2380   44.8560 C   0  0  0  0  0  0  0  0  0  0  0  0
   58.1410   34.4530   45.1530 O   0  0  0  0  0  0  0  0  0  0  0  0
   58.9280   32.3410   45.7830 N   0  0  0  0  0  0  0  0  0  0  0  0
   59.4190   32.7790   47.0870 C   0  0  0  0  0  0  0  0  0  0  0  0
   60.9230   32.7730   47.1070 C   0  0  0  0  0  0  0  0  0  0  0  0
   61.6510   33.8660   46.6090 C   0  0  0  0  0  0  0  0  0  0  0  0
   63.0490   33.8450   46.6200 C   0  0  0  0  0  0  0  0  0  0  0  0
   63.7290   32.7320   47.1240 C   0  0  0  0  0  0  0  0  0  0  0  0
   63.0110   31.6390   47.6160 C   0  0  0  0  0  0  0  0  0  0  0  0
   61.6140   31.6560   47.6080 C   0  0  0  0  0  0  0  0  0  0  0  0
   57.3910   29.9880   45.7080 N   0  0  0  0  0  0  0  0  0  0  0  0
   57.8620   28.6370   45.8140 C   0  0  0  0  0  0  0  0  0  0  0  0
   59.2350   28.3190   45.6500 C   0  0  0  0  0  0  0  0  0  0  0  0
   59.6740   26.9850   45.7120 C   0  0  0  0  0  0  0  0  0  0  0  0
   58.7200   25.9920   45.9190 C   0  0  0  0  0  0  0  0  0  0  0  0
   57.3880   26.2910   46.0510 C   0  0  0  0  0  0  0  0  0  0  0  0
   56.9230   27.6030   45.9950 C   0  0  0  0  0  0  0  0  0  0  0  0
   56.6770   25.0300   46.2220 C   0  0  0  0  0  0  0  0  0  0  0  0
   55.4320   24.9120   46.3660 O   0  0  0  0  0  0  0  0  0  0  0  0
   57.5790   23.9210   46.2020 N   0  0  0  0  0  0  0  0  0  0  0  0
   58.8510   24.5440   46.0110 C   0  0  0  0  0  0  0  0  0  0  0  0
   59.9330   23.9060   45.9390 O   0  0  0  0  0  0  0  0  0  0  0  0
   58.7976   30.8248   43.6359 H   0  0  0  0  0  0  0  0  0  0  0  0
   57.3936   30.9014   42.4888 H   0  0  0  0  0  0  0  0  0  0  0  0
   58.4527   33.1103   42.7362 H   0  0  0  0  0  0  0  0  0  0  0  0
   56.7646   33.0921   43.4025 H   0  0  0  0  0  0  0  0  0  0  0  0
   59.0240   31.3300   45.5290 H   0  0  0  0  0  0  0  0  0  0  0  0
   59.0574   33.7984   47.2873 H   0  0  0  0  0  0  0  0  0  0  0  0
   59.0480   32.0892   47.8594 H   0  0  0  0  0  0  0  0  0  0  0  0
   61.1193   34.7419   46.2088 H   0  0  0  0  0  0  0  0  0  0  0  0
   63.6145   34.7049   46.2318 H   0  0  0  0  0  0  0  0  0  0  0  0
   64.8289   32.7169   47.1331 H   0  0  0  0  0  0  0  0  0  0  0  0
   63.5469   30.7631   48.0105 H   0  0  0  0  0  0  0  0  0  0  0  0
   61.0530   30.7926   47.9950 H   0  0  0  0  0  0  0  0  0  0  0  0
   59.9631   29.1242   45.4726 H   0  0  0  0  0  0  0  0  0  0  0  0
   60.7390   26.7332   45.6004 H   0  0  0  0  0  0  0  0  0  0  0  0
   55.8499   27.8257   46.0897 H   0  0  0  0  0  0  0  0  0  0  0  0
  1  2  2  0
  2  3  1  0
  3  4  1  0
  4  5  1  0
  5  6  2  0
  5  7  1  0
  7  8  1  0
  8  9  1  0
  9 10  2  0
 10 11  1  0
 11 12  2  0
 12 13  1  0
 13 14  2  0
  2 15  1  0
 15 16  1  0
 16 17  2  0
 17 18  1  0
 18 19  2  0
 19 20  1  0
 20 21  2  0
 20 22  1  0
 22 23  2  0
 22 24  1  0
 24 25  1  0
 25 26  2  0
 14  9  1  0
 21 16  1  0
 25 19  1  0
  3 27  1  0
  3 28  1  0
  4 29  1  0
  4 30  1  0
  7 31  1  0
  8 32  1  0
  8 33  1  0
 10 34  1  0
 11 35  1  0
 12 36  1  0
 13 37  1  0
 14 38  1  0
 17 39  1  0
 18 40  1  0
 21 41  1  0
M  CHG  2  15  -1  24  -1
M  END
>  <UniqueID>  (49) 
44

>  <SMILES>  (49) 
O=C(CCC(=O)NCc1ccccc1)[N-]c1ccc2c(c1)C(=O)[N-]C2=O

>  <Energy>  (49) 
73.31219661567177

>  <Genealogy>  (49) 
O=C(CCC(=O)NCc1ccccc1)[N-]c1ccc2c(c1)C(=O)[N-]C2=O (protonated)
O=C(CCC(=O)NCc1ccccc1)[N-]c1ccc2c(c1)C(=O)[N-]C2=O (3D coordinates assigned)
O=C(CCC(=O)NCc1ccccc1)[N-]c1ccc2c(c1)C(=O)[N-]C2=O (nonaromatic ring conformer: 73.31219661567177 kcal/mol)

>  <smiles>  (49) 
O=C(CCC(=O)Nc1ccc2c(c1)C(=O)NC2=O)NCc1ccccc1

>  <score_type>  (49) 
oracle

>  <origin>  (49) 
adg

>  <m_score__min__energy>  (49) 
-12.359999999999999

>  <m_primary>  (49) 
energy

$$$$
49:0
     RDKit          3D

 42 44  0  0  0  0  0  0  0  0999 V2000
   58.8440   32.9300   48.0030 C   0  0  0  0  0  0  0  0  0  0  0  0
   58.0970   32.0140   47.2070 O   0  0  0  0  0  0  0  0  0  0  0  0
   57.9730   32.0280   45.8040 C   0  0  0  0  0  0  0  0  0  0  0  0
   58.3880   33.1980   45.1500 C   0  0  0  0  0  0  0  0  0  0  0  0
   58.3090   33.3150   43.7620 C   0  0  0  0  0  0  0  0  0  0  0  0
   57.8170   32.2580   43.0010 C   0  0  0  0  0  0  0  0  0  0  0  0
   57.3900   31.0860   43.6260 C   0  0  0  0  0  0  0  0  0  0  0  0
   57.4520   30.9530   45.0300 C   0  0  0  0  0  0  0  0  0  0  0  0
   57.0770   29.7150   45.6510 N   0  0  0  0  0  0  0  0  0  0  0  0
   56.6230   28.6730   45.0230 C   0  0  0  0  0  0  0  0  0  0  0  0
   57.0850   27.3110   45.3830 C   0  0  0  0  0  0  0  0  0  0  0  0
   56.1660   26.3590   45.8590 C   0  0  0  0  0  0  0  0  0  0  0  0
   54.8220   26.7060   45.9980 O   0  0  0  0  0  0  0  0  0  0  0  0
   56.5850   25.0970   46.1920 N   0  0  0  0  0  0  0  0  0  0  0  0
   55.6380   24.1400   46.7050 C   0  0  0  0  0  0  0  0  0  0  0  0
   55.9130   23.4390   47.8900 C   0  0  0  0  0  0  0  0  0  0  0  0
   55.0010   22.5010   48.3800 C   0  0  0  0  0  0  0  0  0  0  0  0
   53.8110   22.2540   47.6920 C   0  0  0  0  0  0  0  0  0  0  0  0
   53.5260   22.9450   46.5060 C   0  0  0  0  0  0  0  0  0  0  0  0
   52.0140   22.6340   45.6570 S   0  0  0  0  0  0  0  0  0  0  0  0
   51.8140   20.9310   45.4370 N   0  0  0  0  0  0  0  0  0  0  0  0
   52.0430   23.3160   44.3170 O   0  0  0  0  0  0  0  0  0  0  0  0
   50.8520   23.1680   46.4470 O   0  0  0  0  0  0  0  0  0  0  0  0
   54.4400   23.8900   46.0160 C   0  0  0  0  0  0  0  0  0  0  0  0
   57.9030   24.7520   46.0520 C   0  0  0  0  0  0  0  0  0  0  0  0
   58.3040   23.5970   46.3610 O   0  0  0  0  0  0  0  0  0  0  0  0
   58.7990   25.6580   45.5880 N   0  0  0  0  0  0  0  0  0  0  0  0
   58.4300   26.9180   45.2520 C   0  0  0  0  0  0  0  0  0  0  0  0
   59.3020   27.7130   44.8100 O   0  0  0  0  0  0  0  0  0  0  0  0
   58.6701   32.7167   49.0680 H   0  0  0  0  0  0  0  0  0  0  0  0
   59.9153   32.8225   47.7777 H   0  0  0  0  0  0  0  0  0  0  0  0
   58.5232   33.9578   47.7777 H   0  0  0  0  0  0  0  0  0  0  0  0
   58.7823   34.0373   45.7417 H   0  0  0  0  0  0  0  0  0  0  0  0
   58.6355   34.2425   43.2688 H   0  0  0  0  0  0  0  0  0  0  0  0
   57.7649   32.3470   41.9058 H   0  0  0  0  0  0  0  0  0  0  0  0
   57.0006   30.2562   43.0178 H   0  0  0  0  0  0  0  0  0  0  0  0
   55.8877   28.8023   44.2152 H   0  0  0  0  0  0  0  0  0  0  0  0
   56.8497   23.6290   48.4344 H   0  0  0  0  0  0  0  0  0  0  0  0
   55.2207   21.9558   49.3098 H   0  0  0  0  0  0  0  0  0  0  0  0
   53.0953   21.5152   48.0818 H   0  0  0  0  0  0  0  0  0  0  0  0
   52.7590   20.5370   45.2350 H   0  0  0  0  0  0  0  0  0  0  0  0
   54.2173   24.4374   45.0882 H   0  0  0  0  0  0  0  0  0  0  0  0
  1  2  1  0
  2  3  1  0
  3  4  2  0
  4  5  1  0
  5  6  2  0
  6  7  1  0
  7  8  2  0
  8  9  1  0
  9 10  2  3
 10 11  1  0
 11 12  2  0
 12 13  1  0
 12 14  1  0
 14 15  1  0
 15 16  2  0
 16 17  1  0
 17 18  2  0
 18 19  1  0
 19 20  1  0
 20 21  1  0
 20 22  2  0
 20 23  2  0
 19 24  2  0
 14 25  1  0
 25 26  2  0
 25 27  1  0
 27 28  1  0
 28 29  2  0
  8  3  1  0
 28 11  1  0
 24 15  1  0
  1 30  1  0
  1 31  1  0
  1 32  1  0
  4 33  1  0
  5 34  1  0
  6 35  1  0
  7 36  1  0
 10 37  1  0
 16 38  1  0
 17 39  1  0
 18 40  1  0
 21 41  1  0
 24 42  1  0
M  CHG  3  13  -1  21  -1  27  -1
M  END
>  <UniqueID>  (50) 
45

>  <SMILES>  (50) 
COc1ccccc1N=Cc1c([O-])n(-c2cccc(S([NH-])(=O)=O)c2)c(=O)[n-]c1=O

>  <Energy>  (50) 
64.51857548767538

>  <Genealogy>  (50) 
COc1ccccc1N=Cc1c([O-])n(-c2cccc(S([NH-])(=O)=O)c2)c(=O)[n-]c1=O (protonated)
COc1ccccc1N=Cc1c([O-])n(-c2cccc(S([NH-])(=O)=O)c2)c(=O)[n-]c1=O (3D coordinates assigned)
COc1ccccc1N=Cc1c([O-])n(-c2cccc(S([NH-])(=O)=O)c2)c(=O)[n-]c1=O (optimized conformer: 64.51857548767538 kcal/mol)

>  <smiles>  (50) 
COc1ccccc1N=Cc1c(O)n(-c2cccc(S(N)(=O)=O)c2)c(=O)[nH]c1=O

>  <score_type>  (50) 
oracle

>  <origin>  (50) 
adg

>  <m_score__min__energy>  (50) 
-14.300000000000001

>  <m_primary>  (50) 
energy

$$$$
50:0
     RDKit          3D

 41 44  0  0  0  0  0  0  0  0999 V2000
   59.2211   26.0881   45.1690 H   0  0  0  0  0  0  0  0  0  0  0  0
   58.2300   26.5180   45.3760 C   0  0  0  0  0  0  0  0  0  0  0  0
   58.1100   27.8500   45.4540 C   0  0  0  0  0  0  0  0  0  0  0  0
   58.4680   28.6480   46.6250 C   0  0  0  0  0  0  0  0  0  0  0  0
   58.8680   28.2060   47.7350 O   0  0  0  0  0  0  0  0  0  0  0  0
   58.2910   30.0390   46.2810 C   0  0  0  0  0  0  0  0  0  0  0  0
   58.4950   31.1730   47.0650 C   0  0  0  0  0  0  0  0  0  0  0  0
   58.8424   31.0845   48.1050 H   0  0  0  0  0  0  0  0  0  0  0  0
   58.2460   32.4310   46.4940 C   0  0  0  0  0  0  0  0  0  0  0  0
   58.3918   33.3415   47.0938 H   0  0  0  0  0  0  0  0  0  0  0  0
   57.8090   32.5360   45.1530 C   0  0  0  0  0  0  0  0  0  0  0  0
   57.5060   33.8810   44.5650 C   0  0  0  0  0  0  0  0  0  0  0  0
   57.3425   34.6069   45.3751 H   0  0  0  0  0  0  0  0  0  0  0  0
   58.3528   34.2090   43.9442 H   0  0  0  0  0  0  0  0  0  0  0  0
   56.6004   33.8142   43.9442 H   0  0  0  0  0  0  0  0  0  0  0  0
   57.5950   31.3680   44.3920 C   0  0  0  0  0  0  0  0  0  0  0  0
   57.2338   31.4348   43.3551 H   0  0  0  0  0  0  0  0  0  0  0  0
   57.8490   30.1260   44.9760 C   0  0  0  0  0  0  0  0  0  0  0  0
   57.6890   28.7780   44.3380 C   0  0  0  0  0  0  0  0  0  0  0  0
   56.6454   28.5979   44.0408 H   0  0  0  0  0  0  0  0  0  0  0  0
   58.2720   28.6529   43.4136 H   0  0  0  0  0  0  0  0  0  0  0  0
   57.0840   25.6040   45.5570 C   0  0  0  0  0  0  0  0  0  0  0  0
   55.7770   26.0920   45.6590 C   0  0  0  0  0  0  0  0  0  0  0  0
   55.5190   27.4580   45.6100 O   0  0  0  0  0  0  0  0  0  0  0  0
   54.7460   25.2300   45.8310 N   0  0  0  0  0  0  0  0  0  0  0  0
   54.9490   23.8920   45.9210 C   0  0  0  0  0  0  0  0  0  0  0  0
   53.9560   23.1310   46.0880 O   0  0  0  0  0  0  0  0  0  0  0  0
   56.2170   23.3780   45.8460 N   0  0  0  0  0  0  0  0  0  0  0  0
   56.4290   21.9570   45.9540 C   0  0  0  0  0  0  0  0  0  0  0  0
   56.0460   21.1100   44.9020 C   0  0  0  0  0  0  0  0  0  0  0  0
   55.5828   21.5335   43.9986 H   0  0  0  0  0  0  0  0  0  0  0  0
   56.2510   19.7300   44.9980 C   0  0  0  0  0  0  0  0  0  0  0  0
   55.9508   19.0708   44.1702 H   0  0  0  0  0  0  0  0  0  0  0  0
   56.8370   19.1880   46.1450 C   0  0  0  0  0  0  0  0  0  0  0  0
   56.9985   18.1024   46.2191 H   0  0  0  0  0  0  0  0  0  0  0  0
   57.2180   20.0240   47.1980 C   0  0  0  0  0  0  0  0  0  0  0  0
   57.6787   19.5948   48.1000 H   0  0  0  0  0  0  0  0  0  0  0  0
   57.0150   21.4060   47.1080 C   0  0  0  0  0  0  0  0  0  0  0  0
   57.3860   22.2250   48.1690 O   0  0  0  0  0  0  0  0  0  0  0  0
   57.2870   24.2200   45.6740 C   0  0  0  0  0  0  0  0  0  0  0  0
   58.4580   23.7530   45.6010 O   0  0  0  0  0  0  0  0  0  0  0  0
  1  2  1  0
  2  3  2  0
  3  4  1  0
  4  5  2  0
  4  6  1  0
  6  7  2  0
  7  8  1  0
  7  9  1  0
  9 10  1  0
  9 11  2  0
 11 12  1  0
 12 13  1  0
 12 14  1  0
 12 15  1  0
 11 16  1  0
 16 17  1  0
 16 18  2  0
 18 19  1  0
 19 20  1  0
 19 21  1  0
  2 22  1  0
 22 23  2  0
 23 24  1  0
 23 25  1  0
 25 26  1  0
 26 27  2  0
 26 28  1  0
 28 29  1  0
 29 30  2  0
 30 31  1  0
 30 32  1  0
 32 33  1  0
 32 34  2  0
 34 35  1  0
 34 36  1  0
 36 37  1  0
 36 38  2  0
 38 39  1  0
 28 40  1  0
 40 41  2  0
 19  3  1  0
 40 22  1  0
 18  6  1  0
 38 29  1  0
M  CHG  3  24  -1  25  -1  39  -1
M  END
>  <UniqueID>  (51) 
46

>  <SMILES>  (51) 
Cc1ccc2c(c1)C/C(=C\c1c([O-])[n-]c(=O)n(-c3ccccc3[O-])c1=O)C2=O

>  <Energy>  (51) 
82.77163367555023

>  <Genealogy>  (51) 
Cc1ccc2c(c1)CC(=Cc1c([O-])[n-]c(=O)n(-c3ccccc3[O-])c1=O)C2=O (protonated)
Cc1ccc2c(c1)C/C(=C\c1c([O-])[n-]c(=O)n(-c3ccccc3[O-])c1=O)C2=O (cis-trans isomerization)
Cc1ccc2c(c1)C/C(=C\c1c([O-])[n-]c(=O)n(-c3ccccc3[O-])c1=O)C2=O (3D coordinates assigned)
Cc1ccc2c(c1)C/C(=C\c1c([O-])[n-]c(=O)n(-c3ccccc3[O-])c1=O)C2=O (nonaromatic ring conformer: 82.77163367555023 kcal/mol)

>  <smiles>  (51) 
Cc1ccc2c(c1)CC(=Cc1c(O)[nH]c(=O)n(-c3ccccc3O)c1=O)C2=O

>  <score_type>  (51) 
oracle

>  <origin>  (51) 
adg

>  <m_score__min__energy>  (51) 
-15.619999999999999

>  <m_primary>  (51) 
energy

$$$$
51:0
     RDKit          3D

 36 38  0  0  0  0  0  0  0  0999 V2000
   59.0175   27.4959   46.7323 H   0  0  0  0  0  0  0  0  0  0  0  0
   58.4680   28.3400   46.2900 C   0  0  0  0  0  0  0  0  0  0  0  0
   59.0440   29.5670   46.2380 N   0  0  0  0  0  0  0  0  0  0  0  0
   58.3960   30.6270   45.6900 C   0  0  0  0  0  0  0  0  0  0  0  0
   58.9770   31.7910   45.6850 N   0  0  0  0  0  0  0  0  0  0  0  0
   59.3280   32.5870   46.8300 C   0  0  0  0  0  0  0  0  0  0  0  0
   58.9180   32.2420   48.1340 C   0  0  0  0  0  0  0  0  0  0  0  0
   58.3334   31.3253   48.3010 H   0  0  0  0  0  0  0  0  0  0  0  0
   59.2530   33.0630   49.2160 C   0  0  0  0  0  0  0  0  0  0  0  0
   58.9448   32.7829   50.2341 H   0  0  0  0  0  0  0  0  0  0  0  0
   59.9790   34.2390   49.0050 C   0  0  0  0  0  0  0  0  0  0  0  0
   60.2492   34.8790   49.8578 H   0  0  0  0  0  0  0  0  0  0  0  0
   60.3610   34.6010   47.7120 C   0  0  0  0  0  0  0  0  0  0  0  0
   60.9250   35.5307   47.5463 H   0  0  0  0  0  0  0  0  0  0  0  0
   60.0280   33.7840   46.6270 C   0  0  0  0  0  0  0  0  0  0  0  0
   60.3171   34.0826   45.6085 H   0  0  0  0  0  0  0  0  0  0  0  0
   57.1400   30.4590   45.1960 N   0  0  0  0  0  0  0  0  0  0  0  0
   56.5140   29.2530   45.2190 C   0  0  0  0  0  0  0  0  0  0  0  0
   55.2180   29.1410   44.6210 N   0  0  0  0  0  0  0  0  0  0  0  0
   54.6440   29.9750   44.3730 H   0  0  0  0  0  0  0  0  0  0  0  0
   54.7810   28.2000   44.5070 H   0  0  0  0  0  0  0  0  0  0  0  0
   57.1760   28.1420   45.7830 C   0  0  0  0  0  0  0  0  0  0  0  0
   56.5470   26.8060   45.8960 C   0  0  0  0  0  0  0  0  0  0  0  0
   55.2920   26.7160   45.9600 O   0  0  0  0  0  0  0  0  0  0  0  0
   57.3300   25.6140   46.0400 N   0  0  0  0  0  0  0  0  0  0  0  0
   57.2570   24.4450   45.2100 C   0  0  0  0  0  0  0  0  0  0  0  0
   56.2670   24.3780   44.2210 C   0  0  0  0  0  0  0  0  0  0  0  0
   55.5559   25.2087   44.1016 H   0  0  0  0  0  0  0  0  0  0  0  0
   56.1780   23.2610   43.3850 C   0  0  0  0  0  0  0  0  0  0  0  0
   55.3897   23.2090   42.6195 H   0  0  0  0  0  0  0  0  0  0  0  0
   57.0900   22.2100   43.5210 C   0  0  0  0  0  0  0  0  0  0  0  0
   57.0155   21.3286   42.8671 H   0  0  0  0  0  0  0  0  0  0  0  0
   58.0960   22.2800   44.4880 C   0  0  0  0  0  0  0  0  0  0  0  0
   58.8169   21.4556   44.5909 H   0  0  0  0  0  0  0  0  0  0  0  0
   58.1880   23.3960   45.3250 C   0  0  0  0  0  0  0  0  0  0  0  0
   58.9902   23.4543   46.0754 H   0  0  0  0  0  0  0  0  0  0  0  0
  1  2  1  0
  2  3  1  0
  3  4  1  0
  4  5  2  0
  5  6  1  0
  6  7  2  0
  7  8  1  0
  7  9  1  0
  9 10  1  0
  9 11  2  0
 11 12  1  0
 11 13  1  0
 13 14  1  0
 13 15  2  0
 15 16  1  0
  4 17  1  0
 17 18  2  0
 18 19  1  0
 19 20  1  0
 19 21  1  0
 18 22  1  0
 22 23  1  0
 23 24  2  0
 23 25  1  0
 25 26  1  0
 26 27  2  0
 27 28  1  0
 27 29  1  0
 29 30  1  0
 29 31  2  0
 31 32  1  0
 31 33  1  0
 33 34  1  0
 33 35  2  0
 35 36  1  0
 22  2  2  0
 35 26  1  0
 15  6  1  0
M  CHG  2   3  -1  25  -1
M  END
>  <UniqueID>  (52) 
47

>  <SMILES>  (52) 
Nc1n/c(=N\c2ccccc2)[n-]cc1C(=O)[N-]c1ccccc1

>  <Energy>  (52) 
54.789016531546665

>  <Genealogy>  (52) 
Nc1nc(=Nc2ccccc2)[n-]cc1C(=O)[N-]c1ccccc1 (protonated)
Nc1n/c(=N\c2ccccc2)[n-]cc1C(=O)[N-]c1ccccc1 (cis-trans isomerization)
Nc1n/c(=N\c2ccccc2)[n-]cc1C(=O)[N-]c1ccccc1 (3D coordinates assigned)
Nc1n/c(=N\c2ccccc2)[n-]cc1C(=O)[N-]c1ccccc1 (optimized conformer: 54.789016531546665 kcal/mol)

>  <smiles>  (52) 
Nc1nc(=Nc2ccccc2)[nH]cc1C(=O)Nc1ccccc1

>  <score_type>  (52) 
oracle

>  <origin>  (52) 
adg

>  <m_score__min__energy>  (52) 
-10.84

>  <m_primary>  (52) 
energy

$$$$
52:0
     RDKit          3D

 25 26  0  0  0  0  0  0  0  0999 V2000
   55.1510   29.5990   44.8680 O   0  0  0  0  0  0  0  0  0  0  0  0
   56.3360   29.1710   44.9100 C   0  0  0  0  0  0  0  0  0  0  0  0
   57.4030   29.9320   44.3270 N   0  0  0  0  0  0  0  0  0  0  0  0
   57.8400   31.2430   44.7210 C   0  0  0  0  0  0  0  0  0  0  0  0
   58.0770   31.5420   46.0770 C   0  0  0  0  0  0  0  0  0  0  0  0
   58.5080   32.8120   46.4590 C   0  0  0  0  0  0  0  0  0  0  0  0
   58.6970   33.8040   45.5010 C   0  0  0  0  0  0  0  0  0  0  0  0
   59.1150   35.0380   45.8780 F   0  0  0  0  0  0  0  0  0  0  0  0
   58.4410   33.5340   44.1560 C   0  0  0  0  0  0  0  0  0  0  0  0
   57.9980   32.2620   43.7460 C   0  0  0  0  0  0  0  0  0  0  0  0
   57.7340   32.0280   42.3450 N   0  0  0  0  0  0  0  0  0  0  0  0
   56.8130   31.2690   41.9780 O   0  0  0  0  0  0  0  0  0  0  0  0
   58.4550   32.6960   41.3830 O   0  0  0  0  0  0  0  0  0  0  0  0
   56.6240   27.9070   45.6130 C   0  0  0  0  0  0  0  0  0  0  0  0
   57.8680   27.6780   46.2220 C   0  0  0  0  0  0  0  0  0  0  0  0
   58.0790   26.4600   46.8720 C   0  0  0  0  0  0  0  0  0  0  0  0
   59.1820   26.2230   47.4290 O   0  0  0  0  0  0  0  0  0  0  0  0
   57.0920   25.5290   46.9040 N   0  0  0  0  0  0  0  0  0  0  0  0
   55.8920   25.7630   46.3100 C   0  0  0  0  0  0  0  0  0  0  0  0
   54.9900   24.8880   46.3500 O   0  0  0  0  0  0  0  0  0  0  0  0
   55.6670   26.9410   45.6730 N   0  0  0  0  0  0  0  0  0  0  0  0
   57.9207   30.7667   46.8415 H   0  0  0  0  0  0  0  0  0  0  0  0
   58.6991   33.0304   47.5200 H   0  0  0  0  0  0  0  0  0  0  0  0
   58.5873   34.3255   43.4062 H   0  0  0  0  0  0  0  0  0  0  0  0
   58.6593   28.4413   46.1880 H   0  0  0  0  0  0  0  0  0  0  0  0
  1  2  2  0
  2  3  1  0
  3  4  1  0
  4  5  2  0
  5  6  1  0
  6  7  2  0
  7  8  1  0
  7  9  1  0
  9 10  2  0
 10 11  1  0
 11 12  2  0
 11 13  1  0
  2 14  1  0
 14 15  2  0
 15 16  1  0
 16 17  2  0
 16 18  1  0
 18 19  1  0
 19 20  2  0
 19 21  1  0
 10  4  1  0
 21 14  1  0
  5 22  1  0
  6 23  1  0
  9 24  1  0
 15 25  1  0
M  CHG  5   3  -1  11   1  13  -1  18  -1  21  -1
M  END
>  <UniqueID>  (53) 
48

>  <SMILES>  (53) 
O=C([N-]c1ccc(F)cc1[N+](=O)[O-])c1cc(=O)[n-]c(=O)[n-]1

>  <Energy>  (53) 
34.42869722770605

>  <Genealogy>  (53) 
O=C([N-]c1ccc(F)cc1[N+](=O)[O-])c1cc(=O)[n-]c(=O)[n-]1 (protonated)
O=C([N-]c1ccc(F)cc1[N+](=O)[O-])c1cc(=O)[n-]c(=O)[n-]1 (3D coordinates assigned)
O=C([N-]c1ccc(F)cc1[N+](=O)[O-])c1cc(=O)[n-]c(=O)[n-]1 (optimized conformer: 34.42869722770605 kcal/mol)

>  <smiles>  (53) 
O=C(Nc1ccc(F)cc1[N+](=O)[O-])c1cc(=O)[nH]c(=O)[nH]1

>  <score_type>  (53) 
oracle

>  <origin>  (53) 
adg

>  <m_score__min__energy>  (53) 
-12.699999999999999

>  <m_primary>  (53) 
energy

$$$$
53:0
     RDKit          3D

 28 29  0  0  0  0  0  0  0  0999 V2000
   59.1763   27.4029   46.3698 H   0  0  0  0  0  0  0  0  0  0  0  0
   58.1180   27.1510   46.2070 C   0  0  0  0  0  0  0  0  0  0  0  0
   57.4090   25.6520   46.4810 S   0  0  0  0  0  0  0  0  0  0  0  0
   55.8830   26.1620   45.9800 C   0  0  0  0  0  0  0  0  0  0  0  0
   54.7890   25.4570   45.9810 N   0  0  0  0  0  0  0  0  0  0  0  0
   54.5780   24.1730   45.3760 C   0  0  0  0  0  0  0  0  0  0  0  0
   53.4030   23.8370   45.0700 O   0  0  0  0  0  0  0  0  0  0  0  0
   55.7130   23.2360   45.0680 C   0  0  0  0  0  0  0  0  0  0  0  0
   56.5625   23.4717   45.7259 H   0  0  0  0  0  0  0  0  0  0  0  0
   55.3703   22.2042   45.2351 H   0  0  0  0  0  0  0  0  0  0  0  0
   56.2300   23.3940   43.3700 Cl  0  0  0  0  0  0  0  0  0  0  0  0
   55.8930   27.4610   45.6200 N   0  0  0  0  0  0  0  0  0  0  0  0
   57.1300   28.0240   45.7360 C   0  0  0  0  0  0  0  0  0  0  0  0
   57.3680   29.4480   45.3780 C   0  0  0  0  0  0  0  0  0  0  0  0
   56.8090   30.0210   44.2190 C   0  0  0  0  0  0  0  0  0  0  0  0
   56.1779   29.4086   43.5582 H   0  0  0  0  0  0  0  0  0  0  0  0
   57.0490   31.3610   43.9010 C   0  0  0  0  0  0  0  0  0  0  0  0
   56.6035   31.7962   42.9943 H   0  0  0  0  0  0  0  0  0  0  0  0
   57.8570   32.1560   44.7340 C   0  0  0  0  0  0  0  0  0  0  0  0
   58.1250   33.5050   44.4570 O   0  0  0  0  0  0  0  0  0  0  0  0
   58.7670   34.3990   45.3610 C   0  0  0  0  0  0  0  0  0  0  0  0
   58.5483   34.0945   46.3951 H   0  0  0  0  0  0  0  0  0  0  0  0
   59.8538   34.3726   45.1930 H   0  0  0  0  0  0  0  0  0  0  0  0
   58.3947   35.4204   45.1930 H   0  0  0  0  0  0  0  0  0  0  0  0
   58.4180   31.5880   45.8810 C   0  0  0  0  0  0  0  0  0  0  0  0
   59.0528   32.2008   46.5379 H   0  0  0  0  0  0  0  0  0  0  0  0
   58.1800   30.2490   46.2010 C   0  0  0  0  0  0  0  0  0  0  0  0
   58.6323   29.8168   47.1058 H   0  0  0  0  0  0  0  0  0  0  0  0
  1  2  1  0
  2  3  1  0
  3  4  1  0
  4  5  2  0
  5  6  1  0
  6  7  2  0
  6  8  1  0
  8  9  1  0
  8 10  1  0
  8 11  1  0
  4 12  1  0
 12 13  1  0
 13 14  1  0
 14 15  2  0
 15 16  1  0
 15 17  1  0
 17 18  1  0
 17 19  2  0
 19 20  1  0
 20 21  1  0
 21 22  1  0
 21 23  1  0
 21 24  1  0
 19 25  1  0
 25 26  1  0
 25 27  2  0
 27 28  1  0
 13  2  2  0
 27 14  1  0
M  CHG  1  12  -1
M  END
>  <UniqueID>  (54) 
49

>  <SMILES>  (54) 
COc1ccc(-c2cs/c(=N\C(=O)CCl)[n-]2)cc1

>  <Energy>  (54) 
65.57642054540207

>  <Genealogy>  (54) 
COc1ccc(-c2csc(=NC(=O)CCl)[n-]2)cc1 (protonated)
COc1ccc(-c2cs/c(=N\C(=O)CCl)[n-]2)cc1 (cis-trans isomerization)
COc1ccc(-c2cs/c(=N\C(=O)CCl)[n-]2)cc1 (3D coordinates assigned)
COc1ccc(-c2cs/c(=N\C(=O)CCl)[n-]2)cc1 (optimized conformer: 65.57642054540207 kcal/mol)

>  <smiles>  (54) 
COc1ccc(-c2csc(=NC(=O)CCl)[nH]2)cc1

>  <score_type>  (54) 
oracle

>  <origin>  (54) 
adg

>  <m_score__min__energy>  (54) 
-8.0099999999999998

>  <m_primary>  (54) 
energy

$$$$
54:0
     RDKit          3D

 54 57  0  0  0  0  0  0  0  0999 V2000
   56.6450   30.0640   45.5970 O   0  0  0  0  0  0  0  0  0  0  0  0
   57.6170   30.4590   44.8940 C   0  0  0  0  0  0  0  0  0  0  0  0
   58.1940   29.5780   43.9160 N   0  0  0  0  0  0  0  0  0  0  0  0
   57.7270   28.2070   43.7170 C   0  0  0  0  0  0  0  0  0  0  0  0
   57.8300   27.4100   45.0200 C   0  0  0  0  0  0  0  0  0  0  0  0
   59.1900   26.8460   45.1880 N   0  0  0  0  0  0  0  0  0  0  0  0
   59.3090   25.9080   46.3260 C   0  0  0  0  0  0  0  0  0  0  0  0
   59.1580   26.5960   47.6960 C   0  0  0  0  0  0  0  0  0  0  0  0
   59.7810   27.9680   47.7470 C   0  0  0  0  0  0  0  0  0  0  0  0
   59.8460   28.6420   48.9770 C   0  0  0  0  0  0  0  0  0  0  0  0
   60.3780   29.9320   49.0480 C   0  0  0  0  0  0  0  0  0  0  0  0
   60.8480   30.5600   47.8930 C   0  0  0  0  0  0  0  0  0  0  0  0
   60.7820   29.9010   46.6620 C   0  0  0  0  0  0  0  0  0  0  0  0
   60.2340   28.6120   46.5770 C   0  0  0  0  0  0  0  0  0  0  0  0
   60.2340   27.8870   45.2560 C   0  0  0  0  0  0  0  0  0  0  0  0
   58.1300   31.8370   45.0810 C   0  0  0  0  0  0  0  0  0  0  0  0
   58.1370   32.7380   44.0090 C   0  0  0  0  0  0  0  0  0  0  0  0
   58.6120   34.0340   44.1870 C   0  0  0  0  0  0  0  0  0  0  0  0
   59.0750   34.4360   45.4400 C   0  0  0  0  0  0  0  0  0  0  0  0
   59.4980   35.6160   45.5860 O   0  0  0  0  0  0  0  0  0  0  0  0
   59.0680   33.5580   46.4960 N   0  0  0  0  0  0  0  0  0  0  0  0
   59.5120   33.9820   47.8340 C   0  0  0  0  0  0  0  0  0  0  0  0
   61.0060   33.8440   47.9580 C   0  0  0  0  0  0  0  0  0  0  0  0
   61.6260   33.9040   49.2170 C   0  0  0  0  0  0  0  0  0  0  0  0
   63.0100   33.7400   49.3300 C   0  0  0  0  0  0  0  0  0  0  0  0
   63.7840   33.5090   48.1890 C   0  0  0  0  0  0  0  0  0  0  0  0
   63.1740   33.4400   46.9340 C   0  0  0  0  0  0  0  0  0  0  0  0
   61.7900   33.6040   46.8170 C   0  0  0  0  0  0  0  0  0  0  0  0
   58.5960   32.2820   46.3310 C   0  0  0  0  0  0  0  0  0  0  0  0
   58.8540   29.9630   43.2050 H   0  0  0  0  0  0  0  0  0  0  0  0
   56.6779   28.2265   43.3867 H   0  0  0  0  0  0  0  0  0  0  0  0
   58.3562   27.7244   42.9546 H   0  0  0  0  0  0  0  0  0  0  0  0
   57.6086   28.0752   45.8677 H   0  0  0  0  0  0  0  0  0  0  0  0
   57.1076   26.5813   44.9835 H   0  0  0  0  0  0  0  0  0  0  0  0
   58.5256   25.1416   46.2311 H   0  0  0  0  0  0  0  0  0  0  0  0
   60.3185   25.4728   46.2875 H   0  0  0  0  0  0  0  0  0  0  0  0
   58.0858   26.6909   47.9226 H   0  0  0  0  0  0  0  0  0  0  0  0
   59.6842   25.9720   48.4334 H   0  0  0  0  0  0  0  0  0  0  0  0
   59.4761   28.1518   49.8896 H   0  0  0  0  0  0  0  0  0  0  0  0
   60.4266   30.4536   50.0153 H   0  0  0  0  0  0  0  0  0  0  0  0
   61.2705   31.5739   47.9517 H   0  0  0  0  0  0  0  0  0  0  0  0
   61.1615   30.3953   45.7555 H   0  0  0  0  0  0  0  0  0  0  0  0
   60.0586   28.6169   44.4520 H   0  0  0  0  0  0  0  0  0  0  0  0
   61.2101   27.3923   45.1438 H   0  0  0  0  0  0  0  0  0  0  0  0
   57.7660   32.4205   43.0233 H   0  0  0  0  0  0  0  0  0  0  0  0
   58.6223   34.7389   43.3426 H   0  0  0  0  0  0  0  0  0  0  0  0
   59.2304   35.0333   47.9933 H   0  0  0  0  0  0  0  0  0  0  0  0
   59.0303   33.3437   48.5893 H   0  0  0  0  0  0  0  0  0  0  0  0
   61.0201   34.0808   50.1179 H   0  0  0  0  0  0  0  0  0  0  0  0
   63.4904   33.7928   50.3181 H   0  0  0  0  0  0  0  0  0  0  0  0
   64.8729   33.3816   48.2793 H   0  0  0  0  0  0  0  0  0  0  0  0
   63.7831   33.2564   46.0366 H   0  0  0  0  0  0  0  0  0  0  0  0
   61.3132   33.5448   45.8275 H   0  0  0  0  0  0  0  0  0  0  0  0
   58.5814   31.5950   47.1900 H   0  0  0  0  0  0  0  0  0  0  0  0
  1  2  2  0
  2  3  1  0
  3  4  1  0
  4  5  1  0
  5  6  1  0
  6  7  1  0
  7  8  1  0
  8  9  1  0
  9 10  2  0
 10 11  1  0
 11 12  2  0
 12 13  1  0
 13 14  2  0
 14 15  1  0
  2 16  1  0
 16 17  1  0
 17 18  2  0
 18 19  1  0
 19 20  2  0
 19 21  1  0
 21 22  1  0
 22 23  1  0
 23 24  2  0
 24 25  1  0
 25 26  2  0
 26 27  1  0
 27 28  2  0
 21 29  1  0
 15  6  1  0
 29 16  2  0
 14  9  1  0
 28 23  1  0
  3 30  1  0
  4 31  1  0
  4 32  1  0
  5 33  1  0
  5 34  1  0
  7 35  1  0
  7 36  1  0
  8 37  1  0
  8 38  1  0
 10 39  1  0
 11 40  1  0
 12 41  1  0
 13 42  1  0
 15 43  1  0
 15 44  1  0
 17 45  1  0
 18 46  1  0
 22 47  1  0
 22 48  1  0
 24 49  1  0
 25 50  1  0
 26 51  1  0
 27 52  1  0
 28 53  1  0
 29 54  1  0
M  END
>  <UniqueID>  (55) 
50

>  <SMILES>  (55) 
O=C(NCCN1CCc2ccccc2C1)c1ccc(=O)n(Cc2ccccc2)c1

>  <Energy>  (55) 
65.46799387029886

>  <Genealogy>  (55) 
O=C(NCCN1CCc2ccccc2C1)c1ccc(=O)n(Cc2ccccc2)c1 (3D coordinates assigned)
O=C(NCCN1CCc2ccccc2C1)c1ccc(=O)n(Cc2ccccc2)c1 (nonaromatic ring conformer: 65.46799387029886 kcal/mol)

>  <smiles>  (55) 
O=C(NCCN1CCc2ccccc2C1)c1ccc(=O)n(Cc2ccccc2)c1

>  <score_type>  (55) 
oracle

>  <origin>  (55) 
adg

>  <m_score__min__energy>  (55) 
-9.2899999999999991

>  <m_primary>  (55) 
energy

$$$$
55:0
     RDKit          3D

 42 44  0  0  0  0  0  0  0  0999 V2000
   59.9337   25.7793   45.5328 H   0  0  0  0  0  0  0  0  0  0  0  0
   58.8540   25.9760   45.6080 C   0  0  0  0  0  0  0  0  0  0  0  0
   58.4010   27.2540   45.6950 N   0  0  0  0  0  0  0  0  0  0  0  0
   57.0770   27.5600   45.7870 C   0  0  0  0  0  0  0  0  0  0  0  0
   56.7540   28.8230   45.8550 N   0  0  0  0  0  0  0  0  0  0  0  0
   56.1360   29.6540   44.8610 C   0  0  0  0  0  0  0  0  0  0  0  0
   54.9940   29.3480   44.4200 O   0  0  0  0  0  0  0  0  0  0  0  0
   56.8760   30.7950   44.2640 C   0  0  0  0  0  0  0  0  0  0  0  0
   57.4300   31.7830   45.1000 C   0  0  0  0  0  0  0  0  0  0  0  0
   57.3065   31.7034   46.1901 H   0  0  0  0  0  0  0  0  0  0  0  0
   58.1370   32.8670   44.5610 C   0  0  0  0  0  0  0  0  0  0  0  0
   58.8540   34.0830   45.6190 S   0  0  0  0  0  0  0  0  0  0  0  0
   57.9480   34.3470   46.7900 O   0  0  0  0  0  0  0  0  0  0  0  0
   59.0210   35.3640   44.8520 O   0  0  0  0  0  0  0  0  0  0  0  0
   60.4070   33.5510   46.1880 N   0  0  0  0  0  0  0  0  0  0  0  0
   60.6580   32.7020   45.6290 H   0  0  0  0  0  0  0  0  0  0  0  0
   60.3130   33.1590   47.5950 C   0  0  0  0  0  0  0  0  0  0  0  0
   61.2693   33.3665   48.0973 H   0  0  0  0  0  0  0  0  0  0  0  0
   59.5095   33.7322   48.0806 H   0  0  0  0  0  0  0  0  0  0  0  0
   60.0060   31.6900   47.6910 C   0  0  0  0  0  0  0  0  0  0  0  0
   60.6150   30.7790   46.8110 C   0  0  0  0  0  0  0  0  0  0  0  0
   61.2983   31.1442   46.0302 H   0  0  0  0  0  0  0  0  0  0  0  0
   60.3550   29.4100   46.9250 C   0  0  0  0  0  0  0  0  0  0  0  0
   60.8287   28.7012   46.2299 H   0  0  0  0  0  0  0  0  0  0  0  0
   59.4940   28.9410   47.9210 C   0  0  0  0  0  0  0  0  0  0  0  0
   59.2859   27.8642   48.0055 H   0  0  0  0  0  0  0  0  0  0  0  0
   58.8970   29.8400   48.8100 C   0  0  0  0  0  0  0  0  0  0  0  0
   58.2231   29.4695   49.5965 H   0  0  0  0  0  0  0  0  0  0  0  0
   59.1560   31.2100   48.7000 C   0  0  0  0  0  0  0  0  0  0  0  0
   58.6921   31.9139   49.4066 H   0  0  0  0  0  0  0  0  0  0  0  0
   58.3060   32.9640   43.1770 C   0  0  0  0  0  0  0  0  0  0  0  0
   58.8672   33.8085   42.7505 H   0  0  0  0  0  0  0  0  0  0  0  0
   57.7650   31.9930   42.3360 C   0  0  0  0  0  0  0  0  0  0  0  0
   57.8993   32.0771   41.2475 H   0  0  0  0  0  0  0  0  0  0  0  0
   57.0530   30.9130   42.8660 C   0  0  0  0  0  0  0  0  0  0  0  0
   56.5550   29.9860   42.0100 F   0  0  0  0  0  0  0  0  0  0  0  0
   56.1360   26.4980   45.8430 C   0  0  0  0  0  0  0  0  0  0  0  0
   54.7790   26.7130   46.0520 O   0  0  0  0  0  0  0  0  0  0  0  0
   56.5900   25.1800   45.7350 C   0  0  0  0  0  0  0  0  0  0  0  0
   55.8689   24.3494   45.7456 H   0  0  0  0  0  0  0  0  0  0  0  0
   57.9520   24.9150   45.6140 C   0  0  0  0  0  0  0  0  0  0  0  0
   58.3112   23.8792   45.5242 H   0  0  0  0  0  0  0  0  0  0  0  0
  1  2  1  0
  2  3  1  0
  3  4  1  0
  4  5  2  0
  5  6  1  0
  6  7  2  0
  6  8  1  0
  8  9  2  0
  9 10  1  0
  9 11  1  0
 11 12  1  0
 12 13  2  0
 12 14  2  0
 12 15  1  0
 15 16  1  0
 15 17  1  0
 17 18  1  0
 17 19  1  0
 17 20  1  0
 20 21  2  0
 21 22  1  0
 21 23  1  0
 23 24  1  0
 23 25  2  0
 25 26  1  0
 25 27  1  0
 27 28  1  0
 27 29  2  0
 29 30  1  0
 11 31  2  0
 31 32  1  0
 31 33  1  0
 33 34  1  0
 33 35  2  0
 35 36  1  0
  4 37  1  0
 37 38  1  0
 37 39  2  0
 39 40  1  0
 39 41  1  0
 41 42  1  0
 41  2  2  0
 35  8  1  0
 29 20  1  0
M  CHG  2   3  -1  38  -1
M  END
>  <UniqueID>  (56) 
51

>  <SMILES>  (56) 
O=C(/N=c1/[n-]cccc1[O-])c1cc(S(=O)(=O)NCc2ccccc2)ccc1F

>  <Energy>  (56) 
56.64111200448119

>  <Genealogy>  (56) 
O=C(N=c1[n-]cccc1[O-])c1cc(S(=O)(=O)NCc2ccccc2)ccc1F (protonated)
O=C(/N=c1/[n-]cccc1[O-])c1cc(S(=O)(=O)NCc2ccccc2)ccc1F (cis-trans isomerization)
O=C(/N=c1/[n-]cccc1[O-])c1cc(S(=O)(=O)NCc2ccccc2)ccc1F (3D coordinates assigned)
O=C(/N=c1/[n-]cccc1[O-])c1cc(S(=O)(=O)NCc2ccccc2)ccc1F (optimized conformer: 56.64111200448119 kcal/mol)

>  <smiles>  (56) 
O=C(N=c1[nH]cccc1O)c1cc(S(=O)(=O)NCc2ccccc2)ccc1F

>  <score_type>  (56) 
oracle

>  <origin>  (56) 
adg

>  <m_score__min__energy>  (56) 
-14.970000000000001

>  <m_primary>  (56) 
energy

$$$$
56:0
     RDKit          3D

 31 32  0  0  0  0  0  0  0  0999 V2000
   55.1420   29.3460   44.8360 N   0  0  0  0  0  0  0  0  0  0  0  0
   56.6740   29.9910   44.3660 S   0  0  0  0  0  0  0  0  0  0  0  0
   56.9670   29.6080   42.9420 O   0  0  0  0  0  0  0  0  0  0  0  0
   56.6400   31.4910   44.4640 O   0  0  0  0  0  0  0  0  0  0  0  0
   57.9250   29.3530   45.4270 C   0  0  0  0  0  0  0  0  0  0  0  0
   58.6690   28.2290   45.0450 C   0  0  0  0  0  0  0  0  0  0  0  0
   59.6490   27.7140   45.8970 C   0  0  0  0  0  0  0  0  0  0  0  0
   59.8870   28.3150   47.1360 C   0  0  0  0  0  0  0  0  0  0  0  0
   59.1430   29.4340   47.5310 C   0  0  0  0  0  0  0  0  0  0  0  0
   59.4290   30.1620   49.1080 S   0  0  0  0  0  0  0  0  0  0  0  0
   60.8850   30.0920   49.4760 O   0  0  0  0  0  0  0  0  0  0  0  0
   58.6270   29.4170   50.1380 O   0  0  0  0  0  0  0  0  0  0  0  0
   58.9270   31.8210   49.0880 N   0  0  0  0  0  0  0  0  0  0  0  0
   59.1500   32.7430   48.0100 C   0  0  0  0  0  0  0  0  0  0  0  0
   58.1190   33.1050   47.1230 C   0  0  0  0  0  0  0  0  0  0  0  0
   58.3600   34.0140   46.0890 C   0  0  0  0  0  0  0  0  0  0  0  0
   57.0640   34.4630   44.9960 Cl  0  0  0  0  0  0  0  0  0  0  0  0
   59.6330   34.5650   45.9260 C   0  0  0  0  0  0  0  0  0  0  0  0
   60.6650   34.2080   46.7950 C   0  0  0  0  0  0  0  0  0  0  0  0
   60.4330   33.3010   47.8360 C   0  0  0  0  0  0  0  0  0  0  0  0
   61.4900   32.9720   48.6860 O   0  0  0  0  0  0  0  0  0  0  0  0
   58.1620   29.9520   46.6730 C   0  0  0  0  0  0  0  0  0  0  0  0
   55.3190   28.6890   45.6300 H   0  0  0  0  0  0  0  0  0  0  0  0
   58.4811   27.7511   44.0722 H   0  0  0  0  0  0  0  0  0  0  0  0
   60.2343   26.8340   45.5921 H   0  0  0  0  0  0  0  0  0  0  0  0
   60.6611   27.9079   47.8031 H   0  0  0  0  0  0  0  0  0  0  0  0
   57.1163   32.6694   47.2444 H   0  0  0  0  0  0  0  0  0  0  0  0
   59.8222   35.2806   45.1123 H   0  0  0  0  0  0  0  0  0  0  0  0
   61.6669   34.6419   46.6612 H   0  0  0  0  0  0  0  0  0  0  0  0
   61.4520   32.1830   49.3200 H   0  0  0  0  0  0  0  0  0  0  0  0
   57.5761   30.8315   46.9784 H   0  0  0  0  0  0  0  0  0  0  0  0
  1  2  1  0
  2  3  2  0
  2  4  2  0
  2  5  1  0
  5  6  2  0
  6  7  1  0
  7  8  2  0
  8  9  1  0
  9 10  1  0
 10 11  2  0
 10 12  2  0
 10 13  1  0
 13 14  1  0
 14 15  2  0
 15 16  1  0
 16 17  1  0
 16 18  2  0
 18 19  1  0
 19 20  2  0
 20 21  1  0
  9 22  2  0
 22  5  1  0
 20 14  1  0
  1 23  1  0
  6 24  1  0
  7 25  1  0
  8 26  1  0
 15 27  1  0
 18 28  1  0
 19 29  1  0
 21 30  1  0
 22 31  1  0
M  CHG  2   1  -1  13  -1
M  END
>  <UniqueID>  (57) 
52

>  <SMILES>  (57) 
[NH-]S(=O)(=O)c1cccc(S(=O)(=O)[N-]c2cc(Cl)ccc2O)c1

>  <Energy>  (57) 
34.570373644328086

>  <Genealogy>  (57) 
[NH-]S(=O)(=O)c1cccc(S(=O)(=O)[N-]c2cc(Cl)ccc2O)c1 (protonated)
[NH-]S(=O)(=O)c1cccc(S(=O)(=O)[N-]c2cc(Cl)ccc2O)c1 (3D coordinates assigned)
[NH-]S(=O)(=O)c1cccc(S(=O)(=O)[N-]c2cc(Cl)ccc2O)c1 (optimized conformer: 34.570373644328086 kcal/mol)

>  <smiles>  (57) 
NS(=O)(=O)c1cccc(S(=O)(=O)Nc2cc(Cl)ccc2O)c1

>  <score_type>  (57) 
oracle

>  <origin>  (57) 
adg

>  <m_score__min__energy>  (57) 
-12.779999999999999

>  <m_primary>  (57) 
energy

$$$$
57:0
     RDKit          3D

 63 67  0  0  0  0  0  0  0  0999 V2000
   56.5450   32.4260   45.1160 H   0  0  0  0  0  0  0  0  0  0  0  0
   57.4140   31.8560   45.2380 N   0  0  0  0  0  0  0  0  0  0  0  0
   58.4600   32.7530   46.2800 S   0  0  0  0  0  0  0  0  0  0  0  0
   57.9280   34.1520   46.4180 O   0  0  0  0  0  0  0  0  0  0  0  0
   59.8390   32.8090   45.6850 O   0  0  0  0  0  0  0  0  0  0  0  0
   58.5380   31.9710   47.8540 C   0  0  0  0  0  0  0  0  0  0  0  0
   58.2890   32.7190   49.0140 C   0  0  0  0  0  0  0  0  0  0  0  0
   58.0858   33.7973   48.9373 H   0  0  0  0  0  0  0  0  0  0  0  0
   58.2980   32.1000   50.2670 C   0  0  0  0  0  0  0  0  0  0  0  0
   58.1180   32.6951   51.1744 H   0  0  0  0  0  0  0  0  0  0  0  0
   58.5360   30.7220   50.3700 C   0  0  0  0  0  0  0  0  0  0  0  0
   58.4630   30.0640   51.6480 N   0  0  0  0  0  0  0  0  0  0  0  0
   59.5260   29.7970   52.4690 C   0  0  0  0  0  0  0  0  0  0  0  0
   60.8330   29.8690   52.1580 C   0  0  0  0  0  0  0  0  0  0  0  0
   61.4952   29.0758   52.5353 H   0  0  0  0  0  0  0  0  0  0  0  0
   61.4350   30.9380   51.3470 C   0  0  0  0  0  0  0  0  0  0  0  0
   61.6530   32.0630   51.8730 O   0  0  0  0  0  0  0  0  0  0  0  0
   61.7800   30.6880   49.9760 N   0  0  0  0  0  0  0  0  0  0  0  0
   61.7160   29.7020   49.6350 H   0  0  0  0  0  0  0  0  0  0  0  0
   62.5120   31.6300   49.1770 C   0  0  0  0  0  0  0  0  0  0  0  0
   62.0550   32.0140   47.9020 C   0  0  0  0  0  0  0  0  0  0  0  0
   61.1285   31.5800   47.4979 H   0  0  0  0  0  0  0  0  0  0  0  0
   62.7750   32.9450   47.1480 C   0  0  0  0  0  0  0  0  0  0  0  0
   62.4109   33.2455   46.1544 H   0  0  0  0  0  0  0  0  0  0  0  0
   63.9560   33.4950   47.6530 C   0  0  0  0  0  0  0  0  0  0  0  0
   64.5156   34.2350   47.0621 H   0  0  0  0  0  0  0  0  0  0  0  0
   64.4250   33.1040   48.9090 C   0  0  0  0  0  0  0  0  0  0  0  0
   65.3573   33.5328   49.3050 H   0  0  0  0  0  0  0  0  0  0  0  0
   63.7110   32.1680   49.6640 C   0  0  0  0  0  0  0  0  0  0  0  0
   64.0928   31.8521   50.6461 H   0  0  0  0  0  0  0  0  0  0  0  0
   58.9920   29.2990   53.9850 S   0  0  0  0  0  0  0  0  0  0  0  0
   57.3570   29.3490   53.5760 C   0  0  0  0  0  0  0  0  0  0  0  0
   56.3200   29.0260   54.3630 C   0  0  0  0  0  0  0  0  0  0  0  0
   55.9435   29.7895   55.0597 H   0  0  0  0  0  0  0  0  0  0  0  0
   55.6520   27.7080   54.3520 C   0  0  0  0  0  0  0  0  0  0  0  0
   56.3100   26.5230   54.6130 C   0  0  0  0  0  0  0  0  0  0  0  0
   57.3790   26.4007   54.8416 H   0  0  0  0  0  0  0  0  0  0  0  0
   55.3640   25.5220   54.5310 C   0  0  0  0  0  0  0  0  0  0  0  0
   55.5351   24.4441   54.6679 H   0  0  0  0  0  0  0  0  0  0  0  0
   54.1620   26.1350   54.2440 C   0  0  0  0  0  0  0  0  0  0  0  0
   53.2039   25.6108   54.1123 H   0  0  0  0  0  0  0  0  0  0  0  0
   54.3310   27.4710   54.1480 N   0  0  0  0  0  0  0  0  0  0  0  0
   53.2660   28.4200   53.9390 C   0  0  0  0  0  0  0  0  0  0  0  0
   52.1750   28.4590   54.8250 C   0  0  0  0  0  0  0  0  0  0  0  0
   52.1661   27.8061   55.7102 H   0  0  0  0  0  0  0  0  0  0  0  0
   51.1020   29.3220   54.5880 C   0  0  0  0  0  0  0  0  0  0  0  0
   50.2538   29.3482   55.2879 H   0  0  0  0  0  0  0  0  0  0  0  0
   51.1040   30.1510   53.4650 C   0  0  0  0  0  0  0  0  0  0  0  0
   50.2477   30.8134   53.2701 H   0  0  0  0  0  0  0  0  0  0  0  0
   52.1940   30.1410   52.5860 C   0  0  0  0  0  0  0  0  0  0  0  0
   52.1740   31.1230   51.1270 S   0  0  0  0  0  0  0  0  0  0  0  0
   51.6290   30.3170   49.9820 O   0  0  0  0  0  0  0  0  0  0  0  0
   53.5670   31.5720   50.7860 O   0  0  0  0  0  0  0  0  0  0  0  0
   51.1730   32.5050   51.3930 N   0  0  0  0  0  0  0  0  0  0  0  0
   50.2620   32.3190   50.9180 H   0  0  0  0  0  0  0  0  0  0  0  0
   53.2800   29.2930   52.8370 C   0  0  0  0  0  0  0  0  0  0  0  0
   54.1515   29.3101   52.1661 H   0  0  0  0  0  0  0  0  0  0  0  0
   57.2680   29.8140   52.2630 C   0  0  0  0  0  0  0  0  0  0  0  0
   56.1630   30.0070   51.6840 O   0  0  0  0  0  0  0  0  0  0  0  0
   58.8250   29.9830   49.2110 C   0  0  0  0  0  0  0  0  0  0  0  0
   59.0557   28.9103   49.2893 H   0  0  0  0  0  0  0  0  0  0  0  0
   58.8210   30.6030   47.9600 C   0  0  0  0  0  0  0  0  0  0  0  0
   59.0405   30.0162   47.0558 H   0  0  0  0  0  0  0  0  0  0  0  0
  1  2  1  0
  2  3  1  0
  3  4  2  0
  3  5  2  0
  3  6  1  0
  6  7  2  0
  7  8  1  0
  7  9  1  0
  9 10  1  0
  9 11  2  0
 11 12  1  0
 12 13  1  0
 13 14  2  3
 14 15  1  0
 14 16  1  0
 16 17  2  0
 16 18  1  0
 18 19  1  0
 18 20  1  0
 20 21  2  0
 21 22  1  0
 21 23  1  0
 23 24  1  0
 23 25  2  0
 25 26  1  0
 25 27  1  0
 27 28  1  0
 27 29  2  0
 29 30  1  0
 13 31  1  0
 31 32  1  0
 32 33  2  0
 33 34  1  0
 33 35  1  0
 35 36  2  0
 36 37  1  0
 36 38  1  0
 38 39  1  0
 38 40  2  0
 40 41  1  0
 40 42  1  0
 42 43  1  0
 43 44  2  0
 44 45  1  0
 44 46  1  0
 46 47  1  0
 46 48  2  0
 48 49  1  0
 48 50  1  0
 50 51  1  0
 51 52  2  0
 51 53  2  0
 51 54  1  0
 54 55  1  0
 50 56  2  0
 56 57  1  0
 32 58  1  0
 58 59  2  0
 11 60  1  0
 60 61  1  0
 60 62  2  0
 62 63  1  0
 62  6  1  0
 58 12  1  0
 29 20  1  0
 42 35  1  0
 56 43  1  0
M  CHG  2   2  -1  54  -1
M  END
>  <UniqueID>  (58) 
53

>  <SMILES>  (58) 
[NH-]S(=O)(=O)c1ccc(-n2c(=CC(=O)Nc3ccccc3)s/c(=C\c3cccn3-c3cccc(S([NH-])(=O)=O)c3)c2=O)cc1

>  <Energy>  (58) 
152.9902613825981

>  <Genealogy>  (58) 
[NH-]S(=O)(=O)c1ccc(-n2c(=CC(=O)Nc3ccccc3)sc(=Cc3cccn3-c3cccc(S([NH-])(=O)=O)c3)c2=O)cc1 (protonated)
[NH-]S(=O)(=O)c1ccc(-n2c(=CC(=O)Nc3ccccc3)s/c(=C\c3cccn3-c3cccc(S([NH-])(=O)=O)c3)c2=O)cc1 (cis-trans isomerization)
[NH-]S(=O)(=O)c1ccc(-n2c(=CC(=O)Nc3ccccc3)s/c(=C\c3cccn3-c3cccc(S([NH-])(=O)=O)c3)c2=O)cc1 (3D coordinates assigned)
[NH-]S(=O)(=O)c1ccc(-n2c(=CC(=O)Nc3ccccc3)s/c(=C\c3cccn3-c3cccc(S([NH-])(=O)=O)c3)c2=O)cc1 (optimized conformer: 152.9902613825981 kcal/mol)

>  <smiles>  (58) 
NS(=O)(=O)c1ccc(-n2c(=CC(=O)Nc3ccccc3)sc(=Cc3cccn3-c3cccc(S(N)(=O)=O)c3)c2=O)cc1

>  <score_type>  (58) 
oracle

>  <origin>  (58) 
adg

>  <m_score__min__energy>  (58) 
-13.720000000000001

>  <m_primary>  (58) 
energy

$$$$
58:0
     RDKit          3D

 43 45  0  0  0  0  0  0  0  0999 V2000
   56.6280   22.8090   43.7010 C   0  0  0  0  0  0  0  0  0  0  0  0
   57.4570   22.4630   44.9310 C   0  0  0  0  0  0  0  0  0  0  0  0
   56.4390   22.4490   46.4010 S   0  0  0  0  0  0  0  0  0  0  0  0
   57.2180   21.7900   47.5050 O   0  0  0  0  0  0  0  0  0  0  0  0
   55.1840   21.6560   46.1720 O   0  0  0  0  0  0  0  0  0  0  0  0
   56.0520   24.0660   46.8990 N   0  0  0  0  0  0  0  0  0  0  0  0
   56.5930   25.3110   46.4270 C   0  0  0  0  0  0  0  0  0  0  0  0
   57.9880   25.4480   46.4460 C   0  0  0  0  0  0  0  0  0  0  0  0
   58.5980   26.6340   46.0360 C   0  0  0  0  0  0  0  0  0  0  0  0
   57.8170   27.7120   45.6190 C   0  0  0  0  0  0  0  0  0  0  0  0
   56.4220   27.6060   45.6070 C   0  0  0  0  0  0  0  0  0  0  0  0
   55.6170   28.7330   45.2480 N   0  0  0  0  0  0  0  0  0  0  0  0
   55.8480   29.5520   44.0920 C   0  0  0  0  0  0  0  0  0  0  0  0
   54.8670   29.8850   43.3780 O   0  0  0  0  0  0  0  0  0  0  0  0
   57.2260   30.0450   43.7240 C   0  0  0  0  0  0  0  0  0  0  0  0
   57.6950   31.0540   44.6870 N   0  0  0  0  0  0  0  0  0  0  0  0
   57.8660   30.6720   45.9570 N   0  0  0  0  0  0  0  0  0  0  0  0
   58.3680   31.4980   46.9080 C   0  0  0  0  0  0  0  0  0  0  0  0
   58.5090   31.0690   48.0850 O   0  0  0  0  0  0  0  0  0  0  0  0
   58.7370   32.8040   46.5640 C   0  0  0  0  0  0  0  0  0  0  0  0
   59.3070   33.6840   47.5050 C   0  0  0  0  0  0  0  0  0  0  0  0
   59.6770   34.9750   47.1240 C   0  0  0  0  0  0  0  0  0  0  0  0
   59.4790   35.4050   45.8110 C   0  0  0  0  0  0  0  0  0  0  0  0
   58.9060   34.5460   44.8700 C   0  0  0  0  0  0  0  0  0  0  0  0
   58.5330   33.2380   45.2370 C   0  0  0  0  0  0  0  0  0  0  0  0
   57.9790   32.3410   44.3050 C   0  0  0  0  0  0  0  0  0  0  0  0
   57.7600   32.7200   43.1200 O   0  0  0  0  0  0  0  0  0  0  0  0
   55.8040   26.4040   45.9940 C   0  0  0  0  0  0  0  0  0  0  0  0
   54.4180   26.3410   45.9820 O   0  0  0  0  0  0  0  0  0  0  0  0
   55.6555   23.2149   44.0166 H   0  0  0  0  0  0  0  0  0  0  0  0
   57.1608   23.5599   43.0991 H   0  0  0  0  0  0  0  0  0  0  0  0
   56.4689   21.9022   43.0991 H   0  0  0  0  0  0  0  0  0  0  0  0
   57.9067   21.4684   44.7945 H   0  0  0  0  0  0  0  0  0  0  0  0
   58.2411   23.2248   45.0529 H   0  0  0  0  0  0  0  0  0  0  0  0
   58.6106   24.6085   46.7890 H   0  0  0  0  0  0  0  0  0  0  0  0
   59.6947   26.7190   46.0416 H   0  0  0  0  0  0  0  0  0  0  0  0
   58.2990   28.6475   45.2989 H   0  0  0  0  0  0  0  0  0  0  0  0
   57.9246   29.1953   43.7231 H   0  0  0  0  0  0  0  0  0  0  0  0
   57.1808   30.5049   42.7258 H   0  0  0  0  0  0  0  0  0  0  0  0
   59.4609   33.3529   48.5427 H   0  0  0  0  0  0  0  0  0  0  0  0
   60.1264   35.6562   47.8616 H   0  0  0  0  0  0  0  0  0  0  0  0
   59.7748   36.4227   45.5164 H   0  0  0  0  0  0  0  0  0  0  0  0
   58.7454   34.8923   43.8384 H   0  0  0  0  0  0  0  0  0  0  0  0
  1  2  1  0
  2  3  1  0
  3  4  2  0
  3  5  2  0
  3  6  1  0
  6  7  1  0
  7  8  2  0
  8  9  1  0
  9 10  2  0
 10 11  1  0
 11 12  1  0
 12 13  1  0
 13 14  2  0
 13 15  1  0
 15 16  1  0
 16 17  1  0
 17 18  1  0
 18 19  2  0
 18 20  1  0
 20 21  2  0
 21 22  1  0
 22 23  2  0
 23 24  1  0
 24 25  2  0
 25 26  1  0
 26 27  2  0
 11 28  2  0
 28 29  1  0
 28  7  1  0
 26 16  1  0
 25 20  1  0
  1 30  1  0
  1 31  1  0
  1 32  1  0
  2 33  1  0
  2 34  1  0
  8 35  1  0
  9 36  1  0
 10 37  1  0
 15 38  1  0
 15 39  1  0
 21 40  1  0
 22 41  1  0
 23 42  1  0
 24 43  1  0
M  CHG  4   6  -1  12  -1  17  -1  29  -1
M  END
>  <UniqueID>  (59) 
54

>  <SMILES>  (59) 
CCS(=O)(=O)[N-]c1cccc([N-]C(=O)Cn2[n-]c(=O)c3ccccc3c2=O)c1[O-]

>  <Energy>  (59) 
55.12734230925073

>  <Genealogy>  (59) 
CCS(=O)(=O)[N-]c1cccc([N-]C(=O)Cn2[n-]c(=O)c3ccccc3c2=O)c1[O-] (protonated)
CCS(=O)(=O)[N-]c1cccc([N-]C(=O)Cn2[n-]c(=O)c3ccccc3c2=O)c1[O-] (3D coordinates assigned)
CCS(=O)(=O)[N-]c1cccc([N-]C(=O)Cn2[n-]c(=O)c3ccccc3c2=O)c1[O-] (optimized conformer: 55.12734230925073 kcal/mol)

>  <smiles>  (59) 
CCS(=O)(=O)Nc1cccc(NC(=O)Cn2[nH]c(=O)c3ccccc3c2=O)c1O

>  <score_type>  (59) 
oracle

>  <origin>  (59) 
adg

>  <m_score__min__energy>  (59) 
-18.219999999999999

>  <m_primary>  (59) 
energy

$$$$
59:0
     RDKit          3D

 52 55  0  0  1  0  0  0  0  0999 V2000
   60.7680   30.4670   49.9790 O   0  0  0  0  0  0  0  0  0  0  0  0
   60.6710   29.8020   48.9070 C   0  0  0  0  0  0  0  0  0  0  0  0
   59.9640   28.5110   48.8890 C   0  0  0  0  0  0  0  0  0  0  0  0
   59.4160   28.1980   47.5500 C   0  0  0  0  0  0  0  0  0  0  0  0
   59.8490   27.0520   46.8790 C   0  0  0  0  0  0  0  0  0  0  0  0
   59.3650   26.7210   45.6270 C   0  0  0  0  0  0  0  0  0  0  0  0
   58.4330   27.5700   45.0650 C   0  0  0  0  0  0  0  0  0  0  0  0
   57.9900   28.7190   45.7210 C   0  0  0  0  0  0  0  0  0  0  0  0
   57.0260   29.5170   45.0410 N   0  0  0  0  0  0  0  0  0  0  0  0
   57.3800   30.6660   44.5710 C   0  0  0  0  0  0  0  0  0  0  0  0
   57.7630   30.8600   43.2950 N   0  0  0  0  0  0  0  0  0  0  0  0
   58.1210   32.1020   42.8760 C   0  0  0  0  0  0  0  0  0  0  0  0
   58.0880   33.1550   43.7750 C   0  0  0  0  0  0  0  0  0  0  0  0
   57.6930   32.9460   45.0890 C   0  0  0  0  0  0  0  0  0  0  0  0
   57.6690   33.9470   45.9150 N   0  0  0  0  0  0  0  0  0  0  0  0
   58.3860   33.8980   47.1430 C   0  0  0  0  0  0  0  0  0  0  0  0
   59.3210   34.8440   47.5100 C   0  0  0  0  0  0  0  0  0  0  0  0
   59.9460   34.6720   48.7360 C   0  0  0  0  0  0  0  0  0  0  0  0
   59.6450   33.5970   49.5600 C   0  0  0  0  0  0  0  0  0  0  0  0
   58.7040   32.6500   49.1840 C   0  0  0  0  0  0  0  0  0  0  0  0
   58.3760   31.5620   49.9800 O   0  0  0  0  0  0  0  0  0  0  0  0
   58.0880   32.8160   47.9800 C   0  0  0  0  0  0  0  0  0  0  0  0
   57.3460   31.7010   45.4610 N   0  0  0  0  0  0  0  0  0  0  0  0
   58.4840   29.0340   46.9710 C   0  0  0  0  0  0  0  0  0  0  0  0
   61.2320   30.2590   47.6730 N   0  0  0  0  0  0  0  0  0  0  0  0
   61.9320   31.5010   47.6100 C   0  0  0  0  0  0  0  0  0  0  0  0
   63.0210   31.6440   48.4470 C   0  0  0  0  0  0  0  0  0  0  0  0
   63.7700   32.8090   48.4650 C   0  0  0  0  0  0  0  0  0  0  0  0
   63.3820   33.8290   47.6060 C   0  0  0  0  0  0  0  0  0  0  0  0
   62.3100   33.6970   46.7800 C   0  0  0  0  0  0  0  0  0  0  0  0
   61.5690   32.5240   46.7720 C   0  0  0  0  0  0  0  0  0  0  0  0
   60.6674   27.7167   49.1795 H   0  0  0  0  0  0  0  0  0  0  0  0
   59.1224   28.5744   49.5944 H   0  0  0  0  0  0  0  0  0  0  0  0
   60.5923   26.3977   47.3579 H   0  0  0  0  0  0  0  0  0  0  0  0
   59.7085   25.8183   45.1005 H   0  0  0  0  0  0  0  0  0  0  0  0
   58.0274   27.3337   44.0702 H   0  0  0  0  0  0  0  0  0  0  0  0
   57.7790   30.0490   42.6380 H   0  0  0  0  0  0  0  0  0  0  0  0
   58.4335   32.2692   41.8346 H   0  0  0  0  0  0  0  0  0  0  0  0
   58.3768   34.1639   43.4454 H   0  0  0  0  0  0  0  0  0  0  0  0
   59.5602   35.6974   46.8585 H   0  0  0  0  0  0  0  0  0  0  0  0
   60.6981   35.4051   49.0629 H   0  0  0  0  0  0  0  0  0  0  0  0
   60.1606   33.4942   50.5262 H   0  0  0  0  0  0  0  0  0  0  0  0
   59.1670   31.0640   50.3760 H   0  0  0  0  0  0  0  0  0  0  0  0
   57.3366   32.0804   47.6571 H   0  0  0  0  0  0  0  0  0  0  0  0
   57.0430   31.5330   46.4630 H   0  0  0  0  0  0  0  0  0  0  0  0
   58.1400   29.9369   47.4967 H   0  0  0  0  0  0  0  0  0  0  0  0
   61.1550   29.7090   46.7800 H   0  0  0  0  0  0  0  0  0  0  0  0
   63.2997   30.8148   49.1139 H   0  0  0  0  0  0  0  0  0  0  0  0
   64.6370   32.9217   49.1326 H   0  0  0  0  0  0  0  0  0  0  0  0
   63.9563   34.7671   47.5935 H   0  0  0  0  0  0  0  0  0  0  0  0
   62.0284   34.5257   46.1137 H   0  0  0  0  0  0  0  0  0  0  0  0
   60.7026   32.4161   46.1029 H   0  0  0  0  0  0  0  0  0  0  0  0
  1  2  2  0
  2  3  1  0
  3  4  1  0
  4  5  2  0
  5  6  1  0
  6  7  2  0
  7  8  1  0
  8  9  1  0
  9 10  2  0
 10 11  1  0
 11 12  1  0
 12 13  2  0
 13 14  1  0
 14 15  2  0
 15 16  1  0
 16 17  2  0
 17 18  1  0
 18 19  2  0
 19 20  1  0
 20 21  1  0
 20 22  2  0
 14 23  1  0
  8 24  2  0
  2 25  1  0
 25 26  1  0
 26 27  2  0
 27 28  1  0
 28 29  2  0
 29 30  1  0
 30 31  2  0
 24  4  1  0
 31 26  1  0
 23 10  1  0
 22 16  1  0
  3 32  1  0
  3 33  1  0
  5 34  1  0
  6 35  1  0
  7 36  1  0
 11 37  1  0
 12 38  1  0
 13 39  1  0
 17 40  1  0
 18 41  1  0
 19 42  1  0
 21 43  1  0
 22 44  1  0
 23 45  1  0
 24 46  1  0
 25 47  1  0
 27 48  1  0
 28 49  1  0
 29 50  1  0
 30 51  1  0
 31 52  1  0
M  END
>  <smiles>  (60) 
O=C(Cc1cccc(N=c2[nH]ccc(=Nc3cccc(O)c3)[nH]2)c1)Nc1ccccc1

>  <score_type>  (60) 
oracle

>  <origin>  (60) 
adg

>  <m_score__min__energy>  (60) 
-10.960000000000001

>  <m_primary>  (60) 
energy

$$$$
60:0
     RDKit          3D

 39 41  0  0  0  0  0  0  0  0999 V2000
   57.9220   32.3770   41.5600 C   0  0  0  0  0  0  0  0  0  0  0  0
   57.4730   32.7060   42.8710 O   0  0  0  0  0  0  0  0  0  0  0  0
   57.7960   31.9780   44.0260 C   0  0  0  0  0  0  0  0  0  0  0  0
   57.5940   30.5790   44.1070 C   0  0  0  0  0  0  0  0  0  0  0  0
   57.9330   29.9280   45.2910 C   0  0  0  0  0  0  0  0  0  0  0  0
   57.8380   28.5980   45.6620 C   0  0  0  0  0  0  0  0  0  0  0  0
   57.2600   27.4580   44.8760 C   0  0  0  0  0  0  0  0  0  0  0  0
   57.1860   26.2130   45.7280 C   0  0  0  0  0  0  0  0  0  0  0  0
   55.9630   25.7750   46.2680 C   0  0  0  0  0  0  0  0  0  0  0  0
   54.7830   26.4610   45.9960 O   0  0  0  0  0  0  0  0  0  0  0  0
   55.9280   24.6720   47.0610 N   0  0  0  0  0  0  0  0  0  0  0  0
   57.0570   23.9790   47.3540 C   0  0  0  0  0  0  0  0  0  0  0  0
   56.9970   22.9610   48.0910 O   0  0  0  0  0  0  0  0  0  0  0  0
   58.2510   24.3850   46.8550 N   0  0  0  0  0  0  0  0  0  0  0  0
   58.3440   25.4810   46.0560 C   0  0  0  0  0  0  0  0  0  0  0  0
   59.4730   25.8290   45.6190 O   0  0  0  0  0  0  0  0  0  0  0  0
   58.3160   28.5330   46.9670 C   0  0  0  0  0  0  0  0  0  0  0  0
   58.7020   29.7620   47.3840 N   0  0  0  0  0  0  0  0  0  0  0  0
   59.2300   30.1010   48.7010 C   0  0  0  0  0  0  0  0  0  0  0  0
   58.4610   30.6050   46.3590 C   0  0  0  0  0  0  0  0  0  0  0  0
   58.6750   31.9830   46.3170 C   0  0  0  0  0  0  0  0  0  0  0  0
   58.3370   32.6800   45.1320 C   0  0  0  0  0  0  0  0  0  0  0  0
   58.5210   34.0660   45.0110 O   0  0  0  0  0  0  0  0  0  0  0  0
   59.4390   34.8280   45.7890 C   0  0  0  0  0  0  0  0  0  0  0  0
   58.8076   31.7281   41.6278 H   0  0  0  0  0  0  0  0  0  0  0  0
   57.1217   31.8499   41.0198 H   0  0  0  0  0  0  0  0  0  0  0  0
   58.1834   33.2989   41.0198 H   0  0  0  0  0  0  0  0  0  0  0  0
   57.1793   30.0196   43.2555 H   0  0  0  0  0  0  0  0  0  0  0  0
   56.2480   27.7268   44.5389 H   0  0  0  0  0  0  0  0  0  0  0  0
   57.9074   27.2585   44.0094 H   0  0  0  0  0  0  0  0  0  0  0  0
   54.1500   26.7250   46.7410 H   0  0  0  0  0  0  0  0  0  0  0  0
   58.3722   27.6162   47.5722 H   0  0  0  0  0  0  0  0  0  0  0  0
   58.5749   29.6804   49.4781 H   0  0  0  0  0  0  0  0  0  0  0  0
   60.2419   29.6833   48.8090 H   0  0  0  0  0  0  0  0  0  0  0  0
   59.2714   31.1949   48.8090 H   0  0  0  0  0  0  0  0  0  0  0  0
   59.0959   32.5147   47.1831 H   0  0  0  0  0  0  0  0  0  0  0  0
   59.2394   34.6623   46.8580 H   0  0  0  0  0  0  0  0  0  0  0  0
   60.4669   34.5140   45.5549 H   0  0  0  0  0  0  0  0  0  0  0  0
   59.3196   35.8962   45.5549 H   0  0  0  0  0  0  0  0  0  0  0  0
  1  2  1  0
  2  3  1  0
  3  4  2  0
  4  5  1  0
  5  6  1  0
  6  7  1  0
  7  8  1  0
  8  9  2  0
  9 10  1  0
  9 11  1  0
 11 12  1  0
 12 13  2  0
 12 14  1  0
 14 15  1  0
 15 16  2  0
  6 17  2  0
 17 18  1  0
 18 19  1  0
 18 20  1  0
 20 21  1  0
 21 22  2  0
 22 23  1  0
 23 24  1  0
 22  3  1  0
 20  5  2  0
 15  8  1  0
  1 25  1  0
  1 26  1  0
  1 27  1  0
  4 28  1  0
  7 29  1  0
  7 30  1  0
 10 31  1  0
 17 32  1  0
 19 33  1  0
 19 34  1  0
 19 35  1  0
 21 36  1  0
 24 37  1  0
 24 38  1  0
 24 39  1  0
M  CHG  2  11  -1  14  -1
M  END
>  <UniqueID>  (61) 
55

>  <SMILES>  (61) 
COc1cc2c(Cc3c(O)[n-]c(=O)[n-]c3=O)cn(C)c2cc1OC

>  <Energy>  (61) 
73.15081791253199

>  <Genealogy>  (61) 
COc1cc2c(Cc3c(O)[n-]c(=O)[n-]c3=O)cn(C)c2cc1OC (protonated)
COc1cc2c(Cc3c(O)[n-]c(=O)[n-]c3=O)cn(C)c2cc1OC (3D coordinates assigned)
COc1cc2c(Cc3c(O)[n-]c(=O)[n-]c3=O)cn(C)c2cc1OC (optimized conformer: 73.15081791253199 kcal/mol)

>  <smiles>  (61) 
COc1cc2c(Cc3c(O)[nH]c(=O)[nH]c3=O)cn(C)c2cc1OC

>  <score_type>  (61) 
oracle

>  <origin>  (61) 
adg

>  <m_score__min__energy>  (61) 
-11.460000000000001

>  <m_primary>  (61) 
energy

$$$$
61:0
     RDKit          3D

 48 50  0  0  0  0  0  0  0  0999 V2000
   54.7810   29.7000   43.8250 O   0  0  0  0  0  0  0  0  0  0  0  0
   55.8680   29.9600   44.4050 C   0  0  0  0  0  0  0  0  0  0  0  0
   56.7040   28.8930   44.8700 N   0  0  0  0  0  0  0  0  0  0  0  0
   57.7550   28.2650   44.0680 C   0  0  0  0  0  0  0  0  0  0  0  0
   58.6350   27.3760   44.9260 C   0  0  0  0  0  0  0  0  0  0  0  0
   59.8680   27.8970   45.3590 C   0  0  0  0  0  0  0  0  0  0  0  0
   60.7690   27.1100   46.0760 C   0  0  0  0  0  0  0  0  0  0  0  0
   60.4570   25.7890   46.3740 C   0  0  0  0  0  0  0  0  0  0  0  0
   59.2280   25.2530   45.9860 C   0  0  0  0  0  0  0  0  0  0  0  0
   58.9560   23.9630   46.3080 F   0  0  0  0  0  0  0  0  0  0  0  0
   58.2880   26.0390   45.2820 C   0  0  0  0  0  0  0  0  0  0  0  0
   56.9400   25.4240   44.9570 C   0  0  0  0  0  0  0  0  0  0  0  0
   55.9680   25.5090   46.1310 C   0  0  0  0  0  0  0  0  0  0  0  0
   55.1820   26.6380   45.9940 F   0  0  0  0  0  0  0  0  0  0  0  0
   56.6570   25.5860   47.3290 F   0  0  0  0  0  0  0  0  0  0  0  0
   56.2720   31.3310   44.5090 N   0  0  0  0  0  0  0  0  0  0  0  0
   57.3650   31.8980   45.2460 C   0  0  0  0  0  0  0  0  0  0  0  0
   57.6390   33.2620   45.0760 C   0  0  0  0  0  0  0  0  0  0  0  0
   58.6790   33.8710   45.7810 C   0  0  0  0  0  0  0  0  0  0  0  0
   59.4550   33.1220   46.6680 C   0  0  0  0  0  0  0  0  0  0  0  0
   59.1860   31.7600   46.8610 C   0  0  0  0  0  0  0  0  0  0  0  0
   60.1800   30.7960   47.9500 S   0  0  0  0  0  0  0  0  0  0  0  0
   59.8290   29.3380   47.8540 O   0  0  0  0  0  0  0  0  0  0  0  0
   61.6220   30.9660   47.5650 O   0  0  0  0  0  0  0  0  0  0  0  0
   59.9580   31.3420   49.5840 N   0  0  0  0  0  0  0  0  0  0  0  0
   58.9860   31.0220   50.3900 C   0  0  0  0  0  0  0  0  0  0  0  0
   57.8960   31.8770   50.6470 C   0  0  0  0  0  0  0  0  0  0  0  0
   56.8940   31.4690   51.5320 C   0  0  0  0  0  0  0  0  0  0  0  0
   56.9700   30.2540   52.1370 N   0  0  0  0  0  0  0  0  0  0  0  0
   58.0060   29.4080   51.9050 C   0  0  0  0  0  0  0  0  0  0  0  0
   59.0290   29.7750   51.0280 C   0  0  0  0  0  0  0  0  0  0  0  0
   58.1280   31.1550   46.1650 C   0  0  0  0  0  0  0  0  0  0  0  0
   57.2899   27.6565   43.2784 H   0  0  0  0  0  0  0  0  0  0  0  0
   58.3795   29.0560   43.6272 H   0  0  0  0  0  0  0  0  0  0  0  0
   60.1255   28.9413   45.1285 H   0  0  0  0  0  0  0  0  0  0  0  0
   61.7281   27.5356   46.4061 H   0  0  0  0  0  0  0  0  0  0  0  0
   61.1808   25.1638   46.9173 H   0  0  0  0  0  0  0  0  0  0  0  0
   56.5055   25.9569   44.0984 H   0  0  0  0  0  0  0  0  0  0  0  0
   57.1010   24.3600   44.7289 H   0  0  0  0  0  0  0  0  0  0  0  0
   55.3414   24.6049   46.1339 H   0  0  0  0  0  0  0  0  0  0  0  0
   57.0293   33.8580   44.3810 H   0  0  0  0  0  0  0  0  0  0  0  0
   58.8872   34.9416   45.6376 H   0  0  0  0  0  0  0  0  0  0  0  0
   60.2791   33.6018   47.2164 H   0  0  0  0  0  0  0  0  0  0  0  0
   57.8340   32.8587   50.1546 H   0  0  0  0  0  0  0  0  0  0  0  0
   56.0417   32.1328   51.7395 H   0  0  0  0  0  0  0  0  0  0  0  0
   58.0398   28.4309   52.4091 H   0  0  0  0  0  0  0  0  0  0  0  0
   59.8662   29.0871   50.8385 H   0  0  0  0  0  0  0  0  0  0  0  0
   57.8942   30.0943   46.3390 H   0  0  0  0  0  0  0  0  0  0  0  0
  1  2  2  0
  2  3  1  0
  3  4  1  0
  4  5  1  0
  5  6  2  0
  6  7  1  0
  7  8  2  0
  8  9  1  0
  9 10  1  0
  9 11  2  0
 11 12  1  0
 12 13  1  0
 13 14  1  0
 13 15  1  0
  2 16  1  0
 16 17  1  0
 17 18  2  0
 18 19  1  0
 19 20  2  0
 20 21  1  0
 21 22  1  0
 22 23  2  0
 22 24  2  0
 22 25  1  0
 25 26  2  3
 26 27  1  0
 27 28  2  0
 28 29  1  0
 29 30  1  0
 30 31  2  0
 21 32  2  0
 11  5  1  0
 32 17  1  0
 31 26  1  0
  4 33  1  0
  4 34  1  0
  6 35  1  0
  7 36  1  0
  8 37  1  0
 12 38  1  0
 12 39  1  0
 13 40  1  0
 18 41  1  0
 19 42  1  0
 20 43  1  0
 27 44  1  0
 28 45  1  0
 30 46  1  0
 31 47  1  0
 32 48  1  0
M  CHG  3   3  -1  16  -1  29  -1
M  END
>  <UniqueID>  (62) 
56

>  <SMILES>  (62) 
O=C([N-]Cc1cccc(F)c1CC(F)F)[N-]c1cccc(S(=O)(=O)N=c2cc[n-]cc2)c1

>  <Energy>  (62) 
58.75562524852134

>  <Genealogy>  (62) 
O=C([N-]Cc1cccc(F)c1CC(F)F)[N-]c1cccc(S(=O)(=O)N=c2cc[n-]cc2)c1 (protonated)
O=C([N-]Cc1cccc(F)c1CC(F)F)[N-]c1cccc(S(=O)(=O)N=c2cc[n-]cc2)c1 (3D coordinates assigned)
O=C([N-]Cc1cccc(F)c1CC(F)F)[N-]c1cccc(S(=O)(=O)N=c2cc[n-]cc2)c1 (optimized conformer: 58.75562524852134 kcal/mol)

>  <smiles>  (62) 
O=C(NCc1cccc(F)c1CC(F)F)Nc1cccc(S(=O)(=O)N=c2cc[nH]cc2)c1

>  <score_type>  (62) 
oracle

>  <origin>  (62) 
adg

>  <m_score__min__energy>  (62) 
-13.15

>  <m_primary>  (62) 
energy

$$$$
62:0
     RDKit          3D

 41 43  0  0  0  0  0  0  0  0999 V2000
   58.4730   32.4430   48.3140 C   0  0  0  0  0  0  0  0  0  0  0  0
   58.2640   31.5660   47.2130 O   0  0  0  0  0  0  0  0  0  0  0  0
   58.2220   31.9710   45.8700 C   0  0  0  0  0  0  0  0  0  0  0  0
   58.4790   33.3010   45.4800 C   0  0  0  0  0  0  0  0  0  0  0  0
   58.4230   33.6640   44.1310 C   0  0  0  0  0  0  0  0  0  0  0  0
   58.1100   32.7100   43.1610 C   0  0  0  0  0  0  0  0  0  0  0  0
   57.8550   31.3900   43.5350 C   0  0  0  0  0  0  0  0  0  0  0  0
   57.9130   31.0140   44.8860 C   0  0  0  0  0  0  0  0  0  0  0  0
   57.6470   29.6480   45.2600 N   0  0  0  0  0  0  0  0  0  0  0  0
   58.6300   28.8620   45.8110 C   0  0  0  0  0  0  0  0  0  0  0  0
   60.1620   29.4190   46.0420 S   0  0  0  0  0  0  0  0  0  0  0  0
   58.3430   27.5460   46.1800 C   0  0  0  0  0  0  0  0  0  0  0  0
   57.0500   27.0510   45.9890 C   0  0  0  0  0  0  0  0  0  0  0  0
   56.7040   25.7010   46.3500 N   0  0  0  0  0  0  0  0  0  0  0  0
   56.5810   24.6290   45.4040 C   0  0  0  0  0  0  0  0  0  0  0  0
   55.3170   24.3440   44.8670 C   0  0  0  0  0  0  0  0  0  0  0  0
   55.1600   23.3220   43.9300 C   0  0  0  0  0  0  0  0  0  0  0  0
   56.2630   22.5670   43.5270 C   0  0  0  0  0  0  0  0  0  0  0  0
   57.5230   22.8220   44.0740 C   0  0  0  0  0  0  0  0  0  0  0  0
   57.6930   23.8340   45.0330 C   0  0  0  0  0  0  0  0  0  0  0  0
   59.0580   24.0540   45.6270 C   0  0  0  0  0  0  0  0  0  0  0  0
   56.1100   27.8520   45.4190 N   0  0  0  0  0  0  0  0  0  0  0  0
   56.3920   29.1340   45.0610 C   0  0  0  0  0  0  0  0  0  0  0  0
   55.4830   29.8440   44.5500 O   0  0  0  0  0  0  0  0  0  0  0  0
   58.3408   31.8884   49.2547 H   0  0  0  0  0  0  0  0  0  0  0  0
   59.4935   32.8510   48.2692 H   0  0  0  0  0  0  0  0  0  0  0  0
   57.7462   33.2675   48.2692 H   0  0  0  0  0  0  0  0  0  0  0  0
   58.7247   34.0568   46.2405 H   0  0  0  0  0  0  0  0  0  0  0  0
   58.6260   34.7033   43.8333 H   0  0  0  0  0  0  0  0  0  0  0  0
   58.0643   32.9992   42.1007 H   0  0  0  0  0  0  0  0  0  0  0  0
   57.6076   30.6413   42.7680 H   0  0  0  0  0  0  0  0  0  0  0  0
   59.1251   26.9068   46.6157 H   0  0  0  0  0  0  0  0  0  0  0  0
   56.4280   25.5100   47.3400 H   0  0  0  0  0  0  0  0  0  0  0  0
   54.4431   24.9304   45.1869 H   0  0  0  0  0  0  0  0  0  0  0  0
   54.1661   23.1110   43.5084 H   0  0  0  0  0  0  0  0  0  0  0  0
   56.1399   21.7707   42.7782 H   0  0  0  0  0  0  0  0  0  0  0  0
   58.3889   22.2254   43.7510 H   0  0  0  0  0  0  0  0  0  0  0  0
   58.9864   24.0425   46.7246 H   0  0  0  0  0  0  0  0  0  0  0  0
   59.7356   23.2535   45.2953 H   0  0  0  0  0  0  0  0  0  0  0  0
   59.4498   25.0269   45.2953 H   0  0  0  0  0  0  0  0  0  0  0  0
   55.1460   27.4800   45.2640 H   0  0  0  0  0  0  0  0  0  0  0  0
  1  2  1  0
  2  3  1  0
  3  4  2  0
  4  5  1  0
  5  6  2  0
  6  7  1  0
  7  8  2  0
  8  9  1  0
  9 10  1  0
 10 11  2  0
 10 12  1  0
 12 13  2  0
 13 14  1  0
 14 15  1  0
 15 16  2  0
 16 17  1  0
 17 18  2  0
 18 19  1  0
 19 20  2  0
 20 21  1  0
 13 22  1  0
 22 23  1  0
 23 24  2  0
  8  3  1  0
 23  9  1  0
 20 15  1  0
  1 25  1  0
  1 26  1  0
  1 27  1  0
  4 28  1  0
  5 29  1  0
  6 30  1  0
  7 31  1  0
 12 32  1  0
 14 33  1  0
 16 34  1  0
 17 35  1  0
 18 36  1  0
 19 37  1  0
 21 38  1  0
 21 39  1  0
 21 40  1  0
 22 41  1  0
M  END
>  <UniqueID>  (63) 
57

>  <SMILES>  (63) 
COc1ccccc1-n1c(=S)cc(Nc2ccccc2C)[nH]c1=O

>  <Energy>  (63) 
61.79738790722027

>  <Genealogy>  (63) 
COc1ccccc1-n1c(=S)cc(Nc2ccccc2C)[nH]c1=O (3D coordinates assigned)
COc1ccccc1-n1c(=S)cc(Nc2ccccc2C)[nH]c1=O (optimized conformer: 61.79738790722027 kcal/mol)

>  <smiles>  (63) 
COc1ccccc1-n1c(=S)cc(Nc2ccccc2C)[nH]c1=O

>  <score_type>  (63) 
oracle

>  <origin>  (63) 
adg

>  <m_score__min__energy>  (63) 
-7.6200000000000001

>  <m_primary>  (63) 
energy

$$$$
63:0
     RDKit          3D

 30 31  0  0  0  0  0  0  0  0999 V2000
   60.3750   34.9490   46.5500 C   0  0  0  0  0  0  0  0  0  0  0  0
   59.0230   34.8440   46.1150 O   0  0  0  0  0  0  0  0  0  0  0  0
   58.4420   33.6740   45.6000 C   0  0  0  0  0  0  0  0  0  0  0  0
   57.9770   33.5870   44.2760 C   0  0  0  0  0  0  0  0  0  0  0  0
   57.4050   32.4020   43.8040 C   0  0  0  0  0  0  0  0  0  0  0  0
   57.2860   31.2820   44.6430 C   0  0  0  0  0  0  0  0  0  0  0  0
   56.6810   30.0260   44.1400 C   0  0  0  0  0  0  0  0  0  0  0  0
   56.5840   29.8260   42.8980 O   0  0  0  0  0  0  0  0  0  0  0  0
   56.1590   29.0580   45.0600 N   0  0  0  0  0  0  0  0  0  0  0  0
   56.8480   27.8840   45.5140 C   0  0  0  0  0  0  0  0  0  0  0  0
   58.2460   27.8490   45.4190 C   0  0  0  0  0  0  0  0  0  0  0  0
   58.9570   26.7230   45.8420 C   0  0  0  0  0  0  0  0  0  0  0  0
   58.2740   25.6150   46.3470 C   0  0  0  0  0  0  0  0  0  0  0  0
   56.8770   25.6250   46.4150 C   0  0  0  0  0  0  0  0  0  0  0  0
   56.1590   26.7470   45.9870 C   0  0  0  0  0  0  0  0  0  0  0  0
   54.7700   26.7070   46.0040 O   0  0  0  0  0  0  0  0  0  0  0  0
   57.7530   31.3720   45.9660 C   0  0  0  0  0  0  0  0  0  0  0  0
   58.3270   32.5590   46.4420 C   0  0  0  0  0  0  0  0  0  0  0  0
   58.7880   32.6400   47.7550 O   0  0  0  0  0  0  0  0  0  0  0  0
   60.4073   34.9515   47.6495 H   0  0  0  0  0  0  0  0  0  0  0  0
   60.9506   34.0929   46.1682 H   0  0  0  0  0  0  0  0  0  0  0  0
   60.8115   35.8837   46.1682 H   0  0  0  0  0  0  0  0  0  0  0  0
   58.0638   34.4564   43.6077 H   0  0  0  0  0  0  0  0  0  0  0  0
   57.0449   32.3463   42.7661 H   0  0  0  0  0  0  0  0  0  0  0  0
   58.7873   28.7142   45.0085 H   0  0  0  0  0  0  0  0  0  0  0  0
   60.0550   26.7095   45.7771 H   0  0  0  0  0  0  0  0  0  0  0  0
   58.8348   24.7337   46.6916 H   0  0  0  0  0  0  0  0  0  0  0  0
   56.3410   24.7478   46.8063 H   0  0  0  0  0  0  0  0  0  0  0  0
   57.6671   30.5024   46.6342 H   0  0  0  0  0  0  0  0  0  0  0  0
   59.1820   33.4960   48.1280 H   0  0  0  0  0  0  0  0  0  0  0  0
  1  2  1  0
  2  3  1  0
  3  4  2  0
  4  5  1  0
  5  6  2  0
  6  7  1  0
  7  8  2  0
  7  9  1  0
  9 10  1  0
 10 11  2  0
 11 12  1  0
 12 13  2  0
 13 14  1  0
 14 15  2  0
 15 16  1  0
  6 17  1  0
 17 18  2  0
 18 19  1  0
 18  3  1  0
 15 10  1  0
  1 20  1  0
  1 21  1  0
  1 22  1  0
  4 23  1  0
  5 24  1  0
 11 25  1  0
 12 26  1  0
 13 27  1  0
 14 28  1  0
 17 29  1  0
 19 30  1  0
M  CHG  2   9  -1  16  -1
M  END
>  <UniqueID>  (64) 
58

>  <SMILES>  (64) 
COc1ccc(C(=O)[N-]c2ccccc2[O-])cc1O

>  <Energy>  (64) 
36.51951948916894

>  <Genealogy>  (64) 
COc1ccc(C(=O)[N-]c2ccccc2[O-])cc1O (protonated)
COc1ccc(C(=O)[N-]c2ccccc2[O-])cc1O (3D coordinates assigned)
COc1ccc(C(=O)[N-]c2ccccc2[O-])cc1O (optimized conformer: 36.51951948916894 kcal/mol)

>  <smiles>  (64) 
COc1ccc(C(=O)Nc2ccccc2O)cc1O

>  <score_type>  (64) 
oracle

>  <origin>  (64) 
adg

>  <m_score__min__energy>  (64) 
-11.869999999999999

>  <m_primary>  (64) 
energy

$$$$
64:0
     RDKit          3D

 50 54  0  0  0  0  0  0  0  0999 V2000
   56.0560   24.0380   47.5150 C   0  0  0  0  0  0  0  0  0  0  0  0
   55.5670   25.1170   46.6690 N   0  0  0  0  0  0  0  0  0  0  0  0
   56.3510   25.7710   45.6650 C   0  0  0  0  0  0  0  0  0  0  0  0
   56.9180   25.0670   44.7880 O   0  0  0  0  0  0  0  0  0  0  0  0
   56.4950   27.2020   45.6460 N   0  0  0  0  0  0  0  0  0  0  0  0
   57.3400   27.8910   44.6680 C   0  0  2  0  0  0  0  0  0  0  0  0
   58.8120   27.5060   44.8950 C   0  0  0  0  0  0  0  0  0  0  0  0
   59.3480   28.0830   46.1800 C   0  0  0  0  0  0  0  0  0  0  0  0
   58.8060   27.6770   47.4270 C   0  0  0  0  0  0  0  0  0  0  0  0
   59.2720   28.2450   48.6270 C   0  0  0  0  0  0  0  0  0  0  0  0
   60.2680   29.2120   48.5430 C   0  0  0  0  0  0  0  0  0  0  0  0
   60.7850   29.6110   47.3540 C   0  0  0  0  0  0  0  0  0  0  0  0
   60.3530   29.0750   46.1450 C   0  0  0  0  0  0  0  0  0  0  0  0
   61.7470   30.5790   47.5720 O   0  0  0  0  0  0  0  0  0  0  0  0
   61.8390   30.8020   48.9860 C   0  0  0  0  0  0  0  0  0  0  0  0
   60.8780   29.9100   49.5680 O   0  0  0  0  0  0  0  0  0  0  0  0
   57.1490   29.3800   44.7880 C   0  0  0  0  0  0  0  0  0  0  0  0
   56.0360   30.0870   44.3970 C   0  0  0  0  0  0  0  0  0  0  0  0
   56.2610   31.3970   44.5990 N   0  0  0  0  0  0  0  0  0  0  0  0
   57.5180   31.4460   45.0910 C   0  0  0  0  0  0  0  0  0  0  0  0
   58.1670   32.7090   45.5120 C   0  0  0  0  0  0  0  0  0  0  0  0
   58.3650   33.7010   44.5340 C   0  0  0  0  0  0  0  0  0  0  0  0
   58.9030   34.9420   44.8730 C   0  0  0  0  0  0  0  0  0  0  0  0
   59.2640   35.2160   46.1900 C   0  0  0  0  0  0  0  0  0  0  0  0
   59.1080   34.2420   47.1780 C   0  0  0  0  0  0  0  0  0  0  0  0
   59.4920   34.5170   48.4540 N   0  0  0  0  0  0  0  0  0  0  0  0
   59.3950   33.5990   49.4490 C   0  0  0  0  0  0  0  0  0  0  0  0
   59.7600   33.8990   50.6160 O   0  0  0  0  0  0  0  0  0  0  0  0
   58.9020   32.3230   49.1740 C   0  0  0  0  0  0  0  0  0  0  0  0
   58.4990   32.0050   47.8770 C   0  0  0  0  0  0  0  0  0  0  0  0
   58.5700   32.9690   46.8510 C   0  0  0  0  0  0  0  0  0  0  0  0
   58.0910   30.2300   45.2300 N   0  0  0  0  0  0  0  0  0  0  0  0
   55.9304   24.3152   48.5721 H   0  0  0  0  0  0  0  0  0  0  0  0
   55.4855   23.1210   47.3061 H   0  0  0  0  0  0  0  0  0  0  0  0
   57.1216   23.8625   47.3061 H   0  0  0  0  0  0  0  0  0  0  0  0
   56.1050   27.7590   46.4390 H   0  0  0  0  0  0  0  0  0  0  0  0
   57.0524   27.5864   43.6509 H   0  0  0  0  0  0  0  0  0  0  0  0
   58.8913   26.4096   44.9363 H   0  0  0  0  0  0  0  0  0  0  0  0
   59.4049   27.9134   44.0629 H   0  0  0  0  0  0  0  0  0  0  0  0
   58.0156   26.9125   47.4557 H   0  0  0  0  0  0  0  0  0  0  0  0
   58.8621   27.9345   49.5994 H   0  0  0  0  0  0  0  0  0  0  0  0
   60.7814   29.4137   45.1901 H   0  0  0  0  0  0  0  0  0  0  0  0
   62.8511   30.5694   49.3486 H   0  0  0  0  0  0  0  0  0  0  0  0
   61.6416   31.8510   49.2516 H   0  0  0  0  0  0  0  0  0  0  0  0
   55.1129   29.6519   43.9863 H   0  0  0  0  0  0  0  0  0  0  0  0
   58.0919   33.4949   43.4886 H   0  0  0  0  0  0  0  0  0  0  0  0
   59.0430   35.7084   44.0964 H   0  0  0  0  0  0  0  0  0  0  0  0
   59.6732   36.2027   46.4525 H   0  0  0  0  0  0  0  0  0  0  0  0
   58.8316   31.5724   49.9751 H   0  0  0  0  0  0  0  0  0  0  0  0
   58.1234   30.9956   47.6534 H   0  0  0  0  0  0  0  0  0  0  0  0
  1  2  1  0
  2  3  1  0
  3  4  2  0
  3  5  1  0
  5  6  1  0
  6  7  1  0
  7  8  1  0
  8  9  2  0
  9 10  1  0
 10 11  2  0
 11 12  1  0
 12 13  2  0
 12 14  1  0
 14 15  1  0
 15 16  1  0
  6 17  1  0
 17 18  2  0
 18 19  1  0
 19 20  1  0
 20 21  1  0
 21 22  2  0
 22 23  1  0
 23 24  2  0
 24 25  1  0
 25 26  1  0
 26 27  1  0
 27 28  2  0
 27 29  1  0
 29 30  2  0
 30 31  1  0
 20 32  2  0
 13  8  1  0
 32 17  1  0
 16 11  1  0
 31 21  1  0
 31 25  2  0
  1 33  1  0
  1 34  1  0
  1 35  1  0
  5 36  1  0
  6 37  1  6
  7 38  1  0
  7 39  1  0
  9 40  1  0
 10 41  1  0
 13 42  1  0
 15 43  1  0
 15 44  1  0
 18 45  1  0
 22 46  1  0
 23 47  1  0
 24 48  1  0
 29 49  1  0
 30 50  1  0
M  CHG  3   2  -1  19  -1  26  -1
M  END
>  <UniqueID>  (65) 
59

>  <SMILES>  (65) 
C[N-]C(=O)N[C@H](Cc1ccc2c(c1)OCO2)c1c[n-]c(-c2cccc3[n-]c(=O)ccc23)n1

>  <Energy>  (65) 
113.67370660369889

>  <Genealogy>  (65) 
C[N-]C(=O)NC(Cc1ccc2c(c1)OCO2)c1c[n-]c(-c2cccc3[n-]c(=O)ccc23)n1 (protonated)
C[N-]C(=O)N[C@H](Cc1ccc2c(c1)OCO2)c1c[n-]c(-c2cccc3[n-]c(=O)ccc23)n1 (chirality)
C[N-]C(=O)N[C@H](Cc1ccc2c(c1)OCO2)c1c[n-]c(-c2cccc3[n-]c(=O)ccc23)n1 (3D coordinates assigned)
C[N-]C(=O)N[C@H](Cc1ccc2c(c1)OCO2)c1c[n-]c(-c2cccc3[n-]c(=O)ccc23)n1 (nonaromatic ring conformer: 113.67370660369889 kcal/mol)

>  <smiles>  (65) 
CNC(=O)NC(Cc1ccc2c(c1)OCO2)c1c[nH]c(-c2cccc3[nH]c(=O)ccc23)n1

>  <score_type>  (65) 
oracle

>  <origin>  (65) 
adg

>  <m_score__min__energy>  (65) 
-12.52

>  <m_primary>  (65) 
energy

$$$$
65:0
     RDKit          3D

 50 52  0  0  0  0  0  0  0  0999 V2000
   59.3950   32.4483   47.4990 H   0  0  0  0  0  0  0  0  0  0  0  0
   58.7950   32.5690   46.5850 C   0  0  0  0  0  0  0  0  0  0  0  0
   57.7900   31.7150   46.2550 N   0  0  0  0  0  0  0  0  0  0  0  0
   57.2000   32.0770   45.0950 C   0  0  0  0  0  0  0  0  0  0  0  0
   56.2240   31.4260   44.5340 N   0  0  0  0  0  0  0  0  0  0  0  0
   56.1530   30.0010   44.3600 C   0  0  0  0  0  0  0  0  0  0  0  0
   55.1780   29.3410   44.8110 O   0  0  0  0  0  0  0  0  0  0  0  0
   57.2360   29.2830   43.6090 C   0  0  0  0  0  0  0  0  0  0  0  0
   58.0806   29.9718   43.4598 H   0  0  0  0  0  0  0  0  0  0  0  0
   56.8178   28.9499   42.6477 H   0  0  0  0  0  0  0  0  0  0  0  0
   57.7170   28.0900   44.3330 N   0  0  0  0  0  0  0  0  0  0  0  0
   57.8560   28.0640   45.7760 C   0  0  0  0  0  0  0  0  0  0  0  0
   57.0460   27.3880   46.4710 O   0  0  0  0  0  0  0  0  0  0  0  0
   58.9620   28.7470   46.4730 C   0  0  0  0  0  0  0  0  0  0  0  0
   58.9880   28.8450   47.8710 C   0  0  0  0  0  0  0  0  0  0  0  0
   58.1944   28.3721   48.4682 H   0  0  0  0  0  0  0  0  0  0  0  0
   60.0180   29.5410   48.5090 C   0  0  0  0  0  0  0  0  0  0  0  0
   60.0256   29.6199   49.6061 H   0  0  0  0  0  0  0  0  0  0  0  0
   61.0410   30.1390   47.7620 C   0  0  0  0  0  0  0  0  0  0  0  0
   62.0370   30.8530   48.4490 O   0  0  0  0  0  0  0  0  0  0  0  0
   61.8090   31.7180   49.5610 C   0  0  0  0  0  0  0  0  0  0  0  0
   61.1691   31.2023   50.2922 H   0  0  0  0  0  0  0  0  0  0  0  0
   62.7801   31.9737   50.0101 H   0  0  0  0  0  0  0  0  0  0  0  0
   61.1330   32.9900   49.1270 C   0  0  0  0  0  0  0  0  0  0  0  0
   59.9650   33.5430   49.6210 C   0  0  0  0  0  0  0  0  0  0  0  0
   59.1360   33.0210   50.7470 C   0  0  0  0  0  0  0  0  0  0  0  0
   59.5944   33.3097   51.7043 H   0  0  0  0  0  0  0  0  0  0  0  0
   58.1227   33.4443   50.6833 H   0  0  0  0  0  0  0  0  0  0  0  0
   59.0799   31.9243   50.6833 H   0  0  0  0  0  0  0  0  0  0  0  0
   59.6500   34.6380   48.9030 N   0  0  0  0  0  0  0  0  0  0  0  0
   60.5680   34.7730   47.9890 O   0  0  0  0  0  0  0  0  0  0  0  0
   61.4650   33.8170   48.0710 C   0  0  0  0  0  0  0  0  0  0  0  0
   62.6420   33.6890   47.1630 C   0  0  0  0  0  0  0  0  0  0  0  0
   63.5587   33.5893   47.7628 H   0  0  0  0  0  0  0  0  0  0  0  0
   62.5204   32.7988   46.5284 H   0  0  0  0  0  0  0  0  0  0  0  0
   62.7146   34.5845   46.5284 H   0  0  0  0  0  0  0  0  0  0  0  0
   61.0340   30.0080   46.3610 C   0  0  0  0  0  0  0  0  0  0  0  0
   61.8426   30.4561   45.7649 H   0  0  0  0  0  0  0  0  0  0  0  0
   60.0040   29.3110   45.7240 C   0  0  0  0  0  0  0  0  0  0  0  0
   60.0109   29.2044   44.6292 H   0  0  0  0  0  0  0  0  0  0  0  0
   58.1430   26.9210   43.5490 C   0  0  0  0  0  0  0  0  0  0  0  0
   59.2344   26.9521   43.4154 H   0  0  0  0  0  0  0  0  0  0  0  0
   57.6422   26.9454   42.5699 H   0  0  0  0  0  0  0  0  0  0  0  0
   57.7610   25.6320   44.2690 C   0  0  0  0  0  0  0  0  0  0  0  0
   57.8083   25.7915   45.3563 H   0  0  0  0  0  0  0  0  0  0  0  0
   56.7385   25.3426   43.9850 H   0  0  0  0  0  0  0  0  0  0  0  0
   58.4607   24.8322   43.9850 H   0  0  0  0  0  0  0  0  0  0  0  0
   57.8950   33.4520   44.4320 S   0  0  0  0  0  0  0  0  0  0  0  0
   59.0100   33.6070   45.6830 C   0  0  0  0  0  0  0  0  0  0  0  0
   59.7754   34.3920   45.7723 H   0  0  0  0  0  0  0  0  0  0  0  0
  1  2  1  0
  2  3  1  0
  3  4  1  0
  4  5  2  0
  5  6  1  0
  6  7  2  0
  6  8  1  0
  8  9  1  0
  8 10  1  0
  8 11  1  0
 11 12  1  0
 12 13  2  0
 12 14  1  0
 14 15  2  0
 15 16  1  0
 15 17  1  0
 17 18  1  0
 17 19  2  0
 19 20  1  0
 20 21  1  0
 21 22  1  0
 21 23  1  0
 21 24  1  0
 24 25  1  0
 25 26  1  0
 26 27  1  0
 26 28  1  0
 26 29  1  0
 25 30  2  0
 30 31  1  0
 31 32  1  0
 32 33  1  0
 33 34  1  0
 33 35  1  0
 33 36  1  0
 19 37  1  0
 37 38  1  0
 37 39  2  0
 39 40  1  0
 11 41  1  0
 41 42  1  0
 41 43  1  0
 41 44  1  0
 44 45  1  0
 44 46  1  0
 44 47  1  0
  4 48  1  0
 48 49  1  0
 49 50  1  0
 49  2  2  0
 39 14  1  0
 32 24  2  0
M  CHG  1   3  -1
M  END
>  <UniqueID>  (66) 
60

>  <SMILES>  (66) 
CCN(CC(=O)/N=c1\[n-]ccs1)C(=O)c1ccc(OCc2c(C)noc2C)cc1

>  <Energy>  (66) 
109.10699856943687

>  <Genealogy>  (66) 
CCN(CC(=O)N=c1[n-]ccs1)C(=O)c1ccc(OCc2c(C)noc2C)cc1 (protonated)
CCN(CC(=O)/N=c1\[n-]ccs1)C(=O)c1ccc(OCc2c(C)noc2C)cc1 (cis-trans isomerization)
CCN(CC(=O)/N=c1\[n-]ccs1)C(=O)c1ccc(OCc2c(C)noc2C)cc1 (3D coordinates assigned)
CCN(CC(=O)/N=c1\[n-]ccs1)C(=O)c1ccc(OCc2c(C)noc2C)cc1 (optimized conformer: 109.10699856943687 kcal/mol)

>  <smiles>  (66) 
CCN(CC(=O)N=c1[nH]ccs1)C(=O)c1ccc(OCc2c(C)noc2C)cc1

>  <score_type>  (66) 
oracle

>  <origin>  (66) 
adg

>  <m_score__min__energy>  (66) 
-10.380000000000001

>  <m_primary>  (66) 
energy

$$$$
66:0
     RDKit          3D

 44 46  0  0  0  0  0  0  0  0999 V2000
   58.1850   33.1190   43.4750 O   0  0  0  0  0  0  0  0  0  0  0  0
   57.7880   32.5360   44.5190 C   0  0  0  0  0  0  0  0  0  0  0  0
   57.1860   33.3200   45.5590 N   0  0  0  0  0  0  0  0  0  0  0  0
   57.6820   33.4790   46.9270 C   0  0  0  0  0  0  0  0  0  0  0  0
   58.8870   34.4290   46.9920 C   0  0  0  0  0  0  0  0  0  0  0  0
   60.1830   33.6740   47.1320 C   0  0  0  0  0  0  0  0  0  0  0  0
   60.2260   32.4590   47.8390 C   0  0  0  0  0  0  0  0  0  0  0  0
   61.4360   31.7760   47.9890 C   0  0  0  0  0  0  0  0  0  0  0  0
   62.6100   32.2990   47.4410 C   0  0  0  0  0  0  0  0  0  0  0  0
   62.5770   33.5100   46.7420 C   0  0  0  0  0  0  0  0  0  0  0  0
   61.3690   34.1980   46.5900 C   0  0  0  0  0  0  0  0  0  0  0  0
   57.9230   31.0710   44.6140 C   0  0  0  0  0  0  0  0  0  0  0  0
   56.9090   30.2430   44.1080 C   0  0  0  0  0  0  0  0  0  0  0  0
   57.0070   28.8540   44.2320 C   0  0  0  0  0  0  0  0  0  0  0  0
   58.1130   28.2770   44.8640 C   0  0  0  0  0  0  0  0  0  0  0  0
   58.1660   26.8510   45.0130 N   0  0  0  0  0  0  0  0  0  0  0  0
   57.6060   26.1030   46.1010 C   0  0  0  0  0  0  0  0  0  0  0  0
   58.0470   26.3080   47.2630 O   0  0  0  0  0  0  0  0  0  0  0  0
   56.5750   25.0570   45.8850 C   0  0  0  0  0  0  0  0  0  0  0  0
   56.9600   23.7130   45.7240 C   0  0  0  0  0  0  0  0  0  0  0  0
   55.9990   22.7200   45.5090 C   0  0  0  0  0  0  0  0  0  0  0  0
   54.6450   23.0550   45.4650 C   0  0  0  0  0  0  0  0  0  0  0  0
   53.6910   22.0680   45.2510 O   0  0  0  0  0  0  0  0  0  0  0  0
   54.2480   24.3840   45.6360 C   0  0  0  0  0  0  0  0  0  0  0  0
   55.2040   25.3850   45.8460 C   0  0  0  0  0  0  0  0  0  0  0  0
   54.7820   26.7020   45.9950 O   0  0  0  0  0  0  0  0  0  0  0  0
   59.1590   29.1020   45.3110 C   0  0  0  0  0  0  0  0  0  0  0  0
   59.0640   30.4900   45.1850 C   0  0  0  0  0  0  0  0  0  0  0  0
   56.8742   33.8857   47.5532 H   0  0  0  0  0  0  0  0  0  0  0  0
   58.0057   32.4921   47.2893 H   0  0  0  0  0  0  0  0  0  0  0  0
   58.9202   35.0267   46.0692 H   0  0  0  0  0  0  0  0  0  0  0  0
   58.7684   35.0744   47.8748 H   0  0  0  0  0  0  0  0  0  0  0  0
   59.3048   32.0452   48.2751 H   0  0  0  0  0  0  0  0  0  0  0  0
   61.4642   30.8243   48.5399 H   0  0  0  0  0  0  0  0  0  0  0  0
   63.5605   31.7582   47.5593 H   0  0  0  0  0  0  0  0  0  0  0  0
   63.5018   33.9215   46.3115 H   0  0  0  0  0  0  0  0  0  0  0  0
   61.3471   35.1528   46.0442 H   0  0  0  0  0  0  0  0  0  0  0  0
   56.0341   30.6886   43.6121 H   0  0  0  0  0  0  0  0  0  0  0  0
   56.2097   28.2114   43.8302 H   0  0  0  0  0  0  0  0  0  0  0  0
   58.0251   23.4414   45.7676 H   0  0  0  0  0  0  0  0  0  0  0  0
   56.3107   21.6737   45.3744 H   0  0  0  0  0  0  0  0  0  0  0  0
   53.1798   24.6447   45.6055 H   0  0  0  0  0  0  0  0  0  0  0  0
   60.0563   28.6530   45.7620 H   0  0  0  0  0  0  0  0  0  0  0  0
   59.8876   31.1296   45.5352 H   0  0  0  0  0  0  0  0  0  0  0  0
  1  2  2  0
  2  3  1  0
  3  4  1  0
  4  5  1  0
  5  6  1  0
  6  7  2  0
  7  8  1  0
  8  9  2  0
  9 10  1  0
 10 11  2  0
  2 12  1  0
 12 13  2  0
 13 14  1  0
 14 15  2  0
 15 16  1  0
 16 17  1  0
 17 18  2  0
 17 19  1  0
 19 20  2  0
 20 21  1  0
 21 22  2  0
 22 23  1  0
 22 24  1  0
 24 25  2  0
 25 26  1  0
 15 27  1  0
 27 28  2  0
 11  6  1  0
 28 12  1  0
 25 19  1  0
  4 29  1  0
  4 30  1  0
  5 31  1  0
  5 32  1  0
  7 33  1  0
  8 34  1  0
  9 35  1  0
 10 36  1  0
 11 37  1  0
 13 38  1  0
 14 39  1  0
 20 40  1  0
 21 41  1  0
 24 42  1  0
 27 43  1  0
 28 44  1  0
M  CHG  4   3  -1  16  -1  23  -1  26  -1
M  END
>  <UniqueID>  (67) 
61

>  <SMILES>  (67) 
O=C([N-]CCc1ccccc1)c1ccc([N-]C(=O)c2ccc([O-])cc2[O-])cc1

>  <Energy>  (67) 
55.450645758621945

>  <Genealogy>  (67) 
O=C([N-]CCc1ccccc1)c1ccc([N-]C(=O)c2ccc([O-])cc2[O-])cc1 (protonated)
O=C([N-]CCc1ccccc1)c1ccc([N-]C(=O)c2ccc([O-])cc2[O-])cc1 (3D coordinates assigned)
O=C([N-]CCc1ccccc1)c1ccc([N-]C(=O)c2ccc([O-])cc2[O-])cc1 (optimized conformer: 55.450645758621945 kcal/mol)

>  <smiles>  (67) 
O=C(NCCc1ccccc1)c1ccc(NC(=O)c2ccc(O)cc2O)cc1

>  <score_type>  (67) 
oracle

>  <origin>  (67) 
adg

>  <m_score__min__energy>  (67) 
-16.219999999999999

>  <m_primary>  (67) 
energy

$$$$
67:0
     RDKit          3D

 33 34  0  0  1  0  0  0  0  0999 V2000
   60.2050   29.3470   45.7910 C   0  0  0  0  0  0  0  0  0  0  0  0
   60.9660   29.8200   46.8930 O   0  0  0  0  0  0  0  0  0  0  0  0
   61.2140   31.1520   47.1040 C   0  0  0  0  0  0  0  0  0  0  0  0
   62.5190   31.5650   47.2880 C   0  0  0  0  0  0  0  0  0  0  0  0
   62.7900   32.8960   47.5000 C   0  0  0  0  0  0  0  0  0  0  0  0
   61.7360   33.8020   47.5260 C   0  0  0  0  0  0  0  0  0  0  0  0
   60.4240   33.3710   47.3380 C   0  0  0  0  0  0  0  0  0  0  0  0
   59.2960   34.3380   47.3640 C   0  0  0  0  0  0  0  0  0  0  0  0
   58.7820   34.5830   45.9890 C   0  0  0  0  0  0  0  0  0  0  0  0
   59.3790   35.3950   45.2350 O   0  0  0  0  0  0  0  0  0  0  0  0
   57.6400   33.9280   45.5110 N   0  0  0  0  0  0  0  0  0  0  0  0
   57.5930   32.8250   44.8780 C   0  0  0  0  0  0  0  0  0  0  0  0
   56.6190   31.9120   44.9820 N   0  0  0  0  0  0  0  0  0  0  0  0
   56.9790   30.9230   44.1430 C   0  0  0  0  0  0  0  0  0  0  0  0
   56.1880   29.7160   43.9480 C   0  0  0  0  0  0  0  0  0  0  0  0
   56.3140   29.0020   42.7380 N   0  0  0  0  0  0  0  0  0  0  0  0
   55.4130   29.3350   44.8540 O   0  0  0  0  0  0  0  0  0  0  0  0
   58.1490   31.2390   43.5470 N   0  0  0  0  0  0  0  0  0  0  0  0
   58.5350   32.4250   44.0030 N   0  0  0  0  0  0  0  0  0  0  0  0
   60.1520   32.0190   47.1230 C   0  0  0  0  0  0  0  0  0  0  0  0
   59.3251   28.8001   46.1608 H   0  0  0  0  0  0  0  0  0  0  0  0
   59.8761   30.2001   45.1794 H   0  0  0  0  0  0  0  0  0  0  0  0
   60.8244   28.6745   45.1794 H   0  0  0  0  0  0  0  0  0  0  0  0
   63.3385   30.8316   47.2650 H   0  0  0  0  0  0  0  0  0  0  0  0
   63.8249   33.2388   47.6468 H   0  0  0  0  0  0  0  0  0  0  0  0
   61.9395   34.8695   47.6966 H   0  0  0  0  0  0  0  0  0  0  0  0
   58.4851   33.9304   47.9854 H   0  0  0  0  0  0  0  0  0  0  0  0
   59.6554   35.2898   47.7822 H   0  0  0  0  0  0  0  0  0  0  0  0
   55.8210   29.2650   41.8540 H   0  0  0  0  0  0  0  0  0  0  0  0
   56.9280   28.1440   42.6550 H   0  0  0  0  0  0  0  0  0  0  0  0
   58.6230   30.6230   42.8570 H   0  0  0  0  0  0  0  0  0  0  0  0
   59.4050   32.9420   43.7290 H   0  0  0  0  0  0  0  0  0  0  0  0
   59.1223   31.6618   46.9741 H   0  0  0  0  0  0  0  0  0  0  0  0
  1  2  1  0
  2  3  1  0
  3  4  2  0
  4  5  1  0
  5  6  2  0
  6  7  1  0
  7  8  1  0
  8  9  1  0
  9 10  2  0
  9 11  1  0
 11 12  2  0
 12 13  1  0
 13 14  2  0
 14 15  1  0
 15 16  1  0
 15 17  2  0
 14 18  1  0
 18 19  1  0
  7 20  2  0
 20  3  1  0
 19 12  1  0
  1 21  1  0
  1 22  1  0
  1 23  1  0
  4 24  1  0
  5 25  1  0
  6 26  1  0
  8 27  1  0
  8 28  1  0
 16 29  1  0
 16 30  1  0
 18 31  1  0
 19 32  1  0
 20 33  1  0
M  END
>  <smiles>  (68) 
COc1cccc(CC(=O)N=c2nc(C(N)=O)[nH][nH]2)c1

>  <score_type>  (68) 
oracle

>  <origin>  (68) 
adg

>  <m_score__min__energy>  (68) 
-7.5300000000000002

>  <m_primary>  (68) 
energy

$$$$
68:0
     RDKit          3D

 41 43  0  0  0  0  0  0  0  0999 V2000
   58.1750   30.2870   50.8610 C   0  0  0  0  0  0  0  0  0  0  0  0
   58.4650   29.8850   49.5270 O   0  0  0  0  0  0  0  0  0  0  0  0
   59.5940   30.2890   48.7970 C   0  0  0  0  0  0  0  0  0  0  0  0
   60.4800   31.2700   49.2880 C   0  0  0  0  0  0  0  0  0  0  0  0
   61.5860   31.6650   48.5340 C   0  0  0  0  0  0  0  0  0  0  0  0
   61.8200   31.0950   47.2830 C   0  0  0  0  0  0  0  0  0  0  0  0
   60.9540   30.1210   46.7850 C   0  0  0  0  0  0  0  0  0  0  0  0
   59.8450   29.6980   47.5380 C   0  0  0  0  0  0  0  0  0  0  0  0
   58.9250   28.6310   46.9860 C   0  0  0  0  0  0  0  0  0  0  0  0
   58.0040   29.1890   45.9160 C   0  0  0  0  0  0  0  0  0  0  0  0
   58.2590   30.4840   45.4280 C   0  0  0  0  0  0  0  0  0  0  0  0
   57.3800   31.1060   44.5330 C   0  0  0  0  0  0  0  0  0  0  0  0
   57.6860   32.4810   44.0060 C   0  0  0  0  0  0  0  0  0  0  0  0
   58.2840   33.2940   45.0600 N   0  0  0  0  0  0  0  0  0  0  0  0
   57.7620   33.5140   46.2800 C   0  0  0  0  0  0  0  0  0  0  0  0
   58.5890   34.3880   46.9510 C   0  0  0  0  0  0  0  0  0  0  0  0
   59.6050   34.6680   46.0570 C   0  0  0  0  0  0  0  0  0  0  0  0
   59.3940   33.9960   44.9080 N   0  0  0  0  0  0  0  0  0  0  0  0
   56.2460   30.4180   44.0920 C   0  0  0  0  0  0  0  0  0  0  0  0
   55.9820   29.1290   44.5530 C   0  0  0  0  0  0  0  0  0  0  0  0
   56.8550   28.4920   45.4530 C   0  0  0  0  0  0  0  0  0  0  0  0
   56.5330   27.1090   45.8670 C   0  0  0  0  0  0  0  0  0  0  0  0
   57.4580   26.3090   46.1700 O   0  0  0  0  0  0  0  0  0  0  0  0
   55.2140   26.6950   45.9960 O   0  0  0  0  0  0  0  0  0  0  0  0
   58.6690   29.6022   51.5659 H   0  0  0  0  0  0  0  0  0  0  0  0
   58.5443   31.3102   51.0241 H   0  0  0  0  0  0  0  0  0  0  0  0
   57.0875   30.2593   51.0241 H   0  0  0  0  0  0  0  0  0  0  0  0
   60.2982   31.7270   50.2719 H   0  0  0  0  0  0  0  0  0  0  0  0
   62.2745   32.4274   48.9273 H   0  0  0  0  0  0  0  0  0  0  0  0
   62.6886   31.4137   46.6880 H   0  0  0  0  0  0  0  0  0  0  0  0
   61.1407   29.6803   45.7946 H   0  0  0  0  0  0  0  0  0  0  0  0
   59.5336   27.8255   46.5491 H   0  0  0  0  0  0  0  0  0  0  0  0
   58.3047   28.2501   47.8107 H   0  0  0  0  0  0  0  0  0  0  0  0
   59.1641   31.0166   45.7552 H   0  0  0  0  0  0  0  0  0  0  0  0
   58.3889   32.4009   43.1637 H   0  0  0  0  0  0  0  0  0  0  0  0
   56.7532   32.9554   43.6673 H   0  0  0  0  0  0  0  0  0  0  0  0
   56.8348   33.0723   46.6740 H   0  0  0  0  0  0  0  0  0  0  0  0
   58.4675   34.7770   47.9727 H   0  0  0  0  0  0  0  0  0  0  0  0
   60.4558   35.3370   46.2532 H   0  0  0  0  0  0  0  0  0  0  0  0
   55.5589   30.8957   43.3781 H   0  0  0  0  0  0  0  0  0  0  0  0
   55.0792   28.6034   44.2083 H   0  0  0  0  0  0  0  0  0  0  0  0
  1  2  1  0
  2  3  1  0
  3  4  2  0
  4  5  1  0
  5  6  2  0
  6  7  1  0
  7  8  2  0
  8  9  1  0
  9 10  1  0
 10 11  2  0
 11 12  1  0
 12 13  1  0
 13 14  1  0
 14 15  1  0
 15 16  2  0
 16 17  1  0
 17 18  2  0
 12 19  2  0
 19 20  1  0
 20 21  2  0
 21 22  1  0
 22 23  2  0
 22 24  1  0
  8  3  1  0
 21 10  1  0
 18 14  1  0
  1 25  1  0
  1 26  1  0
  1 27  1  0
  4 28  1  0
  5 29  1  0
  6 30  1  0
  7 31  1  0
  9 32  1  0
  9 33  1  0
 11 34  1  0
 13 35  1  0
 13 36  1  0
 15 37  1  0
 16 38  1  0
 17 39  1  0
 19 40  1  0
 20 41  1  0
M  CHG  1  24  -1
M  END
>  <UniqueID>  (69) 
62

>  <SMILES>  (69) 
COc1ccccc1Cc1cc(Cn2cccn2)ccc1C(=O)[O-]

>  <Energy>  (69) 
76.31664938456572

>  <Genealogy>  (69) 
COc1ccccc1Cc1cc(Cn2cccn2)ccc1C(=O)[O-] (protonated)
COc1ccccc1Cc1cc(Cn2cccn2)ccc1C(=O)[O-] (3D coordinates assigned)
COc1ccccc1Cc1cc(Cn2cccn2)ccc1C(=O)[O-] (optimized conformer: 76.31664938456572 kcal/mol)

>  <smiles>  (69) 
COc1ccccc1Cc1cc(Cn2cccn2)ccc1C(=O)O

>  <score_type>  (69) 
oracle

>  <origin>  (69) 
adg

>  <m_score__min__energy>  (69) 
-9.4499999999999993

>  <m_primary>  (69) 
energy

$$$$
69:0
     RDKit          3D

 53 55  0  0  0  0  0  0  0  0999 V2000
   57.0390   31.0640   44.8700 O   0  0  0  0  0  0  0  0  0  0  0  0
   58.1680   30.5170   45.0020 C   0  0  0  0  0  0  0  0  0  0  0  0
   58.3670   29.1730   44.5600 N   0  0  0  0  0  0  0  0  0  0  0  0
   59.5050   28.1060   45.3110 S   0  0  0  0  0  0  0  0  0  0  0  0
   60.8690   28.3490   44.7310 O   0  0  0  0  0  0  0  0  0  0  0  0
   59.1130   26.6810   45.0330 O   0  0  0  0  0  0  0  0  0  0  0  0
   59.5500   28.4140   47.0440 C   0  0  0  0  0  0  0  0  0  0  0  0
   60.5910   27.9060   47.8320 C   0  0  0  0  0  0  0  0  0  0  0  0
   60.6110   28.1450   49.2100 C   0  0  0  0  0  0  0  0  0  0  0  0
   59.5830   28.8840   49.8160 C   0  0  0  0  0  0  0  0  0  0  0  0
   59.6250   29.1740   51.2920 C   0  0  0  0  0  0  0  0  0  0  0  0
   58.7200   30.3600   51.6330 C   0  0  0  0  0  0  0  0  0  0  0  0
   57.3150   29.9630   51.5280 N   0  0  0  0  0  0  0  0  0  0  0  0
   56.3310   31.0360   52.4760 S   0  0  0  0  0  0  0  0  0  0  0  0
   56.5350   32.4470   52.0020 O   0  0  0  0  0  0  0  0  0  0  0  0
   56.7380   30.9490   53.9220 O   0  0  0  0  0  0  0  0  0  0  0  0
   54.6320   30.6120   52.2880 C   0  0  0  0  0  0  0  0  0  0  0  0
   54.1840   29.3110   52.5600 C   0  0  0  0  0  0  0  0  0  0  0  0
   52.8380   28.9850   52.3870 C   0  0  0  0  0  0  0  0  0  0  0  0
   51.9310   29.9500   51.9400 C   0  0  0  0  0  0  0  0  0  0  0  0
   52.3650   31.2580   51.6610 C   0  0  0  0  0  0  0  0  0  0  0  0
   51.4050   32.2780   51.1850 C   0  0  0  0  0  0  0  0  0  0  0  0
   50.8960   33.1040   51.9880 O   0  0  0  0  0  0  0  0  0  0  0  0
   51.0490   32.3370   49.8420 O   0  0  0  0  0  0  0  0  0  0  0  0
   53.7240   31.5780   51.8380 C   0  0  0  0  0  0  0  0  0  0  0  0
   58.5460   29.3990   49.0220 C   0  0  0  0  0  0  0  0  0  0  0  0
   58.5270   29.1580   47.6450 C   0  0  0  0  0  0  0  0  0  0  0  0
   59.2490   31.2150   45.6340 N   0  0  0  0  0  0  0  0  0  0  0  0
   59.2300   32.6170   45.9540 C   0  0  0  0  0  0  0  0  0  0  0  0
   59.4370   33.0220   47.2830 C   0  0  0  0  0  0  0  0  0  0  0  0
   59.4450   34.3790   47.6160 C   0  0  0  0  0  0  0  0  0  0  0  0
   59.2650   35.3460   46.6230 C   0  0  0  0  0  0  0  0  0  0  0  0
   59.0820   34.9550   45.2940 C   0  0  0  0  0  0  0  0  0  0  0  0
   59.0710   33.5970   44.9560 C   0  0  0  0  0  0  0  0  0  0  0  0
   61.3949   27.3175   47.3657 H   0  0  0  0  0  0  0  0  0  0  0  0
   61.4364   27.7519   49.8218 H   0  0  0  0  0  0  0  0  0  0  0  0
   59.2823   28.2869   51.8448 H   0  0  0  0  0  0  0  0  0  0  0  0
   60.6583   29.4229   51.5756 H   0  0  0  0  0  0  0  0  0  0  0  0
   58.9285   30.6940   52.6601 H   0  0  0  0  0  0  0  0  0  0  0  0
   58.9176   31.1801   50.9271 H   0  0  0  0  0  0  0  0  0  0  0  0
   57.0160   30.0810   50.5320 H   0  0  0  0  0  0  0  0  0  0  0  0
   54.8940   28.5471   52.9099 H   0  0  0  0  0  0  0  0  0  0  0  0
   52.4895   27.9643   52.6033 H   0  0  0  0  0  0  0  0  0  0  0  0
   50.8719   29.6847   51.8058 H   0  0  0  0  0  0  0  0  0  0  0  0
   54.0763   32.5971   51.6206 H   0  0  0  0  0  0  0  0  0  0  0  0
   57.7454   29.9944   49.4851 H   0  0  0  0  0  0  0  0  0  0  0  0
   57.7050   29.5545   47.0310 H   0  0  0  0  0  0  0  0  0  0  0  0
   60.0630   30.6450   45.9580 H   0  0  0  0  0  0  0  0  0  0  0  0
   59.5938   32.2661   48.0666 H   0  0  0  0  0  0  0  0  0  0  0  0
   59.5932   34.6868   48.6616 H   0  0  0  0  0  0  0  0  0  0  0  0
   59.2674   36.4137   46.8874 H   0  0  0  0  0  0  0  0  0  0  0  0
   58.9463   35.7163   44.5117 H   0  0  0  0  0  0  0  0  0  0  0  0
   58.9377   33.2943   43.9069 H   0  0  0  0  0  0  0  0  0  0  0  0
  1  2  2  0
  2  3  1  0
  3  4  1  0
  4  5  2  0
  4  6  2  0
  4  7  1  0
  7  8  2  0
  8  9  1  0
  9 10  2  0
 10 11  1  0
 11 12  1  0
 12 13  1  0
 13 14  1  0
 14 15  2  0
 14 16  2  0
 14 17  1  0
 17 18  2  0
 18 19  1  0
 19 20  2  0
 20 21  1  0
 21 22  1  0
 22 23  2  0
 22 24  1  0
 21 25  2  0
 10 26  1  0
 26 27  2  0
  2 28  1  0
 28 29  1  0
 29 30  2  0
 30 31  1  0
 31 32  2  0
 32 33  1  0
 33 34  2  0
 27  7  1  0
 34 29  1  0
 25 17  1  0
  8 35  1  0
  9 36  1  0
 11 37  1  0
 11 38  1  0
 12 39  1  0
 12 40  1  0
 13 41  1  0
 18 42  1  0
 19 43  1  0
 20 44  1  0
 25 45  1  0
 26 46  1  0
 27 47  1  0
 28 48  1  0
 30 49  1  0
 31 50  1  0
 32 51  1  0
 33 52  1  0
 34 53  1  0
M  CHG  2   3  -1  24  -1
M  END
>  <UniqueID>  (70) 
63

>  <SMILES>  (70) 
O=C([N-]S(=O)(=O)c1ccc(CCNS(=O)(=O)c2cccc(C(=O)[O-])c2)cc1)Nc1ccccc1

>  <Energy>  (70) 
55.85335879404683

>  <Genealogy>  (70) 
O=C([N-]S(=O)(=O)c1ccc(CCNS(=O)(=O)c2cccc(C(=O)[O-])c2)cc1)Nc1ccccc1 (protonated)
O=C([N-]S(=O)(=O)c1ccc(CCNS(=O)(=O)c2cccc(C(=O)[O-])c2)cc1)Nc1ccccc1 (3D coordinates assigned)
O=C([N-]S(=O)(=O)c1ccc(CCNS(=O)(=O)c2cccc(C(=O)[O-])c2)cc1)Nc1ccccc1 (optimized conformer: 55.85335879404683 kcal/mol)

>  <smiles>  (70) 
O=C(Nc1ccccc1)NS(=O)(=O)c1ccc(CCNS(=O)(=O)c2cccc(C(=O)O)c2)cc1

>  <score_type>  (70) 
oracle

>  <origin>  (70) 
adg

>  <m_score__min__energy>  (70) 
-16.359999999999999

>  <m_primary>  (70) 
energy

$$$$
70:0
     RDKit          3D

 45 47  0  0  0  0  0  0  0  0999 V2000
   59.3570   27.2780   47.5910 O   0  0  0  0  0  0  0  0  0  0  0  0
   58.5250   26.9020   46.7150 C   0  0  0  0  0  0  0  0  0  0  0  0
   58.8540   27.0920   45.2620 C   0  0  0  0  0  0  0  0  0  0  0  0
   57.7420   27.8500   44.5200 C   0  0  0  0  0  0  0  0  0  0  0  0
   57.8590   29.3450   44.7000 C   0  0  0  0  0  0  0  0  0  0  0  0
   58.8440   29.8820   45.5500 C   0  0  0  0  0  0  0  0  0  0  0  0
   58.9100   31.2580   45.7760 C   0  0  0  0  0  0  0  0  0  0  0  0
   57.9960   32.1230   45.1500 C   0  0  0  0  0  0  0  0  0  0  0  0
   58.0900   33.8590   45.4560 S   0  0  0  0  0  0  0  0  0  0  0  0
   56.7100   34.4450   45.3260 O   0  0  0  0  0  0  0  0  0  0  0  0
   58.9880   34.5280   44.4440 O   0  0  0  0  0  0  0  0  0  0  0  0
   58.6840   34.1500   47.0660 N   0  0  0  0  0  0  0  0  0  0  0  0
   60.0200   34.7510   47.0360 C   0  0  0  0  0  0  0  0  0  0  0  0
   61.0680   33.6980   47.2030 C   0  0  0  0  0  0  0  0  0  0  0  0
   62.3970   33.8260   46.8570 C   0  0  0  0  0  0  0  0  0  0  0  0
   62.9830   32.6240   47.1980 C   0  0  0  0  0  0  0  0  0  0  0  0
   61.9750   31.8400   47.7190 C   0  0  0  0  0  0  0  0  0  0  0  0
   60.8450   32.5090   47.7100 O   0  0  0  0  0  0  0  0  0  0  0  0
   57.0210   31.5960   44.2860 C   0  0  0  0  0  0  0  0  0  0  0  0
   56.9440   30.2130   44.0730 C   0  0  0  0  0  0  0  0  0  0  0  0
   57.2890   26.2720   47.0880 N   0  0  0  0  0  0  0  0  0  0  0  0
   56.7110   25.2960   46.4410 C   0  0  0  0  0  0  0  0  0  0  0  0
   57.3380   24.0920   46.2790 N   0  0  0  0  0  0  0  0  0  0  0  0
   56.7710   23.0640   45.5910 C   0  0  0  0  0  0  0  0  0  0  0  0
   55.5030   23.2220   45.0220 C   0  0  0  0  0  0  0  0  0  0  0  0
   54.8390   24.4440   45.1630 C   0  0  0  0  0  0  0  0  0  0  0  0
   55.4420   25.4920   45.8700 C   0  0  0  0  0  0  0  0  0  0  0  0
   54.7810   26.7090   46.0030 O   0  0  0  0  0  0  0  0  0  0  0  0
   59.7902   27.6637   45.1806 H   0  0  0  0  0  0  0  0  0  0  0  0
   58.9566   26.0982   44.8016 H   0  0  0  0  0  0  0  0  0  0  0  0
   57.8070   27.6153   43.4473 H   0  0  0  0  0  0  0  0  0  0  0  0
   56.7760   27.5319   44.9391 H   0  0  0  0  0  0  0  0  0  0  0  0
   59.5668   29.2128   46.0396 H   0  0  0  0  0  0  0  0  0  0  0  0
   59.6802   31.6668   46.4465 H   0  0  0  0  0  0  0  0  0  0  0  0
   58.7590   33.2110   47.5300 H   0  0  0  0  0  0  0  0  0  0  0  0
   60.1673   35.2595   46.0718 H   0  0  0  0  0  0  0  0  0  0  0  0
   60.1052   35.4737   47.8609 H   0  0  0  0  0  0  0  0  0  0  0  0
   62.8864   34.7012   46.4048 H   0  0  0  0  0  0  0  0  0  0  0  0
   64.0408   32.3470   47.0784 H   0  0  0  0  0  0  0  0  0  0  0  0
   62.0988   30.8106   48.0863 H   0  0  0  0  0  0  0  0  0  0  0  0
   56.3171   32.2701   43.7760 H   0  0  0  0  0  0  0  0  0  0  0  0
   56.1652   29.8034   43.4129 H   0  0  0  0  0  0  0  0  0  0  0  0
   57.3088   22.1106   45.4825 H   0  0  0  0  0  0  0  0  0  0  0  0
   55.0338   22.3943   44.4700 H   0  0  0  0  0  0  0  0  0  0  0  0
   53.8424   24.5826   44.7185 H   0  0  0  0  0  0  0  0  0  0  0  0
  1  2  2  0
  2  3  1  0
  3  4  1  0
  4  5  1  0
  5  6  2  0
  6  7  1  0
  7  8  2  0
  8  9  1  0
  9 10  2  0
  9 11  2  0
  9 12  1  0
 12 13  1  0
 13 14  1  0
 14 15  2  0
 15 16  1  0
 16 17  2  0
 17 18  1  0
  8 19  1  0
 19 20  2  0
  2 21  1  0
 21 22  2  3
 22 23  1  0
 23 24  1  0
 24 25  2  0
 25 26  1  0
 26 27  2  0
 27 28  1  0
 20  5  1  0
 27 22  1  0
 18 14  1  0
  3 29  1  0
  3 30  1  0
  4 31  1  0
  4 32  1  0
  6 33  1  0
  7 34  1  0
 12 35  1  0
 13 36  1  0
 13 37  1  0
 15 38  1  0
 16 39  1  0
 17 40  1  0
 19 41  1  0
 20 42  1  0
 24 43  1  0
 25 44  1  0
 26 45  1  0
M  CHG  2  23  -1  28  -1
M  END
>  <UniqueID>  (71) 
64

>  <SMILES>  (71) 
O=C(CCc1ccc(S(=O)(=O)NCc2ccco2)cc1)N=c1[n-]cccc1[O-]

>  <Energy>  (71) 
70.96616314941267

>  <Genealogy>  (71) 
O=C(CCc1ccc(S(=O)(=O)NCc2ccco2)cc1)N=c1[n-]cccc1[O-] (protonated)
O=C(CCc1ccc(S(=O)(=O)NCc2ccco2)cc1)N=c1[n-]cccc1[O-] (3D coordinates assigned)
O=C(CCc1ccc(S(=O)(=O)NCc2ccco2)cc1)N=c1[n-]cccc1[O-] (optimized conformer: 70.96616314941267 kcal/mol)

>  <smiles>  (71) 
O=C(CCc1ccc(S(=O)(=O)NCc2ccco2)cc1)N=c1[nH]cccc1O

>  <score_type>  (71) 
oracle

>  <origin>  (71) 
adg

>  <m_score__min__energy>  (71) 
-13.98

>  <m_primary>  (71) 
energy

$$$$
71:0
     RDKit          3D

 58 61  0  0  0  0  0  0  0  0999 V2000
   54.7070   23.9690   45.0810 C   0  0  0  0  0  0  0  0  0  0  0  0
   53.9710   25.2000   45.5940 C   0  0  0  0  0  0  0  0  0  0  0  0
   54.9160   26.2600   45.9250 N   0  0  0  0  0  0  0  0  0  0  0  0
   56.2660   26.0170   46.3340 C   0  0  0  0  0  0  0  0  0  0  0  0
   56.5160   25.5650   47.4870 O   0  0  0  0  0  0  0  0  0  0  0  0
   57.3900   26.3260   45.3960 C   0  0  0  0  0  0  0  0  0  0  0  0
   57.7810   27.7290   45.5210 N   0  0  0  0  0  0  0  0  0  0  0  0
   56.9910   28.8150   45.4070 C   0  0  0  0  0  0  0  0  0  0  0  0
   55.6180   28.7640   45.1830 O   0  0  0  0  0  0  0  0  0  0  0  0
   57.7510   29.9600   45.5450 C   0  0  0  0  0  0  0  0  0  0  0  0
   59.0330   29.5820   45.7310 N   0  0  0  0  0  0  0  0  0  0  0  0
   60.1740   30.4570   45.9940 C   0  0  0  0  0  0  0  0  0  0  0  0
   61.0310   29.8750   47.1230 C   0  0  0  0  0  0  0  0  0  0  0  0
   60.7890   30.6220   48.4410 C   0  0  0  0  0  0  0  0  0  0  0  0
   59.2960   30.6630   48.7810 C   0  0  0  0  0  0  0  0  0  0  0  0
   58.8360   32.0420   48.9840 N   0  0  0  0  0  0  0  0  0  0  0  0
   58.7710   32.9450   47.8780 C   0  0  0  0  0  0  0  0  0  0  0  0
   57.7460   32.8010   46.9300 C   0  0  0  0  0  0  0  0  0  0  0  0
   57.6850   33.6520   45.8250 C   0  0  0  0  0  0  0  0  0  0  0  0
   58.6600   34.6350   45.6470 C   0  0  0  0  0  0  0  0  0  0  0  0
   59.6890   34.7770   46.5820 C   0  0  0  0  0  0  0  0  0  0  0  0
   59.7440   33.9490   47.7110 C   0  0  0  0  0  0  0  0  0  0  0  0
   60.8510   34.1070   48.6130 N   0  0  0  0  0  0  0  0  0  0  0  0
   60.9360   33.7700   50.0050 C   0  0  0  0  0  0  0  0  0  0  0  0
   62.0550   33.8850   50.5750 O   0  0  0  0  0  0  0  0  0  0  0  0
   59.7530   33.4030   50.8170 C   0  0  0  0  0  0  0  0  0  0  0  0
   59.6550   33.8680   52.1420 C   0  0  0  0  0  0  0  0  0  0  0  0
   58.5430   33.5490   52.9260 C   0  0  0  0  0  0  0  0  0  0  0  0
   57.5130   32.7740   52.3940 C   0  0  0  0  0  0  0  0  0  0  0  0
   57.6070   32.2890   51.0890 C   0  0  0  0  0  0  0  0  0  0  0  0
   58.7330   32.5810   50.3040 C   0  0  0  0  0  0  0  0  0  0  0  0
   59.0190   28.2320   45.7150 C   0  0  0  0  0  0  0  0  0  0  0  0
   60.0480   27.5200   45.8680 O   0  0  0  0  0  0  0  0  0  0  0  0
   55.0634   23.3729   45.9340 H   0  0  0  0  0  0  0  0  0  0  0  0
   54.0237   23.3617   44.4693 H   0  0  0  0  0  0  0  0  0  0  0  0
   55.5654   24.2835   44.4693 H   0  0  0  0  0  0  0  0  0  0  0  0
   53.2816   25.5598   44.8160 H   0  0  0  0  0  0  0  0  0  0  0  0
   53.4111   24.9272   46.5007 H   0  0  0  0  0  0  0  0  0  0  0  0
   58.2513   25.6859   45.6377 H   0  0  0  0  0  0  0  0  0  0  0  0
   57.0588   26.1364   44.3643 H   0  0  0  0  0  0  0  0  0  0  0  0
   55.1440   27.8780   45.0620 H   0  0  0  0  0  0  0  0  0  0  0  0
   57.3782   30.9943   45.5096 H   0  0  0  0  0  0  0  0  0  0  0  0
   60.7833   30.5451   45.0824 H   0  0  0  0  0  0  0  0  0  0  0  0
   59.8065   31.4494   46.2943 H   0  0  0  0  0  0  0  0  0  0  0  0
   60.7740   28.8141   47.2588 H   0  0  0  0  0  0  0  0  0  0  0  0
   62.0908   29.9839   46.8490 H   0  0  0  0  0  0  0  0  0  0  0  0
   61.3285   30.1082   49.2503 H   0  0  0  0  0  0  0  0  0  0  0  0
   61.1525   31.6544   48.3312 H   0  0  0  0  0  0  0  0  0  0  0  0
   58.7271   30.2130   47.9541 H   0  0  0  0  0  0  0  0  0  0  0  0
   59.1352   30.1012   49.7130 H   0  0  0  0  0  0  0  0  0  0  0  0
   56.9877   32.0145   47.0582 H   0  0  0  0  0  0  0  0  0  0  0  0
   56.8689   33.5480   45.0948 H   0  0  0  0  0  0  0  0  0  0  0  0
   58.6184   35.2982   44.7704 H   0  0  0  0  0  0  0  0  0  0  0  0
   60.4619   35.5449   46.4304 H   0  0  0  0  0  0  0  0  0  0  0  0
   60.4602   34.4875   52.5637 H   0  0  0  0  0  0  0  0  0  0  0  0
   58.4802   33.9095   53.9634 H   0  0  0  0  0  0  0  0  0  0  0  0
   56.6262   32.5449   53.0032 H   0  0  0  0  0  0  0  0  0  0  0  0
   56.7945   31.6748   50.6735 H   0  0  0  0  0  0  0  0  0  0  0  0
  1  2  1  0
  2  3  1  0
  3  4  1  0
  4  5  2  0
  4  6  1  0
  6  7  1  0
  7  8  1  0
  8  9  1  0
  8 10  2  0
 10 11  1  0
 11 12  1  0
 12 13  1  0
 13 14  1  0
 14 15  1  0
 15 16  1  0
 16 17  1  0
 17 18  2  0
 18 19  1  0
 19 20  2  0
 20 21  1  0
 21 22  2  0
 22 23  1  0
 23 24  1  0
 24 25  2  0
 24 26  1  0
 26 27  2  0
 27 28  1  0
 28 29  2  0
 29 30  1  0
 30 31  2  0
 11 32  1  0
 32 33  2  0
 32  7  1  0
 31 16  1  0
 22 17  1  0
 31 26  1  0
  1 34  1  0
  1 35  1  0
  1 36  1  0
  2 37  1  0
  2 38  1  0
  6 39  1  0
  6 40  1  0
  9 41  1  0
 10 42  1  0
 12 43  1  0
 12 44  1  0
 13 45  1  0
 13 46  1  0
 14 47  1  0
 14 48  1  0
 15 49  1  0
 15 50  1  0
 18 51  1  0
 19 52  1  0
 20 53  1  0
 21 54  1  0
 27 55  1  0
 28 56  1  0
 29 57  1  0
 30 58  1  0
M  CHG  2   3  -1  23  -1
M  END
>  <UniqueID>  (72) 
65

>  <SMILES>  (72) 
CC[N-]C(=O)Cn1c(O)cn(CCCCN2c3ccccc3[N-]C(=O)c3ccccc32)c1=O

>  <Energy>  (72) 
104.76112414559948

>  <Genealogy>  (72) 
CC[N-]C(=O)Cn1c(O)cn(CCCCN2c3ccccc3[N-]C(=O)c3ccccc32)c1=O (protonated)
CC[N-]C(=O)Cn1c(O)cn(CCCCN2c3ccccc3[N-]C(=O)c3ccccc32)c1=O (3D coordinates assigned)
CC[N-]C(=O)Cn1c(O)cn(CCCCN2c3ccccc3[N-]C(=O)c3ccccc32)c1=O (nonaromatic ring conformer: 104.76112414559948 kcal/mol)

>  <smiles>  (72) 
CCNC(=O)Cn1c(O)cn(CCCCN2c3ccccc3NC(=O)c3ccccc32)c1=O

>  <score_type>  (72) 
oracle

>  <origin>  (72) 
adg

>  <m_score__min__energy>  (72) 
-12.48

>  <m_primary>  (72) 
energy

$$$$
72:0
     RDKit          3D

 57 60  0  0  0  0  0  0  0  0999 V2000
   59.1071   35.5884   48.4921 H   0  0  0  0  0  0  0  0  0  0  0  0
   59.4780   34.7590   47.8720 C   0  0  0  0  0  0  0  0  0  0  0  0
   58.7420   34.3300   46.8460 C   0  0  0  0  0  0  0  0  0  0  0  0
   57.5130   33.5750   46.8740 C   0  0  0  0  0  0  0  0  0  0  0  0
   56.9390   33.1090   47.8930 O   0  0  0  0  0  0  0  0  0  0  0  0
   57.0580   33.4100   45.5780 O   0  0  0  0  0  0  0  0  0  0  0  0
   57.9560   34.0430   44.6580 C   0  0  2  0  0  0  0  0  0  0  0  0
   57.4482   34.8172   44.0641 H   0  0  0  0  0  0  0  0  0  0  0  0
   58.5220   33.0240   43.6670 C   0  0  0  0  0  0  0  0  0  0  0  0
   58.3757   33.3981   42.6430 H   0  0  0  0  0  0  0  0  0  0  0  0
   59.5930   32.8873   43.8773 H   0  0  0  0  0  0  0  0  0  0  0  0
   57.8310   31.6940   43.8090 C   0  0  0  0  0  0  0  0  0  0  0  0
   56.9740   31.2300   42.7980 C   0  0  0  0  0  0  0  0  0  0  0  0
   56.8274   31.8284   41.8867 H   0  0  0  0  0  0  0  0  0  0  0  0
   56.3060   30.0100   42.9450 C   0  0  0  0  0  0  0  0  0  0  0  0
   55.6393   29.6490   42.1480 H   0  0  0  0  0  0  0  0  0  0  0  0
   56.4850   29.2490   44.1040 C   0  0  0  0  0  0  0  0  0  0  0  0
   55.9631   28.2872   44.2164 H   0  0  0  0  0  0  0  0  0  0  0  0
   57.3270   29.7100   45.1200 C   0  0  0  0  0  0  0  0  0  0  0  0
   57.4637   29.1121   46.0331 H   0  0  0  0  0  0  0  0  0  0  0  0
   57.9960   30.9300   44.9780 C   0  0  0  0  0  0  0  0  0  0  0  0
   58.6527   31.2927   45.7825 H   0  0  0  0  0  0  0  0  0  0  0  0
   59.0330   34.6030   45.4850 N   0  0  0  0  0  0  0  0  0  0  0  0
   59.8360   35.1710   45.1320 H   0  0  0  0  0  0  0  0  0  0  0  0
   60.7400   34.1620   48.1820 N   0  0  0  0  0  0  0  0  0  0  0  0
   61.2330   34.2020   49.5570 C   0  0  0  0  0  0  0  0  0  0  0  0
   62.3105   33.9809   49.5620 H   0  0  0  0  0  0  0  0  0  0  0  0
   61.0501   35.2042   49.9719 H   0  0  0  0  0  0  0  0  0  0  0  0
   60.5150   33.1860   50.4030 C   0  0  0  0  0  0  0  0  0  0  0  0
   61.1350   31.9680   50.7230 C   0  0  0  0  0  0  0  0  0  0  0  0
   62.1381   31.7444   50.3308 H   0  0  0  0  0  0  0  0  0  0  0  0
   60.4830   31.0380   51.5380 C   0  0  0  0  0  0  0  0  0  0  0  0
   60.9713   30.0828   51.7813 H   0  0  0  0  0  0  0  0  0  0  0  0
   59.2110   31.3210   52.0440 C   0  0  0  0  0  0  0  0  0  0  0  0
   58.6978   30.5874   52.6831 H   0  0  0  0  0  0  0  0  0  0  0  0
   58.5910   32.5360   51.7380 C   0  0  0  0  0  0  0  0  0  0  0  0
   57.5913   32.7589   52.1390 H   0  0  0  0  0  0  0  0  0  0  0  0
   59.2400   33.4680   50.9230 C   0  0  0  0  0  0  0  0  0  0  0  0
   58.7514   34.4251   50.6879 H   0  0  0  0  0  0  0  0  0  0  0  0
   61.4290   33.0480   47.0400 S   0  0  0  0  0  0  0  0  0  0  0  0
   62.8920   32.8660   47.3310 O   0  0  0  0  0  0  0  0  0  0  0  0
   61.2750   33.5870   45.6450 O   0  0  0  0  0  0  0  0  0  0  0  0
   60.6050   31.4950   47.1570 C   0  0  0  0  0  0  0  0  0  0  0  0
   59.5210   31.3270   48.0290 C   0  0  0  0  0  0  0  0  0  0  0  0
   59.1430   32.1841   48.6057 H   0  0  0  0  0  0  0  0  0  0  0  0
   58.9190   30.0740   48.1680 C   0  0  0  0  0  0  0  0  0  0  0  0
   58.0652   29.9523   48.8508 H   0  0  0  0  0  0  0  0  0  0  0  0
   59.3920   28.9730   47.4470 C   0  0  0  0  0  0  0  0  0  0  0  0
   58.7620   27.7330   47.6330 O   0  0  0  0  0  0  0  0  0  0  0  0
   58.6720   26.7200   46.6360 C   0  0  0  0  0  0  0  0  0  0  0  0
   58.5846   25.7360   47.1199 H   0  0  0  0  0  0  0  0  0  0  0  0
   57.7863   26.9003   46.0090 H   0  0  0  0  0  0  0  0  0  0  0  0
   59.5756   26.7413   46.0090 H   0  0  0  0  0  0  0  0  0  0  0  0
   60.4780   29.1430   46.5680 C   0  0  0  0  0  0  0  0  0  0  0  0
   60.8554   28.2860   45.9908 H   0  0  0  0  0  0  0  0  0  0  0  0
   61.0790   30.3980   46.4260 C   0  0  0  0  0  0  0  0  0  0  0  0
   61.9275   30.5241   45.7374 H   0  0  0  0  0  0  0  0  0  0  0  0
  1  2  1  0
  2  3  2  0
  3  4  1  0
  4  5  2  0
  4  6  1  0
  6  7  1  0
  7  8  1  6
  7  9  1  0
  9 10  1  0
  9 11  1  0
  9 12  1  0
 12 13  2  0
 13 14  1  0
 13 15  1  0
 15 16  1  0
 15 17  2  0
 17 18  1  0
 17 19  1  0
 19 20  1  0
 19 21  2  0
 21 22  1  0
  7 23  1  0
 23 24  1  0
  2 25  1  0
 25 26  1  0
 26 27  1  0
 26 28  1  0
 26 29  1  0
 29 30  2  0
 30 31  1  0
 30 32  1  0
 32 33  1  0
 32 34  2  0
 34 35  1  0
 34 36  1  0
 36 37  1  0
 36 38  2  0
 38 39  1  0
 25 40  1  0
 40 41  2  0
 40 42  2  0
 40 43  1  0
 43 44  2  0
 44 45  1  0
 44 46  1  0
 46 47  1  0
 46 48  2  0
 48 49  1  0
 49 50  1  0
 50 51  1  0
 50 52  1  0
 50 53  1  0
 48 54  1  0
 54 55  1  0
 54 56  2  0
 56 57  1  0
 23  3  1  0
 38 29  1  0
 56 43  1  0
 21 12  1  0
M  END
>  <UniqueID>  (73) 
66

>  <SMILES>  (73) 
COc1ccc(S(=O)(=O)N(/C=C2/N[C@@H](Cc3ccccc3)OC2=O)Cc2ccccc2)cc1

>  <Energy>  (73) 
82.81361726156743

>  <Genealogy>  (73) 
COc1ccc(S(=O)(=O)N(C=C2N[C@@H](Cc3ccccc3)OC2=O)Cc2ccccc2)cc1 (chirality)
COc1ccc(S(=O)(=O)N(/C=C2/N[C@@H](Cc3ccccc3)OC2=O)Cc2ccccc2)cc1 (cis-trans isomerization)
COc1ccc(S(=O)(=O)N(/C=C2/N[C@@H](Cc3ccccc3)OC2=O)Cc2ccccc2)cc1 (3D coordinates assigned)
COc1ccc(S(=O)(=O)N(/C=C2/N[C@@H](Cc3ccccc3)OC2=O)Cc2ccccc2)cc1 (nonaromatic ring conformer: 82.81361726156743 kcal/mol)

>  <smiles>  (73) 
COc1ccc(S(=O)(=O)N(C=C2NC(Cc3ccccc3)OC2=O)Cc2ccccc2)cc1

>  <score_type>  (73) 
oracle

>  <origin>  (73) 
adg

>  <m_score__min__energy>  (73) 
-9.3800000000000008

>  <m_primary>  (73) 
energy

$$$$
73:0
     RDKit          3D

 37 40  0  0  0  0  0  0  0  0999 V2000
   55.6390   28.7550   43.9030 H   0  0  0  0  0  0  0  0  0  0  0  0
   55.5280   28.6470   44.9030 O   0  0  0  0  0  0  0  0  0  0  0  0
   56.2670   27.6980   45.6020 C   0  0  0  0  0  0  0  0  0  0  0  0
   55.7550   26.5510   46.0880 N   0  0  0  0  0  0  0  0  0  0  0  0
   56.8470   25.9600   46.6210 C   0  0  0  0  0  0  0  0  0  0  0  0
   56.8070   24.8380   47.1900 O   0  0  0  0  0  0  0  0  0  0  0  0
   57.9520   26.6600   46.4840 O   0  0  0  0  0  0  0  0  0  0  0  0
   57.6170   27.7610   45.8620 C   0  0  0  0  0  0  0  0  0  0  0  0
   58.5590   28.8160   45.4650 C   0  0  0  0  0  0  0  0  0  0  0  0
   59.6320   28.5742   45.4528 H   0  0  0  0  0  0  0  0  0  0  0  0
   58.1880   30.0550   45.1170 C   0  0  0  0  0  0  0  0  0  0  0  0
   57.7770   30.4660   43.8500 C   0  0  0  0  0  0  0  0  0  0  0  0
   57.6874   29.8088   42.9725 H   0  0  0  0  0  0  0  0  0  0  0  0
   57.5040   31.7930   43.8570 N   0  0  0  0  0  0  0  0  0  0  0  0
   57.7400   32.2270   45.0840 N   0  0  0  0  0  0  0  0  0  0  0  0
   57.6610   33.5030   45.5320 C   0  0  0  0  0  0  0  0  0  0  0  0
   57.2690   34.4320   44.7760 O   0  0  0  0  0  0  0  0  0  0  0  0
   58.0440   33.7660   46.8540 C   0  0  0  0  0  0  0  0  0  0  0  0
   57.9907   34.7871   47.2596 H   0  0  0  0  0  0  0  0  0  0  0  0
   58.5000   32.6960   47.6570 C   0  0  0  0  0  0  0  0  0  0  0  0
   59.0120   32.9610   49.0440 C   0  0  0  0  0  0  0  0  0  0  0  0
   58.1902   33.3556   49.6595 H   0  0  0  0  0  0  0  0  0  0  0  0
   59.3918   32.0158   49.4592 H   0  0  0  0  0  0  0  0  0  0  0  0
   60.0800   33.9080   49.0330 O   0  0  0  0  0  0  0  0  0  0  0  0
   61.3000   33.7430   48.3580 C   0  0  0  0  0  0  0  0  0  0  0  0
   61.4410   33.9790   46.9750 C   0  0  0  0  0  0  0  0  0  0  0  0
   60.5725   34.3003   46.3813 H   0  0  0  0  0  0  0  0  0  0  0  0
   62.6840   33.8050   46.3570 C   0  0  0  0  0  0  0  0  0  0  0  0
   62.7912   33.9916   45.2783 H   0  0  0  0  0  0  0  0  0  0  0  0
   63.7890   33.3950   47.1060 C   0  0  0  0  0  0  0  0  0  0  0  0
   64.7649   33.2586   46.6171 H   0  0  0  0  0  0  0  0  0  0  0  0
   63.6550   33.1580   48.4770 C   0  0  0  0  0  0  0  0  0  0  0  0
   64.5255   32.8352   49.0669 H   0  0  0  0  0  0  0  0  0  0  0  0
   62.4160   33.3310   49.0980 C   0  0  0  0  0  0  0  0  0  0  0  0
   62.3156   33.1422   50.1770 H   0  0  0  0  0  0  0  0  0  0  0  0
   58.5650   31.4330   47.1380 N   0  0  0  0  0  0  0  0  0  0  0  0
   58.1540   31.2200   45.8630 C   0  0  0  0  0  0  0  0  0  0  0  0
  1  2  1  0
  2  3  1  0
  3  4  1  0
  4  5  1  0
  5  6  2  0
  5  7  1  0
  7  8  1  0
  8  9  1  0
  9 10  1  0
  9 11  2  0
 11 12  1  0
 12 13  1  0
 12 14  2  0
 14 15  1  0
 15 16  1  0
 16 17  2  0
 16 18  1  0
 18 19  1  0
 18 20  2  0
 20 21  1  0
 21 22  1  0
 21 23  1  0
 21 24  1  0
 24 25  1  0
 25 26  2  0
 26 27  1  0
 26 28  1  0
 28 29  1  0
 28 30  2  0
 30 31  1  0
 30 32  1  0
 32 33  1  0
 32 34  2  0
 34 35  1  0
 20 36  1  0
 36 37  2  0
  8  3  2  0
 37 11  1  0
 37 15  1  0
 34 25  1  0
M  CHG  1   4  -1
M  END
>  <UniqueID>  (74) 
67

>  <SMILES>  (74) 
O=c1[n-]c(O)c(/C=c2/cnn3c(=O)cc(COc4ccccc4)nc23)o1

>  <Energy>  (74) 
115.42006241286825

>  <Genealogy>  (74) 
O=c1[n-]c(O)c(C=c2cnn3c(=O)cc(COc4ccccc4)nc23)o1 (protonated)
O=c1[n-]c(O)c(/C=c2/cnn3c(=O)cc(COc4ccccc4)nc23)o1 (cis-trans isomerization)
O=c1[n-]c(O)c(/C=c2/cnn3c(=O)cc(COc4ccccc4)nc23)o1 (3D coordinates assigned)
O=c1[n-]c(O)c(/C=c2/cnn3c(=O)cc(COc4ccccc4)nc23)o1 (optimized conformer: 115.42006241286825 kcal/mol)

>  <smiles>  (74) 
O=c1[nH]c(O)c(C=c2cnn3c(=O)cc(COc4ccccc4)nc23)o1

>  <score_type>  (74) 
oracle

>  <origin>  (74) 
adg

>  <m_score__min__energy>  (74) 
-10.82

>  <m_primary>  (74) 
energy

$$$$
74:0
     RDKit          3D

 19 19  0  0  0  0  0  0  0  0999 V2000
   51.0140   32.1400   53.6930 C   0  0  0  0  0  0  0  0  0  0  0  0
   51.2590   31.5910   52.3180 C   0  0  0  0  0  0  0  0  0  0  0  0
   50.8720   32.3370   51.2460 N   0  0  0  0  0  0  0  0  0  0  0  0
   51.0510   31.9170   49.9670 C   0  0  0  0  0  0  0  0  0  0  0  0
   50.6780   32.6450   49.0100 O   0  0  0  0  0  0  0  0  0  0  0  0
   51.6480   30.6810   49.7170 C   0  0  0  0  0  0  0  0  0  0  0  0
   52.0520   29.8890   50.7890 C   0  0  0  0  0  0  0  0  0  0  0  0
   51.8560   30.3260   52.1090 C   0  0  0  0  0  0  0  0  0  0  0  0
   52.3790   29.3000   53.4540 S   0  0  0  0  0  0  0  0  0  0  0  0
   52.9150   27.7600   52.8730 N   0  0  0  0  0  0  0  0  0  0  0  0
   51.2340   29.0810   54.4030 O   0  0  0  0  0  0  0  0  0  0  0  0
   53.5150   29.9670   54.1770 O   0  0  0  0  0  0  0  0  0  0  0  0
   51.3414   31.4064   54.4444 H   0  0  0  0  0  0  0  0  0  0  0  0
   51.5807   33.0740   53.8212 H   0  0  0  0  0  0  0  0  0  0  0  0
   49.9403   32.3420   53.8212 H   0  0  0  0  0  0  0  0  0  0  0  0
   51.7981   30.3355   48.6835 H   0  0  0  0  0  0  0  0  0  0  0  0
   52.5275   28.9152   50.6005 H   0  0  0  0  0  0  0  0  0  0  0  0
   53.7850   27.9280   52.3190 H   0  0  0  0  0  0  0  0  0  0  0  0
   52.1920   27.4190   52.2000 H   0  0  0  0  0  0  0  0  0  0  0  0
  1  2  1  0
  2  3  1  0
  3  4  1  0
  4  5  2  0
  4  6  1  0
  6  7  2  0
  7  8  1  0
  8  9  1  0
  9 10  1  0
  9 11  2  0
  9 12  2  0
  8  2  2  0
  1 13  1  0
  1 14  1  0
  1 15  1  0
  6 16  1  0
  7 17  1  0
 10 18  1  0
 10 19  1  0
M  CHG  1   3  -1
M  END
>  <UniqueID>  (75) 
68

>  <SMILES>  (75) 
Cc1[n-]c(=O)ccc1S(N)(=O)=O

>  <Energy>  (75) 
17.724848111837442

>  <Genealogy>  (75) 
Cc1[n-]c(=O)ccc1S(N)(=O)=O (protonated)
Cc1[n-]c(=O)ccc1S(N)(=O)=O (3D coordinates assigned)
Cc1[n-]c(=O)ccc1S(N)(=O)=O (optimized conformer: 17.724848111837442 kcal/mol)

>  <smiles>  (75) 
Cc1[nH]c(=O)ccc1S(N)(=O)=O

>  <score_type>  (75) 
oracle

>  <origin>  (75) 
adg

>  <m_score__min__energy>  (75) 
-7.8300000000000001

>  <m_primary>  (75) 
energy

$$$$
75:0
     RDKit          3D

 36 38  0  0  0  0  0  0  0  0999 V2000
   55.5990   28.7780   45.1090 N   0  0  0  0  0  0  0  0  0  0  0  0
   56.8450   29.9010   44.6970 S   0  0  0  0  0  0  0  0  0  0  0  0
   56.2610   31.2810   44.5690 O   0  0  0  0  0  0  0  0  0  0  0  0
   57.4590   29.5070   43.3830 O   0  0  0  0  0  0  0  0  0  0  0  0
   58.0760   29.9000   45.9440 C   0  0  0  0  0  0  0  0  0  0  0  0
   59.1050   30.8190   46.0670 C   0  0  0  0  0  0  0  0  0  0  0  0
   59.9640   30.5340   47.1390 C   0  0  0  0  0  0  0  0  0  0  0  0
   61.1410   31.3540   47.4830 C   0  0  0  0  0  0  0  0  0  0  0  0
   62.4110   30.8710   47.1430 C   0  0  0  0  0  0  0  0  0  0  0  0
   63.5510   31.6000   47.4680 C   0  0  0  0  0  0  0  0  0  0  0  0
   63.4170   32.8200   48.1290 C   0  0  0  0  0  0  0  0  0  0  0  0
   64.4440   33.4840   48.4330 O   0  0  0  0  0  0  0  0  0  0  0  0
   62.1800   33.2960   48.4420 N   0  0  0  0  0  0  0  0  0  0  0  0
   61.0400   32.6110   48.1300 C   0  0  0  0  0  0  0  0  0  0  0  0
   59.4720   33.3570   48.5030 S   0  0  0  0  0  0  0  0  0  0  0  0
   59.6780   34.5980   49.3260 O   0  0  0  0  0  0  0  0  0  0  0  0
   58.6460   32.3860   49.2990 O   0  0  0  0  0  0  0  0  0  0  0  0
   58.6290   33.8280   47.0290 C   0  0  0  0  0  0  0  0  0  0  0  0
   59.3060   34.5620   46.0450 C   0  0  0  0  0  0  0  0  0  0  0  0
   58.6580   34.9100   44.8570 C   0  0  0  0  0  0  0  0  0  0  0  0
   57.3280   34.5330   44.6490 C   0  0  0  0  0  0  0  0  0  0  0  0
   56.6450   33.8110   45.6310 C   0  0  0  0  0  0  0  0  0  0  0  0
   57.2920   33.4600   46.8200 C   0  0  0  0  0  0  0  0  0  0  0  0
   59.5880   29.4090   47.8700 C   0  0  0  0  0  0  0  0  0  0  0  0
   58.2140   28.7500   47.1590 S   0  0  0  0  0  0  0  0  0  0  0  0
   54.7520   29.3390   45.3510 H   0  0  0  0  0  0  0  0  0  0  0  0
   59.2349   31.6806   45.3956 H   0  0  0  0  0  0  0  0  0  0  0  0
   62.5078   29.9102   46.6162 H   0  0  0  0  0  0  0  0  0  0  0  0
   64.5483   31.2172   47.2058 H   0  0  0  0  0  0  0  0  0  0  0  0
   62.1110   34.2170   48.9300 H   0  0  0  0  0  0  0  0  0  0  0  0
   60.3507   34.8649   46.2087 H   0  0  0  0  0  0  0  0  0  0  0  0
   59.1947   35.4809   44.0850 H   0  0  0  0  0  0  0  0  0  0  0  0
   56.8193   34.8048   43.7123 H   0  0  0  0  0  0  0  0  0  0  0  0
   55.5971   33.5183   45.4687 H   0  0  0  0  0  0  0  0  0  0  0  0
   56.7512   32.8941   47.5929 H   0  0  0  0  0  0  0  0  0  0  0  0
   60.1023   29.0185   48.7605 H   0  0  0  0  0  0  0  0  0  0  0  0
  1  2  1  0
  2  3  2  0
  2  4  2  0
  2  5  1  0
  5  6  2  0
  6  7  1  0
  7  8  1  0
  8  9  1  0
  9 10  2  0
 10 11  1  0
 11 12  2  0
 11 13  1  0
 13 14  1  0
 14 15  1  0
 15 16  2  0
 15 17  2  0
 15 18  1  0
 18 19  2  0
 19 20  1  0
 20 21  2  0
 21 22  1  0
 22 23  2  0
  7 24  2  0
 24 25  1  0
 25  5  1  0
 14  8  2  0
 23 18  1  0
  1 26  1  0
  6 27  1  0
  9 28  1  0
 10 29  1  0
 13 30  1  0
 19 31  1  0
 20 32  1  0
 21 33  1  0
 22 34  1  0
 23 35  1  0
 24 36  1  0
M  CHG  1   1  -1
M  END
>  <UniqueID>  (76) 
69

>  <SMILES>  (76) 
[NH-]S(=O)(=O)c1cc(-c2ccc(=O)[nH]c2S(=O)(=O)c2ccccc2)cs1

>  <Energy>  (76) 
71.03090638919052

>  <Genealogy>  (76) 
[NH-]S(=O)(=O)c1cc(-c2ccc(=O)[nH]c2S(=O)(=O)c2ccccc2)cs1 (protonated)
[NH-]S(=O)(=O)c1cc(-c2ccc(=O)[nH]c2S(=O)(=O)c2ccccc2)cs1 (3D coordinates assigned)
[NH-]S(=O)(=O)c1cc(-c2ccc(=O)[nH]c2S(=O)(=O)c2ccccc2)cs1 (optimized conformer: 71.03090638919052 kcal/mol)

>  <smiles>  (76) 
NS(=O)(=O)c1cc(-c2ccc(=O)[nH]c2S(=O)(=O)c2ccccc2)cs1

>  <score_type>  (76) 
oracle

>  <origin>  (76) 
adg

>  <m_score__min__energy>  (76) 
-11.06

>  <m_primary>  (76) 
energy

$$$$
76:0
     RDKit          3D

 61 63  0  0  0  0  0  0  0  0999 V2000
   55.3980   23.1320   47.3790 C   0  0  0  0  0  0  0  0  0  0  0  0
   56.8510   22.7660   47.4430 C   0  0  0  0  0  0  0  0  0  0  0  0
   57.2060   21.8070   48.1790 O   0  0  0  0  0  0  0  0  0  0  0  0
   57.8520   23.4990   46.7250 N   0  0  0  0  0  0  0  0  0  0  0  0
   57.7260   24.8260   46.1960 C   0  0  0  0  0  0  0  0  0  0  0  0
   57.5320   25.8940   47.0830 C   0  0  0  0  0  0  0  0  0  0  0  0
   57.4410   27.2050   46.6040 C   0  0  0  0  0  0  0  0  0  0  0  0
   57.5620   27.4610   45.2320 C   0  0  0  0  0  0  0  0  0  0  0  0
   57.4820   28.8110   44.7390 C   0  0  0  0  0  0  0  0  0  0  0  0
   57.4170   29.9440   44.3320 C   0  0  0  0  0  0  0  0  0  0  0  0
   57.3280   31.3180   43.8290 C   0  0  0  0  0  0  0  0  0  0  0  0
   58.1760   32.2000   44.6200 N   0  0  0  0  0  0  0  0  0  0  0  0
   58.1850   32.2150   46.0520 C   0  0  0  0  0  0  0  0  0  0  0  0
   57.7910   31.2080   46.7020 O   0  0  0  0  0  0  0  0  0  0  0  0
   58.5980   33.4590   46.7740 C   0  0  0  0  0  0  0  0  0  0  0  0
   59.6760   33.1710   47.7240 N   0  0  0  0  0  0  0  0  0  0  0  0
   59.5840   32.6320   48.9710 C   0  0  0  0  0  0  0  0  0  0  0  0
   58.2920   32.3510   49.6820 C   0  0  0  0  0  0  0  0  0  0  0  0
   58.5090   31.4190   50.7830 N   0  0  0  0  0  0  0  0  0  0  0  0
   58.1470   30.0380   50.7200 C   0  0  0  0  0  0  0  0  0  0  0  0
   58.5350   29.3500   49.7410 O   0  0  0  0  0  0  0  0  0  0  0  0
   57.3560   29.4780   51.7370 O   0  0  0  0  0  0  0  0  0  0  0  0
   56.5800   30.1980   52.7060 C   0  0  0  0  0  0  0  0  0  0  0  0
   55.6150   31.1790   52.0140 C   0  0  0  0  0  0  0  0  0  0  0  0
   55.7630   29.1600   53.4920 C   0  0  0  0  0  0  0  0  0  0  0  0
   57.5070   30.9450   53.6860 C   0  0  0  0  0  0  0  0  0  0  0  0
   60.7930   32.4390   49.5620 N   0  0  0  0  0  0  0  0  0  0  0  0
   61.6620   32.8670   48.6290 C   0  0  0  0  0  0  0  0  0  0  0  0
   63.0540   32.8780   48.7060 C   0  0  0  0  0  0  0  0  0  0  0  0
   63.7700   33.3550   47.5890 C   0  0  0  0  0  0  0  0  0  0  0  0
   63.0810   33.7980   46.4360 C   0  0  0  0  0  0  0  0  0  0  0  0
   61.6730   33.7740   46.3920 C   0  0  0  0  0  0  0  0  0  0  0  0
   60.9980   33.3020   47.5210 C   0  0  0  0  0  0  0  0  0  0  0  0
   57.7830   26.4010   44.3430 C   0  0  0  0  0  0  0  0  0  0  0  0
   57.8720   25.0910   44.8230 C   0  0  0  0  0  0  0  0  0  0  0  0
   54.9999   23.2323   48.3995 H   0  0  0  0  0  0  0  0  0  0  0  0
   55.2836   24.0870   46.8453 H   0  0  0  0  0  0  0  0  0  0  0  0
   54.8448   22.3451   46.8453 H   0  0  0  0  0  0  0  0  0  0  0  0
   57.4508   25.6998   48.1627 H   0  0  0  0  0  0  0  0  0  0  0  0
   57.2743   28.0359   47.3053 H   0  0  0  0  0  0  0  0  0  0  0  0
   57.6571   31.3427   42.7797 H   0  0  0  0  0  0  0  0  0  0  0  0
   56.2854   31.6606   43.9041 H   0  0  0  0  0  0  0  0  0  0  0  0
   58.9497   34.2015   46.0425 H   0  0  0  0  0  0  0  0  0  0  0  0
   57.7325   33.8508   47.3284 H   0  0  0  0  0  0  0  0  0  0  0  0
   57.8848   33.2925   50.0792 H   0  0  0  0  0  0  0  0  0  0  0  0
   57.5833   31.9029   48.9700 H   0  0  0  0  0  0  0  0  0  0  0  0
   55.0585   31.7447   52.7758 H   0  0  0  0  0  0  0  0  0  0  0  0
   56.1889   31.8763   51.3860 H   0  0  0  0  0  0  0  0  0  0  0  0
   54.9084   30.6166   51.3860 H   0  0  0  0  0  0  0  0  0  0  0  0
   55.8961   29.3291   54.5707 H   0  0  0  0  0  0  0  0  0  0  0  0
   54.6984   29.2595   53.2339 H   0  0  0  0  0  0  0  0  0  0  0  0
   56.1099   28.1485   53.2339 H   0  0  0  0  0  0  0  0  0  0  0  0
   57.2142   30.7091   54.7197 H   0  0  0  0  0  0  0  0  0  0  0  0
   58.5476   30.6301   53.5187 H   0  0  0  0  0  0  0  0  0  0  0  0
   57.4205   32.0288   53.5187 H   0  0  0  0  0  0  0  0  0  0  0  0
   63.5762   32.5263   49.6080 H   0  0  0  0  0  0  0  0  0  0  0  0
   64.8694   33.3827   47.6144 H   0  0  0  0  0  0  0  0  0  0  0  0
   63.6484   34.1638   45.5675 H   0  0  0  0  0  0  0  0  0  0  0  0
   61.1248   34.1145   45.5012 H   0  0  0  0  0  0  0  0  0  0  0  0
   57.8866   26.5997   43.2661 H   0  0  0  0  0  0  0  0  0  0  0  0
   58.0572   24.2632   44.1227 H   0  0  0  0  0  0  0  0  0  0  0  0
  1  2  1  0
  2  3  2  0
  2  4  1  0
  4  5  1  0
  5  6  2  0
  6  7  1  0
  7  8  2  0
  8  9  1  0
  9 10  3  0
 10 11  1  0
 11 12  1  0
 12 13  1  0
 13 14  2  0
 13 15  1  0
 15 16  1  0
 16 17  1  0
 17 18  1  0
 18 19  1  0
 19 20  1  0
 20 21  2  0
 20 22  1  0
 22 23  1  0
 23 24  1  0
 23 25  1  0
 23 26  1  0
 17 27  2  0
 27 28  1  0
 28 29  2  0
 29 30  1  0
 30 31  2  0
 31 32  1  0
 32 33  2  0
  8 34  1  0
 34 35  2  0
 35  5  1  0
 33 16  1  0
 33 28  1  0
  1 36  1  0
  1 37  1  0
  1 38  1  0
  6 39  1  0
  7 40  1  0
 11 41  1  0
 11 42  1  0
 15 43  1  0
 15 44  1  0
 18 45  1  0
 18 46  1  0
 24 47  1  0
 24 48  1  0
 24 49  1  0
 25 50  1  0
 25 51  1  0
 25 52  1  0
 26 53  1  0
 26 54  1  0
 26 55  1  0
 29 56  1  0
 30 57  1  0
 31 58  1  0
 32 59  1  0
 34 60  1  0
 35 61  1  0
M  CHG  3   4  -1  12  -1  19  -1
M  END
>  <UniqueID>  (77) 
70

>  <SMILES>  (77) 
CC(=O)[N-]c1ccc(C#CC[N-]C(=O)Cn2c(C[N-]C(=O)OC(C)(C)C)nc3ccccc32)cc1

>  <Energy>  (77) 
86.00970527101714

>  <Genealogy>  (77) 
CC(=O)[N-]c1ccc(C#CC[N-]C(=O)Cn2c(C[N-]C(=O)OC(C)(C)C)nc3ccccc32)cc1 (protonated)
CC(=O)[N-]c1ccc(C#CC[N-]C(=O)Cn2c(C[N-]C(=O)OC(C)(C)C)nc3ccccc32)cc1 (3D coordinates assigned)
CC(=O)[N-]c1ccc(C#CC[N-]C(=O)Cn2c(C[N-]C(=O)OC(C)(C)C)nc3ccccc32)cc1 (optimized conformer: 86.00970527101714 kcal/mol)

>  <smiles>  (77) 
CC(=O)Nc1ccc(C#CCNC(=O)Cn2c(CNC(=O)OC(C)(C)C)nc3ccccc32)cc1

>  <score_type>  (77) 
oracle

>  <origin>  (77) 
adg

>  <m_score__min__energy>  (77) 
-12.029999999999999

>  <m_primary>  (77) 
energy

$$$$
77:0
     RDKit          3D

 50 52  0  0  0  0  0  0  0  0999 V2000
   55.1850   29.5350   44.7790 O   0  0  0  0  0  0  0  0  0  0  0  0
   56.2250   30.0630   44.3010 C   0  0  0  0  0  0  0  0  0  0  0  0
   57.1810   29.2520   43.4780 C   0  0  0  0  0  0  0  0  0  0  0  0
   58.5110   29.3280   43.9890 O   0  0  0  0  0  0  0  0  0  0  0  0
   59.1500   28.2710   44.6510 C   0  0  0  0  0  0  0  0  0  0  0  0
   60.3950   28.1050   44.5220 O   0  0  0  0  0  0  0  0  0  0  0  0
   58.3610   27.3530   45.5020 C   0  0  0  0  0  0  0  0  0  0  0  0
   58.9880   26.5700   46.4890 C   0  0  0  0  0  0  0  0  0  0  0  0
   58.2350   25.7030   47.2870 C   0  0  0  0  0  0  0  0  0  0  0  0
   56.8530   25.6100   47.1110 C   0  0  0  0  0  0  0  0  0  0  0  0
   56.2150   26.3850   46.1380 C   0  0  0  0  0  0  0  0  0  0  0  0
   54.8360   26.2840   45.9750 O   0  0  0  0  0  0  0  0  0  0  0  0
   56.9660   27.2570   45.3370 C   0  0  0  0  0  0  0  0  0  0  0  0
   56.5390   31.4340   44.5760 N   0  0  0  0  0  0  0  0  0  0  0  0
   57.3740   31.9170   45.6380 C   0  0  0  0  0  0  0  0  0  0  0  0
   58.2140   31.0620   46.3750 C   0  0  0  0  0  0  0  0  0  0  0  0
   58.9950   31.5680   47.4180 C   0  0  0  0  0  0  0  0  0  0  0  0
   58.9370   32.9300   47.7480 C   0  0  0  0  0  0  0  0  0  0  0  0
   59.9110   33.5690   49.0730 S   0  0  0  0  0  0  0  0  0  0  0  0
   59.4980   34.9880   49.3530 O   0  0  0  0  0  0  0  0  0  0  0  0
   59.6500   32.7570   50.3120 O   0  0  0  0  0  0  0  0  0  0  0  0
   61.6170   33.5220   48.7000 N   0  0  0  0  0  0  0  0  0  0  0  0
   61.8340   33.8050   47.2650 C   0  0  0  0  0  0  0  0  0  0  0  0
   63.2750   33.4770   46.8120 C   0  0  0  0  0  0  0  0  0  0  0  0
   64.2250   33.3380   48.0060 C   0  0  0  0  0  0  0  0  0  0  0  0
   63.7260   32.2650   48.9870 C   0  0  0  0  0  0  0  0  0  0  0  0
   62.1880   32.2190   49.0750 C   0  0  0  0  0  0  0  0  0  0  0  0
   58.0880   33.7780   47.0250 C   0  0  0  0  0  0  0  0  0  0  0  0
   57.3050   33.2730   45.9850 C   0  0  0  0  0  0  0  0  0  0  0  0
   56.8555   28.2013   43.4852 H   0  0  0  0  0  0  0  0  0  0  0  0
   57.1824   29.6564   42.4550 H   0  0  0  0  0  0  0  0  0  0  0  0
   60.0762   26.6403   46.6335 H   0  0  0  0  0  0  0  0  0  0  0  0
   58.7326   25.0928   48.0552 H   0  0  0  0  0  0  0  0  0  0  0  0
   56.2648   24.9252   47.7395 H   0  0  0  0  0  0  0  0  0  0  0  0
   54.3610   26.7200   45.1930 H   0  0  0  0  0  0  0  0  0  0  0  0
   56.4622   27.8699   44.5750 H   0  0  0  0  0  0  0  0  0  0  0  0
   58.2563   29.9906   46.1293 H   0  0  0  0  0  0  0  0  0  0  0  0
   59.6577   30.8954   47.9822 H   0  0  0  0  0  0  0  0  0  0  0  0
   61.1313   33.1983   46.6749 H   0  0  0  0  0  0  0  0  0  0  0  0
   61.6688   34.8809   47.1062 H   0  0  0  0  0  0  0  0  0  0  0  0
   63.2660   32.5307   46.2512 H   0  0  0  0  0  0  0  0  0  0  0  0
   63.6338   34.3043   46.1820 H   0  0  0  0  0  0  0  0  0  0  0  0
   65.2229   33.0544   47.6402 H   0  0  0  0  0  0  0  0  0  0  0  0
   64.2668   34.3022   48.5338 H   0  0  0  0  0  0  0  0  0  0  0  0
   64.0902   31.2828   48.6514 H   0  0  0  0  0  0  0  0  0  0  0  0
   64.1116   32.5182   49.9856 H   0  0  0  0  0  0  0  0  0  0  0  0
   61.8082   31.4458   48.3910 H   0  0  0  0  0  0  0  0  0  0  0  0
   61.8952   31.9837   50.1089 H   0  0  0  0  0  0  0  0  0  0  0  0
   58.0379   34.8474   47.2780 H   0  0  0  0  0  0  0  0  0  0  0  0
   56.6294   33.9441   45.4343 H   0  0  0  0  0  0  0  0  0  0  0  0
  1  2  2  0
  2  3  1  0
  3  4  1  0
  4  5  1  0
  5  6  2  0
  5  7  1  0
  7  8  2  0
  8  9  1  0
  9 10  2  0
 10 11  1  0
 11 12  1  0
 11 13  2  0
  2 14  1  0
 14 15  1  0
 15 16  2  0
 16 17  1  0
 17 18  2  0
 18 19  1  0
 19 20  2  0
 19 21  2  0
 19 22  1  0
 22 23  1  0
 23 24  1  0
 24 25  1  0
 25 26  1  0
 26 27  1  0
 18 28  1  0
 28 29  2  0
 13  7  1  0
 29 15  1  0
 27 22  1  0
  3 30  1  0
  3 31  1  0
  8 32  1  0
  9 33  1  0
 10 34  1  0
 12 35  1  0
 13 36  1  0
 16 37  1  0
 17 38  1  0
 23 39  1  0
 23 40  1  0
 24 41  1  0
 24 42  1  0
 25 43  1  0
 25 44  1  0
 26 45  1  0
 26 46  1  0
 27 47  1  0
 27 48  1  0
 28 49  1  0
 29 50  1  0
M  CHG  1  14  -1
M  END
>  <UniqueID>  (78) 
71

>  <SMILES>  (78) 
O=C(COC(=O)c1cccc(O)c1)[N-]c1ccc(S(=O)(=O)N2CCCCC2)cc1

>  <Energy>  (78) 
55.866036328745906

>  <Genealogy>  (78) 
O=C(COC(=O)c1cccc(O)c1)[N-]c1ccc(S(=O)(=O)N2CCCCC2)cc1 (protonated)
O=C(COC(=O)c1cccc(O)c1)[N-]c1ccc(S(=O)(=O)N2CCCCC2)cc1 (3D coordinates assigned)
O=C(COC(=O)c1cccc(O)c1)[N-]c1ccc(S(=O)(=O)N2CCCCC2)cc1 (nonaromatic ring conformer: 55.866036328745906 kcal/mol)

>  <smiles>  (78) 
O=C(COC(=O)c1cccc(O)c1)Nc1ccc(S(=O)(=O)N2CCCCC2)cc1

>  <score_type>  (78) 
oracle

>  <origin>  (78) 
adg

>  <m_score__min__energy>  (78) 
-11.68

>  <m_primary>  (78) 
energy

$$$$
78:0
     RDKit          3D

 61 63  0  0  0  0  0  0  0  0999 V2000
   56.6280   30.1600   52.4290 C   0  0  0  0  0  0  0  0  0  0  0  0
   57.3870   30.3220   51.2340 O   0  0  0  0  0  0  0  0  0  0  0  0
   58.1380   31.4620   50.9040 C   0  0  0  0  0  0  0  0  0  0  0  0
   58.3540   32.4810   51.8540 C   0  0  0  0  0  0  0  0  0  0  0  0
   59.0970   33.6120   51.5270 C   0  0  0  0  0  0  0  0  0  0  0  0
   59.6400   33.7480   50.2540 C   0  0  0  0  0  0  0  0  0  0  0  0
   59.4530   32.7470   49.2890 C   0  0  0  0  0  0  0  0  0  0  0  0
   60.0280   32.9640   47.9100 C   0  0  0  0  0  0  0  0  0  0  0  0
   58.9830   32.7860   46.9050 N   0  0  0  0  0  0  0  0  0  0  0  0
   58.5560   33.8420   46.0360 C   0  0  0  0  0  0  0  0  0  0  0  0
   58.9310   35.0270   46.2490 O   0  0  0  0  0  0  0  0  0  0  0  0
   57.6340   33.5630   44.8870 C   0  0  0  0  0  0  0  0  0  0  0  0
   58.0480   32.3880   44.1870 O   0  0  0  0  0  0  0  0  0  0  0  0
   57.8170   31.0590   44.5820 C   0  0  0  0  0  0  0  0  0  0  0  0
   56.5140   30.5580   44.4660 C   0  0  0  0  0  0  0  0  0  0  0  0
   56.2200   29.2410   44.8320 C   0  0  0  0  0  0  0  0  0  0  0  0
   57.2290   28.4050   45.3250 C   0  0  0  0  0  0  0  0  0  0  0  0
   56.8570   26.7410   45.7730 S   0  0  0  0  0  0  0  0  0  0  0  0
   57.3640   25.7990   44.7160 O   0  0  0  0  0  0  0  0  0  0  0  0
   57.5540   26.4190   47.0640 O   0  0  0  0  0  0  0  0  0  0  0  0
   55.1430   26.5340   45.9910 N   0  0  0  0  0  0  0  0  0  0  0  0
   54.7000   25.1990   45.5820 C   0  0  0  0  0  0  0  0  0  0  0  0
   55.5610   24.1040   46.2210 C   0  0  0  0  0  0  0  0  0  0  0  0
   56.1740   23.2010   45.1830 C   0  0  0  0  0  0  0  0  0  0  0  0
   55.7180   23.2360   43.8520 C   0  0  0  0  0  0  0  0  0  0  0  0
   56.2940   22.4010   42.8880 C   0  0  0  0  0  0  0  0  0  0  0  0
   57.3320   21.5340   43.2420 C   0  0  0  0  0  0  0  0  0  0  0  0
   57.8010   21.5050   44.5590 C   0  0  0  0  0  0  0  0  0  0  0  0
   57.2280   22.3390   45.5260 C   0  0  0  0  0  0  0  0  0  0  0  0
   58.5360   28.8950   45.4380 C   0  0  0  0  0  0  0  0  0  0  0  0
   58.8330   30.2090   45.0640 C   0  0  0  0  0  0  0  0  0  0  0  0
   58.6910   31.5970   49.6010 C   0  0  0  0  0  0  0  0  0  0  0  0
   58.5230   30.6330   48.5870 O   0  0  0  0  0  0  0  0  0  0  0  0
   58.9190   29.2690   48.6350 C   0  0  0  0  0  0  0  0  0  0  0  0
   57.2833   30.2999   53.3014 H   0  0  0  0  0  0  0  0  0  0  0  0
   55.8199   30.9059   52.4541 H   0  0  0  0  0  0  0  0  0  0  0  0
   56.1949   29.1492   52.4541 H   0  0  0  0  0  0  0  0  0  0  0  0
   57.9309   32.3814   52.8645 H   0  0  0  0  0  0  0  0  0  0  0  0
   59.2550   34.4003   52.2777 H   0  0  0  0  0  0  0  0  0  0  0  0
   60.2207   34.6475   50.0017 H   0  0  0  0  0  0  0  0  0  0  0  0
   60.4326   33.9844   47.8394 H   0  0  0  0  0  0  0  0  0  0  0  0
   60.8313   32.2338   47.7322 H   0  0  0  0  0  0  0  0  0  0  0  0
   58.6190   31.8160   46.7520 H   0  0  0  0  0  0  0  0  0  0  0  0
   56.6132   33.4157   45.2695 H   0  0  0  0  0  0  0  0  0  0  0  0
   57.6599   34.4173   44.1945 H   0  0  0  0  0  0  0  0  0  0  0  0
   55.7134   31.2078   44.0828 H   0  0  0  0  0  0  0  0  0  0  0  0
   55.1927   28.8605   44.7323 H   0  0  0  0  0  0  0  0  0  0  0  0
   53.6540   25.0584   45.8921 H   0  0  0  0  0  0  0  0  0  0  0  0
   54.7968   25.1218   44.4890 H   0  0  0  0  0  0  0  0  0  0  0  0
   56.3662   24.5772   46.8022 H   0  0  0  0  0  0  0  0  0  0  0  0
   54.9145   23.4932   46.8683 H   0  0  0  0  0  0  0  0  0  0  0  0
   54.9062   23.9220   43.5685 H   0  0  0  0  0  0  0  0  0  0  0  0
   55.9296   22.4269   41.8504 H   0  0  0  0  0  0  0  0  0  0  0  0
   57.7800   20.8744   42.4842 H   0  0  0  0  0  0  0  0  0  0  0  0
   58.6211   20.8260   44.8353 H   0  0  0  0  0  0  0  0  0  0  0  0
   57.6050   22.3191   46.5592 H   0  0  0  0  0  0  0  0  0  0  0  0
   59.3334   28.2424   45.8232 H   0  0  0  0  0  0  0  0  0  0  0  0
   59.8648   30.5814   45.1463 H   0  0  0  0  0  0  0  0  0  0  0  0
   59.0114   28.9507   49.6839 H   0  0  0  0  0  0  0  0  0  0  0  0
   58.1635   28.6498   48.1291 H   0  0  0  0  0  0  0  0  0  0  0  0
   59.8886   29.1507   48.1291 H   0  0  0  0  0  0  0  0  0  0  0  0
  1  2  1  0
  2  3  1  0
  3  4  2  0
  4  5  1  0
  5  6  2  0
  6  7  1  0
  7  8  1  0
  8  9  1  0
  9 10  1  0
 10 11  2  0
 10 12  1  0
 12 13  1  0
 13 14  1  0
 14 15  2  0
 15 16  1  0
 16 17  2  0
 17 18  1  0
 18 19  2  0
 18 20  2  0
 18 21  1  0
 21 22  1  0
 22 23  1  0
 23 24  1  0
 24 25  2  0
 25 26  1  0
 26 27  2  0
 27 28  1  0
 28 29  2  0
 17 30  1  0
 30 31  2  0
  7 32  2  0
 32 33  1  0
 33 34  1  0
 32  3  1  0
 31 14  1  0
 29 24  1  0
  1 35  1  0
  1 36  1  0
  1 37  1  0
  4 38  1  0
  5 39  1  0
  6 40  1  0
  8 41  1  0
  8 42  1  0
  9 43  1  0
 12 44  1  0
 12 45  1  0
 15 46  1  0
 16 47  1  0
 22 48  1  0
 22 49  1  0
 23 50  1  0
 23 51  1  0
 25 52  1  0
 26 53  1  0
 27 54  1  0
 28 55  1  0
 29 56  1  0
 30 57  1  0
 31 58  1  0
 34 59  1  0
 34 60  1  0
 34 61  1  0
M  CHG  1  21  -1
M  END
>  <UniqueID>  (79) 
72

>  <SMILES>  (79) 
COc1cccc(CNC(=O)COc2ccc(S(=O)(=O)[N-]CCc3ccccc3)cc2)c1OC

>  <Energy>  (79) 
62.144827967809334

>  <Genealogy>  (79) 
COc1cccc(CNC(=O)COc2ccc(S(=O)(=O)[N-]CCc3ccccc3)cc2)c1OC (protonated)
COc1cccc(CNC(=O)COc2ccc(S(=O)(=O)[N-]CCc3ccccc3)cc2)c1OC (3D coordinates assigned)
COc1cccc(CNC(=O)COc2ccc(S(=O)(=O)[N-]CCc3ccccc3)cc2)c1OC (optimized conformer: 62.144827967809334 kcal/mol)

>  <smiles>  (79) 
COc1cccc(CNC(=O)COc2ccc(S(=O)(=O)NCCc3ccccc3)cc2)c1OC

>  <score_type>  (79) 
oracle

>  <origin>  (79) 
adg

>  <m_score__min__energy>  (79) 
-10.27

>  <m_primary>  (79) 
energy

$$$$
79:0
     RDKit          3D

 47 48  0  0  0  0  0  0  0  0999 V2000
   55.3260   29.7560   43.7140 C   0  0  0  0  0  0  0  0  0  0  0  0
   55.5250   28.9660   44.9210 N   0  0  0  0  0  0  0  0  0  0  0  0
   56.7500   28.3100   45.2760 C   0  0  0  0  0  0  0  0  0  0  0  0
   56.7570   27.5400   46.2730 O   0  0  0  0  0  0  0  0  0  0  0  0
   58.0070   28.4740   44.4650 C   0  0  0  0  0  0  0  0  0  0  0  0
   58.9530   29.5070   45.1060 C   0  0  2  0  0  0  0  0  0  0  0  0
   59.1200   29.2460   46.5400 N   0  0  0  0  0  0  0  0  0  0  0  0
   60.2490   29.7260   47.2800 C   0  0  0  0  0  0  0  0  0  0  0  0
   61.1510   30.3910   46.7010 O   0  0  0  0  0  0  0  0  0  0  0  0
   60.3170   29.4780   48.6890 N   0  0  0  0  0  0  0  0  0  0  0  0
   59.5440   30.1320   49.7080 C   0  0  0  0  0  0  0  0  0  0  0  0
   59.7680   31.4920   49.9470 C   0  0  0  0  0  0  0  0  0  0  0  0
   59.0150   32.1880   50.8970 C   0  0  0  0  0  0  0  0  0  0  0  0
   59.2980   33.5470   51.1030 O   0  0  0  0  0  0  0  0  0  0  0  0
   58.9000   34.2870   52.2530 C   0  0  0  0  0  0  0  0  0  0  0  0
   58.0050   31.5110   51.6060 C   0  0  0  0  0  0  0  0  0  0  0  0
   57.7500   30.1490   51.3560 C   0  0  0  0  0  0  0  0  0  0  0  0
   56.7380   29.4380   52.0200 O   0  0  0  0  0  0  0  0  0  0  0  0
   55.5460   30.0240   52.5310 C   0  0  0  0  0  0  0  0  0  0  0  0
   58.5220   29.4690   50.4090 C   0  0  0  0  0  0  0  0  0  0  0  0
   58.4230   30.9090   44.8960 C   0  0  0  0  0  0  0  0  0  0  0  0
   58.2410   31.4210   43.5970 C   0  0  0  0  0  0  0  0  0  0  0  0
   57.7720   32.7250   43.4130 C   0  0  0  0  0  0  0  0  0  0  0  0
   57.5000   33.5350   44.5160 C   0  0  0  0  0  0  0  0  0  0  0  0
   57.6880   33.0400   45.8090 C   0  0  0  0  0  0  0  0  0  0  0  0
   58.1440   31.7320   46.0010 C   0  0  0  0  0  0  0  0  0  0  0  0
   55.0659   30.7885   43.9903 H   0  0  0  0  0  0  0  0  0  0  0  0
   56.2518   29.7575   43.1200 H   0  0  0  0  0  0  0  0  0  0  0  0
   54.5099   29.3187   43.1200 H   0  0  0  0  0  0  0  0  0  0  0  0
   58.5232   27.5046   44.4033 H   0  0  0  0  0  0  0  0  0  0  0  0
   57.7302   28.8307   43.4619 H   0  0  0  0  0  0  0  0  0  0  0  0
   59.9348   29.4171   44.6182 H   0  0  0  0  0  0  0  0  0  0  0  0
   58.3520   28.7720   47.0700 H   0  0  0  0  0  0  0  0  0  0  0  0
   60.5476   32.0211   49.3794 H   0  0  0  0  0  0  0  0  0  0  0  0
   59.1942   33.7400   53.1609 H   0  0  0  0  0  0  0  0  0  0  0  0
   59.3902   35.2717   52.2431 H   0  0  0  0  0  0  0  0  0  0  0  0
   57.8082   34.4208   52.2431 H   0  0  0  0  0  0  0  0  0  0  0  0
   57.4114   32.0491   52.3598 H   0  0  0  0  0  0  0  0  0  0  0  0
   55.5731   30.0107   53.6306 H   0  0  0  0  0  0  0  0  0  0  0  0
   55.4680   31.0631   52.1787 H   0  0  0  0  0  0  0  0  0  0  0  0
   54.6756   29.4511   52.1787 H   0  0  0  0  0  0  0  0  0  0  0  0
   58.3275   28.4046   50.2107 H   0  0  0  0  0  0  0  0  0  0  0  0
   58.4688   30.7924   42.7235 H   0  0  0  0  0  0  0  0  0  0  0  0
   57.6169   33.1136   42.3957 H   0  0  0  0  0  0  0  0  0  0  0  0
   57.1377   34.5630   44.3677 H   0  0  0  0  0  0  0  0  0  0  0  0
   57.4768   33.6806   46.6779 H   0  0  0  0  0  0  0  0  0  0  0  0
   58.2850   31.3454   47.0211 H   0  0  0  0  0  0  0  0  0  0  0  0
  1  2  1  0
  2  3  1  0
  3  4  2  0
  3  5  1  0
  5  6  1  0
  6  7  1  0
  7  8  1  0
  8  9  2  0
  8 10  1  0
 10 11  1  0
 11 12  2  0
 12 13  1  0
 13 14  1  0
 14 15  1  0
 13 16  2  0
 16 17  1  0
 17 18  1  0
 18 19  1  0
 17 20  2  0
  6 21  1  0
 21 22  2  0
 22 23  1  0
 23 24  2  0
 24 25  1  0
 25 26  2  0
 20 11  1  0
 26 21  1  0
  1 27  1  0
  1 28  1  0
  1 29  1  0
  5 30  1  0
  5 31  1  0
  6 32  1  6
  7 33  1  0
 12 34  1  0
 15 35  1  0
 15 36  1  0
 15 37  1  0
 16 38  1  0
 19 39  1  0
 19 40  1  0
 19 41  1  0
 20 42  1  0
 22 43  1  0
 23 44  1  0
 24 45  1  0
 25 46  1  0
 26 47  1  0
M  CHG  2   2  -1  10  -1
M  END
>  <UniqueID>  (80) 
73

>  <SMILES>  (80) 
C[N-]C(=O)C[C@H](NC(=O)[N-]c1cc(OC)cc(OC)c1)c1ccccc1

>  <Energy>  (80) 
43.07882790621267

>  <Genealogy>  (80) 
C[N-]C(=O)CC(NC(=O)[N-]c1cc(OC)cc(OC)c1)c1ccccc1 (protonated)
C[N-]C(=O)C[C@H](NC(=O)[N-]c1cc(OC)cc(OC)c1)c1ccccc1 (chirality)
C[N-]C(=O)C[C@H](NC(=O)[N-]c1cc(OC)cc(OC)c1)c1ccccc1 (3D coordinates assigned)
C[N-]C(=O)C[C@H](NC(=O)[N-]c1cc(OC)cc(OC)c1)c1ccccc1 (optimized conformer: 43.07882790621267 kcal/mol)

>  <smiles>  (80) 
CNC(=O)CC(NC(=O)Nc1cc(OC)cc(OC)c1)c1ccccc1

>  <score_type>  (80) 
oracle

>  <origin>  (80) 
adg

>  <m_score__min__energy>  (80) 
-10.34

>  <m_primary>  (80) 
energy

$$$$
80:0
     RDKit          3D

 41 43  0  0  0  0  0  0  0  0999 V2000
   60.6620   28.5210   47.7000 O   0  0  0  0  0  0  0  0  0  0  0  0
   59.5020   28.2260   47.3090 C   0  0  0  0  0  0  0  0  0  0  0  0
   58.9810   26.9270   47.6160 N   0  0  0  0  0  0  0  0  0  0  0  0
   59.2260   25.7250   46.8280 C   0  0  0  0  0  0  0  0  0  0  0  0
   57.9430   25.2860   46.1820 C   0  0  0  0  0  0  0  0  0  0  0  0
   57.9310   24.1850   45.3090 C   0  0  0  0  0  0  0  0  0  0  0  0
   56.7430   23.7980   44.6810 C   0  0  0  0  0  0  0  0  0  0  0  0
   55.5640   24.5130   44.9110 C   0  0  0  0  0  0  0  0  0  0  0  0
   55.5720   25.6190   45.7660 C   0  0  0  0  0  0  0  0  0  0  0  0
   54.4000   26.3340   45.9880 O   0  0  0  0  0  0  0  0  0  0  0  0
   56.7580   26.0100   46.3960 C   0  0  0  0  0  0  0  0  0  0  0  0
   58.7400   29.2130   46.5180 C   0  0  0  0  0  0  0  0  0  0  0  0
   57.7480   28.7990   45.6190 C   0  0  0  0  0  0  0  0  0  0  0  0
   57.0200   29.7570   44.9120 C   0  0  0  0  0  0  0  0  0  0  0  0
   57.2720   31.0790   45.0970 N   0  0  0  0  0  0  0  0  0  0  0  0
   58.2280   31.5200   45.9610 C   0  0  0  0  0  0  0  0  0  0  0  0
   58.4330   32.9340   46.1340 N   0  0  0  0  0  0  0  0  0  0  0  0
   57.9250   33.9070   45.1570 C   0  0  0  0  0  0  0  0  0  0  0  0
   58.9730   35.0040   44.8820 C   0  0  0  0  0  0  0  0  0  0  0  0
   59.8970   35.2470   46.0090 N   0  0  0  0  0  0  0  0  0  0  0  0
   59.2960   34.9290   47.3100 C   0  0  0  0  0  0  0  0  0  0  0  0
   58.9790   33.4300   47.4020 C   0  0  0  0  0  0  0  0  0  0  0  0
   58.9640   30.5830   46.7070 C   0  0  0  0  0  0  0  0  0  0  0  0
   59.9738   25.9410   46.0508 H   0  0  0  0  0  0  0  0  0  0  0  0
   59.6020   24.9250   47.4827 H   0  0  0  0  0  0  0  0  0  0  0  0
   58.8590   23.6258   45.1190 H   0  0  0  0  0  0  0  0  0  0  0  0
   56.7362   22.9300   44.0053 H   0  0  0  0  0  0  0  0  0  0  0  0
   54.6295   24.2052   44.4190 H   0  0  0  0  0  0  0  0  0  0  0  0
   56.7630   26.8865   47.0606 H   0  0  0  0  0  0  0  0  0  0  0  0
   57.5448   27.7280   45.4718 H   0  0  0  0  0  0  0  0  0  0  0  0
   56.2404   29.4409   44.2033 H   0  0  0  0  0  0  0  0  0  0  0  0
   57.6927   33.3861   44.2164 H   0  0  0  0  0  0  0  0  0  0  0  0
   57.0197   34.3787   45.5668 H   0  0  0  0  0  0  0  0  0  0  0  0
   59.5668   34.7036   44.0062 H   0  0  0  0  0  0  0  0  0  0  0  0
   58.4190   35.9398   44.7166 H   0  0  0  0  0  0  0  0  0  0  0  0
   60.7490   34.6500   45.8830 H   0  0  0  0  0  0  0  0  0  0  0  0
   60.0002   35.2001   48.1104 H   0  0  0  0  0  0  0  0  0  0  0  0
   58.3612   35.4983   47.4195 H   0  0  0  0  0  0  0  0  0  0  0  0
   59.9022   32.8799   47.6368 H   0  0  0  0  0  0  0  0  0  0  0  0
   58.2298   33.2760   48.1926 H   0  0  0  0  0  0  0  0  0  0  0  0
   59.7132   30.9243   47.4366 H   0  0  0  0  0  0  0  0  0  0  0  0
  1  2  2  0
  2  3  1  0
  3  4  1  0
  4  5  1  0
  5  6  2  0
  6  7  1  0
  7  8  2  0
  8  9  1  0
  9 10  1  0
  9 11  2  0
  2 12  1  0
 12 13  2  0
 13 14  1  0
 14 15  2  0
 15 16  1  0
 16 17  1  0
 17 18  1  0
 18 19  1  0
 19 20  1  0
 20 21  1  0
 21 22  1  0
 16 23  2  0
 11  5  1  0
 23 12  1  0
 22 17  1  0
  4 24  1  0
  4 25  1  0
  6 26  1  0
  7 27  1  0
  8 28  1  0
 11 29  1  0
 13 30  1  0
 14 31  1  0
 18 32  1  0
 18 33  1  0
 19 34  1  0
 19 35  1  0
 20 36  1  0
 21 37  1  0
 21 38  1  0
 22 39  1  0
 22 40  1  0
 23 41  1  0
M  CHG  2   3  -1  10  -1
M  END
>  <UniqueID>  (81) 
74

>  <SMILES>  (81) 
O=C([N-]Cc1cccc([O-])c1)c1ccnc(N2CCNCC2)c1

>  <Energy>  (81) 
53.969701021137105

>  <Genealogy>  (81) 
O=C([N-]Cc1cccc([O-])c1)c1ccnc(N2CCNCC2)c1 (protonated)
O=C([N-]Cc1cccc([O-])c1)c1ccnc(N2CCNCC2)c1 (3D coordinates assigned)
O=C([N-]Cc1cccc([O-])c1)c1ccnc(N2CCNCC2)c1 (nonaromatic ring conformer: 53.969701021137105 kcal/mol)

>  <smiles>  (81) 
O=C(NCc1cccc(O)c1)c1ccnc(N2CCNCC2)c1

>  <score_type>  (81) 
oracle

>  <origin>  (81) 
adg

>  <m_score__min__energy>  (81) 
-12.789999999999999

>  <m_primary>  (81) 
energy

$$$$
81:0
     RDKit          3D

 54 58  0  0  0  0  0  0  0  0999 V2000
   56.3966   33.3196   44.5754 H   0  0  0  0  0  0  0  0  0  0  0  0
   57.0210   32.4690   44.8860 C   0  0  0  0  0  0  0  0  0  0  0  0
   56.6410   31.1800   44.8860 N   0  0  0  0  0  0  0  0  0  0  0  0
   57.7310   30.5250   45.3470 C   0  0  0  0  0  0  0  0  0  0  0  0
   57.7950   29.2330   45.4790 N   0  0  0  0  0  0  0  0  0  0  0  0
   58.1700   28.5410   46.6780 C   0  0  0  0  0  0  0  0  0  0  0  0
   57.7700   27.3570   46.8390 O   0  0  0  0  0  0  0  0  0  0  0  0
   59.0540   29.1540   47.6990 C   0  0  0  0  0  0  0  0  0  0  0  0
   60.3550   29.5510   47.3570 C   0  0  0  0  0  0  0  0  0  0  0  0
   60.7254   29.3855   46.3345 H   0  0  0  0  0  0  0  0  0  0  0  0
   61.1850   30.1560   48.3070 C   0  0  0  0  0  0  0  0  0  0  0  0
   62.2154   30.4291   48.0356 H   0  0  0  0  0  0  0  0  0  0  0  0
   60.7140   30.4180   49.6050 C   0  0  0  0  0  0  0  0  0  0  0  0
   61.6330   31.0330   50.6430 C   0  0  2  0  0  0  0  0  0  0  0  0
   61.1464   32.0189   50.6782 H   0  0  0  0  0  0  0  0  0  0  0  0
   63.1330   30.8530   50.3900 C   0  0  0  0  0  0  0  0  0  0  0  0
   63.3574   30.3007   49.4655 H   0  0  0  0  0  0  0  0  0  0  0  0
   63.7565   31.7470   50.2419 H   0  0  0  0  0  0  0  0  0  0  0  0
   63.3200   30.0540   51.6070 N   0  0  1  0  0  0  0  0  0  0  0  0
   63.6120   29.0680   51.4000 H   0  0  0  0  0  0  0  0  0  0  0  0
   64.1680   30.7100   52.6140 C   0  0  0  0  0  0  0  0  0  0  0  0
   63.8178   30.4391   53.6210 H   0  0  0  0  0  0  0  0  0  0  0  0
   65.2097   30.3804   52.4871 H   0  0  0  0  0  0  0  0  0  0  0  0
   64.1106   31.8011   52.4871 H   0  0  0  0  0  0  0  0  0  0  0  0
   61.8820   30.1710   51.8860 C   0  0  0  0  0  0  0  0  0  0  0  0
   61.3520   29.2074   51.8638 H   0  0  0  0  0  0  0  0  0  0  0  0
   61.5606   30.5492   52.8676 H   0  0  0  0  0  0  0  0  0  0  0  0
   59.4310   29.9680   49.9600 C   0  0  0  0  0  0  0  0  0  0  0  0
   59.0765   30.0931   50.9938 H   0  0  0  0  0  0  0  0  0  0  0  0
   58.6010   29.3630   49.0120 C   0  0  0  0  0  0  0  0  0  0  0  0
   57.5860   29.0484   49.2962 H   0  0  0  0  0  0  0  0  0  0  0  0
   58.7800   31.3230   45.6320 N   0  0  0  0  0  0  0  0  0  0  0  0
   58.3190   32.5520   45.3380 C   0  0  0  0  0  0  0  0  0  0  0  0
   59.1130   33.8080   45.5040 C   0  0  0  0  0  0  0  0  0  0  0  0
   58.4502   34.6763   45.3742 H   0  0  0  0  0  0  0  0  0  0  0  0
   59.9127   33.8286   44.7489 H   0  0  0  0  0  0  0  0  0  0  0  0
   59.7290   33.8560   46.8680 C   0  0  0  0  0  0  0  0  0  0  0  0
   59.0520   33.8370   48.0830 C   0  0  0  0  0  0  0  0  0  0  0  0
   57.9577   33.8296   48.1943 H   0  0  0  0  0  0  0  0  0  0  0  0
   59.9360   33.8290   49.1090 N   0  0  0  0  0  0  0  0  0  0  0  0
   59.6090   33.7980   50.5320 C   0  0  0  0  0  0  0  0  0  0  0  0
   60.5329   33.8856   51.1225 H   0  0  0  0  0  0  0  0  0  0  0  0
   58.9391   34.6367   50.7726 H   0  0  0  0  0  0  0  0  0  0  0  0
   59.1087   32.8484   50.7726 H   0  0  0  0  0  0  0  0  0  0  0  0
   61.1660   33.8230   48.5550 C   0  0  0  0  0  0  0  0  0  0  0  0
   62.4050   33.7970   49.2030 C   0  0  0  0  0  0  0  0  0  0  0  0
   62.4701   33.7794   50.3009 H   0  0  0  0  0  0  0  0  0  0  0  0
   63.5640   33.7940   48.4090 C   0  0  0  0  0  0  0  0  0  0  0  0
   64.5544   33.7799   48.8874 H   0  0  0  0  0  0  0  0  0  0  0  0
   63.4650   33.8090   47.0000 C   0  0  0  0  0  0  0  0  0  0  0  0
   64.3798   33.8074   46.3891 H   0  0  0  0  0  0  0  0  0  0  0  0
   62.2080   33.8260   46.3720 C   0  0  0  0  0  0  0  0  0  0  0  0
   62.1207   33.8297   45.2755 H   0  0  0  0  0  0  0  0  0  0  0  0
   61.0760   33.8380   47.1840 C   0  0  0  0  0  0  0  0  0  0  0  0
  1  2  1  0
  2  3  1  0
  3  4  1  0
  4  5  2  0
  5  6  1  0
  6  7  2  0
  6  8  1  0
  8  9  2  0
  9 10  1  0
  9 11  1  0
 11 12  1  0
 11 13  2  0
 13 14  1  0
 14 15  1  6
 14 16  1  0
 16 17  1  0
 16 18  1  0
 16 19  1  0
 19 20  1  1
 19 21  1  0
 21 22  1  0
 21 23  1  0
 21 24  1  0
 19 25  1  0
 25 26  1  0
 25 27  1  0
 13 28  1  0
 28 29  1  0
 28 30  2  0
 30 31  1  0
  4 32  1  0
 32 33  1  0
 33 34  1  0
 34 35  1  0
 34 36  1  0
 34 37  1  0
 37 38  2  0
 38 39  1  0
 38 40  1  0
 40 41  1  0
 41 42  1  0
 41 43  1  0
 41 44  1  0
 40 45  1  0
 45 46  2  0
 46 47  1  0
 46 48  1  0
 48 49  1  0
 48 50  2  0
 50 51  1  0
 50 52  1  0
 52 53  1  0
 52 54  2  0
 33  2  2  0
 54 37  1  0
 30  8  1  0
 54 45  1  0
 25 14  1  0
M  CHG  3   3  -1  19   1  32  -1
M  END
>  <UniqueID>  (82) 
75

>  <SMILES>  (82) 
Cn1cc(Cc2c[n-]/c(=N\C(=O)c3ccc(C4C[NH+](C)C4)cc3)[n-]2)c2ccccc21

>  <Energy>  (82) 
199.46788573068667

>  <Genealogy>  (82) 
Cn1cc(Cc2c[n-]c(=NC(=O)c3ccc(C4C[NH+](C)C4)cc3)[n-]2)c2ccccc21 (protonated)
Cn1cc(Cc2c[n-]/c(=N\C(=O)c3ccc(C4C[NH+](C)C4)cc3)[n-]2)c2ccccc21 (cis-trans isomerization)
Cn1cc(Cc2c[n-]/c(=N\C(=O)c3ccc(C4C[NH+](C)C4)cc3)[n-]2)c2ccccc21 (3D coordinates assigned)
Cn1cc(Cc2c[n-]/c(=N\C(=O)c3ccc(C4C[NH+](C)C4)cc3)[n-]2)c2ccccc21 (nonaromatic ring conformer: 199.46788573068667 kcal/mol)

>  <smiles>  (82) 
CN1CC(c2ccc(C(=O)N=c3[nH]cc(Cc4cn(C)c5ccccc45)[nH]3)cc2)C1

>  <score_type>  (82) 
oracle

>  <origin>  (82) 
adg

>  <m_score__min__energy>  (82) 
-10.01

>  <m_primary>  (82) 
energy

$$$$
82:0
     RDKit          3D

 46 49  0  0  0  0  0  0  0  0999 V2000
   55.6640   21.8490   48.4240 C   0  0  0  0  0  0  0  0  0  0  0  0
   56.7310   22.2220   47.5580 O   0  0  0  0  0  0  0  0  0  0  0  0
   56.8320   23.4650   46.9160 C   0  0  0  0  0  0  0  0  0  0  0  0
   58.0660   23.8330   46.3700 C   0  0  0  0  0  0  0  0  0  0  0  0
   58.2180   25.0620   45.7240 C   0  0  0  0  0  0  0  0  0  0  0  0
   57.1390   25.9520   45.6240 C   0  0  0  0  0  0  0  0  0  0  0  0
   57.3220   27.2030   44.9430 N   0  0  0  0  0  0  0  0  0  0  0  0
   58.1720   28.2500   45.4390 C   0  0  0  0  0  0  0  0  0  0  0  0
   59.0530   27.9810   46.3010 O   0  0  0  0  0  0  0  0  0  0  0  0
   58.0560   29.6350   44.9200 C   0  0  0  0  0  0  0  0  0  0  0  0
   57.5040   29.8840   43.6330 C   0  0  0  0  0  0  0  0  0  0  0  0
   57.3810   31.1970   43.1410 C   0  0  0  0  0  0  0  0  0  0  0  0
   57.8140   32.2360   43.9570 C   0  0  0  0  0  0  0  0  0  0  0  0
   57.7950   33.5270   43.7190 O   0  0  0  0  0  0  0  0  0  0  0  0
   58.3050   34.0920   44.8000 C   0  0  0  0  0  0  0  0  0  0  0  0
   58.4370   35.3370   44.9320 O   0  0  0  0  0  0  0  0  0  0  0  0
   58.6640   33.1910   45.7470 N   0  0  0  0  0  0  0  0  0  0  0  0
   59.3380   33.4870   47.3180 S   0  0  0  0  0  0  0  0  0  0  0  0
   58.6500   32.6390   48.3480 O   0  0  0  0  0  0  0  0  0  0  0  0
   59.1370   34.9350   47.6740 O   0  0  0  0  0  0  0  0  0  0  0  0
   61.0510   33.0820   47.2950 C   0  0  0  0  0  0  0  0  0  0  0  0
   61.9840   33.9320   46.6840 C   0  0  0  0  0  0  0  0  0  0  0  0
   63.3400   33.5880   46.6670 C   0  0  0  0  0  0  0  0  0  0  0  0
   63.7690   32.3960   47.2590 C   0  0  0  0  0  0  0  0  0  0  0  0
   62.8410   31.5450   47.8660 C   0  0  0  0  0  0  0  0  0  0  0  0
   61.4840   31.8840   47.8830 C   0  0  0  0  0  0  0  0  0  0  0  0
   58.3410   32.0100   45.1960 C   0  0  0  0  0  0  0  0  0  0  0  0
   58.4770   30.7250   45.7190 C   0  0  0  0  0  0  0  0  0  0  0  0
   55.8850   25.5730   46.1460 C   0  0  0  0  0  0  0  0  0  0  0  0
   54.7740   26.3970   45.9970 O   0  0  0  0  0  0  0  0  0  0  0  0
   55.7390   24.3440   46.7970 C   0  0  0  0  0  0  0  0  0  0  0  0
   55.9847   21.9611   49.4702 H   0  0  0  0  0  0  0  0  0  0  0  0
   54.7952   22.4967   48.2354 H   0  0  0  0  0  0  0  0  0  0  0  0
   55.3879   20.8010   48.2354 H   0  0  0  0  0  0  0  0  0  0  0  0
   58.9237   23.1490   46.4500 H   0  0  0  0  0  0  0  0  0  0  0  0
   59.1917   25.3339   45.2903 H   0  0  0  0  0  0  0  0  0  0  0  0
   56.9660   27.2810   43.9630 H   0  0  0  0  0  0  0  0  0  0  0  0
   57.1687   29.0390   43.0138 H   0  0  0  0  0  0  0  0  0  0  0  0
   56.9570   31.3942   42.1454 H   0  0  0  0  0  0  0  0  0  0  0  0
   61.6494   34.8703   46.2175 H   0  0  0  0  0  0  0  0  0  0  0  0
   64.0700   34.2564   46.1871 H   0  0  0  0  0  0  0  0  0  0  0  0
   64.8358   32.1282   47.2470 H   0  0  0  0  0  0  0  0  0  0  0  0
   63.1784   30.6070   48.3311 H   0  0  0  0  0  0  0  0  0  0  0  0
   60.7555   31.2105   48.3580 H   0  0  0  0  0  0  0  0  0  0  0  0
   58.8986   30.5630   46.7220 H   0  0  0  0  0  0  0  0  0  0  0  0
   54.7631   24.0622   47.2191 H   0  0  0  0  0  0  0  0  0  0  0  0
  1  2  1  0
  2  3  1  0
  3  4  2  0
  4  5  1  0
  5  6  2  0
  6  7  1  0
  7  8  1  0
  8  9  2  0
  8 10  1  0
 10 11  2  0
 11 12  1  0
 12 13  2  0
 13 14  1  0
 14 15  1  0
 15 16  2  0
 15 17  1  0
 17 18  1  0
 18 19  2  0
 18 20  2  0
 18 21  1  0
 21 22  2  0
 22 23  1  0
 23 24  2  0
 24 25  1  0
 25 26  2  0
 17 27  1  0
 27 28  2  0
  6 29  1  0
 29 30  1  0
 29 31  2  0
 31  3  1  0
 28 10  1  0
 27 13  1  0
 26 21  1  0
  1 32  1  0
  1 33  1  0
  1 34  1  0
  4 35  1  0
  5 36  1  0
  7 37  1  0
 11 38  1  0
 12 39  1  0
 22 40  1  0
 23 41  1  0
 24 42  1  0
 25 43  1  0
 26 44  1  0
 28 45  1  0
 31 46  1  0
M  CHG  1  30  -1
M  END
>  <UniqueID>  (83) 
76

>  <SMILES>  (83) 
COc1ccc(NC(=O)c2ccc3oc(=O)n(S(=O)(=O)c4ccccc4)c3c2)c([O-])c1

>  <Energy>  (83) 
100.67212526043421

>  <Genealogy>  (83) 
COc1ccc(NC(=O)c2ccc3oc(=O)n(S(=O)(=O)c4ccccc4)c3c2)c([O-])c1 (protonated)
COc1ccc(NC(=O)c2ccc3oc(=O)n(S(=O)(=O)c4ccccc4)c3c2)c([O-])c1 (3D coordinates assigned)
COc1ccc(NC(=O)c2ccc3oc(=O)n(S(=O)(=O)c4ccccc4)c3c2)c([O-])c1 (optimized conformer: 100.67212526043421 kcal/mol)

>  <smiles>  (83) 
COc1ccc(NC(=O)c2ccc3oc(=O)n(S(=O)(=O)c4ccccc4)c3c2)c(O)c1

>  <score_type>  (83) 
oracle

>  <origin>  (83) 
adg

>  <m_score__min__energy>  (83) 
-13.789999999999999

>  <m_primary>  (83) 
energy

$$$$
83:0
     RDKit          3D

 49 51  0  0  0  0  0  0  0  0999 V2000
   61.1510   28.2430   50.6760 O   0  0  0  0  0  0  0  0  0  0  0  0
   61.6340   29.3620   50.3530 C   0  0  0  0  0  0  0  0  0  0  0  0
   62.5000   30.0980   51.3310 C   0  0  0  0  0  0  0  0  0  0  0  0
   63.3270   31.1830   50.6330 C   0  0  0  0  0  0  0  0  0  0  0  0
   62.4770   32.2910   50.1870 N   0  0  0  0  0  0  0  0  0  0  0  0
   62.8680   32.7760   48.5630 S   0  0  0  0  0  0  0  0  0  0  0  0
   64.0070   33.7580   48.5910 O   0  0  0  0  0  0  0  0  0  0  0  0
   63.2860   31.5670   47.7760 O   0  0  0  0  0  0  0  0  0  0  0  0
   61.4620   33.5040   47.7910 C   0  0  0  0  0  0  0  0  0  0  0  0
   61.4020   33.6020   46.3940 C   0  0  0  0  0  0  0  0  0  0  0  0
   60.2870   34.1760   45.7770 C   0  0  0  0  0  0  0  0  0  0  0  0
   59.2290   34.6600   46.5520 C   0  0  0  0  0  0  0  0  0  0  0  0
   59.2870   34.5710   47.9470 C   0  0  0  0  0  0  0  0  0  0  0  0
   60.4010   33.9960   48.5660 C   0  0  0  0  0  0  0  0  0  0  0  0
   61.3620   29.9320   49.0630 N   0  0  0  0  0  0  0  0  0  0  0  0
   60.3420   29.4530   48.1710 C   0  0  0  0  0  0  0  0  0  0  0  0
   60.3960   28.1580   47.6230 C   0  0  0  0  0  0  0  0  0  0  0  0
   59.3780   27.7060   46.7800 C   0  0  0  0  0  0  0  0  0  0  0  0
   58.2870   28.5330   46.4830 C   0  0  0  0  0  0  0  0  0  0  0  0
   57.0130   27.9820   45.3990 S   0  0  0  0  0  0  0  0  0  0  0  0
   57.5970   27.2530   44.2210 O   0  0  0  0  0  0  0  0  0  0  0  0
   56.1080   27.0400   46.1410 O   0  0  0  0  0  0  0  0  0  0  0  0
   56.0890   29.3420   44.8420 N   0  0  0  0  0  0  0  0  0  0  0  0
   56.6170   30.4170   44.3410 C   0  0  0  0  0  0  0  0  0  0  0  0
   56.8890   30.4780   42.9690 C   0  0  0  0  0  0  0  0  0  0  0  0
   57.4570   31.6370   42.4340 C   0  0  0  0  0  0  0  0  0  0  0  0
   57.7450   32.7200   43.2670 C   0  0  0  0  0  0  0  0  0  0  0  0
   57.4600   32.6260   44.6300 C   0  0  0  0  0  0  0  0  0  0  0  0
   56.9090   31.4890   45.1330 N   0  0  0  0  0  0  0  0  0  0  0  0
   58.2210   29.8160   47.0400 C   0  0  0  0  0  0  0  0  0  0  0  0
   59.2370   30.2680   47.8870 C   0  0  0  0  0  0  0  0  0  0  0  0
   61.8609   30.5686   52.0927 H   0  0  0  0  0  0  0  0  0  0  0  0
   63.1907   29.3782   51.7945 H   0  0  0  0  0  0  0  0  0  0  0  0
   64.0799   31.5686   51.3362 H   0  0  0  0  0  0  0  0  0  0  0  0
   63.8122   30.7388   49.7514 H   0  0  0  0  0  0  0  0  0  0  0  0
   62.2348   33.2261   45.7816 H   0  0  0  0  0  0  0  0  0  0  0  0
   60.2419   34.2470   44.6802 H   0  0  0  0  0  0  0  0  0  0  0  0
   58.3514   35.1105   46.0653 H   0  0  0  0  0  0  0  0  0  0  0  0
   58.4556   34.9537   48.5572 H   0  0  0  0  0  0  0  0  0  0  0  0
   60.4457   33.9292   49.6631 H   0  0  0  0  0  0  0  0  0  0  0  0
   61.9860   30.7000   48.7270 H   0  0  0  0  0  0  0  0  0  0  0  0
   61.2440   27.4985   47.8596 H   0  0  0  0  0  0  0  0  0  0  0  0
   59.4333   26.6961   46.3474 H   0  0  0  0  0  0  0  0  0  0  0  0
   56.6577   29.6217   42.3185 H   0  0  0  0  0  0  0  0  0  0  0  0
   57.6770   31.6962   41.3579 H   0  0  0  0  0  0  0  0  0  0  0  0
   58.1913   33.6366   42.8538 H   0  0  0  0  0  0  0  0  0  0  0  0
   57.6811   33.4718   45.2976 H   0  0  0  0  0  0  0  0  0  0  0  0
   57.3670   30.4702   46.8103 H   0  0  0  0  0  0  0  0  0  0  0  0
   59.1691   31.2707   48.3341 H   0  0  0  0  0  0  0  0  0  0  0  0
  1  2  2  0
  2  3  1  0
  3  4  1  0
  4  5  1  0
  5  6  1  0
  6  7  2  0
  6  8  2  0
  6  9  1  0
  9 10  2  0
 10 11  1  0
 11 12  2  0
 12 13  1  0
 13 14  2  0
  2 15  1  0
 15 16  1  0
 16 17  2  0
 17 18  1  0
 18 19  2  0
 19 20  1  0
 20 21  2  0
 20 22  2  0
 20 23  1  0
 23 24  2  3
 24 25  1  0
 25 26  2  0
 26 27  1  0
 27 28  2  0
 28 29  1  0
 19 30  1  0
 30 31  2  0
 14  9  1  0
 31 16  1  0
 29 24  1  0
  3 32  1  0
  3 33  1  0
  4 34  1  0
  4 35  1  0
 10 36  1  0
 11 37  1  0
 12 38  1  0
 13 39  1  0
 14 40  1  0
 15 41  1  0
 17 42  1  0
 18 43  1  0
 25 44  1  0
 26 45  1  0
 27 46  1  0
 28 47  1  0
 30 48  1  0
 31 49  1  0
M  CHG  2   5  -1  29  -1
M  END
>  <UniqueID>  (84) 
77

>  <SMILES>  (84) 
O=C(CC[N-]S(=O)(=O)c1ccccc1)Nc1ccc(S(=O)(=O)N=c2cccc[n-]2)cc1

>  <Energy>  (84) 
55.210635709473415

>  <Genealogy>  (84) 
O=C(CC[N-]S(=O)(=O)c1ccccc1)Nc1ccc(S(=O)(=O)N=c2cccc[n-]2)cc1 (protonated)
O=C(CC[N-]S(=O)(=O)c1ccccc1)Nc1ccc(S(=O)(=O)N=c2cccc[n-]2)cc1 (3D coordinates assigned)
O=C(CC[N-]S(=O)(=O)c1ccccc1)Nc1ccc(S(=O)(=O)N=c2cccc[n-]2)cc1 (optimized conformer: 55.210635709473415 kcal/mol)

>  <smiles>  (84) 
O=C(CCNS(=O)(=O)c1ccccc1)Nc1ccc(S(=O)(=O)N=c2cccc[nH]2)cc1

>  <score_type>  (84) 
oracle

>  <origin>  (84) 
adg

>  <m_score__min__energy>  (84) 
-11.109999999999999

>  <m_primary>  (84) 
energy

$$$$
84:0
     RDKit          3D

 50 52  0  0  0  0  0  0  0  0999 V2000
   51.4680   20.2970   49.6060 C   0  0  0  0  0  0  0  0  0  0  0  0
   51.4790   21.7490   49.7880 N   0  0  0  0  0  0  0  0  0  0  0  0
   51.5140   22.2630   51.1590 C   0  0  0  0  0  0  0  0  0  0  0  0
   50.9860   22.5930   48.7320 C   0  0  0  0  0  0  0  0  0  0  0  0
   50.0470   23.4020   48.9690 O   0  0  0  0  0  0  0  0  0  0  0  0
   51.5340   22.5160   47.3640 C   0  0  0  0  0  0  0  0  0  0  0  0
   50.8240   22.8740   46.2770 N   0  0  0  0  0  0  0  0  0  0  0  0
   51.7010   22.7170   45.2620 C   0  0  0  0  0  0  0  0  0  0  0  0
   51.3980   22.9530   44.0640 O   0  0  0  0  0  0  0  0  0  0  0  0
   52.9290   22.3010   45.6370 N   0  0  0  0  0  0  0  0  0  0  0  0
   52.8210   22.1610   46.9710 C   0  0  0  0  0  0  0  0  0  0  0  0
   54.0000   21.8670   47.8550 C   0  0  0  0  0  0  0  0  0  0  0  0
   55.2190   22.5370   47.3050 C   0  0  0  0  0  0  0  0  0  0  0  0
   56.3570   22.1970   47.7310 O   0  0  0  0  0  0  0  0  0  0  0  0
   55.0950   23.5940   46.3450 N   0  0  0  0  0  0  0  0  0  0  0  0
   56.1550   24.5320   46.1150 C   0  0  0  0  0  0  0  0  0  0  0  0
   57.4740   24.0690   46.0040 C   0  0  0  0  0  0  0  0  0  0  0  0
   58.5200   24.9730   45.8170 C   0  0  0  0  0  0  0  0  0  0  0  0
   58.2600   26.3440   45.7480 C   0  0  0  0  0  0  0  0  0  0  0  0
   56.9440   26.8310   45.8470 C   0  0  0  0  0  0  0  0  0  0  0  0
   56.7260   28.2570   45.7950 N   0  0  0  0  0  0  0  0  0  0  0  0
   57.7380   29.2450   46.0600 C   0  0  0  0  0  0  0  0  0  0  0  0
   58.7040   28.9600   47.0380 C   0  0  0  0  0  0  0  0  0  0  0  0
   59.7660   29.8390   47.2680 C   0  0  0  0  0  0  0  0  0  0  0  0
   59.8720   31.0140   46.5240 C   0  0  0  0  0  0  0  0  0  0  0  0
   58.9010   31.3300   45.5700 C   0  0  0  0  0  0  0  0  0  0  0  0
   57.8080   30.4700   45.3410 C   0  0  0  0  0  0  0  0  0  0  0  0
   56.7510   30.8940   44.3860 C   0  0  0  0  0  0  0  0  0  0  0  0
   55.4590   30.2890   44.4310 N   0  0  0  0  0  0  0  0  0  0  0  0
   56.9950   31.7560   43.4990 O   0  0  0  0  0  0  0  0  0  0  0  0
   55.8820   25.9090   45.9890 C   0  0  0  0  0  0  0  0  0  0  0  0
   54.5570   26.3410   45.9660 O   0  0  0  0  0  0  0  0  0  0  0  0
   51.4643   19.8042   50.5894 H   0  0  0  0  0  0  0  0  0  0  0  0
   50.5676   20.0045   49.0459 H   0  0  0  0  0  0  0  0  0  0  0  0
   52.3638   19.9909   49.0459 H   0  0  0  0  0  0  0  0  0  0  0  0
   51.4568   21.4231   51.8670 H   0  0  0  0  0  0  0  0  0  0  0  0
   52.4518   22.8149   51.3198 H   0  0  0  0  0  0  0  0  0  0  0  0
   50.6597   22.9370   51.3198 H   0  0  0  0  0  0  0  0  0  0  0  0
   53.8006   22.2446   48.8687 H   0  0  0  0  0  0  0  0  0  0  0  0
   54.1662   20.7803   47.8929 H   0  0  0  0  0  0  0  0  0  0  0  0
   54.2510   23.6250   45.7270 H   0  0  0  0  0  0  0  0  0  0  0  0
   57.6843   22.9910   46.0645 H   0  0  0  0  0  0  0  0  0  0  0  0
   59.5525   24.6053   45.7236 H   0  0  0  0  0  0  0  0  0  0  0  0
   59.0930   27.0499   45.6149 H   0  0  0  0  0  0  0  0  0  0  0  0
   55.7550   28.5990   45.6170 H   0  0  0  0  0  0  0  0  0  0  0  0
   58.6243   28.0358   47.6291 H   0  0  0  0  0  0  0  0  0  0  0  0
   60.5181   29.6042   48.0356 H   0  0  0  0  0  0  0  0  0  0  0  0
   60.7215   31.6932   46.6885 H   0  0  0  0  0  0  0  0  0  0  0  0
   58.9907   32.2609   44.9909 H   0  0  0  0  0  0  0  0  0  0  0  0
   54.7810   30.5280   45.1880 H   0  0  0  0  0  0  0  0  0  0  0  0
  1  2  1  0
  2  3  1  0
  2  4  1  0
  4  5  2  0
  4  6  1  0
  6  7  1  0
  7  8  1  0
  8  9  2  0
  8 10  1  0
 10 11  1  0
 11 12  1  0
 12 13  1  0
 13 14  2  0
 13 15  1  0
 15 16  1  0
 16 17  2  0
 17 18  1  0
 18 19  2  0
 19 20  1  0
 20 21  1  0
 21 22  1  0
 22 23  2  0
 23 24  1  0
 24 25  2  0
 25 26  1  0
 26 27  2  0
 27 28  1  0
 28 29  1  0
 28 30  2  0
 20 31  2  0
 31 32  1  0
 11  6  2  0
 31 16  1  0
 27 22  1  0
  1 33  1  0
  1 34  1  0
  1 35  1  0
  3 36  1  0
  3 37  1  0
  3 38  1  0
 12 39  1  0
 12 40  1  0
 15 41  1  0
 17 42  1  0
 18 43  1  0
 19 44  1  0
 21 45  1  0
 23 46  1  0
 24 47  1  0
 25 48  1  0
 26 49  1  0
 29 50  1  0
M  CHG  4   7  -1  10  -1  29  -1  32  -1
M  END
>  <UniqueID>  (85) 
78

>  <SMILES>  (85) 
CN(C)C(=O)c1[n-]c(=O)[n-]c1CC(=O)Nc1cccc(Nc2ccccc2C([NH-])=O)c1[O-]

>  <Energy>  (85) 
96.67746661994539

>  <Genealogy>  (85) 
CN(C)C(=O)c1[n-]c(=O)[n-]c1CC(=O)Nc1cccc(Nc2ccccc2C([NH-])=O)c1[O-] (protonated)
CN(C)C(=O)c1[n-]c(=O)[n-]c1CC(=O)Nc1cccc(Nc2ccccc2C([NH-])=O)c1[O-] (3D coordinates assigned)
CN(C)C(=O)c1[n-]c(=O)[n-]c1CC(=O)Nc1cccc(Nc2ccccc2C([NH-])=O)c1[O-] (optimized conformer: 96.67746661994539 kcal/mol)

>  <smiles>  (85) 
CN(C)C(=O)c1[nH]c(=O)[nH]c1CC(=O)Nc1cccc(Nc2ccccc2C(N)=O)c1O

>  <score_type>  (85) 
oracle

>  <origin>  (85) 
adg

>  <m_score__min__energy>  (85) 
-16.030000000000001

>  <m_primary>  (85) 
energy

$$$$
85:0
     RDKit          3D

 71 75  0  0  0  0  0  0  0  0999 V2000
   54.0840   30.5040   52.7340 C   0  0  0  0  0  0  0  0  0  0  0  0
   55.2890   31.1970   53.0400 O   0  0  0  0  0  0  0  0  0  0  0  0
   56.4970   31.0250   52.3490 C   0  0  0  0  0  0  0  0  0  0  0  0
   57.0140   32.1130   51.6360 C   0  0  0  0  0  0  0  0  0  0  0  0
   58.2140   31.9950   50.9280 C   0  0  0  0  0  0  0  0  0  0  0  0
   58.9110   30.7780   50.9150 C   0  0  0  0  0  0  0  0  0  0  0  0
   60.2100   30.6530   50.1640 C   0  0  0  0  0  0  0  0  0  0  0  0
   60.3130   29.2970   49.5060 C   0  0  0  0  0  0  0  0  0  0  0  0
   59.7520   29.1130   48.2350 C   0  0  0  0  0  0  0  0  0  0  0  0
   59.8680   27.8820   47.5700 C   0  0  0  0  0  0  0  0  0  0  0  0
   59.3260   27.6950   46.1650 C   0  0  1  0  0  0  0  0  0  0  0  0
   57.8200   28.0290   46.0960 C   0  0  0  0  0  0  0  0  0  0  0  0
   57.3510   28.1330   44.6340 C   0  0  0  0  0  0  0  0  0  0  0  0
   58.1390   29.1090   43.8230 N   0  0  1  0  0  0  0  0  0  0  0  0
   57.3410   30.2260   43.3490 C   0  0  0  0  0  0  0  0  0  0  0  0
   56.4040   30.0050   42.5930 O   0  0  0  0  0  0  0  0  0  0  0  0
   57.7490   31.6660   43.6020 C   0  0  0  0  0  0  0  0  0  0  0  0
   57.6910   32.0660   45.0870 C   0  0  0  0  0  0  0  0  0  0  0  0
   58.3190   33.7190   45.3960 S   0  0  0  0  0  0  0  0  0  0  0  0
   58.8920   34.2780   44.1210 O   0  0  0  0  0  0  0  0  0  0  0  0
   57.1770   34.5940   45.8370 O   0  0  0  0  0  0  0  0  0  0  0  0
   59.5420   33.7150   46.6660 C   0  0  0  0  0  0  0  0  0  0  0  0
   59.1910   34.1030   47.9650 C   0  0  0  0  0  0  0  0  0  0  0  0
   60.1310   34.0470   48.9980 C   0  0  0  0  0  0  0  0  0  0  0  0
   61.4390   33.6100   48.7400 C   0  0  0  0  0  0  0  0  0  0  0  0
   62.3870   33.5340   49.7710 C   0  0  0  0  0  0  0  0  0  0  0  0
   63.6900   33.1110   49.4970 C   0  0  0  0  0  0  0  0  0  0  0  0
   64.8720   33.0210   50.7900 Cl  0  0  0  0  0  0  0  0  0  0  0  0
   64.0550   32.7550   48.1960 C   0  0  0  0  0  0  0  0  0  0  0  0
   63.1190   32.8200   47.1610 C   0  0  0  0  0  0  0  0  0  0  0  0
   61.8070   33.2450   47.4230 C   0  0  0  0  0  0  0  0  0  0  0  0
   60.8560   33.3070   46.3930 C   0  0  0  0  0  0  0  0  0  0  0  0
   59.3510   29.6300   44.4940 C   0  0  0  0  0  0  0  0  0  0  0  0
   60.1590   28.4950   45.1300 C   0  0  0  0  0  0  0  0  0  0  0  0
   60.5460   26.8390   48.2150 C   0  0  0  0  0  0  0  0  0  0  0  0
   61.0880   27.0290   49.4450 N   0  0  0  0  0  0  0  0  0  0  0  0
   61.0000   28.2160   50.1000 C   0  0  0  0  0  0  0  0  0  0  0  0
   61.7660   28.3420   51.6760 Cl  0  0  0  0  0  0  0  0  0  0  0  0
   58.4010   29.6860   51.6360 C   0  0  0  0  0  0  0  0  0  0  0  0
   57.2000   29.8060   52.3460 C   0  0  0  0  0  0  0  0  0  0  0  0
   53.5803   30.2143   53.6680 H   0  0  0  0  0  0  0  0  0  0  0  0
   53.4225   31.1596   52.1488 H   0  0  0  0  0  0  0  0  0  0  0  0
   54.3180   29.6025   52.1488 H   0  0  0  0  0  0  0  0  0  0  0  0
   56.4712   33.0697   51.6326 H   0  0  0  0  0  0  0  0  0  0  0  0
   58.6131   32.8605   50.3788 H   0  0  0  0  0  0  0  0  0  0  0  0
   60.2581   31.4347   49.3916 H   0  0  0  0  0  0  0  0  0  0  0  0
   61.0431   30.7683   50.8730 H   0  0  0  0  0  0  0  0  0  0  0  0
   59.2145   29.9428   47.7528 H   0  0  0  0  0  0  0  0  0  0  0  0
   59.4266   26.6323   45.8994 H   0  0  0  0  0  0  0  0  0  0  0  0
   57.6397   28.9890   46.6020 H   0  0  0  0  0  0  0  0  0  0  0  0
   57.2568   27.2242   46.5911 H   0  0  0  0  0  0  0  0  0  0  0  0
   56.2967   28.4466   44.6281 H   0  0  0  0  0  0  0  0  0  0  0  0
   57.4945   27.1427   44.1772 H   0  0  0  0  0  0  0  0  0  0  0  0
   58.4730   28.5910   42.9740 H   0  0  0  0  0  0  0  0  0  0  0  0
   58.7797   31.8044   43.2436 H   0  0  0  0  0  0  0  0  0  0  0  0
   57.0327   32.3055   43.0653 H   0  0  0  0  0  0  0  0  0  0  0  0
   56.6439   32.0212   45.4210 H   0  0  0  0  0  0  0  0  0  0  0  0
   58.3305   31.3632   45.6412 H   0  0  0  0  0  0  0  0  0  0  0  0
   58.1696   34.4539   48.1736 H   0  0  0  0  0  0  0  0  0  0  0  0
   59.8442   34.3466   50.0168 H   0  0  0  0  0  0  0  0  0  0  0  0
   62.1038   33.8082   50.7979 H   0  0  0  0  0  0  0  0  0  0  0  0
   65.0824   32.4226   47.9862 H   0  0  0  0  0  0  0  0  0  0  0  0
   63.4106   32.5376   46.1387 H   0  0  0  0  0  0  0  0  0  0  0  0
   61.1423   33.0343   45.3665 H   0  0  0  0  0  0  0  0  0  0  0  0
   59.0504   30.3404   45.2782 H   0  0  0  0  0  0  0  0  0  0  0  0
   59.9802   30.1285   43.7419 H   0  0  0  0  0  0  0  0  0  0  0  0
   61.0361   28.9244   45.6363 H   0  0  0  0  0  0  0  0  0  0  0  0
   60.4595   27.8031   44.3294 H   0  0  0  0  0  0  0  0  0  0  0  0
   60.6396   25.8603   47.7216 H   0  0  0  0  0  0  0  0  0  0  0  0
   58.9478   28.7315   51.6430 H   0  0  0  0  0  0  0  0  0  0  0  0
   56.8046   28.9441   52.9035 H   0  0  0  0  0  0  0  0  0  0  0  0
  1  2  1  0
  2  3  1  0
  3  4  2  0
  4  5  1  0
  5  6  2  0
  6  7  1  0
  7  8  1  0
  8  9  2  0
  9 10  1  0
 10 11  1  0
 11 12  1  0
 12 13  1  0
 13 14  1  0
 14 15  1  0
 15 16  2  0
 15 17  1  0
 17 18  1  0
 18 19  1  0
 19 20  2  0
 19 21  2  0
 19 22  1  0
 22 23  2  0
 23 24  1  0
 24 25  2  0
 25 26  1  0
 26 27  2  0
 27 28  1  0
 27 29  1  0
 29 30  2  0
 30 31  1  0
 31 32  2  0
 14 33  1  0
 33 34  1  0
 10 35  2  0
 35 36  1  0
 36 37  2  0
 37 38  1  0
  6 39  1  0
 39 40  2  0
 40  3  1  0
 37  8  1  0
 34 11  1  0
 32 22  1  0
 31 25  1  0
  1 41  1  0
  1 42  1  0
  1 43  1  0
  4 44  1  0
  5 45  1  0
  7 46  1  0
  7 47  1  0
  9 48  1  0
 11 49  1  6
 12 50  1  0
 12 51  1  0
 13 52  1  0
 13 53  1  0
 14 54  1  6
 17 55  1  0
 17 56  1  0
 18 57  1  0
 18 58  1  0
 23 59  1  0
 24 60  1  0
 26 61  1  0
 29 62  1  0
 30 63  1  0
 32 64  1  0
 33 65  1  0
 33 66  1  0
 34 67  1  0
 34 68  1  0
 35 69  1  0
 39 70  1  0
 40 71  1  0
M  CHG  1  14   1
M  END
>  <UniqueID>  (86) 
79

>  <SMILES>  (86) 
COc1ccc(Cc2cc(C3CC[NH+](C(=O)CCS(=O)(=O)c4ccc5cc(Cl)ccc5c4)CC3)cnc2Cl)cc1

>  <Energy>  (86) 
84.62852005646532

>  <Genealogy>  (86) 
COc1ccc(Cc2cc(C3CC[NH+](C(=O)CCS(=O)(=O)c4ccc5cc(Cl)ccc5c4)CC3)cnc2Cl)cc1 (protonated)
COc1ccc(Cc2cc(C3CC[NH+](C(=O)CCS(=O)(=O)c4ccc5cc(Cl)ccc5c4)CC3)cnc2Cl)cc1 (3D coordinates assigned)
COc1ccc(Cc2cc(C3CC[NH+](C(=O)CCS(=O)(=O)c4ccc5cc(Cl)ccc5c4)CC3)cnc2Cl)cc1 (nonaromatic ring conformer: 84.62852005646532 kcal/mol)

>  <smiles>  (86) 
COc1ccc(Cc2cc(C3CCN(C(=O)CCS(=O)(=O)c4ccc5cc(Cl)ccc5c4)CC3)cnc2Cl)cc1

>  <score_type>  (86) 
oracle

>  <origin>  (86) 
adg

>  <m_score__min__energy>  (86) 
-10.550000000000001

>  <m_primary>  (86) 
energy

$$$$
86:0
     RDKit          3D

 43 45  0  0  0  0  0  0  0  0999 V2000
   57.7770   29.9250   50.6550 O   0  0  0  0  0  0  0  0  0  0  0  0
   58.9120   30.2800   50.2360 C   0  0  0  0  0  0  0  0  0  0  0  0
   60.1020   29.4210   50.5040 C   0  0  0  0  0  0  0  0  0  0  0  0
   60.4310   28.6980   49.3220 O   0  0  0  0  0  0  0  0  0  0  0  0
   59.8830   28.9550   48.0570 C   0  0  0  0  0  0  0  0  0  0  0  0
   58.7140   28.3220   47.5960 C   0  0  0  0  0  0  0  0  0  0  0  0
   58.2050   28.6150   46.3270 C   0  0  0  0  0  0  0  0  0  0  0  0
   58.8590   29.5410   45.4920 C   0  0  0  0  0  0  0  0  0  0  0  0
   58.3660   29.8660   44.1790 N   0  0  0  0  0  0  0  0  0  0  0  0
   57.1150   31.0290   43.8710 S   0  0  0  0  0  0  0  0  0  0  0  0
   55.8330   30.5550   44.4950 O   0  0  0  0  0  0  0  0  0  0  0  0
   56.9180   31.1650   42.3860 O   0  0  0  0  0  0  0  0  0  0  0  0
   57.5490   32.5760   44.5730 C   0  0  0  0  0  0  0  0  0  0  0  0
   57.0790   33.0840   45.7580 C   0  0  0  0  0  0  0  0  0  0  0  0
   57.6270   34.2950   45.9540 N   0  0  0  0  0  0  0  0  0  0  0  0
   58.4160   34.4790   44.8750 C   0  0  0  0  0  0  0  0  0  0  0  0
   58.3960   33.4480   44.0040 N   0  0  0  0  0  0  0  0  0  0  0  0
   60.0230   30.1700   45.9590 C   0  0  0  0  0  0  0  0  0  0  0  0
   60.5300   29.8780   47.2280 C   0  0  0  0  0  0  0  0  0  0  0  0
   59.0760   31.5250   49.5500 N   0  0  0  0  0  0  0  0  0  0  0  0
   60.0500   32.5270   49.9580 C   0  0  0  0  0  0  0  0  0  0  0  0
   60.8640   32.9480   48.7650 C   0  0  0  0  0  0  0  0  0  0  0  0
   60.2810   33.7710   47.7850 C   0  0  0  0  0  0  0  0  0  0  0  0
   61.0270   34.1980   46.6820 C   0  0  0  0  0  0  0  0  0  0  0  0
   62.3630   33.8150   46.5510 C   0  0  0  0  0  0  0  0  0  0  0  0
   62.9600   33.0090   47.5230 C   0  0  0  0  0  0  0  0  0  0  0  0
   62.2220   32.5780   48.6330 C   0  0  0  0  0  0  0  0  0  0  0  0
   63.0310   31.5850   49.8420 Cl  0  0  0  0  0  0  0  0  0  0  0  0
   60.9532   30.0525   50.7984 H   0  0  0  0  0  0  0  0  0  0  0  0
   59.8747   28.7167   51.3178 H   0  0  0  0  0  0  0  0  0  0  0  0
   58.1977   27.5926   48.2374 H   0  0  0  0  0  0  0  0  0  0  0  0
   57.2873   28.1186   45.9787 H   0  0  0  0  0  0  0  0  0  0  0  0
   58.7400   29.3460   43.3540 H   0  0  0  0  0  0  0  0  0  0  0  0
   56.3713   32.5830   46.4349 H   0  0  0  0  0  0  0  0  0  0  0  0
   59.0197   35.3853   44.7195 H   0  0  0  0  0  0  0  0  0  0  0  0
   60.5415   30.9000   45.3200 H   0  0  0  0  0  0  0  0  0  0  0  0
   61.4452   30.3778   47.5781 H   0  0  0  0  0  0  0  0  0  0  0  0
   59.5258   33.4012   50.3715 H   0  0  0  0  0  0  0  0  0  0  0  0
   60.7146   32.1023   50.7247 H   0  0  0  0  0  0  0  0  0  0  0  0
   59.2305   34.0811   47.8868 H   0  0  0  0  0  0  0  0  0  0  0  0
   60.5607   34.8362   45.9170 H   0  0  0  0  0  0  0  0  0  0  0  0
   62.9468   34.1487   45.6804 H   0  0  0  0  0  0  0  0  0  0  0  0
   64.0136   32.7115   47.4165 H   0  0  0  0  0  0  0  0  0  0  0  0
  1  2  2  0
  2  3  1  0
  3  4  1  0
  4  5  1  0
  5  6  2  0
  6  7  1  0
  7  8  2  0
  8  9  1  0
  9 10  1  0
 10 11  2  0
 10 12  2  0
 10 13  1  0
 13 14  2  0
 14 15  1  0
 15 16  1  0
 16 17  2  0
  8 18  1  0
 18 19  2  0
  2 20  1  0
 20 21  1  0
 21 22  1  0
 22 23  2  0
 23 24  1  0
 24 25  2  0
 25 26  1  0
 26 27  2  0
 27 28  1  0
 19  5  1  0
 27 22  1  0
 17 13  1  0
  3 29  1  0
  3 30  1  0
  6 31  1  0
  7 32  1  0
  9 33  1  0
 14 34  1  0
 16 35  1  0
 18 36  1  0
 19 37  1  0
 21 38  1  0
 21 39  1  0
 23 40  1  0
 24 41  1  0
 25 42  1  0
 26 43  1  0
M  CHG  2  15  -1  20  -1
M  END
>  <UniqueID>  (87) 
80

>  <SMILES>  (87) 
O=C(COc1ccc(NS(=O)(=O)c2c[n-]cn2)cc1)[N-]Cc1ccccc1Cl

>  <Energy>  (87) 
72.63517350379719

>  <Genealogy>  (87) 
O=C(COc1ccc(NS(=O)(=O)c2c[n-]cn2)cc1)[N-]Cc1ccccc1Cl (protonated)
O=C(COc1ccc(NS(=O)(=O)c2c[n-]cn2)cc1)[N-]Cc1ccccc1Cl (3D coordinates assigned)
O=C(COc1ccc(NS(=O)(=O)c2c[n-]cn2)cc1)[N-]Cc1ccccc1Cl (optimized conformer: 72.63517350379719 kcal/mol)

>  <smiles>  (87) 
O=C(COc1ccc(NS(=O)(=O)c2c[nH]cn2)cc1)NCc1ccccc1Cl

>  <score_type>  (87) 
oracle

>  <origin>  (87) 
adg

>  <m_score__min__energy>  (87) 
-10.76

>  <m_primary>  (87) 
energy

$$$$
87:0
     RDKit          3D

 28 30  0  0  0  0  0  0  0  0999 V2000
   54.8030   26.7090   45.9990 O   0  0  0  0  0  0  0  0  0  0  0  0
   56.1560   26.4070   46.1030 C   0  0  0  0  0  0  0  0  0  0  0  0
   56.5290   25.1970   46.6990 C   0  0  0  0  0  0  0  0  0  0  0  0
   57.8770   24.8570   46.8220 C   0  0  0  0  0  0  0  0  0  0  0  0
   58.8610   25.7260   46.3500 C   0  0  0  0  0  0  0  0  0  0  0  0
   58.5000   26.9370   45.7530 C   0  0  0  0  0  0  0  0  0  0  0  0
   57.1450   27.2970   45.6210 C   0  0  0  0  0  0  0  0  0  0  0  0
   56.7910   28.5910   44.9820 C   0  0  0  0  0  0  0  0  0  0  0  0
   57.7020   29.4500   44.4750 N   0  0  0  0  0  0  0  0  0  0  0  0
   56.9590   30.4650   44.0040 C   0  0  0  0  0  0  0  0  0  0  0  0
   57.5290   31.7130   43.4080 C   0  0  0  0  0  0  0  0  0  0  0  0
   57.7380   32.7080   44.4530 N   0  0  0  0  0  0  0  0  0  0  0  0
   58.7940   33.5360   44.5550 C   0  0  0  0  0  0  0  0  0  0  0  0
   58.6550   34.2710   45.7130 C   0  0  0  0  0  0  0  0  0  0  0  0
   57.4770   33.8190   46.2770 C   0  0  0  0  0  0  0  0  0  0  0  0
   56.9390   32.8620   45.4960 N   0  0  0  0  0  0  0  0  0  0  0  0
   55.6300   30.2180   44.2480 C   0  0  0  0  0  0  0  0  0  0  0  0
   55.5160   29.0290   44.8630 N   0  0  0  0  0  0  0  0  0  0  0  0
   55.7554   24.5100   47.0726 H   0  0  0  0  0  0  0  0  0  0  0  0
   58.1635   23.9041   47.2910 H   0  0  0  0  0  0  0  0  0  0  0  0
   59.9232   25.4575   46.4479 H   0  0  0  0  0  0  0  0  0  0  0  0
   59.2822   27.6158   45.3825 H   0  0  0  0  0  0  0  0  0  0  0  0
   58.4905   31.4816   42.9264 H   0  0  0  0  0  0  0  0  0  0  0  0
   56.8272   32.1124   42.6611 H   0  0  0  0  0  0  0  0  0  0  0  0
   59.6247   33.6130   43.8381 H   0  0  0  0  0  0  0  0  0  0  0  0
   59.3319   35.0458   46.1020 H   0  0  0  0  0  0  0  0  0  0  0  0
   57.0445   34.1849   47.2199 H   0  0  0  0  0  0  0  0  0  0  0  0
   54.7959   30.8844   43.9833 H   0  0  0  0  0  0  0  0  0  0  0  0
  1  2  1  0
  2  3  2  0
  3  4  1  0
  4  5  2  0
  5  6  1  0
  6  7  2  0
  7  8  1  0
  8  9  2  0
  9 10  1  0
 10 11  1  0
 11 12  1  0
 12 13  1  0
 13 14  2  0
 14 15  1  0
 15 16  2  0
 10 17  2  0
 17 18  1  0
  7  2  1  0
 18  8  1  0
 16 12  1  0
  3 19  1  0
  4 20  1  0
  5 21  1  0
  6 22  1  0
 11 23  1  0
 11 24  1  0
 13 25  1  0
 14 26  1  0
 15 27  1  0
 17 28  1  0
M  CHG  2   1  -1  18  -1
M  END
>  <UniqueID>  (88) 
81

>  <SMILES>  (88) 
[O-]c1ccccc1-c1nc(Cn2cccn2)c[n-]1

>  <Energy>  (88) 
87.40808352046403

>  <Genealogy>  (88) 
[O-]c1ccccc1-c1nc(Cn2cccn2)c[n-]1 (protonated)
[O-]c1ccccc1-c1nc(Cn2cccn2)c[n-]1 (3D coordinates assigned)
[O-]c1ccccc1-c1nc(Cn2cccn2)c[n-]1 (optimized conformer: 87.40808352046403 kcal/mol)

>  <smiles>  (88) 
Oc1ccccc1-c1nc(Cn2cccn2)c[nH]1

>  <score_type>  (88) 
oracle

>  <origin>  (88) 
adg

>  <m_score__min__energy>  (88) 
-13.06

>  <m_primary>  (88) 
energy

$$$$
88:0
     RDKit          3D

 48 50  0  0  0  0  0  0  0  0999 V2000
   59.9860   27.0630   48.7310 O   0  0  0  0  0  0  0  0  0  0  0  0
   59.4860   27.9220   47.9520 C   0  0  0  0  0  0  0  0  0  0  0  0
   58.3370   27.5760   47.1580 N   0  0  0  0  0  0  0  0  0  0  0  0
   57.7880   26.2220   47.1270 C   0  0  0  0  0  0  0  0  0  0  0  0
   56.7670   26.0850   45.9930 C   0  0  0  0  0  0  0  0  0  0  0  0
   55.9950   27.3190   45.8440 N   0  0  0  0  0  0  0  0  0  0  0  0
   56.3890   28.3670   45.1820 C   0  0  0  0  0  0  0  0  0  0  0  0
   55.4940   29.3490   44.8940 N   0  0  0  0  0  0  0  0  0  0  0  0
   55.8680   30.4570   44.2030 C   0  0  0  0  0  0  0  0  0  0  0  0
   57.1870   30.5990   43.7740 C   0  0  0  0  0  0  0  0  0  0  0  0
   58.0940   29.5830   44.0740 C   0  0  0  0  0  0  0  0  0  0  0  0
   57.6820   28.4910   44.7680 N   0  0  0  0  0  0  0  0  0  0  0  0
   60.0900   29.2730   47.8830 C   0  0  0  0  0  0  0  0  0  0  0  0
   59.7230   30.1840   46.8750 C   0  0  0  0  0  0  0  0  0  0  0  0
   60.3120   31.4510   46.8170 C   0  0  0  0  0  0  0  0  0  0  0  0
   61.2740   31.8270   47.7620 C   0  0  0  0  0  0  0  0  0  0  0  0
   62.0350   33.4130   47.6530 S   0  0  0  0  0  0  0  0  0  0  0  0
   62.1800   33.8220   46.2120 O   0  0  0  0  0  0  0  0  0  0  0  0
   63.4040   33.3420   48.2670 O   0  0  0  0  0  0  0  0  0  0  0  0
   61.0890   34.5940   48.5050 N   0  0  0  0  0  0  0  0  0  0  0  0
   59.7260   34.1030   48.6830 C   0  0  0  0  0  0  0  0  0  0  0  0
   59.0040   34.1670   47.3680 C   0  0  0  0  0  0  0  0  0  0  0  0
   59.5260   34.9300   46.3100 C   0  0  0  0  0  0  0  0  0  0  0  0
   58.8700   34.9630   45.0750 C   0  0  0  0  0  0  0  0  0  0  0  0
   57.6970   34.2280   44.8840 C   0  0  0  0  0  0  0  0  0  0  0  0
   57.1810   33.4530   45.9270 C   0  0  0  0  0  0  0  0  0  0  0  0
   57.8340   33.4170   47.1630 C   0  0  0  0  0  0  0  0  0  0  0  0
   61.6550   30.9210   48.7590 C   0  0  0  0  0  0  0  0  0  0  0  0
   61.0700   29.6520   48.8170 C   0  0  0  0  0  0  0  0  0  0  0  0
   57.8610   28.3040   46.5810 H   0  0  0  0  0  0  0  0  0  0  0  0
   58.6052   25.5032   46.9676 H   0  0  0  0  0  0  0  0  0  0  0  0
   57.2867   26.0184   48.0847 H   0  0  0  0  0  0  0  0  0  0  0  0
   57.2972   25.8744   45.0525 H   0  0  0  0  0  0  0  0  0  0  0  0
   56.0778   25.2621   46.2335 H   0  0  0  0  0  0  0  0  0  0  0  0
   55.1302   31.2423   43.9818 H   0  0  0  0  0  0  0  0  0  0  0  0
   57.5043   31.4903   43.2128 H   0  0  0  0  0  0  0  0  0  0  0  0
   59.1416   29.6661   43.7489 H   0  0  0  0  0  0  0  0  0  0  0  0
   58.9680   29.8976   46.1280 H   0  0  0  0  0  0  0  0  0  0  0  0
   60.0180   32.1556   46.0251 H   0  0  0  0  0  0  0  0  0  0  0  0
   59.7530   33.0622   49.0379 H   0  0  0  0  0  0  0  0  0  0  0  0
   59.2022   34.7252   49.4236 H   0  0  0  0  0  0  0  0  0  0  0  0
   60.4537   35.5034   46.4534 H   0  0  0  0  0  0  0  0  0  0  0  0
   59.2783   35.5687   44.2526 H   0  0  0  0  0  0  0  0  0  0  0  0
   57.1799   34.2591   43.9136 H   0  0  0  0  0  0  0  0  0  0  0  0
   56.2601   32.8708   45.7751 H   0  0  0  0  0  0  0  0  0  0  0  0
   57.4298   32.7988   47.9782 H   0  0  0  0  0  0  0  0  0  0  0  0
   62.4167   31.2081   49.4989 H   0  0  0  0  0  0  0  0  0  0  0  0
   61.3794   28.9443   49.6002 H   0  0  0  0  0  0  0  0  0  0  0  0
  1  2  2  0
  2  3  1  0
  3  4  1  0
  4  5  1  0
  5  6  1  0
  6  7  2  3
  7  8  1  0
  8  9  2  0
  9 10  1  0
 10 11  2  0
 11 12  1  0
  2 13  1  0
 13 14  2  0
 14 15  1  0
 15 16  2  0
 16 17  1  0
 17 18  2  0
 17 19  2  0
 17 20  1  0
 20 21  1  0
 21 22  1  0
 22 23  2  0
 23 24  1  0
 24 25  2  0
 25 26  1  0
 26 27  2  0
 16 28  1  0
 28 29  2  0
 12  7  1  0
 29 13  1  0
 27 22  1  0
  3 30  1  0
  4 31  1  0
  4 32  1  0
  5 33  1  0
  5 34  1  0
  9 35  1  0
 10 36  1  0
 11 37  1  0
 14 38  1  0
 15 39  1  0
 21 40  1  0
 21 41  1  0
 23 42  1  0
 24 43  1  0
 25 44  1  0
 26 45  1  0
 27 46  1  0
 28 47  1  0
 29 48  1  0
M  CHG  2  12  -1  20  -1
M  END
>  <UniqueID>  (89) 
82

>  <SMILES>  (89) 
O=C(NCCN=c1nccc[n-]1)c1ccc(S(=O)(=O)[N-]Cc2ccccc2)cc1

>  <Energy>  (89) 
47.678480587659145

>  <Genealogy>  (89) 
O=C(NCCN=c1nccc[n-]1)c1ccc(S(=O)(=O)[N-]Cc2ccccc2)cc1 (protonated)
O=C(NCCN=c1nccc[n-]1)c1ccc(S(=O)(=O)[N-]Cc2ccccc2)cc1 (3D coordinates assigned)
O=C(NCCN=c1nccc[n-]1)c1ccc(S(=O)(=O)[N-]Cc2ccccc2)cc1 (optimized conformer: 47.678480587659145 kcal/mol)

>  <smiles>  (89) 
O=C(NCCN=c1nccc[nH]1)c1ccc(S(=O)(=O)NCc2ccccc2)cc1

>  <score_type>  (89) 
oracle

>  <origin>  (89) 
adg

>  <m_score__min__energy>  (89) 
-10.789999999999999

>  <m_primary>  (89) 
energy

$$$$
89:0
     RDKit          3D

 44 45  0  0  0  0  0  0  0  0999 V2000
   57.7420   21.1860   43.0410 C   0  0  0  0  0  0  0  0  0  0  0  0
   57.1300   22.3130   43.8200 C   0  0  0  0  0  0  0  0  0  0  0  0
   57.7340   22.7640   45.0030 C   0  0  0  0  0  0  0  0  0  0  0  0
   57.1860   23.8380   45.7100 C   0  0  0  0  0  0  0  0  0  0  0  0
   56.0280   24.4780   45.2410 C   0  0  0  0  0  0  0  0  0  0  0  0
   55.4310   25.6350   45.9980 C   0  0  0  0  0  0  0  0  0  0  0  0
   56.1750   26.8660   45.7390 N   0  0  0  0  0  0  0  0  0  0  0  0
   57.5110   27.1510   46.1760 C   0  0  0  0  0  0  0  0  0  0  0  0
   57.7140   27.3280   47.4060 O   0  0  0  0  0  0  0  0  0  0  0  0
   58.6800   27.1670   45.2220 C   0  0  0  0  0  0  0  0  0  0  0  0
   58.6690   28.3850   44.2900 C   0  0  0  0  0  0  0  0  0  0  0  0
   57.4330   28.4100   43.5010 N   0  0  0  0  0  0  0  0  0  0  0  0
   56.4960   29.8210   43.9000 S   0  0  0  0  0  0  0  0  0  0  0  0
   55.4000   29.4370   44.8570 O   0  0  0  0  0  0  0  0  0  0  0  0
   55.8890   30.3700   42.6400 O   0  0  0  0  0  0  0  0  0  0  0  0
   57.5210   31.0670   44.6320 C   0  0  0  0  0  0  0  0  0  0  0  0
   57.7990   32.2370   43.9030 C   0  0  0  0  0  0  0  0  0  0  0  0
   58.6250   33.2280   44.4360 C   0  0  0  0  0  0  0  0  0  0  0  0
   59.1780   33.0700   45.7050 C   0  0  0  0  0  0  0  0  0  0  0  0
   58.8980   31.9230   46.4510 C   0  0  0  0  0  0  0  0  0  0  0  0
   58.0650   30.9180   45.9330 C   0  0  0  0  0  0  0  0  0  0  0  0
   57.7800   29.7730   46.7480 N   0  0  0  0  0  0  0  0  0  0  0  0
   55.4410   24.0450   44.0420 C   0  0  0  0  0  0  0  0  0  0  0  0
   55.9900   22.9710   43.3340 C   0  0  0  0  0  0  0  0  0  0  0  0
   58.1485   20.4375   43.7370 H   0  0  0  0  0  0  0  0  0  0  0  0
   56.9738   20.7186   42.4075 H   0  0  0  0  0  0  0  0  0  0  0  0
   58.5524   21.5758   42.4075 H   0  0  0  0  0  0  0  0  0  0  0  0
   58.6433   22.2700   45.3761 H   0  0  0  0  0  0  0  0  0  0  0  0
   57.6644   24.1834   46.6383 H   0  0  0  0  0  0  0  0  0  0  0  0
   54.3864   25.7720   45.6817 H   0  0  0  0  0  0  0  0  0  0  0  0
   55.4801   25.4140   47.0745 H   0  0  0  0  0  0  0  0  0  0  0  0
   59.6113   27.1805   45.8073 H   0  0  0  0  0  0  0  0  0  0  0  0
   58.6068   26.2676   44.5930 H   0  0  0  0  0  0  0  0  0  0  0  0
   58.7340   29.3034   44.8920 H   0  0  0  0  0  0  0  0  0  0  0  0
   59.5288   28.3210   43.6069 H   0  0  0  0  0  0  0  0  0  0  0  0
   56.8570   27.5790   43.7700 H   0  0  0  0  0  0  0  0  0  0  0  0
   57.3613   32.3726   42.9030 H   0  0  0  0  0  0  0  0  0  0  0  0
   58.8398   34.1356   43.8529 H   0  0  0  0  0  0  0  0  0  0  0  0
   59.8352   33.8487   46.1194 H   0  0  0  0  0  0  0  0  0  0  0  0
   59.3341   31.8057   47.4540 H   0  0  0  0  0  0  0  0  0  0  0  0
   56.9370   29.1850   46.5550 H   0  0  0  0  0  0  0  0  0  0  0  0
   58.4120   29.4550   47.5120 H   0  0  0  0  0  0  0  0  0  0  0  0
   54.5445   24.5530   43.6571 H   0  0  0  0  0  0  0  0  0  0  0  0
   55.5264   22.6409   42.3927 H   0  0  0  0  0  0  0  0  0  0  0  0
  1  2  1  0
  2  3  2  0
  3  4  1  0
  4  5  2  0
  5  6  1  0
  6  7  1  0
  7  8  1  0
  8  9  2  0
  8 10  1  0
 10 11  1  0
 11 12  1  0
 12 13  1  0
 13 14  2  0
 13 15  2  0
 13 16  1  0
 16 17  2  0
 17 18  1  0
 18 19  2  0
 19 20  1  0
 20 21  2  0
 21 22  1  0
  5 23  1  0
 23 24  2  0
 24  2  1  0
 21 16  1  0
  1 25  1  0
  1 26  1  0
  1 27  1  0
  3 28  1  0
  4 29  1  0
  6 30  1  0
  6 31  1  0
 10 32  1  0
 10 33  1  0
 11 34  1  0
 11 35  1  0
 12 36  1  0
 17 37  1  0
 18 38  1  0
 19 39  1  0
 20 40  1  0
 22 41  1  0
 22 42  1  0
 23 43  1  0
 24 44  1  0
M  CHG  1   7  -1
M  END
>  <UniqueID>  (90) 
83

>  <SMILES>  (90) 
Cc1ccc(C[N-]C(=O)CCNS(=O)(=O)c2ccccc2N)cc1

>  <Energy>  (90) 
39.458943582636195

>  <Genealogy>  (90) 
Cc1ccc(C[N-]C(=O)CCNS(=O)(=O)c2ccccc2N)cc1 (protonated)
Cc1ccc(C[N-]C(=O)CCNS(=O)(=O)c2ccccc2N)cc1 (3D coordinates assigned)
Cc1ccc(C[N-]C(=O)CCNS(=O)(=O)c2ccccc2N)cc1 (optimized conformer: 39.458943582636195 kcal/mol)

>  <smiles>  (90) 
Cc1ccc(CNC(=O)CCNS(=O)(=O)c2ccccc2N)cc1

>  <score_type>  (90) 
oracle

>  <origin>  (90) 
adg

>  <m_score__min__energy>  (90) 
-9.8000000000000007

>  <m_primary>  (90) 
energy

$$$$
90:0
     RDKit          3D

 36 37  0  0  0  0  0  0  0  0999 V2000
   59.6640   35.3690   45.9150 C   0  0  0  0  0  0  0  0  0  0  0  0
   60.0910   34.6370   47.0590 O   0  0  0  0  0  0  0  0  0  0  0  0
   60.0890   33.2360   47.1520 C   0  0  0  0  0  0  0  0  0  0  0  0
   61.2780   32.4950   47.2900 C   0  0  0  0  0  0  0  0  0  0  0  0
   61.2360   31.1030   47.3780 C   0  0  0  0  0  0  0  0  0  0  0  0
   60.0100   30.4260   47.3360 C   0  0  0  0  0  0  0  0  0  0  0  0
   59.9700   28.9210   47.3740 C   0  0  0  0  0  0  0  0  0  0  0  0
   59.6450   28.3280   45.9960 C   0  0  0  0  0  0  0  0  0  0  0  0
   58.2910   27.7350   45.9700 N   0  0  0  0  0  0  0  0  0  0  0  0
   58.0860   26.4450   46.3940 C   0  0  0  0  0  0  0  0  0  0  0  0
   59.0490   25.7300   46.7870 O   0  0  0  0  0  0  0  0  0  0  0  0
   56.8010   25.9020   46.4030 C   0  0  0  0  0  0  0  0  0  0  0  0
   55.7380   26.6900   45.9790 C   0  0  0  0  0  0  0  0  0  0  0  0
   54.4480   26.1740   45.9780 O   0  0  0  0  0  0  0  0  0  0  0  0
   55.9630   27.9630   45.5660 N   0  0  0  0  0  0  0  0  0  0  0  0
   57.2180   28.4900   45.5600 C   0  0  0  0  0  0  0  0  0  0  0  0
   57.3820   29.6810   45.1740 O   0  0  0  0  0  0  0  0  0  0  0  0
   58.8230   31.1610   47.1920 C   0  0  0  0  0  0  0  0  0  0  0  0
   58.8560   32.5660   47.1010 C   0  0  0  0  0  0  0  0  0  0  0  0
   57.6880   33.3300   46.9560 O   0  0  0  0  0  0  0  0  0  0  0  0
   57.0060   33.5370   45.7230 C   0  0  0  0  0  0  0  0  0  0  0  0
   59.1341   36.2774   46.2377 H   0  0  0  0  0  0  0  0  0  0  0  0
   60.5398   35.6502   45.3117 H   0  0  0  0  0  0  0  0  0  0  0  0
   58.9882   34.7451   45.3117 H   0  0  0  0  0  0  0  0  0  0  0  0
   62.2458   33.0164   47.3287 H   0  0  0  0  0  0  0  0  0  0  0  0
   62.1714   30.5335   47.4810 H   0  0  0  0  0  0  0  0  0  0  0  0
   60.9511   28.5462   47.7012 H   0  0  0  0  0  0  0  0  0  0  0  0
   59.1786   28.6160   48.0745 H   0  0  0  0  0  0  0  0  0  0  0  0
   59.7009   29.1258   45.2408 H   0  0  0  0  0  0  0  0  0  0  0  0
   60.3750   27.5341   45.7797 H   0  0  0  0  0  0  0  0  0  0  0  0
   56.6323   24.8685   46.7397 H   0  0  0  0  0  0  0  0  0  0  0  0
   55.1550   28.5460   45.2500 H   0  0  0  0  0  0  0  0  0  0  0  0
   57.8580   30.6348   47.1498 H   0  0  0  0  0  0  0  0  0  0  0  0
   55.9712   33.8511   45.9246 H   0  0  0  0  0  0  0  0  0  0  0  0
   57.5209   34.3193   45.1460 H   0  0  0  0  0  0  0  0  0  0  0  0
   56.9992   32.6005   45.1460 H   0  0  0  0  0  0  0  0  0  0  0  0
  1  2  1  0
  2  3  1  0
  3  4  2  0
  4  5  1  0
  5  6  2  0
  6  7  1  0
  7  8  1  0
  8  9  1  0
  9 10  1  0
 10 11  2  0
 10 12  1  0
 12 13  2  0
 13 14  1  0
 13 15  1  0
 15 16  1  0
 16 17  2  0
  6 18  1  0
 18 19  2  0
 19 20  1  0
 20 21  1  0
 19  3  1  0
 16  9  1  0
  1 22  1  0
  1 23  1  0
  1 24  1  0
  4 25  1  0
  5 26  1  0
  7 27  1  0
  7 28  1  0
  8 29  1  0
  8 30  1  0
 12 31  1  0
 15 32  1  0
 18 33  1  0
 21 34  1  0
 21 35  1  0
 21 36  1  0
M  CHG  1  14  -1
M  END
>  <UniqueID>  (91) 
84

>  <SMILES>  (91) 
COc1ccc(CCn2c(=O)cc([O-])[nH]c2=O)cc1OC

>  <Energy>  (91) 
35.54089298162798

>  <Genealogy>  (91) 
COc1ccc(CCn2c(=O)cc([O-])[nH]c2=O)cc1OC (protonated)
COc1ccc(CCn2c(=O)cc([O-])[nH]c2=O)cc1OC (3D coordinates assigned)
COc1ccc(CCn2c(=O)cc([O-])[nH]c2=O)cc1OC (optimized conformer: 35.54089298162798 kcal/mol)

>  <smiles>  (91) 
COc1ccc(CCn2c(=O)cc(O)[nH]c2=O)cc1OC

>  <score_type>  (91) 
oracle

>  <origin>  (91) 
adg

>  <m_score__min__energy>  (91) 
-9.1400000000000006

>  <m_primary>  (91) 
energy

$$$$
91:0
     RDKit          3D

 38 39  0  0  0  0  0  0  0  0999 V2000
   57.6890   26.0640   47.2440 C   0  0  0  0  0  0  0  0  0  0  0  0
   56.7050   26.5760   46.2360 C   0  0  0  0  0  0  0  0  0  0  0  0
   55.4880   26.2830   46.3660 O   0  0  0  0  0  0  0  0  0  0  0  0
   57.1130   27.3610   45.1090 N   0  0  0  0  0  0  0  0  0  0  0  0
   57.1650   28.7940   45.0610 C   0  0  0  0  0  0  0  0  0  0  0  0
   56.0340   29.5690   44.7590 C   0  0  0  0  0  0  0  0  0  0  0  0
   54.8100   28.9700   44.4880 O   0  0  0  0  0  0  0  0  0  0  0  0
   56.1420   30.9210   44.6910 N   0  0  0  0  0  0  0  0  0  0  0  0
   57.3320   31.5420   44.8920 C   0  0  0  0  0  0  0  0  0  0  0  0
   57.4390   33.3260   44.7760 S   0  0  0  0  0  0  0  0  0  0  0  0
   58.2880   33.5370   46.3800 C   0  0  0  0  0  0  0  0  0  0  0  0
   59.6060   34.2200   46.1980 C   0  0  0  0  0  0  0  0  0  0  0  0
   59.6420   35.4720   46.0600 O   0  0  0  0  0  0  0  0  0  0  0  0
   60.7950   33.4270   46.0790 N   0  0  0  0  0  0  0  0  0  0  0  0
   61.7360   33.1130   47.1160 C   0  0  0  0  0  0  0  0  0  0  0  0
   62.7840   33.9850   47.4600 C   0  0  0  0  0  0  0  0  0  0  0  0
   63.6800   33.6460   48.4770 C   0  0  0  0  0  0  0  0  0  0  0  0
   63.5330   32.4400   49.1740 C   0  0  0  0  0  0  0  0  0  0  0  0
   64.6670   31.9980   50.4450 S   0  0  0  0  0  0  0  0  0  0  0  0
   66.2810   32.2930   49.9060 N   0  0  0  0  0  0  0  0  0  0  0  0
   64.3980   32.8070   51.6830 O   0  0  0  0  0  0  0  0  0  0  0  0
   64.5080   30.5410   50.7790 O   0  0  0  0  0  0  0  0  0  0  0  0
   62.4790   31.5780   48.8480 C   0  0  0  0  0  0  0  0  0  0  0  0
   61.5760   31.9140   47.8290 C   0  0  0  0  0  0  0  0  0  0  0  0
   60.5220   31.0580   47.5160 O   0  0  0  0  0  0  0  0  0  0  0  0
   58.4440   30.8090   45.1590 N   0  0  0  0  0  0  0  0  0  0  0  0
   58.3870   29.4550   45.2380 C   0  0  0  0  0  0  0  0  0  0  0  0
   59.4360   28.8020   45.4790 O   0  0  0  0  0  0  0  0  0  0  0  0
   57.3110   26.2607   48.2581 H   0  0  0  0  0  0  0  0  0  0  0  0
   57.8245   24.9810   47.1068 H   0  0  0  0  0  0  0  0  0  0  0  0
   58.6537   26.5745   47.1068 H   0  0  0  0  0  0  0  0  0  0  0  0
   57.6562   34.1439   47.0452 H   0  0  0  0  0  0  0  0  0  0  0  0
   58.4634   32.5438   46.8192 H   0  0  0  0  0  0  0  0  0  0  0  0
   62.8991   34.9394   46.9254 H   0  0  0  0  0  0  0  0  0  0  0  0
   64.5040   34.3288   48.7313 H   0  0  0  0  0  0  0  0  0  0  0  0
   66.2110   32.7430   48.9660 H   0  0  0  0  0  0  0  0  0  0  0  0
   62.3584   30.6311   49.3947 H   0  0  0  0  0  0  0  0  0  0  0  0
   60.0150   31.1360   46.6410 H   0  0  0  0  0  0  0  0  0  0  0  0
  1  2  1  0
  2  3  2  0
  2  4  1  0
  4  5  1  0
  5  6  2  0
  6  7  1  0
  6  8  1  0
  8  9  1  0
  9 10  1  0
 10 11  1  0
 11 12  1  0
 12 13  2  0
 12 14  1  0
 14 15  1  0
 15 16  2  0
 16 17  1  0
 17 18  2  0
 18 19  1  0
 19 20  1  0
 19 21  2  0
 19 22  2  0
 18 23  1  0
 23 24  2  0
 24 25  1  0
  9 26  2  0
 26 27  1  0
 27 28  2  0
 27  5  1  0
 24 15  1  0
  1 29  1  0
  1 30  1  0
  1 31  1  0
 11 32  1  0
 11 33  1  0
 16 34  1  0
 17 35  1  0
 20 36  1  0
 23 37  1  0
 25 38  1  0
M  CHG  5   4  -1   7  -1   8  -1  14  -1  20  -1
M  END
>  <UniqueID>  (92) 
85

>  <SMILES>  (92) 
CC(=O)[N-]c1c([O-])[n-]c(SCC(=O)[N-]c2ccc(S([NH-])(=O)=O)cc2O)nc1=O

>  <Energy>  (92) 
41.85357396401824

>  <Genealogy>  (92) 
CC(=O)[N-]c1c([O-])[n-]c(SCC(=O)[N-]c2ccc(S([NH-])(=O)=O)cc2O)nc1=O (protonated)
CC(=O)[N-]c1c([O-])[n-]c(SCC(=O)[N-]c2ccc(S([NH-])(=O)=O)cc2O)nc1=O (3D coordinates assigned)
CC(=O)[N-]c1c([O-])[n-]c(SCC(=O)[N-]c2ccc(S([NH-])(=O)=O)cc2O)nc1=O (optimized conformer: 41.85357396401824 kcal/mol)

>  <smiles>  (92) 
CC(=O)Nc1c(O)[nH]c(SCC(=O)Nc2ccc(S(N)(=O)=O)cc2O)nc1=O

>  <score_type>  (92) 
oracle

>  <origin>  (92) 
adg

>  <m_score__min__energy>  (92) 
-16.859999999999999

>  <m_primary>  (92) 
energy

$$$$
92:0
     RDKit          3D

 32 34  0  0  0  0  0  0  0  0999 V2000
   56.2460   31.0520   44.5100 O   0  0  0  0  0  0  0  0  0  0  0  0
   57.4670   31.1100   44.8240 C   0  0  0  0  0  0  0  0  0  0  0  0
   58.2800   29.9350   44.7160 N   0  0  0  0  0  0  0  0  0  0  0  0
   57.7490   28.5950   44.4860 C   0  0  0  0  0  0  0  0  0  0  0  0
   56.4620   28.3670   45.2840 C   0  0  0  0  0  0  0  0  0  0  0  0
   56.3310   26.9350   45.7100 C   0  0  0  0  0  0  0  0  0  0  0  0
   57.3700   26.0760   45.9900 C   0  0  0  0  0  0  0  0  0  0  0  0
   56.8650   24.9030   46.4100 N   0  0  0  0  0  0  0  0  0  0  0  0
   55.5320   25.1030   46.3740 C   0  0  0  0  0  0  0  0  0  0  0  0
   54.7040   24.2150   46.7050 O   0  0  0  0  0  0  0  0  0  0  0  0
   55.1570   26.3300   45.9600 N   0  0  0  0  0  0  0  0  0  0  0  0
   58.0430   32.3860   45.3220 C   0  0  0  0  0  0  0  0  0  0  0  0
   58.1520   33.4720   44.4390 C   0  0  0  0  0  0  0  0  0  0  0  0
   58.6810   34.6900   44.8640 C   0  0  0  0  0  0  0  0  0  0  0  0
   59.1250   34.8560   46.1790 C   0  0  0  0  0  0  0  0  0  0  0  0
   59.6490   36.0880   46.5730 O   0  0  0  0  0  0  0  0  0  0  0  0
   59.0410   33.7770   47.0880 C   0  0  0  0  0  0  0  0  0  0  0  0
   59.4870   33.8650   48.4260 C   0  0  0  0  0  0  0  0  0  0  0  0
   59.9740   34.9330   48.8850 O   0  0  0  0  0  0  0  0  0  0  0  0
   59.3960   32.7850   49.2420 N   0  0  0  0  0  0  0  0  0  0  0  0
   58.8840   31.6100   48.8040 C   0  0  0  0  0  0  0  0  0  0  0  0
   58.4440   31.4970   47.5270 N   0  0  0  0  0  0  0  0  0  0  0  0
   58.4990   32.5390   46.6550 C   0  0  0  0  0  0  0  0  0  0  0  0
   57.5334   28.4732   43.4142 H   0  0  0  0  0  0  0  0  0  0  0  0
   58.4989   27.8609   44.8157 H   0  0  0  0  0  0  0  0  0  0  0  0
   56.4770   29.0069   46.1786 H   0  0  0  0  0  0  0  0  0  0  0  0
   55.6057   28.6174   44.6405 H   0  0  0  0  0  0  0  0  0  0  0  0
   58.4396   26.3113   45.8868 H   0  0  0  0  0  0  0  0  0  0  0  0
   57.8155   33.3605   43.3977 H   0  0  0  0  0  0  0  0  0  0  0  0
   58.7497   35.5296   44.1566 H   0  0  0  0  0  0  0  0  0  0  0  0
   59.4530   36.4830   47.4860 H   0  0  0  0  0  0  0  0  0  0  0  0
   58.8253   30.7477   49.4845 H   0  0  0  0  0  0  0  0  0  0  0  0
  1  2  2  0
  2  3  1  0
  3  4  1  0
  4  5  1  0
  5  6  1  0
  6  7  2  0
  7  8  1  0
  8  9  1  0
  9 10  2  0
  9 11  1  0
  2 12  1  0
 12 13  2  0
 13 14  1  0
 14 15  2  0
 15 16  1  0
 15 17  1  0
 17 18  1  0
 18 19  2  0
 18 20  1  0
 20 21  1  0
 21 22  2  0
 22 23  1  0
 11  6  1  0
 23 12  1  0
 23 17  2  0
  4 24  1  0
  4 25  1  0
  5 26  1  0
  5 27  1  0
  7 28  1  0
 13 29  1  0
 14 30  1  0
 16 31  1  0
 21 32  1  0
M  CHG  4   3  -1   8  -1  11  -1  20  -1
M  END
>  <UniqueID>  (93) 
86

>  <SMILES>  (93) 
O=C([N-]CCc1c[n-]c(=O)[n-]1)c1ccc(O)c2c(=O)[n-]cnc12

>  <Energy>  (93) 
66.54999300164603

>  <Genealogy>  (93) 
O=C([N-]CCc1c[n-]c(=O)[n-]1)c1ccc(O)c2c(=O)[n-]cnc12 (protonated)
O=C([N-]CCc1c[n-]c(=O)[n-]1)c1ccc(O)c2c(=O)[n-]cnc12 (3D coordinates assigned)
O=C([N-]CCc1c[n-]c(=O)[n-]1)c1ccc(O)c2c(=O)[n-]cnc12 (optimized conformer: 66.54999300164603 kcal/mol)

>  <smiles>  (93) 
O=C(NCCc1c[nH]c(=O)[nH]1)c1ccc(O)c2c(=O)[nH]cnc12

>  <score_type>  (93) 
oracle

>  <origin>  (93) 
adg

>  <m_score__min__energy>  (93) 
-13.19

>  <m_primary>  (93) 
energy

$$$$
93:0
     RDKit          3D

 37 39  0  0  0  0  0  0  0  0999 V2000
   55.4190   29.2490   44.8690 O   0  0  0  0  0  0  0  0  0  0  0  0
   56.6560   29.0090   44.9040 C   0  0  0  0  0  0  0  0  0  0  0  0
   57.6350   30.1270   44.7510 C   0  0  0  0  0  0  0  0  0  0  0  0
   58.2870   30.6680   46.3720 S   0  0  0  0  0  0  0  0  0  0  0  0
   58.1420   32.4290   46.0370 C   0  0  0  0  0  0  0  0  0  0  0  0
   57.0840   32.9480   45.3790 N   0  0  0  0  0  0  0  0  0  0  0  0
   57.3780   34.2560   45.2540 C   0  0  0  0  0  0  0  0  0  0  0  0
   58.6090   34.5080   45.8140 C   0  0  0  0  0  0  0  0  0  0  0  0
   59.0930   33.3540   46.3120 N   0  0  0  0  0  0  0  0  0  0  0  0
   60.4160   33.1610   46.8490 C   0  0  0  0  0  0  0  0  0  0  0  0
   61.5200   33.8480   46.3200 C   0  0  0  0  0  0  0  0  0  0  0  0
   62.8010   33.6430   46.8400 C   0  0  0  0  0  0  0  0  0  0  0  0
   62.9960   32.7430   47.8950 C   0  0  0  0  0  0  0  0  0  0  0  0
   64.2670   32.5310   48.4230 O   0  0  0  0  0  0  0  0  0  0  0  0
   61.9030   32.0470   48.4210 C   0  0  0  0  0  0  0  0  0  0  0  0
   60.6220   32.2500   47.9010 C   0  0  0  0  0  0  0  0  0  0  0  0
   57.1320   27.6790   45.1330 N   0  0  0  0  0  0  0  0  0  0  0  0
   56.8110   26.9040   46.3250 C   0  0  0  0  0  0  0  0  0  0  0  0
   55.8480   25.8110   45.9880 C   0  0  0  0  0  0  0  0  0  0  0  0
   56.1750   24.4940   45.7350 C   0  0  0  0  0  0  0  0  0  0  0  0
   54.9780   23.8550   45.4950 C   0  0  0  0  0  0  0  0  0  0  0  0
   53.9970   24.8200   45.6190 C   0  0  0  0  0  0  0  0  0  0  0  0
   54.5480   25.9750   45.9150 O   0  0  0  0  0  0  0  0  0  0  0  0
   58.4721   29.7866   44.1239 H   0  0  0  0  0  0  0  0  0  0  0  0
   57.1187   30.9783   44.2834 H   0  0  0  0  0  0  0  0  0  0  0  0
   56.7325   35.0082   44.7770 H   0  0  0  0  0  0  0  0  0  0  0  0
   59.1123   35.4855   45.8491 H   0  0  0  0  0  0  0  0  0  0  0  0
   61.3756   34.5539   45.4888 H   0  0  0  0  0  0  0  0  0  0  0  0
   63.6579   34.1898   46.4196 H   0  0  0  0  0  0  0  0  0  0  0  0
   65.1010   32.6640   47.8640 H   0  0  0  0  0  0  0  0  0  0  0  0
   62.0523   31.3367   49.2476 H   0  0  0  0  0  0  0  0  0  0  0  0
   59.7690   31.6938   48.3170 H   0  0  0  0  0  0  0  0  0  0  0  0
   57.7334   26.4629   46.7306 H   0  0  0  0  0  0  0  0  0  0  0  0
   56.3518   27.5686   47.0717 H   0  0  0  0  0  0  0  0  0  0  0  0
   57.1805   24.0480   45.7267 H   0  0  0  0  0  0  0  0  0  0  0  0
   54.8328   22.7917   45.2535 H   0  0  0  0  0  0  0  0  0  0  0  0
   52.9184   24.6473   45.4895 H   0  0  0  0  0  0  0  0  0  0  0  0
  1  2  2  0
  2  3  1  0
  3  4  1  0
  4  5  1  0
  5  6  2  0
  6  7  1  0
  7  8  2  0
  8  9  1  0
  9 10  1  0
 10 11  2  0
 11 12  1  0
 12 13  2  0
 13 14  1  0
 13 15  1  0
 15 16  2  0
  2 17  1  0
 17 18  1  0
 18 19  1  0
 19 20  2  0
 20 21  1  0
 21 22  2  0
 22 23  1  0
  9  5  1  0
 16 10  1  0
 23 19  1  0
  3 24  1  0
  3 25  1  0
  7 26  1  0
  8 27  1  0
 11 28  1  0
 12 29  1  0
 14 30  1  0
 15 31  1  0
 16 32  1  0
 18 33  1  0
 18 34  1  0
 20 35  1  0
 21 36  1  0
 22 37  1  0
M  CHG  1  17  -1
M  END
>  <UniqueID>  (94) 
87

>  <SMILES>  (94) 
O=C(CSc1nccn1-c1ccc(O)cc1)[N-]Cc1ccco1

>  <Energy>  (94) 
92.98888279941187

>  <Genealogy>  (94) 
O=C(CSc1nccn1-c1ccc(O)cc1)[N-]Cc1ccco1 (protonated)
O=C(CSc1nccn1-c1ccc(O)cc1)[N-]Cc1ccco1 (3D coordinates assigned)
O=C(CSc1nccn1-c1ccc(O)cc1)[N-]Cc1ccco1 (optimized conformer: 92.98888279941187 kcal/mol)

>  <smiles>  (94) 
O=C(CSc1nccn1-c1ccc(O)cc1)NCc1ccco1

>  <score_type>  (94) 
oracle

>  <origin>  (94) 
adg

>  <m_score__min__energy>  (94) 
-10.289999999999999

>  <m_primary>  (94) 
energy

$$$$
